
     RDKit          3D

 54 57  0  0  0  0  0  0  0  0999 V2000
  139.9240   73.4780  222.6900 O   0  0  0  0  0  0  0  0  0  0  0  0
  140.3920   72.3280  222.7040 C   0  0  0  0  0  0  0  0  0  0  0  0
  141.1510   71.9380  221.5360 N   0  0  0  0  0  0  0  0  0  0  0  0
  141.3240   72.8330  220.4510 C   0  0  0  0  0  0  0  0  0  0  0  0
  142.3150   73.9030  220.5180 C   0  0  0  0  0  0  0  0  0  0  0  0
  141.8400   74.9790  221.0940 O   0  0  0  0  0  0  0  0  0  0  0  0
  143.6290   73.9800  220.1010 N   0  0  0  0  0  0  0  0  0  0  0  0
  144.9110   73.8980  220.8450 C   0  0  0  0  0  0  0  0  0  0  0  0
  145.5890   72.7730  220.1250 C   0  0  0  0  0  0  0  0  0  0  0  0
  145.1300   72.9730  218.6740 C   0  0  2  0  0  0  0  0  0  0  0  0
  146.2590   73.2260  217.8770 O   0  0  0  0  0  0  0  0  0  0  0  0
  144.2020   74.1490  218.7330 C   0  0  1  0  0  0  0  0  0  0  0  0
  143.1590   74.2650  217.7300 C   0  0  0  0  0  0  0  0  0  0  0  0
  142.5620   75.5290  217.4580 N   0  0  0  0  0  0  0  0  0  0  0  0
  143.3240   76.7020  217.4890 C   0  0  0  0  0  0  0  0  0  0  0  0
  142.5660   77.7470  218.2840 C   0  0  0  0  0  0  0  0  0  0  0  0
  141.3620   77.0350  218.8360 C   0  0  0  0  0  0  0  0  0  0  0  0
  141.2830   75.7490  218.0510 C   0  0  0  0  0  0  0  0  0  0  0  0
  140.2310   71.3760  223.7920 C   0  0  0  0  0  0  0  0  0  0  0  0
  139.5830   70.1830  223.5630 C   0  0  0  0  0  0  0  0  0  0  0  0
  139.4480   69.3000  224.6270 C   0  0  0  0  0  0  0  0  0  0  0  0
  139.9580   69.6340  225.8580 C   0  0  0  0  0  0  0  0  0  0  0  0
  139.8110   68.7370  226.8990 C   0  0  0  0  0  0  0  0  0  0  0  0
  140.3060   69.0240  228.1570 C   0  0  0  0  0  0  0  0  0  0  0  0
  140.1640   68.1460  229.1780 F   0  0  0  0  0  0  0  0  0  0  0  0
  140.9480   70.2280  228.3370 C   0  0  0  0  0  0  0  0  0  0  0  0
  141.0990   71.1310  227.3030 C   0  0  0  0  0  0  0  0  0  0  0  0
  140.5970   70.8200  226.0630 C   0  0  0  0  0  0  0  0  0  0  0  0
  140.7160   71.6590  225.0190 N   0  0  0  0  0  0  0  0  0  0  0  0
  141.5630   70.9630  221.5340 H   0  0  0  0  0  0  0  0  0  0  0  0
  141.5831   72.2192  219.5757 H   0  0  0  0  0  0  0  0  0  0  0  0
  140.3711   73.3823  220.4320 H   0  0  0  0  0  0  0  0  0  0  0  0
  145.4850   74.8329  220.7647 H   0  0  0  0  0  0  0  0  0  0  0  0
  144.7972   73.7398  221.9276 H   0  0  0  0  0  0  0  0  0  0  0  0
  146.6830   72.8510  220.2089 H   0  0  0  0  0  0  0  0  0  0  0  0
  145.3361   71.7817  220.5293 H   0  0  0  0  0  0  0  0  0  0  0  0
  144.6237   72.0997  218.2370 H   0  0  0  0  0  0  0  0  0  0  0  0
  146.3810   74.1870  217.7970 H   0  0  0  0  0  0  0  0  0  0  0  0
  144.7513   75.0783  218.5215 H   0  0  0  0  0  0  0  0  0  0  0  0
  143.5900   73.9085  216.7828 H   0  0  0  0  0  0  0  0  0  0  0  0
  142.3304   73.6853  218.1629 H   0  0  0  0  0  0  0  0  0  0  0  0
  144.2936   76.5021  217.9686 H   0  0  0  0  0  0  0  0  0  0  0  0
  143.5021   77.0630  216.4653 H   0  0  0  0  0  0  0  0  0  0  0  0
  143.1908   78.1365  219.1013 H   0  0  0  0  0  0  0  0  0  0  0  0
  142.2816   78.6076  217.6607 H   0  0  0  0  0  0  0  0  0  0  0  0
  141.4922   76.8273  219.9083 H   0  0  0  0  0  0  0  0  0  0  0  0
  140.4451   77.6356  218.7435 H   0  0  0  0  0  0  0  0  0  0  0  0
  141.0316   74.9143  218.7219 H   0  0  0  0  0  0  0  0  0  0  0  0
  140.5036   75.8146  217.2776 H   0  0  0  0  0  0  0  0  0  0  0  0
  139.1843   69.9365  222.5679 H   0  0  0  0  0  0  0  0  0  0  0  0
  138.9349   68.3375  224.4843 H   0  0  0  0  0  0  0  0  0  0  0  0
  139.2934   67.7823  226.7240 H   0  0  0  0  0  0  0  0  0  0  0  0
  141.3511   70.4774  229.3296 H   0  0  0  0  0  0  0  0  0  0  0  0
  141.6151   72.0878  227.4705 H   0  0  0  0  0  0  0  0  0  0  0  0
  1  2  2  0
  2  3  1  0
  3  4  1  0
  4  5  1  0
  5  6  2  0
  5  7  1  0
  7  8  1  0
  8  9  1  0
  9 10  1  0
 10 11  1  0
 10 12  1  0
 12 13  1  0
 13 14  1  0
 14 15  1  0
 15 16  1  0
 16 17  1  0
 17 18  1  0
  2 19  1  0
 19 20  2  0
 20 21  1  0
 21 22  2  0
 22 23  1  0
 23 24  2  0
 24 25  1  0
 24 26  1  0
 26 27  2  0
 27 28  1  0
 28 29  2  0
 12  7  1  0
 18 14  1  0
 29 19  1  0
 28 22  1  0
  3 30  1  0
  4 31  1  0
  4 32  1  0
  8 33  1  0
  8 34  1  0
  9 35  1  0
  9 36  1  0
 10 37  1  6
 11 38  1  0
 12 39  1  1
 13 40  1  0
 13 41  1  0
 15 42  1  0
 15 43  1  0
 16 44  1  0
 16 45  1  0
 17 46  1  0
 17 47  1  0
 18 48  1  0
 18 49  1  0
 20 50  1  0
 21 51  1  0
 23 52  1  0
 26 53  1  0
 27 54  1  0
M  END
>  <smiles>  (1) 
O=C(NCC(=O)N1CC[C@H](O)[C@H]1CN1CCCC1)c1ccc2cc(F)ccc2n1

>  <score_type>  (1) 
oracle

>  <origin>  (1) 
autodockgpu

>  <m_score__min__energy>  (1) 
-8.5600000000000005

>  <m_primary>  (1) 
energy

>  <rmsd>  (1) 
4.161928716163784

>  <m_score__min__rmsd>  (1) 
4.161928716163784

>  <meeko>  (1) 
{"free_energy": -7.87, "intermolecular_energy": -9.96, "internal_energy": -1.43, "cluster_size": 5, "cluster_id": 2, "rank_in_cluster": 3}

>  <energy>  (1) 
-8.56

>  <cluster_rmsd>  (1) 
0.0

>  <cluster>  (1) 
1

$$$$

     RDKit          3D

 54 57  0  0  0  0  0  0  0  0999 V2000
  141.2750   72.3050  221.7910 O   0  0  0  0  0  0  0  0  0  0  0  0
  140.3220   72.2990  222.5870 C   0  0  0  0  0  0  0  0  0  0  0  0
  139.2740   73.2620  222.3280 N   0  0  0  0  0  0  0  0  0  0  0  0
  139.3620   74.1520  221.2290 C   0  0  0  0  0  0  0  0  0  0  0  0
  140.5050   75.0470  221.0840 C   0  0  0  0  0  0  0  0  0  0  0  0
  140.9990   75.4080  222.2420 O   0  0  0  0  0  0  0  0  0  0  0  0
  141.1470   75.5630  219.9750 N   0  0  0  0  0  0  0  0  0  0  0  0
  141.2580   76.9470  219.4500 C   0  0  0  0  0  0  0  0  0  0  0  0
  142.7460   77.1120  219.3910 C   0  0  0  0  0  0  0  0  0  0  0  0
  143.2280   75.7080  219.0000 C   0  0  2  0  0  0  0  0  0  0  0  0
  143.8780   75.7870  217.7570 O   0  0  0  0  0  0  0  0  0  0  0  0
  141.9750   74.8870  218.9330 C   0  0  1  0  0  0  0  0  0  0  0  0
  142.0650   73.4570  219.1710 C   0  0  0  0  0  0  0  0  0  0  0  0
  143.2700   72.8880  219.6730 N   0  0  0  0  0  0  0  0  0  0  0  0
  143.8540   73.3710  220.8490 C   0  0  0  0  0  0  0  0  0  0  0  0
  145.3380   73.5610  220.6060 C   0  0  0  0  0  0  0  0  0  0  0  0
  145.5430   73.2850  219.1420 C   0  0  0  0  0  0  0  0  0  0  0  0
  144.2730   72.6040  218.6990 C   0  0  0  0  0  0  0  0  0  0  0  0
  140.1970   71.4080  223.7300 C   0  0  0  0  0  0  0  0  0  0  0  0
  139.5940   70.1810  223.5740 C   0  0  0  0  0  0  0  0  0  0  0  0
  139.4930   69.3580  224.6880 C   0  0  0  0  0  0  0  0  0  0  0  0
  139.9910   69.7830  225.8970 C   0  0  0  0  0  0  0  0  0  0  0  0
  139.8790   68.9440  226.9890 C   0  0  0  0  0  0  0  0  0  0  0  0
  140.3640   69.3240  228.2260 C   0  0  0  0  0  0  0  0  0  0  0  0
  140.2550   68.5030  229.2970 F   0  0  0  0  0  0  0  0  0  0  0  0
  140.9600   70.5600  228.3330 C   0  0  0  0  0  0  0  0  0  0  0  0
  141.0760   71.4040  227.2460 C   0  0  0  0  0  0  0  0  0  0  0  0
  140.5850   71.0020  226.0290 C   0  0  0  0  0  0  0  0  0  0  0  0
  140.6720   71.7820  224.9360 N   0  0  0  0  0  0  0  0  0  0  0  0
  138.4510   73.2650  222.9940 H   0  0  0  0  0  0  0  0  0  0  0  0
  139.3307   73.5329  220.3203 H   0  0  0  0  0  0  0  0  0  0  0  0
  138.5284   74.8467  221.4093 H   0  0  0  0  0  0  0  0  0  0  0  0
  140.8016   77.0388  218.4534 H   0  0  0  0  0  0  0  0  0  0  0  0
  140.7415   77.7050  220.0571 H   0  0  0  0  0  0  0  0  0  0  0  0
  143.0326   77.8550  218.6322 H   0  0  0  0  0  0  0  0  0  0  0  0
  143.1818   77.4756  220.3333 H   0  0  0  0  0  0  0  0  0  0  0  0
  143.9464   75.2653  219.7056 H   0  0  0  0  0  0  0  0  0  0  0  0
  144.8050   75.5190  217.8670 H   0  0  0  0  0  0  0  0  0  0  0  0
  141.5859   74.8690  217.9043 H   0  0  0  0  0  0  0  0  0  0  0  0
  141.2724   73.2056  219.8911 H   0  0  0  0  0  0  0  0  0  0  0  0
  141.9887   73.0298  218.1602 H   0  0  0  0  0  0  0  0  0  0  0  0
  143.3966   74.3333  221.1224 H   0  0  0  0  0  0  0  0  0  0  0  0
  143.6949   72.6564  221.6700 H   0  0  0  0  0  0  0  0  0  0  0  0
  145.6388   74.5908  220.8490 H   0  0  0  0  0  0  0  0  0  0  0  0
  145.9439   72.8934  221.2363 H   0  0  0  0  0  0  0  0  0  0  0  0
  145.6936   74.2232  218.5878 H   0  0  0  0  0  0  0  0  0  0  0  0
  146.4334   72.6665  218.9559 H   0  0  0  0  0  0  0  0  0  0  0  0
  143.9627   72.9907  217.7171 H   0  0  0  0  0  0  0  0  0  0  0  0
  144.4276   71.5187  218.6082 H   0  0  0  0  0  0  0  0  0  0  0  0
  139.2037   69.8617  222.5964 H   0  0  0  0  0  0  0  0  0  0  0  0
  139.0165   68.3702  224.6035 H   0  0  0  0  0  0  0  0  0  0  0  0
  139.3980   67.9617  226.8724 H   0  0  0  0  0  0  0  0  0  0  0  0
  141.3535   70.8834  229.3080 H   0  0  0  0  0  0  0  0  0  0  0  0
  141.5566   72.3875  227.3544 H   0  0  0  0  0  0  0  0  0  0  0  0
  1  2  2  0
  2  3  1  0
  3  4  1  0
  4  5  1  0
  5  6  2  0
  5  7  1  0
  7  8  1  0
  8  9  1  0
  9 10  1  0
 10 11  1  0
 10 12  1  0
 12 13  1  0
 13 14  1  0
 14 15  1  0
 15 16  1  0
 16 17  1  0
 17 18  1  0
  2 19  1  0
 19 20  2  0
 20 21  1  0
 21 22  2  0
 22 23  1  0
 23 24  2  0
 24 25  1  0
 24 26  1  0
 26 27  2  0
 27 28  1  0
 28 29  2  0
 12  7  1  0
 18 14  1  0
 29 19  1  0
 28 22  1  0
  3 30  1  0
  4 31  1  0
  4 32  1  0
  8 33  1  0
  8 34  1  0
  9 35  1  0
  9 36  1  0
 10 37  1  1
 11 38  1  0
 12 39  1  6
 13 40  1  0
 13 41  1  0
 15 42  1  0
 15 43  1  0
 16 44  1  0
 16 45  1  0
 17 46  1  0
 17 47  1  0
 18 48  1  0
 18 49  1  0
 20 50  1  0
 21 51  1  0
 23 52  1  0
 26 53  1  0
 27 54  1  0
M  END
>  <smiles>  (2) 
O=C(NCC(=O)N1CC[C@H](O)[C@H]1CN1CCCC1)c1ccc2cc(F)ccc2n1

>  <score_type>  (2) 
oracle

>  <origin>  (2) 
autodockgpu

>  <m_score__min__energy>  (2) 
-8.5600000000000005

>  <m_primary>  (2) 
energy

>  <rmsd>  (2) 
4.019173786732629

>  <m_score__min__rmsd>  (2) 
4.019173786732629

>  <meeko>  (2) 
{"free_energy": -7.61, "intermolecular_energy": -9.7, "internal_energy": -1.59, "cluster_size": 28, "cluster_id": 1, "rank_in_cluster": 22}

>  <energy>  (2) 
-8.55

>  <cluster_rmsd>  (2) 
0.06

>  <cluster>  (2) 
1

$$$$

     RDKit          3D

 54 57  0  0  0  0  0  0  0  0999 V2000
  140.5180   74.1050  220.2620 O   0  0  0  0  0  0  0  0  0  0  0  0
  140.1710   74.8870  221.1630 C   0  0  0  0  0  0  0  0  0  0  0  0
  139.1560   74.3970  222.0690 N   0  0  0  0  0  0  0  0  0  0  0  0
  138.6030   73.1020  221.9090 C   0  0  0  0  0  0  0  0  0  0  0  0
  139.2370   71.9400  222.5230 C   0  0  0  0  0  0  0  0  0  0  0  0
  140.5350   71.9390  222.3520 O   0  0  0  0  0  0  0  0  0  0  0  0
  138.7280   70.8720  223.2360 N   0  0  0  0  0  0  0  0  0  0  0  0
  137.4910   70.0680  223.0690 C   0  0  0  0  0  0  0  0  0  0  0  0
  138.0590   68.6870  222.9560 C   0  0  0  0  0  0  0  0  0  0  0  0
  139.2600   68.7360  223.9110 C   0  0  2  0  0  0  0  0  0  0  0  0
  139.0520   67.8040  224.9410 O   0  0  0  0  0  0  0  0  0  0  0  0
  139.2790   70.1470  224.4190 C   0  0  1  0  0  0  0  0  0  0  0  0
  140.5430   70.7160  224.8500 C   0  0  0  0  0  0  0  0  0  0  0  0
  140.9900   70.5370  226.1900 N   0  0  0  0  0  0  0  0  0  0  0  0
  140.4680   69.5140  226.9880 C   0  0  0  0  0  0  0  0  0  0  0  0
  140.1180   70.0930  228.3450 C   0  0  0  0  0  0  0  0  0  0  0  0
  140.3470   71.5750  228.2180 C   0  0  0  0  0  0  0  0  0  0  0  0
  141.1510   71.7320  226.9530 C   0  0  0  0  0  0  0  0  0  0  0  0
  140.7070   76.2250  221.3570 C   0  0  0  0  0  0  0  0  0  0  0  0
  141.6820   76.6980  220.5090 C   0  0  0  0  0  0  0  0  0  0  0  0
  142.1690   77.9800  220.7260 C   0  0  0  0  0  0  0  0  0  0  0  0
  141.6720   78.7310  221.7640 C   0  0  0  0  0  0  0  0  0  0  0  0
  142.1730   80.0050  221.9580 C   0  0  0  0  0  0  0  0  0  0  0  0
  141.7070   80.8000  222.9860 C   0  0  0  0  0  0  0  0  0  0  0  0
  142.1970   82.0480  223.1770 F   0  0  0  0  0  0  0  0  0  0  0  0
  140.7310   80.2840  223.8080 C   0  0  0  0  0  0  0  0  0  0  0  0
  140.2240   79.0130  223.6220 C   0  0  0  0  0  0  0  0  0  0  0  0
  140.7060   78.2440  222.5920 C   0  0  0  0  0  0  0  0  0  0  0  0
  140.2490   76.9990  222.3630 N   0  0  0  0  0  0  0  0  0  0  0  0
  138.8530   75.0480  222.8470 H   0  0  0  0  0  0  0  0  0  0  0  0
  137.5780   73.1469  222.3057 H   0  0  0  0  0  0  0  0  0  0  0  0
  138.7318   72.9117  220.8333 H   0  0  0  0  0  0  0  0  0  0  0  0
  136.8278   70.1616  223.9416 H   0  0  0  0  0  0  0  0  0  0  0  0
  136.8653   70.3714  222.2167 H   0  0  0  0  0  0  0  0  0  0  0  0
  137.3280   67.9301  223.2767 H   0  0  0  0  0  0  0  0  0  0  0  0
  138.3311   68.4101  221.9268 H   0  0  0  0  0  0  0  0  0  0  0  0
  140.2204   68.4793  223.4401 H   0  0  0  0  0  0  0  0  0  0  0  0
  139.8520   67.2610  225.0430 H   0  0  0  0  0  0  0  0  0  0  0  0
  138.7239   70.2187  225.3660 H   0  0  0  0  0  0  0  0  0  0  0  0
  141.3201   70.2910  224.1978 H   0  0  0  0  0  0  0  0  0  0  0  0
  140.3636   71.7995  224.7886 H   0  0  0  0  0  0  0  0  0  0  0  0
  139.5642   69.1004  226.5168 H   0  0  0  0  0  0  0  0  0  0  0  0
  141.2093   68.7093  227.1016 H   0  0  0  0  0  0  0  0  0  0  0  0
  139.0664   69.8858  228.5922 H   0  0  0  0  0  0  0  0  0  0  0  0
  140.7275   69.6521  229.1476 H   0  0  0  0  0  0  0  0  0  0  0  0
  139.3892   72.1098  228.1375 H   0  0  0  0  0  0  0  0  0  0  0  0
  140.8649   71.9922  229.0942 H   0  0  0  0  0  0  0  0  0  0  0  0
  140.7836   72.5958  226.3796 H   0  0  0  0  0  0  0  0  0  0  0  0
  142.2123   71.9013  227.1876 H   0  0  0  0  0  0  0  0  0  0  0  0
  142.0642   76.0790  219.6839 H   0  0  0  0  0  0  0  0  0  0  0  0
  142.9494   78.3928  220.0698 H   0  0  0  0  0  0  0  0  0  0  0  0
  142.9529   80.3901  221.2846 H   0  0  0  0  0  0  0  0  0  0  0  0
  140.3451   80.8996  224.6339 H   0  0  0  0  0  0  0  0  0  0  0  0
  139.4435   78.6216  224.2910 H   0  0  0  0  0  0  0  0  0  0  0  0
  1  2  2  0
  2  3  1  0
  3  4  1  0
  4  5  1  0
  5  6  2  0
  5  7  1  0
  7  8  1  0
  8  9  1  0
  9 10  1  0
 10 11  1  0
 10 12  1  0
 12 13  1  0
 13 14  1  0
 14 15  1  0
 15 16  1  0
 16 17  1  0
 17 18  1  0
  2 19  1  0
 19 20  2  0
 20 21  1  0
 21 22  2  0
 22 23  1  0
 23 24  2  0
 24 25  1  0
 24 26  1  0
 26 27  2  0
 27 28  1  0
 28 29  2  0
 12  7  1  0
 18 14  1  0
 29 19  1  0
 28 22  1  0
  3 30  1  0
  4 31  1  0
  4 32  1  0
  8 33  1  0
  8 34  1  0
  9 35  1  0
  9 36  1  0
 10 37  1  6
 11 38  1  0
 12 39  1  1
 13 40  1  0
 13 41  1  0
 15 42  1  0
 15 43  1  0
 16 44  1  0
 16 45  1  0
 17 46  1  0
 17 47  1  0
 18 48  1  0
 18 49  1  0
 20 50  1  0
 21 51  1  0
 23 52  1  0
 26 53  1  0
 27 54  1  0
M  END
>  <smiles>  (3) 
O=C(NCC(=O)N1CC[C@H](O)[C@H]1CN1CCCC1)c1ccc2cc(F)ccc2n1

>  <score_type>  (3) 
oracle

>  <origin>  (3) 
autodockgpu

>  <m_score__min__energy>  (3) 
-8.5600000000000005

>  <m_primary>  (3) 
energy

>  <rmsd>  (3) 
9.29057339242786

>  <m_score__min__rmsd>  (3) 
9.29057339242786

>  <meeko>  (3) 
{"free_energy": -7.89, "intermolecular_energy": -9.98, "internal_energy": -1.45, "cluster_size": 5, "cluster_id": 3, "rank_in_cluster": 1}

>  <energy>  (3) 
-8.54

>  <cluster_rmsd>  (3) 
0.99

>  <cluster>  (3) 
1

$$$$

     RDKit          3D

 54 57  0  0  0  0  0  0  0  0999 V2000
  141.0990   71.7130  221.3490 O   0  0  0  0  0  0  0  0  0  0  0  0
  140.4790   72.0290  222.3780 C   0  0  0  0  0  0  0  0  0  0  0  0
  139.9400   73.3710  222.4060 N   0  0  0  0  0  0  0  0  0  0  0  0
  140.1310   74.2540  221.3130 C   0  0  0  0  0  0  0  0  0  0  0  0
  140.4370   75.6630  221.5380 C   0  0  0  0  0  0  0  0  0  0  0  0
  139.7000   76.1820  222.4880 O   0  0  0  0  0  0  0  0  0  0  0  0
  141.3430   76.5220  220.9480 N   0  0  0  0  0  0  0  0  0  0  0  0
  142.4630   76.2850  220.0020 C   0  0  0  0  0  0  0  0  0  0  0  0
  142.0840   77.1960  218.8750 C   0  0  0  0  0  0  0  0  0  0  0  0
  141.4460   78.3880  219.6030 C   0  0  2  0  0  0  0  0  0  0  0  0
  142.2110   79.5360  219.3390 O   0  0  0  0  0  0  0  0  0  0  0  0
  141.4800   78.0050  221.0520 C   0  0  1  0  0  0  0  0  0  0  0  0
  140.4850   78.5700  221.9460 C   0  0  0  0  0  0  0  0  0  0  0  0
  140.8870   79.3750  223.0500 N   0  0  0  0  0  0  0  0  0  0  0  0
  140.6060   80.7450  223.0760 C   0  0  0  0  0  0  0  0  0  0  0  0
  141.8630   81.4850  223.4910 C   0  0  0  0  0  0  0  0  0  0  0  0
  142.9390   80.4360  223.5630 C   0  0  0  0  0  0  0  0  0  0  0  0
  142.1970   79.1240  223.5530 C   0  0  0  0  0  0  0  0  0  0  0  0
  140.2660   71.1590  223.5230 C   0  0  0  0  0  0  0  0  0  0  0  0
  139.5850   69.9730  223.3600 C   0  0  0  0  0  0  0  0  0  0  0  0
  139.4020   69.1680  224.4770 C   0  0  0  0  0  0  0  0  0  0  0  0
  139.8980   69.5680  225.6950 C   0  0  0  0  0  0  0  0  0  0  0  0
  139.7030   68.7470  226.7890 C   0  0  0  0  0  0  0  0  0  0  0  0
  140.1820   69.1040  228.0350 C   0  0  0  0  0  0  0  0  0  0  0  0
  139.9920   68.3000  229.1090 F   0  0  0  0  0  0  0  0  0  0  0  0
  140.8570   70.2970  228.1490 C   0  0  0  0  0  0  0  0  0  0  0  0
  141.0570   71.1230  227.0600 C   0  0  0  0  0  0  0  0  0  0  0  0
  140.5700   70.7450  225.8340 C   0  0  0  0  0  0  0  0  0  0  0  0
  140.7350   71.5090  224.7390 N   0  0  0  0  0  0  0  0  0  0  0  0
  139.4030   73.6550  223.2730 H   0  0  0  0  0  0  0  0  0  0  0  0
  140.9606   73.8434  220.7187 H   0  0  0  0  0  0  0  0  0  0  0  0
  139.1337   74.2906  220.8503 H   0  0  0  0  0  0  0  0  0  0  0  0
  143.4304   76.5683  220.4424 H   0  0  0  0  0  0  0  0  0  0  0  0
  142.5941   75.2327  219.7095 H   0  0  0  0  0  0  0  0  0  0  0  0
  142.9700   77.5088  218.3030 H   0  0  0  0  0  0  0  0  0  0  0  0
  141.4149   76.7251  218.1398 H   0  0  0  0  0  0  0  0  0  0  0  0
  140.4174   78.6124  219.2843 H   0  0  0  0  0  0  0  0  0  0  0  0
  142.7690   79.7300  220.1110 H   0  0  0  0  0  0  0  0  0  0  0  0
  142.3883   78.4011  221.5296 H   0  0  0  0  0  0  0  0  0  0  0  0
  139.8200   79.1907  221.3275 H   0  0  0  0  0  0  0  0  0  0  0  0
  140.0499   77.6826  222.4289 H   0  0  0  0  0  0  0  0  0  0  0  0
  140.2918   81.0786  222.0760 H   0  0  0  0  0  0  0  0  0  0  0  0
  139.7943   80.9503  223.7894 H   0  0  0  0  0  0  0  0  0  0  0  0
  142.1221   82.2515  222.7458 H   0  0  0  0  0  0  0  0  0  0  0  0
  141.7334   82.0046  224.4519 H   0  0  0  0  0  0  0  0  0  0  0  0
  143.6100   80.5086  222.6944 H   0  0  0  0  0  0  0  0  0  0  0  0
  143.5711   80.5494  224.4561 H   0  0  0  0  0  0  0  0  0  0  0  0
  142.7167   78.4038  222.9039 H   0  0  0  0  0  0  0  0  0  0  0  0
  142.1475   78.6998  224.5667 H   0  0  0  0  0  0  0  0  0  0  0  0
  139.1979   69.6725  222.3752 H   0  0  0  0  0  0  0  0  0  0  0  0
  138.8621   68.2138  224.3873 H   0  0  0  0  0  0  0  0  0  0  0  0
  139.1601   67.7981  226.6667 H   0  0  0  0  0  0  0  0  0  0  0  0
  141.2472   70.6008  229.1316 H   0  0  0  0  0  0  0  0  0  0  0  0
  141.6003   72.0726  227.1742 H   0  0  0  0  0  0  0  0  0  0  0  0
  1  2  2  0
  2  3  1  0
  3  4  1  0
  4  5  1  0
  5  6  2  0
  5  7  1  0
  7  8  1  0
  8  9  1  0
  9 10  1  0
 10 11  1  0
 10 12  1  0
 12 13  1  0
 13 14  1  0
 14 15  1  0
 15 16  1  0
 16 17  1  0
 17 18  1  0
  2 19  1  0
 19 20  2  0
 20 21  1  0
 21 22  2  0
 22 23  1  0
 23 24  2  0
 24 25  1  0
 24 26  1  0
 26 27  2  0
 27 28  1  0
 28 29  2  0
 12  7  1  0
 18 14  1  0
 29 19  1  0
 28 22  1  0
  3 30  1  0
  4 31  1  0
  4 32  1  0
  8 33  1  0
  8 34  1  0
  9 35  1  0
  9 36  1  0
 10 37  1  6
 11 38  1  0
 12 39  1  1
 13 40  1  0
 13 41  1  0
 15 42  1  0
 15 43  1  0
 16 44  1  0
 16 45  1  0
 17 46  1  0
 17 47  1  0
 18 48  1  0
 18 49  1  0
 20 50  1  0
 21 51  1  0
 23 52  1  0
 26 53  1  0
 27 54  1  0
M  END
>  <smiles>  (4) 
O=C(NCC(=O)N1CC[C@H](O)[C@H]1CN1CCCC1)c1ccc2cc(F)ccc2n1

>  <score_type>  (4) 
oracle

>  <origin>  (4) 
autodockgpu

>  <m_score__min__energy>  (4) 
-8.5600000000000005

>  <m_primary>  (4) 
energy

>  <rmsd>  (4) 
2.717266436951072

>  <m_score__min__rmsd>  (4) 
2.717266436951072

>  <meeko>  (4) 
{"free_energy": -8.33, "intermolecular_energy": -10.42, "internal_energy": -1.17, "cluster_size": 28, "cluster_id": 1, "rank_in_cluster": 8}

>  <energy>  (4) 
-8.48

>  <cluster_rmsd>  (4) 
1.01

>  <cluster>  (4) 
1

$$$$

     RDKit          3D

 54 57  0  0  0  0  0  0  0  0999 V2000
  139.5050   71.4180  221.0870 O   0  0  0  0  0  0  0  0  0  0  0  0
  139.5510   71.8390  222.2550 C   0  0  0  0  0  0  0  0  0  0  0  0
  139.5090   73.2760  222.4130 N   0  0  0  0  0  0  0  0  0  0  0  0
  139.4290   74.1280  221.2840 C   0  0  0  0  0  0  0  0  0  0  0  0
  140.4900   75.0890  220.9980 C   0  0  0  0  0  0  0  0  0  0  0  0
  141.0060   75.5920  222.0910 O   0  0  0  0  0  0  0  0  0  0  0  0
  141.0350   75.5450  219.8140 N   0  0  0  0  0  0  0  0  0  0  0  0
  140.6080   76.6110  218.8730 C   0  0  0  0  0  0  0  0  0  0  0  0
  141.8350   77.4700  218.8370 C   0  0  0  0  0  0  0  0  0  0  0  0
  142.9710   76.4430  218.9490 C   0  0  2  0  0  0  0  0  0  0  0  0
  143.7500   76.5080  217.7810 O   0  0  0  0  0  0  0  0  0  0  0  0
  142.2720   75.1250  219.0910 C   0  0  1  0  0  0  0  0  0  0  0  0
  142.9530   74.0460  219.7860 C   0  0  0  0  0  0  0  0  0  0  0  0
  144.3620   73.8880  219.6570 N   0  0  0  0  0  0  0  0  0  0  0  0
  144.9070   72.6880  219.1900 C   0  0  0  0  0  0  0  0  0  0  0  0
  146.0520   72.2910  220.1020 C   0  0  0  0  0  0  0  0  0  0  0  0
  146.0310   73.2900  221.2260 C   0  0  0  0  0  0  0  0  0  0  0  0
  145.1430   74.4050  220.7330 C   0  0  0  0  0  0  0  0  0  0  0  0
  139.6420   71.0000  223.4390 C   0  0  0  0  0  0  0  0  0  0  0  0
  139.1930   69.6990  223.3880 C   0  0  0  0  0  0  0  0  0  0  0  0
  139.2970   68.9280  224.5390 C   0  0  0  0  0  0  0  0  0  0  0  0
  139.8350   69.4750  225.6790 C   0  0  0  0  0  0  0  0  0  0  0  0
  139.9270   68.6860  226.8110 C   0  0  0  0  0  0  0  0  0  0  0  0
  140.4610   69.1870  227.9820 C   0  0  0  0  0  0  0  0  0  0  0  0
  140.5520   68.4160  229.0910 F   0  0  0  0  0  0  0  0  0  0  0  0
  140.8960   70.4930  227.9850 C   0  0  0  0  0  0  0  0  0  0  0  0
  140.8090   71.2880  226.8590 C   0  0  0  0  0  0  0  0  0  0  0  0
  140.2730   70.7650  225.7080 C   0  0  0  0  0  0  0  0  0  0  0  0
  140.1640   71.4920  224.5820 N   0  0  0  0  0  0  0  0  0  0  0  0
  139.5420   73.6510  223.4020 H   0  0  0  0  0  0  0  0  0  0  0  0
  139.3510   73.4747  220.4025 H   0  0  0  0  0  0  0  0  0  0  0  0
  138.5720   74.7740  221.5250 H   0  0  0  0  0  0  0  0  0  0  0  0
  140.3721   76.2019  217.8795 H   0  0  0  0  0  0  0  0  0  0  0  0
  139.6924   77.1411  219.1741 H   0  0  0  0  0  0  0  0  0  0  0  0
  141.8990   78.0305  217.8927 H   0  0  0  0  0  0  0  0  0  0  0  0
  141.8569   78.2325  219.6296 H   0  0  0  0  0  0  0  0  0  0  0  0
  143.6526   76.6149  219.7951 H   0  0  0  0  0  0  0  0  0  0  0  0
  144.4650   75.8520  217.8400 H   0  0  0  0  0  0  0  0  0  0  0  0
  142.1510   74.6504  218.1061 H   0  0  0  0  0  0  0  0  0  0  0  0
  142.7462   74.1797  220.8581 H   0  0  0  0  0  0  0  0  0  0  0  0
  142.5540   73.1435  219.2999 H   0  0  0  0  0  0  0  0  0  0  0  0
  144.1367   71.9028  219.1985 H   0  0  0  0  0  0  0  0  0  0  0  0
  145.2728   72.8162  218.1606 H   0  0  0  0  0  0  0  0  0  0  0  0
  145.9005   71.2726  220.4892 H   0  0  0  0  0  0  0  0  0  0  0  0
  147.0161   72.2908  219.5724 H   0  0  0  0  0  0  0  0  0  0  0  0
  145.6152   72.8380  222.1386 H   0  0  0  0  0  0  0  0  0  0  0  0
  147.0393   73.6454  221.4849 H   0  0  0  0  0  0  0  0  0  0  0  0
  144.4841   74.7470  221.5447 H   0  0  0  0  0  0  0  0  0  0  0  0
  145.7467   75.2609  220.3969 H   0  0  0  0  0  0  0  0  0  0  0  0
  138.7650   69.2830  222.4640 H   0  0  0  0  0  0  0  0  0  0  0  0
  138.9501   67.8841  224.5378 H   0  0  0  0  0  0  0  0  0  0  0  0
  139.5703   67.6460  226.7783 H   0  0  0  0  0  0  0  0  0  0  0  0
  141.3235   70.9139  228.9070 H   0  0  0  0  0  0  0  0  0  0  0  0
  141.1651   72.3285  226.8839 H   0  0  0  0  0  0  0  0  0  0  0  0
  1  2  2  0
  2  3  1  0
  3  4  1  0
  4  5  1  0
  5  6  2  0
  5  7  1  0
  7  8  1  0
  8  9  1  0
  9 10  1  0
 10 11  1  0
 10 12  1  0
 12 13  1  0
 13 14  1  0
 14 15  1  0
 15 16  1  0
 16 17  1  0
 17 18  1  0
  2 19  1  0
 19 20  2  0
 20 21  1  0
 21 22  2  0
 22 23  1  0
 23 24  2  0
 24 25  1  0
 24 26  1  0
 26 27  2  0
 27 28  1  0
 28 29  2  0
 12  7  1  0
 18 14  1  0
 29 19  1  0
 28 22  1  0
  3 30  1  0
  4 31  1  0
  4 32  1  0
  8 33  1  0
  8 34  1  0
  9 35  1  0
  9 36  1  0
 10 37  1  1
 11 38  1  0
 12 39  1  6
 13 40  1  0
 13 41  1  0
 15 42  1  0
 15 43  1  0
 16 44  1  0
 16 45  1  0
 17 46  1  0
 17 47  1  0
 18 48  1  0
 18 49  1  0
 20 50  1  0
 21 51  1  0
 23 52  1  0
 26 53  1  0
 27 54  1  0
M  END
>  <smiles>  (5) 
O=C(NCC(=O)N1CC[C@H](O)[C@H]1CN1CCCC1)c1ccc2cc(F)ccc2n1

>  <score_type>  (5) 
oracle

>  <origin>  (5) 
autodockgpu

>  <m_score__min__energy>  (5) 
-8.5600000000000005

>  <m_primary>  (5) 
energy

>  <rmsd>  (5) 
4.064343454146129

>  <m_score__min__rmsd>  (5) 
4.064343454146129

>  <meeko>  (5) 
{"free_energy": -7.64, "intermolecular_energy": -9.73, "internal_energy": -1.77, "cluster_size": 4, "cluster_id": 4, "rank_in_cluster": 4}

>  <energy>  (5) 
-8.41

>  <cluster_rmsd>  (5) 
0.63

>  <cluster>  (5) 
1

$$$$

     RDKit          3D

 54 57  0  0  0  0  0  0  0  0999 V2000
  134.7300   68.5070  225.0870 O   0  0  0  0  0  0  0  0  0  0  0  0
  135.0860   69.6910  224.9730 C   0  0  0  0  0  0  0  0  0  0  0  0
  136.2580   69.9240  224.1570 N   0  0  0  0  0  0  0  0  0  0  0  0
  136.9420   68.8450  223.5450 C   0  0  0  0  0  0  0  0  0  0  0  0
  138.3510   68.9640  223.1850 C   0  0  0  0  0  0  0  0  0  0  0  0
  138.9910   67.8290  223.3180 O   0  0  0  0  0  0  0  0  0  0  0  0
  139.1090   70.0270  222.7360 N   0  0  0  0  0  0  0  0  0  0  0  0
  139.6050   70.3900  221.3840 C   0  0  0  0  0  0  0  0  0  0  0  0
  139.0380   71.7680  221.2320 C   0  0  0  0  0  0  0  0  0  0  0  0
  139.1210   72.3280  222.6590 C   0  0  2  0  0  0  0  0  0  0  0  0
  139.9750   73.4430  222.6540 O   0  0  0  0  0  0  0  0  0  0  0  0
  139.6700   71.1970  223.4750 C   0  0  1  0  0  0  0  0  0  0  0  0
  139.3470   71.1370  224.8890 C   0  0  0  0  0  0  0  0  0  0  0  0
  140.3240   70.7010  225.8300 N   0  0  0  0  0  0  0  0  0  0  0  0
  140.0400   69.6680  226.7290 C   0  0  0  0  0  0  0  0  0  0  0  0
  140.4960   70.0950  228.1110 C   0  0  0  0  0  0  0  0  0  0  0  0
  140.9360   71.5250  227.9630 C   0  0  0  0  0  0  0  0  0  0  0  0
  141.0650   71.7350  226.4750 C   0  0  0  0  0  0  0  0  0  0  0  0
  134.4180   70.8260  225.5900 C   0  0  0  0  0  0  0  0  0  0  0  0
  133.4090   70.6080  226.5020 C   0  0  0  0  0  0  0  0  0  0  0  0
  132.7950   71.7170  227.0710 C   0  0  0  0  0  0  0  0  0  0  0  0
  133.2030   72.9800  226.7150 C   0  0  0  0  0  0  0  0  0  0  0  0
  132.5750   74.0650  227.2960 C   0  0  0  0  0  0  0  0  0  0  0  0
  132.9490   75.3550  226.9720 C   0  0  0  0  0  0  0  0  0  0  0  0
  132.3350   76.4200  227.5410 F   0  0  0  0  0  0  0  0  0  0  0  0
  133.9620   75.5230  226.0570 C   0  0  0  0  0  0  0  0  0  0  0  0
  134.5950   74.4440  225.4710 C   0  0  0  0  0  0  0  0  0  0  0  0
  134.2040   73.1720  225.8100 C   0  0  0  0  0  0  0  0  0  0  0  0
  134.7840   72.0850  225.2730 N   0  0  0  0  0  0  0  0  0  0  0  0
  136.5720   70.9290  224.0440 H   0  0  0  0  0  0  0  0  0  0  0  0
  136.8652   67.9922  224.2356 H   0  0  0  0  0  0  0  0  0  0  0  0
  136.4453   68.7632  222.5669 H   0  0  0  0  0  0  0  0  0  0  0  0
  140.7043   70.3990  221.3460 H   0  0  0  0  0  0  0  0  0  0  0  0
  139.3107   69.6884  220.5896 H   0  0  0  0  0  0  0  0  0  0  0  0
  139.6395   72.3694  220.5345 H   0  0  0  0  0  0  0  0  0  0  0  0
  138.0186   71.7768  220.8188 H   0  0  0  0  0  0  0  0  0  0  0  0
  138.1575   72.6688  223.0659 H   0  0  0  0  0  0  0  0  0  0  0  0
  139.5320   74.1840  223.1010 H   0  0  0  0  0  0  0  0  0  0  0  0
  140.7646   71.2767  223.5491 H   0  0  0  0  0  0  0  0  0  0  0  0
  139.0497   72.1527  225.1891 H   0  0  0  0  0  0  0  0  0  0  0  0
  138.5825   70.3476  224.9379 H   0  0  0  0  0  0  0  0  0  0  0  0
  138.9576   69.4720  226.7393 H   0  0  0  0  0  0  0  0  0  0  0  0
  140.5639   68.7495  226.4259 H   0  0  0  0  0  0  0  0  0  0  0  0
  139.6668   70.0201  228.8299 H   0  0  0  0  0  0  0  0  0  0  0  0
  141.3065   69.4551  228.4898 H   0  0  0  0  0  0  0  0  0  0  0  0
  140.1850   72.2076  228.3872 H   0  0  0  0  0  0  0  0  0  0  0  0
  141.8775   71.7274  228.4946 H   0  0  0  0  0  0  0  0  0  0  0  0
  140.6571   72.7182  226.1978 H   0  0  0  0  0  0  0  0  0  0  0  0
  142.1212   71.7029  226.1695 H   0  0  0  0  0  0  0  0  0  0  0  0
  133.0989   69.5876  226.7715 H   0  0  0  0  0  0  0  0  0  0  0  0
  131.9853   71.5845  227.8037 H   0  0  0  0  0  0  0  0  0  0  0  0
  131.7679   73.8998  228.0249 H   0  0  0  0  0  0  0  0  0  0  0  0
  134.2759   76.5416  225.7851 H   0  0  0  0  0  0  0  0  0  0  0  0
  135.4029   74.6019  224.7413 H   0  0  0  0  0  0  0  0  0  0  0  0
  1  2  2  0
  2  3  1  0
  3  4  1  0
  4  5  1  0
  5  6  2  0
  5  7  1  0
  7  8  1  0
  8  9  1  0
  9 10  1  0
 10 11  1  0
 10 12  1  0
 12 13  1  0
 13 14  1  0
 14 15  1  0
 15 16  1  0
 16 17  1  0
 17 18  1  0
  2 19  1  0
 19 20  2  0
 20 21  1  0
 21 22  2  0
 22 23  1  0
 23 24  2  0
 24 25  1  0
 24 26  1  0
 26 27  2  0
 27 28  1  0
 28 29  2  0
 12  7  1  0
 18 14  1  0
 29 19  1  0
 28 22  1  0
  3 30  1  0
  4 31  1  0
  4 32  1  0
  8 33  1  0
  8 34  1  0
  9 35  1  0
  9 36  1  0
 10 37  1  1
 11 38  1  0
 12 39  1  1
 13 40  1  0
 13 41  1  0
 15 42  1  0
 15 43  1  0
 16 44  1  0
 16 45  1  0
 17 46  1  0
 17 47  1  0
 18 48  1  0
 18 49  1  0
 20 50  1  0
 21 51  1  0
 23 52  1  0
 26 53  1  0
 27 54  1  0
M  END
>  <smiles>  (6) 
O=C(NCC(=O)N1CC[C@H](O)[C@H]1CN1CCCC1)c1ccc2cc(F)ccc2n1

>  <score_type>  (6) 
oracle

>  <origin>  (6) 
autodockgpu

>  <m_score__min__energy>  (6) 
-8.5600000000000005

>  <m_primary>  (6) 
energy

>  <rmsd>  (6) 
8.025962103291844

>  <m_score__min__rmsd>  (6) 
8.025962103291844

>  <meeko>  (6) 
{"free_energy": -7.55, "intermolecular_energy": -9.64, "internal_energy": -1.76, "cluster_size": 5, "cluster_id": 6, "rank_in_cluster": 2}

>  <energy>  (6) 
-8.34

>  <cluster_rmsd>  (6) 
0.78

>  <cluster>  (6) 
1

$$$$

     RDKit          3D

 54 57  0  0  0  0  0  0  0  0999 V2000
  138.4290   71.1590  221.3280 O   0  0  0  0  0  0  0  0  0  0  0  0
  138.9180   71.6450  222.3610 C   0  0  0  0  0  0  0  0  0  0  0  0
  139.1190   73.0780  222.3530 N   0  0  0  0  0  0  0  0  0  0  0  0
  138.7750   73.8530  221.2170 C   0  0  0  0  0  0  0  0  0  0  0  0
  139.8110   74.4060  220.3510 C   0  0  0  0  0  0  0  0  0  0  0  0
  139.3800   74.6030  219.1300 O   0  0  0  0  0  0  0  0  0  0  0  0
  141.1280   74.7550  220.5820 N   0  0  0  0  0  0  0  0  0  0  0  0
  142.3460   73.9350  220.7980 C   0  0  0  0  0  0  0  0  0  0  0  0
  143.2380   74.4560  219.7130 C   0  0  0  0  0  0  0  0  0  0  0  0
  142.8670   75.9450  219.6560 C   0  0  2  0  0  0  0  0  0  0  0  0
  144.0040   76.7020  219.9830 O   0  0  0  0  0  0  0  0  0  0  0  0
  141.7730   76.0980  220.6690 C   0  0  1  0  0  0  0  0  0  0  0  0
  140.8050   77.1660  220.4920 C   0  0  0  0  0  0  0  0  0  0  0  0
  140.8420   78.3140  221.3340 N   0  0  0  0  0  0  0  0  0  0  0  0
  141.8160   79.3010  221.1530 C   0  0  0  0  0  0  0  0  0  0  0  0
  142.4050   79.6480  222.5060 C   0  0  0  0  0  0  0  0  0  0  0  0
  141.7920   78.6720  223.4720 C   0  0  0  0  0  0  0  0  0  0  0  0
  140.6300   78.0700  222.7230 C   0  0  0  0  0  0  0  0  0  0  0  0
  139.2910   70.8860  223.5430 C   0  0  0  0  0  0  0  0  0  0  0  0
  139.0990   69.5230  223.5660 C   0  0  0  0  0  0  0  0  0  0  0  0
  139.4680   68.8310  224.7130 C   0  0  0  0  0  0  0  0  0  0  0  0
  140.0060   69.5150  225.7770 C   0  0  0  0  0  0  0  0  0  0  0  0
  140.3660   68.8020  226.9060 C   0  0  0  0  0  0  0  0  0  0  0  0
  140.9110   69.4420  228.0020 C   0  0  0  0  0  0  0  0  0  0  0  0
  141.2640   68.7450  229.1090 F   0  0  0  0  0  0  0  0  0  0  0  0
  141.0850   70.8050  227.9330 C   0  0  0  0  0  0  0  0  0  0  0  0
  140.7290   71.5250  226.8090 C   0  0  0  0  0  0  0  0  0  0  0  0
  140.1880   70.8640  225.7330 C   0  0  0  0  0  0  0  0  0  0  0  0
  139.8240   71.5130  224.6130 N   0  0  0  0  0  0  0  0  0  0  0  0
  139.5290   73.5100  223.2280 H   0  0  0  0  0  0  0  0  0  0  0  0
  138.1418   73.2159  220.5820 H   0  0  0  0  0  0  0  0  0  0  0  0
  138.3215   74.7513  221.6612 H   0  0  0  0  0  0  0  0  0  0  0  0
  142.7783   74.1086  221.7945 H   0  0  0  0  0  0  0  0  0  0  0  0
  142.1739   72.8492  220.7610 H   0  0  0  0  0  0  0  0  0  0  0  0
  144.2984   74.3212  219.9725 H   0  0  0  0  0  0  0  0  0  0  0  0
  143.1059   73.9364  218.7525 H   0  0  0  0  0  0  0  0  0  0  0  0
  142.5310   76.2888  218.6666 H   0  0  0  0  0  0  0  0  0  0  0  0
  143.7610   77.3700  220.6460 H   0  0  0  0  0  0  0  0  0  0  0  0
  142.1915   76.4004  221.6403 H   0  0  0  0  0  0  0  0  0  0  0  0
  140.9177   77.5273  219.4592 H   0  0  0  0  0  0  0  0  0  0  0  0
  139.8521   76.6876  220.7627 H   0  0  0  0  0  0  0  0  0  0  0  0
  142.6078   78.9238  220.4891 H   0  0  0  0  0  0  0  0  0  0  0  0
  141.3667   80.1953  220.6965 H   0  0  0  0  0  0  0  0  0  0  0  0
  143.4992   79.5367  222.4891 H   0  0  0  0  0  0  0  0  0  0  0  0
  142.1937   80.6899  222.7885 H   0  0  0  0  0  0  0  0  0  0  0  0
  142.5183   77.8944  223.7510 H   0  0  0  0  0  0  0  0  0  0  0  0
  141.4776   79.1556  224.4086 H   0  0  0  0  0  0  0  0  0  0  0  0
  140.5825   76.9872  222.9111 H   0  0  0  0  0  0  0  0  0  0  0  0
  139.6817   78.5181  223.0545 H   0  0  0  0  0  0  0  0  0  0  0  0
  138.6663   68.9974  222.7020 H   0  0  0  0  0  0  0  0  0  0  0  0
  139.3303   67.7411  224.7693 H   0  0  0  0  0  0  0  0  0  0  0  0
  140.2166   67.7125  226.9315 H   0  0  0  0  0  0  0  0  0  0  0  0
  141.5184   71.3346  228.7942 H   0  0  0  0  0  0  0  0  0  0  0  0
  140.8769   72.6145  226.7760 H   0  0  0  0  0  0  0  0  0  0  0  0
  1  2  2  0
  2  3  1  0
  3  4  1  0
  4  5  1  0
  5  6  2  0
  5  7  1  0
  7  8  1  0
  8  9  1  0
  9 10  1  0
 10 11  1  0
 10 12  1  0
 12 13  1  0
 13 14  1  0
 14 15  1  0
 15 16  1  0
 16 17  1  0
 17 18  1  0
  2 19  1  0
 19 20  2  0
 20 21  1  0
 21 22  2  0
 22 23  1  0
 23 24  2  0
 24 25  1  0
 24 26  1  0
 26 27  2  0
 27 28  1  0
 28 29  2  0
 12  7  1  0
 18 14  1  0
 29 19  1  0
 28 22  1  0
  3 30  1  0
  4 31  1  0
  4 32  1  0
  8 33  1  0
  8 34  1  0
  9 35  1  0
  9 36  1  0
 10 37  1  6
 11 38  1  0
 12 39  1  1
 13 40  1  0
 13 41  1  0
 15 42  1  0
 15 43  1  0
 16 44  1  0
 16 45  1  0
 17 46  1  0
 17 47  1  0
 18 48  1  0
 18 49  1  0
 20 50  1  0
 21 51  1  0
 23 52  1  0
 26 53  1  0
 27 54  1  0
M  END
>  <smiles>  (7) 
O=C(NCC(=O)N1CC[C@H](O)[C@H]1CN1CCCC1)c1ccc2cc(F)ccc2n1

>  <score_type>  (7) 
oracle

>  <origin>  (7) 
autodockgpu

>  <m_score__min__energy>  (7) 
-8.5600000000000005

>  <m_primary>  (7) 
energy

>  <rmsd>  (7) 
2.740394040394502

>  <m_score__min__rmsd>  (7) 
2.740394040394502

>  <meeko>  (7) 
{"free_energy": -7.49, "intermolecular_energy": -9.58, "internal_energy": -1.73, "cluster_size": 28, "cluster_id": 1, "rank_in_cluster": 26}

>  <energy>  (7) 
-8.33

>  <cluster_rmsd>  (7) 
0.75

>  <cluster>  (7) 
1

$$$$

     RDKit          3D

 54 57  0  0  0  0  0  0  0  0999 V2000
  135.0220   68.4840  224.9310 O   0  0  0  0  0  0  0  0  0  0  0  0
  135.3940   69.6640  224.8170 C   0  0  0  0  0  0  0  0  0  0  0  0
  136.6020   69.8750  224.0490 N   0  0  0  0  0  0  0  0  0  0  0  0
  137.3020   68.7820  223.4800 C   0  0  0  0  0  0  0  0  0  0  0  0
  138.5880   68.9820  222.8210 C   0  0  0  0  0  0  0  0  0  0  0  0
  139.1570   67.8480  222.4960 O   0  0  0  0  0  0  0  0  0  0  0  0
  139.2920   70.1210  222.4830 N   0  0  0  0  0  0  0  0  0  0  0  0
  139.8420   70.5980  221.1890 C   0  0  0  0  0  0  0  0  0  0  0  0
  139.1860   71.9400  221.0760 C   0  0  0  0  0  0  0  0  0  0  0  0
  139.1390   72.4180  222.5350 C   0  0  2  0  0  0  0  0  0  0  0  0
  139.9070   73.5880  222.6480 O   0  0  0  0  0  0  0  0  0  0  0  0
  139.7180   71.2810  223.3210 C   0  0  1  0  0  0  0  0  0  0  0  0
  139.3140   71.1130  224.7060 C   0  0  0  0  0  0  0  0  0  0  0  0
  140.2500   70.6550  225.6760 N   0  0  0  0  0  0  0  0  0  0  0  0
  139.8870   69.6910  226.6210 C   0  0  0  0  0  0  0  0  0  0  0  0
  140.3630   70.1500  227.9850 C   0  0  0  0  0  0  0  0  0  0  0  0
  140.9080   71.5360  227.7720 C   0  0  0  0  0  0  0  0  0  0  0  0
  141.0610   71.6630  226.2770 C   0  0  0  0  0  0  0  0  0  0  0  0
  134.7110   70.8120  225.3900 C   0  0  0  0  0  0  0  0  0  0  0  0
  133.7200   70.6170  226.3260 C   0  0  0  0  0  0  0  0  0  0  0  0
  133.0900   71.7380  226.8510 C   0  0  0  0  0  0  0  0  0  0  0  0
  133.4660   72.9910  226.4300 C   0  0  0  0  0  0  0  0  0  0  0  0
  132.8230   74.0900  226.9690 C   0  0  0  0  0  0  0  0  0  0  0  0
  133.1640   75.3700  226.5790 C   0  0  0  0  0  0  0  0  0  0  0  0
  132.5360   76.4480  227.1070 F   0  0  0  0  0  0  0  0  0  0  0  0
  134.1600   75.5150  225.6410 C   0  0  0  0  0  0  0  0  0  0  0  0
  134.8080   74.4230  225.0970 C   0  0  0  0  0  0  0  0  0  0  0  0
  134.4490   73.1610  225.5020 C   0  0  0  0  0  0  0  0  0  0  0  0
  135.0450   72.0620  225.0080 N   0  0  0  0  0  0  0  0  0  0  0  0
  136.9290   70.8760  223.9360 H   0  0  0  0  0  0  0  0  0  0  0  0
  137.4746   68.0619  224.2935 H   0  0  0  0  0  0  0  0  0  0  0  0
  136.6469   68.4767  222.6508 H   0  0  0  0  0  0  0  0  0  0  0  0
  140.9379   70.6859  221.2238 H   0  0  0  0  0  0  0  0  0  0  0  0
  139.6491   69.9264  220.3395 H   0  0  0  0  0  0  0  0  0  0  0  0
  139.7840   72.6225  220.4543 H   0  0  0  0  0  0  0  0  0  0  0  0
  138.1964   71.9027  220.5972 H   0  0  0  0  0  0  0  0  0  0  0  0
  138.1299   72.6657  222.8961 H   0  0  0  0  0  0  0  0  0  0  0  0
  139.3810   74.2710  223.0980 H   0  0  0  0  0  0  0  0  0  0  0  0
  140.7970   71.4331  223.4712 H   0  0  0  0  0  0  0  0  0  0  0  0
  138.9544   72.0934  225.0517 H   0  0  0  0  0  0  0  0  0  0  0  0
  138.5842   70.2915  224.6555 H   0  0  0  0  0  0  0  0  0  0  0  0
  138.7933   69.5738  226.6300 H   0  0  0  0  0  0  0  0  0  0  0  0
  140.3461   68.7240  226.3678 H   0  0  0  0  0  0  0  0  0  0  0  0
  139.5256   70.1710  228.6979 H   0  0  0  0  0  0  0  0  0  0  0  0
  141.1214   69.4719  228.4033 H   0  0  0  0  0  0  0  0  0  0  0  0
  140.2066   72.2916  228.1555 H   0  0  0  0  0  0  0  0  0  0  0  0
  141.8586   71.6949  228.3021 H   0  0  0  0  0  0  0  0  0  0  0  0
  140.7277   72.6585  225.9485 H   0  0  0  0  0  0  0  0  0  0  0  0
  142.1139   71.5394  225.9833 H   0  0  0  0  0  0  0  0  0  0  0  0
  133.4360   69.6043  226.6481 H   0  0  0  0  0  0  0  0  0  0  0  0
  132.2933   71.6233  227.6007 H   0  0  0  0  0  0  0  0  0  0  0  0
  132.0304   73.9429  227.7174 H   0  0  0  0  0  0  0  0  0  0  0  0
  134.4476   76.5258  225.3161 H   0  0  0  0  0  0  0  0  0  0  0  0
  135.6019   74.5627  224.3485 H   0  0  0  0  0  0  0  0  0  0  0  0
  1  2  2  0
  2  3  1  0
  3  4  1  0
  4  5  1  0
  5  6  2  0
  5  7  1  0
  7  8  1  0
  8  9  1  0
  9 10  1  0
 10 11  1  0
 10 12  1  0
 12 13  1  0
 13 14  1  0
 14 15  1  0
 15 16  1  0
 16 17  1  0
 17 18  1  0
  2 19  1  0
 19 20  2  0
 20 21  1  0
 21 22  2  0
 22 23  1  0
 23 24  2  0
 24 25  1  0
 24 26  1  0
 26 27  2  0
 27 28  1  0
 28 29  2  0
 12  7  1  0
 18 14  1  0
 29 19  1  0
 28 22  1  0
  3 30  1  0
  4 31  1  0
  4 32  1  0
  8 33  1  0
  8 34  1  0
  9 35  1  0
  9 36  1  0
 10 37  1  1
 11 38  1  0
 12 39  1  1
 13 40  1  0
 13 41  1  0
 15 42  1  0
 15 43  1  0
 16 44  1  0
 16 45  1  0
 17 46  1  0
 17 47  1  0
 18 48  1  0
 18 49  1  0
 20 50  1  0
 21 51  1  0
 23 52  1  0
 26 53  1  0
 27 54  1  0
M  END
>  <smiles>  (8) 
O=C(NCC(=O)N1CC[C@H](O)[C@H]1CN1CCCC1)c1ccc2cc(F)ccc2n1

>  <score_type>  (8) 
oracle

>  <origin>  (8) 
autodockgpu

>  <m_score__min__energy>  (8) 
-8.5600000000000005

>  <m_primary>  (8) 
energy

>  <rmsd>  (8) 
7.884167512376693

>  <m_score__min__rmsd>  (8) 
7.884167512376693

>  <meeko>  (8) 
{"free_energy": -7.26, "intermolecular_energy": -9.35, "internal_energy": -1.8, "cluster_size": 5, "cluster_id": 6, "rank_in_cluster": 5}

>  <energy>  (8) 
-8.33

>  <cluster_rmsd>  (8) 
0.92

>  <cluster>  (8) 
1

$$$$

     RDKit          3D

 54 57  0  0  0  0  0  0  0  0999 V2000
  139.5440   71.1310  221.0700 O   0  0  0  0  0  0  0  0  0  0  0  0
  139.6570   71.5720  222.2260 C   0  0  0  0  0  0  0  0  0  0  0  0
  139.7330   73.0100  222.3500 N   0  0  0  0  0  0  0  0  0  0  0  0
  139.6870   73.8420  221.2040 C   0  0  0  0  0  0  0  0  0  0  0  0
  140.6990   74.8710  220.9870 C   0  0  0  0  0  0  0  0  0  0  0  0
  141.1060   75.4060  222.1120 O   0  0  0  0  0  0  0  0  0  0  0  0
  141.2930   75.3640  219.8420 N   0  0  0  0  0  0  0  0  0  0  0  0
  141.4030   76.7410  219.2980 C   0  0  0  0  0  0  0  0  0  0  0  0
  142.8880   76.8780  219.1630 C   0  0  0  0  0  0  0  0  0  0  0  0
  143.3250   75.4610  218.7630 C   0  0  2  0  0  0  0  0  0  0  0  0
  143.9130   75.5160  217.4890 O   0  0  0  0  0  0  0  0  0  0  0  0
  142.0560   74.6630  218.7680 C   0  0  1  0  0  0  0  0  0  0  0  0
  142.1330   73.2340  219.0160 C   0  0  0  0  0  0  0  0  0  0  0  0
  143.2910   72.6730  219.6270 N   0  0  0  0  0  0  0  0  0  0  0  0
  143.7640   73.1640  220.8470 C   0  0  0  0  0  0  0  0  0  0  0  0
  145.2640   73.3610  220.7380 C   0  0  0  0  0  0  0  0  0  0  0  0
  145.6000   73.0790  219.2990 C   0  0  0  0  0  0  0  0  0  0  0  0
  144.3770   72.3890  218.7470 C   0  0  0  0  0  0  0  0  0  0  0  0
  139.7160   70.7540  223.4270 C   0  0  0  0  0  0  0  0  0  0  0  0
  139.2070   69.4740  223.4050 C   0  0  0  0  0  0  0  0  0  0  0  0
  139.2820   68.7240  224.5720 C   0  0  0  0  0  0  0  0  0  0  0  0
  139.8520   69.2680  225.6970 C   0  0  0  0  0  0  0  0  0  0  0  0
  139.9140   68.5000  226.8440 C   0  0  0  0  0  0  0  0  0  0  0  0
  140.4780   69.0000  228.0020 C   0  0  0  0  0  0  0  0  0  0  0  0
  140.5400   68.2480  229.1270 F   0  0  0  0  0  0  0  0  0  0  0  0
  140.9730   70.2840  227.9750 C   0  0  0  0  0  0  0  0  0  0  0  0
  140.9160   71.0590  226.8340 C   0  0  0  0  0  0  0  0  0  0  0  0
  140.3500   70.5370  225.6970 C   0  0  0  0  0  0  0  0  0  0  0  0
  140.2670   71.2450  224.5560 N   0  0  0  0  0  0  0  0  0  0  0  0
  139.8230   73.4030  223.3290 H   0  0  0  0  0  0  0  0  0  0  0  0
  139.7254   73.1749  220.3302 H   0  0  0  0  0  0  0  0  0  0  0  0
  138.7715   74.4300  221.3656 H   0  0  0  0  0  0  0  0  0  0  0  0
  140.8989   76.8321  218.3246 H   0  0  0  0  0  0  0  0  0  0  0  0
  140.9316   77.5140  219.9227 H   0  0  0  0  0  0  0  0  0  0  0  0
  143.1493   77.6083  218.3830 H   0  0  0  0  0  0  0  0  0  0  0  0
  143.3769   77.2426  220.0784 H   0  0  0  0  0  0  0  0  0  0  0  0
  144.0701   75.0118  219.4361 H   0  0  0  0  0  0  0  0  0  0  0  0
  144.8420   75.2400  217.5560 H   0  0  0  0  0  0  0  0  0  0  0  0
  141.6150   74.6424  217.7605 H   0  0  0  0  0  0  0  0  0  0  0  0
  141.2796   72.9785  219.6614 H   0  0  0  0  0  0  0  0  0  0  0  0
  142.1520   72.8051  218.0032 H   0  0  0  0  0  0  0  0  0  0  0  0
  143.2791   74.1251  221.0732 H   0  0  0  0  0  0  0  0  0  0  0  0
  143.5352   72.4521  221.6538 H   0  0  0  0  0  0  0  0  0  0  0  0
  145.5368   74.3935  221.0018 H   0  0  0  0  0  0  0  0  0  0  0  0
  145.8145   72.7002  221.4239 H   0  0  0  0  0  0  0  0  0  0  0  0
  145.7952   74.0154  218.7558 H   0  0  0  0  0  0  0  0  0  0  0  0
  146.5062   72.4639  219.1965 H   0  0  0  0  0  0  0  0  0  0  0  0
  144.1535   72.7698  217.7395 H   0  0  0  0  0  0  0  0  0  0  0  0
  144.5436   71.3041  218.6746 H   0  0  0  0  0  0  0  0  0  0  0  0
  138.7553   69.0588  222.4920 H   0  0  0  0  0  0  0  0  0  0  0  0
  138.8862   67.6979  224.5950 H   0  0  0  0  0  0  0  0  0  0  0  0
  139.5091   67.4773  226.8351 H   0  0  0  0  0  0  0  0  0  0  0  0
  141.4255   70.7033  228.8857 H   0  0  0  0  0  0  0  0  0  0  0  0
  141.3192   72.0825  226.8356 H   0  0  0  0  0  0  0  0  0  0  0  0
  1  2  2  0
  2  3  1  0
  3  4  1  0
  4  5  1  0
  5  6  2  0
  5  7  1  0
  7  8  1  0
  8  9  1  0
  9 10  1  0
 10 11  1  0
 10 12  1  0
 12 13  1  0
 13 14  1  0
 14 15  1  0
 15 16  1  0
 16 17  1  0
 17 18  1  0
  2 19  1  0
 19 20  2  0
 20 21  1  0
 21 22  2  0
 22 23  1  0
 23 24  2  0
 24 25  1  0
 24 26  1  0
 26 27  2  0
 27 28  1  0
 28 29  2  0
 12  7  1  0
 18 14  1  0
 29 19  1  0
 28 22  1  0
  3 30  1  0
  4 31  1  0
  4 32  1  0
  8 33  1  0
  8 34  1  0
  9 35  1  0
  9 36  1  0
 10 37  1  1
 11 38  1  0
 12 39  1  6
 13 40  1  0
 13 41  1  0
 15 42  1  0
 15 43  1  0
 16 44  1  0
 16 45  1  0
 17 46  1  0
 17 47  1  0
 18 48  1  0
 18 49  1  0
 20 50  1  0
 21 51  1  0
 23 52  1  0
 26 53  1  0
 27 54  1  0
M  END
>  <smiles>  (9) 
O=C(NCC(=O)N1CC[C@H](O)[C@H]1CN1CCCC1)c1ccc2cc(F)ccc2n1

>  <score_type>  (9) 
oracle

>  <origin>  (9) 
autodockgpu

>  <m_score__min__energy>  (9) 
-8.5600000000000005

>  <m_primary>  (9) 
energy

>  <rmsd>  (9) 
4.040270995391143

>  <m_score__min__rmsd>  (9) 
4.040270995391143

>  <meeko>  (9) 
{"free_energy": -7.21, "intermolecular_energy": -9.3, "internal_energy": -1.96, "cluster_size": 5, "cluster_id": 2, "rank_in_cluster": 5}

>  <energy>  (9) 
-8.29

>  <cluster_rmsd>  (9) 
0.91

>  <cluster>  (9) 
1

$$$$

     RDKit          3D

 54 57  0  0  0  0  0  0  0  0999 V2000
  141.1480   71.8030  221.3740 O   0  0  0  0  0  0  0  0  0  0  0  0
  140.4650   72.1170  222.3630 C   0  0  0  0  0  0  0  0  0  0  0  0
  139.8500   73.4250  222.3170 N   0  0  0  0  0  0  0  0  0  0  0  0
  140.0400   74.2790  221.2020 C   0  0  0  0  0  0  0  0  0  0  0  0
  140.1550   75.7230  221.3790 C   0  0  0  0  0  0  0  0  0  0  0  0
  139.1430   76.2190  222.0460 O   0  0  0  0  0  0  0  0  0  0  0  0
  141.1150   76.6340  220.9860 N   0  0  0  0  0  0  0  0  0  0  0  0
  142.1720   76.5720  219.9460 C   0  0  0  0  0  0  0  0  0  0  0  0
  141.8400   77.7810  219.1260 C   0  0  0  0  0  0  0  0  0  0  0  0
  141.3430   78.7790  220.1820 C   0  0  2  0  0  0  0  0  0  0  0  0
  142.2020   79.8910  220.1860 O   0  0  0  0  0  0  0  0  0  0  0  0
  141.3940   78.0180  221.4720 C   0  0  1  0  0  0  0  0  0  0  0  0
  140.4890   78.3980  222.5420 C   0  0  0  0  0  0  0  0  0  0  0  0
  140.8640   79.4070  223.4740 N   0  0  0  0  0  0  0  0  0  0  0  0
  140.5940   80.7550  223.2160 C   0  0  0  0  0  0  0  0  0  0  0  0
  141.8430   81.5610  223.5130 C   0  0  0  0  0  0  0  0  0  0  0  0
  142.9090   80.5470  223.8260 C   0  0  0  0  0  0  0  0  0  0  0  0
  142.1570   79.2600  224.0570 C   0  0  0  0  0  0  0  0  0  0  0  0
  140.2510   71.2750  223.5290 C   0  0  0  0  0  0  0  0  0  0  0  0
  139.5860   70.0770  223.3910 C   0  0  0  0  0  0  0  0  0  0  0  0
  139.4010   69.3000  224.5280 C   0  0  0  0  0  0  0  0  0  0  0  0
  139.8780   69.7400  225.7390 C   0  0  0  0  0  0  0  0  0  0  0  0
  139.6810   68.9470  226.8540 C   0  0  0  0  0  0  0  0  0  0  0  0
  140.1420   69.3440  228.0950 C   0  0  0  0  0  0  0  0  0  0  0  0
  139.9500   68.5680  229.1880 F   0  0  0  0  0  0  0  0  0  0  0  0
  140.8010   70.5480  228.1830 C   0  0  0  0  0  0  0  0  0  0  0  0
  141.0030   71.3470  227.0740 C   0  0  0  0  0  0  0  0  0  0  0  0
  140.5340   70.9290  225.8530 C   0  0  0  0  0  0  0  0  0  0  0  0
  140.7020   71.6640  224.7390 N   0  0  0  0  0  0  0  0  0  0  0  0
  139.2580   73.7060  223.1490 H   0  0  0  0  0  0  0  0  0  0  0  0
  140.9655   73.9486  220.7077 H   0  0  0  0  0  0  0  0  0  0  0  0
  139.0941   74.1748  220.6502 H   0  0  0  0  0  0  0  0  0  0  0  0
  143.1770   76.6468  220.3869 H   0  0  0  0  0  0  0  0  0  0  0  0
  142.1927   75.6308  219.3771 H   0  0  0  0  0  0  0  0  0  0  0  0
  142.7303   78.1643  218.6060 H   0  0  0  0  0  0  0  0  0  0  0  0
  141.1041   77.5820  218.3330 H   0  0  0  0  0  0  0  0  0  0  0  0
  140.3286   79.1625  219.9978 H   0  0  0  0  0  0  0  0  0  0  0  0
  142.9130   79.7400  220.8320 H   0  0  0  0  0  0  0  0  0  0  0  0
  142.3521   78.1966  221.9820 H   0  0  0  0  0  0  0  0  0  0  0  0
  139.5590   78.7390  222.0637 H   0  0  0  0  0  0  0  0  0  0  0  0
  140.4396   77.4907  223.1620 H   0  0  0  0  0  0  0  0  0  0  0  0
  140.3130   80.8817  222.1601 H   0  0  0  0  0  0  0  0  0  0  0  0
  139.7630   81.1007  223.8484 H   0  0  0  0  0  0  0  0  0  0  0  0
  142.1296   82.1628  222.6380 H   0  0  0  0  0  0  0  0  0  0  0  0
  141.6884   82.2620  224.3465 H   0  0  0  0  0  0  0  0  0  0  0  0
  143.6056   80.4430  222.9810 H   0  0  0  0  0  0  0  0  0  0  0  0
  143.5160   80.8364  224.6965 H   0  0  0  0  0  0  0  0  0  0  0  0
  142.6901   78.4233  223.5818 H   0  0  0  0  0  0  0  0  0  0  0  0
  142.0743   79.0481  225.1332 H   0  0  0  0  0  0  0  0  0  0  0  0
  139.2128   69.7454  222.4108 H   0  0  0  0  0  0  0  0  0  0  0  0
  138.8748   68.3365  224.4588 H   0  0  0  0  0  0  0  0  0  0  0  0
  139.1510   67.9885  226.7523 H   0  0  0  0  0  0  0  0  0  0  0  0
  141.1767   70.8833  229.1610 H   0  0  0  0  0  0  0  0  0  0  0  0
  141.5331   72.3063  227.1681 H   0  0  0  0  0  0  0  0  0  0  0  0
  1  2  2  0
  2  3  1  0
  3  4  1  0
  4  5  1  0
  5  6  2  0
  5  7  1  0
  7  8  1  0
  8  9  1  0
  9 10  1  0
 10 11  1  0
 10 12  1  0
 12 13  1  0
 13 14  1  0
 14 15  1  0
 15 16  1  0
 16 17  1  0
 17 18  1  0
  2 19  1  0
 19 20  2  0
 20 21  1  0
 21 22  2  0
 22 23  1  0
 23 24  2  0
 24 25  1  0
 24 26  1  0
 26 27  2  0
 27 28  1  0
 28 29  2  0
 12  7  1  0
 18 14  1  0
 29 19  1  0
 28 22  1  0
  3 30  1  0
  4 31  1  0
  4 32  1  0
  8 33  1  0
  8 34  1  0
  9 35  1  0
  9 36  1  0
 10 37  1  6
 11 38  1  0
 12 39  1  1
 13 40  1  0
 13 41  1  0
 15 42  1  0
 15 43  1  0
 16 44  1  0
 16 45  1  0
 17 46  1  0
 17 47  1  0
 18 48  1  0
 18 49  1  0
 20 50  1  0
 21 51  1  0
 23 52  1  0
 26 53  1  0
 27 54  1  0
M  END
>  <smiles>  (10) 
O=C(NCC(=O)N1CC[C@H](O)[C@H]1CN1CCCC1)c1ccc2cc(F)ccc2n1

>  <score_type>  (10) 
oracle

>  <origin>  (10) 
autodockgpu

>  <m_score__min__energy>  (10) 
-8.5600000000000005

>  <m_primary>  (10) 
energy

>  <rmsd>  (10) 
2.868148181888132

>  <m_score__min__rmsd>  (10) 
2.868148181888132

>  <meeko>  (10) 
{"free_energy": -8.48, "intermolecular_energy": -10.56, "internal_energy": -1.2, "cluster_size": 28, "cluster_id": 1, "rank_in_cluster": 4}

>  <energy>  (10) 
-8.28

>  <cluster_rmsd>  (10) 
0.77

>  <cluster>  (10) 
1

$$$$

     RDKit          3D

 54 57  0  0  0  0  0  0  0  0999 V2000
  141.0830   71.9950  221.1700 O   0  0  0  0  0  0  0  0  0  0  0  0
  140.5080   72.3700  222.2060 C   0  0  0  0  0  0  0  0  0  0  0  0
  140.0640   73.7460  222.2200 N   0  0  0  0  0  0  0  0  0  0  0  0
  140.2920   74.5950  221.1090 C   0  0  0  0  0  0  0  0  0  0  0  0
  140.7870   75.9550  221.2980 C   0  0  0  0  0  0  0  0  0  0  0  0
  140.2320   76.5420  222.3290 O   0  0  0  0  0  0  0  0  0  0  0  0
  141.7140   76.7110  220.6080 N   0  0  0  0  0  0  0  0  0  0  0  0
  142.9110   76.3300  219.8160 C   0  0  0  0  0  0  0  0  0  0  0  0
  142.5990   76.9710  218.4990 C   0  0  0  0  0  0  0  0  0  0  0  0
  141.8750   78.2600  218.9120 C   0  0  2  0  0  0  0  0  0  0  0  0
  142.6280   79.3590  218.4690 O   0  0  0  0  0  0  0  0  0  0  0  0
  141.8040   78.1870  220.4080 C   0  0  1  0  0  0  0  0  0  0  0  0
  140.7260   78.8830  221.0890 C   0  0  0  0  0  0  0  0  0  0  0  0
  140.9570   79.5030  222.3500 N   0  0  0  0  0  0  0  0  0  0  0  0
  140.8080   80.8850  222.5050 C   0  0  0  0  0  0  0  0  0  0  0  0
  142.0100   81.4170  223.2600 C   0  0  0  0  0  0  0  0  0  0  0  0
  142.9430   80.2450  223.4020 C   0  0  0  0  0  0  0  0  0  0  0  0
  142.1000   79.0410  223.0660 C   0  0  0  0  0  0  0  0  0  0  0  0
  140.2610   71.5350  223.3700 C   0  0  0  0  0  0  0  0  0  0  0  0
  139.5730   70.3500  223.2250 C   0  0  0  0  0  0  0  0  0  0  0  0
  139.3570   69.5800  224.3600 C   0  0  0  0  0  0  0  0  0  0  0  0
  139.8270   70.0110  225.5770 C   0  0  0  0  0  0  0  0  0  0  0  0
  139.5980   69.2250  226.6900 C   0  0  0  0  0  0  0  0  0  0  0  0
  140.0500   69.6140  227.9370 C   0  0  0  0  0  0  0  0  0  0  0  0
  139.8270   68.8440  229.0280 F   0  0  0  0  0  0  0  0  0  0  0  0
  140.7330   70.8050  228.0320 C   0  0  0  0  0  0  0  0  0  0  0  0
  140.9660   71.5970  226.9250 C   0  0  0  0  0  0  0  0  0  0  0  0
  140.5050   71.1870  225.6980 C   0  0  0  0  0  0  0  0  0  0  0  0
  140.7030   71.9170  224.5860 N   0  0  0  0  0  0  0  0  0  0  0  0
  139.5660   74.0810  223.0930 H   0  0  0  0  0  0  0  0  0  0  0  0
  141.0223   74.0816  220.4663 H   0  0  0  0  0  0  0  0  0  0  0  0
  139.2787   74.7565  220.7126 H   0  0  0  0  0  0  0  0  0  0  0  0
  143.8329   76.7385  220.2556 H   0  0  0  0  0  0  0  0  0  0  0  0
  143.0919   75.2464  219.7610 H   0  0  0  0  0  0  0  0  0  0  0  0
  143.5191   77.1951  217.9394 H   0  0  0  0  0  0  0  0  0  0  0  0
  142.0024   76.3303  217.8330 H   0  0  0  0  0  0  0  0  0  0  0  0
  140.8696   78.3706  218.4797 H   0  0  0  0  0  0  0  0  0  0  0  0
  142.8960   79.2090  217.5470 H   0  0  0  0  0  0  0  0  0  0  0  0
  142.6612   78.7107  220.8563 H   0  0  0  0  0  0  0  0  0  0  0  0
  140.3786   79.6729  220.4069 H   0  0  0  0  0  0  0  0  0  0  0  0
  140.0207   78.0748  221.3328 H   0  0  0  0  0  0  0  0  0  0  0  0
  140.7483   81.3648  221.5170 H   0  0  0  0  0  0  0  0  0  0  0  0
  139.8855   81.1043  223.0626 H   0  0  0  0  0  0  0  0  0  0  0  0
  142.4928   82.2269  222.6935 H   0  0  0  0  0  0  0  0  0  0  0  0
  141.7271   81.8356  224.2371 H   0  0  0  0  0  0  0  0  0  0  0  0
  143.7874   80.3346  222.7027 H   0  0  0  0  0  0  0  0  0  0  0  0
  143.3783   80.1797  224.4101 H   0  0  0  0  0  0  0  0  0  0  0  0
  142.6762   78.3416  222.4423 H   0  0  0  0  0  0  0  0  0  0  0  0
  141.7956   78.5139  223.9823 H   0  0  0  0  0  0  0  0  0  0  0  0
  139.2062   70.0241  222.2405 H   0  0  0  0  0  0  0  0  0  0  0  0
  138.8113   68.6279  224.2851 H   0  0  0  0  0  0  0  0  0  0  0  0
  139.0491   68.2778  226.5824 H   0  0  0  0  0  0  0  0  0  0  0  0
  141.1026   71.1343  229.0143 H   0  0  0  0  0  0  0  0  0  0  0  0
  141.5145   72.5453  227.0248 H   0  0  0  0  0  0  0  0  0  0  0  0
  1  2  2  0
  2  3  1  0
  3  4  1  0
  4  5  1  0
  5  6  2  0
  5  7  1  0
  7  8  1  0
  8  9  1  0
  9 10  1  0
 10 11  1  0
 10 12  1  0
 12 13  1  0
 13 14  1  0
 14 15  1  0
 15 16  1  0
 16 17  1  0
 17 18  1  0
  2 19  1  0
 19 20  2  0
 20 21  1  0
 21 22  2  0
 22 23  1  0
 23 24  2  0
 24 25  1  0
 24 26  1  0
 26 27  2  0
 27 28  1  0
 28 29  2  0
 12  7  1  0
 18 14  1  0
 29 19  1  0
 28 22  1  0
  3 30  1  0
  4 31  1  0
  4 32  1  0
  8 33  1  0
  8 34  1  0
  9 35  1  0
  9 36  1  0
 10 37  1  6
 11 38  1  0
 12 39  1  1
 13 40  1  0
 13 41  1  0
 15 42  1  0
 15 43  1  0
 16 44  1  0
 16 45  1  0
 17 46  1  0
 17 47  1  0
 18 48  1  0
 18 49  1  0
 20 50  1  0
 21 51  1  0
 23 52  1  0
 26 53  1  0
 27 54  1  0
M  END
>  <smiles>  (11) 
O=C(NCC(=O)N1CC[C@H](O)[C@H]1CN1CCCC1)c1ccc2cc(F)ccc2n1

>  <score_type>  (11) 
oracle

>  <origin>  (11) 
autodockgpu

>  <m_score__min__energy>  (11) 
-8.5600000000000005

>  <m_primary>  (11) 
energy

>  <rmsd>  (11) 
2.6822974503380625

>  <m_score__min__rmsd>  (11) 
2.6822974503380625

>  <meeko>  (11) 
{"free_energy": -8.26, "intermolecular_energy": -10.35, "internal_energy": -1.31, "cluster_size": 28, "cluster_id": 1, "rank_in_cluster": 11}

>  <energy>  (11) 
-8.26

>  <cluster_rmsd>  (11) 
0.93

>  <cluster>  (11) 
1

$$$$

     RDKit          3D

 54 57  0  0  0  0  0  0  0  0999 V2000
  139.1460   71.1570  221.2530 O   0  0  0  0  0  0  0  0  0  0  0  0
  139.4280   71.5690  222.3900 C   0  0  0  0  0  0  0  0  0  0  0  0
  139.6230   72.9960  222.5160 N   0  0  0  0  0  0  0  0  0  0  0  0
  139.5020   73.8480  221.3900 C   0  0  0  0  0  0  0  0  0  0  0  0
  140.4200   74.9660  221.1980 C   0  0  0  0  0  0  0  0  0  0  0  0
  140.7660   75.5190  222.3340 O   0  0  0  0  0  0  0  0  0  0  0  0
  140.9790   75.5260  220.0660 N   0  0  0  0  0  0  0  0  0  0  0  0
  140.5430   76.6500  219.1990 C   0  0  0  0  0  0  0  0  0  0  0  0
  141.7460   77.5400  219.2580 C   0  0  0  0  0  0  0  0  0  0  0  0
  142.9070   76.5370  219.3180 C   0  0  2  0  0  0  0  0  0  0  0  0
  143.7100   76.7110  218.1780 O   0  0  0  0  0  0  0  0  0  0  0  0
  142.2420   75.1940  219.3440 C   0  0  1  0  0  0  0  0  0  0  0  0
  142.9370   74.0830  219.9700 C   0  0  0  0  0  0  0  0  0  0  0  0
  144.3300   73.8910  219.7470 N   0  0  0  0  0  0  0  0  0  0  0  0
  144.8130   72.6810  219.2400 C   0  0  0  0  0  0  0  0  0  0  0  0
  146.0060   72.2530  220.0720 C   0  0  0  0  0  0  0  0  0  0  0  0
  146.0860   73.2470  221.1980 C   0  0  0  0  0  0  0  0  0  0  0  0
  145.1940   74.3850  220.7690 C   0  0  0  0  0  0  0  0  0  0  0  0
  139.5700   70.7290  223.5690 C   0  0  0  0  0  0  0  0  0  0  0  0
  139.1090   69.4310  223.5400 C   0  0  0  0  0  0  0  0  0  0  0  0
  139.2630   68.6600  224.6850 C   0  0  0  0  0  0  0  0  0  0  0  0
  139.8600   69.2020  225.7970 C   0  0  0  0  0  0  0  0  0  0  0  0
  140.0010   68.4120  226.9230 C   0  0  0  0  0  0  0  0  0  0  0  0
  140.5950   68.9100  228.0660 C   0  0  0  0  0  0  0  0  0  0  0  0
  140.7340   68.1370  229.1700 F   0  0  0  0  0  0  0  0  0  0  0  0
  141.0400   70.2120  228.0480 C   0  0  0  0  0  0  0  0  0  0  0  0
  140.9040   71.0080  226.9270 C   0  0  0  0  0  0  0  0  0  0  0  0
  140.3090   70.4890  225.8040 C   0  0  0  0  0  0  0  0  0  0  0  0
  140.1500   71.2170  224.6840 N   0  0  0  0  0  0  0  0  0  0  0  0
  139.8580   73.3650  223.4800 H   0  0  0  0  0  0  0  0  0  0  0  0
  139.5965   73.2079  220.5004 H   0  0  0  0  0  0  0  0  0  0  0  0
  138.5389   74.3497  221.5654 H   0  0  0  0  0  0  0  0  0  0  0  0
  140.3401   76.3127  218.1719 H   0  0  0  0  0  0  0  0  0  0  0  0
  139.6067   77.1316  219.5176 H   0  0  0  0  0  0  0  0  0  0  0  0
  141.8151   78.1732  218.3611 H   0  0  0  0  0  0  0  0  0  0  0  0
  141.7297   78.2393  220.1069 H   0  0  0  0  0  0  0  0  0  0  0  0
  143.5652   76.6616  220.1905 H   0  0  0  0  0  0  0  0  0  0  0  0
  144.4280   76.0560  218.1930 H   0  0  0  0  0  0  0  0  0  0  0  0
  142.1558   74.7921  218.3237 H   0  0  0  0  0  0  0  0  0  0  0  0
  142.8033   74.1977  221.0558 H   0  0  0  0  0  0  0  0  0  0  0  0
  142.4834   73.2026  219.4912 H   0  0  0  0  0  0  0  0  0  0  0  0
  144.0264   71.9142  219.2973 H   0  0  0  0  0  0  0  0  0  0  0  0
  145.1117   72.8052  218.1887 H   0  0  0  0  0  0  0  0  0  0  0  0
  145.8558   71.2369  220.4658 H   0  0  0  0  0  0  0  0  0  0  0  0
  146.9319   72.2323  219.4785 H   0  0  0  0  0  0  0  0  0  0  0  0
  145.7221   72.8012  222.1354 H   0  0  0  0  0  0  0  0  0  0  0  0
  147.1179   73.5767  221.3893 H   0  0  0  0  0  0  0  0  0  0  0  0
  144.5998   74.7394  221.6242 H   0  0  0  0  0  0  0  0  0  0  0  0
  145.7940   75.2277  220.3951 H   0  0  0  0  0  0  0  0  0  0  0  0
  138.6337   69.0181  222.6380 H   0  0  0  0  0  0  0  0  0  0  0  0
  138.9081   67.6190  224.7012 H   0  0  0  0  0  0  0  0  0  0  0  0
  139.6357   67.3745  226.9082 H   0  0  0  0  0  0  0  0  0  0  0  0
  141.5155   70.6291  228.9479 H   0  0  0  0  0  0  0  0  0  0  0  0
  141.2684   72.0459  226.9342 H   0  0  0  0  0  0  0  0  0  0  0  0
  1  2  2  0
  2  3  1  0
  3  4  1  0
  4  5  1  0
  5  6  2  0
  5  7  1  0
  7  8  1  0
  8  9  1  0
  9 10  1  0
 10 11  1  0
 10 12  1  0
 12 13  1  0
 13 14  1  0
 14 15  1  0
 15 16  1  0
 16 17  1  0
 17 18  1  0
  2 19  1  0
 19 20  2  0
 20 21  1  0
 21 22  2  0
 22 23  1  0
 23 24  2  0
 24 25  1  0
 24 26  1  0
 26 27  2  0
 27 28  1  0
 28 29  2  0
 12  7  1  0
 18 14  1  0
 29 19  1  0
 28 22  1  0
  3 30  1  0
  4 31  1  0
  4 32  1  0
  8 33  1  0
  8 34  1  0
  9 35  1  0
  9 36  1  0
 10 37  1  1
 11 38  1  0
 12 39  1  6
 13 40  1  0
 13 41  1  0
 15 42  1  0
 15 43  1  0
 16 44  1  0
 16 45  1  0
 17 46  1  0
 17 47  1  0
 18 48  1  0
 18 49  1  0
 20 50  1  0
 21 51  1  0
 23 52  1  0
 26 53  1  0
 27 54  1  0
M  END
>  <smiles>  (12) 
O=C(NCC(=O)N1CC[C@H](O)[C@H]1CN1CCCC1)c1ccc2cc(F)ccc2n1

>  <score_type>  (12) 
oracle

>  <origin>  (12) 
autodockgpu

>  <m_score__min__energy>  (12) 
-8.5600000000000005

>  <m_primary>  (12) 
energy

>  <rmsd>  (12) 
4.086494486102026

>  <m_score__min__rmsd>  (12) 
4.086494486102026

>  <meeko>  (12) 
{"free_energy": -7.67, "intermolecular_energy": -9.76, "internal_energy": -1.85, "cluster_size": 4, "cluster_id": 4, "rank_in_cluster": 2}

>  <energy>  (12) 
-8.24

>  <cluster_rmsd>  (12) 
0.79

>  <cluster>  (12) 
1

$$$$

     RDKit          3D

 54 57  0  0  0  0  0  0  0  0999 V2000
  141.0360   71.8820  221.1860 O   0  0  0  0  0  0  0  0  0  0  0  0
  140.4820   72.2790  222.2240 C   0  0  0  0  0  0  0  0  0  0  0  0
  140.0560   73.6610  222.2260 N   0  0  0  0  0  0  0  0  0  0  0  0
  140.2790   74.4920  221.1000 C   0  0  0  0  0  0  0  0  0  0  0  0
  140.8810   75.8120  221.2540 C   0  0  0  0  0  0  0  0  0  0  0  0
  140.4170   76.4450  222.3020 O   0  0  0  0  0  0  0  0  0  0  0  0
  141.8290   76.4930  220.5170 N   0  0  0  0  0  0  0  0  0  0  0  0
  143.0600   76.0370  219.8230 C   0  0  0  0  0  0  0  0  0  0  0  0
  142.7970   76.5150  218.4290 C   0  0  0  0  0  0  0  0  0  0  0  0
  142.0470   77.8350  218.6580 C   0  0  2  0  0  0  0  0  0  0  0  0
  142.8100   78.8830  218.1190 O   0  0  0  0  0  0  0  0  0  0  0  0
  141.9160   77.9370  220.1480 C   0  0  1  0  0  0  0  0  0  0  0  0
  140.8070   78.6940  220.7000 C   0  0  0  0  0  0  0  0  0  0  0  0
  141.0330   79.6470  221.7340 N   0  0  0  0  0  0  0  0  0  0  0  0
  142.2020   80.4150  221.7560 C   0  0  0  0  0  0  0  0  0  0  0  0
  142.7670   80.3910  223.1620 C   0  0  0  0  0  0  0  0  0  0  0  0
  141.9040   79.4220  223.9230 C   0  0  0  0  0  0  0  0  0  0  0  0
  140.6900   79.2240  223.0520 C   0  0  0  0  0  0  0  0  0  0  0  0
  140.2420   71.4630  223.4040 C   0  0  0  0  0  0  0  0  0  0  0  0
  139.5490   70.2790  223.2830 C   0  0  0  0  0  0  0  0  0  0  0  0
  139.3390   69.5270  224.4320 C   0  0  0  0  0  0  0  0  0  0  0  0
  139.8200   69.9770  225.6380 C   0  0  0  0  0  0  0  0  0  0  0  0
  139.5980   69.2080  226.7660 C   0  0  0  0  0  0  0  0  0  0  0  0
  140.0620   69.6150  228.0020 C   0  0  0  0  0  0  0  0  0  0  0  0
  139.8460   68.8630  229.1070 F   0  0  0  0  0  0  0  0  0  0  0  0
  140.7500   70.8050  228.0730 C   0  0  0  0  0  0  0  0  0  0  0  0
  140.9770   71.5790  226.9510 C   0  0  0  0  0  0  0  0  0  0  0  0
  140.5040   71.1510  225.7350 C   0  0  0  0  0  0  0  0  0  0  0  0
  140.6960   71.8630  224.6100 N   0  0  0  0  0  0  0  0  0  0  0  0
  139.5760   74.0140  223.1020 H   0  0  0  0  0  0  0  0  0  0  0  0
  140.9312   73.9273  220.4175 H   0  0  0  0  0  0  0  0  0  0  0  0
  139.2584   74.7266  220.7635 H   0  0  0  0  0  0  0  0  0  0  0  0
  143.9600   76.5057  220.2475 H   0  0  0  0  0  0  0  0  0  0  0  0
  143.2514   74.9567  219.9030 H   0  0  0  0  0  0  0  0  0  0  0  0
  143.7374   76.6830  217.8837 H   0  0  0  0  0  0  0  0  0  0  0  0
  142.2325   75.7933  217.8203 H   0  0  0  0  0  0  0  0  0  0  0  0
  141.0593   77.8823  218.1762 H   0  0  0  0  0  0  0  0  0  0  0  0
  143.2420   78.5750  217.3040 H   0  0  0  0  0  0  0  0  0  0  0  0
  142.7505   78.5205  220.5642 H   0  0  0  0  0  0  0  0  0  0  0  0
  140.3480   79.2392  219.8621 H   0  0  0  0  0  0  0  0  0  0  0  0
  140.2014   77.9229  221.1986 H   0  0  0  0  0  0  0  0  0  0  0  0
  142.9362   79.9933  221.0538 H   0  0  0  0  0  0  0  0  0  0  0  0
  141.9786   81.4498  221.4573 H   0  0  0  0  0  0  0  0  0  0  0  0
  143.8123   80.0487  223.1509 H   0  0  0  0  0  0  0  0  0  0  0  0
  142.7630   81.3904  223.6215 H   0  0  0  0  0  0  0  0  0  0  0  0
  142.4320   78.4690  224.0748 H   0  0  0  0  0  0  0  0  0  0  0  0
  141.6414   79.7960  224.9236 H   0  0  0  0  0  0  0  0  0  0  0  0
  140.4038   78.1619  223.0428 H   0  0  0  0  0  0  0  0  0  0  0  0
  139.8392   79.8060  223.4360 H   0  0  0  0  0  0  0  0  0  0  0  0
  139.1733   69.9392  222.3066 H   0  0  0  0  0  0  0  0  0  0  0  0
  138.7900   68.5754  224.3767 H   0  0  0  0  0  0  0  0  0  0  0  0
  139.0454   68.2610  226.6779 H   0  0  0  0  0  0  0  0  0  0  0  0
  141.1285   71.1484  229.0471 H   0  0  0  0  0  0  0  0  0  0  0  0
  141.5299   72.5266  227.0310 H   0  0  0  0  0  0  0  0  0  0  0  0
  1  2  2  0
  2  3  1  0
  3  4  1  0
  4  5  1  0
  5  6  2  0
  5  7  1  0
  7  8  1  0
  8  9  1  0
  9 10  1  0
 10 11  1  0
 10 12  1  0
 12 13  1  0
 13 14  1  0
 14 15  1  0
 15 16  1  0
 16 17  1  0
 17 18  1  0
  2 19  1  0
 19 20  2  0
 20 21  1  0
 21 22  2  0
 22 23  1  0
 23 24  2  0
 24 25  1  0
 24 26  1  0
 26 27  2  0
 27 28  1  0
 28 29  2  0
 12  7  1  0
 18 14  1  0
 29 19  1  0
 28 22  1  0
  3 30  1  0
  4 31  1  0
  4 32  1  0
  8 33  1  0
  8 34  1  0
  9 35  1  0
  9 36  1  0
 10 37  1  6
 11 38  1  0
 12 39  1  1
 13 40  1  0
 13 41  1  0
 15 42  1  0
 15 43  1  0
 16 44  1  0
 16 45  1  0
 17 46  1  0
 17 47  1  0
 18 48  1  0
 18 49  1  0
 20 50  1  0
 21 51  1  0
 23 52  1  0
 26 53  1  0
 27 54  1  0
M  END
>  <smiles>  (13) 
O=C(NCC(=O)N1CC[C@H](O)[C@H]1CN1CCCC1)c1ccc2cc(F)ccc2n1

>  <score_type>  (13) 
oracle

>  <origin>  (13) 
autodockgpu

>  <m_score__min__energy>  (13) 
-8.5600000000000005

>  <m_primary>  (13) 
energy

>  <rmsd>  (13) 
2.6814779604259122

>  <m_score__min__rmsd>  (13) 
2.6814779604259122

>  <meeko>  (13) 
{"free_energy": -8.33, "intermolecular_energy": -10.42, "internal_energy": -1.4, "cluster_size": 28, "cluster_id": 1, "rank_in_cluster": 7}

>  <energy>  (13) 
-8.19

>  <cluster_rmsd>  (13) 
1.21

>  <cluster>  (13) 
1

$$$$

     RDKit          3D

 54 57  0  0  0  0  0  0  0  0999 V2000
  139.6370   71.6890  220.8420 O   0  0  0  0  0  0  0  0  0  0  0  0
  139.3620   72.0660  221.9930 C   0  0  0  0  0  0  0  0  0  0  0  0
  138.7680   73.3800  222.1030 N   0  0  0  0  0  0  0  0  0  0  0  0
  138.5340   74.1700  220.9500 C   0  0  0  0  0  0  0  0  0  0  0  0
  139.6420   74.8070  220.2450 C   0  0  0  0  0  0  0  0  0  0  0  0
  139.2640   75.3320  219.1060 O   0  0  0  0  0  0  0  0  0  0  0  0
  140.9790   74.9550  220.5570 N   0  0  0  0  0  0  0  0  0  0  0  0
  142.0360   73.9650  220.8820 C   0  0  0  0  0  0  0  0  0  0  0  0
  143.0670   74.2960  219.8470 C   0  0  0  0  0  0  0  0  0  0  0  0
  142.9410   75.8210  219.7180 C   0  0  2  0  0  0  0  0  0  0  0  0
  144.1600   76.4050  220.1010 O   0  0  0  0  0  0  0  0  0  0  0  0
  141.8220   76.1840  220.6470 C   0  0  1  0  0  0  0  0  0  0  0  0
  141.0480   77.3810  220.3710 C   0  0  0  0  0  0  0  0  0  0  0  0
  140.9150   78.3940  221.3630 N   0  0  0  0  0  0  0  0  0  0  0  0
  141.7240   79.5350  221.3340 C   0  0  0  0  0  0  0  0  0  0  0  0
  142.2650   79.7770  222.7300 C   0  0  0  0  0  0  0  0  0  0  0  0
  141.8160   78.5940  223.5430 C   0  0  0  0  0  0  0  0  0  0  0  0
  140.7550   77.9310  222.7030 C   0  0  0  0  0  0  0  0  0  0  0  0
  139.5920   71.2910  223.2010 C   0  0  0  0  0  0  0  0  0  0  0  0
  139.2920   69.9470  223.2150 C   0  0  0  0  0  0  0  0  0  0  0  0
  139.5260   69.2390  224.3880 C   0  0  0  0  0  0  0  0  0  0  0  0
  140.0420   69.8880  225.4840 C   0  0  0  0  0  0  0  0  0  0  0  0
  140.2660   69.1610  226.6370 C   0  0  0  0  0  0  0  0  0  0  0  0
  140.7840   69.7650  227.7660 C   0  0  0  0  0  0  0  0  0  0  0  0
  141.0040   69.0540  228.8970 F   0  0  0  0  0  0  0  0  0  0  0  0
  141.0690   71.1100  227.7040 C   0  0  0  0  0  0  0  0  0  0  0  0
  140.8480   71.8450  226.5550 C   0  0  0  0  0  0  0  0  0  0  0  0
  140.3320   71.2190  225.4480 C   0  0  0  0  0  0  0  0  0  0  0  0
  140.0980   71.8840  224.3020 N   0  0  0  0  0  0  0  0  0  0  0  0
  138.5200   73.7150  223.0760 H   0  0  0  0  0  0  0  0  0  0  0  0
  138.0302   73.5191  220.2203 H   0  0  0  0  0  0  0  0  0  0  0  0
  137.9732   75.0274  221.3503 H   0  0  0  0  0  0  0  0  0  0  0  0
  142.4254   74.1097  221.9006 H   0  0  0  0  0  0  0  0  0  0  0  0
  141.6972   72.9186  220.8656 H   0  0  0  0  0  0  0  0  0  0  0  0
  144.0738   74.0086  220.1843 H   0  0  0  0  0  0  0  0  0  0  0  0
  142.9162   73.7642  218.8960 H   0  0  0  0  0  0  0  0  0  0  0  0
  142.7285   76.1715  218.6972 H   0  0  0  0  0  0  0  0  0  0  0  0
  143.9850   77.2820  220.4820 H   0  0  0  0  0  0  0  0  0  0  0  0
  142.2208   76.4575  221.6350 H   0  0  0  0  0  0  0  0  0  0  0  0
  141.5054   77.8577  219.4915 H   0  0  0  0  0  0  0  0  0  0  0  0
  140.0225   76.9971  220.2666 H   0  0  0  0  0  0  0  0  0  0  0  0
  142.5586   79.3804  220.6343 H   0  0  0  0  0  0  0  0  0  0  0  0
  141.1378   80.4042  221.0011 H   0  0  0  0  0  0  0  0  0  0  0  0
  143.3632   79.8371  222.7121 H   0  0  0  0  0  0  0  0  0  0  0  0
  141.9000   80.7252  223.1515 H   0  0  0  0  0  0  0  0  0  0  0  0
  142.6551   77.9056  223.7218 H   0  0  0  0  0  0  0  0  0  0  0  0
  141.4379   78.8895  224.5328 H   0  0  0  0  0  0  0  0  0  0  0  0
  140.8760   76.8383  222.7394 H   0  0  0  0  0  0  0  0  0  0  0  0
  139.7520   78.1789  223.0806 H   0  0  0  0  0  0  0  0  0  0  0  0
  138.8798   69.4490  222.3250 H   0  0  0  0  0  0  0  0  0  0  0  0
  139.2991   68.1638  224.4388 H   0  0  0  0  0  0  0  0  0  0  0  0
  140.0288   68.0871  226.6563 H   0  0  0  0  0  0  0  0  0  0  0  0
  141.4829   71.6122  228.5909 H   0  0  0  0  0  0  0  0  0  0  0  0
  141.0829   72.9193  226.5279 H   0  0  0  0  0  0  0  0  0  0  0  0
  1  2  2  0
  2  3  1  0
  3  4  1  0
  4  5  1  0
  5  6  2  0
  5  7  1  0
  7  8  1  0
  8  9  1  0
  9 10  1  0
 10 11  1  0
 10 12  1  0
 12 13  1  0
 13 14  1  0
 14 15  1  0
 15 16  1  0
 16 17  1  0
 17 18  1  0
  2 19  1  0
 19 20  2  0
 20 21  1  0
 21 22  2  0
 22 23  1  0
 23 24  2  0
 24 25  1  0
 24 26  1  0
 26 27  2  0
 27 28  1  0
 28 29  2  0
 12  7  1  0
 18 14  1  0
 29 19  1  0
 28 22  1  0
  3 30  1  0
  4 31  1  0
  4 32  1  0
  8 33  1  0
  8 34  1  0
  9 35  1  0
  9 36  1  0
 10 37  1  6
 11 38  1  0
 12 39  1  1
 13 40  1  0
 13 41  1  0
 15 42  1  0
 15 43  1  0
 16 44  1  0
 16 45  1  0
 17 46  1  0
 17 47  1  0
 18 48  1  0
 18 49  1  0
 20 50  1  0
 21 51  1  0
 23 52  1  0
 26 53  1  0
 27 54  1  0
M  END
>  <smiles>  (14) 
O=C(NCC(=O)N1CC[C@H](O)[C@H]1CN1CCCC1)c1ccc2cc(F)ccc2n1

>  <score_type>  (14) 
oracle

>  <origin>  (14) 
autodockgpu

>  <m_score__min__energy>  (14) 
-8.5600000000000005

>  <m_primary>  (14) 
energy

>  <rmsd>  (14) 
2.7410970480535446

>  <m_score__min__rmsd>  (14) 
2.7410970480535446

>  <meeko>  (14) 
{"free_energy": -7.59, "intermolecular_energy": -9.68, "internal_energy": -1.67, "cluster_size": 28, "cluster_id": 1, "rank_in_cluster": 23}

>  <energy>  (14) 
-8.18

>  <cluster_rmsd>  (14) 
1.13

>  <cluster>  (14) 
1

$$$$

     RDKit          3D

 54 57  0  0  0  0  0  0  0  0999 V2000
  141.1410   71.9700  221.2100 O   0  0  0  0  0  0  0  0  0  0  0  0
  140.5260   72.3420  222.2240 C   0  0  0  0  0  0  0  0  0  0  0  0
  140.0640   73.7120  222.2170 N   0  0  0  0  0  0  0  0  0  0  0  0
  140.3190   74.5590  221.1090 C   0  0  0  0  0  0  0  0  0  0  0  0
  141.0200   75.8270  221.2860 C   0  0  0  0  0  0  0  0  0  0  0  0
  140.7610   76.3750  222.4470 O   0  0  0  0  0  0  0  0  0  0  0  0
  141.8870   76.5310  220.4740 N   0  0  0  0  0  0  0  0  0  0  0  0
  143.0990   76.1150  219.7240 C   0  0  0  0  0  0  0  0  0  0  0  0
  142.7320   76.5320  218.3330 C   0  0  0  0  0  0  0  0  0  0  0  0
  141.9270   77.8180  218.5660 C   0  0  2  0  0  0  0  0  0  0  0  0
  142.6010   78.8860  217.9500 O   0  0  0  0  0  0  0  0  0  0  0  0
  141.8760   77.9640  220.0570 C   0  0  1  0  0  0  0  0  0  0  0  0
  140.7610   78.6810  220.6500 C   0  0  0  0  0  0  0  0  0  0  0  0
  140.9870   79.6150  221.7010 N   0  0  0  0  0  0  0  0  0  0  0  0
  142.1880   80.3280  221.7790 C   0  0  0  0  0  0  0  0  0  0  0  0
  142.6910   80.2670  223.2080 C   0  0  0  0  0  0  0  0  0  0  0  0
  141.7530   79.3340  223.9230 C   0  0  0  0  0  0  0  0  0  0  0  0
  140.5690   79.1980  222.9990 C   0  0  0  0  0  0  0  0  0  0  0  0
  140.2500   71.5080  223.3830 C   0  0  0  0  0  0  0  0  0  0  0  0
  139.5380   70.3400  223.2280 C   0  0  0  0  0  0  0  0  0  0  0  0
  139.2940   69.5710  224.3580 C   0  0  0  0  0  0  0  0  0  0  0  0
  139.7620   69.9880  225.5810 C   0  0  0  0  0  0  0  0  0  0  0  0
  139.5060   69.2030  226.6890 C   0  0  0  0  0  0  0  0  0  0  0  0
  139.9560   69.5780  227.9410 C   0  0  0  0  0  0  0  0  0  0  0  0
  139.7060   68.8100  229.0280 F   0  0  0  0  0  0  0  0  0  0  0  0
  140.6640   70.7530  228.0460 C   0  0  0  0  0  0  0  0  0  0  0  0
  140.9240   71.5440  226.9440 C   0  0  0  0  0  0  0  0  0  0  0  0
  140.4650   71.1480  225.7120 C   0  0  0  0  0  0  0  0  0  0  0  0
  140.6900   71.8770  224.6040 N   0  0  0  0  0  0  0  0  0  0  0  0
  139.5320   74.0440  223.0700 H   0  0  0  0  0  0  0  0  0  0  0  0
  140.9110   73.9700  220.3930 H   0  0  0  0  0  0  0  0  0  0  0  0
  139.3104   74.8767  220.8061 H   0  0  0  0  0  0  0  0  0  0  0  0
  143.9957   76.6430  220.0806 H   0  0  0  0  0  0  0  0  0  0  0  0
  143.3516   75.0493  219.8260 H   0  0  0  0  0  0  0  0  0  0  0  0
  143.6295   76.7302  217.7287 H   0  0  0  0  0  0  0  0  0  0  0  0
  142.1735   75.7623  217.7802 H   0  0  0  0  0  0  0  0  0  0  0  0
  140.9119   77.7974  218.1428 H   0  0  0  0  0  0  0  0  0  0  0  0
  143.3070   78.5320  217.3850 H   0  0  0  0  0  0  0  0  0  0  0  0
  142.7003   78.6038  220.4053 H   0  0  0  0  0  0  0  0  0  0  0  0
  140.2710   79.2340  219.8351 H   0  0  0  0  0  0  0  0  0  0  0  0
  140.1845   77.8842  221.1427 H   0  0  0  0  0  0  0  0  0  0  0  0
  142.9313   79.8781  221.1044 H   0  0  0  0  0  0  0  0  0  0  0  0
  142.0256   81.3742  221.4807 H   0  0  0  0  0  0  0  0  0  0  0  0
  143.7189   79.8764  223.2377 H   0  0  0  0  0  0  0  0  0  0  0  0
  142.7134   81.2621  223.6762 H   0  0  0  0  0  0  0  0  0  0  0  0
  142.2298   78.3567  224.0888 H   0  0  0  0  0  0  0  0  0  0  0  0
  141.4652   79.7130  224.9147 H   0  0  0  0  0  0  0  0  0  0  0  0
  140.2358   78.1501  222.9675 H   0  0  0  0  0  0  0  0  0  0  0  0
  139.7296   79.8150  223.3521 H   0  0  0  0  0  0  0  0  0  0  0  0
  139.1735   70.0255  222.2390 H   0  0  0  0  0  0  0  0  0  0  0  0
  138.7282   68.6314  224.2746 H   0  0  0  0  0  0  0  0  0  0  0  0
  138.9373   68.2685  226.5733 H   0  0  0  0  0  0  0  0  0  0  0  0
  141.0324   71.0705  229.0327 H   0  0  0  0  0  0  0  0  0  0  0  0
  141.4919   72.4799  227.0520 H   0  0  0  0  0  0  0  0  0  0  0  0
  1  2  2  0
  2  3  1  0
  3  4  1  0
  4  5  1  0
  5  6  2  0
  5  7  1  0
  7  8  1  0
  8  9  1  0
  9 10  1  0
 10 11  1  0
 10 12  1  0
 12 13  1  0
 13 14  1  0
 14 15  1  0
 15 16  1  0
 16 17  1  0
 17 18  1  0
  2 19  1  0
 19 20  2  0
 20 21  1  0
 21 22  2  0
 22 23  1  0
 23 24  2  0
 24 25  1  0
 24 26  1  0
 26 27  2  0
 27 28  1  0
 28 29  2  0
 12  7  1  0
 18 14  1  0
 29 19  1  0
 28 22  1  0
  3 30  1  0
  4 31  1  0
  4 32  1  0
  8 33  1  0
  8 34  1  0
  9 35  1  0
  9 36  1  0
 10 37  1  6
 11 38  1  0
 12 39  1  1
 13 40  1  0
 13 41  1  0
 15 42  1  0
 15 43  1  0
 16 44  1  0
 16 45  1  0
 17 46  1  0
 17 47  1  0
 18 48  1  0
 18 49  1  0
 20 50  1  0
 21 51  1  0
 23 52  1  0
 26 53  1  0
 27 54  1  0
M  END
>  <smiles>  (15) 
O=C(NCC(=O)N1CC[C@H](O)[C@H]1CN1CCCC1)c1ccc2cc(F)ccc2n1

>  <score_type>  (15) 
oracle

>  <origin>  (15) 
autodockgpu

>  <m_score__min__energy>  (15) 
-8.5600000000000005

>  <m_primary>  (15) 
energy

>  <rmsd>  (15) 
2.68485266714288

>  <m_score__min__rmsd>  (15) 
2.68485266714288

>  <meeko>  (15) 
{"free_energy": -8.28, "intermolecular_energy": -10.37, "internal_energy": -1.46, "cluster_size": 28, "cluster_id": 1, "rank_in_cluster": 10}

>  <energy>  (15) 
-8.12

>  <cluster_rmsd>  (15) 
0.61

>  <cluster>  (15) 
1

$$$$

     RDKit          3D

 54 57  0  0  0  0  0  0  0  0999 V2000
  140.9150   71.9750  221.1620 O   0  0  0  0  0  0  0  0  0  0  0  0
  140.4020   72.3750  222.2200 C   0  0  0  0  0  0  0  0  0  0  0  0
  140.0060   73.7660  222.2460 N   0  0  0  0  0  0  0  0  0  0  0  0
  140.2130   74.6010  221.1190 C   0  0  0  0  0  0  0  0  0  0  0  0
  141.5470   75.0900  220.7880 C   0  0  0  0  0  0  0  0  0  0  0  0
  142.4670   74.1780  220.9780 O   0  0  0  0  0  0  0  0  0  0  0  0
  142.0000   76.3080  220.3200 N   0  0  0  0  0  0  0  0  0  0  0  0
  142.7760   76.6760  219.1090 C   0  0  0  0  0  0  0  0  0  0  0  0
  141.8620   77.6810  218.4770 C   0  0  0  0  0  0  0  0  0  0  0  0
  141.2490   78.3920  219.6930 C   0  0  2  0  0  0  0  0  0  0  0  0
  141.6160   79.7470  219.6500 O   0  0  0  0  0  0  0  0  0  0  0  0
  141.8340   77.6830  220.8770 C   0  0  1  0  0  0  0  0  0  0  0  0
  141.0840   77.6660  222.1200 C   0  0  0  0  0  0  0  0  0  0  0  0
  141.2980   78.6770  223.1000 N   0  0  0  0  0  0  0  0  0  0  0  0
  140.2730   79.5600  223.4520 C   0  0  0  0  0  0  0  0  0  0  0  0
  140.8350   80.9680  223.4680 C   0  0  0  0  0  0  0  0  0  0  0  0
  142.2430   80.8420  222.9520 C   0  0  0  0  0  0  0  0  0  0  0  0
  142.5440   79.3660  223.0160 C   0  0  0  0  0  0  0  0  0  0  0  0
  140.1800   71.5550  223.4000 C   0  0  0  0  0  0  0  0  0  0  0  0
  139.4410   70.3970  223.2960 C   0  0  0  0  0  0  0  0  0  0  0  0
  139.2500   69.6400  224.4440 C   0  0  0  0  0  0  0  0  0  0  0  0
  139.7960   70.0580  225.6340 C   0  0  0  0  0  0  0  0  0  0  0  0
  139.5920   69.2860  226.7620 C   0  0  0  0  0  0  0  0  0  0  0  0
  140.1190   69.6610  227.9820 C   0  0  0  0  0  0  0  0  0  0  0  0
  139.9210   68.9050  229.0880 F   0  0  0  0  0  0  0  0  0  0  0  0
  140.8520   70.8250  228.0370 C   0  0  0  0  0  0  0  0  0  0  0  0
  141.0600   71.6030  226.9150 C   0  0  0  0  0  0  0  0  0  0  0  0
  140.5240   71.2070  225.7150 C   0  0  0  0  0  0  0  0  0  0  0  0
  140.6960   71.9240  224.5900 N   0  0  0  0  0  0  0  0  0  0  0  0
  139.5610   74.1220  223.1380 H   0  0  0  0  0  0  0  0  0  0  0  0
  139.8582   74.0390  220.2425 H   0  0  0  0  0  0  0  0  0  0  0  0
  139.6765   75.5210  221.3943 H   0  0  0  0  0  0  0  0  0  0  0  0
  143.7467   77.1219  219.3715 H   0  0  0  0  0  0  0  0  0  0  0  0
  143.0328   75.8259  218.4598 H   0  0  0  0  0  0  0  0  0  0  0  0
  142.4233   78.3863  217.8465 H   0  0  0  0  0  0  0  0  0  0  0  0
  141.1116   77.2303  217.8109 H   0  0  0  0  0  0  0  0  0  0  0  0
  140.1499   78.3617  219.7267 H   0  0  0  0  0  0  0  0  0  0  0  0
  142.4930   79.8510  220.0550 H   0  0  0  0  0  0  0  0  0  0  0  0
  142.7374   78.2050  221.2254 H   0  0  0  0  0  0  0  0  0  0  0  0
  140.0191   77.7094  221.8478 H   0  0  0  0  0  0  0  0  0  0  0  0
  141.4450   76.7540  222.6179 H   0  0  0  0  0  0  0  0  0  0  0  0
  139.4578   79.4943  222.7164 H   0  0  0  0  0  0  0  0  0  0  0  0
  139.8770   79.3010  224.4451 H   0  0  0  0  0  0  0  0  0  0  0  0
  140.2432   81.6261  222.8148 H   0  0  0  0  0  0  0  0  0  0  0  0
  140.8064   81.4085  224.4755 H   0  0  0  0  0  0  0  0  0  0  0  0
  142.3107   81.2071  221.9165 H   0  0  0  0  0  0  0  0  0  0  0  0
  142.9564   81.4379  223.5401 H   0  0  0  0  0  0  0  0  0  0  0  0
  143.0855   79.0536  222.1109 H   0  0  0  0  0  0  0  0  0  0  0  0
  143.1729   79.1366  223.8889 H   0  0  0  0  0  0  0  0  0  0  0  0
  139.0150   70.0816  222.3322 H   0  0  0  0  0  0  0  0  0  0  0  0
  138.6643   68.7099  224.4014 H   0  0  0  0  0  0  0  0  0  0  0  0
  139.0020   68.3606  226.6870 H   0  0  0  0  0  0  0  0  0  0  0  0
  141.2825   71.1432  228.9980 H   0  0  0  0  0  0  0  0  0  0  0  0
  141.6487   72.5298  226.9823 H   0  0  0  0  0  0  0  0  0  0  0  0
  1  2  2  0
  2  3  1  0
  3  4  1  0
  4  5  1  0
  5  6  2  0
  5  7  1  0
  7  8  1  0
  8  9  1  0
  9 10  1  0
 10 11  1  0
 10 12  1  0
 12 13  1  0
 13 14  1  0
 14 15  1  0
 15 16  1  0
 16 17  1  0
 17 18  1  0
  2 19  1  0
 19 20  2  0
 20 21  1  0
 21 22  2  0
 22 23  1  0
 23 24  2  0
 24 25  1  0
 24 26  1  0
 26 27  2  0
 27 28  1  0
 28 29  2  0
 12  7  1  0
 18 14  1  0
 29 19  1  0
 28 22  1  0
  3 30  1  0
  4 31  1  0
  4 32  1  0
  8 33  1  0
  8 34  1  0
  9 35  1  0
  9 36  1  0
 10 37  1  6
 11 38  1  0
 12 39  1  1
 13 40  1  0
 13 41  1  0
 15 42  1  0
 15 43  1  0
 16 44  1  0
 16 45  1  0
 17 46  1  0
 17 47  1  0
 18 48  1  0
 18 49  1  0
 20 50  1  0
 21 51  1  0
 23 52  1  0
 26 53  1  0
 27 54  1  0
M  END
>  <smiles>  (16) 
O=C(NCC(=O)N1CC[C@H](O)[C@H]1CN1CCCC1)c1ccc2cc(F)ccc2n1

>  <score_type>  (16) 
oracle

>  <origin>  (16) 
autodockgpu

>  <m_score__min__energy>  (16) 
-8.5600000000000005

>  <m_primary>  (16) 
energy

>  <rmsd>  (16) 
2.6759558896920748

>  <m_score__min__rmsd>  (16) 
2.6759558896920748

>  <meeko>  (16) 
{"free_energy": -8.09, "intermolecular_energy": -10.18, "internal_energy": -1.32, "cluster_size": 28, "cluster_id": 1, "rank_in_cluster": 16}

>  <energy>  (16) 
-8.09

>  <cluster_rmsd>  (16) 
1.13

>  <cluster>  (16) 
1

$$$$

     RDKit          3D

 54 57  0  0  0  0  0  0  0  0999 V2000
  140.4240   74.1070  220.3030 O   0  0  0  0  0  0  0  0  0  0  0  0
  140.1030   74.8880  221.2140 C   0  0  0  0  0  0  0  0  0  0  0  0
  139.1040   74.4030  222.1410 N   0  0  0  0  0  0  0  0  0  0  0  0
  138.5370   73.1130  221.9880 C   0  0  0  0  0  0  0  0  0  0  0  0
  139.1660   71.9460  222.5980 C   0  0  0  0  0  0  0  0  0  0  0  0
  140.4330   71.8480  222.2830 O   0  0  0  0  0  0  0  0  0  0  0  0
  138.6790   70.9550  223.4280 N   0  0  0  0  0  0  0  0  0  0  0  0
  137.3870   70.2240  223.4450 C   0  0  0  0  0  0  0  0  0  0  0  0
  137.8590   68.8050  223.3600 C   0  0  0  0  0  0  0  0  0  0  0  0
  139.1600   68.8320  224.1760 C   0  0  2  0  0  0  0  0  0  0  0  0
  139.0140   67.9740  225.2790 O   0  0  0  0  0  0  0  0  0  0  0  0
  139.3150   70.2650  224.5880 C   0  0  1  0  0  0  0  0  0  0  0  0
  140.6490   70.7760  224.8450 C   0  0  0  0  0  0  0  0  0  0  0  0
  141.2030   70.7080  226.1550 N   0  0  0  0  0  0  0  0  0  0  0  0
  141.0310   69.5680  226.9470 C   0  0  0  0  0  0  0  0  0  0  0  0
  140.6120   70.0070  228.3360 C   0  0  0  0  0  0  0  0  0  0  0  0
  140.4140   71.4950  228.2430 C   0  0  0  0  0  0  0  0  0  0  0  0
  141.0700   71.8890  226.9440 C   0  0  0  0  0  0  0  0  0  0  0  0
  140.6540   76.2200  221.4010 C   0  0  0  0  0  0  0  0  0  0  0  0
  141.6290   76.6810  220.5450 C   0  0  0  0  0  0  0  0  0  0  0  0
  142.1310   77.9590  220.7550 C   0  0  0  0  0  0  0  0  0  0  0  0
  141.6490   78.7180  221.7950 C   0  0  0  0  0  0  0  0  0  0  0  0
  142.1650   79.9860  221.9820 C   0  0  0  0  0  0  0  0  0  0  0  0
  141.7140   80.7890  223.0120 C   0  0  0  0  0  0  0  0  0  0  0  0
  142.2180   82.0320  223.1960 F   0  0  0  0  0  0  0  0  0  0  0  0
  140.7380   80.2860  223.8410 C   0  0  0  0  0  0  0  0  0  0  0  0
  140.2170   79.0200  223.6620 C   0  0  0  0  0  0  0  0  0  0  0  0
  140.6830   78.2430  222.6310 C   0  0  0  0  0  0  0  0  0  0  0  0
  140.2120   77.0030  222.4080 N   0  0  0  0  0  0  0  0  0  0  0  0
  138.8240   75.0540  222.9280 H   0  0  0  0  0  0  0  0  0  0  0  0
  137.5163   73.1682  222.3943 H   0  0  0  0  0  0  0  0  0  0  0  0
  138.6535   72.9199  220.9114 H   0  0  0  0  0  0  0  0  0  0  0  0
  136.8304   70.4093  224.3755 H   0  0  0  0  0  0  0  0  0  0  0  0
  136.6896   70.5180  222.6468 H   0  0  0  0  0  0  0  0  0  0  0  0
  137.1260   68.1159  223.8049 H   0  0  0  0  0  0  0  0  0  0  0  0
  137.9988   68.4528  222.3273 H   0  0  0  0  0  0  0  0  0  0  0  0
  140.0468   68.4891  223.6229 H   0  0  0  0  0  0  0  0  0  0  0  0
  139.1100   68.4900  226.0970 H   0  0  0  0  0  0  0  0  0  0  0  0
  138.8726   70.4256  225.5822 H   0  0  0  0  0  0  0  0  0  0  0  0
  141.3324   70.2234  224.1834 H   0  0  0  0  0  0  0  0  0  0  0  0
  140.5397   71.8573  224.6754 H   0  0  0  0  0  0  0  0  0  0  0  0
  140.2519   68.9263  226.5097 H   0  0  0  0  0  0  0  0  0  0  0  0
  141.9712   68.9993  226.9987 H   0  0  0  0  0  0  0  0  0  0  0  0
  139.6746   69.5118  228.6295 H   0  0  0  0  0  0  0  0  0  0  0  0
  141.3647   69.7414  229.0929 H   0  0  0  0  0  0  0  0  0  0  0  0
  139.3425   71.7433  228.2272 H   0  0  0  0  0  0  0  0  0  0  0  0
  140.8449   72.0264  229.1043 H   0  0  0  0  0  0  0  0  0  0  0  0
  140.4457   72.6249  226.4161 H   0  0  0  0  0  0  0  0  0  0  0  0
  142.0543   72.3438  227.1295 H   0  0  0  0  0  0  0  0  0  0  0  0
  141.9994   76.0557  219.7193 H   0  0  0  0  0  0  0  0  0  0  0  0
  142.9108   78.3620  220.0921 H   0  0  0  0  0  0  0  0  0  0  0  0
  142.9445   80.3609  221.3024 H   0  0  0  0  0  0  0  0  0  0  0  0
  140.3633   80.9081  224.6672 H   0  0  0  0  0  0  0  0  0  0  0  0
  139.4375   78.6385  224.3378 H   0  0  0  0  0  0  0  0  0  0  0  0
  1  2  2  0
  2  3  1  0
  3  4  1  0
  4  5  1  0
  5  6  2  0
  5  7  1  0
  7  8  1  0
  8  9  1  0
  9 10  1  0
 10 11  1  0
 10 12  1  0
 12 13  1  0
 13 14  1  0
 14 15  1  0
 15 16  1  0
 16 17  1  0
 17 18  1  0
  2 19  1  0
 19 20  2  0
 20 21  1  0
 21 22  2  0
 22 23  1  0
 23 24  2  0
 24 25  1  0
 24 26  1  0
 26 27  2  0
 27 28  1  0
 28 29  2  0
 12  7  1  0
 18 14  1  0
 29 19  1  0
 28 22  1  0
  3 30  1  0
  4 31  1  0
  4 32  1  0
  8 33  1  0
  8 34  1  0
  9 35  1  0
  9 36  1  0
 10 37  1  6
 11 38  1  0
 12 39  1  1
 13 40  1  0
 13 41  1  0
 15 42  1  0
 15 43  1  0
 16 44  1  0
 16 45  1  0
 17 46  1  0
 17 47  1  0
 18 48  1  0
 18 49  1  0
 20 50  1  0
 21 51  1  0
 23 52  1  0
 26 53  1  0
 27 54  1  0
M  END
>  <smiles>  (17) 
O=C(NCC(=O)N1CC[C@H](O)[C@H]1CN1CCCC1)c1ccc2cc(F)ccc2n1

>  <score_type>  (17) 
oracle

>  <origin>  (17) 
autodockgpu

>  <m_score__min__energy>  (17) 
-8.5600000000000005

>  <m_primary>  (17) 
energy

>  <rmsd>  (17) 
9.320369612526273

>  <m_score__min__rmsd>  (17) 
9.320369612526273

>  <meeko>  (17) 
{"free_energy": -7.86, "intermolecular_energy": -9.95, "internal_energy": -1.52, "cluster_size": 5, "cluster_id": 3, "rank_in_cluster": 2}

>  <energy>  (17) 
-8.02

>  <cluster_rmsd>  (17) 
1.92

>  <cluster>  (17) 
1

$$$$

     RDKit          3D

 54 57  0  0  0  0  0  0  0  0999 V2000
  140.0390   70.9390  221.3900 O   0  0  0  0  0  0  0  0  0  0  0  0
  139.7970   71.5570  222.4410 C   0  0  0  0  0  0  0  0  0  0  0  0
  139.1950   72.8620  222.2840 N   0  0  0  0  0  0  0  0  0  0  0  0
  138.9160   73.3830  220.9960 C   0  0  0  0  0  0  0  0  0  0  0  0
  139.9610   74.0360  220.2140 C   0  0  0  0  0  0  0  0  0  0  0  0
  139.5770   74.2840  218.9870 O   0  0  0  0  0  0  0  0  0  0  0  0
  141.2460   74.4340  220.5280 N   0  0  0  0  0  0  0  0  0  0  0  0
  142.4740   73.6610  220.8390 C   0  0  0  0  0  0  0  0  0  0  0  0
  143.4200   74.1980  219.8100 C   0  0  0  0  0  0  0  0  0  0  0  0
  143.0030   75.6720  219.7030 C   0  0  2  0  0  0  0  0  0  0  0  0
  144.0880   76.4740  220.0940 O   0  0  0  0  0  0  0  0  0  0  0  0
  141.8370   75.8010  220.6360 C   0  0  1  0  0  0  0  0  0  0  0  0
  140.8470   76.8310  220.3770 C   0  0  0  0  0  0  0  0  0  0  0  0
  140.7780   77.9850  221.2090 N   0  0  0  0  0  0  0  0  0  0  0  0
  141.7410   78.9940  221.1130 C   0  0  0  0  0  0  0  0  0  0  0  0
  142.1930   79.3640  222.5120 C   0  0  0  0  0  0  0  0  0  0  0  0
  141.5140   78.3780  223.4240 C   0  0  0  0  0  0  0  0  0  0  0  0
  140.4430   77.7440  222.5740 C   0  0  0  0  0  0  0  0  0  0  0  0
  140.0730   71.0620  223.7800 C   0  0  0  0  0  0  0  0  0  0  0  0
  140.6810   71.8880  224.6990 C   0  0  0  0  0  0  0  0  0  0  0  0
  140.9280   71.3800  225.9680 C   0  0  0  0  0  0  0  0  0  0  0  0
  140.5660   70.0890  226.2680 C   0  0  0  0  0  0  0  0  0  0  0  0
  140.8230   69.6080  227.5380 C   0  0  0  0  0  0  0  0  0  0  0  0
  140.4790   68.3180  227.8900 C   0  0  0  0  0  0  0  0  0  0  0  0
  140.7290   67.8460  229.1340 F   0  0  0  0  0  0  0  0  0  0  0  0
  139.8730   67.5300  226.9380 C   0  0  0  0  0  0  0  0  0  0  0  0
  139.6120   68.0010  225.6660 C   0  0  0  0  0  0  0  0  0  0  0  0
  139.9660   69.2880  225.3430 C   0  0  0  0  0  0  0  0  0  0  0  0
  139.7360   69.8010  224.1210 N   0  0  0  0  0  0  0  0  0  0  0  0
  138.9760   73.3990  223.1690 H   0  0  0  0  0  0  0  0  0  0  0  0
  138.5490   72.5418  220.3896 H   0  0  0  0  0  0  0  0  0  0  0  0
  138.2193   74.2068  221.2104 H   0  0  0  0  0  0  0  0  0  0  0  0
  142.8306   73.8632  221.8598 H   0  0  0  0  0  0  0  0  0  0  0  0
  142.3421   72.5694  220.8070 H   0  0  0  0  0  0  0  0  0  0  0  0
  144.4639   74.1045  220.1440 H   0  0  0  0  0  0  0  0  0  0  0  0
  143.3725   73.6607  218.8513 H   0  0  0  0  0  0  0  0  0  0  0  0
  142.7245   75.9891  218.6872 H   0  0  0  0  0  0  0  0  0  0  0  0
  143.7550   77.2340  220.6000 H   0  0  0  0  0  0  0  0  0  0  0  0
  142.1775   76.1329  221.6279 H   0  0  0  0  0  0  0  0  0  0  0  0
  141.0243   77.1898  219.3524 H   0  0  0  0  0  0  0  0  0  0  0  0
  139.8946   76.3192  220.5795 H   0  0  0  0  0  0  0  0  0  0  0  0
  142.6002   78.6322  220.5292 H   0  0  0  0  0  0  0  0  0  0  0  0
  141.3147   79.8745  220.6100 H   0  0  0  0  0  0  0  0  0  0  0  0
  143.2863   79.2789  222.5985 H   0  0  0  0  0  0  0  0  0  0  0  0
  141.9329   80.4024  222.7652 H   0  0  0  0  0  0  0  0  0  0  0  0
  142.2288   77.6198  223.7764 H   0  0  0  0  0  0  0  0  0  0  0  0
  141.1010   78.8591  224.3229 H   0  0  0  0  0  0  0  0  0  0  0  0
  140.4039   76.6615  222.7653 H   0  0  0  0  0  0  0  0  0  0  0  0
  139.4575   78.1712  222.8115 H   0  0  0  0  0  0  0  0  0  0  0  0
  140.9624   72.9184  224.4362 H   0  0  0  0  0  0  0  0  0  0  0  0
  141.4116   72.0090  226.7299 H   0  0  0  0  0  0  0  0  0  0  0  0
  141.3080   70.2615  228.2781 H   0  0  0  0  0  0  0  0  0  0  0  0
  139.5894   66.4991  227.1967 H   0  0  0  0  0  0  0  0  0  0  0  0
  139.1267   67.3533  224.9210 H   0  0  0  0  0  0  0  0  0  0  0  0
  1  2  2  0
  2  3  1  0
  3  4  1  0
  4  5  1  0
  5  6  2  0
  5  7  1  0
  7  8  1  0
  8  9  1  0
  9 10  1  0
 10 11  1  0
 10 12  1  0
 12 13  1  0
 13 14  1  0
 14 15  1  0
 15 16  1  0
 16 17  1  0
 17 18  1  0
  2 19  1  0
 19 20  2  0
 20 21  1  0
 21 22  2  0
 22 23  1  0
 23 24  2  0
 24 25  1  0
 24 26  1  0
 26 27  2  0
 27 28  1  0
 28 29  2  0
 12  7  1  0
 18 14  1  0
 29 19  1  0
 28 22  1  0
  3 30  1  0
  4 31  1  0
  4 32  1  0
  8 33  1  0
  8 34  1  0
  9 35  1  0
  9 36  1  0
 10 37  1  6
 11 38  1  0
 12 39  1  1
 13 40  1  0
 13 41  1  0
 15 42  1  0
 15 43  1  0
 16 44  1  0
 16 45  1  0
 17 46  1  0
 17 47  1  0
 18 48  1  0
 18 49  1  0
 20 50  1  0
 21 51  1  0
 23 52  1  0
 26 53  1  0
 27 54  1  0
M  END
>  <smiles>  (18) 
O=C(NCC(=O)N1CC[C@H](O)[C@H]1CN1CCCC1)c1ccc2cc(F)ccc2n1

>  <score_type>  (18) 
oracle

>  <origin>  (18) 
autodockgpu

>  <m_score__min__energy>  (18) 
-8.5600000000000005

>  <m_primary>  (18) 
energy

>  <rmsd>  (18) 
3.4688723054789214

>  <m_score__min__rmsd>  (18) 
3.4688723054789214

>  <meeko>  (18) 
{"free_energy": -7.62, "intermolecular_energy": -9.71, "internal_energy": -1.5, "cluster_size": 28, "cluster_id": 1, "rank_in_cluster": 21}

>  <energy>  (18) 
-7.97

>  <cluster_rmsd>  (18) 
1.9

>  <cluster>  (18) 
1

$$$$

     RDKit          3D

 54 57  0  0  0  0  0  0  0  0999 V2000
  141.1080   72.1050  221.1390 O   0  0  0  0  0  0  0  0  0  0  0  0
  140.5060   72.4390  222.1730 C   0  0  0  0  0  0  0  0  0  0  0  0
  140.0420   73.8080  222.2210 N   0  0  0  0  0  0  0  0  0  0  0  0
  140.2810   74.6940  221.1410 C   0  0  0  0  0  0  0  0  0  0  0  0
  140.9780   75.9590  221.3550 C   0  0  0  0  0  0  0  0  0  0  0  0
  140.7150   76.4740  222.5300 O   0  0  0  0  0  0  0  0  0  0  0  0
  141.8450   76.6870  220.5650 N   0  0  0  0  0  0  0  0  0  0  0  0
  143.0000   76.2800  219.7250 C   0  0  0  0  0  0  0  0  0  0  0  0
  142.5960   76.8320  218.3930 C   0  0  0  0  0  0  0  0  0  0  0  0
  141.8700   78.1320  218.7720 C   0  0  2  0  0  0  0  0  0  0  0  0
  142.5710   79.2150  218.2170 O   0  0  0  0  0  0  0  0  0  0  0  0
  141.8910   78.1500  220.2710 C   0  0  1  0  0  0  0  0  0  0  0  0
  140.8420   78.8670  220.9740 C   0  0  0  0  0  0  0  0  0  0  0  0
  141.0570   79.3330  222.3020 N   0  0  0  0  0  0  0  0  0  0  0  0
  140.6690   80.6220  222.6800 C   0  0  0  0  0  0  0  0  0  0  0  0
  141.8110   81.2640  223.4420 C   0  0  0  0  0  0  0  0  0  0  0  0
  142.9520   80.2890  223.3490 C   0  0  0  0  0  0  0  0  0  0  0  0
  142.3220   79.0050  222.8740 C   0  0  0  0  0  0  0  0  0  0  0  0
  140.2460   71.5650  223.3050 C   0  0  0  0  0  0  0  0  0  0  0  0
  139.5350   70.4010  223.1180 C   0  0  0  0  0  0  0  0  0  0  0  0
  139.3070   69.5910  224.2230 C   0  0  0  0  0  0  0  0  0  0  0  0
  139.7900   69.9660  225.4540 C   0  0  0  0  0  0  0  0  0  0  0  0
  139.5510   69.1410  226.5370 C   0  0  0  0  0  0  0  0  0  0  0  0
  140.0160   69.4720  227.7950 C   0  0  0  0  0  0  0  0  0  0  0  0
  139.7820   68.6650  228.8570 F   0  0  0  0  0  0  0  0  0  0  0  0
  140.7230   70.6450  227.9330 C   0  0  0  0  0  0  0  0  0  0  0  0
  140.9670   71.4740  226.8560 C   0  0  0  0  0  0  0  0  0  0  0  0
  140.4930   71.1220  225.6170 C   0  0  0  0  0  0  0  0  0  0  0  0
  140.7020   71.8900  224.5330 N   0  0  0  0  0  0  0  0  0  0  0  0
  139.5210   74.1080  223.0920 H   0  0  0  0  0  0  0  0  0  0  0  0
  140.8682   74.1334  220.3987 H   0  0  0  0  0  0  0  0  0  0  0  0
  139.2677   75.0168  220.8598 H   0  0  0  0  0  0  0  0  0  0  0  0
  143.9374   76.7317  220.0816 H   0  0  0  0  0  0  0  0  0  0  0  0
  143.2006   75.1984  219.7247 H   0  0  0  0  0  0  0  0  0  0  0  0
  143.4757   77.0375  217.7655 H   0  0  0  0  0  0  0  0  0  0  0  0
  141.9748   76.1409  217.8044 H   0  0  0  0  0  0  0  0  0  0  0  0
  140.8379   78.1979  218.3972 H   0  0  0  0  0  0  0  0  0  0  0  0
  143.2670   78.8750  217.6300 H   0  0  0  0  0  0  0  0  0  0  0  0
  142.7622   78.7157  220.6330 H   0  0  0  0  0  0  0  0  0  0  0  0
  140.5992   79.7499  220.3645 H   0  0  0  0  0  0  0  0  0  0  0  0
  140.0595   78.1043  221.1004 H   0  0  0  0  0  0  0  0  0  0  0  0
  140.4392   81.2179  221.7844 H   0  0  0  0  0  0  0  0  0  0  0  0
  139.7719   80.5746  223.3148 H   0  0  0  0  0  0  0  0  0  0  0  0
  142.0876   82.2248  222.9833 H   0  0  0  0  0  0  0  0  0  0  0  0
  141.5379   81.4753  224.4864 H   0  0  0  0  0  0  0  0  0  0  0  0
  143.7050   80.6411  222.6286 H   0  0  0  0  0  0  0  0  0  0  0  0
  143.4728   80.1658  224.3100 H   0  0  0  0  0  0  0  0  0  0  0  0
  142.9638   78.5292  222.1179 H   0  0  0  0  0  0  0  0  0  0  0  0
  142.1978   78.3020  223.7109 H   0  0  0  0  0  0  0  0  0  0  0  0
  139.1587   70.1208  222.1231 H   0  0  0  0  0  0  0  0  0  0  0  0
  138.7423   68.6534  224.1135 H   0  0  0  0  0  0  0  0  0  0  0  0
  138.9835   68.2094  226.3954 H   0  0  0  0  0  0  0  0  0  0  0  0
  141.1029   70.9289  228.9255 H   0  0  0  0  0  0  0  0  0  0  0  0
  141.5351   72.4064  226.9896 H   0  0  0  0  0  0  0  0  0  0  0  0
  1  2  2  0
  2  3  1  0
  3  4  1  0
  4  5  1  0
  5  6  2  0
  5  7  1  0
  7  8  1  0
  8  9  1  0
  9 10  1  0
 10 11  1  0
 10 12  1  0
 12 13  1  0
 13 14  1  0
 14 15  1  0
 15 16  1  0
 16 17  1  0
 17 18  1  0
  2 19  1  0
 19 20  2  0
 20 21  1  0
 21 22  2  0
 22 23  1  0
 23 24  2  0
 24 25  1  0
 24 26  1  0
 26 27  2  0
 27 28  1  0
 28 29  2  0
 12  7  1  0
 18 14  1  0
 29 19  1  0
 28 22  1  0
  3 30  1  0
  4 31  1  0
  4 32  1  0
  8 33  1  0
  8 34  1  0
  9 35  1  0
  9 36  1  0
 10 37  1  1
 11 38  1  0
 12 39  1  6
 13 40  1  0
 13 41  1  0
 15 42  1  0
 15 43  1  0
 16 44  1  0
 16 45  1  0
 17 46  1  0
 17 47  1  0
 18 48  1  0
 18 49  1  0
 20 50  1  0
 21 51  1  0
 23 52  1  0
 26 53  1  0
 27 54  1  0
M  END
>  <smiles>  (19) 
O=C(NCC(=O)N1CC[C@H](O)[C@H]1CN1CCCC1)c1ccc2cc(F)ccc2n1

>  <score_type>  (19) 
oracle

>  <origin>  (19) 
autodockgpu

>  <m_score__min__energy>  (19) 
-8.5600000000000005

>  <m_primary>  (19) 
energy

>  <rmsd>  (19) 
2.6396244559242112

>  <m_score__min__rmsd>  (19) 
2.6396244559242112

>  <meeko>  (19) 
{"free_energy": -8.29, "intermolecular_energy": -10.38, "internal_energy": -1.37, "cluster_size": 28, "cluster_id": 1, "rank_in_cluster": 9}

>  <energy>  (19) 
-7.93

>  <cluster_rmsd>  (19) 
1.77

>  <cluster>  (19) 
1

$$$$

     RDKit          3D

 54 57  0  0  0  0  0  0  0  0999 V2000
  138.7960   75.4150  221.1220 O   0  0  0  0  0  0  0  0  0  0  0  0
  139.9060   75.7780  221.5460 C   0  0  0  0  0  0  0  0  0  0  0  0
  140.9810   74.8220  221.4060 N   0  0  0  0  0  0  0  0  0  0  0  0
  140.7520   73.5510  220.8210 C   0  0  0  0  0  0  0  0  0  0  0  0
  141.7500   72.9390  219.9500 C   0  0  0  0  0  0  0  0  0  0  0  0
  141.2440   72.5820  218.7960 O   0  0  0  0  0  0  0  0  0  0  0  0
  143.0970   72.6820  220.1170 N   0  0  0  0  0  0  0  0  0  0  0  0
  143.8580   71.4110  220.2070 C   0  0  0  0  0  0  0  0  0  0  0  0
  144.8500   71.5910  219.1000 C   0  0  0  0  0  0  0  0  0  0  0  0
  145.1450   73.0970  219.1510 C   0  0  2  0  0  0  0  0  0  0  0  0
  146.5060   73.2770  219.4480 O   0  0  0  0  0  0  0  0  0  0  0  0
  144.2540   73.6170  220.2380 C   0  0  1  0  0  0  0  0  0  0  0  0
  143.8250   75.0030  220.1850 C   0  0  0  0  0  0  0  0  0  0  0  0
  143.0050   75.4600  219.1130 N   0  0  0  0  0  0  0  0  0  0  0  0
  143.4230   75.3250  217.7850 C   0  0  0  0  0  0  0  0  0  0  0  0
  143.1880   76.6410  217.0710 C   0  0  0  0  0  0  0  0  0  0  0  0
  142.7330   77.5990  218.1370 C   0  0  0  0  0  0  0  0  0  0  0  0
  142.3750   76.7240  219.3120 C   0  0  0  0  0  0  0  0  0  0  0  0
  140.1820   77.0680  222.1590 C   0  0  0  0  0  0  0  0  0  0  0  0
  139.1520   77.7880  222.7220 C   0  0  0  0  0  0  0  0  0  0  0  0
  139.4550   79.0160  223.2970 C   0  0  0  0  0  0  0  0  0  0  0  0
  140.7520   79.4710  223.2900 C   0  0  0  0  0  0  0  0  0  0  0  0
  141.0260   80.6950  223.8700 C   0  0  0  0  0  0  0  0  0  0  0  0
  142.3130   81.1970  223.8890 C   0  0  0  0  0  0  0  0  0  0  0  0
  142.5830   82.3960  224.4570 F   0  0  0  0  0  0  0  0  0  0  0  0
  143.3090   80.4400  223.3150 C   0  0  0  0  0  0  0  0  0  0  0  0
  143.0440   79.2160  222.7330 C   0  0  0  0  0  0  0  0  0  0  0  0
  141.7560   78.7410  222.7270 C   0  0  0  0  0  0  0  0  0  0  0  0
  141.4390   77.5550  222.1760 N   0  0  0  0  0  0  0  0  0  0  0  0
  141.9350   75.1170  221.7570 H   0  0  0  0  0  0  0  0  0  0  0  0
  140.5871   72.8485  221.6513 H   0  0  0  0  0  0  0  0  0  0  0  0
  139.9149   73.7454  220.1344 H   0  0  0  0  0  0  0  0  0  0  0  0
  144.3559   71.3068  221.1823 H   0  0  0  0  0  0  0  0  0  0  0  0
  143.2396   70.5057  220.1180 H   0  0  0  0  0  0  0  0  0  0  0  0
  145.7607   71.0022  219.2841 H   0  0  0  0  0  0  0  0  0  0  0  0
  144.4779   71.2525  218.1218 H   0  0  0  0  0  0  0  0  0  0  0  0
  144.9543   73.6261  218.2056 H   0  0  0  0  0  0  0  0  0  0  0  0
  146.7180   74.2240  219.4010 H   0  0  0  0  0  0  0  0  0  0  0  0
  144.7949   73.6384  221.1956 H   0  0  0  0  0  0  0  0  0  0  0  0
  143.2690   75.1978  221.1139 H   0  0  0  0  0  0  0  0  0  0  0  0
  144.7665   75.5506  220.0308 H   0  0  0  0  0  0  0  0  0  0  0  0
  144.4935   75.0734  217.7567 H   0  0  0  0  0  0  0  0  0  0  0  0
  142.8564   74.5218  217.2912 H   0  0  0  0  0  0  0  0  0  0  0  0
  144.1186   76.9975  216.6052 H   0  0  0  0  0  0  0  0  0  0  0  0
  142.4449   76.5422  216.2660 H   0  0  0  0  0  0  0  0  0  0  0  0
  143.5421   78.2948  218.4040 H   0  0  0  0  0  0  0  0  0  0  0  0
  141.8859   78.2177  217.8059 H   0  0  0  0  0  0  0  0  0  0  0  0
  142.7368   77.1812  220.2448 H   0  0  0  0  0  0  0  0  0  0  0  0
  141.2841   76.6054  219.3885 H   0  0  0  0  0  0  0  0  0  0  0  0
  138.1216   77.4030  222.7167 H   0  0  0  0  0  0  0  0  0  0  0  0
  138.6599   79.6218  223.7561 H   0  0  0  0  0  0  0  0  0  0  0  0
  140.2093   81.2768  224.3221 H   0  0  0  0  0  0  0  0  0  0  0  0
  144.3415   80.8193  223.3200 H   0  0  0  0  0  0  0  0  0  0  0  0
  143.8557   78.6283  222.2794 H   0  0  0  0  0  0  0  0  0  0  0  0
  1  2  2  0
  2  3  1  0
  3  4  1  0
  4  5  1  0
  5  6  2  0
  5  7  1  0
  7  8  1  0
  8  9  1  0
  9 10  1  0
 10 11  1  0
 10 12  1  0
 12 13  1  0
 13 14  1  0
 14 15  1  0
 15 16  1  0
 16 17  1  0
 17 18  1  0
  2 19  1  0
 19 20  2  0
 20 21  1  0
 21 22  2  0
 22 23  1  0
 23 24  2  0
 24 25  1  0
 24 26  1  0
 26 27  2  0
 27 28  1  0
 28 29  2  0
 12  7  1  0
 18 14  1  0
 29 19  1  0
 28 22  1  0
  3 30  1  0
  4 31  1  0
  4 32  1  0
  8 33  1  0
  8 34  1  0
  9 35  1  0
  9 36  1  0
 10 37  1  6
 11 38  1  0
 12 39  1  1
 13 40  1  0
 13 41  1  0
 15 42  1  0
 15 43  1  0
 16 44  1  0
 16 45  1  0
 17 46  1  0
 17 47  1  0
 18 48  1  0
 18 49  1  0
 20 50  1  0
 21 51  1  0
 23 52  1  0
 26 53  1  0
 27 54  1  0
M  END
>  <smiles>  (20) 
O=C(NCC(=O)N1CC[C@H](O)[C@H]1CN1CCCC1)c1ccc2cc(F)ccc2n1

>  <score_type>  (20) 
oracle

>  <origin>  (20) 
autodockgpu

>  <m_score__min__energy>  (20) 
-8.5600000000000005

>  <m_primary>  (20) 
energy

>  <rmsd>  (20) 
7.652053842045708

>  <m_score__min__rmsd>  (20) 
7.652053842045708

>  <meeko>  (20) 
{"free_energy": -6.85, "intermolecular_energy": -8.94, "internal_energy": -2.23, "cluster_size": 1, "cluster_id": 7, "rank_in_cluster": 1}

>  <energy>  (20) 
-7.92

>  <cluster_rmsd>  (20) 
1.21

>  <cluster>  (20) 
1

$$$$

     RDKit          3D

 54 57  0  0  0  0  0  0  0  0999 V2000
  140.3050   73.6680  222.3590 O   0  0  0  0  0  0  0  0  0  0  0  0
  140.3520   72.4290  222.2910 C   0  0  0  0  0  0  0  0  0  0  0  0
  140.5380   71.8740  220.9680 N   0  0  0  0  0  0  0  0  0  0  0  0
  140.6480   72.7180  219.8350 C   0  0  0  0  0  0  0  0  0  0  0  0
  141.7730   72.5870  218.9140 C   0  0  0  0  0  0  0  0  0  0  0  0
  141.5050   71.7720  217.9240 O   0  0  0  0  0  0  0  0  0  0  0  0
  143.0310   73.1560  218.8960 N   0  0  0  0  0  0  0  0  0  0  0  0
  143.4930   74.5470  219.1330 C   0  0  0  0  0  0  0  0  0  0  0  0
  144.4810   74.3360  220.2380 C   0  0  0  0  0  0  0  0  0  0  0  0
  145.1040   72.9790  219.8820 C   0  0  2  0  0  0  0  0  0  0  0  0
  146.4760   73.1640  219.6440 O   0  0  0  0  0  0  0  0  0  0  0  0
  144.3680   72.5400  218.6520 C   0  0  1  0  0  0  0  0  0  0  0  0
  144.2570   71.1190  218.3760 C   0  0  0  0  0  0  0  0  0  0  0  0
  144.8490   70.1690  219.2570 N   0  0  0  0  0  0  0  0  0  0  0  0
  146.0950   69.6040  218.9670 C   0  0  0  0  0  0  0  0  0  0  0  0
  146.0050   68.1050  219.1810 C   0  0  0  0  0  0  0  0  0  0  0  0
  144.5570   67.8300  219.4790 C   0  0  0  0  0  0  0  0  0  0  0  0
  143.9650   69.1830  219.7860 C   0  0  0  0  0  0  0  0  0  0  0  0
  140.2350   71.5270  223.4260 C   0  0  0  0  0  0  0  0  0  0  0  0
  139.6500   70.2920  223.2580 C   0  0  0  0  0  0  0  0  0  0  0  0
  139.5570   69.4590  224.3650 C   0  0  0  0  0  0  0  0  0  0  0  0
  140.0440   69.8820  225.5790 C   0  0  0  0  0  0  0  0  0  0  0  0
  139.9400   69.0320  226.6640 C   0  0  0  0  0  0  0  0  0  0  0  0
  140.4140   69.4090  227.9060 C   0  0  0  0  0  0  0  0  0  0  0  0
  140.3130   68.5780  228.9700 F   0  0  0  0  0  0  0  0  0  0  0  0
  140.9920   70.6520  228.0250 C   0  0  0  0  0  0  0  0  0  0  0  0
  141.1000   71.5070  226.9460 C   0  0  0  0  0  0  0  0  0  0  0  0
  140.6200   71.1080  225.7230 C   0  0  0  0  0  0  0  0  0  0  0  0
  140.7000   71.8980  224.6370 N   0  0  0  0  0  0  0  0  0  0  0  0
  140.5870   70.8190  220.8930 H   0  0  0  0  0  0  0  0  0  0  0  0
  139.7355   72.5655  219.2399 H   0  0  0  0  0  0  0  0  0  0  0  0
  140.8122   73.7092  220.2829 H   0  0  0  0  0  0  0  0  0  0  0  0
  143.9721   74.9714  218.2384 H   0  0  0  0  0  0  0  0  0  0  0  0
  142.6882   75.2571  219.3740 H   0  0  0  0  0  0  0  0  0  0  0  0
  145.2412   75.1310  220.2470 H   0  0  0  0  0  0  0  0  0  0  0  0
  144.0260   74.3572  221.2392 H   0  0  0  0  0  0  0  0  0  0  0  0
  145.0204   72.2220  220.6757 H   0  0  0  0  0  0  0  0  0  0  0  0
  146.6370   74.0980  219.4290 H   0  0  0  0  0  0  0  0  0  0  0  0
  144.9152   72.8504  217.7497 H   0  0  0  0  0  0  0  0  0  0  0  0
  143.1824   70.8873  218.3366 H   0  0  0  0  0  0  0  0  0  0  0  0
  144.8381   70.9977  217.4499 H   0  0  0  0  0  0  0  0  0  0  0  0
  146.3634   69.8141  217.9211 H   0  0  0  0  0  0  0  0  0  0  0  0
  146.8657   70.0331  219.6242 H   0  0  0  0  0  0  0  0  0  0  0  0
  146.3202   67.5673  218.2746 H   0  0  0  0  0  0  0  0  0  0  0  0
  146.6615   67.7683  219.9969 H   0  0  0  0  0  0  0  0  0  0  0  0
  144.0607   67.3782  218.6075 H   0  0  0  0  0  0  0  0  0  0  0  0
  144.4308   67.1222  220.3115 H   0  0  0  0  0  0  0  0  0  0  0  0
  142.9751   69.2751  219.3153 H   0  0  0  0  0  0  0  0  0  0  0  0
  143.8432   69.3148  220.8713 H   0  0  0  0  0  0  0  0  0  0  0  0
  139.2678   69.9748  222.2765 H   0  0  0  0  0  0  0  0  0  0  0  0
  139.0956   68.4649  224.2710 H   0  0  0  0  0  0  0  0  0  0  0  0
  139.4743   68.0435  226.5372 H   0  0  0  0  0  0  0  0  0  0  0  0
  141.3777   70.9726  229.0040 H   0  0  0  0  0  0  0  0  0  0  0  0
  141.5654   72.4966  227.0649 H   0  0  0  0  0  0  0  0  0  0  0  0
  1  2  2  0
  2  3  1  0
  3  4  1  0
  4  5  1  0
  5  6  2  0
  5  7  1  0
  7  8  1  0
  8  9  1  0
  9 10  1  0
 10 11  1  0
 10 12  1  0
 12 13  1  0
 13 14  1  0
 14 15  1  0
 15 16  1  0
 16 17  1  0
 17 18  1  0
  2 19  1  0
 19 20  2  0
 20 21  1  0
 21 22  2  0
 22 23  1  0
 23 24  2  0
 24 25  1  0
 24 26  1  0
 26 27  2  0
 27 28  1  0
 28 29  2  0
 12  7  1  0
 18 14  1  0
 29 19  1  0
 28 22  1  0
  3 30  1  0
  4 31  1  0
  4 32  1  0
  8 33  1  0
  8 34  1  0
  9 35  1  0
  9 36  1  0
 10 37  1  1
 11 38  1  0
 12 39  1  6
 13 40  1  0
 13 41  1  0
 15 42  1  0
 15 43  1  0
 16 44  1  0
 16 45  1  0
 17 46  1  0
 17 47  1  0
 18 48  1  0
 18 49  1  0
 20 50  1  0
 21 51  1  0
 23 52  1  0
 26 53  1  0
 27 54  1  0
M  END
>  <smiles>  (21) 
O=C(NCC(=O)N1CC[C@H](O)[C@H]1CN1CCCC1)c1ccc2cc(F)ccc2n1

>  <score_type>  (21) 
oracle

>  <origin>  (21) 
autodockgpu

>  <m_score__min__energy>  (21) 
-8.5600000000000005

>  <m_primary>  (21) 
energy

>  <rmsd>  (21) 
6.33074816491837

>  <m_score__min__rmsd>  (21) 
6.33074816491837

>  <meeko>  (21) 
{"free_energy": -7.92, "intermolecular_energy": -10.01, "internal_energy": -1.29, "cluster_size": 5, "cluster_id": 2, "rank_in_cluster": 2}

>  <energy>  (21) 
-7.62

>  <cluster_rmsd>  (21) 
1.44

>  <cluster>  (21) 
1

$$$$

     RDKit          3D

 54 57  0  0  0  0  0  0  0  0999 V2000
  140.8640   71.9470  221.1610 O   0  0  0  0  0  0  0  0  0  0  0  0
  140.3600   72.3350  222.2280 C   0  0  0  0  0  0  0  0  0  0  0  0
  139.9550   73.7230  222.2680 N   0  0  0  0  0  0  0  0  0  0  0  0
  140.1430   74.5670  221.1450 C   0  0  0  0  0  0  0  0  0  0  0  0
  141.4650   75.0930  220.8200 C   0  0  0  0  0  0  0  0  0  0  0  0
  142.3970   74.1780  220.9210 O   0  0  0  0  0  0  0  0  0  0  0  0
  141.8980   76.3450  220.4310 N   0  0  0  0  0  0  0  0  0  0  0  0
  142.8420   76.7830  219.3720 C   0  0  0  0  0  0  0  0  0  0  0  0
  141.9770   77.7190  218.5860 C   0  0  0  0  0  0  0  0  0  0  0  0
  141.1090   78.3710  219.6720 C   0  0  2  0  0  0  0  0  0  0  0  0
  141.3710   79.7510  219.6880 O   0  0  0  0  0  0  0  0  0  0  0  0
  141.5320   77.6990  220.9440 C   0  0  1  0  0  0  0  0  0  0  0  0
  140.5800   77.6140  222.0370 C   0  0  0  0  0  0  0  0  0  0  0  0
  140.5980   78.5830  223.0800 N   0  0  0  0  0  0  0  0  0  0  0  0
  140.0010   79.8350  222.9040 C   0  0  0  0  0  0  0  0  0  0  0  0
  140.9630   80.9000  223.3920 C   0  0  0  0  0  0  0  0  0  0  0  0
  142.2310   80.1670  223.7340 C   0  0  0  0  0  0  0  0  0  0  0  0
  141.8320   78.7130  223.7820 C   0  0  0  0  0  0  0  0  0  0  0  0
  140.1570   71.5050  223.4040 C   0  0  0  0  0  0  0  0  0  0  0  0
  139.4590   70.3240  223.2920 C   0  0  0  0  0  0  0  0  0  0  0  0
  139.2850   69.5580  224.4370 C   0  0  0  0  0  0  0  0  0  0  0  0
  139.8060   69.9920  225.6330 C   0  0  0  0  0  0  0  0  0  0  0  0
  139.6200   69.2100  226.7570 C   0  0  0  0  0  0  0  0  0  0  0  0
  140.1240   69.6010  227.9820 C   0  0  0  0  0  0  0  0  0  0  0  0
  139.9430   68.8360  229.0850 F   0  0  0  0  0  0  0  0  0  0  0  0
  140.8160   70.7890  228.0460 C   0  0  0  0  0  0  0  0  0  0  0  0
  141.0070   71.5760  226.9270 C   0  0  0  0  0  0  0  0  0  0  0  0
  140.4950   71.1640  225.7220 C   0  0  0  0  0  0  0  0  0  0  0  0
  140.6510   71.8890  224.5990 N   0  0  0  0  0  0  0  0  0  0  0  0
  139.5170   74.0700  223.1670 H   0  0  0  0  0  0  0  0  0  0  0  0
  139.8062   73.9988  220.2654 H   0  0  0  0  0  0  0  0  0  0  0  0
  139.5811   75.4713  221.4218 H   0  0  0  0  0  0  0  0  0  0  0  0
  143.7144   77.3006  219.7976 H   0  0  0  0  0  0  0  0  0  0  0  0
  143.2735   75.9613  218.7816 H   0  0  0  0  0  0  0  0  0  0  0  0
  142.5830   78.4705  218.0587 H   0  0  0  0  0  0  0  0  0  0  0  0
  141.3907   77.2167  217.8025 H   0  0  0  0  0  0  0  0  0  0  0  0
  140.0267   78.2562  219.5124 H   0  0  0  0  0  0  0  0  0  0  0  0
  141.3670   80.0640  220.6080 H   0  0  0  0  0  0  0  0  0  0  0  0
  142.3180   78.2856  221.4421 H   0  0  0  0  0  0  0  0  0  0  0  0
  139.5771   77.6522  221.5868 H   0  0  0  0  0  0  0  0  0  0  0  0
  140.8718   76.6866  222.5517 H   0  0  0  0  0  0  0  0  0  0  0  0
  139.7807   79.9944  221.8381 H   0  0  0  0  0  0  0  0  0  0  0  0
  139.0609   79.8874  223.4728 H   0  0  0  0  0  0  0  0  0  0  0  0
  141.1488   81.6421  222.6015 H   0  0  0  0  0  0  0  0  0  0  0  0
  140.5616   81.4482  224.2570 H   0  0  0  0  0  0  0  0  0  0  0  0
  142.9960   80.3340  222.9614 H   0  0  0  0  0  0  0  0  0  0  0  0
  142.6669   80.5104  224.6837 H   0  0  0  0  0  0  0  0  0  0  0  0
  142.6047   78.0956  223.3005 H   0  0  0  0  0  0  0  0  0  0  0  0
  141.7223   78.3759  224.8233 H   0  0  0  0  0  0  0  0  0  0  0  0
  139.0512   69.9967  222.3242 H   0  0  0  0  0  0  0  0  0  0  0  0
  138.7327   68.6080  224.3874 H   0  0  0  0  0  0  0  0  0  0  0  0
  139.0637   68.2646  226.6751 H   0  0  0  0  0  0  0  0  0  0  0  0
  141.2268   71.1197  229.0114 H   0  0  0  0  0  0  0  0  0  0  0  0
  141.5631   72.5222  227.0008 H   0  0  0  0  0  0  0  0  0  0  0  0
  1  2  2  0
  2  3  1  0
  3  4  1  0
  4  5  1  0
  5  6  2  0
  5  7  1  0
  7  8  1  0
  8  9  1  0
  9 10  1  0
 10 11  1  0
 10 12  1  0
 12 13  1  0
 13 14  1  0
 14 15  1  0
 15 16  1  0
 16 17  1  0
 17 18  1  0
  2 19  1  0
 19 20  2  0
 20 21  1  0
 21 22  2  0
 22 23  1  0
 23 24  2  0
 24 25  1  0
 24 26  1  0
 26 27  2  0
 27 28  1  0
 28 29  2  0
 12  7  1  0
 18 14  1  0
 29 19  1  0
 28 22  1  0
  3 30  1  0
  4 31  1  0
  4 32  1  0
  8 33  1  0
  8 34  1  0
  9 35  1  0
  9 36  1  0
 10 37  1  6
 11 38  1  0
 12 39  1  1
 13 40  1  0
 13 41  1  0
 15 42  1  0
 15 43  1  0
 16 44  1  0
 16 45  1  0
 17 46  1  0
 17 47  1  0
 18 48  1  0
 18 49  1  0
 20 50  1  0
 21 51  1  0
 23 52  1  0
 26 53  1  0
 27 54  1  0
M  END
>  <smiles>  (22) 
O=C(NCC(=O)N1CC[C@H](O)[C@H]1CN1CCCC1)c1ccc2cc(F)ccc2n1

>  <score_type>  (22) 
oracle

>  <origin>  (22) 
autodockgpu

>  <m_score__min__energy>  (22) 
-8.5600000000000005

>  <m_primary>  (22) 
energy

>  <rmsd>  (22) 
2.8517502648312116

>  <m_score__min__rmsd>  (22) 
2.8517502648312116

>  <meeko>  (22) 
{"free_energy": -7.92, "intermolecular_energy": -10.01, "internal_energy": -1.37, "cluster_size": 28, "cluster_id": 1, "rank_in_cluster": 20}

>  <energy>  (22) 
-7.61

>  <cluster_rmsd>  (22) 
1.85

>  <cluster>  (22) 
1

$$$$

     RDKit          3D

 54 57  0  0  0  0  0  0  0  0999 V2000
  141.0890   72.2250  221.6150 O   0  0  0  0  0  0  0  0  0  0  0  0
  140.2150   72.2570  222.4980 C   0  0  0  0  0  0  0  0  0  0  0  0
  139.2020   73.2780  222.3490 N   0  0  0  0  0  0  0  0  0  0  0  0
  139.2340   74.1790  221.2560 C   0  0  0  0  0  0  0  0  0  0  0  0
  140.2950   75.1750  221.1410 C   0  0  0  0  0  0  0  0  0  0  0  0
  140.7510   75.5450  222.3120 O   0  0  0  0  0  0  0  0  0  0  0  0
  140.8900   75.7770  220.0510 N   0  0  0  0  0  0  0  0  0  0  0  0
  140.5570   77.0120  219.2970 C   0  0  0  0  0  0  0  0  0  0  0  0
  141.8440   77.7710  219.4060 C   0  0  0  0  0  0  0  0  0  0  0  0
  142.9000   76.6570  219.3510 C   0  0  2  0  0  0  0  0  0  0  0  0
  143.6990   76.8530  218.2120 O   0  0  0  0  0  0  0  0  0  0  0  0
  142.1030   75.3890  219.2730 C   0  0  1  0  0  0  0  0  0  0  0  0
  142.6920   74.1640  219.7820 C   0  0  0  0  0  0  0  0  0  0  0  0
  144.0730   73.8890  219.5690 N   0  0  0  0  0  0  0  0  0  0  0  0
  144.5000   72.6080  219.2040 C   0  0  0  0  0  0  0  0  0  0  0  0
  145.6870   72.2310  220.0680 C   0  0  0  0  0  0  0  0  0  0  0  0
  145.8230   73.3470  221.0680 C   0  0  0  0  0  0  0  0  0  0  0  0
  144.9710   74.4620  220.5170 C   0  0  0  0  0  0  0  0  0  0  0  0
  140.1500   71.3570  223.6380 C   0  0  0  0  0  0  0  0  0  0  0  0
  139.5880   70.1090  223.4890 C   0  0  0  0  0  0  0  0  0  0  0  0
  139.5440   69.2770  224.6010 C   0  0  0  0  0  0  0  0  0  0  0  0
  140.0550   69.7150  225.8000 C   0  0  0  0  0  0  0  0  0  0  0  0
  139.9990   68.8670  226.8900 C   0  0  0  0  0  0  0  0  0  0  0  0
  140.4980   69.2590  228.1170 C   0  0  0  0  0  0  0  0  0  0  0  0
  140.4450   68.4290  229.1860 F   0  0  0  0  0  0  0  0  0  0  0  0
  141.0510   70.5150  228.2170 C   0  0  0  0  0  0  0  0  0  0  0  0
  141.1110   71.3690  227.1330 C   0  0  0  0  0  0  0  0  0  0  0  0
  140.6070   70.9540  225.9250 C   0  0  0  0  0  0  0  0  0  0  0  0
  140.6390   71.7420  224.8350 N   0  0  0  0  0  0  0  0  0  0  0  0
  138.4460   73.3150  223.0890 H   0  0  0  0  0  0  0  0  0  0  0  0
  139.2793   73.5652  220.3443 H   0  0  0  0  0  0  0  0  0  0  0  0
  138.3372   74.7945  221.4198 H   0  0  0  0  0  0  0  0  0  0  0  0
  140.3067   76.7901  218.2491 H   0  0  0  0  0  0  0  0  0  0  0  0
  139.6786   77.5528  219.6789 H   0  0  0  0  0  0  0  0  0  0  0  0
  141.9631   78.4720  218.5667 H   0  0  0  0  0  0  0  0  0  0  0  0
  141.9098   78.3898  220.3130 H   0  0  0  0  0  0  0  0  0  0  0  0
  143.5799   76.6368  220.2155 H   0  0  0  0  0  0  0  0  0  0  0  0
  144.3870   76.1670  218.1860 H   0  0  0  0  0  0  0  0  0  0  0  0
  141.9616   75.0920  218.2233 H   0  0  0  0  0  0  0  0  0  0  0  0
  142.5341   74.1657  220.8706 H   0  0  0  0  0  0  0  0  0  0  0  0
  142.1880   73.3818  219.1953 H   0  0  0  0  0  0  0  0  0  0  0  0
  143.6841   71.8868  219.3596 H   0  0  0  0  0  0  0  0  0  0  0  0
  144.7881   72.5955  218.1425 H   0  0  0  0  0  0  0  0  0  0  0  0
  145.5021   71.2754  220.5804 H   0  0  0  0  0  0  0  0  0  0  0  0
  146.6024   72.1016  219.4720 H   0  0  0  0  0  0  0  0  0  0  0  0
  145.4557   73.0299  222.0552 H   0  0  0  0  0  0  0  0  0  0  0  0
  146.8699   73.6542  221.2083 H   0  0  0  0  0  0  0  0  0  0  0  0
  144.4042   74.9383  221.3305 H   0  0  0  0  0  0  0  0  0  0  0  0
  145.5989   75.2291  220.0403 H   0  0  0  0  0  0  0  0  0  0  0  0
  139.1861   69.7806  222.5192 H   0  0  0  0  0  0  0  0  0  0  0  0
  139.1024   68.2726  224.5225 H   0  0  0  0  0  0  0  0  0  0  0  0
  139.5518   67.8681  226.7791 H   0  0  0  0  0  0  0  0  0  0  0  0
  141.4554   70.8473  229.1845 H   0  0  0  0  0  0  0  0  0  0  0  0
  141.5570   72.3692  227.2362 H   0  0  0  0  0  0  0  0  0  0  0  0
  1  2  2  0
  2  3  1  0
  3  4  1  0
  4  5  1  0
  5  6  2  0
  5  7  1  0
  7  8  1  0
  8  9  1  0
  9 10  1  0
 10 11  1  0
 10 12  1  0
 12 13  1  0
 13 14  1  0
 14 15  1  0
 15 16  1  0
 16 17  1  0
 17 18  1  0
  2 19  1  0
 19 20  2  0
 20 21  1  0
 21 22  2  0
 22 23  1  0
 23 24  2  0
 24 25  1  0
 24 26  1  0
 26 27  2  0
 27 28  1  0
 28 29  2  0
 12  7  1  0
 18 14  1  0
 29 19  1  0
 28 22  1  0
  3 30  1  0
  4 31  1  0
  4 32  1  0
  8 33  1  0
  8 34  1  0
  9 35  1  0
  9 36  1  0
 10 37  1  1
 11 38  1  0
 12 39  1  6
 13 40  1  0
 13 41  1  0
 15 42  1  0
 15 43  1  0
 16 44  1  0
 16 45  1  0
 17 46  1  0
 17 47  1  0
 18 48  1  0
 18 49  1  0
 20 50  1  0
 21 51  1  0
 23 52  1  0
 26 53  1  0
 27 54  1  0
M  END
>  <smiles>  (23) 
O=C(NCC(=O)N1CC[C@H](O)[C@H]1CN1CCCC1)c1ccc2cc(F)ccc2n1

>  <score_type>  (23) 
oracle

>  <origin>  (23) 
autodockgpu

>  <m_score__min__energy>  (23) 
-8.5600000000000005

>  <m_primary>  (23) 
energy

>  <rmsd>  (23) 
4.071570352755609

>  <m_score__min__rmsd>  (23) 
4.071570352755609

>  <meeko>  (23) 
{"free_energy": -7.97, "intermolecular_energy": -10.06, "internal_energy": -1.61, "cluster_size": 28, "cluster_id": 1, "rank_in_cluster": 18}

>  <energy>  (23) 
-7.59

>  <cluster_rmsd>  (23) 
1.23

>  <cluster>  (23) 
1

$$$$

     RDKit          3D

 54 57  0  0  0  0  0  0  0  0999 V2000
  141.3650   72.3880  221.5760 O   0  0  0  0  0  0  0  0  0  0  0  0
  140.4960   72.5230  222.4530 C   0  0  0  0  0  0  0  0  0  0  0  0
  139.6670   73.7030  222.3480 N   0  0  0  0  0  0  0  0  0  0  0  0
  139.8630   74.6370  221.3000 C   0  0  0  0  0  0  0  0  0  0  0  0
  140.7400   75.7890  221.4830 C   0  0  0  0  0  0  0  0  0  0  0  0
  140.5160   76.4030  222.6170 O   0  0  0  0  0  0  0  0  0  0  0  0
  141.7400   76.3290  220.6980 N   0  0  0  0  0  0  0  0  0  0  0  0
  142.8930   75.7090  219.9970 C   0  0  0  0  0  0  0  0  0  0  0  0
  142.6490   76.1620  218.5900 C   0  0  0  0  0  0  0  0  0  0  0  0
  142.0600   77.5670  218.7840 C   0  0  2  0  0  0  0  0  0  0  0  0
  142.9230   78.5010  218.1860 O   0  0  0  0  0  0  0  0  0  0  0  0
  141.9810   77.7390  220.2710 C   0  0  1  0  0  0  0  0  0  0  0  0
  140.9800   78.6380  220.8160 C   0  0  0  0  0  0  0  0  0  0  0  0
  141.0830   79.0970  222.1600 N   0  0  0  0  0  0  0  0  0  0  0  0
  140.4130   80.2510  222.5760 C   0  0  0  0  0  0  0  0  0  0  0  0
  141.3790   81.1110  223.3670 C   0  0  0  0  0  0  0  0  0  0  0  0
  142.7120   80.4230  223.2520 C   0  0  0  0  0  0  0  0  0  0  0  0
  142.3890   79.0450  222.7320 C   0  0  0  0  0  0  0  0  0  0  0  0
  140.2670   71.5930  223.5480 C   0  0  0  0  0  0  0  0  0  0  0  0
  139.5950   70.4150  223.3110 C   0  0  0  0  0  0  0  0  0  0  0  0
  139.3960   69.5520  224.3820 C   0  0  0  0  0  0  0  0  0  0  0  0
  139.8660   69.8920  225.6280 C   0  0  0  0  0  0  0  0  0  0  0  0
  139.6550   69.0150  226.6750 C   0  0  0  0  0  0  0  0  0  0  0  0
  140.1080   69.3090  227.9460 C   0  0  0  0  0  0  0  0  0  0  0  0
  139.9020   68.4510  228.9740 F   0  0  0  0  0  0  0  0  0  0  0  0
  140.7750   70.4980  228.1340 C   0  0  0  0  0  0  0  0  0  0  0  0
  140.9910   71.3800  227.0930 C   0  0  0  0  0  0  0  0  0  0  0  0
  140.5290   71.0630  225.8400 C   0  0  0  0  0  0  0  0  0  0  0  0
  140.7110   71.8830  224.7890 N   0  0  0  0  0  0  0  0  0  0  0  0
  138.9160   73.8300  223.0840 H   0  0  0  0  0  0  0  0  0  0  0  0
  140.2620   74.0710  220.4453 H   0  0  0  0  0  0  0  0  0  0  0  0
  138.8703   75.0989  221.1944 H   0  0  0  0  0  0  0  0  0  0  0  0
  143.8512   76.0872  220.3827 H   0  0  0  0  0  0  0  0  0  0  0  0
  142.9630   74.6177  220.1164 H   0  0  0  0  0  0  0  0  0  0  0  0
  143.5876   76.2011  218.0176 H   0  0  0  0  0  0  0  0  0  0  0  0
  141.9907   75.4876  218.0227 H   0  0  0  0  0  0  0  0  0  0  0  0
  141.0712   77.7088  218.3234 H   0  0  0  0  0  0  0  0  0  0  0  0
  143.6960   78.6310  218.7600 H   0  0  0  0  0  0  0  0  0  0  0  0
  142.8867   78.2381  220.6460 H   0  0  0  0  0  0  0  0  0  0  0  0
  140.9762   79.5325  220.1758 H   0  0  0  0  0  0  0  0  0  0  0  0
  140.0707   78.0191  220.8323 H   0  0  0  0  0  0  0  0  0  0  0  0
  140.0539   80.8081  221.6981 H   0  0  0  0  0  0  0  0  0  0  0  0
  139.5504   79.9801  223.2026 H   0  0  0  0  0  0  0  0  0  0  0  0
  141.4305   82.1238  222.9408 H   0  0  0  0  0  0  0  0  0  0  0  0
  141.0646   81.2215  224.4153 H   0  0  0  0  0  0  0  0  0  0  0  0
  143.3658   80.9595  222.5486 H   0  0  0  0  0  0  0  0  0  0  0  0
  143.2472   80.3901  224.2125 H   0  0  0  0  0  0  0  0  0  0  0  0
  143.1226   78.7510  221.9668 H   0  0  0  0  0  0  0  0  0  0  0  0
  142.4262   78.3056  223.5456 H   0  0  0  0  0  0  0  0  0  0  0  0
  139.2270   70.1646  222.3051 H   0  0  0  0  0  0  0  0  0  0  0  0
  138.8644   68.6006  224.2331 H   0  0  0  0  0  0  0  0  0  0  0  0
  139.1197   68.0713  226.4938 H   0  0  0  0  0  0  0  0  0  0  0  0
  141.1453   70.7523  229.1381 H   0  0  0  0  0  0  0  0  0  0  0  0
  141.5268   72.3250  227.2661 H   0  0  0  0  0  0  0  0  0  0  0  0
  1  2  2  0
  2  3  1  0
  3  4  1  0
  4  5  1  0
  5  6  2  0
  5  7  1  0
  7  8  1  0
  8  9  1  0
  9 10  1  0
 10 11  1  0
 10 12  1  0
 12 13  1  0
 13 14  1  0
 14 15  1  0
 15 16  1  0
 16 17  1  0
 17 18  1  0
  2 19  1  0
 19 20  2  0
 20 21  1  0
 21 22  2  0
 22 23  1  0
 23 24  2  0
 24 25  1  0
 24 26  1  0
 26 27  2  0
 27 28  1  0
 28 29  2  0
 12  7  1  0
 18 14  1  0
 29 19  1  0
 28 22  1  0
  3 30  1  0
  4 31  1  0
  4 32  1  0
  8 33  1  0
  8 34  1  0
  9 35  1  0
  9 36  1  0
 10 37  1  6
 11 38  1  0
 12 39  1  1
 13 40  1  0
 13 41  1  0
 15 42  1  0
 15 43  1  0
 16 44  1  0
 16 45  1  0
 17 46  1  0
 17 47  1  0
 18 48  1  0
 18 49  1  0
 20 50  1  0
 21 51  1  0
 23 52  1  0
 26 53  1  0
 27 54  1  0
M  END
>  <smiles>  (24) 
O=C(NCC(=O)N1CC[C@H](O)[C@H]1CN1CCCC1)c1ccc2cc(F)ccc2n1

>  <score_type>  (24) 
oracle

>  <origin>  (24) 
autodockgpu

>  <m_score__min__energy>  (24) 
-8.5600000000000005

>  <m_primary>  (24) 
energy

>  <rmsd>  (24) 
2.5276090247875653

>  <m_score__min__rmsd>  (24) 
2.5276090247875653

>  <meeko>  (24) 
{"free_energy": -8.41, "intermolecular_energy": -10.5, "internal_energy": -1.31, "cluster_size": 28, "cluster_id": 1, "rank_in_cluster": 5}

>  <energy>  (24) 
-7.58

>  <cluster_rmsd>  (24) 
1.25

>  <cluster>  (24) 
1

$$$$

     RDKit          3D

 54 57  0  0  0  0  0  0  0  0999 V2000
  141.1710   72.0000  221.1840 O   0  0  0  0  0  0  0  0  0  0  0  0
  140.5580   72.3640  222.2010 C   0  0  0  0  0  0  0  0  0  0  0  0
  140.0950   73.7340  222.2040 N   0  0  0  0  0  0  0  0  0  0  0  0
  140.3490   74.5890  221.1030 C   0  0  0  0  0  0  0  0  0  0  0  0
  141.1010   75.8280  221.2790 C   0  0  0  0  0  0  0  0  0  0  0  0
  140.9080   76.3580  222.4610 O   0  0  0  0  0  0  0  0  0  0  0  0
  141.9590   76.5200  220.4470 N   0  0  0  0  0  0  0  0  0  0  0  0
  143.1760   76.0980  219.7080 C   0  0  0  0  0  0  0  0  0  0  0  0
  142.8030   76.4730  218.3060 C   0  0  0  0  0  0  0  0  0  0  0  0
  141.9830   77.7550  218.5050 C   0  0  2  0  0  0  0  0  0  0  0  0
  142.6440   78.8140  217.8600 O   0  0  0  0  0  0  0  0  0  0  0  0
  141.9300   77.9410  219.9910 C   0  0  1  0  0  0  0  0  0  0  0  0
  140.8070   78.6610  220.5650 C   0  0  0  0  0  0  0  0  0  0  0  0
  141.0190   79.6090  221.6060 N   0  0  0  0  0  0  0  0  0  0  0  0
  142.2100   80.3380  221.6770 C   0  0  0  0  0  0  0  0  0  0  0  0
  142.7130   80.3000  223.1070 C   0  0  0  0  0  0  0  0  0  0  0  0
  141.7870   79.3610  223.8310 C   0  0  0  0  0  0  0  0  0  0  0  0
  140.6060   79.1990  222.9080 C   0  0  0  0  0  0  0  0  0  0  0  0
  140.2840   71.5220  223.3540 C   0  0  0  0  0  0  0  0  0  0  0  0
  139.5970   70.3400  223.1860 C   0  0  0  0  0  0  0  0  0  0  0  0
  139.3540   69.5630  224.3110 C   0  0  0  0  0  0  0  0  0  0  0  0
  139.7990   69.9850  225.5410 C   0  0  0  0  0  0  0  0  0  0  0  0
  139.5450   69.1920  226.6440 C   0  0  0  0  0  0  0  0  0  0  0  0
  139.9710   69.5710  227.9020 C   0  0  0  0  0  0  0  0  0  0  0  0
  139.7230   68.7950  228.9840 F   0  0  0  0  0  0  0  0  0  0  0  0
  140.6550   70.7600  228.0200 C   0  0  0  0  0  0  0  0  0  0  0  0
  140.9130   71.5590  226.9230 C   0  0  0  0  0  0  0  0  0  0  0  0
  140.4780   71.1580  225.6840 C   0  0  0  0  0  0  0  0  0  0  0  0
  140.7020   71.8940  224.5810 N   0  0  0  0  0  0  0  0  0  0  0  0
  139.5650   74.0590  223.0610 H   0  0  0  0  0  0  0  0  0  0  0  0
  140.8983   73.9909  220.3610 H   0  0  0  0  0  0  0  0  0  0  0  0
  139.3445   74.9481  220.8347 H   0  0  0  0  0  0  0  0  0  0  0  0
  144.0665   76.6461  220.0495 H   0  0  0  0  0  0  0  0  0  0  0  0
  143.4416   75.0386  219.8388 H   0  0  0  0  0  0  0  0  0  0  0  0
  143.6977   76.6654  217.6957 H   0  0  0  0  0  0  0  0  0  0  0  0
  142.2534   75.6820  217.7747 H   0  0  0  0  0  0  0  0  0  0  0  0
  140.9681   77.7105  218.0831 H   0  0  0  0  0  0  0  0  0  0  0  0
  143.3990   78.4600  217.3620 H   0  0  0  0  0  0  0  0  0  0  0  0
  142.7462   78.6003  220.3214 H   0  0  0  0  0  0  0  0  0  0  0  0
  140.3223   79.2017  219.7387 H   0  0  0  0  0  0  0  0  0  0  0  0
  140.2298   77.8680  221.0629 H   0  0  0  0  0  0  0  0  0  0  0  0
  142.9596   79.8901  221.0080 H   0  0  0  0  0  0  0  0  0  0  0  0
  142.0339   81.3786  221.3670 H   0  0  0  0  0  0  0  0  0  0  0  0
  143.7463   79.9245  223.1417 H   0  0  0  0  0  0  0  0  0  0  0  0
  142.7213   81.3003  223.5646 H   0  0  0  0  0  0  0  0  0  0  0  0
  142.2772   78.3921  224.0071 H   0  0  0  0  0  0  0  0  0  0  0  0
  141.4931   79.7462  224.8185 H   0  0  0  0  0  0  0  0  0  0  0  0
  140.2878   78.1462  222.8868 H   0  0  0  0  0  0  0  0  0  0  0  0
  139.7577   79.8075  223.2545 H   0  0  0  0  0  0  0  0  0  0  0  0
  139.2515   70.0214  222.1914 H   0  0  0  0  0  0  0  0  0  0  0  0
  138.8073   68.6130  224.2180 H   0  0  0  0  0  0  0  0  0  0  0  0
  138.9965   68.2468  226.5184 H   0  0  0  0  0  0  0  0  0  0  0  0
  141.0046   71.0816  229.0121 H   0  0  0  0  0  0  0  0  0  0  0  0
  141.4607   72.5057  227.0408 H   0  0  0  0  0  0  0  0  0  0  0  0
  1  2  2  0
  2  3  1  0
  3  4  1  0
  4  5  1  0
  5  6  2  0
  5  7  1  0
  7  8  1  0
  8  9  1  0
  9 10  1  0
 10 11  1  0
 10 12  1  0
 12 13  1  0
 13 14  1  0
 14 15  1  0
 15 16  1  0
 16 17  1  0
 17 18  1  0
  2 19  1  0
 19 20  2  0
 20 21  1  0
 21 22  2  0
 22 23  1  0
 23 24  2  0
 24 25  1  0
 24 26  1  0
 26 27  2  0
 27 28  1  0
 28 29  2  0
 12  7  1  0
 18 14  1  0
 29 19  1  0
 28 22  1  0
  3 30  1  0
  4 31  1  0
  4 32  1  0
  8 33  1  0
  8 34  1  0
  9 35  1  0
  9 36  1  0
 10 37  1  6
 11 38  1  0
 12 39  1  1
 13 40  1  0
 13 41  1  0
 15 42  1  0
 15 43  1  0
 16 44  1  0
 16 45  1  0
 17 46  1  0
 17 47  1  0
 18 48  1  0
 18 49  1  0
 20 50  1  0
 21 51  1  0
 23 52  1  0
 26 53  1  0
 27 54  1  0
M  END
>  <smiles>  (25) 
O=C(NCC(=O)N1CC[C@H](O)[C@H]1CN1CCCC1)c1ccc2cc(F)ccc2n1

>  <score_type>  (25) 
oracle

>  <origin>  (25) 
autodockgpu

>  <m_score__min__energy>  (25) 
-8.5600000000000005

>  <m_primary>  (25) 
energy

>  <rmsd>  (25) 
2.687386115269359

>  <m_score__min__rmsd>  (25) 
2.687386115269359

>  <meeko>  (25) 
{"free_energy": -8.24, "intermolecular_energy": -10.33, "internal_energy": -1.48, "cluster_size": 28, "cluster_id": 1, "rank_in_cluster": 12}

>  <energy>  (25) 
-7.49

>  <cluster_rmsd>  (25) 
1.26

>  <cluster>  (25) 
1

$$$$

     RDKit          3D

 54 57  0  0  0  0  0  0  0  0999 V2000
  141.0750   72.4330  221.8240 O   0  0  0  0  0  0  0  0  0  0  0  0
  140.1190   72.2980  222.6050 C   0  0  0  0  0  0  0  0  0  0  0  0
  138.9660   73.1310  222.3430 N   0  0  0  0  0  0  0  0  0  0  0  0
  138.9600   74.0430  221.2590 C   0  0  0  0  0  0  0  0  0  0  0  0
  139.8860   75.1710  221.2280 C   0  0  0  0  0  0  0  0  0  0  0  0
  140.1380   75.6340  222.4260 O   0  0  0  0  0  0  0  0  0  0  0  0
  140.5300   75.8160  220.1900 N   0  0  0  0  0  0  0  0  0  0  0  0
  140.0810   76.8750  219.2510 C   0  0  0  0  0  0  0  0  0  0  0  0
  141.1210   77.9260  219.4860 C   0  0  0  0  0  0  0  0  0  0  0  0
  142.3890   77.0980  219.7410 C   0  0  2  0  0  0  0  0  0  0  0  0
  143.3270   77.3960  218.7390 O   0  0  0  0  0  0  0  0  0  0  0  0
  141.9250   75.6740  219.6790 C   0  0  1  0  0  0  0  0  0  0  0  0
  142.6630   74.6670  220.4210 C   0  0  0  0  0  0  0  0  0  0  0  0
  143.8520   74.1040  219.8760 N   0  0  0  0  0  0  0  0  0  0  0  0
  143.9010   72.7560  219.5080 C   0  0  0  0  0  0  0  0  0  0  0  0
  145.1790   72.1520  220.0590 C   0  0  0  0  0  0  0  0  0  0  0  0
  145.7980   73.2310  220.9050 C   0  0  0  0  0  0  0  0  0  0  0  0
  145.0680   74.4910  220.5140 C   0  0  0  0  0  0  0  0  0  0  0  0
  140.0880   71.3810  223.7320 C   0  0  0  0  0  0  0  0  0  0  0  0
  139.5600   70.1190  223.5700 C   0  0  0  0  0  0  0  0  0  0  0  0
  139.5480   69.2710  224.6700 C   0  0  0  0  0  0  0  0  0  0  0  0
  140.0550   69.7060  225.8710 C   0  0  0  0  0  0  0  0  0  0  0  0
  140.0310   68.8420  226.9500 C   0  0  0  0  0  0  0  0  0  0  0  0
  140.5290   69.2300  228.1780 C   0  0  0  0  0  0  0  0  0  0  0  0
  140.5070   68.3840  229.2360 F   0  0  0  0  0  0  0  0  0  0  0  0
  141.0470   70.5000  228.2920 C   0  0  0  0  0  0  0  0  0  0  0  0
  141.0750   71.3700  227.2200 C   0  0  0  0  0  0  0  0  0  0  0  0
  140.5730   70.9580  226.0100 C   0  0  0  0  0  0  0  0  0  0  0  0
  140.5750   71.7620  224.9310 N   0  0  0  0  0  0  0  0  0  0  0  0
  138.1390   73.0240  222.9960 H   0  0  0  0  0  0  0  0  0  0  0  0
  139.1534   73.4529  220.3511 H   0  0  0  0  0  0  0  0  0  0  0  0
  137.9802   74.5333  221.3570 H   0  0  0  0  0  0  0  0  0  0  0  0
  140.0917   76.5220  218.2092 H   0  0  0  0  0  0  0  0  0  0  0  0
  139.0477   77.2158  219.4129 H   0  0  0  0  0  0  0  0  0  0  0  0
  141.2396   78.5707  218.6026 H   0  0  0  0  0  0  0  0  0  0  0  0
  140.8724   78.6080  220.3125 H   0  0  0  0  0  0  0  0  0  0  0  0
  142.8779   77.3058  220.7042 H   0  0  0  0  0  0  0  0  0  0  0  0
  143.8030   78.2070  218.9820 H   0  0  0  0  0  0  0  0  0  0  0  0
  142.0579   75.2745  218.6628 H   0  0  0  0  0  0  0  0  0  0  0  0
  142.9405   75.1226  221.3830 H   0  0  0  0  0  0  0  0  0  0  0  0
  141.9692   73.8137  220.4439 H   0  0  0  0  0  0  0  0  0  0  0  0
  143.0311   72.2262  219.9235 H   0  0  0  0  0  0  0  0  0  0  0  0
  143.8829   72.6639  218.4120 H   0  0  0  0  0  0  0  0  0  0  0  0
  144.9535   71.2656  220.6701 H   0  0  0  0  0  0  0  0  0  0  0  0
  145.8553   71.8228  219.2563 H   0  0  0  0  0  0  0  0  0  0  0  0
  145.6546   73.0157  221.9741 H   0  0  0  0  0  0  0  0  0  0  0  0
  146.8834   73.3128  220.7460 H   0  0  0  0  0  0  0  0  0  0  0  0
  144.8475   75.0902  221.4097 H   0  0  0  0  0  0  0  0  0  0  0  0
  145.6837   75.0998  219.8356 H   0  0  0  0  0  0  0  0  0  0  0  0
  139.1599   69.7927  222.5987 H   0  0  0  0  0  0  0  0  0  0  0  0
  139.1345   68.2556  224.5802 H   0  0  0  0  0  0  0  0  0  0  0  0
  139.6100   67.8330  226.8287 H   0  0  0  0  0  0  0  0  0  0  0  0
  141.4487   70.8303  229.2613 H   0  0  0  0  0  0  0  0  0  0  0  0
  141.4942   72.3806  227.3339 H   0  0  0  0  0  0  0  0  0  0  0  0
  1  2  2  0
  2  3  1  0
  3  4  1  0
  4  5  1  0
  5  6  2  0
  5  7  1  0
  7  8  1  0
  8  9  1  0
  9 10  1  0
 10 11  1  0
 10 12  1  0
 12 13  1  0
 13 14  1  0
 14 15  1  0
 15 16  1  0
 16 17  1  0
 17 18  1  0
  2 19  1  0
 19 20  2  0
 20 21  1  0
 21 22  2  0
 22 23  1  0
 23 24  2  0
 24 25  1  0
 24 26  1  0
 26 27  2  0
 27 28  1  0
 28 29  2  0
 12  7  1  0
 18 14  1  0
 29 19  1  0
 28 22  1  0
  3 30  1  0
  4 31  1  0
  4 32  1  0
  8 33  1  0
  8 34  1  0
  9 35  1  0
  9 36  1  0
 10 37  1  1
 11 38  1  0
 12 39  1  6
 13 40  1  0
 13 41  1  0
 15 42  1  0
 15 43  1  0
 16 44  1  0
 16 45  1  0
 17 46  1  0
 17 47  1  0
 18 48  1  0
 18 49  1  0
 20 50  1  0
 21 51  1  0
 23 52  1  0
 26 53  1  0
 27 54  1  0
M  END
>  <smiles>  (26) 
O=C(NCC(=O)N1CC[C@H](O)[C@H]1CN1CCCC1)c1ccc2cc(F)ccc2n1

>  <score_type>  (26) 
oracle

>  <origin>  (26) 
autodockgpu

>  <m_score__min__energy>  (26) 
-8.5600000000000005

>  <m_primary>  (26) 
energy

>  <rmsd>  (26) 
3.993985724039672

>  <m_score__min__rmsd>  (26) 
3.993985724039672

>  <meeko>  (26) 
{"free_energy": -7.93, "intermolecular_energy": -10.02, "internal_energy": -1.43, "cluster_size": 28, "cluster_id": 1, "rank_in_cluster": 19}

>  <energy>  (26) 
-7.49

>  <cluster_rmsd>  (26) 
1.34

>  <cluster>  (26) 
1

$$$$

     RDKit          3D

 54 57  0  0  0  0  0  0  0  0999 V2000
  140.6630   71.9670  221.1630 O   0  0  0  0  0  0  0  0  0  0  0  0
  140.2470   72.3690  222.2620 C   0  0  0  0  0  0  0  0  0  0  0  0
  139.9280   73.7780  222.3410 N   0  0  0  0  0  0  0  0  0  0  0  0
  140.0990   74.6250  221.2180 C   0  0  0  0  0  0  0  0  0  0  0  0
  141.4340   74.9980  220.7610 C   0  0  0  0  0  0  0  0  0  0  0  0
  142.2200   73.9580  220.6370 O   0  0  0  0  0  0  0  0  0  0  0  0
  142.0000   76.2160  220.4390 N   0  0  0  0  0  0  0  0  0  0  0  0
  142.9980   76.6030  219.4110 C   0  0  0  0  0  0  0  0  0  0  0  0
  142.2460   77.6630  218.6660 C   0  0  0  0  0  0  0  0  0  0  0  0
  141.4360   78.3480  219.7770 C   0  0  2  0  0  0  0  0  0  0  0  0
  141.8410   79.6900  219.8640 O   0  0  0  0  0  0  0  0  0  0  0  0
  141.7700   77.5730  221.0160 C   0  0  1  0  0  0  0  0  0  0  0  0
  140.8010   77.5350  222.0960 C   0  0  0  0  0  0  0  0  0  0  0  0
  140.8490   78.5040  223.1380 N   0  0  0  0  0  0  0  0  0  0  0  0
  139.9080   79.5360  223.2000 C   0  0  0  0  0  0  0  0  0  0  0  0
  140.6390   80.8410  223.4480 C   0  0  0  0  0  0  0  0  0  0  0  0
  142.1020   80.4980  223.3800 C   0  0  0  0  0  0  0  0  0  0  0  0
  142.1480   78.9930  223.4680 C   0  0  0  0  0  0  0  0  0  0  0  0
  140.0650   71.5360  223.4400 C   0  0  0  0  0  0  0  0  0  0  0  0
  139.3560   70.3600  223.3390 C   0  0  0  0  0  0  0  0  0  0  0  0
  139.2030   69.5910  224.4860 C   0  0  0  0  0  0  0  0  0  0  0  0
  139.7560   70.0160  225.6700 C   0  0  0  0  0  0  0  0  0  0  0  0
  139.5900   69.2310  226.7960 C   0  0  0  0  0  0  0  0  0  0  0  0
  140.1270   69.6130  228.0100 C   0  0  0  0  0  0  0  0  0  0  0  0
  139.9650   68.8450  229.1140 F   0  0  0  0  0  0  0  0  0  0  0  0
  140.8290   70.7960  228.0610 C   0  0  0  0  0  0  0  0  0  0  0  0
  140.9990   71.5860  226.9420 C   0  0  0  0  0  0  0  0  0  0  0  0
  140.4550   71.1830  225.7470 C   0  0  0  0  0  0  0  0  0  0  0  0
  140.5900   71.9110  224.6250 N   0  0  0  0  0  0  0  0  0  0  0  0
  139.5660   74.1370  223.2690 H   0  0  0  0  0  0  0  0  0  0  0  0
  139.6050   74.1267  220.3708 H   0  0  0  0  0  0  0  0  0  0  0  0
  139.6840   75.5818  221.5678 H   0  0  0  0  0  0  0  0  0  0  0  0
  143.9144   77.0040  219.8686 H   0  0  0  0  0  0  0  0  0  0  0  0
  143.3484   75.7702  218.7835 H   0  0  0  0  0  0  0  0  0  0  0  0
  142.9343   78.3719  218.1826 H   0  0  0  0  0  0  0  0  0  0  0  0
  141.6211   77.2646  217.8531 H   0  0  0  0  0  0  0  0  0  0  0  0
  140.3497   78.3557  219.6042 H   0  0  0  0  0  0  0  0  0  0  0  0
  142.5890   79.7560  220.4810 H   0  0  0  0  0  0  0  0  0  0  0  0
  142.6066   78.0485  221.5490 H   0  0  0  0  0  0  0  0  0  0  0  0
  139.8071   77.6185  221.6321 H   0  0  0  0  0  0  0  0  0  0  0  0
  141.0435   76.5966  222.6162 H   0  0  0  0  0  0  0  0  0  0  0  0
  139.3580   79.5939  222.2491 H   0  0  0  0  0  0  0  0  0  0  0  0
  139.1927   79.3448  224.0135 H   0  0  0  0  0  0  0  0  0  0  0  0
  140.3805   81.5799  222.6752 H   0  0  0  0  0  0  0  0  0  0  0  0
  140.3673   81.2845  224.4172 H   0  0  0  0  0  0  0  0  0  0  0  0
  142.5378   80.8444  222.4313 H   0  0  0  0  0  0  0  0  0  0  0  0
  142.6796   80.9793  224.1830 H   0  0  0  0  0  0  0  0  0  0  0  0
  142.8895   78.5978  222.7581 H   0  0  0  0  0  0  0  0  0  0  0  0
  142.4368   78.6728  224.4800 H   0  0  0  0  0  0  0  0  0  0  0  0
  138.9240   70.0392  222.3796 H   0  0  0  0  0  0  0  0  0  0  0  0
  138.6415   68.6459  224.4465 H   0  0  0  0  0  0  0  0  0  0  0  0
  139.0234   68.2909  226.7242 H   0  0  0  0  0  0  0  0  0  0  0  0
  141.2654   71.1198  229.0174 H   0  0  0  0  0  0  0  0  0  0  0  0
  141.5638   72.5277  227.0066 H   0  0  0  0  0  0  0  0  0  0  0  0
  1  2  2  0
  2  3  1  0
  3  4  1  0
  4  5  1  0
  5  6  2  0
  5  7  1  0
  7  8  1  0
  8  9  1  0
  9 10  1  0
 10 11  1  0
 10 12  1  0
 12 13  1  0
 13 14  1  0
 14 15  1  0
 15 16  1  0
 16 17  1  0
 17 18  1  0
  2 19  1  0
 19 20  2  0
 20 21  1  0
 21 22  2  0
 22 23  1  0
 23 24  2  0
 24 25  1  0
 24 26  1  0
 26 27  2  0
 27 28  1  0
 28 29  2  0
 12  7  1  0
 18 14  1  0
 29 19  1  0
 28 22  1  0
  3 30  1  0
  4 31  1  0
  4 32  1  0
  8 33  1  0
  8 34  1  0
  9 35  1  0
  9 36  1  0
 10 37  1  6
 11 38  1  0
 12 39  1  1
 13 40  1  0
 13 41  1  0
 15 42  1  0
 15 43  1  0
 16 44  1  0
 16 45  1  0
 17 46  1  0
 17 47  1  0
 18 48  1  0
 18 49  1  0
 20 50  1  0
 21 51  1  0
 23 52  1  0
 26 53  1  0
 27 54  1  0
M  END
>  <smiles>  (27) 
O=C(NCC(=O)N1CC[C@H](O)[C@H]1CN1CCCC1)c1ccc2cc(F)ccc2n1

>  <score_type>  (27) 
oracle

>  <origin>  (27) 
autodockgpu

>  <m_score__min__energy>  (27) 
-8.5600000000000005

>  <m_primary>  (27) 
energy

>  <rmsd>  (27) 
2.7946537192993346

>  <m_score__min__rmsd>  (27) 
2.7946537192993346

>  <meeko>  (27) 
{"free_energy": -8.18, "intermolecular_energy": -10.27, "internal_energy": -1.27, "cluster_size": 28, "cluster_id": 1, "rank_in_cluster": 14}

>  <energy>  (27) 
-7.01

>  <cluster_rmsd>  (27) 
1.76

>  <cluster>  (27) 
1

$$$$

     RDKit          3D

 54 57  0  0  0  0  0  0  0  0999 V2000
  134.7400   68.5260  225.2410 O   0  0  0  0  0  0  0  0  0  0  0  0
  135.0410   69.7160  225.0490 C   0  0  0  0  0  0  0  0  0  0  0  0
  136.1410   69.9520  224.1400 N   0  0  0  0  0  0  0  0  0  0  0  0
  136.8210   68.8710  223.5260 C   0  0  0  0  0  0  0  0  0  0  0  0
  138.2420   68.9680  223.2080 C   0  0  0  0  0  0  0  0  0  0  0  0
  138.8690   67.8340  223.4010 O   0  0  0  0  0  0  0  0  0  0  0  0
  139.0230   70.0100  222.7480 N   0  0  0  0  0  0  0  0  0  0  0  0
  139.5250   70.3490  221.3930 C   0  0  0  0  0  0  0  0  0  0  0  0
  138.9880   71.7370  221.2260 C   0  0  0  0  0  0  0  0  0  0  0  0
  139.0830   72.3100  222.6480 C   0  0  2  0  0  0  0  0  0  0  0  0
  139.9600   73.4070  222.6310 O   0  0  0  0  0  0  0  0  0  0  0  0
  139.6080   71.1750  223.4750 C   0  0  1  0  0  0  0  0  0  0  0  0
  139.2850   71.1370  224.8900 C   0  0  0  0  0  0  0  0  0  0  0  0
  140.2390   70.6510  225.8300 N   0  0  0  0  0  0  0  0  0  0  0  0
  139.9040   69.6330  226.7280 C   0  0  0  0  0  0  0  0  0  0  0  0
  140.3790   70.0330  228.1100 C   0  0  0  0  0  0  0  0  0  0  0  0
  140.8910   71.4400  227.9650 C   0  0  0  0  0  0  0  0  0  0  0  0
  141.0300   71.6460  226.4770 C   0  0  0  0  0  0  0  0  0  0  0  0
  134.3750   70.8530  225.6630 C   0  0  0  0  0  0  0  0  0  0  0  0
  133.3620   70.6400  226.5710 C   0  0  0  0  0  0  0  0  0  0  0  0
  132.7500   71.7510  227.1370 C   0  0  0  0  0  0  0  0  0  0  0  0
  133.1640   73.0120  226.7820 C   0  0  0  0  0  0  0  0  0  0  0  0
  132.5390   74.1010  227.3610 C   0  0  0  0  0  0  0  0  0  0  0  0
  132.9180   75.3890  227.0380 C   0  0  0  0  0  0  0  0  0  0  0  0
  132.3070   76.4560  227.6050 F   0  0  0  0  0  0  0  0  0  0  0  0
  133.9360   75.5520  226.1260 C   0  0  0  0  0  0  0  0  0  0  0  0
  134.5670   74.4710  225.5430 C   0  0  0  0  0  0  0  0  0  0  0  0
  134.1690   73.2010  225.8810 C   0  0  0  0  0  0  0  0  0  0  0  0
  134.7480   72.1110  225.3470 N   0  0  0  0  0  0  0  0  0  0  0  0
  136.4070   70.9610  223.9600 H   0  0  0  0  0  0  0  0  0  0  0  0
  136.7077   68.0069  224.1971 H   0  0  0  0  0  0  0  0  0  0  0  0
  136.3509   68.8184  222.5329 H   0  0  0  0  0  0  0  0  0  0  0  0
  140.6242   70.3341  221.3544 H   0  0  0  0  0  0  0  0  0  0  0  0
  139.2144   69.6458  220.6062 H   0  0  0  0  0  0  0  0  0  0  0  0
  139.6025   72.3179  220.5225 H   0  0  0  0  0  0  0  0  0  0  0  0
  137.9692   71.7637  220.8121 H   0  0  0  0  0  0  0  0  0  0  0  0
  138.1275   72.6754  223.0523 H   0  0  0  0  0  0  0  0  0  0  0  0
  139.5570   74.1430  223.1190 H   0  0  0  0  0  0  0  0  0  0  0  0
  140.7041   71.2314  223.5478 H   0  0  0  0  0  0  0  0  0  0  0  0
  139.0443   72.1683  225.1876 H   0  0  0  0  0  0  0  0  0  0  0  0
  138.4783   70.3910  224.9430 H   0  0  0  0  0  0  0  0  0  0  0  0
  138.8132   69.4912  226.7375 H   0  0  0  0  0  0  0  0  0  0  0  0
  140.3828   68.6905  226.4239 H   0  0  0  0  0  0  0  0  0  0  0  0
  139.5464   69.9986  228.8280 H   0  0  0  0  0  0  0  0  0  0  0  0
  141.1556   69.3521  228.4885 H   0  0  0  0  0  0  0  0  0  0  0  0
  140.1756   72.1589  228.3909 H   0  0  0  0  0  0  0  0  0  0  0  0
  141.8416   71.5937  228.4968 H   0  0  0  0  0  0  0  0  0  0  0  0
  140.6710   72.6486  226.2016 H   0  0  0  0  0  0  0  0  0  0  0  0
  142.0834   71.5623  226.1713 H   0  0  0  0  0  0  0  0  0  0  0  0
  133.0470   69.6210  226.8399 H   0  0  0  0  0  0  0  0  0  0  0  0
  131.9370   71.6217  227.8666 H   0  0  0  0  0  0  0  0  0  0  0  0
  131.7296   73.9393  228.0881 H   0  0  0  0  0  0  0  0  0  0  0  0
  134.2550   76.5692  225.8548 H   0  0  0  0  0  0  0  0  0  0  0  0
  135.3786   74.6253  224.8167 H   0  0  0  0  0  0  0  0  0  0  0  0
  1  2  2  0
  2  3  1  0
  3  4  1  0
  4  5  1  0
  5  6  2  0
  5  7  1  0
  7  8  1  0
  8  9  1  0
  9 10  1  0
 10 11  1  0
 10 12  1  0
 12 13  1  0
 13 14  1  0
 14 15  1  0
 15 16  1  0
 16 17  1  0
 17 18  1  0
  2 19  1  0
 19 20  2  0
 20 21  1  0
 21 22  2  0
 22 23  1  0
 23 24  2  0
 24 25  1  0
 24 26  1  0
 26 27  2  0
 27 28  1  0
 28 29  2  0
 12  7  1  0
 18 14  1  0
 29 19  1  0
 28 22  1  0
  3 30  1  0
  4 31  1  0
  4 32  1  0
  8 33  1  0
  8 34  1  0
  9 35  1  0
  9 36  1  0
 10 37  1  1
 11 38  1  0
 12 39  1  1
 13 40  1  0
 13 41  1  0
 15 42  1  0
 15 43  1  0
 16 44  1  0
 16 45  1  0
 17 46  1  0
 17 47  1  0
 18 48  1  0
 18 49  1  0
 20 50  1  0
 21 51  1  0
 23 52  1  0
 26 53  1  0
 27 54  1  0
M  END
>  <smiles>  (28) 
O=C(NCC(=O)N1CC[C@H](O)[C@H]1CN1CCCC1)c1ccc2cc(F)ccc2n1

>  <score_type>  (28) 
oracle

>  <origin>  (28) 
autodockgpu

>  <m_score__min__energy>  (28) 
-8.5600000000000005

>  <m_primary>  (28) 
energy

>  <rmsd>  (28) 
8.065612065373148

>  <m_score__min__rmsd>  (28) 
8.065612065373148

>  <meeko>  (28) 
{"free_energy": -7.54, "intermolecular_energy": -9.63, "internal_energy": -1.78, "cluster_size": 5, "cluster_id": 6, "rank_in_cluster": 3}

>  <energy>  (28) 
-6.98

>  <cluster_rmsd>  (28) 
1.71

>  <cluster>  (28) 
1

$$$$

     RDKit          3D

 54 57  0  0  0  0  0  0  0  0999 V2000
  134.6760   68.4760  225.1550 O   0  0  0  0  0  0  0  0  0  0  0  0
  135.0450   69.6600  225.0810 C   0  0  0  0  0  0  0  0  0  0  0  0
  136.2500   69.9020  224.3190 N   0  0  0  0  0  0  0  0  0  0  0  0
  136.9520   68.8310  223.7110 C   0  0  0  0  0  0  0  0  0  0  0  0
  138.3660   68.9610  223.3770 C   0  0  0  0  0  0  0  0  0  0  0  0
  139.0340   67.8620  223.6230 O   0  0  0  0  0  0  0  0  0  0  0  0
  139.1060   70.0050  222.8570 N   0  0  0  0  0  0  0  0  0  0  0  0
  139.5410   70.3170  221.4720 C   0  0  0  0  0  0  0  0  0  0  0  0
  138.9720   71.6900  221.2950 C   0  0  0  0  0  0  0  0  0  0  0  0
  139.1190   72.3020  222.6960 C   0  0  2  0  0  0  0  0  0  0  0  0
  139.9740   73.4130  222.6120 O   0  0  0  0  0  0  0  0  0  0  0  0
  139.7010   71.1980  223.5270 C   0  0  1  0  0  0  0  0  0  0  0  0
  139.4420   71.1910  224.9550 C   0  0  0  0  0  0  0  0  0  0  0  0
  140.4580   70.7850  225.8670 N   0  0  0  0  0  0  0  0  0  0  0  0
  140.2890   69.6540  226.6710 C   0  0  0  0  0  0  0  0  0  0  0  0
  140.6910   70.0060  228.0890 C   0  0  0  0  0  0  0  0  0  0  0  0
  140.9710   71.4840  228.0700 C   0  0  0  0  0  0  0  0  0  0  0  0
  141.0790   71.8350  226.6070 C   0  0  0  0  0  0  0  0  0  0  0  0
  134.3590   70.7850  225.6960 C   0  0  0  0  0  0  0  0  0  0  0  0
  133.3570   70.5550  226.6120 C   0  0  0  0  0  0  0  0  0  0  0  0
  132.7260   71.6550  227.1770 C   0  0  0  0  0  0  0  0  0  0  0  0
  133.1110   72.9230  226.8140 C   0  0  0  0  0  0  0  0  0  0  0  0
  132.4660   74.0010  227.3930 C   0  0  0  0  0  0  0  0  0  0  0  0
  132.8160   75.2950  227.0620 C   0  0  0  0  0  0  0  0  0  0  0  0
  132.1860   76.3520  227.6280 F   0  0  0  0  0  0  0  0  0  0  0  0
  133.8230   75.4760  226.1420 C   0  0  0  0  0  0  0  0  0  0  0  0
  134.4730   74.4060  225.5590 C   0  0  0  0  0  0  0  0  0  0  0  0
  134.1050   73.1290  225.9050 C   0  0  0  0  0  0  0  0  0  0  0  0
  134.7020   72.0490  225.3710 N   0  0  0  0  0  0  0  0  0  0  0  0
  136.5750   70.9060  224.2400 H   0  0  0  0  0  0  0  0  0  0  0  0
  136.8682   67.9727  224.3939 H   0  0  0  0  0  0  0  0  0  0  0  0
  136.4733   68.7536  222.7237 H   0  0  0  0  0  0  0  0  0  0  0  0
  140.6375   70.3200  221.3842 H   0  0  0  0  0  0  0  0  0  0  0  0
  139.2088   69.5883  220.7179 H   0  0  0  0  0  0  0  0  0  0  0  0
  139.5439   72.2630  220.5503 H   0  0  0  0  0  0  0  0  0  0  0  0
  137.9354   71.6879  220.9271 H   0  0  0  0  0  0  0  0  0  0  0  0
  138.1759   72.6617  223.1332 H   0  0  0  0  0  0  0  0  0  0  0  0
  139.5710   74.1600  223.0850 H   0  0  0  0  0  0  0  0  0  0  0  0
  140.7981   71.2754  223.5490 H   0  0  0  0  0  0  0  0  0  0  0  0
  139.1618   72.2184  225.2306 H   0  0  0  0  0  0  0  0  0  0  0  0
  138.6783   70.4072  225.0666 H   0  0  0  0  0  0  0  0  0  0  0  0
  139.2351   69.3394  226.6516 H   0  0  0  0  0  0  0  0  0  0  0  0
  140.9133   68.8294  226.2966 H   0  0  0  0  0  0  0  0  0  0  0  0
  139.8732   69.7782  228.7886 H   0  0  0  0  0  0  0  0  0  0  0  0
  141.5661   69.4282  228.4214 H   0  0  0  0  0  0  0  0  0  0  0  0
  140.1484   72.0407  228.5427 H   0  0  0  0  0  0  0  0  0  0  0  0
  141.8832   71.7418  228.6281 H   0  0  0  0  0  0  0  0  0  0  0  0
  140.5653   72.7876  226.4104 H   0  0  0  0  0  0  0  0  0  0  0  0
  142.1329   71.9460  226.3120 H   0  0  0  0  0  0  0  0  0  0  0  0
  133.0654   69.5308  226.8877 H   0  0  0  0  0  0  0  0  0  0  0  0
  131.9208   71.5119  227.9126 H   0  0  0  0  0  0  0  0  0  0  0  0
  131.6647   73.8253  228.1259 H   0  0  0  0  0  0  0  0  0  0  0  0
  134.1177   76.4986  225.8639 H   0  0  0  0  0  0  0  0  0  0  0  0
  135.2759   74.5746  224.8263 H   0  0  0  0  0  0  0  0  0  0  0  0
  1  2  2  0
  2  3  1  0
  3  4  1  0
  4  5  1  0
  5  6  2  0
  5  7  1  0
  7  8  1  0
  8  9  1  0
  9 10  1  0
 10 11  1  0
 10 12  1  0
 12 13  1  0
 13 14  1  0
 14 15  1  0
 15 16  1  0
 16 17  1  0
 17 18  1  0
  2 19  1  0
 19 20  2  0
 20 21  1  0
 21 22  2  0
 22 23  1  0
 23 24  2  0
 24 25  1  0
 24 26  1  0
 26 27  2  0
 27 28  1  0
 28 29  2  0
 12  7  1  0
 18 14  1  0
 29 19  1  0
 28 22  1  0
  3 30  1  0
  4 31  1  0
  4 32  1  0
  8 33  1  0
  8 34  1  0
  9 35  1  0
  9 36  1  0
 10 37  1  1
 11 38  1  0
 12 39  1  1
 13 40  1  0
 13 41  1  0
 15 42  1  0
 15 43  1  0
 16 44  1  0
 16 45  1  0
 17 46  1  0
 17 47  1  0
 18 48  1  0
 18 49  1  0
 20 50  1  0
 21 51  1  0
 23 52  1  0
 26 53  1  0
 27 54  1  0
M  END
>  <smiles>  (29) 
O=C(NCC(=O)N1CC[C@H](O)[C@H]1CN1CCCC1)c1ccc2cc(F)ccc2n1

>  <score_type>  (29) 
oracle

>  <origin>  (29) 
autodockgpu

>  <m_score__min__energy>  (29) 
-8.5600000000000005

>  <m_primary>  (29) 
energy

>  <rmsd>  (29) 
8.083643942956563

>  <m_score__min__rmsd>  (29) 
8.083643942956563

>  <meeko>  (29) 
{"free_energy": -7.65, "intermolecular_energy": -9.74, "internal_energy": -1.7, "cluster_size": 5, "cluster_id": 6, "rank_in_cluster": 1}

>  <energy>  (29) 
-8.19

>  <cluster_rmsd>  (29) 
0.0

>  <cluster>  (29) 
2

$$$$

     RDKit          3D

 54 57  0  0  0  0  0  0  0  0999 V2000
  139.8100   71.7380  220.8800 O   0  0  0  0  0  0  0  0  0  0  0  0
  139.4490   72.0770  222.0200 C   0  0  0  0  0  0  0  0  0  0  0  0
  138.7840   73.3580  222.1180 N   0  0  0  0  0  0  0  0  0  0  0  0
  138.5780   74.1600  220.9680 C   0  0  0  0  0  0  0  0  0  0  0  0
  139.7110   74.6790  220.2090 C   0  0  0  0  0  0  0  0  0  0  0  0
  139.3680   75.0380  218.9970 O   0  0  0  0  0  0  0  0  0  0  0  0
  141.0410   74.8600  220.5310 N   0  0  0  0  0  0  0  0  0  0  0  0
  142.1200   73.8960  220.8630 C   0  0  0  0  0  0  0  0  0  0  0  0
  143.1500   74.2530  219.8370 C   0  0  0  0  0  0  0  0  0  0  0  0
  142.9880   75.7750  219.7090 C   0  0  2  0  0  0  0  0  0  0  0  0
  144.1890   76.3880  220.1020 O   0  0  0  0  0  0  0  0  0  0  0  0
  141.8530   76.1090  220.6290 C   0  0  1  0  0  0  0  0  0  0  0  0
  141.0520   77.2870  220.3490 C   0  0  0  0  0  0  0  0  0  0  0  0
  140.8650   78.2830  221.3490 N   0  0  0  0  0  0  0  0  0  0  0  0
  141.5790   79.4850  221.3040 C   0  0  0  0  0  0  0  0  0  0  0  0
  142.1360   79.7660  222.6860 C   0  0  0  0  0  0  0  0  0  0  0  0
  141.8070   78.5480  223.5050 C   0  0  0  0  0  0  0  0  0  0  0  0
  140.7790   77.8040  222.6900 C   0  0  0  0  0  0  0  0  0  0  0  0
  139.6480   71.2890  223.2250 C   0  0  0  0  0  0  0  0  0  0  0  0
  139.3130   69.9530  223.2280 C   0  0  0  0  0  0  0  0  0  0  0  0
  139.5180   69.2330  224.3980 C   0  0  0  0  0  0  0  0  0  0  0  0
  140.0400   69.8620  225.5030 C   0  0  0  0  0  0  0  0  0  0  0  0
  140.2350   69.1220  226.6540 C   0  0  0  0  0  0  0  0  0  0  0  0
  140.7580   69.7060  227.7910 C   0  0  0  0  0  0  0  0  0  0  0  0
  140.9490   68.9820  228.9200 F   0  0  0  0  0  0  0  0  0  0  0  0
  141.0780   71.0430  227.7400 C   0  0  0  0  0  0  0  0  0  0  0  0
  140.8880   71.7900  226.5940 C   0  0  0  0  0  0  0  0  0  0  0  0
  140.3650   71.1850  225.4780 C   0  0  0  0  0  0  0  0  0  0  0  0
  140.1590   71.8620  224.3340 N   0  0  0  0  0  0  0  0  0  0  0  0
  138.4640   73.6590  223.0810 H   0  0  0  0  0  0  0  0  0  0  0  0
  137.9803   73.5578  220.2680 H   0  0  0  0  0  0  0  0  0  0  0  0
  138.1228   75.0714  221.3830 H   0  0  0  0  0  0  0  0  0  0  0  0
  142.4979   74.0492  221.8846 H   0  0  0  0  0  0  0  0  0  0  0  0
  141.8072   72.8416  220.8427 H   0  0  0  0  0  0  0  0  0  0  0  0
  144.1608   73.9896  220.1817 H   0  0  0  0  0  0  0  0  0  0  0  0
  143.0194   73.7191  218.8842 H   0  0  0  0  0  0  0  0  0  0  0  0
  142.7754   76.1219  218.6870 H   0  0  0  0  0  0  0  0  0  0  0  0
  143.9860   77.2320  220.5380 H   0  0  0  0  0  0  0  0  0  0  0  0
  142.2374   76.3909  221.6203 H   0  0  0  0  0  0  0  0  0  0  0  0
  141.5170   77.7879  219.4871 H   0  0  0  0  0  0  0  0  0  0  0  0
  140.0409   76.8751  220.2150 H   0  0  0  0  0  0  0  0  0  0  0  0
  142.4042   79.3995  220.5817 H   0  0  0  0  0  0  0  0  0  0  0  0
  140.9164   80.3053  220.9908 H   0  0  0  0  0  0  0  0  0  0  0  0
  143.2248   79.9155  222.6390 H   0  0  0  0  0  0  0  0  0  0  0  0
  141.7065   80.6801  223.1219 H   0  0  0  0  0  0  0  0  0  0  0  0
  142.7036   77.9290  223.6568 H   0  0  0  0  0  0  0  0  0  0  0  0
  141.4345   78.8085  224.5067 H   0  0  0  0  0  0  0  0  0  0  0  0
  140.9881   76.7244  222.7171 H   0  0  0  0  0  0  0  0  0  0  0  0
  139.7700   77.9690  223.0959 H   0  0  0  0  0  0  0  0  0  0  0  0
  138.8960   69.4711  222.3314 H   0  0  0  0  0  0  0  0  0  0  0  0
  139.2636   68.1636  224.4400 H   0  0  0  0  0  0  0  0  0  0  0  0
  139.9703   68.0544  226.6646 H   0  0  0  0  0  0  0  0  0  0  0  0
  141.4955   71.5291  228.6341 H   0  0  0  0  0  0  0  0  0  0  0  0
  141.1527   72.8575  226.5756 H   0  0  0  0  0  0  0  0  0  0  0  0
  1  2  2  0
  2  3  1  0
  3  4  1  0
  4  5  1  0
  5  6  2  0
  5  7  1  0
  7  8  1  0
  8  9  1  0
  9 10  1  0
 10 11  1  0
 10 12  1  0
 12 13  1  0
 13 14  1  0
 14 15  1  0
 15 16  1  0
 16 17  1  0
 17 18  1  0
  2 19  1  0
 19 20  2  0
 20 21  1  0
 21 22  2  0
 22 23  1  0
 23 24  2  0
 24 25  1  0
 24 26  1  0
 26 27  2  0
 27 28  1  0
 28 29  2  0
 12  7  1  0
 18 14  1  0
 29 19  1  0
 28 22  1  0
  3 30  1  0
  4 31  1  0
  4 32  1  0
  8 33  1  0
  8 34  1  0
  9 35  1  0
  9 36  1  0
 10 37  1  6
 11 38  1  0
 12 39  1  1
 13 40  1  0
 13 41  1  0
 15 42  1  0
 15 43  1  0
 16 44  1  0
 16 45  1  0
 17 46  1  0
 17 47  1  0
 18 48  1  0
 18 49  1  0
 20 50  1  0
 21 51  1  0
 23 52  1  0
 26 53  1  0
 27 54  1  0
M  END
>  <smiles>  (30) 
O=C(NCC(=O)N1CC[C@H](O)[C@H]1CN1CCCC1)c1ccc2cc(F)ccc2n1

>  <score_type>  (30) 
oracle

>  <origin>  (30) 
autodockgpu

>  <m_score__min__energy>  (30) 
-8.5600000000000005

>  <m_primary>  (30) 
energy

>  <rmsd>  (30) 
2.7630030069300835

>  <m_score__min__rmsd>  (30) 
2.7630030069300835

>  <meeko>  (30) 
{"free_energy": -7.58, "intermolecular_energy": -9.67, "internal_energy": -1.66, "cluster_size": 28, "cluster_id": 1, "rank_in_cluster": 24}

>  <energy>  (30) 
-7.92

>  <cluster_rmsd>  (30) 
0.24

>  <cluster>  (30) 
2

$$$$

     RDKit          3D

 54 57  0  0  0  0  0  0  0  0999 V2000
  141.3800   72.5100  221.8900 O   0  0  0  0  0  0  0  0  0  0  0  0
  140.3850   72.4190  222.6270 C   0  0  0  0  0  0  0  0  0  0  0  0
  139.3100   73.3470  222.3570 N   0  0  0  0  0  0  0  0  0  0  0  0
  139.4170   74.2990  221.3120 C   0  0  0  0  0  0  0  0  0  0  0  0
  140.2180   75.5070  221.4840 C   0  0  0  0  0  0  0  0  0  0  0  0
  139.7340   76.2900  222.4160 O   0  0  0  0  0  0  0  0  0  0  0  0
  141.3660   75.9580  220.8620 N   0  0  0  0  0  0  0  0  0  0  0  0
  142.5850   75.2480  220.3980 C   0  0  0  0  0  0  0  0  0  0  0  0
  142.6100   75.6380  218.9520 C   0  0  0  0  0  0  0  0  0  0  0  0
  142.0760   77.0770  218.9800 C   0  0  2  0  0  0  0  0  0  0  0  0
  143.0780   77.9360  218.5000 O   0  0  0  0  0  0  0  0  0  0  0  0
  141.7530   77.3300  220.4220 C   0  0  1  0  0  0  0  0  0  0  0  0
  140.7250   78.3030  220.7460 C   0  0  0  0  0  0  0  0  0  0  0  0
  140.9890   79.3380  221.6880 N   0  0  0  0  0  0  0  0  0  0  0  0
  142.1800   80.0680  221.6330 C   0  0  0  0  0  0  0  0  0  0  0  0
  142.7570   80.1540  223.0330 C   0  0  0  0  0  0  0  0  0  0  0  0
  141.8710   79.2840  223.8840 C   0  0  0  0  0  0  0  0  0  0  0  0
  140.6440   79.0450  223.0400 C   0  0  0  0  0  0  0  0  0  0  0  0
  140.2380   71.4620  223.7120 C   0  0  0  0  0  0  0  0  0  0  0  0
  139.6300   70.2500  223.4740 C   0  0  0  0  0  0  0  0  0  0  0  0
  139.5080   69.3630  224.5360 C   0  0  0  0  0  0  0  0  0  0  0  0
  139.9890   69.7120  225.7750 C   0  0  0  0  0  0  0  0  0  0  0  0
  139.8560   68.8110  226.8140 C   0  0  0  0  0  0  0  0  0  0  0  0
  140.3230   69.1140  228.0790 C   0  0  0  0  0  0  0  0  0  0  0  0
  140.1930   68.2310  229.0980 F   0  0  0  0  0  0  0  0  0  0  0  0
  140.9230   70.3370  228.2680 C   0  0  0  0  0  0  0  0  0  0  0  0
  141.0610   71.2440  227.2350 C   0  0  0  0  0  0  0  0  0  0  0  0
  140.5880   70.9180  225.9890 C   0  0  0  0  0  0  0  0  0  0  0  0
  140.6950   71.7610  224.9460 N   0  0  0  0  0  0  0  0  0  0  0  0
  138.4500   73.2780  222.9710 H   0  0  0  0  0  0  0  0  0  0  0  0
  139.8331   73.7671  220.4437 H   0  0  0  0  0  0  0  0  0  0  0  0
  138.3930   74.6928  221.2331 H   0  0  0  0  0  0  0  0  0  0  0  0
  143.4832   75.5996  220.9268 H   0  0  0  0  0  0  0  0  0  0  0  0
  142.5723   74.1624  220.5747 H   0  0  0  0  0  0  0  0  0  0  0  0
  143.6331   75.6026  218.5494 H   0  0  0  0  0  0  0  0  0  0  0  0
  142.0214   74.9669  218.3092 H   0  0  0  0  0  0  0  0  0  0  0  0
  141.1898   77.2415  218.3495 H   0  0  0  0  0  0  0  0  0  0  0  0
  143.6970   78.1360  219.2230 H   0  0  0  0  0  0  0  0  0  0  0  0
  142.6073   77.8053  220.9262 H   0  0  0  0  0  0  0  0  0  0  0  0
  140.4479   78.7966  219.8028 H   0  0  0  0  0  0  0  0  0  0  0  0
  139.9563   77.6973  221.2483 H   0  0  0  0  0  0  0  0  0  0  0  0
  142.8949   79.5620  220.9675 H   0  0  0  0  0  0  0  0  0  0  0  0
  141.9853   81.0779  221.2430 H   0  0  0  0  0  0  0  0  0  0  0  0
  143.7914   79.7801  223.0467 H   0  0  0  0  0  0  0  0  0  0  0  0
  142.7875   81.1904  223.4002 H   0  0  0  0  0  0  0  0  0  0  0  0
  142.3714   78.3330  224.1189 H   0  0  0  0  0  0  0  0  0  0  0  0
  141.6277   79.7547  224.8480 H   0  0  0  0  0  0  0  0  0  0  0  0
  140.3268   77.9954  223.1275 H   0  0  0  0  0  0  0  0  0  0  0  0
  139.8135   79.6840  223.3747 H   0  0  0  0  0  0  0  0  0  0  0  0
  139.2524   69.9919  222.4736 H   0  0  0  0  0  0  0  0  0  0  0  0
  139.0280   68.3847  224.3857 H   0  0  0  0  0  0  0  0  0  0  0  0
  139.3722   67.8400  226.6320 H   0  0  0  0  0  0  0  0  0  0  0  0
  141.3025   70.5996  229.2665 H   0  0  0  0  0  0  0  0  0  0  0  0
  141.5446   72.2165  227.4095 H   0  0  0  0  0  0  0  0  0  0  0  0
  1  2  2  0
  2  3  1  0
  3  4  1  0
  4  5  1  0
  5  6  2  0
  5  7  1  0
  7  8  1  0
  8  9  1  0
  9 10  1  0
 10 11  1  0
 10 12  1  0
 12 13  1  0
 13 14  1  0
 14 15  1  0
 15 16  1  0
 16 17  1  0
 17 18  1  0
  2 19  1  0
 19 20  2  0
 20 21  1  0
 21 22  2  0
 22 23  1  0
 23 24  2  0
 24 25  1  0
 24 26  1  0
 26 27  2  0
 27 28  1  0
 28 29  2  0
 12  7  1  0
 18 14  1  0
 29 19  1  0
 28 22  1  0
  3 30  1  0
  4 31  1  0
  4 32  1  0
  8 33  1  0
  8 34  1  0
  9 35  1  0
  9 36  1  0
 10 37  1  6
 11 38  1  0
 12 39  1  1
 13 40  1  0
 13 41  1  0
 15 42  1  0
 15 43  1  0
 16 44  1  0
 16 45  1  0
 17 46  1  0
 17 47  1  0
 18 48  1  0
 18 49  1  0
 20 50  1  0
 21 51  1  0
 23 52  1  0
 26 53  1  0
 27 54  1  0
M  END
>  <smiles>  (31) 
O=C(NCC(=O)N1CC[C@H](O)[C@H]1CN1CCCC1)c1ccc2cc(F)ccc2n1

>  <score_type>  (31) 
oracle

>  <origin>  (31) 
autodockgpu

>  <m_score__min__energy>  (31) 
-8.5600000000000005

>  <m_primary>  (31) 
energy

>  <rmsd>  (31) 
2.5910084814060754

>  <m_score__min__rmsd>  (31) 
2.5910084814060754

>  <meeko>  (31) 
{"free_energy": -8.56, "intermolecular_energy": -10.65, "internal_energy": -1.36, "cluster_size": 28, "cluster_id": 1, "rank_in_cluster": 1}

>  <energy>  (31) 
-7.87

>  <cluster_rmsd>  (31) 
1.83

>  <cluster>  (31) 
2

$$$$

     RDKit          3D

 54 57  0  0  0  0  0  0  0  0999 V2000
  141.1300   72.0160  221.3360 O   0  0  0  0  0  0  0  0  0  0  0  0
  140.4380   72.3120  222.3240 C   0  0  0  0  0  0  0  0  0  0  0  0
  139.8030   73.6110  222.2850 N   0  0  0  0  0  0  0  0  0  0  0  0
  139.9860   74.4760  221.1770 C   0  0  0  0  0  0  0  0  0  0  0  0
  140.0490   75.9220  221.3620 C   0  0  0  0  0  0  0  0  0  0  0  0
  139.1060   76.3590  222.1600 O   0  0  0  0  0  0  0  0  0  0  0  0
  140.9050   76.8860  220.8660 N   0  0  0  0  0  0  0  0  0  0  0  0
  141.3460   77.2020  219.4840 C   0  0  0  0  0  0  0  0  0  0  0  0
  140.9520   78.6430  219.3790 C   0  0  0  0  0  0  0  0  0  0  0  0
  141.2070   79.1680  220.8000 C   0  0  2  0  0  0  0  0  0  0  0  0
  142.1950   80.1640  220.7390 O   0  0  0  0  0  0  0  0  0  0  0  0
  141.6620   77.9640  221.5680 C   0  0  1  0  0  0  0  0  0  0  0  0
  141.4350   77.9250  223.0020 C   0  0  0  0  0  0  0  0  0  0  0  0
  141.1330   79.1220  223.7130 N   0  0  0  0  0  0  0  0  0  0  0  0
  139.9170   79.7830  223.5160 C   0  0  0  0  0  0  0  0  0  0  0  0
  140.1970   81.2620  223.3380 C   0  0  0  0  0  0  0  0  0  0  0  0
  141.6950   81.3840  223.3020 C   0  0  0  0  0  0  0  0  0  0  0  0
  142.2000   80.0620  223.8220 C   0  0  0  0  0  0  0  0  0  0  0  0
  140.2320   71.4590  223.4830 C   0  0  0  0  0  0  0  0  0  0  0  0
  139.5780   70.2560  223.3350 C   0  0  0  0  0  0  0  0  0  0  0  0
  139.4000   69.4680  224.4650 C   0  0  0  0  0  0  0  0  0  0  0  0
  139.8730   69.9020  225.6800 C   0  0  0  0  0  0  0  0  0  0  0  0
  139.6840   69.0980  226.7880 C   0  0  0  0  0  0  0  0  0  0  0  0
  140.1400   69.4880  228.0320 C   0  0  0  0  0  0  0  0  0  0  0  0
  139.9560   68.7010  229.1190 F   0  0  0  0  0  0  0  0  0  0  0  0
  140.7880   70.6980  228.1300 C   0  0  0  0  0  0  0  0  0  0  0  0
  140.9820   71.5080  227.0280 C   0  0  0  0  0  0  0  0  0  0  0  0
  140.5180   71.0960  225.8040 C   0  0  0  0  0  0  0  0  0  0  0  0
  140.6790   71.8420  224.6960 N   0  0  0  0  0  0  0  0  0  0  0  0
  139.2040   73.8780  223.1160 H   0  0  0  0  0  0  0  0  0  0  0  0
  140.9315   74.1790  220.6997 H   0  0  0  0  0  0  0  0  0  0  0  0
  139.0552   74.3427  220.6061 H   0  0  0  0  0  0  0  0  0  0  0  0
  142.4318   77.0708  219.3668 H   0  0  0  0  0  0  0  0  0  0  0  0
  140.9076   76.5552  218.7098 H   0  0  0  0  0  0  0  0  0  0  0  0
  141.5754   79.1719  218.6430 H   0  0  0  0  0  0  0  0  0  0  0  0
  139.9158   78.7883  219.0397 H   0  0  0  0  0  0  0  0  0  0  0  0
  140.3270   79.6239  221.2771 H   0  0  0  0  0  0  0  0  0  0  0  0
  142.9740   79.8700  221.2410 H   0  0  0  0  0  0  0  0  0  0  0  0
  142.7603   77.9024  221.5627 H   0  0  0  0  0  0  0  0  0  0  0  0
  140.5943   77.2360  223.1707 H   0  0  0  0  0  0  0  0  0  0  0  0
  142.4177   77.6365  223.4033 H   0  0  0  0  0  0  0  0  0  0  0  0
  139.4215   79.3883  222.6167 H   0  0  0  0  0  0  0  0  0  0  0  0
  139.2578   79.6258  224.3825 H   0  0  0  0  0  0  0  0  0  0  0  0
  139.7586   81.6260  222.3971 H   0  0  0  0  0  0  0  0  0  0  0  0
  139.7574   81.8617  224.1486 H   0  0  0  0  0  0  0  0  0  0  0  0
  142.0455   81.5556  222.2736 H   0  0  0  0  0  0  0  0  0  0  0  0
  142.0577   82.2324  223.9009 H   0  0  0  0  0  0  0  0  0  0  0  0
  143.0590   79.7261  223.2225 H   0  0  0  0  0  0  0  0  0  0  0  0
  142.5271   80.1568  224.8680 H   0  0  0  0  0  0  0  0  0  0  0  0
  139.2079   69.9292  222.3520 H   0  0  0  0  0  0  0  0  0  0  0  0
  138.8825   68.5004  224.3876 H   0  0  0  0  0  0  0  0  0  0  0  0
  139.1637   68.1351  226.6778 H   0  0  0  0  0  0  0  0  0  0  0  0
  141.1609   71.0286  229.1106 H   0  0  0  0  0  0  0  0  0  0  0  0
  141.5022   72.4718  227.1304 H   0  0  0  0  0  0  0  0  0  0  0  0
  1  2  2  0
  2  3  1  0
  3  4  1  0
  4  5  1  0
  5  6  2  0
  5  7  1  0
  7  8  1  0
  8  9  1  0
  9 10  1  0
 10 11  1  0
 10 12  1  0
 12 13  1  0
 13 14  1  0
 14 15  1  0
 15 16  1  0
 16 17  1  0
 17 18  1  0
  2 19  1  0
 19 20  2  0
 20 21  1  0
 21 22  2  0
 22 23  1  0
 23 24  2  0
 24 25  1  0
 24 26  1  0
 26 27  2  0
 27 28  1  0
 28 29  2  0
 12  7  1  0
 18 14  1  0
 29 19  1  0
 28 22  1  0
  3 30  1  0
  4 31  1  0
  4 32  1  0
  8 33  1  0
  8 34  1  0
  9 35  1  0
  9 36  1  0
 10 37  1  1
 11 38  1  0
 12 39  1  1
 13 40  1  0
 13 41  1  0
 15 42  1  0
 15 43  1  0
 16 44  1  0
 16 45  1  0
 17 46  1  0
 17 47  1  0
 18 48  1  0
 18 49  1  0
 20 50  1  0
 21 51  1  0
 23 52  1  0
 26 53  1  0
 27 54  1  0
M  END
>  <smiles>  (32) 
O=C(NCC(=O)N1CC[C@H](O)[C@H]1CN1CCCC1)c1ccc2cc(F)ccc2n1

>  <score_type>  (32) 
oracle

>  <origin>  (32) 
autodockgpu

>  <m_score__min__energy>  (32) 
-8.5600000000000005

>  <m_primary>  (32) 
energy

>  <rmsd>  (32) 
2.7786473977804826

>  <m_score__min__rmsd>  (32) 
2.7786473977804826

>  <meeko>  (32) 
{"free_energy": -8.19, "intermolecular_energy": -10.28, "internal_energy": -1.34, "cluster_size": 28, "cluster_id": 1, "rank_in_cluster": 13}

>  <energy>  (32) 
-7.82

>  <cluster_rmsd>  (32) 
1.93

>  <cluster>  (32) 
2

$$$$

     RDKit          3D

 54 57  0  0  0  0  0  0  0  0999 V2000
  139.9640   71.1850  221.1810 O   0  0  0  0  0  0  0  0  0  0  0  0
  139.7810   71.5980  222.3380 C   0  0  0  0  0  0  0  0  0  0  0  0
  139.5120   73.0130  222.4700 N   0  0  0  0  0  0  0  0  0  0  0  0
  139.4750   73.8550  221.3310 C   0  0  0  0  0  0  0  0  0  0  0  0
  140.4220   74.9560  221.1860 C   0  0  0  0  0  0  0  0  0  0  0  0
  140.7840   75.4500  222.3430 O   0  0  0  0  0  0  0  0  0  0  0  0
  140.9930   75.5500  220.0780 N   0  0  0  0  0  0  0  0  0  0  0  0
  140.5740   76.7080  219.2480 C   0  0  0  0  0  0  0  0  0  0  0  0
  141.7840   77.5840  219.3460 C   0  0  0  0  0  0  0  0  0  0  0  0
  142.9360   76.5690  219.3780 C   0  0  2  0  0  0  0  0  0  0  0  0
  143.7470   76.7760  218.2500 O   0  0  0  0  0  0  0  0  0  0  0  0
  142.2580   75.2320  219.3520 C   0  0  1  0  0  0  0  0  0  0  0  0
  142.9380   74.0940  219.9430 C   0  0  0  0  0  0  0  0  0  0  0  0
  144.3380   73.9170  219.7530 N   0  0  0  0  0  0  0  0  0  0  0  0
  144.8450   72.7200  219.2380 C   0  0  0  0  0  0  0  0  0  0  0  0
  146.0200   72.2870  220.0940 C   0  0  0  0  0  0  0  0  0  0  0  0
  146.0610   73.2620  221.2380 C   0  0  0  0  0  0  0  0  0  0  0  0
  145.1710   74.4000  220.8060 C   0  0  0  0  0  0  0  0  0  0  0  0
  139.8180   70.7710  223.5330 C   0  0  0  0  0  0  0  0  0  0  0  0
  139.3010   69.4950  223.4950 C   0  0  0  0  0  0  0  0  0  0  0  0
  139.3550   68.7350  224.6560 C   0  0  0  0  0  0  0  0  0  0  0  0
  139.9150   69.2670  225.7930 C   0  0  0  0  0  0  0  0  0  0  0  0
  139.9570   68.4890  226.9350 C   0  0  0  0  0  0  0  0  0  0  0  0
  140.5090   68.9760  228.1040 C   0  0  0  0  0  0  0  0  0  0  0  0
  140.5510   68.2140  229.2230 F   0  0  0  0  0  0  0  0  0  0  0  0
  141.0150   70.2560  228.0930 C   0  0  0  0  0  0  0  0  0  0  0  0
  140.9770   71.0400  226.9570 C   0  0  0  0  0  0  0  0  0  0  0  0
  140.4220   70.5310  225.8090 C   0  0  0  0  0  0  0  0  0  0  0  0
  140.3590   71.2490  224.6730 N   0  0  0  0  0  0  0  0  0  0  0  0
  139.3480   73.3810  223.4490 H   0  0  0  0  0  0  0  0  0  0  0  0
  139.6135   73.2043  220.4549 H   0  0  0  0  0  0  0  0  0  0  0  0
  138.5115   74.3740  221.4416 H   0  0  0  0  0  0  0  0  0  0  0  0
  140.3754   76.4087  218.2083 H   0  0  0  0  0  0  0  0  0  0  0  0
  139.6401   77.1870  219.5773 H   0  0  0  0  0  0  0  0  0  0  0  0
  141.8646   78.2477  218.4725 H   0  0  0  0  0  0  0  0  0  0  0  0
  141.7682   78.2530  220.2190 H   0  0  0  0  0  0  0  0  0  0  0  0
  143.5899   76.6563  220.2582 H   0  0  0  0  0  0  0  0  0  0  0  0
  144.4430   76.0970  218.2310 H   0  0  0  0  0  0  0  0  0  0  0  0
  142.1747   74.8677  218.3174 H   0  0  0  0  0  0  0  0  0  0  0  0
  142.7713   74.1547  221.0286 H   0  0  0  0  0  0  0  0  0  0  0  0
  142.5027   73.2371  219.4080 H   0  0  0  0  0  0  0  0  0  0  0  0
  144.0639   71.9458  219.2611 H   0  0  0  0  0  0  0  0  0  0  0  0
  145.1703   72.8653  218.1973 H   0  0  0  0  0  0  0  0  0  0  0  0
  145.8684   71.2630  220.4662 H   0  0  0  0  0  0  0  0  0  0  0  0
  146.9615   72.2838  219.5251 H   0  0  0  0  0  0  0  0  0  0  0  0
  145.6764   72.7968  222.1576 H   0  0  0  0  0  0  0  0  0  0  0  0
  147.0846   73.5971  221.4616 H   0  0  0  0  0  0  0  0  0  0  0  0
  144.5518   74.7343  221.6514 H   0  0  0  0  0  0  0  0  0  0  0  0
  145.7733   75.2541  220.4628 H   0  0  0  0  0  0  0  0  0  0  0  0
  138.8587   69.0901  222.5728 H   0  0  0  0  0  0  0  0  0  0  0  0
  138.9514   67.7118  224.6657 H   0  0  0  0  0  0  0  0  0  0  0  0
  139.5456   67.4691  226.9125 H   0  0  0  0  0  0  0  0  0  0  0  0
  141.4607   70.6645  229.0120 H   0  0  0  0  0  0  0  0  0  0  0  0
  141.3867   72.0607  226.9716 H   0  0  0  0  0  0  0  0  0  0  0  0
  1  2  2  0
  2  3  1  0
  3  4  1  0
  4  5  1  0
  5  6  2  0
  5  7  1  0
  7  8  1  0
  8  9  1  0
  9 10  1  0
 10 11  1  0
 10 12  1  0
 12 13  1  0
 13 14  1  0
 14 15  1  0
 15 16  1  0
 16 17  1  0
 17 18  1  0
  2 19  1  0
 19 20  2  0
 20 21  1  0
 21 22  2  0
 22 23  1  0
 23 24  2  0
 24 25  1  0
 24 26  1  0
 26 27  2  0
 27 28  1  0
 28 29  2  0
 12  7  1  0
 18 14  1  0
 29 19  1  0
 28 22  1  0
  3 30  1  0
  4 31  1  0
  4 32  1  0
  8 33  1  0
  8 34  1  0
  9 35  1  0
  9 36  1  0
 10 37  1  1
 11 38  1  0
 12 39  1  6
 13 40  1  0
 13 41  1  0
 15 42  1  0
 15 43  1  0
 16 44  1  0
 16 45  1  0
 17 46  1  0
 17 47  1  0
 18 48  1  0
 18 49  1  0
 20 50  1  0
 21 51  1  0
 23 52  1  0
 26 53  1  0
 27 54  1  0
M  END
>  <smiles>  (33) 
O=C(NCC(=O)N1CC[C@H](O)[C@H]1CN1CCCC1)c1ccc2cc(F)ccc2n1

>  <score_type>  (33) 
oracle

>  <origin>  (33) 
autodockgpu

>  <m_score__min__energy>  (33) 
-8.5600000000000005

>  <m_primary>  (33) 
energy

>  <rmsd>  (33) 
4.093343920353288

>  <m_score__min__rmsd>  (33) 
4.093343920353288

>  <meeko>  (33) 
{"free_energy": -7.73, "intermolecular_energy": -9.81, "internal_energy": -1.7, "cluster_size": 4, "cluster_id": 4, "rank_in_cluster": 1}

>  <energy>  (33) 
-7.21

>  <cluster_rmsd>  (33) 
1.9

>  <cluster>  (33) 
2

$$$$

     RDKit          3D

 54 57  0  0  0  0  0  0  0  0999 V2000
  141.2150   72.6200  221.9120 O   0  0  0  0  0  0  0  0  0  0  0  0
  140.2250   72.4570  222.6450 C   0  0  0  0  0  0  0  0  0  0  0  0
  139.0730   73.2780  222.3440 N   0  0  0  0  0  0  0  0  0  0  0  0
  139.1030   74.2090  221.2760 C   0  0  0  0  0  0  0  0  0  0  0  0
  139.4530   75.6060  221.5140 C   0  0  0  0  0  0  0  0  0  0  0  0
  138.5190   76.2410  222.1770 O   0  0  0  0  0  0  0  0  0  0  0  0
  140.5630   76.3560  221.1800 N   0  0  0  0  0  0  0  0  0  0  0  0
  141.6510   76.1300  220.1950 C   0  0  0  0  0  0  0  0  0  0  0  0
  141.5550   77.3780  219.3720 C   0  0  0  0  0  0  0  0  0  0  0  0
  141.1670   78.4400  220.4100 C   0  0  2  0  0  0  0  0  0  0  0  0
  142.1880   79.4030  220.4700 O   0  0  0  0  0  0  0  0  0  0  0  0
  141.0300   77.6770  221.6940 C   0  0  1  0  0  0  0  0  0  0  0  0
  140.1410   78.1930  222.7190 C   0  0  0  0  0  0  0  0  0  0  0  0
  140.5590   79.2660  223.5580 N   0  0  0  0  0  0  0  0  0  0  0  0
  140.3360   80.5950  223.1830 C   0  0  0  0  0  0  0  0  0  0  0  0
  141.6160   81.3770  223.4030 C   0  0  0  0  0  0  0  0  0  0  0  0
  142.6460   80.3560  223.8010 C   0  0  0  0  0  0  0  0  0  0  0  0
  141.8490   79.1230  224.1470 C   0  0  0  0  0  0  0  0  0  0  0  0
  140.1560   71.5200  223.7540 C   0  0  0  0  0  0  0  0  0  0  0  0
  139.6100   70.2710  223.5570 C   0  0  0  0  0  0  0  0  0  0  0  0
  139.5610   69.4030  224.6410 C   0  0  0  0  0  0  0  0  0  0  0  0
  140.0510   69.8060  225.8600 C   0  0  0  0  0  0  0  0  0  0  0  0
  139.9910   68.9230  226.9210 C   0  0  0  0  0  0  0  0  0  0  0  0
  140.4700   69.2790  228.1670 C   0  0  0  0  0  0  0  0  0  0  0  0
  140.4120   68.4140  229.2070 F   0  0  0  0  0  0  0  0  0  0  0  0
  141.0080   70.5370  228.3150 C   0  0  0  0  0  0  0  0  0  0  0  0
  141.0720   71.4260  227.2600 C   0  0  0  0  0  0  0  0  0  0  0  0
  140.5880   71.0470  226.0330 C   0  0  0  0  0  0  0  0  0  0  0  0
  140.6250   71.8700  224.9700 N   0  0  0  0  0  0  0  0  0  0  0  0
  138.2180   73.1470  222.9550 H   0  0  0  0  0  0  0  0  0  0  0  0
  139.8281   73.8239  220.5439 H   0  0  0  0  0  0  0  0  0  0  0  0
  138.0470   74.2692  220.9738 H   0  0  0  0  0  0  0  0  0  0  0  0
  142.6308   76.0454  220.6877 H   0  0  0  0  0  0  0  0  0  0  0  0
  141.5546   75.1981  219.6186 H   0  0  0  0  0  0  0  0  0  0  0  0
  142.5199   77.6176  218.9014 H   0  0  0  0  0  0  0  0  0  0  0  0
  140.8382   77.2982  218.5414 H   0  0  0  0  0  0  0  0  0  0  0  0
  140.2370   78.9793  220.1770 H   0  0  0  0  0  0  0  0  0  0  0  0
  142.8880   79.0860  221.0650 H   0  0  0  0  0  0  0  0  0  0  0  0
  141.9760   77.7008  222.2548 H   0  0  0  0  0  0  0  0  0  0  0  0
  139.2283   78.5299  222.2058 H   0  0  0  0  0  0  0  0  0  0  0  0
  140.0499   77.3492  223.4188 H   0  0  0  0  0  0  0  0  0  0  0  0
  140.0522   80.6385  222.1211 H   0  0  0  0  0  0  0  0  0  0  0  0
  139.5225   81.0256  223.7853 H   0  0  0  0  0  0  0  0  0  0  0  0
  141.9186   81.8878  222.4770 H   0  0  0  0  0  0  0  0  0  0  0  0
  141.4929   82.1542  224.1716 H   0  0  0  0  0  0  0  0  0  0  0  0
  143.3330   80.1523  222.9664 H   0  0  0  0  0  0  0  0  0  0  0  0
  143.2686   80.6984  224.6407 H   0  0  0  0  0  0  0  0  0  0  0  0
  142.3479   78.2287  223.7455 H   0  0  0  0  0  0  0  0  0  0  0  0
  141.7658   79.0096  225.2380 H   0  0  0  0  0  0  0  0  0  0  0  0
  139.2245   69.9698  222.5718 H   0  0  0  0  0  0  0  0  0  0  0  0
  139.1316   68.3971  224.5238 H   0  0  0  0  0  0  0  0  0  0  0  0
  139.5562   67.9237  226.7717 H   0  0  0  0  0  0  0  0  0  0  0  0
  141.3966   70.8420  229.2978 H   0  0  0  0  0  0  0  0  0  0  0  0
  141.5061   72.4267  227.4016 H   0  0  0  0  0  0  0  0  0  0  0  0
  1  2  2  0
  2  3  1  0
  3  4  1  0
  4  5  1  0
  5  6  2  0
  5  7  1  0
  7  8  1  0
  8  9  1  0
  9 10  1  0
 10 11  1  0
 10 12  1  0
 12 13  1  0
 13 14  1  0
 14 15  1  0
 15 16  1  0
 16 17  1  0
 17 18  1  0
  2 19  1  0
 19 20  2  0
 20 21  1  0
 21 22  2  0
 22 23  1  0
 23 24  2  0
 24 25  1  0
 24 26  1  0
 26 27  2  0
 27 28  1  0
 28 29  2  0
 12  7  1  0
 18 14  1  0
 29 19  1  0
 28 22  1  0
  3 30  1  0
  4 31  1  0
  4 32  1  0
  8 33  1  0
  8 34  1  0
  9 35  1  0
  9 36  1  0
 10 37  1  6
 11 38  1  0
 12 39  1  1
 13 40  1  0
 13 41  1  0
 15 42  1  0
 15 43  1  0
 16 44  1  0
 16 45  1  0
 17 46  1  0
 17 47  1  0
 18 48  1  0
 18 49  1  0
 20 50  1  0
 21 51  1  0
 23 52  1  0
 26 53  1  0
 27 54  1  0
M  END
>  <smiles>  (34) 
O=C(NCC(=O)N1CC[C@H](O)[C@H]1CN1CCCC1)c1ccc2cc(F)ccc2n1

>  <score_type>  (34) 
oracle

>  <origin>  (34) 
autodockgpu

>  <m_score__min__energy>  (34) 
-8.5600000000000005

>  <m_primary>  (34) 
energy

>  <rmsd>  (34) 
2.7592663506181796

>  <m_score__min__rmsd>  (34) 
2.7592663506181796

>  <meeko>  (34) 
{"free_energy": -8.54, "intermolecular_energy": -10.63, "internal_energy": -1.12, "cluster_size": 28, "cluster_id": 1, "rank_in_cluster": 3}

>  <energy>  (34) 
-7.89

>  <cluster_rmsd>  (34) 
0.0

>  <cluster>  (34) 
3

$$$$

     RDKit          3D

 54 57  0  0  0  0  0  0  0  0999 V2000
  141.2890   73.3420  220.9210 O   0  0  0  0  0  0  0  0  0  0  0  0
  140.5460   74.1490  221.5040 C   0  0  0  0  0  0  0  0  0  0  0  0
  139.4230   73.5770  222.2130 N   0  0  0  0  0  0  0  0  0  0  0  0
  139.2040   72.1770  222.2180 C   0  0  0  0  0  0  0  0  0  0  0  0
  138.1650   71.5880  223.0570 C   0  0  0  0  0  0  0  0  0  0  0  0
  137.1940   72.4320  223.3040 O   0  0  0  0  0  0  0  0  0  0  0  0
  138.0220   70.3340  223.6160 N   0  0  0  0  0  0  0  0  0  0  0  0
  136.9260   69.3350  223.5400 C   0  0  0  0  0  0  0  0  0  0  0  0
  137.6640   68.1390  223.0220 C   0  0  0  0  0  0  0  0  0  0  0  0
  139.0370   68.2690  223.6970 C   0  0  2  0  0  0  0  0  0  0  0  0
  139.2370   67.1520  224.5250 O   0  0  0  0  0  0  0  0  0  0  0  0
  138.9520   69.5460  224.4780 C   0  0  1  0  0  0  0  0  0  0  0  0
  140.1750   70.2800  224.7500 C   0  0  0  0  0  0  0  0  0  0  0  0
  140.7160   70.3080  226.0670 N   0  0  0  0  0  0  0  0  0  0  0  0
  140.0070   69.7670  227.1440 C   0  0  0  0  0  0  0  0  0  0  0  0
  140.0430   70.7580  228.2910 C   0  0  0  0  0  0  0  0  0  0  0  0
  140.7120   71.9860  227.7370 C   0  0  0  0  0  0  0  0  0  0  0  0
  141.3490   71.5280  226.4490 C   0  0  0  0  0  0  0  0  0  0  0  0
  140.7300   75.5920  221.5160 C   0  0  0  0  0  0  0  0  0  0  0  0
  141.6870   76.1630  220.7080 C   0  0  0  0  0  0  0  0  0  0  0  0
  141.8330   77.5440  220.7470 C   0  0  0  0  0  0  0  0  0  0  0  0
  141.0320   78.2910  221.5780 C   0  0  0  0  0  0  0  0  0  0  0  0
  141.1980   79.6630  221.5970 C   0  0  0  0  0  0  0  0  0  0  0  0
  140.4180   80.4580  222.4140 C   0  0  0  0  0  0  0  0  0  0  0  0
  140.5790   81.8030  222.4340 F   0  0  0  0  0  0  0  0  0  0  0  0
  139.4750   79.8420  223.2040 C   0  0  0  0  0  0  0  0  0  0  0  0
  139.3020   78.4720  223.1910 C   0  0  0  0  0  0  0  0  0  0  0  0
  140.0910   77.7050  222.3700 C   0  0  0  0  0  0  0  0  0  0  0  0
  139.9670   76.3660  222.3150 N   0  0  0  0  0  0  0  0  0  0  0  0
  138.7820   74.2510  222.7200 H   0  0  0  0  0  0  0  0  0  0  0  0
  138.9700   71.8920  221.1817 H   0  0  0  0  0  0  0  0  0  0  0  0
  140.1302   71.7857  222.6641 H   0  0  0  0  0  0  0  0  0  0  0  0
  136.4869   69.1411  224.5297 H   0  0  0  0  0  0  0  0  0  0  0  0
  136.0726   69.6449  222.9190 H   0  0  0  0  0  0  0  0  0  0  0  0
  137.1634   67.2054  223.3183 H   0  0  0  0  0  0  0  0  0  0  0  0
  137.7198   68.1032  221.9240 H   0  0  0  0  0  0  0  0  0  0  0  0
  139.8833   68.2984  222.9949 H   0  0  0  0  0  0  0  0  0  0  0  0
  140.0880   67.2460  224.9840 H   0  0  0  0  0  0  0  0  0  0  0  0
  138.6387   69.3399  225.5121 H   0  0  0  0  0  0  0  0  0  0  0  0
  140.9516   69.8539  224.0978 H   0  0  0  0  0  0  0  0  0  0  0  0
  139.8831   71.3263  224.5768 H   0  0  0  0  0  0  0  0  0  0  0  0
  138.9644   69.5820  226.8463 H   0  0  0  0  0  0  0  0  0  0  0  0
  140.4622   68.8149  227.4544 H   0  0  0  0  0  0  0  0  0  0  0  0
  139.0228   70.9943  228.6276 H   0  0  0  0  0  0  0  0  0  0  0  0
  140.5817   70.3563  229.1619 H   0  0  0  0  0  0  0  0  0  0  0  0
  139.9722   72.7769  227.5439 H   0  0  0  0  0  0  0  0  0  0  0  0
  141.4472   72.4104  228.4366 H   0  0  0  0  0  0  0  0  0  0  0  0
  141.2029   72.2877  225.6670 H   0  0  0  0  0  0  0  0  0  0  0  0
  142.4303   71.3774  226.5840 H   0  0  0  0  0  0  0  0  0  0  0  0
  142.3169   75.5447  220.0515 H   0  0  0  0  0  0  0  0  0  0  0  0
  142.5863   78.0378  220.1156 H   0  0  0  0  0  0  0  0  0  0  0  0
  141.9602   80.1273  220.9540 H   0  0  0  0  0  0  0  0  0  0  0  0
  138.8431   80.4561  223.8624 H   0  0  0  0  0  0  0  0  0  0  0  0
  138.5412   78.0009  223.8307 H   0  0  0  0  0  0  0  0  0  0  0  0
  1  2  2  0
  2  3  1  0
  3  4  1  0
  4  5  1  0
  5  6  2  0
  5  7  1  0
  7  8  1  0
  8  9  1  0
  9 10  1  0
 10 11  1  0
 10 12  1  0
 12 13  1  0
 13 14  1  0
 14 15  1  0
 15 16  1  0
 16 17  1  0
 17 18  1  0
  2 19  1  0
 19 20  2  0
 20 21  1  0
 21 22  2  0
 22 23  1  0
 23 24  2  0
 24 25  1  0
 24 26  1  0
 26 27  2  0
 27 28  1  0
 28 29  2  0
 12  7  1  0
 18 14  1  0
 29 19  1  0
 28 22  1  0
  3 30  1  0
  4 31  1  0
  4 32  1  0
  8 33  1  0
  8 34  1  0
  9 35  1  0
  9 36  1  0
 10 37  1  6
 11 38  1  0
 12 39  1  1
 13 40  1  0
 13 41  1  0
 15 42  1  0
 15 43  1  0
 16 44  1  0
 16 45  1  0
 17 46  1  0
 17 47  1  0
 18 48  1  0
 18 49  1  0
 20 50  1  0
 21 51  1  0
 23 52  1  0
 26 53  1  0
 27 54  1  0
M  END
>  <smiles>  (35) 
O=C(NCC(=O)N1CC[C@H](O)[C@H]1CN1CCCC1)c1ccc2cc(F)ccc2n1

>  <score_type>  (35) 
oracle

>  <origin>  (35) 
autodockgpu

>  <m_score__min__energy>  (35) 
-8.5600000000000005

>  <m_primary>  (35) 
energy

>  <rmsd>  (35) 
9.265111327352788

>  <m_score__min__rmsd>  (35) 
9.265111327352788

>  <meeko>  (35) 
{"free_energy": -7.08, "intermolecular_energy": -9.17, "internal_energy": -1.84, "cluster_size": 5, "cluster_id": 3, "rank_in_cluster": 5}

>  <energy>  (35) 
-7.86

>  <cluster_rmsd>  (35) 
0.39

>  <cluster>  (35) 
3

$$$$

     RDKit          3D

 54 57  0  0  0  0  0  0  0  0999 V2000
  140.0120   71.1520  220.9970 O   0  0  0  0  0  0  0  0  0  0  0  0
  139.8660   71.6300  222.1340 C   0  0  0  0  0  0  0  0  0  0  0  0
  139.7250   73.0670  222.2040 N   0  0  0  0  0  0  0  0  0  0  0  0
  139.7640   73.8580  221.0290 C   0  0  0  0  0  0  0  0  0  0  0  0
  140.5170   75.1080  220.9960 C   0  0  0  0  0  0  0  0  0  0  0  0
  140.9860   75.4320  222.1750 O   0  0  0  0  0  0  0  0  0  0  0  0
  140.8190   75.9850  219.9720 N   0  0  0  0  0  0  0  0  0  0  0  0
  139.9620   76.8470  219.1210 C   0  0  0  0  0  0  0  0  0  0  0  0
  140.5690   78.1930  219.3730 C   0  0  0  0  0  0  0  0  0  0  0  0
  142.0620   77.8690  219.5200 C   0  0  2  0  0  0  0  0  0  0  0  0
  142.7660   78.5260  218.4970 O   0  0  0  0  0  0  0  0  0  0  0  0
  142.1370   76.3770  219.3910 C   0  0  1  0  0  0  0  0  0  0  0  0
  143.2330   75.6760  220.0360 C   0  0  0  0  0  0  0  0  0  0  0  0
  143.4240   74.2830  219.8120 N   0  0  0  0  0  0  0  0  0  0  0  0
  143.8470   73.4430  220.8480 C   0  0  0  0  0  0  0  0  0  0  0  0
  144.9640   72.5610  220.3260 C   0  0  0  0  0  0  0  0  0  0  0  0
  145.2530   73.0620  218.9370 C   0  0  0  0  0  0  0  0  0  0  0  0
  144.0740   73.9360  218.5910 C   0  0  0  0  0  0  0  0  0  0  0  0
  139.8280   70.8550  223.3650 C   0  0  0  0  0  0  0  0  0  0  0  0
  139.2820   69.5910  223.3570 C   0  0  0  0  0  0  0  0  0  0  0  0
  139.2640   68.8820  224.5520 C   0  0  0  0  0  0  0  0  0  0  0  0
  139.7840   69.4510  225.6900 C   0  0  0  0  0  0  0  0  0  0  0  0
  139.7540   68.7240  226.8650 C   0  0  0  0  0  0  0  0  0  0  0  0
  140.2640   69.2490  228.0360 C   0  0  0  0  0  0  0  0  0  0  0  0
  140.2360   68.5380  229.1880 F   0  0  0  0  0  0  0  0  0  0  0  0
  140.8000   70.5160  227.9940 C   0  0  0  0  0  0  0  0  0  0  0  0
  140.8340   71.2500  226.8250 C   0  0  0  0  0  0  0  0  0  0  0  0
  140.3200   70.7040  225.6750 C   0  0  0  0  0  0  0  0  0  0  0  0
  140.3270   71.3710  224.5070 N   0  0  0  0  0  0  0  0  0  0  0  0
  139.5930   73.4910  223.1650 H   0  0  0  0  0  0  0  0  0  0  0  0
  140.1792   73.2202  220.2347 H   0  0  0  0  0  0  0  0  0  0  0  0
  138.7225   74.1968  220.9273 H   0  0  0  0  0  0  0  0  0  0  0  0
  140.0322   76.5646  218.0602 H   0  0  0  0  0  0  0  0  0  0  0  0
  138.8878   76.7845  219.3495 H   0  0  0  0  0  0  0  0  0  0  0  0
  140.3923   78.8724  218.5262 H   0  0  0  0  0  0  0  0  0  0  0  0
  140.1456   78.7051  220.2496 H   0  0  0  0  0  0  0  0  0  0  0  0
  142.5030   78.1999  220.4719 H   0  0  0  0  0  0  0  0  0  0  0  0
  143.7130   78.5260  218.7120 H   0  0  0  0  0  0  0  0  0  0  0  0
  142.3392   76.0936  218.3475 H   0  0  0  0  0  0  0  0  0  0  0  0
  144.1594   76.1774  219.7190 H   0  0  0  0  0  0  0  0  0  0  0  0
  142.9675   75.7238  221.1024 H   0  0  0  0  0  0  0  0  0  0  0  0
  144.2146   74.0482  221.6898 H   0  0  0  0  0  0  0  0  0  0  0  0
  143.0083   72.8225  221.1966 H   0  0  0  0  0  0  0  0  0  0  0  0
  145.8567   72.6537  220.9620 H   0  0  0  0  0  0  0  0  0  0  0  0
  144.6802   71.4982  220.3267 H   0  0  0  0  0  0  0  0  0  0  0  0
  146.1856   73.6450  218.9214 H   0  0  0  0  0  0  0  0  0  0  0  0
  145.3865   72.2402  218.2181 H   0  0  0  0  0  0  0  0  0  0  0  0
  144.4188   74.8456  218.0775 H   0  0  0  0  0  0  0  0  0  0  0  0
  143.3817   73.4049  217.9212 H   0  0  0  0  0  0  0  0  0  0  0  0
  138.8727   69.1559  222.4333 H   0  0  0  0  0  0  0  0  0  0  0  0
  138.8354   67.8696  224.5871 H   0  0  0  0  0  0  0  0  0  0  0  0
  139.3182   67.7140  226.8675 H   0  0  0  0  0  0  0  0  0  0  0  0
  141.2116   70.9549  228.9149 H   0  0  0  0  0  0  0  0  0  0  0  0
  141.2680   72.2607  226.8152 H   0  0  0  0  0  0  0  0  0  0  0  0
  1  2  2  0
  2  3  1  0
  3  4  1  0
  4  5  1  0
  5  6  2  0
  5  7  1  0
  7  8  1  0
  8  9  1  0
  9 10  1  0
 10 11  1  0
 10 12  1  0
 12 13  1  0
 13 14  1  0
 14 15  1  0
 15 16  1  0
 16 17  1  0
 17 18  1  0
  2 19  1  0
 19 20  2  0
 20 21  1  0
 21 22  2  0
 22 23  1  0
 23 24  2  0
 24 25  1  0
 24 26  1  0
 26 27  2  0
 27 28  1  0
 28 29  2  0
 12  7  1  0
 18 14  1  0
 29 19  1  0
 28 22  1  0
  3 30  1  0
  4 31  1  0
  4 32  1  0
  8 33  1  0
  8 34  1  0
  9 35  1  0
  9 36  1  0
 10 37  1  1
 11 38  1  0
 12 39  1  6
 13 40  1  0
 13 41  1  0
 15 42  1  0
 15 43  1  0
 16 44  1  0
 16 45  1  0
 17 46  1  0
 17 47  1  0
 18 48  1  0
 18 49  1  0
 20 50  1  0
 21 51  1  0
 23 52  1  0
 26 53  1  0
 27 54  1  0
M  END
>  <smiles>  (36) 
O=C(NCC(=O)N1CC[C@H](O)[C@H]1CN1CCCC1)c1ccc2cc(F)ccc2n1

>  <score_type>  (36) 
oracle

>  <origin>  (36) 
autodockgpu

>  <m_score__min__energy>  (36) 
-8.5600000000000005

>  <m_primary>  (36) 
energy

>  <rmsd>  (36) 
3.805890126908338

>  <m_score__min__rmsd>  (36) 
3.805890126908338

>  <meeko>  (36) 
{"free_energy": -7.01, "intermolecular_energy": -9.1, "internal_energy": -1.78, "cluster_size": 28, "cluster_id": 1, "rank_in_cluster": 27}

>  <energy>  (36) 
-7.83

>  <cluster_rmsd>  (36) 
0.85

>  <cluster>  (36) 
3

$$$$

     RDKit          3D

 54 57  0  0  0  0  0  0  0  0999 V2000
  140.0650   73.5350  222.3900 O   0  0  0  0  0  0  0  0  0  0  0  0
  140.2990   72.3150  222.3780 C   0  0  0  0  0  0  0  0  0  0  0  0
  140.7250   71.7640  221.1110 N   0  0  0  0  0  0  0  0  0  0  0  0
  140.8520   72.5900  219.9660 C   0  0  0  0  0  0  0  0  0  0  0  0
  142.0170   72.4830  219.0940 C   0  0  0  0  0  0  0  0  0  0  0  0
  141.8540   71.5770  218.1630 O   0  0  0  0  0  0  0  0  0  0  0  0
  143.2260   73.1500  219.0730 N   0  0  0  0  0  0  0  0  0  0  0  0
  143.5920   74.5470  219.4170 C   0  0  0  0  0  0  0  0  0  0  0  0
  144.6500   74.3200  220.4530 C   0  0  0  0  0  0  0  0  0  0  0  0
  145.3550   73.0540  219.9450 C   0  0  2  0  0  0  0  0  0  0  0  0
  146.6950   73.3690  219.6630 O   0  0  0  0  0  0  0  0  0  0  0  0
  144.5920   72.6690  218.7130 C   0  0  1  0  0  0  0  0  0  0  0  0
  144.5750   71.2730  218.3110 C   0  0  0  0  0  0  0  0  0  0  0  0
  145.0360   70.2640  219.2050 N   0  0  0  0  0  0  0  0  0  0  0  0
  146.2190   69.5650  218.9450 C   0  0  0  0  0  0  0  0  0  0  0  0
  145.9580   68.0860  219.1540 C   0  0  0  0  0  0  0  0  0  0  0  0
  144.4810   67.9730  219.4150 C   0  0  0  0  0  0  0  0  0  0  0  0
  144.0350   69.3830  219.7100 C   0  0  0  0  0  0  0  0  0  0  0  0
  140.1740   71.4320  223.5270 C   0  0  0  0  0  0  0  0  0  0  0  0
  139.5630   70.2070  223.3810 C   0  0  0  0  0  0  0  0  0  0  0  0
  139.4630   69.3910  224.5010 C   0  0  0  0  0  0  0  0  0  0  0  0
  139.9700   69.8210  225.7050 C   0  0  0  0  0  0  0  0  0  0  0  0
  139.8580   68.9890  226.8030 C   0  0  0  0  0  0  0  0  0  0  0  0
  140.3510   69.3740  228.0350 C   0  0  0  0  0  0  0  0  0  0  0  0
  140.2430   68.5600  229.1120 F   0  0  0  0  0  0  0  0  0  0  0  0
  140.9550   70.6060  228.1310 C   0  0  0  0  0  0  0  0  0  0  0  0
  141.0710   71.4440  227.0390 C   0  0  0  0  0  0  0  0  0  0  0  0
  140.5720   71.0370  225.8260 C   0  0  0  0  0  0  0  0  0  0  0  0
  140.6570   71.8100  224.7290 N   0  0  0  0  0  0  0  0  0  0  0  0
  140.9350   70.7270  221.0850 H   0  0  0  0  0  0  0  0  0  0  0  0
  139.9707   72.3934  219.3378 H   0  0  0  0  0  0  0  0  0  0  0  0
  140.9632   73.5945  220.4003 H   0  0  0  0  0  0  0  0  0  0  0  0
  143.9900   75.0865  218.5449 H   0  0  0  0  0  0  0  0  0  0  0  0
  142.7487   75.1650  219.7588 H   0  0  0  0  0  0  0  0  0  0  0  0
  145.3468   75.1698  220.5009 H   0  0  0  0  0  0  0  0  0  0  0  0
  144.2479   74.2164  221.4716 H   0  0  0  0  0  0  0  0  0  0  0  0
  145.3700   72.2255  220.6685 H   0  0  0  0  0  0  0  0  0  0  0  0
  146.7440   74.2860  219.3420 H   0  0  0  0  0  0  0  0  0  0  0  0
  145.0668   73.1024  217.8204 H   0  0  0  0  0  0  0  0  0  0  0  0
  143.5312   71.0266  218.0667 H   0  0  0  0  0  0  0  0  0  0  0  0
  145.3104   71.2386  217.4937 H   0  0  0  0  0  0  0  0  0  0  0  0
  146.5350   69.7432  217.9066 H   0  0  0  0  0  0  0  0  0  0  0  0
  147.0161   69.9070  219.6216 H   0  0  0  0  0  0  0  0  0  0  0  0
  146.2345   67.5158  218.2549 H   0  0  0  0  0  0  0  0  0  0  0  0
  146.5522   67.6797  219.9857 H   0  0  0  0  0  0  0  0  0  0  0  0
  143.9599   67.5785  218.5302 H   0  0  0  0  0  0  0  0  0  0  0  0
  144.2563   67.2839  220.2424 H   0  0  0  0  0  0  0  0  0  0  0  0
  143.0735   69.5840  219.2150 H   0  0  0  0  0  0  0  0  0  0  0  0
  143.9012   69.5285  220.7921 H   0  0  0  0  0  0  0  0  0  0  0  0
  139.1661   69.8841  222.4073 H   0  0  0  0  0  0  0  0  0  0  0  0
  138.9805   68.4054  224.4251 H   0  0  0  0  0  0  0  0  0  0  0  0
  139.3707   68.0088  226.6947 H   0  0  0  0  0  0  0  0  0  0  0  0
  141.3559   70.9323  229.1020 H   0  0  0  0  0  0  0  0  0  0  0  0
  141.5572   72.4255  227.1398 H   0  0  0  0  0  0  0  0  0  0  0  0
  1  2  2  0
  2  3  1  0
  3  4  1  0
  4  5  1  0
  5  6  2  0
  5  7  1  0
  7  8  1  0
  8  9  1  0
  9 10  1  0
 10 11  1  0
 10 12  1  0
 12 13  1  0
 13 14  1  0
 14 15  1  0
 15 16  1  0
 16 17  1  0
 17 18  1  0
  2 19  1  0
 19 20  2  0
 20 21  1  0
 21 22  2  0
 22 23  1  0
 23 24  2  0
 24 25  1  0
 24 26  1  0
 26 27  2  0
 27 28  1  0
 28 29  2  0
 12  7  1  0
 18 14  1  0
 29 19  1  0
 28 22  1  0
  3 30  1  0
  4 31  1  0
  4 32  1  0
  8 33  1  0
  8 34  1  0
  9 35  1  0
  9 36  1  0
 10 37  1  1
 11 38  1  0
 12 39  1  6
 13 40  1  0
 13 41  1  0
 15 42  1  0
 15 43  1  0
 16 44  1  0
 16 45  1  0
 17 46  1  0
 17 47  1  0
 18 48  1  0
 18 49  1  0
 20 50  1  0
 21 51  1  0
 23 52  1  0
 26 53  1  0
 27 54  1  0
M  END
>  <smiles>  (37) 
O=C(NCC(=O)N1CC[C@H](O)[C@H]1CN1CCCC1)c1ccc2cc(F)ccc2n1

>  <score_type>  (37) 
oracle

>  <origin>  (37) 
autodockgpu

>  <m_score__min__energy>  (37) 
-8.5600000000000005

>  <m_primary>  (37) 
energy

>  <rmsd>  (37) 
6.330169393739273

>  <m_score__min__rmsd>  (37) 
6.330169393739273

>  <meeko>  (37) 
{"free_energy": -8.19, "intermolecular_energy": -10.28, "internal_energy": -1.25, "cluster_size": 5, "cluster_id": 2, "rank_in_cluster": 1}

>  <energy>  (37) 
-7.6

>  <cluster_rmsd>  (37) 
0.43

>  <cluster>  (37) 
3

$$$$

     RDKit          3D

 54 57  0  0  0  0  0  0  0  0999 V2000
  134.7060   68.4900  225.2830 O   0  0  0  0  0  0  0  0  0  0  0  0
  134.9930   69.6900  225.1440 C   0  0  0  0  0  0  0  0  0  0  0  0
  136.1280   69.9760  224.2940 N   0  0  0  0  0  0  0  0  0  0  0  0
  136.8540   68.9270  223.6760 C   0  0  0  0  0  0  0  0  0  0  0  0
  138.3110   68.9750  223.5980 C   0  0  0  0  0  0  0  0  0  0  0  0
  138.8710   67.9690  224.2220 O   0  0  0  0  0  0  0  0  0  0  0  0
  139.1810   69.8630  222.9970 N   0  0  0  0  0  0  0  0  0  0  0  0
  139.6660   69.9810  221.5990 C   0  0  0  0  0  0  0  0  0  0  0  0
  139.2750   71.3900  221.2770 C   0  0  0  0  0  0  0  0  0  0  0  0
  139.4820   72.1140  222.6150 C   0  0  2  0  0  0  0  0  0  0  0  0
  140.4700   73.0970  222.4440 O   0  0  0  0  0  0  0  0  0  0  0  0
  139.9130   71.0340  223.5620 C   0  0  1  0  0  0  0  0  0  0  0  0
  139.6400   71.2000  224.9780 C   0  0  0  0  0  0  0  0  0  0  0  0
  140.6160   70.8260  225.9450 N   0  0  0  0  0  0  0  0  0  0  0  0
  140.4910   69.6330  226.6640 C   0  0  0  0  0  0  0  0  0  0  0  0
  140.7480   69.9260  228.1300 C   0  0  0  0  0  0  0  0  0  0  0  0
  140.8890   71.4200  228.2210 C   0  0  0  0  0  0  0  0  0  0  0  0
  141.0770   71.8750  226.7950 C   0  0  0  0  0  0  0  0  0  0  0  0
  134.2790   70.7950  225.7650 C   0  0  0  0  0  0  0  0  0  0  0  0
  133.2490   70.5340  226.6400 C   0  0  0  0  0  0  0  0  0  0  0  0
  132.5910   71.6150  227.2130 C   0  0  0  0  0  0  0  0  0  0  0  0
  132.9800   72.8940  226.8970 C   0  0  0  0  0  0  0  0  0  0  0  0
  132.3090   73.9520  227.4830 C   0  0  0  0  0  0  0  0  0  0  0  0
  132.6610   75.2570  227.1990 C   0  0  0  0  0  0  0  0  0  0  0  0
  132.0050   76.2940  227.7720 F   0  0  0  0  0  0  0  0  0  0  0  0
  133.6980   75.4690  226.3190 C   0  0  0  0  0  0  0  0  0  0  0  0
  134.3740   74.4180  225.7300 C   0  0  0  0  0  0  0  0  0  0  0  0
  134.0030   73.1300  226.0290 C   0  0  0  0  0  0  0  0  0  0  0  0
  134.6250   72.0690  225.4860 N   0  0  0  0  0  0  0  0  0  0  0  0
  136.3830   70.9940  224.1590 H   0  0  0  0  0  0  0  0  0  0  0  0
  136.5985   68.0053  224.2193 H   0  0  0  0  0  0  0  0  0  0  0  0
  136.5490   69.0052  222.6220 H   0  0  0  0  0  0  0  0  0  0  0  0
  140.7551   69.8400  221.5363 H   0  0  0  0  0  0  0  0  0  0  0  0
  139.2531   69.2282  220.9115 H   0  0  0  0  0  0  0  0  0  0  0  0
  139.9222   71.8118  220.4939 H   0  0  0  0  0  0  0  0  0  0  0  0
  138.2503   71.4796  220.8870 H   0  0  0  0  0  0  0  0  0  0  0  0
  138.5863   72.6283  222.9935 H   0  0  0  0  0  0  0  0  0  0  0  0
  140.1950   73.7040  221.7360 H   0  0  0  0  0  0  0  0  0  0  0  0
  141.0108   70.9775  223.6014 H   0  0  0  0  0  0  0  0  0  0  0  0
  139.4304   72.2681  225.1367 H   0  0  0  0  0  0  0  0  0  0  0  0
  138.8215   70.4881  225.1602 H   0  0  0  0  0  0  0  0  0  0  0  0
  139.4756   69.2288  226.5387 H   0  0  0  0  0  0  0  0  0  0  0  0
  141.2157   68.8924  226.2947 H   0  0  0  0  0  0  0  0  0  0  0  0
  139.9037   69.5812  228.7450 H   0  0  0  0  0  0  0  0  0  0  0  0
  141.6453   69.4077  228.4991 H   0  0  0  0  0  0  0  0  0  0  0  0
  139.9837   71.8693  228.6553 H   0  0  0  0  0  0  0  0  0  0  0  0
  141.7270   71.7201  228.8673 H   0  0  0  0  0  0  0  0  0  0  0  0
  140.4936   72.7896  226.6128 H   0  0  0  0  0  0  0  0  0  0  0  0
  142.1357   72.0974  226.5960 H   0  0  0  0  0  0  0  0  0  0  0  0
  132.9558   69.5009  226.8783 H   0  0  0  0  0  0  0  0  0  0  0  0
  131.7622   71.4475  227.9166 H   0  0  0  0  0  0  0  0  0  0  0  0
  131.4851   73.7517  228.1837 H   0  0  0  0  0  0  0  0  0  0  0  0
  133.9957   76.5004  226.0789 H   0  0  0  0  0  0  0  0  0  0  0  0
  135.2000   74.6106  225.0295 H   0  0  0  0  0  0  0  0  0  0  0  0
  1  2  2  0
  2  3  1  0
  3  4  1  0
  4  5  1  0
  5  6  2  0
  5  7  1  0
  7  8  1  0
  8  9  1  0
  9 10  1  0
 10 11  1  0
 10 12  1  0
 12 13  1  0
 13 14  1  0
 14 15  1  0
 15 16  1  0
 16 17  1  0
 17 18  1  0
  2 19  1  0
 19 20  2  0
 20 21  1  0
 21 22  2  0
 22 23  1  0
 23 24  2  0
 24 25  1  0
 24 26  1  0
 26 27  2  0
 27 28  1  0
 28 29  2  0
 12  7  1  0
 18 14  1  0
 29 19  1  0
 28 22  1  0
  3 30  1  0
  4 31  1  0
  4 32  1  0
  8 33  1  0
  8 34  1  0
  9 35  1  0
  9 36  1  0
 10 37  1  1
 11 38  1  0
 12 39  1  1
 13 40  1  0
 13 41  1  0
 15 42  1  0
 15 43  1  0
 16 44  1  0
 16 45  1  0
 17 46  1  0
 17 47  1  0
 18 48  1  0
 18 49  1  0
 20 50  1  0
 21 51  1  0
 23 52  1  0
 26 53  1  0
 27 54  1  0
M  END
>  <smiles>  (38) 
O=C(NCC(=O)N1CC[C@H](O)[C@H]1CN1CCCC1)c1ccc2cc(F)ccc2n1

>  <score_type>  (38) 
oracle

>  <origin>  (38) 
autodockgpu

>  <m_score__min__energy>  (38) 
-8.5600000000000005

>  <m_primary>  (38) 
energy

>  <rmsd>  (38) 
8.139872805939662

>  <m_score__min__rmsd>  (38) 
8.139872805939662

>  <meeko>  (38) 
{"free_energy": -7.46, "intermolecular_energy": -9.55, "internal_energy": -1.66, "cluster_size": 5, "cluster_id": 6, "rank_in_cluster": 4}

>  <energy>  (38) 
-7.08

>  <cluster_rmsd>  (38) 
1.08

>  <cluster>  (38) 
3

$$$$

     RDKit          3D

 54 57  0  0  0  0  0  0  0  0999 V2000
  139.2030   71.2270  221.1030 O   0  0  0  0  0  0  0  0  0  0  0  0
  139.3000   71.6910  222.2520 C   0  0  0  0  0  0  0  0  0  0  0  0
  139.1720   73.1270  222.3680 N   0  0  0  0  0  0  0  0  0  0  0  0
  138.9600   73.9320  221.2210 C   0  0  0  0  0  0  0  0  0  0  0  0
  140.0460   74.1940  220.2820 C   0  0  0  0  0  0  0  0  0  0  0  0
  139.6900   73.9670  219.0420 O   0  0  0  0  0  0  0  0  0  0  0  0
  141.3440   74.6310  220.4600 N   0  0  0  0  0  0  0  0  0  0  0  0
  142.6210   73.8950  220.6380 C   0  0  0  0  0  0  0  0  0  0  0  0
  143.4360   74.4600  219.5160 C   0  0  0  0  0  0  0  0  0  0  0  0
  142.9660   75.9210  219.4570 C   0  0  2  0  0  0  0  0  0  0  0  0
  144.0620   76.7550  219.7340 O   0  0  0  0  0  0  0  0  0  0  0  0
  141.9020   76.0140  220.5090 C   0  0  1  0  0  0  0  0  0  0  0  0
  140.8590   77.0140  220.3580 C   0  0  0  0  0  0  0  0  0  0  0  0
  140.8060   78.1330  221.2370 N   0  0  0  0  0  0  0  0  0  0  0  0
  141.6530   79.2300  221.0510 C   0  0  0  0  0  0  0  0  0  0  0  0
  142.2610   79.6010  222.3890 C   0  0  0  0  0  0  0  0  0  0  0  0
  141.8060   78.5320  223.3450 C   0  0  0  0  0  0  0  0  0  0  0  0
  140.6860   77.8240  222.6240 C   0  0  0  0  0  0  0  0  0  0  0  0
  139.5250   70.9020  223.4520 C   0  0  0  0  0  0  0  0  0  0  0  0
  139.2040   69.5630  223.4570 C   0  0  0  0  0  0  0  0  0  0  0  0
  139.4340   68.8420  224.6220 C   0  0  0  0  0  0  0  0  0  0  0  0
  139.9670   69.4740  225.7200 C   0  0  0  0  0  0  0  0  0  0  0  0
  140.1870   68.7330  226.8670 C   0  0  0  0  0  0  0  0  0  0  0  0
  140.7210   69.3200  227.9970 C   0  0  0  0  0  0  0  0  0  0  0  0
  140.9360   68.5960  229.1210 F   0  0  0  0  0  0  0  0  0  0  0  0
  141.0260   70.6610  227.9440 C   0  0  0  0  0  0  0  0  0  0  0  0
  140.8100   71.4090  226.8030 C   0  0  0  0  0  0  0  0  0  0  0  0
  140.2780   70.8000  225.6940 C   0  0  0  0  0  0  0  0  0  0  0  0
  140.0470   71.4780  224.5550 N   0  0  0  0  0  0  0  0  0  0  0  0
  139.2450   73.5380  223.3400 H   0  0  0  0  0  0  0  0  0  0  0  0
  138.1557   73.4515  220.6446 H   0  0  0  0  0  0  0  0  0  0  0  0
  138.7644   74.9250  221.6519 H   0  0  0  0  0  0  0  0  0  0  0  0
  143.0772   74.1085  221.6159 H   0  0  0  0  0  0  0  0  0  0  0  0
  142.5195   72.7999  220.6177 H   0  0  0  0  0  0  0  0  0  0  0  0
  144.5117   74.3984  219.7374 H   0  0  0  0  0  0  0  0  0  0  0  0
  143.3031   73.9208  218.5665 H   0  0  0  0  0  0  0  0  0  0  0  0
  142.5725   76.2299  218.4773 H   0  0  0  0  0  0  0  0  0  0  0  0
  143.7980   77.4150  220.3970 H   0  0  0  0  0  0  0  0  0  0  0  0
  142.3357   76.3551  221.4606 H   0  0  0  0  0  0  0  0  0  0  0  0
  140.9518   77.4165  219.3385 H   0  0  0  0  0  0  0  0  0  0  0  0
  139.9421   76.4585  220.6044 H   0  0  0  0  0  0  0  0  0  0  0  0
  142.4510   78.9664  220.3412 H   0  0  0  0  0  0  0  0  0  0  0  0
  141.0846   80.0805  220.6467 H   0  0  0  0  0  0  0  0  0  0  0  0
  143.3589   79.6155  222.3221 H   0  0  0  0  0  0  0  0  0  0  0  0
  141.9477   80.6032  222.7168 H   0  0  0  0  0  0  0  0  0  0  0  0
  142.6272   77.8342  223.5659 H   0  0  0  0  0  0  0  0  0  0  0  0
  141.4818   78.9479  224.3104 H   0  0  0  0  0  0  0  0  0  0  0  0
  140.7695   76.7377  222.7753 H   0  0  0  0  0  0  0  0  0  0  0  0
  139.7092   78.1504  223.0105 H   0  0  0  0  0  0  0  0  0  0  0  0
  138.7784   69.0789  222.5656 H   0  0  0  0  0  0  0  0  0  0  0  0
  139.1907   67.7701  224.6655 H   0  0  0  0  0  0  0  0  0  0  0  0
  139.9334   67.6627  226.8792 H   0  0  0  0  0  0  0  0  0  0  0  0
  141.4525   71.1494  228.8326 H   0  0  0  0  0  0  0  0  0  0  0  0
  141.0613   72.4797  226.7834 H   0  0  0  0  0  0  0  0  0  0  0  0
  1  2  2  0
  2  3  1  0
  3  4  1  0
  4  5  1  0
  5  6  2  0
  5  7  1  0
  7  8  1  0
  8  9  1  0
  9 10  1  0
 10 11  1  0
 10 12  1  0
 12 13  1  0
 13 14  1  0
 14 15  1  0
 15 16  1  0
 16 17  1  0
 17 18  1  0
  2 19  1  0
 19 20  2  0
 20 21  1  0
 21 22  2  0
 22 23  1  0
 23 24  2  0
 24 25  1  0
 24 26  1  0
 26 27  2  0
 27 28  1  0
 28 29  2  0
 12  7  1  0
 18 14  1  0
 29 19  1  0
 28 22  1  0
  3 30  1  0
  4 31  1  0
  4 32  1  0
  8 33  1  0
  8 34  1  0
  9 35  1  0
  9 36  1  0
 10 37  1  6
 11 38  1  0
 12 39  1  1
 13 40  1  0
 13 41  1  0
 15 42  1  0
 15 43  1  0
 16 44  1  0
 16 45  1  0
 17 46  1  0
 17 47  1  0
 18 48  1  0
 18 49  1  0
 20 50  1  0
 21 51  1  0
 23 52  1  0
 26 53  1  0
 27 54  1  0
M  END
>  <smiles>  (39) 
O=C(NCC(=O)N1CC[C@H](O)[C@H]1CN1CCCC1)c1ccc2cc(F)ccc2n1

>  <score_type>  (39) 
oracle

>  <origin>  (39) 
autodockgpu

>  <m_score__min__energy>  (39) 
-8.5600000000000005

>  <m_primary>  (39) 
energy

>  <rmsd>  (39) 
2.757383269170271

>  <m_score__min__rmsd>  (39) 
2.757383269170271

>  <meeko>  (39) 
{"free_energy": -7.49, "intermolecular_energy": -9.58, "internal_energy": -1.72, "cluster_size": 28, "cluster_id": 1, "rank_in_cluster": 25}

>  <energy>  (39) 
-7.73

>  <cluster_rmsd>  (39) 
0.0

>  <cluster>  (39) 
4

$$$$

     RDKit          3D

 54 57  0  0  0  0  0  0  0  0999 V2000
  141.1450   71.9280  221.2160 O   0  0  0  0  0  0  0  0  0  0  0  0
  140.5460   72.3210  222.2310 C   0  0  0  0  0  0  0  0  0  0  0  0
  140.1030   73.6980  222.2120 N   0  0  0  0  0  0  0  0  0  0  0  0
  140.3590   74.5280  221.0920 C   0  0  0  0  0  0  0  0  0  0  0  0
  140.9410   75.8550  221.2660 C   0  0  0  0  0  0  0  0  0  0  0  0
  140.4850   76.4570  222.3360 O   0  0  0  0  0  0  0  0  0  0  0  0
  141.8640   76.5690  220.5280 N   0  0  0  0  0  0  0  0  0  0  0  0
  143.0850   76.1480  219.7940 C   0  0  0  0  0  0  0  0  0  0  0  0
  142.7850   76.6610  218.4200 C   0  0  0  0  0  0  0  0  0  0  0  0
  142.0240   77.9640  218.7040 C   0  0  2  0  0  0  0  0  0  0  0  0
  142.7620   79.0380  218.1770 O   0  0  0  0  0  0  0  0  0  0  0  0
  141.9250   78.0230  220.1980 C   0  0  1  0  0  0  0  0  0  0  0  0
  140.8190   78.7500  220.7960 C   0  0  0  0  0  0  0  0  0  0  0  0
  141.0540   79.6600  221.8660 N   0  0  0  0  0  0  0  0  0  0  0  0
  142.2640   80.3550  221.9620 C   0  0  0  0  0  0  0  0  0  0  0  0
  142.7610   80.2590  223.3910 C   0  0  0  0  0  0  0  0  0  0  0  0
  141.8080   79.3250  224.0840 C   0  0  0  0  0  0  0  0  0  0  0  0
  140.6260   79.2230  223.1540 C   0  0  0  0  0  0  0  0  0  0  0  0
  140.2690   71.5050  223.4030 C   0  0  0  0  0  0  0  0  0  0  0  0
  139.5620   70.3320  223.2640 C   0  0  0  0  0  0  0  0  0  0  0  0
  139.3180   69.5790  224.4060 C   0  0  0  0  0  0  0  0  0  0  0  0
  139.7810   70.0180  225.6230 C   0  0  0  0  0  0  0  0  0  0  0  0
  139.5250   69.2500  226.7430 C   0  0  0  0  0  0  0  0  0  0  0  0
  139.9690   69.6470  227.9900 C   0  0  0  0  0  0  0  0  0  0  0  0
  139.7190   68.8950  229.0880 F   0  0  0  0  0  0  0  0  0  0  0  0
  140.6720   70.8270  228.0790 C   0  0  0  0  0  0  0  0  0  0  0  0
  140.9320   71.6000  226.9650 C   0  0  0  0  0  0  0  0  0  0  0  0
  140.4790   71.1830  225.7380 C   0  0  0  0  0  0  0  0  0  0  0  0
  140.7040   71.8950  224.6190 N   0  0  0  0  0  0  0  0  0  0  0  0
  139.5840   74.0470  223.0670 H   0  0  0  0  0  0  0  0  0  0  0  0
  141.0423   73.9687  220.4360 H   0  0  0  0  0  0  0  0  0  0  0  0
  139.3496   74.7502  220.7155 H   0  0  0  0  0  0  0  0  0  0  0  0
  143.9886   76.6162  220.2114 H   0  0  0  0  0  0  0  0  0  0  0  0
  143.2912   75.0685  219.8394 H   0  0  0  0  0  0  0  0  0  0  0  0
  143.7107   76.8567  217.8589 H   0  0  0  0  0  0  0  0  0  0  0  0
  142.2165   75.9494  217.8032 H   0  0  0  0  0  0  0  0  0  0  0  0
  141.0248   78.0113  218.2464 H   0  0  0  0  0  0  0  0  0  0  0  0
  143.3230   78.7120  217.4540 H   0  0  0  0  0  0  0  0  0  0  0  0
  142.7612   78.6058  220.6115 H   0  0  0  0  0  0  0  0  0  0  0  0
  140.3459   79.3272  219.9879 H   0  0  0  0  0  0  0  0  0  0  0  0
  140.2240   77.9552  221.2695 H   0  0  0  0  0  0  0  0  0  0  0  0
  143.0035   79.9085  221.2810 H   0  0  0  0  0  0  0  0  0  0  0  0
  142.1167   81.4090  221.6839 H   0  0  0  0  0  0  0  0  0  0  0  0
  143.7834   79.8540  223.4164 H   0  0  0  0  0  0  0  0  0  0  0  0
  142.7952   81.2442  223.8790 H   0  0  0  0  0  0  0  0  0  0  0  0
  142.2711   78.3383  224.2321 H   0  0  0  0  0  0  0  0  0  0  0  0
  141.5216   79.6885  225.0819 H   0  0  0  0  0  0  0  0  0  0  0  0
  140.2792   78.1805  223.1006 H   0  0  0  0  0  0  0  0  0  0  0  0
  139.7936   79.8440  223.5165 H   0  0  0  0  0  0  0  0  0  0  0  0
  139.2013   70.0009  222.2790 H   0  0  0  0  0  0  0  0  0  0  0  0
  138.7566   68.6356  224.3362 H   0  0  0  0  0  0  0  0  0  0  0  0
  138.9609   68.3112  226.6407 H   0  0  0  0  0  0  0  0  0  0  0  0
  141.0355   71.1623  229.0616 H   0  0  0  0  0  0  0  0  0  0  0  0
  141.4960   72.5397  227.0595 H   0  0  0  0  0  0  0  0  0  0  0  0
  1  2  2  0
  2  3  1  0
  3  4  1  0
  4  5  1  0
  5  6  2  0
  5  7  1  0
  7  8  1  0
  8  9  1  0
  9 10  1  0
 10 11  1  0
 10 12  1  0
 12 13  1  0
 13 14  1  0
 14 15  1  0
 15 16  1  0
 16 17  1  0
 17 18  1  0
  2 19  1  0
 19 20  2  0
 20 21  1  0
 21 22  2  0
 22 23  1  0
 23 24  2  0
 24 25  1  0
 24 26  1  0
 26 27  2  0
 27 28  1  0
 28 29  2  0
 12  7  1  0
 18 14  1  0
 29 19  1  0
 28 22  1  0
  3 30  1  0
  4 31  1  0
  4 32  1  0
  8 33  1  0
  8 34  1  0
  9 35  1  0
  9 36  1  0
 10 37  1  6
 11 38  1  0
 12 39  1  1
 13 40  1  0
 13 41  1  0
 15 42  1  0
 15 43  1  0
 16 44  1  0
 16 45  1  0
 17 46  1  0
 17 47  1  0
 18 48  1  0
 18 49  1  0
 20 50  1  0
 21 51  1  0
 23 52  1  0
 26 53  1  0
 27 54  1  0
M  END
>  <smiles>  (40) 
O=C(NCC(=O)N1CC[C@H](O)[C@H]1CN1CCCC1)c1ccc2cc(F)ccc2n1

>  <score_type>  (40) 
oracle

>  <origin>  (40) 
autodockgpu

>  <m_score__min__energy>  (40) 
-8.5600000000000005

>  <m_primary>  (40) 
energy

>  <rmsd>  (40) 
2.7422658038498735

>  <m_score__min__rmsd>  (40) 
2.7422658038498735

>  <meeko>  (40) 
{"free_energy": -8.34, "intermolecular_energy": -10.42, "internal_energy": -1.41, "cluster_size": 28, "cluster_id": 1, "rank_in_cluster": 6}

>  <energy>  (40) 
-7.67

>  <cluster_rmsd>  (40) 
0.21

>  <cluster>  (40) 
4

$$$$

     RDKit          3D

 54 57  0  0  0  0  0  0  0  0999 V2000
  139.5100   71.1300  221.1860 O   0  0  0  0  0  0  0  0  0  0  0  0
  139.6370   71.5570  222.3460 C   0  0  0  0  0  0  0  0  0  0  0  0
  139.7120   72.9940  222.4870 N   0  0  0  0  0  0  0  0  0  0  0  0
  139.6510   73.8400  221.3510 C   0  0  0  0  0  0  0  0  0  0  0  0
  140.1120   75.2220  221.4250 C   0  0  0  0  0  0  0  0  0  0  0  0
  139.9910   75.7180  222.6310 O   0  0  0  0  0  0  0  0  0  0  0  0
  140.6430   76.0770  220.4790 N   0  0  0  0  0  0  0  0  0  0  0  0
  140.4150   77.5180  220.2070 C   0  0  0  0  0  0  0  0  0  0  0  0
  141.8100   78.0530  220.3060 C   0  0  0  0  0  0  0  0  0  0  0  0
  142.6540   76.9090  219.7270 C   0  0  2  0  0  0  0  0  0  0  0  0
  143.3130   77.3750  218.5770 O   0  0  0  0  0  0  0  0  0  0  0  0
  141.6600   75.8310  219.4140 C   0  0  1  0  0  0  0  0  0  0  0  0
  142.1070   74.4500  219.4140 C   0  0  0  0  0  0  0  0  0  0  0  0
  142.9620   73.9720  220.4480 N   0  0  0  0  0  0  0  0  0  0  0  0
  144.3250   74.2840  220.4500 C   0  0  0  0  0  0  0  0  0  0  0  0
  145.1090   73.0150  220.7240 C   0  0  0  0  0  0  0  0  0  0  0  0
  144.0880   71.9100  220.7360 C   0  0  0  0  0  0  0  0  0  0  0  0
  142.7600   72.6160  220.8410 C   0  0  0  0  0  0  0  0  0  0  0  0
  139.7110   70.7250  223.5360 C   0  0  0  0  0  0  0  0  0  0  0  0
  139.2090   69.4430  223.5040 C   0  0  0  0  0  0  0  0  0  0  0  0
  139.2980   68.6790  224.6600 C   0  0  0  0  0  0  0  0  0  0  0  0
  139.8750   69.2130  225.7870 C   0  0  0  0  0  0  0  0  0  0  0  0
  139.9520   68.4300  226.9240 C   0  0  0  0  0  0  0  0  0  0  0  0
  140.5240   68.9190  228.0820 C   0  0  0  0  0  0  0  0  0  0  0  0
  140.6000   68.1540  229.1970 F   0  0  0  0  0  0  0  0  0  0  0  0
  141.0130   70.2060  228.0670 C   0  0  0  0  0  0  0  0  0  0  0  0
  140.9410   70.9940  226.9350 C   0  0  0  0  0  0  0  0  0  0  0  0
  140.3670   70.4830  225.7970 C   0  0  0  0  0  0  0  0  0  0  0  0
  140.2700   71.2050  224.6660 N   0  0  0  0  0  0  0  0  0  0  0  0
  139.8130   73.3760  223.4690 H   0  0  0  0  0  0  0  0  0  0  0  0
  140.2453   73.3525  220.5641 H   0  0  0  0  0  0  0  0  0  0  0  0
  138.5691   73.9513  221.1865 H   0  0  0  0  0  0  0  0  0  0  0  0
  139.9916   77.6776  219.2044 H   0  0  0  0  0  0  0  0  0  0  0  0
  139.6961   77.9990  220.8866 H   0  0  0  0  0  0  0  0  0  0  0  0
  141.9255   78.9711  219.7112 H   0  0  0  0  0  0  0  0  0  0  0  0
  142.0981   78.3319  221.3303 H   0  0  0  0  0  0  0  0  0  0  0  0
  143.4327   76.5342  220.4076 H   0  0  0  0  0  0  0  0  0  0  0  0
  142.8190   77.0880  217.7910 H   0  0  0  0  0  0  0  0  0  0  0  0
  141.3311   75.9078  218.3671 H   0  0  0  0  0  0  0  0  0  0  0  0
  141.2023   73.8248  219.4375 H   0  0  0  0  0  0  0  0  0  0  0  0
  142.7426   74.3931  218.5180 H   0  0  0  0  0  0  0  0  0  0  0  0
  144.6132   74.6940  219.4708 H   0  0  0  0  0  0  0  0  0  0  0  0
  144.5387   75.0339  221.2259 H   0  0  0  0  0  0  0  0  0  0  0  0
  145.8527   72.8434  219.9319 H   0  0  0  0  0  0  0  0  0  0  0  0
  145.6614   73.0722  221.6735 H   0  0  0  0  0  0  0  0  0  0  0  0
  144.1422   71.3219  219.8080 H   0  0  0  0  0  0  0  0  0  0  0  0
  144.2498   71.2033  221.5632 H   0  0  0  0  0  0  0  0  0  0  0  0
  142.0268   72.1374  220.1752 H   0  0  0  0  0  0  0  0  0  0  0  0
  142.3747   72.5646  221.8700 H   0  0  0  0  0  0  0  0  0  0  0  0
  138.7513   69.0365  222.5901 H   0  0  0  0  0  0  0  0  0  0  0  0
  138.9082   67.6505  224.6736 H   0  0  0  0  0  0  0  0  0  0  0  0
  139.5528   67.4051  226.9060 H   0  0  0  0  0  0  0  0  0  0  0  0
  141.4720   70.6165  228.9785 H   0  0  0  0  0  0  0  0  0  0  0  0
  141.3390   72.0194  226.9449 H   0  0  0  0  0  0  0  0  0  0  0  0
  1  2  2  0
  2  3  1  0
  3  4  1  0
  4  5  1  0
  5  6  2  0
  5  7  1  0
  7  8  1  0
  8  9  1  0
  9 10  1  0
 10 11  1  0
 10 12  1  0
 12 13  1  0
 13 14  1  0
 14 15  1  0
 15 16  1  0
 16 17  1  0
 17 18  1  0
  2 19  1  0
 19 20  2  0
 20 21  1  0
 21 22  2  0
 22 23  1  0
 23 24  2  0
 24 25  1  0
 24 26  1  0
 26 27  2  0
 27 28  1  0
 28 29  2  0
 12  7  1  0
 18 14  1  0
 29 19  1  0
 28 22  1  0
  3 30  1  0
  4 31  1  0
  4 32  1  0
  8 33  1  0
  8 34  1  0
  9 35  1  0
  9 36  1  0
 10 37  1  1
 11 38  1  0
 12 39  1  6
 13 40  1  0
 13 41  1  0
 15 42  1  0
 15 43  1  0
 16 44  1  0
 16 45  1  0
 17 46  1  0
 17 47  1  0
 18 48  1  0
 18 49  1  0
 20 50  1  0
 21 51  1  0
 23 52  1  0
 26 53  1  0
 27 54  1  0
M  END
>  <smiles>  (41) 
O=C(NCC(=O)N1CC[C@H](O)[C@H]1CN1CCCC1)c1ccc2cc(F)ccc2n1

>  <score_type>  (41) 
oracle

>  <origin>  (41) 
autodockgpu

>  <m_score__min__energy>  (41) 
-8.5600000000000005

>  <m_primary>  (41) 
energy

>  <rmsd>  (41) 
4.09699754092234

>  <m_score__min__rmsd>  (41) 
4.09699754092234

>  <meeko>  (41) 
{"free_energy": -6.98, "intermolecular_energy": -9.07, "internal_energy": -2.06, "cluster_size": 28, "cluster_id": 1, "rank_in_cluster": 28}

>  <energy>  (41) 
-7.67

>  <cluster_rmsd>  (41) 
0.19

>  <cluster>  (41) 
4

$$$$

     RDKit          3D

 54 57  0  0  0  0  0  0  0  0999 V2000
  139.2790   75.2730  222.7230 O   0  0  0  0  0  0  0  0  0  0  0  0
  139.9760   75.3500  221.6980 C   0  0  0  0  0  0  0  0  0  0  0  0
  139.6780   76.4510  220.8090 N   0  0  0  0  0  0  0  0  0  0  0  0
  138.6400   77.3680  221.1130 C   0  0  0  0  0  0  0  0  0  0  0  0
  138.9430   78.7610  221.4230 C   0  0  0  0  0  0  0  0  0  0  0  0
  138.0260   79.5780  220.9700 O   0  0  0  0  0  0  0  0  0  0  0  0
  139.9930   79.3570  222.0960 N   0  0  0  0  0  0  0  0  0  0  0  0
  140.1880   79.6920  223.5290 C   0  0  0  0  0  0  0  0  0  0  0  0
  141.4640   78.9660  223.8220 C   0  0  0  0  0  0  0  0  0  0  0  0
  142.2440   79.1070  222.5070 C   0  0  2  0  0  0  0  0  0  0  0  0
  143.4220   79.8290  222.7600 O   0  0  0  0  0  0  0  0  0  0  0  0
  141.3110   79.8450  221.5950 C   0  0  1  0  0  0  0  0  0  0  0  0
  141.4400   79.6530  220.1610 C   0  0  0  0  0  0  0  0  0  0  0  0
  141.4400   78.3390  219.6110 N   0  0  0  0  0  0  0  0  0  0  0  0
  142.5530   77.5040  219.7540 C   0  0  0  0  0  0  0  0  0  0  0  0
  142.8640   76.8820  218.4070 C   0  0  0  0  0  0  0  0  0  0  0  0
  141.9240   77.5410  217.4360 C   0  0  0  0  0  0  0  0  0  0  0  0
  140.8900   78.2180  218.3010 C   0  0  0  0  0  0  0  0  0  0  0  0
  141.0440   74.4270  221.3460 C   0  0  0  0  0  0  0  0  0  0  0  0
  140.7860   73.0750  221.2920 C   0  0  0  0  0  0  0  0  0  0  0  0
  141.8310   72.2260  220.9520 C   0  0  0  0  0  0  0  0  0  0  0  0
  143.0730   72.7470  220.6820 C   0  0  0  0  0  0  0  0  0  0  0  0
  144.0950   71.8800  220.3450 C   0  0  0  0  0  0  0  0  0  0  0  0
  145.3620   72.3530  220.0640 C   0  0  0  0  0  0  0  0  0  0  0  0
  146.3640   71.5040  219.7340 F   0  0  0  0  0  0  0  0  0  0  0  0
  145.5710   73.7120  220.1300 C   0  0  0  0  0  0  0  0  0  0  0  0
  144.5560   74.5860  220.4650 C   0  0  0  0  0  0  0  0  0  0  0  0
  143.3060   74.0880  220.7400 C   0  0  0  0  0  0  0  0  0  0  0  0
  142.2800   74.8920  221.0710 N   0  0  0  0  0  0  0  0  0  0  0  0
  140.2670   76.5350  219.9340 H   0  0  0  0  0  0  0  0  0  0  0  0
  137.9662   77.3791  220.2436 H   0  0  0  0  0  0  0  0  0  0  0  0
  138.2464   76.9851  222.0661 H   0  0  0  0  0  0  0  0  0  0  0  0
  140.2967   80.7763  223.6791 H   0  0  0  0  0  0  0  0  0  0  0  0
  139.3466   79.4097  224.1789 H   0  0  0  0  0  0  0  0  0  0  0  0
  142.0051   79.4364  224.6562 H   0  0  0  0  0  0  0  0  0  0  0  0
  141.3104   77.9206  224.1278 H   0  0  0  0  0  0  0  0  0  0  0  0
  142.5494   78.1499  222.0589 H   0  0  0  0  0  0  0  0  0  0  0  0
  144.0890   79.5910  222.0950 H   0  0  0  0  0  0  0  0  0  0  0  0
  141.5066   80.9264  221.6439 H   0  0  0  0  0  0  0  0  0  0  0  0
  140.6032   80.1921  219.6929 H   0  0  0  0  0  0  0  0  0  0  0  0
  142.4580   80.0127  219.9506 H   0  0  0  0  0  0  0  0  0  0  0  0
  143.4161   78.0921  220.0993 H   0  0  0  0  0  0  0  0  0  0  0  0
  142.3412   76.7169  220.4927 H   0  0  0  0  0  0  0  0  0  0  0  0
  143.9088   77.0783  218.1246 H   0  0  0  0  0  0  0  0  0  0  0  0
  142.7369   75.7895  218.4219 H   0  0  0  0  0  0  0  0  0  0  0  0
  142.4580   78.2797  216.8201 H   0  0  0  0  0  0  0  0  0  0  0  0
  141.4741   76.8193  216.7383 H   0  0  0  0  0  0  0  0  0  0  0  0
  140.6573   79.2146  217.8978 H   0  0  0  0  0  0  0  0  0  0  0  0
  139.9598   77.6314  218.3240 H   0  0  0  0  0  0  0  0  0  0  0  0
  139.7831   72.6800  221.5115 H   0  0  0  0  0  0  0  0  0  0  0  0
  141.6647   71.1399  220.8990 H   0  0  0  0  0  0  0  0  0  0  0  0
  143.8969   70.7989  220.2999 H   0  0  0  0  0  0  0  0  0  0  0  0
  146.5720   74.1118  219.9103 H   0  0  0  0  0  0  0  0  0  0  0  0
  144.7463   75.6684  220.5111 H   0  0  0  0  0  0  0  0  0  0  0  0
  1  2  2  0
  2  3  1  0
  3  4  1  0
  4  5  1  0
  5  6  2  0
  5  7  1  0
  7  8  1  0
  8  9  1  0
  9 10  1  0
 10 11  1  0
 10 12  1  0
 12 13  1  0
 13 14  1  0
 14 15  1  0
 15 16  1  0
 16 17  1  0
 17 18  1  0
  2 19  1  0
 19 20  2  0
 20 21  1  0
 21 22  2  0
 22 23  1  0
 23 24  2  0
 24 25  1  0
 24 26  1  0
 26 27  2  0
 27 28  1  0
 28 29  2  0
 12  7  1  0
 18 14  1  0
 29 19  1  0
 28 22  1  0
  3 30  1  0
  4 31  1  0
  4 32  1  0
  8 33  1  0
  8 34  1  0
  9 35  1  0
  9 36  1  0
 10 37  1  6
 11 38  1  0
 12 39  1  6
 13 40  1  0
 13 41  1  0
 15 42  1  0
 15 43  1  0
 16 44  1  0
 16 45  1  0
 17 46  1  0
 17 47  1  0
 18 48  1  0
 18 49  1  0
 20 50  1  0
 21 51  1  0
 23 52  1  0
 26 53  1  0
 27 54  1  0
M  END
>  <smiles>  (42) 
O=C(NCC(=O)N1CC[C@H](O)[C@H]1CN1CCCC1)c1ccc2cc(F)ccc2n1

>  <score_type>  (42) 
oracle

>  <origin>  (42) 
autodockgpu

>  <m_score__min__energy>  (42) 
-8.5600000000000005

>  <m_primary>  (42) 
energy

>  <rmsd>  (42) 
6.3162189901844235

>  <m_score__min__rmsd>  (42) 
6.3162189901844235

>  <meeko>  (42) 
{"free_energy": -5.93, "intermolecular_energy": -8.02, "internal_energy": -3.01, "cluster_size": 1, "cluster_id": 8, "rank_in_cluster": 1}

>  <energy>  (42) 
-7.64

>  <cluster_rmsd>  (42) 
0.31

>  <cluster>  (42) 
4

$$$$

     RDKit          3D

 54 57  0  0  0  0  0  0  0  0999 V2000
  140.8560   71.6020  221.2090 O   0  0  0  0  0  0  0  0  0  0  0  0
  140.3830   71.9960  222.2870 C   0  0  0  0  0  0  0  0  0  0  0  0
  139.9960   73.3890  222.3370 N   0  0  0  0  0  0  0  0  0  0  0  0
  140.1680   74.2310  221.2110 C   0  0  0  0  0  0  0  0  0  0  0  0
  140.8580   75.5110  221.3350 C   0  0  0  0  0  0  0  0  0  0  0  0
  140.4300   76.2040  222.3600 O   0  0  0  0  0  0  0  0  0  0  0  0
  141.8580   76.1040  220.5890 N   0  0  0  0  0  0  0  0  0  0  0  0
  143.1040   75.5600  219.9920 C   0  0  0  0  0  0  0  0  0  0  0  0
  142.9160   75.9290  218.5530 C   0  0  0  0  0  0  0  0  0  0  0  0
  142.1970   77.2820  218.6400 C   0  0  2  0  0  0  0  0  0  0  0  0
  143.0130   78.2630  218.0530 O   0  0  0  0  0  0  0  0  0  0  0  0
  142.0040   77.5100  220.1090 C   0  0  1  0  0  0  0  0  0  0  0  0
  140.8950   78.3390  220.5460 C   0  0  0  0  0  0  0  0  0  0  0  0
  141.0910   79.3260  221.5540 N   0  0  0  0  0  0  0  0  0  0  0  0
  142.2880   79.3860  222.2730 C   0  0  0  0  0  0  0  0  0  0  0  0
  141.9580   79.5280  223.7460 C   0  0  0  0  0  0  0  0  0  0  0  0
  140.4620   79.3980  223.8350 C   0  0  0  0  0  0  0  0  0  0  0  0
  139.9790   79.5590  222.4160 C   0  0  0  0  0  0  0  0  0  0  0  0
  140.1970   71.1680  223.4680 C   0  0  0  0  0  0  0  0  0  0  0  0
  139.5530   69.9560  223.3550 C   0  0  0  0  0  0  0  0  0  0  0  0
  139.3950   69.1930  224.5050 C   0  0  0  0  0  0  0  0  0  0  0  0
  139.8770   69.6590  225.7040 C   0  0  0  0  0  0  0  0  0  0  0  0
  139.7070   68.8790  226.8330 C   0  0  0  0  0  0  0  0  0  0  0  0
  140.1740   69.3020  228.0620 C   0  0  0  0  0  0  0  0  0  0  0  0
  140.0090   68.5390  229.1680 F   0  0  0  0  0  0  0  0  0  0  0  0
  140.8130   70.5200  228.1250 C   0  0  0  0  0  0  0  0  0  0  0  0
  140.9870   71.3060  227.0020 C   0  0  0  0  0  0  0  0  0  0  0  0
  140.5120   70.8610  225.7930 C   0  0  0  0  0  0  0  0  0  0  0  0
  140.6540   71.5830  224.6670 N   0  0  0  0  0  0  0  0  0  0  0  0
  139.5840   73.7400  223.2470 H   0  0  0  0  0  0  0  0  0  0  0  0
  140.7237   73.6459  220.4634 H   0  0  0  0  0  0  0  0  0  0  0  0
  139.1375   74.5309  220.9700 H   0  0  0  0  0  0  0  0  0  0  0  0
  143.9983   76.0381  220.4181 H   0  0  0  0  0  0  0  0  0  0  0  0
  143.2596   74.4854  220.1680 H   0  0  0  0  0  0  0  0  0  0  0  0
  143.8838   76.0269  218.0394 H   0  0  0  0  0  0  0  0  0  0  0  0
  142.3570   75.1749  217.9795 H   0  0  0  0  0  0  0  0  0  0  0  0
  141.2331   77.3146  218.1110 H   0  0  0  0  0  0  0  0  0  0  0  0
  143.7180   78.5040  218.6770 H   0  0  0  0  0  0  0  0  0  0  0  0
  142.8362   78.1039  220.5149 H   0  0  0  0  0  0  0  0  0  0  0  0
  140.5237   78.8662  219.6549 H   0  0  0  0  0  0  0  0  0  0  0  0
  140.2192   77.6183  221.0295 H   0  0  0  0  0  0  0  0  0  0  0  0
  142.8657   78.4643  222.1094 H   0  0  0  0  0  0  0  0  0  0  0  0
  142.8870   80.2450  221.9365 H   0  0  0  0  0  0  0  0  0  0  0  0
  142.4485   78.7342  224.3285 H   0  0  0  0  0  0  0  0  0  0  0  0
  142.3100   80.4873  224.1533 H   0  0  0  0  0  0  0  0  0  0  0  0
  140.1812   78.4108  224.2307 H   0  0  0  0  0  0  0  0  0  0  0  0
  140.0190   80.1428  224.5125 H   0  0  0  0  0  0  0  0  0  0  0  0
  139.1822   78.8304  222.2059 H   0  0  0  0  0  0  0  0  0  0  0  0
  139.5722   80.5687  222.2581 H   0  0  0  0  0  0  0  0  0  0  0  0
  139.1753   69.6030  222.3840 H   0  0  0  0  0  0  0  0  0  0  0  0
  138.8858   68.2192  224.4557 H   0  0  0  0  0  0  0  0  0  0  0  0
  139.1935   67.9096  226.7513 H   0  0  0  0  0  0  0  0  0  0  0  0
  141.1944   70.8761  229.0933 H   0  0  0  0  0  0  0  0  0  0  0  0
  141.4998   72.2764  227.0756 H   0  0  0  0  0  0  0  0  0  0  0  0
  1  2  2  0
  2  3  1  0
  3  4  1  0
  4  5  1  0
  5  6  2  0
  5  7  1  0
  7  8  1  0
  8  9  1  0
  9 10  1  0
 10 11  1  0
 10 12  1  0
 12 13  1  0
 13 14  1  0
 14 15  1  0
 15 16  1  0
 16 17  1  0
 17 18  1  0
  2 19  1  0
 19 20  2  0
 20 21  1  0
 21 22  2  0
 22 23  1  0
 23 24  2  0
 24 25  1  0
 24 26  1  0
 26 27  2  0
 27 28  1  0
 28 29  2  0
 12  7  1  0
 18 14  1  0
 29 19  1  0
 28 22  1  0
  3 30  1  0
  4 31  1  0
  4 32  1  0
  8 33  1  0
  8 34  1  0
  9 35  1  0
  9 36  1  0
 10 37  1  6
 11 38  1  0
 12 39  1  1
 13 40  1  0
 13 41  1  0
 15 42  1  0
 15 43  1  0
 16 44  1  0
 16 45  1  0
 17 46  1  0
 17 47  1  0
 18 48  1  0
 18 49  1  0
 20 50  1  0
 21 51  1  0
 23 52  1  0
 26 53  1  0
 27 54  1  0
M  END
>  <smiles>  (43) 
O=C(NCC(=O)N1CC[C@H](O)[C@H]1CN1CCCC1)c1ccc2cc(F)ccc2n1

>  <score_type>  (43) 
oracle

>  <origin>  (43) 
autodockgpu

>  <m_score__min__energy>  (43) 
-8.5600000000000005

>  <m_primary>  (43) 
energy

>  <rmsd>  (43) 
2.5450018883256047

>  <m_score__min__rmsd>  (43) 
2.5450018883256047

>  <meeko>  (43) 
{"free_energy": -8.12, "intermolecular_energy": -10.21, "internal_energy": -1.48, "cluster_size": 28, "cluster_id": 1, "rank_in_cluster": 15}

>  <energy>  (43) 
-7.69

>  <cluster_rmsd>  (43) 
0.0

>  <cluster>  (43) 
5

$$$$

     RDKit          3D

 54 57  0  0  0  0  0  0  0  0999 V2000
  141.0950   72.3020  221.5210 O   0  0  0  0  0  0  0  0  0  0  0  0
  140.2240   72.3580  222.4050 C   0  0  0  0  0  0  0  0  0  0  0  0
  139.2370   73.4050  222.2560 N   0  0  0  0  0  0  0  0  0  0  0  0
  139.2910   74.3030  221.1610 C   0  0  0  0  0  0  0  0  0  0  0  0
  140.4360   75.1900  220.9810 C   0  0  0  0  0  0  0  0  0  0  0  0
  141.0460   75.4440  222.1120 O   0  0  0  0  0  0  0  0  0  0  0  0
  140.9810   75.7890  219.8610 N   0  0  0  0  0  0  0  0  0  0  0  0
  140.6430   77.0460  219.1480 C   0  0  0  0  0  0  0  0  0  0  0  0
  141.9600   77.7580  219.1820 C   0  0  0  0  0  0  0  0  0  0  0  0
  142.9700   76.6100  219.0430 C   0  0  2  0  0  0  0  0  0  0  0  0
  143.7000   76.7960  217.8570 O   0  0  0  0  0  0  0  0  0  0  0  0
  142.1260   75.3710  219.0000 C   0  0  1  0  0  0  0  0  0  0  0  0
  142.7030   74.1180  219.4530 C   0  0  0  0  0  0  0  0  0  0  0  0
  144.1130   73.9230  219.4140 N   0  0  0  0  0  0  0  0  0  0  0  0
  144.6540   72.6780  219.0770 C   0  0  0  0  0  0  0  0  0  0  0  0
  145.7390   72.3370  220.0790 C   0  0  0  0  0  0  0  0  0  0  0  0
  145.6840   73.4270  221.1150 C   0  0  0  0  0  0  0  0  0  0  0  0
  144.8490   74.5130  220.4840 C   0  0  0  0  0  0  0  0  0  0  0  0
  140.1370   71.4610  223.5470 C   0  0  0  0  0  0  0  0  0  0  0  0
  139.5620   70.2200  223.3960 C   0  0  0  0  0  0  0  0  0  0  0  0
  139.4970   69.3920  224.5090 C   0  0  0  0  0  0  0  0  0  0  0  0
  140.0010   69.8260  225.7110 C   0  0  0  0  0  0  0  0  0  0  0  0
  139.9250   68.9820  226.8030 C   0  0  0  0  0  0  0  0  0  0  0  0
  140.4170   69.3700  228.0340 C   0  0  0  0  0  0  0  0  0  0  0  0
  140.3440   68.5440  229.1040 F   0  0  0  0  0  0  0  0  0  0  0  0
  140.9840   70.6200  228.1360 C   0  0  0  0  0  0  0  0  0  0  0  0
  141.0650   71.4700  227.0500 C   0  0  0  0  0  0  0  0  0  0  0  0
  140.5670   71.0590  225.8390 C   0  0  0  0  0  0  0  0  0  0  0  0
  140.6190   71.8430  224.7470 N   0  0  0  0  0  0  0  0  0  0  0  0
  138.4830   73.4630  222.9970 H   0  0  0  0  0  0  0  0  0  0  0  0
  139.2208   73.6915  220.2493 H   0  0  0  0  0  0  0  0  0  0  0  0
  138.4701   75.0027  221.3768 H   0  0  0  0  0  0  0  0  0  0  0  0
  140.3167   76.8497  218.1160 H   0  0  0  0  0  0  0  0  0  0  0  0
  139.8111   77.6105  219.5945 H   0  0  0  0  0  0  0  0  0  0  0  0
  142.0488   78.4674  218.3460 H   0  0  0  0  0  0  0  0  0  0  0  0
  142.1067   78.3599  220.0910 H   0  0  0  0  0  0  0  0  0  0  0  0
  143.7032   76.5536  219.8611 H   0  0  0  0  0  0  0  0  0  0  0  0
  144.4550   76.1850  217.8500 H   0  0  0  0  0  0  0  0  0  0  0  0
  141.9070   75.0948  217.9580 H   0  0  0  0  0  0  0  0  0  0  0  0
  142.3943   73.9878  220.5007 H   0  0  0  0  0  0  0  0  0  0  0  0
  142.3289   73.3898  218.7183 H   0  0  0  0  0  0  0  0  0  0  0  0
  143.8664   71.9107  219.1077 H   0  0  0  0  0  0  0  0  0  0  0  0
  145.0765   72.7133  218.0620 H   0  0  0  0  0  0  0  0  0  0  0  0
  145.5429   71.3577  220.5401 H   0  0  0  0  0  0  0  0  0  0  0  0
  146.7291   72.2741  219.6039 H   0  0  0  0  0  0  0  0  0  0  0  0
  145.2111   73.0611  222.0383 H   0  0  0  0  0  0  0  0  0  0  0  0
  146.6855   73.7833  221.3979 H   0  0  0  0  0  0  0  0  0  0  0  0
  144.1569   74.9344  221.2280 H   0  0  0  0  0  0  0  0  0  0  0  0
  145.4895   75.3258  220.1109 H   0  0  0  0  0  0  0  0  0  0  0  0
  139.1658   69.8937  222.4231 H   0  0  0  0  0  0  0  0  0  0  0  0
  139.0439   68.3929  224.4285 H   0  0  0  0  0  0  0  0  0  0  0  0
  139.4667   67.9884  226.6902 H   0  0  0  0  0  0  0  0  0  0  0  0
  141.3826   70.9505  229.1065 H   0  0  0  0  0  0  0  0  0  0  0  0
  141.5233   72.4645  227.1547 H   0  0  0  0  0  0  0  0  0  0  0  0
  1  2  2  0
  2  3  1  0
  3  4  1  0
  4  5  1  0
  5  6  2  0
  5  7  1  0
  7  8  1  0
  8  9  1  0
  9 10  1  0
 10 11  1  0
 10 12  1  0
 12 13  1  0
 13 14  1  0
 14 15  1  0
 15 16  1  0
 16 17  1  0
 17 18  1  0
  2 19  1  0
 19 20  2  0
 20 21  1  0
 21 22  2  0
 22 23  1  0
 23 24  2  0
 24 25  1  0
 24 26  1  0
 26 27  2  0
 27 28  1  0
 28 29  2  0
 12  7  1  0
 18 14  1  0
 29 19  1  0
 28 22  1  0
  3 30  1  0
  4 31  1  0
  4 32  1  0
  8 33  1  0
  8 34  1  0
  9 35  1  0
  9 36  1  0
 10 37  1  1
 11 38  1  0
 12 39  1  6
 13 40  1  0
 13 41  1  0
 15 42  1  0
 15 43  1  0
 16 44  1  0
 16 45  1  0
 17 46  1  0
 17 47  1  0
 18 48  1  0
 18 49  1  0
 20 50  1  0
 21 51  1  0
 23 52  1  0
 26 53  1  0
 27 54  1  0
M  END
>  <smiles>  (44) 
O=C(NCC(=O)N1CC[C@H](O)[C@H]1CN1CCCC1)c1ccc2cc(F)ccc2n1

>  <score_type>  (44) 
oracle

>  <origin>  (44) 
autodockgpu

>  <m_score__min__energy>  (44) 
-8.5600000000000005

>  <m_primary>  (44) 
energy

>  <rmsd>  (44) 
4.057561979099466

>  <m_score__min__rmsd>  (44) 
4.057561979099466

>  <meeko>  (44) 
{"free_energy": -8.02, "intermolecular_energy": -10.11, "internal_energy": -1.58, "cluster_size": 28, "cluster_id": 1, "rank_in_cluster": 17}

>  <energy>  (44) 
-7.65

>  <cluster_rmsd>  (44) 
0.0

>  <cluster>  (44) 
6

$$$$

     RDKit          3D

 54 57  0  0  0  0  0  0  0  0999 V2000
  138.9050   70.8200  221.5780 O   0  0  0  0  0  0  0  0  0  0  0  0
  139.3070   71.2350  222.6770 C   0  0  0  0  0  0  0  0  0  0  0  0
  139.5970   72.6500  222.7510 N   0  0  0  0  0  0  0  0  0  0  0  0
  139.4320   73.4860  221.6190 C   0  0  0  0  0  0  0  0  0  0  0  0
  139.6370   74.9270  221.7200 C   0  0  0  0  0  0  0  0  0  0  0  0
  140.8770   75.2290  222.0140 O   0  0  0  0  0  0  0  0  0  0  0  0
  138.7840   76.0010  221.5600 N   0  0  0  0  0  0  0  0  0  0  0  0
  137.3770   76.0880  221.0920 C   0  0  0  0  0  0  0  0  0  0  0  0
  136.7300   76.7750  222.2550 C   0  0  0  0  0  0  0  0  0  0  0  0
  137.8280   77.7360  222.7340 C   0  0  2  0  0  0  0  0  0  0  0  0
  137.3600   79.0530  222.6010 O   0  0  0  0  0  0  0  0  0  0  0  0
  138.9930   77.4540  221.8340 C   0  0  1  0  0  0  0  0  0  0  0  0
  140.3330   77.7140  222.3260 C   0  0  0  0  0  0  0  0  0  0  0  0
  140.6150   78.9150  223.0390 N   0  0  0  0  0  0  0  0  0  0  0  0
  140.4690   80.1620  222.4250 C   0  0  0  0  0  0  0  0  0  0  0  0
  141.7010   80.9940  222.7250 C   0  0  0  0  0  0  0  0  0  0  0  0
  142.6420   80.0680  223.4470 C   0  0  0  0  0  0  0  0  0  0  0  0
  141.7880   78.8920  223.8490 C   0  0  0  0  0  0  0  0  0  0  0  0
  139.4980   70.4110  223.8600 C   0  0  0  0  0  0  0  0  0  0  0  0
  139.0810   69.0990  223.8500 C   0  0  0  0  0  0  0  0  0  0  0  0
  139.2800   68.3430  224.9980 C   0  0  0  0  0  0  0  0  0  0  0  0
  139.8790   68.9150  226.0950 C   0  0  0  0  0  0  0  0  0  0  0  0
  140.0670   68.1410  227.2250 C   0  0  0  0  0  0  0  0  0  0  0  0
  140.6640   68.6680  228.3530 C   0  0  0  0  0  0  0  0  0  0  0  0
  140.8480   67.9100  229.4600 F   0  0  0  0  0  0  0  0  0  0  0  0
  141.0650   69.9840  228.3150 C   0  0  0  0  0  0  0  0  0  0  0  0
  140.8810   70.7650  227.1910 C   0  0  0  0  0  0  0  0  0  0  0  0
  140.2850   70.2160  226.0830 C   0  0  0  0  0  0  0  0  0  0  0  0
  140.0810   70.9280  224.9610 N   0  0  0  0  0  0  0  0  0  0  0  0
  139.9350   73.0220  223.6830 H   0  0  0  0  0  0  0  0  0  0  0  0
  140.1342   73.1218  220.8546 H   0  0  0  0  0  0  0  0  0  0  0  0
  138.3549   73.4060  221.4105 H   0  0  0  0  0  0  0  0  0  0  0  0
  137.2935   76.6858  220.1724 H   0  0  0  0  0  0  0  0  0  0  0  0
  136.9260   75.1196  220.8297 H   0  0  0  0  0  0  0  0  0  0  0  0
  135.8310   77.3253  221.9404 H   0  0  0  0  0  0  0  0  0  0  0  0
  136.3869   76.0806  223.0361 H   0  0  0  0  0  0  0  0  0  0  0  0
  138.1119   77.6060  223.7887 H   0  0  0  0  0  0  0  0  0  0  0  0
  138.1100   79.6660  222.6780 H   0  0  0  0  0  0  0  0  0  0  0  0
  138.9858   78.1417  220.9755 H   0  0  0  0  0  0  0  0  0  0  0  0
  140.5915   76.8804  222.9955 H   0  0  0  0  0  0  0  0  0  0  0  0
  140.9210   77.8268  221.4032 H   0  0  0  0  0  0  0  0  0  0  0  0
  140.3660   80.0304  221.3378 H   0  0  0  0  0  0  0  0  0  0  0  0
  139.5705   80.6677  222.8084 H   0  0  0  0  0  0  0  0  0  0  0  0
  142.1576   81.3560  221.7920 H   0  0  0  0  0  0  0  0  0  0  0  0
  141.4584   81.8820  223.3272 H   0  0  0  0  0  0  0  0  0  0  0  0
  143.4566   79.7464  222.7814 H   0  0  0  0  0  0  0  0  0  0  0  0
  143.1191   80.5511  224.3124 H   0  0  0  0  0  0  0  0  0  0  0  0
  142.3392   77.9544  223.6845 H   0  0  0  0  0  0  0  0  0  0  0  0
  141.5230   78.9530  224.9149 H   0  0  0  0  0  0  0  0  0  0  0  0
  138.6046   68.6626  222.9597 H   0  0  0  0  0  0  0  0  0  0  0  0
  138.9597   67.2911  225.0292 H   0  0  0  0  0  0  0  0  0  0  0  0
  139.7367   67.0918  227.2255 H   0  0  0  0  0  0  0  0  0  0  0  0
  141.5439   70.4246  229.2018 H   0  0  0  0  0  0  0  0  0  0  0  0
  141.2083   71.8151  227.1837 H   0  0  0  0  0  0  0  0  0  0  0  0
  1  2  2  0
  2  3  1  0
  3  4  1  0
  4  5  1  0
  5  6  2  0
  5  7  1  0
  7  8  1  0
  8  9  1  0
  9 10  1  0
 10 11  1  0
 10 12  1  0
 12 13  1  0
 13 14  1  0
 14 15  1  0
 15 16  1  0
 16 17  1  0
 17 18  1  0
  2 19  1  0
 19 20  2  0
 20 21  1  0
 21 22  2  0
 22 23  1  0
 23 24  2  0
 24 25  1  0
 24 26  1  0
 26 27  2  0
 27 28  1  0
 28 29  2  0
 12  7  1  0
 18 14  1  0
 29 19  1  0
 28 22  1  0
  3 30  1  0
  4 31  1  0
  4 32  1  0
  8 33  1  0
  8 34  1  0
  9 35  1  0
  9 36  1  0
 10 37  1  1
 11 38  1  0
 12 39  1  6
 13 40  1  0
 13 41  1  0
 15 42  1  0
 15 43  1  0
 16 44  1  0
 16 45  1  0
 17 46  1  0
 17 47  1  0
 18 48  1  0
 18 49  1  0
 20 50  1  0
 21 51  1  0
 23 52  1  0
 26 53  1  0
 27 54  1  0
M  END
>  <smiles>  (45) 
O=C(NCC(=O)N1CC[C@H](O)[C@H]1CN1CCCC1)c1ccc2cc(F)ccc2n1

>  <score_type>  (45) 
oracle

>  <origin>  (45) 
autodockgpu

>  <m_score__min__energy>  (45) 
-8.5600000000000005

>  <m_primary>  (45) 
energy

>  <rmsd>  (45) 
3.283848789374602

>  <m_score__min__rmsd>  (45) 
3.283848789374602

>  <meeko>  (45) 
{"free_energy": -7.69, "intermolecular_energy": -9.78, "internal_energy": -1.34, "cluster_size": 1, "cluster_id": 5, "rank_in_cluster": 1}

>  <energy>  (45) 
-7.55

>  <cluster_rmsd>  (45) 
0.16

>  <cluster>  (45) 
6

$$$$

     RDKit          3D

 54 57  0  0  0  0  0  0  0  0999 V2000
  140.4120   74.0690  220.3320 O   0  0  0  0  0  0  0  0  0  0  0  0
  140.0840   74.8580  221.2340 C   0  0  0  0  0  0  0  0  0  0  0  0
  139.0810   74.3800  222.1600 N   0  0  0  0  0  0  0  0  0  0  0  0
  138.5170   73.0880  222.0160 C   0  0  0  0  0  0  0  0  0  0  0  0
  139.1270   71.9320  222.6640 C   0  0  0  0  0  0  0  0  0  0  0  0
  140.4260   72.0590  222.7770 O   0  0  0  0  0  0  0  0  0  0  0  0
  138.5950   70.7620  223.1700 N   0  0  0  0  0  0  0  0  0  0  0  0
  137.4880   69.8920  222.6990 C   0  0  0  0  0  0  0  0  0  0  0  0
  138.1900   68.5750  222.5760 C   0  0  0  0  0  0  0  0  0  0  0  0
  139.1870   68.6120  223.7430 C   0  0  2  0  0  0  0  0  0  0  0  0
  138.8800   67.5650  224.6280 O   0  0  0  0  0  0  0  0  0  0  0  0
  138.9840   69.9600  224.3670 C   0  0  1  0  0  0  0  0  0  0  0  0
  140.0920   70.5710  225.0800 C   0  0  0  0  0  0  0  0  0  0  0  0
  139.9820   70.8490  226.4730 N   0  0  0  0  0  0  0  0  0  0  0  0
  140.7270   71.8780  227.0570 C   0  0  0  0  0  0  0  0  0  0  0  0
  141.3570   71.3510  228.3320 C   0  0  0  0  0  0  0  0  0  0  0  0
  141.0320   69.8830  228.3610 C   0  0  0  0  0  0  0  0  0  0  0  0
  139.9460   69.7100  227.3300 C   0  0  0  0  0  0  0  0  0  0  0  0
  140.6320   76.1930  221.4120 C   0  0  0  0  0  0  0  0  0  0  0  0
  141.6090   76.6490  220.5540 C   0  0  0  0  0  0  0  0  0  0  0  0
  142.1080   77.9290  220.7560 C   0  0  0  0  0  0  0  0  0  0  0  0
  141.6210   78.6950  221.7880 C   0  0  0  0  0  0  0  0  0  0  0  0
  142.1340   79.9660  221.9660 C   0  0  0  0  0  0  0  0  0  0  0  0
  141.6790   80.7770  222.9880 C   0  0  0  0  0  0  0  0  0  0  0  0
  142.1800   82.0220  223.1640 F   0  0  0  0  0  0  0  0  0  0  0  0
  140.7020   80.2780  223.8190 C   0  0  0  0  0  0  0  0  0  0  0  0
  140.1830   79.0090  223.6490 C   0  0  0  0  0  0  0  0  0  0  0  0
  140.6540   78.2250  222.6250 C   0  0  0  0  0  0  0  0  0  0  0  0
  140.1860   76.9820  222.4110 N   0  0  0  0  0  0  0  0  0  0  0  0
  138.7960   75.0370  222.9390 H   0  0  0  0  0  0  0  0  0  0  0  0
  137.4857   73.1517  222.3933 H   0  0  0  0  0  0  0  0  0  0  0  0
  138.6630   72.8748  220.9468 H   0  0  0  0  0  0  0  0  0  0  0  0
  136.6701   69.8465  223.4331 H   0  0  0  0  0  0  0  0  0  0  0  0
  137.0047   70.2358  221.7726 H   0  0  0  0  0  0  0  0  0  0  0  0
  137.4844   67.7381  222.6839 H   0  0  0  0  0  0  0  0  0  0  0  0
  138.6697   68.4264  221.5973 H   0  0  0  0  0  0  0  0  0  0  0  0
  140.2367   68.4762  223.4437 H   0  0  0  0  0  0  0  0  0  0  0  0
  139.5710   66.8850  224.5670 H   0  0  0  0  0  0  0  0  0  0  0  0
  138.2602   69.8931  225.1926 H   0  0  0  0  0  0  0  0  0  0  0  0
  140.9552   69.9001  224.9583 H   0  0  0  0  0  0  0  0  0  0  0  0
  140.1584   71.5722  224.6292 H   0  0  0  0  0  0  0  0  0  0  0  0
  141.5141   72.2067  226.3624 H   0  0  0  0  0  0  0  0  0  0  0  0
  140.0746   72.7339  227.2844 H   0  0  0  0  0  0  0  0  0  0  0  0
  142.4462   71.5037  228.3147 H   0  0  0  0  0  0  0  0  0  0  0  0
  140.9754   71.8721  229.2225 H   0  0  0  0  0  0  0  0  0  0  0  0
  141.9164   69.2848  228.0966 H   0  0  0  0  0  0  0  0  0  0  0  0
  140.7149   69.5470  229.3593 H   0  0  0  0  0  0  0  0  0  0  0  0
  140.1250   68.7951  226.7461 H   0  0  0  0  0  0  0  0  0  0  0  0
  138.9626   69.6214  227.8149 H   0  0  0  0  0  0  0  0  0  0  0  0
  141.9823   76.0182  219.7339 H   0  0  0  0  0  0  0  0  0  0  0  0
  142.8897   78.3282  220.0929 H   0  0  0  0  0  0  0  0  0  0  0  0
  142.9145   80.3367  221.2853 H   0  0  0  0  0  0  0  0  0  0  0  0
  140.3246   80.9057  224.6397 H   0  0  0  0  0  0  0  0  0  0  0  0
  139.4022   78.6314  224.3256 H   0  0  0  0  0  0  0  0  0  0  0  0
  1  2  2  0
  2  3  1  0
  3  4  1  0
  4  5  1  0
  5  6  2  0
  5  7  1  0
  7  8  1  0
  8  9  1  0
  9 10  1  0
 10 11  1  0
 10 12  1  0
 12 13  1  0
 13 14  1  0
 14 15  1  0
 15 16  1  0
 16 17  1  0
 17 18  1  0
  2 19  1  0
 19 20  2  0
 20 21  1  0
 21 22  2  0
 22 23  1  0
 23 24  2  0
 24 25  1  0
 24 26  1  0
 26 27  2  0
 27 28  1  0
 28 29  2  0
 12  7  1  0
 18 14  1  0
 29 19  1  0
 28 22  1  0
  3 30  1  0
  4 31  1  0
  4 32  1  0
  8 33  1  0
  8 34  1  0
  9 35  1  0
  9 36  1  0
 10 37  1  6
 11 38  1  0
 12 39  1  1
 13 40  1  0
 13 41  1  0
 15 42  1  0
 15 43  1  0
 16 44  1  0
 16 45  1  0
 17 46  1  0
 17 47  1  0
 18 48  1  0
 18 49  1  0
 20 50  1  0
 21 51  1  0
 23 52  1  0
 26 53  1  0
 27 54  1  0
M  END
>  <smiles>  (46) 
O=C(NCC(=O)N1CC[C@H](O)[C@H]1CN1CCCC1)c1ccc2cc(F)ccc2n1

>  <score_type>  (46) 
oracle

>  <origin>  (46) 
autodockgpu

>  <m_score__min__energy>  (46) 
-8.5600000000000005

>  <m_primary>  (46) 
energy

>  <rmsd>  (46) 
9.411658339845772

>  <m_score__min__rmsd>  (46) 
9.411658339845772

>  <meeko>  (46) 
{"free_energy": -7.6, "intermolecular_energy": -9.69, "internal_energy": -1.41, "cluster_size": 5, "cluster_id": 3, "rank_in_cluster": 4}

>  <energy>  (46) 
-7.54

>  <cluster_rmsd>  (46) 
0.18

>  <cluster>  (46) 
6

$$$$

     RDKit          3D

 54 57  0  0  0  0  0  0  0  0999 V2000
  141.3920   72.6010  221.9480 O   0  0  0  0  0  0  0  0  0  0  0  0
  140.3770   72.4670  222.6510 C   0  0  0  0  0  0  0  0  0  0  0  0
  139.2780   73.3580  222.3530 N   0  0  0  0  0  0  0  0  0  0  0  0
  139.3850   74.3220  221.3190 C   0  0  0  0  0  0  0  0  0  0  0  0
  140.2060   75.5160  221.4950 C   0  0  0  0  0  0  0  0  0  0  0  0
  139.7470   76.2950  222.4410 O   0  0  0  0  0  0  0  0  0  0  0  0
  141.3520   75.9560  220.8630 N   0  0  0  0  0  0  0  0  0  0  0  0
  142.5670   75.2390  220.4000 C   0  0  0  0  0  0  0  0  0  0  0  0
  142.5870   75.6130  218.9500 C   0  0  0  0  0  0  0  0  0  0  0  0
  142.0570   77.0540  218.9650 C   0  0  2  0  0  0  0  0  0  0  0  0
  143.0600   77.9050  218.4720 O   0  0  0  0  0  0  0  0  0  0  0  0
  141.7420   77.3230  220.4060 C   0  0  1  0  0  0  0  0  0  0  0  0
  140.7190   78.3020  220.7250 C   0  0  0  0  0  0  0  0  0  0  0  0
  140.9820   79.3320  221.6720 N   0  0  0  0  0  0  0  0  0  0  0  0
  142.1790   80.0540  221.6300 C   0  0  0  0  0  0  0  0  0  0  0  0
  142.7440   80.1310  223.0350 C   0  0  0  0  0  0  0  0  0  0  0  0
  141.8460   79.2650  223.8750 C   0  0  0  0  0  0  0  0  0  0  0  0
  140.6240   79.0380  223.0210 C   0  0  0  0  0  0  0  0  0  0  0  0
  140.2300   71.4980  223.7250 C   0  0  0  0  0  0  0  0  0  0  0  0
  139.6190   70.2900  223.4730 C   0  0  0  0  0  0  0  0  0  0  0  0
  139.4960   69.3900  224.5240 C   0  0  0  0  0  0  0  0  0  0  0  0
  139.9820   69.7220  225.7660 C   0  0  0  0  0  0  0  0  0  0  0  0
  139.8480   68.8070  226.7940 C   0  0  0  0  0  0  0  0  0  0  0  0
  140.3190   69.0930  228.0610 C   0  0  0  0  0  0  0  0  0  0  0  0
  140.1890   68.1980  229.0680 F   0  0  0  0  0  0  0  0  0  0  0  0
  140.9240   70.3120  228.2640 C   0  0  0  0  0  0  0  0  0  0  0  0
  141.0620   71.2320  227.2430 C   0  0  0  0  0  0  0  0  0  0  0  0
  140.5840   70.9230  225.9930 C   0  0  0  0  0  0  0  0  0  0  0  0
  140.6910   71.7790  224.9610 N   0  0  0  0  0  0  0  0  0  0  0  0
  138.4030   73.2540  222.9390 H   0  0  0  0  0  0  0  0  0  0  0  0
  139.7812   73.7953  220.4383 H   0  0  0  0  0  0  0  0  0  0  0  0
  138.3659   74.7319  221.2597 H   0  0  0  0  0  0  0  0  0  0  0  0
  143.4684   75.5942  220.9209 H   0  0  0  0  0  0  0  0  0  0  0  0
  142.5521   74.1552  220.5877 H   0  0  0  0  0  0  0  0  0  0  0  0
  143.6083   75.5703  218.5435 H   0  0  0  0  0  0  0  0  0  0  0  0
  141.9940   74.9367  218.3168 H   0  0  0  0  0  0  0  0  0  0  0  0
  141.1684   77.2144  218.3367 H   0  0  0  0  0  0  0  0  0  0  0  0
  143.7840   77.9490  219.1180 H   0  0  0  0  0  0  0  0  0  0  0  0
  142.6007   77.8006  220.9005 H   0  0  0  0  0  0  0  0  0  0  0  0
  140.4530   78.8005  219.7812 H   0  0  0  0  0  0  0  0  0  0  0  0
  139.9425   77.7000  221.2196 H   0  0  0  0  0  0  0  0  0  0  0  0
  142.8962   79.5453  220.9690 H   0  0  0  0  0  0  0  0  0  0  0  0
  141.9949   81.0666  221.2418 H   0  0  0  0  0  0  0  0  0  0  0  0
  143.7757   79.7500  223.0563 H   0  0  0  0  0  0  0  0  0  0  0  0
  142.7778   81.1660  223.4060 H   0  0  0  0  0  0  0  0  0  0  0  0
  142.3378   78.3095  224.1101 H   0  0  0  0  0  0  0  0  0  0  0  0
  141.5986   79.7340  224.8388 H   0  0  0  0  0  0  0  0  0  0  0  0
  140.2979   77.9907  223.1031 H   0  0  0  0  0  0  0  0  0  0  0  0
  139.7960   79.6826  223.3510 H   0  0  0  0  0  0  0  0  0  0  0  0
  139.2398   70.0451  222.4699 H   0  0  0  0  0  0  0  0  0  0  0  0
  139.0116   68.4156  224.3629 H   0  0  0  0  0  0  0  0  0  0  0  0
  139.3607   67.8400  226.6008 H   0  0  0  0  0  0  0  0  0  0  0  0
  141.3075   70.5601  229.2647 H   0  0  0  0  0  0  0  0  0  0  0  0
  141.5490   72.2007  227.4288 H   0  0  0  0  0  0  0  0  0  0  0  0
  1  2  2  0
  2  3  1  0
  3  4  1  0
  4  5  1  0
  5  6  2  0
  5  7  1  0
  7  8  1  0
  8  9  1  0
  9 10  1  0
 10 11  1  0
 10 12  1  0
 12 13  1  0
 13 14  1  0
 14 15  1  0
 15 16  1  0
 16 17  1  0
 17 18  1  0
  2 19  1  0
 19 20  2  0
 20 21  1  0
 21 22  2  0
 22 23  1  0
 23 24  2  0
 24 25  1  0
 24 26  1  0
 26 27  2  0
 27 28  1  0
 28 29  2  0
 12  7  1  0
 18 14  1  0
 29 19  1  0
 28 22  1  0
  3 30  1  0
  4 31  1  0
  4 32  1  0
  8 33  1  0
  8 34  1  0
  9 35  1  0
  9 36  1  0
 10 37  1  6
 11 38  1  0
 12 39  1  1
 13 40  1  0
 13 41  1  0
 15 42  1  0
 15 43  1  0
 16 44  1  0
 16 45  1  0
 17 46  1  0
 17 47  1  0
 18 48  1  0
 18 49  1  0
 20 50  1  0
 21 51  1  0
 23 52  1  0
 26 53  1  0
 27 54  1  0
M  END
>  <smiles>  (47) 
O=C(NCC(=O)N1CC[C@H](O)[C@H]1CN1CCCC1)c1ccc2cc(F)ccc2n1

>  <score_type>  (47) 
oracle

>  <origin>  (47) 
autodockgpu

>  <m_score__min__energy>  (47) 
-8.5600000000000005

>  <m_primary>  (47) 
energy

>  <rmsd>  (47) 
2.582782771092533

>  <m_score__min__rmsd>  (47) 
2.582782771092533

>  <meeko>  (47) 
{"free_energy": -8.55, "intermolecular_energy": -10.64, "internal_energy": -1.36, "cluster_size": 28, "cluster_id": 1, "rank_in_cluster": 2}

>  <energy>  (47) 
-7.46

>  <cluster_rmsd>  (47) 
0.38

>  <cluster>  (47) 
6

$$$$

     RDKit          3D

 54 57  0  0  0  0  0  0  0  0999 V2000
  141.5990   73.5870  220.4930 O   0  0  0  0  0  0  0  0  0  0  0  0
  141.0110   74.3980  221.2280 C   0  0  0  0  0  0  0  0  0  0  0  0
  140.0410   73.8380  222.1420 N   0  0  0  0  0  0  0  0  0  0  0  0
  139.7900   72.4430  222.1700 C   0  0  0  0  0  0  0  0  0  0  0  0
  138.5380   71.9210  222.7070 C   0  0  0  0  0  0  0  0  0  0  0  0
  137.5130   72.6670  222.3790 O   0  0  0  0  0  0  0  0  0  0  0  0
  138.2470   70.8100  223.4730 N   0  0  0  0  0  0  0  0  0  0  0  0
  137.0570   69.9230  223.5200 C   0  0  0  0  0  0  0  0  0  0  0  0
  137.6830   68.5880  223.2620 C   0  0  0  0  0  0  0  0  0  0  0  0
  139.0390   68.7060  223.9730 C   0  0  2  0  0  0  0  0  0  0  0  0
  139.0940   67.7460  224.9970 O   0  0  0  0  0  0  0  0  0  0  0  0
  139.0600   70.1070  224.5080 C   0  0  1  0  0  0  0  0  0  0  0  0
  140.3430   70.7570  224.7080 C   0  0  0  0  0  0  0  0  0  0  0  0
  141.0100   70.6570  225.9620 N   0  0  0  0  0  0  0  0  0  0  0  0
  140.5950   69.7280  226.9220 C   0  0  0  0  0  0  0  0  0  0  0  0
  140.5120   70.4280  228.2640 C   0  0  0  0  0  0  0  0  0  0  0  0
  140.7750   71.8800  227.9750 C   0  0  0  0  0  0  0  0  0  0  0  0
  141.3510   71.8960  226.5820 C   0  0  0  0  0  0  0  0  0  0  0  0
  141.2330   75.8350  221.2260 C   0  0  0  0  0  0  0  0  0  0  0  0
  141.8220   76.4320  220.1340 C   0  0  0  0  0  0  0  0  0  0  0  0
  142.0170   77.8070  220.1680 C   0  0  0  0  0  0  0  0  0  0  0  0
  141.6230   78.5240  221.2730 C   0  0  0  0  0  0  0  0  0  0  0  0
  141.8270   79.8900  221.2810 C   0  0  0  0  0  0  0  0  0  0  0  0
  141.4490   80.6560  222.3670 C   0  0  0  0  0  0  0  0  0  0  0  0
  141.6480   81.9960  222.3760 F   0  0  0  0  0  0  0  0  0  0  0  0
  140.8620   80.0160  223.4340 C   0  0  0  0  0  0  0  0  0  0  0  0
  140.6540   78.6500  223.4340 C   0  0  0  0  0  0  0  0  0  0  0  0
  141.0410   77.9130  222.3430 C   0  0  0  0  0  0  0  0  0  0  0  0
  140.8620   76.5810  222.2870 N   0  0  0  0  0  0  0  0  0  0  0  0
  139.5360   74.5150  222.7800 H   0  0  0  0  0  0  0  0  0  0  0  0
  139.8564   72.0911  221.1299 H   0  0  0  0  0  0  0  0  0  0  0  0
  140.5369   72.0744  222.8885 H   0  0  0  0  0  0  0  0  0  0  0  0
  136.5677   69.9558  224.5047 H   0  0  0  0  0  0  0  0  0  0  0  0
  136.2616   70.1947  222.8105 H   0  0  0  0  0  0  0  0  0  0  0  0
  137.0784   67.7767  223.6936 H   0  0  0  0  0  0  0  0  0  0  0  0
  137.7713   68.3474  222.1923 H   0  0  0  0  0  0  0  0  0  0  0  0
  139.9068   68.5242  223.3219 H   0  0  0  0  0  0  0  0  0  0  0  0
  140.0210   67.6090  225.2540 H   0  0  0  0  0  0  0  0  0  0  0  0
  138.6913   70.1244  225.5442 H   0  0  0  0  0  0  0  0  0  0  0  0
  141.0276   70.3452  223.9518 H   0  0  0  0  0  0  0  0  0  0  0  0
  140.0946   71.8265  224.6414 H   0  0  0  0  0  0  0  0  0  0  0  0
  139.6066   69.3293  226.6497 H   0  0  0  0  0  0  0  0  0  0  0  0
  141.3115   68.8950  226.9750 H   0  0  0  0  0  0  0  0  0  0  0  0
  139.5123   70.2983  228.7043 H   0  0  0  0  0  0  0  0  0  0  0  0
  141.2346   70.0173  228.9846 H   0  0  0  0  0  0  0  0  0  0  0  0
  139.8404   72.4587  228.0147 H   0  0  0  0  0  0  0  0  0  0  0  0
  141.4548   72.3339  228.7111 H   0  0  0  0  0  0  0  0  0  0  0  0
  140.9245   72.7325  226.0090 H   0  0  0  0  0  0  0  0  0  0  0  0
  142.4430   72.0243  226.6160 H   0  0  0  0  0  0  0  0  0  0  0  0
  142.1290   75.8378  219.2607 H   0  0  0  0  0  0  0  0  0  0  0  0
  142.4846   78.3199  219.3146 H   0  0  0  0  0  0  0  0  0  0  0  0
  142.2963   80.3741  220.4119 H   0  0  0  0  0  0  0  0  0  0  0  0
  140.5506   80.6062  224.3085 H   0  0  0  0  0  0  0  0  0  0  0  0
  140.1836   78.1589  224.2986 H   0  0  0  0  0  0  0  0  0  0  0  0
  1  2  2  0
  2  3  1  0
  3  4  1  0
  4  5  1  0
  5  6  2  0
  5  7  1  0
  7  8  1  0
  8  9  1  0
  9 10  1  0
 10 11  1  0
 10 12  1  0
 12 13  1  0
 13 14  1  0
 14 15  1  0
 15 16  1  0
 16 17  1  0
 17 18  1  0
  2 19  1  0
 19 20  2  0
 20 21  1  0
 21 22  2  0
 22 23  1  0
 23 24  2  0
 24 25  1  0
 24 26  1  0
 26 27  2  0
 27 28  1  0
 28 29  2  0
 12  7  1  0
 18 14  1  0
 29 19  1  0
 28 22  1  0
  3 30  1  0
  4 31  1  0
  4 32  1  0
  8 33  1  0
  8 34  1  0
  9 35  1  0
  9 36  1  0
 10 37  1  6
 11 38  1  0
 12 39  1  1
 13 40  1  0
 13 41  1  0
 15 42  1  0
 15 43  1  0
 16 44  1  0
 16 45  1  0
 17 46  1  0
 17 47  1  0
 18 48  1  0
 18 49  1  0
 20 50  1  0
 21 51  1  0
 23 52  1  0
 26 53  1  0
 27 54  1  0
M  END
>  <smiles>  (48) 
O=C(NCC(=O)N1CC[C@H](O)[C@H]1CN1CCCC1)c1ccc2cc(F)ccc2n1

>  <score_type>  (48) 
oracle

>  <origin>  (48) 
autodockgpu

>  <m_score__min__energy>  (48) 
-8.5600000000000005

>  <m_primary>  (48) 
energy

>  <rmsd>  (48) 
9.300613369507438

>  <m_score__min__rmsd>  (48) 
9.300613369507438

>  <meeko>  (48) 
{"free_energy": -7.83, "intermolecular_energy": -9.92, "internal_energy": -1.52, "cluster_size": 5, "cluster_id": 3, "rank_in_cluster": 3}

>  <energy>  (48) 
-7.26

>  <cluster_rmsd>  (48) 
0.49

>  <cluster>  (48) 
6

$$$$

     RDKit          3D

 54 57  0  0  0  0  0  0  0  0999 V2000
  139.4000   70.9670  221.2140 O   0  0  0  0  0  0  0  0  0  0  0  0
  139.5590   71.4280  222.3570 C   0  0  0  0  0  0  0  0  0  0  0  0
  139.6550   72.8680  222.4510 N   0  0  0  0  0  0  0  0  0  0  0  0
  139.5770   73.6780  221.2910 C   0  0  0  0  0  0  0  0  0  0  0  0
  140.3720   74.8970  221.1780 C   0  0  0  0  0  0  0  0  0  0  0  0
  140.5650   75.4690  222.3400 O   0  0  0  0  0  0  0  0  0  0  0  0
  140.9460   75.5350  220.0960 N   0  0  0  0  0  0  0  0  0  0  0  0
  140.5400   76.7380  219.3260 C   0  0  0  0  0  0  0  0  0  0  0  0
  141.7660   77.5890  219.4570 C   0  0  0  0  0  0  0  0  0  0  0  0
  142.9010   76.5550  219.4320 C   0  0  2  0  0  0  0  0  0  0  0  0
  143.7080   76.8030  218.3100 O   0  0  0  0  0  0  0  0  0  0  0  0
  142.2000   75.2320  219.3460 C   0  0  1  0  0  0  0  0  0  0  0  0
  142.8660   74.0550  219.8770 C   0  0  0  0  0  0  0  0  0  0  0  0
  144.2590   73.8580  219.6550 N   0  0  0  0  0  0  0  0  0  0  0  0
  144.7490   72.6130  219.2500 C   0  0  0  0  0  0  0  0  0  0  0  0
  145.9550   72.2700  220.1030 C   0  0  0  0  0  0  0  0  0  0  0  0
  146.0360   73.3590  221.1370 C   0  0  0  0  0  0  0  0  0  0  0  0
  145.1280   74.4460  220.6210 C   0  0  0  0  0  0  0  0  0  0  0  0
  139.6520   70.6320  223.5700 C   0  0  0  0  0  0  0  0  0  0  0  0
  139.1630   69.3450  223.5800 C   0  0  0  0  0  0  0  0  0  0  0  0
  139.2700   68.6160  224.7580 C   0  0  0  0  0  0  0  0  0  0  0  0
  139.8510   69.1890  225.8630 C   0  0  0  0  0  0  0  0  0  0  0  0
  139.9460   68.4410  227.0220 C   0  0  0  0  0  0  0  0  0  0  0  0
  140.5220   68.9700  228.1600 C   0  0  0  0  0  0  0  0  0  0  0  0
  140.6160   68.2390  229.2960 F   0  0  0  0  0  0  0  0  0  0  0  0
  140.9980   70.2610  228.1030 C   0  0  0  0  0  0  0  0  0  0  0  0
  140.9080   71.0150  226.9490 C   0  0  0  0  0  0  0  0  0  0  0  0
  140.3290   70.4650  225.8320 C   0  0  0  0  0  0  0  0  0  0  0  0
  140.2160   71.1510  224.6810 N   0  0  0  0  0  0  0  0  0  0  0  0
  139.7840   73.2780  223.4180 H   0  0  0  0  0  0  0  0  0  0  0  0
  139.8600   73.0386  220.4418 H   0  0  0  0  0  0  0  0  0  0  0  0
  138.5462   74.0603  221.3280 H   0  0  0  0  0  0  0  0  0  0  0  0
  140.3292   76.4925  218.2747 H   0  0  0  0  0  0  0  0  0  0  0  0
  139.6163   77.2155  219.6849 H   0  0  0  0  0  0  0  0  0  0  0  0
  141.8520   78.2924  218.6157 H   0  0  0  0  0  0  0  0  0  0  0  0
  141.7671   78.2156  220.3611 H   0  0  0  0  0  0  0  0  0  0  0  0
  143.5619   76.5887  220.3107 H   0  0  0  0  0  0  0  0  0  0  0  0
  144.4090   76.1300  218.2690 H   0  0  0  0  0  0  0  0  0  0  0  0
  142.1030   74.9198  218.2957 H   0  0  0  0  0  0  0  0  0  0  0  0
  142.7186   74.0727  220.9669 H   0  0  0  0  0  0  0  0  0  0  0  0
  142.4038   73.2306  219.3143 H   0  0  0  0  0  0  0  0  0  0  0  0
  143.9708   71.8470  219.3825 H   0  0  0  0  0  0  0  0  0  0  0  0
  145.0357   72.6479  218.1886 H   0  0  0  0  0  0  0  0  0  0  0  0
  145.8192   71.2907  220.5853 H   0  0  0  0  0  0  0  0  0  0  0  0
  146.8751   72.2061  219.5035 H   0  0  0  0  0  0  0  0  0  0  0  0
  145.6866   72.9931  222.1137 H   0  0  0  0  0  0  0  0  0  0  0  0
  147.0662   73.7141  221.2871 H   0  0  0  0  0  0  0  0  0  0  0  0
  144.5387   74.8672  221.4489 H   0  0  0  0  0  0  0  0  0  0  0  0
  145.7156   75.2586  220.1689 H   0  0  0  0  0  0  0  0  0  0  0  0
  138.7016   68.9072  222.6826 H   0  0  0  0  0  0  0  0  0  0  0  0
  138.8911   67.5844  224.8055 H   0  0  0  0  0  0  0  0  0  0  0  0
  139.5579   67.4118  227.0377 H   0  0  0  0  0  0  0  0  0  0  0  0
  141.4610   70.7024  228.9979 H   0  0  0  0  0  0  0  0  0  0  0  0
  141.2957   72.0441  226.9252 H   0  0  0  0  0  0  0  0  0  0  0  0
  1  2  2  0
  2  3  1  0
  3  4  1  0
  4  5  1  0
  5  6  2  0
  5  7  1  0
  7  8  1  0
  8  9  1  0
  9 10  1  0
 10 11  1  0
 10 12  1  0
 12 13  1  0
 13 14  1  0
 14 15  1  0
 15 16  1  0
 16 17  1  0
 17 18  1  0
  2 19  1  0
 19 20  2  0
 20 21  1  0
 21 22  2  0
 22 23  1  0
 23 24  2  0
 24 25  1  0
 24 26  1  0
 26 27  2  0
 27 28  1  0
 28 29  2  0
 12  7  1  0
 18 14  1  0
 29 19  1  0
 28 22  1  0
  3 30  1  0
  4 31  1  0
  4 32  1  0
  8 33  1  0
  8 34  1  0
  9 35  1  0
  9 36  1  0
 10 37  1  1
 11 38  1  0
 12 39  1  6
 13 40  1  0
 13 41  1  0
 15 42  1  0
 15 43  1  0
 16 44  1  0
 16 45  1  0
 17 46  1  0
 17 47  1  0
 18 48  1  0
 18 49  1  0
 20 50  1  0
 21 51  1  0
 23 52  1  0
 26 53  1  0
 27 54  1  0
M  END
>  <smiles>  (49) 
O=C(NCC(=O)N1CC[C@H](O)[C@H]1CN1CCCC1)c1ccc2cc(F)ccc2n1

>  <score_type>  (49) 
oracle

>  <origin>  (49) 
autodockgpu

>  <m_score__min__energy>  (49) 
-8.5600000000000005

>  <m_primary>  (49) 
energy

>  <rmsd>  (49) 
4.07281869165631

>  <m_score__min__rmsd>  (49) 
4.07281869165631

>  <meeko>  (49) 
{"free_energy": -7.67, "intermolecular_energy": -9.76, "internal_energy": -1.84, "cluster_size": 4, "cluster_id": 4, "rank_in_cluster": 3}

>  <energy>  (49) 
-6.85

>  <cluster_rmsd>  (49) 
0.0

>  <cluster>  (49) 
7

$$$$

     RDKit          3D

 54 57  0  0  0  0  0  0  0  0999 V2000
  140.2510   73.5940  222.3450 O   0  0  0  0  0  0  0  0  0  0  0  0
  140.3000   72.3530  222.3110 C   0  0  0  0  0  0  0  0  0  0  0  0
  140.4960   71.7620  221.0060 N   0  0  0  0  0  0  0  0  0  0  0  0
  140.6130   72.5750  219.8510 C   0  0  0  0  0  0  0  0  0  0  0  0
  141.6790   73.5660  219.7420 C   0  0  0  0  0  0  0  0  0  0  0  0
  141.2160   74.7590  219.4630 O   0  0  0  0  0  0  0  0  0  0  0  0
  143.0500   73.4760  219.8820 N   0  0  0  0  0  0  0  0  0  0  0  0
  143.9010   72.7440  220.8540 C   0  0  0  0  0  0  0  0  0  0  0  0
  144.7460   71.9200  219.9320 C   0  0  0  0  0  0  0  0  0  0  0  0
  144.9430   72.8540  218.7280 C   0  0  2  0  0  0  0  0  0  0  0  0
  146.3140   73.1300  218.5960 O   0  0  0  0  0  0  0  0  0  0  0  0
  144.1480   74.0780  219.0690 C   0  0  1  0  0  0  0  0  0  0  0  0
  143.6240   74.8920  217.9870 C   0  0  0  0  0  0  0  0  0  0  0  0
  143.6480   76.3130  218.0820 N   0  0  0  0  0  0  0  0  0  0  0  0
  143.1030   76.9650  219.1920 C   0  0  0  0  0  0  0  0  0  0  0  0
  142.2390   78.1110  218.7000 C   0  0  0  0  0  0  0  0  0  0  0  0
  142.2130   77.9770  217.2020 C   0  0  0  0  0  0  0  0  0  0  0  0
  143.3320   77.0180  216.8830 C   0  0  0  0  0  0  0  0  0  0  0  0
  140.1760   71.4840  223.4700 C   0  0  0  0  0  0  0  0  0  0  0  0
  139.5490   70.2640  223.3430 C   0  0  0  0  0  0  0  0  0  0  0  0
  139.4500   69.4610  224.4720 C   0  0  0  0  0  0  0  0  0  0  0  0
  139.9720   69.8970  225.6660 C   0  0  0  0  0  0  0  0  0  0  0  0
  139.8610   69.0780  226.7740 C   0  0  0  0  0  0  0  0  0  0  0  0
  140.3700   69.4690  227.9970 C   0  0  0  0  0  0  0  0  0  0  0  0
  140.2620   68.6670  229.0830 F   0  0  0  0  0  0  0  0  0  0  0  0
  140.9880   70.6960  228.0760 C   0  0  0  0  0  0  0  0  0  0  0  0
  141.1040   71.5210  226.9740 C   0  0  0  0  0  0  0  0  0  0  0  0
  140.5890   71.1070  225.7700 C   0  0  0  0  0  0  0  0  0  0  0  0
  140.6730   71.8680  224.6640 N   0  0  0  0  0  0  0  0  0  0  0  0
  140.5460   70.7060  220.9600 H   0  0  0  0  0  0  0  0  0  0  0  0
  140.7304   71.8921  218.9967 H   0  0  0  0  0  0  0  0  0  0  0  0
  139.7055   73.1950  219.8947 H   0  0  0  0  0  0  0  0  0  0  0  0
  144.5127   73.4334  221.4544 H   0  0  0  0  0  0  0  0  0  0  0  0
  143.3393   72.1594  221.5975 H   0  0  0  0  0  0  0  0  0  0  0  0
  145.7093   71.6655  220.3982 H   0  0  0  0  0  0  0  0  0  0  0  0
  144.2885   70.9557  219.6658 H   0  0  0  0  0  0  0  0  0  0  0  0
  144.6111   72.4302  217.7687 H   0  0  0  0  0  0  0  0  0  0  0  0
  146.4500   74.0910  218.6440 H   0  0  0  0  0  0  0  0  0  0  0  0
  144.7907   74.8266  219.5553 H   0  0  0  0  0  0  0  0  0  0  0  0
  144.1950   74.6255  217.0854 H   0  0  0  0  0  0  0  0  0  0  0  0
  142.5491   74.6587  217.9962 H   0  0  0  0  0  0  0  0  0  0  0  0
  142.4894   76.2601  219.7722 H   0  0  0  0  0  0  0  0  0  0  0  0
  143.9075   77.3489  219.8366 H   0  0  0  0  0  0  0  0  0  0  0  0
  141.2220   78.0304  219.1113 H   0  0  0  0  0  0  0  0  0  0  0  0
  142.6351   79.0872  219.0166 H   0  0  0  0  0  0  0  0  0  0  0  0
  141.2473   77.5717  216.8657 H   0  0  0  0  0  0  0  0  0  0  0  0
  142.3384   78.9455  216.6957 H   0  0  0  0  0  0  0  0  0  0  0  0
  143.0096   76.3102  216.1051 H   0  0  0  0  0  0  0  0  0  0  0  0
  144.2127   77.5610  216.5096 H   0  0  0  0  0  0  0  0  0  0  0  0
  139.1390   69.9356  222.3765 H   0  0  0  0  0  0  0  0  0  0  0  0
  138.9558   68.4802  224.4106 H   0  0  0  0  0  0  0  0  0  0  0  0
  139.3610   68.1027  226.6805 H   0  0  0  0  0  0  0  0  0  0  0  0
  141.3998   71.0281  229.0404 H   0  0  0  0  0  0  0  0  0  0  0  0
  141.6028   72.4977  227.0598 H   0  0  0  0  0  0  0  0  0  0  0  0
  1  2  2  0
  2  3  1  0
  3  4  1  0
  4  5  1  0
  5  6  2  0
  5  7  1  0
  7  8  1  0
  8  9  1  0
  9 10  1  0
 10 11  1  0
 10 12  1  0
 12 13  1  0
 13 14  1  0
 14 15  1  0
 15 16  1  0
 16 17  1  0
 17 18  1  0
  2 19  1  0
 19 20  2  0
 20 21  1  0
 21 22  2  0
 22 23  1  0
 23 24  2  0
 24 25  1  0
 24 26  1  0
 26 27  2  0
 27 28  1  0
 28 29  2  0
 12  7  1  0
 18 14  1  0
 29 19  1  0
 28 22  1  0
  3 30  1  0
  4 31  1  0
  4 32  1  0
  8 33  1  0
  8 34  1  0
  9 35  1  0
  9 36  1  0
 10 37  1  6
 11 38  1  0
 12 39  1  1
 13 40  1  0
 13 41  1  0
 15 42  1  0
 15 43  1  0
 16 44  1  0
 16 45  1  0
 17 46  1  0
 17 47  1  0
 18 48  1  0
 18 49  1  0
 20 50  1  0
 21 51  1  0
 23 52  1  0
 26 53  1  0
 27 54  1  0
M  END
>  <smiles>  (50) 
O=C(NCC(=O)N1CC[C@H](O)[C@H]1CN1CCCC1)c1ccc2cc(F)ccc2n1

>  <score_type>  (50) 
oracle

>  <origin>  (50) 
autodockgpu

>  <m_score__min__energy>  (50) 
-8.5600000000000005

>  <m_primary>  (50) 
energy

>  <rmsd>  (50) 
3.923978500624751

>  <m_score__min__rmsd>  (50) 
3.923978500624751

>  <meeko>  (50) 
{"free_energy": -7.82, "intermolecular_energy": -9.91, "internal_energy": -1.31, "cluster_size": 5, "cluster_id": 2, "rank_in_cluster": 4}

>  <energy>  (50) 
-5.93

>  <cluster_rmsd>  (50) 
0.0

>  <cluster>  (50) 
8

$$$$
