
     RDKit          3D

 44 47  0  0  0  0  0  0  0  0999 V2000
  140.9700   68.1030  228.9760 N   0  0  0  0  0  0  0  0  0  0  0  0
  140.7670   68.7150  228.0160 C   0  0  0  0  0  0  0  0  0  0  0  0
  140.5280   69.4840  226.8290 C   0  0  0  0  0  0  0  0  0  0  0  0
  141.0440   70.7700  226.7550 C   0  0  0  0  0  0  0  0  0  0  0  0
  140.8340   71.5480  225.6160 C   0  0  0  0  0  0  0  0  0  0  0  0
  140.1170   71.0860  224.5320 C   0  0  0  0  0  0  0  0  0  0  0  0
  139.8790   71.8730  223.3300 C   0  0  0  0  0  0  0  0  0  0  0  0
  140.7610   72.0510  222.3740 C   0  0  0  0  0  0  0  0  0  0  0  0
  140.9540   73.3770  221.7810 C   0  0  0  0  0  0  0  0  0  0  0  0
  140.2410   74.3810  222.3460 N   0  0  0  0  0  0  0  0  0  0  0  0
  140.2920   75.6460  221.8980 C   0  0  0  0  0  0  0  0  0  0  0  0
  139.5510   76.6460  222.4970 C   0  0  0  0  0  0  0  0  0  0  0  0
  139.6630   77.9160  221.9710 C   0  0  0  0  0  0  0  0  0  0  0  0
  140.4700   78.1860  220.9060 C   0  0  0  0  0  0  0  0  0  0  0  0
  141.1980   77.1650  220.3300 C   0  0  0  0  0  0  0  0  0  0  0  0
  141.1210   75.8790  220.8160 C   0  0  0  0  0  0  0  0  0  0  0  0
  141.8380   74.8410  220.2590 C   0  0  0  0  0  0  0  0  0  0  0  0
  142.5700   75.1480  219.2700 O   0  0  0  0  0  0  0  0  0  0  0  0
  141.7710   73.5660  220.7300 N   0  0  0  0  0  0  0  0  0  0  0  0
  142.5410   72.5040  220.1130 C   0  0  0  0  0  0  0  0  0  0  0  0
  143.9650   72.8320  220.0420 C   0  0  0  0  0  0  0  0  0  0  0  0
  144.5670   73.3600  221.1910 C   0  0  0  0  0  0  0  0  0  0  0  0
  145.9240   73.6890  221.1920 C   0  0  0  0  0  0  0  0  0  0  0  0
  146.6810   73.5010  220.0680 C   0  0  0  0  0  0  0  0  0  0  0  0
  146.0990   72.9980  218.9770 N   0  0  0  0  0  0  0  0  0  0  0  0
  144.7890   72.6740  218.9640 C   0  0  0  0  0  0  0  0  0  0  0  0
  139.6160   69.7980  224.6380 C   0  0  0  0  0  0  0  0  0  0  0  0
  139.8100   69.0090  225.7520 C   0  0  0  0  0  0  0  0  0  0  0  0
  141.6211   71.1778  227.5980 H   0  0  0  0  0  0  0  0  0  0  0  0
  141.2543   72.5639  225.5813 H   0  0  0  0  0  0  0  0  0  0  0  0
  138.8945   72.3502  223.2155 H   0  0  0  0  0  0  0  0  0  0  0  0
  141.3586   71.1997  222.0160 H   0  0  0  0  0  0  0  0  0  0  0  0
  138.8986   76.4381  223.3579 H   0  0  0  0  0  0  0  0  0  0  0  0
  139.0845   78.7347  222.4239 H   0  0  0  0  0  0  0  0  0  0  0  0
  140.5403   79.2095  220.5090 H   0  0  0  0  0  0  0  0  0  0  0  0
  141.8491   77.3816  219.4703 H   0  0  0  0  0  0  0  0  0  0  0  0
  142.4170   71.5851  220.7048 H   0  0  0  0  0  0  0  0  0  0  0  0
  142.1713   72.3677  219.0860 H   0  0  0  0  0  0  0  0  0  0  0  0
  143.9665   73.5167  222.0992 H   0  0  0  0  0  0  0  0  0  0  0  0
  146.3866   74.1013  222.1009 H   0  0  0  0  0  0  0  0  0  0  0  0
  147.7501   73.7597  220.0634 H   0  0  0  0  0  0  0  0  0  0  0  0
  144.3628   72.2614  218.0376 H   0  0  0  0  0  0  0  0  0  0  0  0
  139.0384   69.3874  223.7967 H   0  0  0  0  0  0  0  0  0  0  0  0
  139.3889   67.9932  225.7817 H   0  0  0  0  0  0  0  0  0  0  0  0
  1  2  3  0
  2  3  1  0
  3  4  2  0
  4  5  1  0
  5  6  2  0
  6  7  1  0
  7  8  2  0
  8  9  1  0
  9 10  2  0
 10 11  1  0
 11 12  2  0
 12 13  1  0
 13 14  2  0
 14 15  1  0
 15 16  2  0
 16 17  1  0
 17 18  2  0
 17 19  1  0
 19 20  1  0
 20 21  1  0
 21 22  2  0
 22 23  1  0
 23 24  2  0
 24 25  1  0
 25 26  2  0
  6 27  1  0
 27 28  2  0
 28  3  1  0
 19  9  1  0
 26 21  1  0
 16 11  1  0
  4 29  1  0
  5 30  1  0
  7 31  1  0
  8 32  1  0
 12 33  1  0
 13 34  1  0
 14 35  1  0
 15 36  1  0
 20 37  1  0
 20 38  1  0
 22 39  1  0
 23 40  1  0
 24 41  1  0
 26 42  1  0
 27 43  1  0
 28 44  1  0
M  END
>  <smiles>  (1) 
N#Cc1ccc(/C=C/c2nc3ccccc3c(=O)n2Cc2cccnc2)cc1

>  <score_type>  (1) 
oracle

>  <origin>  (1) 
autodockgpu

>  <m_score__min__energy>  (1) 
-8.8599999999999994

>  <m_primary>  (1) 
energy

>  <rmsd>  (1) 
5.936554436346521

>  <m_score__min__rmsd>  (1) 
5.936554436346521

>  <meeko>  (1) 
{"free_energy": -8.7, "intermolecular_energy": -10.49, "internal_energy": -1.01, "cluster_size": 10, "cluster_id": 1, "rank_in_cluster": 4}

>  <energy>  (1) 
-8.86

>  <cluster_rmsd>  (1) 
0.0

>  <cluster>  (1) 
1

$$$$

     RDKit          3D

 44 47  0  0  0  0  0  0  0  0999 V2000
  145.9760   73.0110  218.8200 N   0  0  0  0  0  0  0  0  0  0  0  0
  144.9760   72.9880  219.4010 C   0  0  0  0  0  0  0  0  0  0  0  0
  143.7390   72.9440  220.1240 C   0  0  0  0  0  0  0  0  0  0  0  0
  143.2410   71.7070  220.5140 C   0  0  0  0  0  0  0  0  0  0  0  0
  142.0410   71.6240  221.2210 C   0  0  0  0  0  0  0  0  0  0  0  0
  141.3060   72.7410  221.5560 C   0  0  0  0  0  0  0  0  0  0  0  0
  140.0500   72.6870  222.2910 C   0  0  0  0  0  0  0  0  0  0  0  0
  139.3450   71.5950  222.4770 C   0  0  0  0  0  0  0  0  0  0  0  0
  139.5120   70.8040  223.6990 C   0  0  0  0  0  0  0  0  0  0  0  0
  140.0190   71.4710  224.7640 N   0  0  0  0  0  0  0  0  0  0  0  0
  140.2530   70.8770  225.9460 C   0  0  0  0  0  0  0  0  0  0  0  0
  140.7710   71.5860  227.0120 C   0  0  0  0  0  0  0  0  0  0  0  0
  140.9810   70.8950  228.1870 C   0  0  0  0  0  0  0  0  0  0  0  0
  140.6920   69.5680  228.3040 C   0  0  0  0  0  0  0  0  0  0  0  0
  140.1760   68.8870  227.2200 C   0  0  0  0  0  0  0  0  0  0  0  0
  139.9480   69.5300  226.0240 C   0  0  0  0  0  0  0  0  0  0  0  0
  139.4320   68.8730  224.9260 C   0  0  0  0  0  0  0  0  0  0  0  0
  139.1830   67.6410  225.0910 O   0  0  0  0  0  0  0  0  0  0  0  0
  139.2020   69.4960  223.7390 N   0  0  0  0  0  0  0  0  0  0  0  0
  138.6590   68.7680  222.6090 C   0  0  0  0  0  0  0  0  0  0  0  0
  137.2470   68.4370  222.8000 C   0  0  0  0  0  0  0  0  0  0  0  0
  136.6570   67.5600  221.8800 C   0  0  0  0  0  0  0  0  0  0  0  0
  135.3140   67.1990  222.0080 C   0  0  0  0  0  0  0  0  0  0  0  0
  134.5580   67.7000  223.0330 C   0  0  0  0  0  0  0  0  0  0  0  0
  135.1290   68.5350  223.9040 N   0  0  0  0  0  0  0  0  0  0  0  0
  136.4260   68.8910  223.7920 C   0  0  0  0  0  0  0  0  0  0  0  0
  141.8300   73.9590  221.1520 C   0  0  0  0  0  0  0  0  0  0  0  0
  143.0140   74.0690  220.4530 C   0  0  0  0  0  0  0  0  0  0  0  0
  143.7947   70.7898  220.2645 H   0  0  0  0  0  0  0  0  0  0  0  0
  141.6688   70.6334  221.5213 H   0  0  0  0  0  0  0  0  0  0  0  0
  139.6659   73.6245  222.7194 H   0  0  0  0  0  0  0  0  0  0  0  0
  138.6247   71.2721  221.7109 H   0  0  0  0  0  0  0  0  0  0  0  0
  141.0063   72.6572  226.9274 H   0  0  0  0  0  0  0  0  0  0  0  0
  141.3937   71.4302  229.0549 H   0  0  0  0  0  0  0  0  0  0  0  0
  140.8686   69.0440  229.2549 H   0  0  0  0  0  0  0  0  0  0  0  0
  139.9437   67.8158  227.3129 H   0  0  0  0  0  0  0  0  0  0  0  0
  138.7599   69.3873  221.7055 H   0  0  0  0  0  0  0  0  0  0  0  0
  139.2191   67.8265  222.5095 H   0  0  0  0  0  0  0  0  0  0  0  0
  137.2556   67.1533  221.0516 H   0  0  0  0  0  0  0  0  0  0  0  0
  134.8614   66.5084  221.2812 H   0  0  0  0  0  0  0  0  0  0  0  0
  133.4994   67.4198  223.1372 H   0  0  0  0  0  0  0  0  0  0  0  0
  136.8433   69.5827  224.5386 H   0  0  0  0  0  0  0  0  0  0  0  0
  141.2777   74.8776  221.3995 H   0  0  0  0  0  0  0  0  0  0  0  0
  143.3823   75.0620  220.1559 H   0  0  0  0  0  0  0  0  0  0  0  0
  1  2  3  0
  2  3  1  0
  3  4  2  0
  4  5  1  0
  5  6  2  0
  6  7  1  0
  7  8  2  0
  8  9  1  0
  9 10  2  0
 10 11  1  0
 11 12  2  0
 12 13  1  0
 13 14  2  0
 14 15  1  0
 15 16  2  0
 16 17  1  0
 17 18  2  0
 17 19  1  0
 19 20  1  0
 20 21  1  0
 21 22  2  0
 22 23  1  0
 23 24  2  0
 24 25  1  0
 25 26  2  0
  6 27  1  0
 27 28  2  0
 28  3  1  0
 19  9  1  0
 26 21  1  0
 16 11  1  0
  4 29  1  0
  5 30  1  0
  7 31  1  0
  8 32  1  0
 12 33  1  0
 13 34  1  0
 14 35  1  0
 15 36  1  0
 20 37  1  0
 20 38  1  0
 22 39  1  0
 23 40  1  0
 24 41  1  0
 26 42  1  0
 27 43  1  0
 28 44  1  0
M  END
>  <smiles>  (2) 
N#Cc1ccc(/C=C/c2nc3ccccc3c(=O)n2Cc2cccnc2)cc1

>  <score_type>  (2) 
oracle

>  <origin>  (2) 
autodockgpu

>  <m_score__min__energy>  (2) 
-8.8599999999999994

>  <m_primary>  (2) 
energy

>  <rmsd>  (2) 
11.777056732040716

>  <m_score__min__rmsd>  (2) 
11.777056732040716

>  <meeko>  (2) 
{"free_energy": -8.37, "intermolecular_energy": -10.16, "internal_energy": -1.12, "cluster_size": 33, "cluster_id": 2, "rank_in_cluster": 2}

>  <energy>  (2) 
-8.84

>  <cluster_rmsd>  (2) 
0.19

>  <cluster>  (2) 
1

$$$$

     RDKit          3D

 44 47  0  0  0  0  0  0  0  0999 V2000
  146.1460   73.0180  219.0950 N   0  0  0  0  0  0  0  0  0  0  0  0
  145.1200   72.9290  219.6200 C   0  0  0  0  0  0  0  0  0  0  0  0
  143.8400   72.8130  220.2570 C   0  0  0  0  0  0  0  0  0  0  0  0
  143.1280   73.9720  220.5330 C   0  0  0  0  0  0  0  0  0  0  0  0
  141.8790   73.9000  221.1510 C   0  0  0  0  0  0  0  0  0  0  0  0
  141.3050   72.6990  221.5090 C   0  0  0  0  0  0  0  0  0  0  0  0
  140.0040   72.5890  222.1560 C   0  0  0  0  0  0  0  0  0  0  0  0
  139.3920   71.4540  222.4040 C   0  0  0  0  0  0  0  0  0  0  0  0
  139.5870   70.7710  223.6850 C   0  0  0  0  0  0  0  0  0  0  0  0
  140.1680   71.5100  224.6610 N   0  0  0  0  0  0  0  0  0  0  0  0
  140.4340   71.0160  225.8810 C   0  0  0  0  0  0  0  0  0  0  0  0
  141.0280   71.7970  226.8530 C   0  0  0  0  0  0  0  0  0  0  0  0
  141.2660   71.2080  228.0770 C   0  0  0  0  0  0  0  0  0  0  0  0
  140.9330   69.9100  228.3290 C   0  0  0  0  0  0  0  0  0  0  0  0
  140.3410   69.1560  227.3370 C   0  0  0  0  0  0  0  0  0  0  0  0
  140.0820   69.6960  226.0970 C   0  0  0  0  0  0  0  0  0  0  0  0
  139.4900   68.9650  225.0880 C   0  0  0  0  0  0  0  0  0  0  0  0
  139.2030   67.7640  225.3770 O   0  0  0  0  0  0  0  0  0  0  0  0
  139.2290   69.4870  223.8600 N   0  0  0  0  0  0  0  0  0  0  0  0
  138.6070   68.6820  222.8270 C   0  0  0  0  0  0  0  0  0  0  0  0
  137.1680   68.5310  223.0440 C   0  0  0  0  0  0  0  0  0  0  0  0
  136.5780   69.3120  224.0460 C   0  0  0  0  0  0  0  0  0  0  0  0
  135.2080   69.2200  224.3010 C   0  0  0  0  0  0  0  0  0  0  0  0
  134.4260   68.3640  223.5740 C   0  0  0  0  0  0  0  0  0  0  0  0
  134.9970   67.6230  222.6220 N   0  0  0  0  0  0  0  0  0  0  0  0
  136.3190   67.7030  222.3650 C   0  0  0  0  0  0  0  0  0  0  0  0
  142.0410   71.5610  221.2200 C   0  0  0  0  0  0  0  0  0  0  0  0
  143.2770   71.6050  220.6100 C   0  0  0  0  0  0  0  0  0  0  0  0
  143.5501   74.9514  220.2635 H   0  0  0  0  0  0  0  0  0  0  0  0
  141.3343   74.8327  221.3594 H   0  0  0  0  0  0  0  0  0  0  0  0
  139.5006   73.5196  222.4570 H   0  0  0  0  0  0  0  0  0  0  0  0
  138.7288   71.0134  221.6451 H   0  0  0  0  0  0  0  0  0  0  0  0
  141.2999   72.8450  226.6589 H   0  0  0  0  0  0  0  0  0  0  0  0
  141.7381   71.8025  228.8730 H   0  0  0  0  0  0  0  0  0  0  0  0
  141.1348   69.4675  229.3156 H   0  0  0  0  0  0  0  0  0  0  0  0
  140.0721   68.1087  227.5394 H   0  0  0  0  0  0  0  0  0  0  0  0
  138.7707   69.1657  221.8527 H   0  0  0  0  0  0  0  0  0  0  0  0
  139.0624   67.6811  222.8550 H   0  0  0  0  0  0  0  0  0  0  0  0
  137.1982   70.0027  224.6362 H   0  0  0  0  0  0  0  0  0  0  0  0
  134.7553   69.8386  225.0900 H   0  0  0  0  0  0  0  0  0  0  0  0
  133.3464   68.2880  223.7707 H   0  0  0  0  0  0  0  0  0  0  0  0
  136.7349   67.0692  221.5679 H   0  0  0  0  0  0  0  0  0  0  0  0
  141.6213   70.5804  221.4887 H   0  0  0  0  0  0  0  0  0  0  0  0
  143.8176   70.6695  220.4036 H   0  0  0  0  0  0  0  0  0  0  0  0
  1  2  3  0
  2  3  1  0
  3  4  2  0
  4  5  1  0
  5  6  2  0
  6  7  1  0
  7  8  2  0
  8  9  1  0
  9 10  2  0
 10 11  1  0
 11 12  2  0
 12 13  1  0
 13 14  2  0
 14 15  1  0
 15 16  2  0
 16 17  1  0
 17 18  2  0
 17 19  1  0
 19 20  1  0
 20 21  1  0
 21 22  2  0
 22 23  1  0
 23 24  2  0
 24 25  1  0
 25 26  2  0
  6 27  1  0
 27 28  2  0
 28  3  1  0
 19  9  1  0
 26 21  1  0
 16 11  1  0
  4 29  1  0
  5 30  1  0
  7 31  1  0
  8 32  1  0
 12 33  1  0
 13 34  1  0
 14 35  1  0
 15 36  1  0
 20 37  1  0
 20 38  1  0
 22 39  1  0
 23 40  1  0
 24 41  1  0
 26 42  1  0
 27 43  1  0
 28 44  1  0
M  END
>  <smiles>  (3) 
N#Cc1ccc(/C=C/c2nc3ccccc3c(=O)n2Cc2cccnc2)cc1

>  <score_type>  (3) 
oracle

>  <origin>  (3) 
autodockgpu

>  <m_score__min__energy>  (3) 
-8.8599999999999994

>  <m_primary>  (3) 
energy

>  <rmsd>  (3) 
11.626477003520183

>  <m_score__min__rmsd>  (3) 
11.626477003520183

>  <meeko>  (3) 
{"free_energy": -8.21, "intermolecular_energy": -10.0, "internal_energy": -1.18, "cluster_size": 33, "cluster_id": 2, "rank_in_cluster": 15}

>  <energy>  (3) 
-8.84

>  <cluster_rmsd>  (3) 
0.16

>  <cluster>  (3) 
1

$$$$

     RDKit          3D

 44 47  0  0  0  0  0  0  0  0999 V2000
  146.3080   73.0890  219.2940 N   0  0  0  0  0  0  0  0  0  0  0  0
  145.2490   73.0060  219.7510 C   0  0  0  0  0  0  0  0  0  0  0  0
  143.9400   72.8900  220.3260 C   0  0  0  0  0  0  0  0  0  0  0  0
  143.2050   74.0470  220.5450 C   0  0  0  0  0  0  0  0  0  0  0  0
  141.9280   73.9740  221.1010 C   0  0  0  0  0  0  0  0  0  0  0  0
  141.3470   72.7740  221.4530 C   0  0  0  0  0  0  0  0  0  0  0  0
  140.0170   72.6630  222.0370 C   0  0  0  0  0  0  0  0  0  0  0  0
  139.3900   71.5290  222.2450 C   0  0  0  0  0  0  0  0  0  0  0  0
  139.5570   70.8100  223.5110 C   0  0  0  0  0  0  0  0  0  0  0  0
  140.0850   71.5320  224.5290 N   0  0  0  0  0  0  0  0  0  0  0  0
  140.3220   71.0070  225.7420 C   0  0  0  0  0  0  0  0  0  0  0  0
  140.8620   71.7710  226.7580 C   0  0  0  0  0  0  0  0  0  0  0  0
  141.0720   71.1500  227.9710 C   0  0  0  0  0  0  0  0  0  0  0  0
  140.7620   69.8370  228.1720 C   0  0  0  0  0  0  0  0  0  0  0  0
  140.2230   69.1010  227.1370 C   0  0  0  0  0  0  0  0  0  0  0  0
  139.9940   69.6730  225.9060 C   0  0  0  0  0  0  0  0  0  0  0  0
  139.4560   68.9600  224.8550 C   0  0  0  0  0  0  0  0  0  0  0  0
  139.1890   67.7440  225.0970 O   0  0  0  0  0  0  0  0  0  0  0  0
  139.2250   69.5130  223.6340 N   0  0  0  0  0  0  0  0  0  0  0  0
  138.6590   68.7260  222.5560 C   0  0  0  0  0  0  0  0  0  0  0  0
  137.2450   68.4250  222.7830 C   0  0  0  0  0  0  0  0  0  0  0  0
  136.6240   67.5290  221.9040 C   0  0  0  0  0  0  0  0  0  0  0  0
  135.2780   67.1940  222.0680 C   0  0  0  0  0  0  0  0  0  0  0  0
  134.5500   67.7400  223.0900 C   0  0  0  0  0  0  0  0  0  0  0  0
  135.1510   68.5930  223.9230 N   0  0  0  0  0  0  0  0  0  0  0  0
  136.4500   68.9240  223.7760 C   0  0  0  0  0  0  0  0  0  0  0  0
  142.1070   71.6380  221.2220 C   0  0  0  0  0  0  0  0  0  0  0  0
  143.3710   71.6830  220.6730 C   0  0  0  0  0  0  0  0  0  0  0  0
  143.6315   75.0254  220.2789 H   0  0  0  0  0  0  0  0  0  0  0  0
  141.3654   74.9050  221.2642 H   0  0  0  0  0  0  0  0  0  0  0  0
  139.5034   73.5928  222.3230 H   0  0  0  0  0  0  0  0  0  0  0  0
  138.7349   71.1155  221.4640 H   0  0  0  0  0  0  0  0  0  0  0  0
  141.1141   72.8309  226.6058 H   0  0  0  0  0  0  0  0  0  0  0  0
  141.5020   71.7303  228.8007 H   0  0  0  0  0  0  0  0  0  0  0  0
  140.9403   69.3688  229.1513 H   0  0  0  0  0  0  0  0  0  0  0  0
  139.9727   68.0420  227.2977 H   0  0  0  0  0  0  0  0  0  0  0  0
  138.7561   69.2890  221.6160 H   0  0  0  0  0  0  0  0  0  0  0  0
  139.2063   67.7731  222.5065 H   0  0  0  0  0  0  0  0  0  0  0  0
  137.2004   67.0859  221.0785 H   0  0  0  0  0  0  0  0  0  0  0  0
  134.8009   66.4880  221.3724 H   0  0  0  0  0  0  0  0  0  0  0  0
  133.4892   67.4809  223.2228 H   0  0  0  0  0  0  0  0  0  0  0  0
  136.8923   69.6321  224.4923 H   0  0  0  0  0  0  0  0  0  0  0  0
  141.6834   70.6583  221.4882 H   0  0  0  0  0  0  0  0  0  0  0  0
  143.9294   70.7493  220.5107 H   0  0  0  0  0  0  0  0  0  0  0  0
  1  2  3  0
  2  3  1  0
  3  4  2  0
  4  5  1  0
  5  6  2  0
  6  7  1  0
  7  8  2  0
  8  9  1  0
  9 10  2  0
 10 11  1  0
 11 12  2  0
 12 13  1  0
 13 14  2  0
 14 15  1  0
 15 16  2  0
 16 17  1  0
 17 18  2  0
 17 19  1  0
 19 20  1  0
 20 21  1  0
 21 22  2  0
 22 23  1  0
 23 24  2  0
 24 25  1  0
 25 26  2  0
  6 27  1  0
 27 28  2  0
 28  3  1  0
 19  9  1  0
 26 21  1  0
 16 11  1  0
  4 29  1  0
  5 30  1  0
  7 31  1  0
  8 32  1  0
 12 33  1  0
 13 34  1  0
 14 35  1  0
 15 36  1  0
 20 37  1  0
 20 38  1  0
 22 39  1  0
 23 40  1  0
 24 41  1  0
 26 42  1  0
 27 43  1  0
 28 44  1  0
M  END
>  <smiles>  (4) 
N#Cc1ccc(/C=C/c2nc3ccccc3c(=O)n2Cc2cccnc2)cc1

>  <score_type>  (4) 
oracle

>  <origin>  (4) 
autodockgpu

>  <m_score__min__energy>  (4) 
-8.8599999999999994

>  <m_primary>  (4) 
energy

>  <rmsd>  (4) 
11.656736996367878

>  <m_score__min__rmsd>  (4) 
11.656736996367878

>  <meeko>  (4) 
{"free_energy": -8.36, "intermolecular_energy": -10.15, "internal_energy": -1.14, "cluster_size": 33, "cluster_id": 2, "rank_in_cluster": 5}

>  <energy>  (4) 
-8.7

>  <cluster_rmsd>  (4) 
0.22

>  <cluster>  (4) 
1

$$$$

     RDKit          3D

 44 47  0  0  0  0  0  0  0  0999 V2000
  145.9730   73.0320  218.9990 N   0  0  0  0  0  0  0  0  0  0  0  0
  144.9550   73.0100  219.5480 C   0  0  0  0  0  0  0  0  0  0  0  0
  143.6920   72.9660  220.2250 C   0  0  0  0  0  0  0  0  0  0  0  0
  143.1630   71.7280  220.5660 C   0  0  0  0  0  0  0  0  0  0  0  0
  141.9360   71.6450  221.2260 C   0  0  0  0  0  0  0  0  0  0  0  0
  141.2060   72.7650  221.5630 C   0  0  0  0  0  0  0  0  0  0  0  0
  139.9230   72.7120  222.2500 C   0  0  0  0  0  0  0  0  0  0  0  0
  139.2360   71.6120  222.4550 C   0  0  0  0  0  0  0  0  0  0  0  0
  139.4450   70.8230  223.6710 C   0  0  0  0  0  0  0  0  0  0  0  0
  139.9590   71.4980  224.7270 N   0  0  0  0  0  0  0  0  0  0  0  0
  140.2300   70.9070  225.9020 C   0  0  0  0  0  0  0  0  0  0  0  0
  140.7540   71.6260  226.9590 C   0  0  0  0  0  0  0  0  0  0  0  0
  141.0030   70.9370  228.1280 C   0  0  0  0  0  0  0  0  0  0  0  0
  140.7450   69.6040  228.2480 C   0  0  0  0  0  0  0  0  0  0  0  0
  140.2200   68.9150  227.1740 C   0  0  0  0  0  0  0  0  0  0  0  0
  139.9540   69.5540  225.9840 C   0  0  0  0  0  0  0  0  0  0  0  0
  139.4300   68.8880  224.8960 C   0  0  0  0  0  0  0  0  0  0  0  0
  139.2110   67.6510  225.0630 O   0  0  0  0  0  0  0  0  0  0  0  0
  139.1630   69.5090  223.7150 N   0  0  0  0  0  0  0  0  0  0  0  0
  138.6130   68.7700  222.5950 C   0  0  0  0  0  0  0  0  0  0  0  0
  137.2040   68.4330  222.8010 C   0  0  0  0  0  0  0  0  0  0  0  0
  136.6180   67.5230  221.9120 C   0  0  0  0  0  0  0  0  0  0  0  0
  135.2790   67.1540  222.0570 C   0  0  0  0  0  0  0  0  0  0  0  0
  134.5230   67.6790  223.0690 C   0  0  0  0  0  0  0  0  0  0  0  0
  135.0900   68.5460  223.9120 N   0  0  0  0  0  0  0  0  0  0  0  0
  136.3830   68.9100  223.7840 C   0  0  0  0  0  0  0  0  0  0  0  0
  141.7610   73.9840  221.2080 C   0  0  0  0  0  0  0  0  0  0  0  0
  142.9710   74.0940  220.5560 C   0  0  0  0  0  0  0  0  0  0  0  0
  143.7132   70.8092  220.3149 H   0  0  0  0  0  0  0  0  0  0  0  0
  141.5382   70.6530  221.4860 H   0  0  0  0  0  0  0  0  0  0  0  0
  139.5010   73.6572  222.6222 H   0  0  0  0  0  0  0  0  0  0  0  0
  138.4988   71.2810  221.7087 H   0  0  0  0  0  0  0  0  0  0  0  0
  140.9638   72.7023  226.8722 H   0  0  0  0  0  0  0  0  0  0  0  0
  141.4220   71.4793  228.9884 H   0  0  0  0  0  0  0  0  0  0  0  0
  140.9536   69.0818  229.1934 H   0  0  0  0  0  0  0  0  0  0  0  0
  140.0109   67.8393  227.2700 H   0  0  0  0  0  0  0  0  0  0  0  0
  138.7025   69.3833  221.6862 H   0  0  0  0  0  0  0  0  0  0  0  0
  139.1768   67.8305  222.4974 H   0  0  0  0  0  0  0  0  0  0  0  0
  137.2167   67.0960  221.0939 H   0  0  0  0  0  0  0  0  0  0  0  0
  134.8298   66.4373  221.3537 H   0  0  0  0  0  0  0  0  0  0  0  0
  133.4675   67.3924  223.1863 H   0  0  0  0  0  0  0  0  0  0  0  0
  136.7974   69.6273  224.5077 H   0  0  0  0  0  0  0  0  0  0  0  0
  141.2123   74.9042  221.4572 H   0  0  0  0  0  0  0  0  0  0  0  0
  143.3639   75.0885  220.2981 H   0  0  0  0  0  0  0  0  0  0  0  0
  1  2  3  0
  2  3  1  0
  3  4  2  0
  4  5  1  0
  5  6  2  0
  6  7  1  0
  7  8  2  0
  8  9  1  0
  9 10  2  0
 10 11  1  0
 11 12  2  0
 12 13  1  0
 13 14  2  0
 14 15  1  0
 15 16  2  0
 16 17  1  0
 17 18  2  0
 17 19  1  0
 19 20  1  0
 20 21  1  0
 21 22  2  0
 22 23  1  0
 23 24  2  0
 24 25  1  0
 25 26  2  0
  6 27  1  0
 27 28  2  0
 28  3  1  0
 19  9  1  0
 26 21  1  0
 16 11  1  0
  4 29  1  0
  5 30  1  0
  7 31  1  0
  8 32  1  0
 12 33  1  0
 13 34  1  0
 14 35  1  0
 15 36  1  0
 20 37  1  0
 20 38  1  0
 22 39  1  0
 23 40  1  0
 24 41  1  0
 26 42  1  0
 27 43  1  0
 28 44  1  0
M  END
>  <smiles>  (5) 
N#Cc1ccc(/C=C/c2nc3ccccc3c(=O)n2Cc2cccnc2)cc1

>  <score_type>  (5) 
oracle

>  <origin>  (5) 
autodockgpu

>  <m_score__min__energy>  (5) 
-8.8599999999999994

>  <m_primary>  (5) 
energy

>  <rmsd>  (5) 
11.767793328168898

>  <m_score__min__rmsd>  (5) 
11.767793328168898

>  <meeko>  (5) 
{"free_energy": -8.36, "intermolecular_energy": -10.15, "internal_energy": -1.15, "cluster_size": 33, "cluster_id": 2, "rank_in_cluster": 6}

>  <energy>  (5) 
-8.62

>  <cluster_rmsd>  (5) 
0.38

>  <cluster>  (5) 
1

$$$$

     RDKit          3D

 44 47  0  0  0  0  0  0  0  0999 V2000
  140.6620   68.2480  228.8530 N   0  0  0  0  0  0  0  0  0  0  0  0
  140.5440   68.8500  227.8730 C   0  0  0  0  0  0  0  0  0  0  0  0
  140.4020   69.5820  226.6480 C   0  0  0  0  0  0  0  0  0  0  0  0
  139.7540   68.9730  225.5810 C   0  0  0  0  0  0  0  0  0  0  0  0
  139.5960   69.6540  224.3730 C   0  0  0  0  0  0  0  0  0  0  0  0
  140.0660   70.9360  224.1850 C   0  0  0  0  0  0  0  0  0  0  0  0
  139.9170   71.6730  222.9380 C   0  0  0  0  0  0  0  0  0  0  0  0
  140.9140   72.0080  222.1510 C   0  0  0  0  0  0  0  0  0  0  0  0
  141.0320   73.3790  221.6470 C   0  0  0  0  0  0  0  0  0  0  0  0
  140.3310   74.3160  222.3280 N   0  0  0  0  0  0  0  0  0  0  0  0
  140.3180   75.6110  221.9730 C   0  0  0  0  0  0  0  0  0  0  0  0
  139.5910   76.5420  222.6900 C   0  0  0  0  0  0  0  0  0  0  0  0
  139.6360   77.8490  222.2530 C   0  0  0  0  0  0  0  0  0  0  0  0
  140.3630   78.2200  221.1610 C   0  0  0  0  0  0  0  0  0  0  0  0
  141.0790   77.2670  220.4660 C   0  0  0  0  0  0  0  0  0  0  0  0
  141.0690   75.9470  220.8600 C   0  0  0  0  0  0  0  0  0  0  0  0
  141.7750   74.9750  220.1840 C   0  0  0  0  0  0  0  0  0  0  0  0
  142.4330   75.3750  219.1770 O   0  0  0  0  0  0  0  0  0  0  0  0
  141.7740   73.6680  220.5630 N   0  0  0  0  0  0  0  0  0  0  0  0
  142.5300   72.6780  219.8230 C   0  0  0  0  0  0  0  0  0  0  0  0
  143.9680   72.9400  219.8710 C   0  0  0  0  0  0  0  0  0  0  0  0
  144.4990   73.4220  221.0750 C   0  0  0  0  0  0  0  0  0  0  0  0
  145.8660   73.6880  221.1890 C   0  0  0  0  0  0  0  0  0  0  0  0
  146.7010   73.4820  220.1250 C   0  0  0  0  0  0  0  0  0  0  0  0
  146.1860   73.0240  218.9820 N   0  0  0  0  0  0  0  0  0  0  0  0
  144.8680   72.7620  218.8590 C   0  0  0  0  0  0  0  0  0  0  0  0
  140.7070   71.5150  225.2690 C   0  0  0  0  0  0  0  0  0  0  0  0
  140.8770   70.8640  226.4730 C   0  0  0  0  0  0  0  0  0  0  0  0
  139.3639   67.9501  225.6885 H   0  0  0  0  0  0  0  0  0  0  0  0
  139.0789   69.1505  223.5429 H   0  0  0  0  0  0  0  0  0  0  0  0
  138.9019   71.9690  222.6348 H   0  0  0  0  0  0  0  0  0  0  0  0
  141.6646   71.2551  221.8687 H   0  0  0  0  0  0  0  0  0  0  0  0
  139.0012   76.2526  223.5723 H   0  0  0  0  0  0  0  0  0  0  0  0
  139.0685   78.6150  222.8017 H   0  0  0  0  0  0  0  0  0  0  0  0
  140.3787   79.2709  220.8365 H   0  0  0  0  0  0  0  0  0  0  0  0
  141.6660   77.5655  219.5849 H   0  0  0  0  0  0  0  0  0  0  0  0
  142.3350   71.6856  220.2556 H   0  0  0  0  0  0  0  0  0  0  0  0
  142.2109   72.7226  218.7712 H   0  0  0  0  0  0  0  0  0  0  0  0
  143.8355   73.5920  221.9357 H   0  0  0  0  0  0  0  0  0  0  0  0
  146.2728   74.0649  222.1390 H   0  0  0  0  0  0  0  0  0  0  0  0
  147.7778   73.6902  220.2100 H   0  0  0  0  0  0  0  0  0  0  0  0
  144.4992   72.3855  217.8935 H   0  0  0  0  0  0  0  0  0  0  0  0
  141.0971   72.5382  225.1645 H   0  0  0  0  0  0  0  0  0  0  0  0
  141.3955   71.3717  227.2997 H   0  0  0  0  0  0  0  0  0  0  0  0
  1  2  3  0
  2  3  1  0
  3  4  2  0
  4  5  1  0
  5  6  2  0
  6  7  1  0
  7  8  2  0
  8  9  1  0
  9 10  2  0
 10 11  1  0
 11 12  2  0
 12 13  1  0
 13 14  2  0
 14 15  1  0
 15 16  2  0
 16 17  1  0
 17 18  2  0
 17 19  1  0
 19 20  1  0
 20 21  1  0
 21 22  2  0
 22 23  1  0
 23 24  2  0
 24 25  1  0
 25 26  2  0
  6 27  1  0
 27 28  2  0
 28  3  1  0
 19  9  1  0
 26 21  1  0
 16 11  1  0
  4 29  1  0
  5 30  1  0
  7 31  1  0
  8 32  1  0
 12 33  1  0
 13 34  1  0
 14 35  1  0
 15 36  1  0
 20 37  1  0
 20 38  1  0
 22 39  1  0
 23 40  1  0
 24 41  1  0
 26 42  1  0
 27 43  1  0
 28 44  1  0
M  END
>  <smiles>  (6) 
N#Cc1ccc(/C=C/c2nc3ccccc3c(=O)n2Cc2cccnc2)cc1

>  <score_type>  (6) 
oracle

>  <origin>  (6) 
autodockgpu

>  <m_score__min__energy>  (6) 
-8.8599999999999994

>  <m_primary>  (6) 
energy

>  <rmsd>  (6) 
5.928210280765581

>  <m_score__min__rmsd>  (6) 
5.928210280765581

>  <meeko>  (6) 
{"free_energy": -8.5, "intermolecular_energy": -10.29, "internal_energy": -1.08, "cluster_size": 10, "cluster_id": 1, "rank_in_cluster": 6}

>  <energy>  (6) 
-8.5

>  <cluster_rmsd>  (6) 
0.37

>  <cluster>  (6) 
1

$$$$

     RDKit          3D

 44 47  0  0  0  0  0  0  0  0999 V2000
  133.0990   73.1670  227.1950 N   0  0  0  0  0  0  0  0  0  0  0  0
  133.6700   72.4750  226.4640 C   0  0  0  0  0  0  0  0  0  0  0  0
  134.3800   71.6070  225.5710 C   0  0  0  0  0  0  0  0  0  0  0  0
  134.8930   72.1380  224.3950 C   0  0  0  0  0  0  0  0  0  0  0  0
  135.5910   71.3240  223.5020 C   0  0  0  0  0  0  0  0  0  0  0  0
  135.7990   69.9820  223.7390 C   0  0  0  0  0  0  0  0  0  0  0  0
  136.5220   69.1060  222.8270 C   0  0  0  0  0  0  0  0  0  0  0  0
  137.6680   68.5300  223.1040 C   0  0  0  0  0  0  0  0  0  0  0  0
  138.5430   69.0800  224.1430 C   0  0  0  0  0  0  0  0  0  0  0  0
  138.8020   68.2560  225.1870 N   0  0  0  0  0  0  0  0  0  0  0  0
  139.5650   68.6240  226.2280 C   0  0  0  0  0  0  0  0  0  0  0  0
  139.8100   67.7590  227.2770 C   0  0  0  0  0  0  0  0  0  0  0  0
  140.6040   68.2220  228.3050 C   0  0  0  0  0  0  0  0  0  0  0  0
  141.1320   69.4790  228.2980 C   0  0  0  0  0  0  0  0  0  0  0  0
  140.8690   70.3200  227.2360 C   0  0  0  0  0  0  0  0  0  0  0  0
  140.0820   69.9070  226.1840 C   0  0  0  0  0  0  0  0  0  0  0  0
  139.8040   70.7270  225.1110 C   0  0  0  0  0  0  0  0  0  0  0  0
  140.3190   71.8850  225.1570 O   0  0  0  0  0  0  0  0  0  0  0  0
  139.0290   70.3310  224.0650 N   0  0  0  0  0  0  0  0  0  0  0  0
  138.7610   71.2260  222.9570 C   0  0  0  0  0  0  0  0  0  0  0  0
  139.8890   71.2990  222.0290 C   0  0  0  0  0  0  0  0  0  0  0  0
  140.7000   72.4400  222.0820 C   0  0  0  0  0  0  0  0  0  0  0  0
  141.7970   72.5700  221.2270 C   0  0  0  0  0  0  0  0  0  0  0  0
  142.0900   71.5840  220.3240 C   0  0  0  0  0  0  0  0  0  0  0  0
  141.3100   70.5010  220.2800 N   0  0  0  0  0  0  0  0  0  0  0  0
  140.2490   70.3630  221.1010 C   0  0  0  0  0  0  0  0  0  0  0  0
  135.2740   69.4840  224.9210 C   0  0  0  0  0  0  0  0  0  0  0  0
  134.5810   70.2660  225.8200 C   0  0  0  0  0  0  0  0  0  0  0  0
  134.7486   73.2043  224.1665 H   0  0  0  0  0  0  0  0  0  0  0  0
  135.9887   71.7682  222.5776 H   0  0  0  0  0  0  0  0  0  0  0  0
  136.0772   68.9144  221.8393 H   0  0  0  0  0  0  0  0  0  0  0  0
  137.9739   67.6285  222.5528 H   0  0  0  0  0  0  0  0  0  0  0  0
  139.3890   66.7428  227.2916 H   0  0  0  0  0  0  0  0  0  0  0  0
  140.8176   67.5578  229.1554 H   0  0  0  0  0  0  0  0  0  0  0  0
  141.7626   69.8201  229.1323 H   0  0  0  0  0  0  0  0  0  0  0  0
  141.2940   71.3346  227.2296 H   0  0  0  0  0  0  0  0  0  0  0  0
  137.8762   70.8635  222.4132 H   0  0  0  0  0  0  0  0  0  0  0  0
  138.5906   72.2328  223.3659 H   0  0  0  0  0  0  0  0  0  0  0  0
  140.4713   73.2394  222.8021 H   0  0  0  0  0  0  0  0  0  0  0  0
  142.4284   73.4692  221.2797 H   0  0  0  0  0  0  0  0  0  0  0  0
  142.9517   71.6819  219.6473 H   0  0  0  0  0  0  0  0  0  0  0  0
  139.6418   69.4494  221.0193 H   0  0  0  0  0  0  0  0  0  0  0  0
  135.4166   68.4180  225.1518 H   0  0  0  0  0  0  0  0  0  0  0  0
  134.1854   69.8168  226.7429 H   0  0  0  0  0  0  0  0  0  0  0  0
  1  2  3  0
  2  3  1  0
  3  4  2  0
  4  5  1  0
  5  6  2  0
  6  7  1  0
  7  8  2  0
  8  9  1  0
  9 10  2  0
 10 11  1  0
 11 12  2  0
 12 13  1  0
 13 14  2  0
 14 15  1  0
 15 16  2  0
 16 17  1  0
 17 18  2  0
 17 19  1  0
 19 20  1  0
 20 21  1  0
 21 22  2  0
 22 23  1  0
 23 24  2  0
 24 25  1  0
 25 26  2  0
  6 27  1  0
 27 28  2  0
 28  3  1  0
 19  9  1  0
 26 21  1  0
 16 11  1  0
  4 29  1  0
  5 30  1  0
  7 31  1  0
  8 32  1  0
 12 33  1  0
 13 34  1  0
 14 35  1  0
 15 36  1  0
 20 37  1  0
 20 38  1  0
 22 39  1  0
 23 40  1  0
 24 41  1  0
 26 42  1  0
 27 43  1  0
 28 44  1  0
M  END
>  <smiles>  (7) 
N#Cc1ccc(/C=C/c2nc3ccccc3c(=O)n2Cc2cccnc2)cc1

>  <score_type>  (7) 
oracle

>  <origin>  (7) 
autodockgpu

>  <m_score__min__energy>  (7) 
-8.8599999999999994

>  <m_primary>  (7) 
energy

>  <rmsd>  (7) 
10.652062594060155

>  <m_score__min__rmsd>  (7) 
10.652062594060155

>  <meeko>  (7) 
{"free_energy": -7.12, "intermolecular_energy": -8.91, "internal_energy": -1.51, "cluster_size": 5, "cluster_id": 4, "rank_in_cluster": 5}

>  <energy>  (7) 
-8.49

>  <cluster_rmsd>  (7) 
0.4

>  <cluster>  (7) 
1

$$$$

     RDKit          3D

 44 47  0  0  0  0  0  0  0  0999 V2000
  140.7640   68.2350  228.8040 N   0  0  0  0  0  0  0  0  0  0  0  0
  140.6080   68.8380  227.8300 C   0  0  0  0  0  0  0  0  0  0  0  0
  140.4310   69.5850  226.6180 C   0  0  0  0  0  0  0  0  0  0  0  0
  139.7160   69.0060  225.5780 C   0  0  0  0  0  0  0  0  0  0  0  0
  139.5220   69.7020  224.3850 C   0  0  0  0  0  0  0  0  0  0  0  0
  140.0220   70.9710  224.1850 C   0  0  0  0  0  0  0  0  0  0  0  0
  139.8380   71.7240  222.9510 C   0  0  0  0  0  0  0  0  0  0  0  0
  140.8140   72.0850  222.1510 C   0  0  0  0  0  0  0  0  0  0  0  0
  140.8700   73.4490  221.6180 C   0  0  0  0  0  0  0  0  0  0  0  0
  140.1980   74.3840  222.3310 N   0  0  0  0  0  0  0  0  0  0  0  0
  140.1360   75.6730  221.9580 C   0  0  0  0  0  0  0  0  0  0  0  0
  139.4420   76.6020  222.7090 C   0  0  0  0  0  0  0  0  0  0  0  0
  139.4290   77.9020  222.2490 C   0  0  0  0  0  0  0  0  0  0  0  0
  140.0710   78.2680  221.1030 C   0  0  0  0  0  0  0  0  0  0  0  0
  140.7560   77.3160  220.3760 C   0  0  0  0  0  0  0  0  0  0  0  0
  140.8000   76.0040  220.7900 C   0  0  0  0  0  0  0  0  0  0  0  0
  141.4770   75.0340  220.0820 C   0  0  0  0  0  0  0  0  0  0  0  0
  142.0550   75.4290  219.0240 O   0  0  0  0  0  0  0  0  0  0  0  0
  141.5280   73.7340  220.4810 N   0  0  0  0  0  0  0  0  0  0  0  0
  142.2510   72.7450  219.7050 C   0  0  0  0  0  0  0  0  0  0  0  0
  143.6960   72.9650  219.7510 C   0  0  0  0  0  0  0  0  0  0  0  0
  144.2100   73.6680  220.8470 C   0  0  0  0  0  0  0  0  0  0  0  0
  145.5820   73.9070  220.9550 C   0  0  0  0  0  0  0  0  0  0  0  0
  146.4400   73.4570  219.9880 C   0  0  0  0  0  0  0  0  0  0  0  0
  145.9400   72.7890  218.9460 N   0  0  0  0  0  0  0  0  0  0  0  0
  144.6170   72.5510  218.8310 C   0  0  0  0  0  0  0  0  0  0  0  0
  140.7310   71.5210  225.2420 C   0  0  0  0  0  0  0  0  0  0  0  0
  140.9360   70.8540  226.4310 C   0  0  0  0  0  0  0  0  0  0  0  0
  139.3008   67.9941  225.6955 H   0  0  0  0  0  0  0  0  0  0  0  0
  138.9508   69.2222  223.5765 H   0  0  0  0  0  0  0  0  0  0  0  0
  138.8130   72.0088  222.6714 H   0  0  0  0  0  0  0  0  0  0  0  0
  141.5946   71.3593  221.8790 H   0  0  0  0  0  0  0  0  0  0  0  0
  138.9216   76.3167  223.6351 H   0  0  0  0  0  0  0  0  0  0  0  0
  138.8848   78.6661  222.8234 H   0  0  0  0  0  0  0  0  0  0  0  0
  140.0431   79.3131  220.7610 H   0  0  0  0  0  0  0  0  0  0  0  0
  141.2747   77.6100  219.4516 H   0  0  0  0  0  0  0  0  0  0  0  0
  142.0305   71.7458  220.1086 H   0  0  0  0  0  0  0  0  0  0  0  0
  141.9266   72.8303  218.6574 H   0  0  0  0  0  0  0  0  0  0  0  0
  143.5286   74.0348  221.6288 H   0  0  0  0  0  0  0  0  0  0  0  0
  145.9748   74.4595  221.8213 H   0  0  0  0  0  0  0  0  0  0  0  0
  147.5213   73.6424  220.0681 H   0  0  0  0  0  0  0  0  0  0  0  0
  144.2616   71.9949  217.9510 H   0  0  0  0  0  0  0  0  0  0  0  0
  141.1476   72.5325  225.1270 H   0  0  0  0  0  0  0  0  0  0  0  0
  141.5071   71.3382  227.2369 H   0  0  0  0  0  0  0  0  0  0  0  0
  1  2  3  0
  2  3  1  0
  3  4  2  0
  4  5  1  0
  5  6  2  0
  6  7  1  0
  7  8  2  0
  8  9  1  0
  9 10  2  0
 10 11  1  0
 11 12  2  0
 12 13  1  0
 13 14  2  0
 14 15  1  0
 15 16  2  0
 16 17  1  0
 17 18  2  0
 17 19  1  0
 19 20  1  0
 20 21  1  0
 21 22  2  0
 22 23  1  0
 23 24  2  0
 24 25  1  0
 25 26  2  0
  6 27  1  0
 27 28  2  0
 28  3  1  0
 19  9  1  0
 26 21  1  0
 16 11  1  0
  4 29  1  0
  5 30  1  0
  7 31  1  0
  8 32  1  0
 12 33  1  0
 13 34  1  0
 14 35  1  0
 15 36  1  0
 20 37  1  0
 20 38  1  0
 22 39  1  0
 23 40  1  0
 24 41  1  0
 26 42  1  0
 27 43  1  0
 28 44  1  0
M  END
>  <smiles>  (8) 
N#Cc1ccc(/C=C/c2nc3ccccc3c(=O)n2Cc2cccnc2)cc1

>  <score_type>  (8) 
oracle

>  <origin>  (8) 
autodockgpu

>  <m_score__min__energy>  (8) 
-8.8599999999999994

>  <m_primary>  (8) 
energy

>  <rmsd>  (8) 
5.728245321424122

>  <m_score__min__rmsd>  (8) 
5.728245321424122

>  <meeko>  (8) 
{"free_energy": -8.39, "intermolecular_energy": -10.18, "internal_energy": -1.06, "cluster_size": 10, "cluster_id": 1, "rank_in_cluster": 9}

>  <energy>  (8) 
-8.43

>  <cluster_rmsd>  (8) 
0.43

>  <cluster>  (8) 
1

$$$$

     RDKit          3D

 44 47  0  0  0  0  0  0  0  0999 V2000
  145.9480   73.0270  219.1630 N   0  0  0  0  0  0  0  0  0  0  0  0
  144.9230   72.9730  219.6960 C   0  0  0  0  0  0  0  0  0  0  0  0
  143.6500   72.9230  220.3530 C   0  0  0  0  0  0  0  0  0  0  0  0
  142.9550   74.1090  220.5490 C   0  0  0  0  0  0  0  0  0  0  0  0
  141.7130   74.1000  221.1840 C   0  0  0  0  0  0  0  0  0  0  0  0
  141.1290   72.9370  221.6390 C   0  0  0  0  0  0  0  0  0  0  0  0
  139.8350   72.8940  222.3070 C   0  0  0  0  0  0  0  0  0  0  0  0
  139.1170   71.8060  222.4640 C   0  0  0  0  0  0  0  0  0  0  0  0
  139.3040   70.9590  223.6450 C   0  0  0  0  0  0  0  0  0  0  0  0
  139.9540   71.5370  224.6830 N   0  0  0  0  0  0  0  0  0  0  0  0
  140.2230   70.8820  225.8250 C   0  0  0  0  0  0  0  0  0  0  0  0
  140.8890   71.5010  226.8640 C   0  0  0  0  0  0  0  0  0  0  0  0
  141.1230   70.7520  227.9980 C   0  0  0  0  0  0  0  0  0  0  0  0
  140.7190   69.4540  228.1010 C   0  0  0  0  0  0  0  0  0  0  0  0
  140.0560   68.8640  227.0450 C   0  0  0  0  0  0  0  0  0  0  0  0
  139.7970   69.5670  225.8900 C   0  0  0  0  0  0  0  0  0  0  0  0
  139.1360   69.0020  224.8200 C   0  0  0  0  0  0  0  0  0  0  0  0
  138.7840   67.7930  224.9700 O   0  0  0  0  0  0  0  0  0  0  0  0
  138.8730   69.6860  223.6740 N   0  0  0  0  0  0  0  0  0  0  0  0
  138.1760   69.0520  222.5720 C   0  0  0  0  0  0  0  0  0  0  0  0
  139.0900   68.3170  221.6970 C   0  0  0  0  0  0  0  0  0  0  0  0
  139.0570   66.9180  221.7550 C   0  0  0  0  0  0  0  0  0  0  0  0
  139.9000   66.1560  220.9420 C   0  0  0  0  0  0  0  0  0  0  0  0
  140.7690   66.7690  220.0810 C   0  0  0  0  0  0  0  0  0  0  0  0
  140.7930   68.1030  220.0340 N   0  0  0  0  0  0  0  0  0  0  0  0
  139.9840   68.8500  220.8130 C   0  0  0  0  0  0  0  0  0  0  0  0
  141.8470   71.7710  221.4290 C   0  0  0  0  0  0  0  0  0  0  0  0
  143.0760   71.7520  220.8030 C   0  0  0  0  0  0  0  0  0  0  0  0
  143.3857   75.0598  220.2020 H   0  0  0  0  0  0  0  0  0  0  0  0
  141.1818   75.0527  221.3265 H   0  0  0  0  0  0  0  0  0  0  0  0
  139.4325   73.8364  222.7067 H   0  0  0  0  0  0  0  0  0  0  0  0
  138.3709   71.5288  221.7047 H   0  0  0  0  0  0  0  0  0  0  0  0
  141.2191   72.5477  226.7903 H   0  0  0  0  0  0  0  0  0  0  0  0
  141.6511   71.2155  228.8443 H   0  0  0  0  0  0  0  0  0  0  0  0
  140.9201   68.8819  229.0187 H   0  0  0  0  0  0  0  0  0  0  0  0
  139.7296   67.8168  227.1269 H   0  0  0  0  0  0  0  0  0  0  0  0
  137.4322   68.3508  222.9783 H   0  0  0  0  0  0  0  0  0  0  0  0
  137.6942   69.8406  221.9754 H   0  0  0  0  0  0  0  0  0  0  0  0
  138.3630   66.4159  222.4451 H   0  0  0  0  0  0  0  0  0  0  0  0
  139.8649   65.0578  220.9944 H   0  0  0  0  0  0  0  0  0  0  0  0
  141.4354   66.1737  219.4395 H   0  0  0  0  0  0  0  0  0  0  0  0
  140.0477   69.9452  220.7320 H   0  0  0  0  0  0  0  0  0  0  0  0
  141.4186   70.8193  221.7764 H   0  0  0  0  0  0  0  0  0  0  0  0
  143.6021   70.7964  220.6616 H   0  0  0  0  0  0  0  0  0  0  0  0
  1  2  3  0
  2  3  1  0
  3  4  2  0
  4  5  1  0
  5  6  2  0
  6  7  1  0
  7  8  2  0
  8  9  1  0
  9 10  2  0
 10 11  1  0
 11 12  2  0
 12 13  1  0
 13 14  2  0
 14 15  1  0
 15 16  2  0
 16 17  1  0
 17 18  2  0
 17 19  1  0
 19 20  1  0
 20 21  1  0
 21 22  2  0
 22 23  1  0
 23 24  2  0
 24 25  1  0
 25 26  2  0
  6 27  1  0
 27 28  2  0
 28  3  1  0
 19  9  1  0
 26 21  1  0
 16 11  1  0
  4 29  1  0
  5 30  1  0
  7 31  1  0
  8 32  1  0
 12 33  1  0
 13 34  1  0
 14 35  1  0
 15 36  1  0
 20 37  1  0
 20 38  1  0
 22 39  1  0
 23 40  1  0
 24 41  1  0
 26 42  1  0
 27 43  1  0
 28 44  1  0
M  END
>  <smiles>  (9) 
N#Cc1ccc(/C=C/c2nc3ccccc3c(=O)n2Cc2cccnc2)cc1

>  <score_type>  (9) 
oracle

>  <origin>  (9) 
autodockgpu

>  <m_score__min__energy>  (9) 
-8.8599999999999994

>  <m_primary>  (9) 
energy

>  <rmsd>  (9) 
11.52083801605569

>  <m_score__min__rmsd>  (9) 
11.52083801605569

>  <meeko>  (9) 
{"free_energy": -7.81, "intermolecular_energy": -9.6, "internal_energy": -1.47, "cluster_size": 33, "cluster_id": 2, "rank_in_cluster": 28}

>  <energy>  (9) 
-8.39

>  <cluster_rmsd>  (9) 
0.49

>  <cluster>  (9) 
1

$$$$

     RDKit          3D

 44 47  0  0  0  0  0  0  0  0999 V2000
  141.1090   68.1640  228.7780 N   0  0  0  0  0  0  0  0  0  0  0  0
  140.8550   68.7580  227.8180 C   0  0  0  0  0  0  0  0  0  0  0  0
  140.5420   69.4800  226.6190 C   0  0  0  0  0  0  0  0  0  0  0  0
  141.0210   70.7750  226.4780 C   0  0  0  0  0  0  0  0  0  0  0  0
  140.7380   71.5080  225.3250 C   0  0  0  0  0  0  0  0  0  0  0  0
  139.9830   70.9930  224.2940 C   0  0  0  0  0  0  0  0  0  0  0  0
  139.6680   71.7320  223.0790 C   0  0  0  0  0  0  0  0  0  0  0  0
  140.5110   71.9300  222.0920 C   0  0  0  0  0  0  0  0  0  0  0  0
  140.8510   73.2910  221.6680 C   0  0  0  0  0  0  0  0  0  0  0  0
  140.1540   74.2830  222.2710 N   0  0  0  0  0  0  0  0  0  0  0  0
  140.3340   75.5800  221.9710 C   0  0  0  0  0  0  0  0  0  0  0  0
  139.6050   76.5680  222.6050 C   0  0  0  0  0  0  0  0  0  0  0  0
  139.8550   77.8720  222.2340 C   0  0  0  0  0  0  0  0  0  0  0  0
  140.7800   78.1870  221.2830 C   0  0  0  0  0  0  0  0  0  0  0  0
  141.4920   77.1770  220.6680 C   0  0  0  0  0  0  0  0  0  0  0  0
  141.2810   75.8580  221.0020 C   0  0  0  0  0  0  0  0  0  0  0  0
  141.9790   74.8300  220.4030 C   0  0  0  0  0  0  0  0  0  0  0  0
  142.8250   75.1790  219.5260 O   0  0  0  0  0  0  0  0  0  0  0  0
  141.7800   73.5230  220.7240 N   0  0  0  0  0  0  0  0  0  0  0  0
  142.5350   72.4730  220.0690 C   0  0  0  0  0  0  0  0  0  0  0  0
  143.9630   72.7830  220.0080 C   0  0  0  0  0  0  0  0  0  0  0  0
  144.5860   73.2050  221.1900 C   0  0  0  0  0  0  0  0  0  0  0  0
  145.9480   73.5130  221.2010 C   0  0  0  0  0  0  0  0  0  0  0  0
  146.6900   73.4060  220.0570 C   0  0  0  0  0  0  0  0  0  0  0  0
  146.0880   73.0040  218.9350 N   0  0  0  0  0  0  0  0  0  0  0  0
  144.7730   72.7030  218.9110 C   0  0  0  0  0  0  0  0  0  0  0  0
  139.5190   69.6980  224.4660 C   0  0  0  0  0  0  0  0  0  0  0  0
  139.7850   68.9520  225.5940 C   0  0  0  0  0  0  0  0  0  0  0  0
  141.6262   71.2253  227.2786 H   0  0  0  0  0  0  0  0  0  0  0  0
  141.1309   72.5316  225.2361 H   0  0  0  0  0  0  0  0  0  0  0  0
  138.6561   72.1524  222.9818 H   0  0  0  0  0  0  0  0  0  0  0  0
  140.9650   71.0687  221.5800 H   0  0  0  0  0  0  0  0  0  0  0  0
  138.8566   76.3242  223.3734 H   0  0  0  0  0  0  0  0  0  0  0  0
  139.2915   78.6824  222.7196 H   0  0  0  0  0  0  0  0  0  0  0  0
  140.9573   79.2373  221.0082 H   0  0  0  0  0  0  0  0  0  0  0  0
  142.2384   77.4294  219.9004 H   0  0  0  0  0  0  0  0  0  0  0  0
  142.3985   71.5355  220.6280 H   0  0  0  0  0  0  0  0  0  0  0  0
  142.1629   72.3787  219.0381 H   0  0  0  0  0  0  0  0  0  0  0  0
  143.9982   73.2943  222.1155 H   0  0  0  0  0  0  0  0  0  0  0  0
  146.4267   73.8434  222.1347 H   0  0  0  0  0  0  0  0  0  0  0  0
  147.7633   73.6468  220.0612 H   0  0  0  0  0  0  0  0  0  0  0  0
  144.3302   72.3762  217.9586 H   0  0  0  0  0  0  0  0  0  0  0  0
  138.9121   69.2462  223.6675 H   0  0  0  0  0  0  0  0  0  0  0  0
  139.3909   67.9284  225.6774 H   0  0  0  0  0  0  0  0  0  0  0  0
  1  2  3  0
  2  3  1  0
  3  4  2  0
  4  5  1  0
  5  6  2  0
  6  7  1  0
  7  8  2  0
  8  9  1  0
  9 10  2  0
 10 11  1  0
 11 12  2  0
 12 13  1  0
 13 14  2  0
 14 15  1  0
 15 16  2  0
 16 17  1  0
 17 18  2  0
 17 19  1  0
 19 20  1  0
 20 21  1  0
 21 22  2  0
 22 23  1  0
 23 24  2  0
 24 25  1  0
 25 26  2  0
  6 27  1  0
 27 28  2  0
 28  3  1  0
 19  9  1  0
 26 21  1  0
 16 11  1  0
  4 29  1  0
  5 30  1  0
  7 31  1  0
  8 32  1  0
 12 33  1  0
 13 34  1  0
 14 35  1  0
 15 36  1  0
 20 37  1  0
 20 38  1  0
 22 39  1  0
 23 40  1  0
 24 41  1  0
 26 42  1  0
 27 43  1  0
 28 44  1  0
M  END
>  <smiles>  (10) 
N#Cc1ccc(/C=C/c2nc3ccccc3c(=O)n2Cc2cccnc2)cc1

>  <score_type>  (10) 
oracle

>  <origin>  (10) 
autodockgpu

>  <m_score__min__energy>  (10) 
-8.8599999999999994

>  <m_primary>  (10) 
energy

>  <rmsd>  (10) 
5.998556626483649

>  <m_score__min__rmsd>  (10) 
5.998556626483649

>  <meeko>  (10) 
{"free_energy": -8.84, "intermolecular_energy": -10.63, "internal_energy": -0.96, "cluster_size": 10, "cluster_id": 1, "rank_in_cluster": 3}

>  <energy>  (10) 
-7.61

>  <cluster_rmsd>  (10) 
0.76

>  <cluster>  (10) 
1

$$$$

     RDKit          3D

 44 47  0  0  0  0  0  0  0  0999 V2000
  141.0370   68.6130  228.7520 N   0  0  0  0  0  0  0  0  0  0  0  0
  140.7930   69.1320  227.7480 C   0  0  0  0  0  0  0  0  0  0  0  0
  140.4960   69.7620  226.4940 C   0  0  0  0  0  0  0  0  0  0  0  0
  139.6270   69.1240  225.6190 C   0  0  0  0  0  0  0  0  0  0  0  0
  139.3120   69.7060  224.3910 C   0  0  0  0  0  0  0  0  0  0  0  0
  139.8400   70.9170  223.9950 C   0  0  0  0  0  0  0  0  0  0  0  0
  139.5330   71.5500  222.7200 C   0  0  0  0  0  0  0  0  0  0  0  0
  140.4230   71.8240  221.7940 C   0  0  0  0  0  0  0  0  0  0  0  0
  140.7850   73.2130  221.5000 C   0  0  0  0  0  0  0  0  0  0  0  0
  140.0620   74.1560  222.1500 N   0  0  0  0  0  0  0  0  0  0  0  0
  140.2580   75.4720  221.9670 C   0  0  0  0  0  0  0  0  0  0  0  0
  139.5030   76.4080  222.6460 C   0  0  0  0  0  0  0  0  0  0  0  0
  139.7720   77.7380  222.3960 C   0  0  0  0  0  0  0  0  0  0  0  0
  140.7400   78.1240  221.5170 C   0  0  0  0  0  0  0  0  0  0  0  0
  141.4780   77.1640  220.8550 C   0  0  0  0  0  0  0  0  0  0  0  0
  141.2490   75.8230  221.0680 C   0  0  0  0  0  0  0  0  0  0  0  0
  141.9720   74.8440  220.4190 C   0  0  0  0  0  0  0  0  0  0  0  0
  142.8590   75.2600  219.6140 O   0  0  0  0  0  0  0  0  0  0  0  0
  141.7570   73.5170  220.6220 N   0  0  0  0  0  0  0  0  0  0  0  0
  142.5390   72.5200  219.9180 C   0  0  0  0  0  0  0  0  0  0  0  0
  143.9720   72.8130  219.9690 C   0  0  0  0  0  0  0  0  0  0  0  0
  144.5230   73.1330  221.2170 C   0  0  0  0  0  0  0  0  0  0  0  0
  145.8850   73.4180  221.3360 C   0  0  0  0  0  0  0  0  0  0  0  0
  146.6960   73.3900  220.2350 C   0  0  0  0  0  0  0  0  0  0  0  0
  146.1620   73.0850  219.0500 N   0  0  0  0  0  0  0  0  0  0  0  0
  144.8480   72.8060  218.9210 C   0  0  0  0  0  0  0  0  0  0  0  0
  140.7040   71.5270  224.8900 C   0  0  0  0  0  0  0  0  0  0  0  0
  141.0300   70.9740  226.1110 C   0  0  0  0  0  0  0  0  0  0  0  0
  139.1850   68.1554  225.8953 H   0  0  0  0  0  0  0  0  0  0  0  0
  138.6195   69.1817  223.7161 H   0  0  0  0  0  0  0  0  0  0  0  0
  138.4849   71.8167  222.5190 H   0  0  0  0  0  0  0  0  0  0  0  0
  140.8999   71.0052  221.2353 H   0  0  0  0  0  0  0  0  0  0  0  0
  138.7197   76.1058  223.3567 H   0  0  0  0  0  0  0  0  0  0  0  0
  139.1888   78.5089  222.9209 H   0  0  0  0  0  0  0  0  0  0  0  0
  140.9313   79.1922  221.3369 H   0  0  0  0  0  0  0  0  0  0  0  0
  142.2605   77.4745  220.1470 H   0  0  0  0  0  0  0  0  0  0  0  0
  142.3605   71.5375  220.3793 H   0  0  0  0  0  0  0  0  0  0  0  0
  142.2277   72.5258  218.8630 H   0  0  0  0  0  0  0  0  0  0  0  0
  143.8789   73.1599  222.1083 H   0  0  0  0  0  0  0  0  0  0  0  0
  146.3078   73.6664  222.3206 H   0  0  0  0  0  0  0  0  0  0  0  0
  147.7691   73.6148  220.3243 H   0  0  0  0  0  0  0  0  0  0  0  0
  144.4626   72.5603  217.9205 H   0  0  0  0  0  0  0  0  0  0  0  0
  141.1494   72.4944  224.6149 H   0  0  0  0  0  0  0  0  0  0  0  0
  141.7207   71.5036  226.7836 H   0  0  0  0  0  0  0  0  0  0  0  0
  1  2  3  0
  2  3  1  0
  3  4  2  0
  4  5  1  0
  5  6  2  0
  6  7  1  0
  7  8  2  0
  8  9  1  0
  9 10  2  0
 10 11  1  0
 11 12  2  0
 12 13  1  0
 13 14  2  0
 14 15  1  0
 15 16  2  0
 16 17  1  0
 17 18  2  0
 17 19  1  0
 19 20  1  0
 20 21  1  0
 21 22  2  0
 22 23  1  0
 23 24  2  0
 24 25  1  0
 25 26  2  0
  6 27  1  0
 27 28  2  0
 28  3  1  0
 19  9  1  0
 26 21  1  0
 16 11  1  0
  4 29  1  0
  5 30  1  0
  7 31  1  0
  8 32  1  0
 12 33  1  0
 13 34  1  0
 14 35  1  0
 15 36  1  0
 20 37  1  0
 20 38  1  0
 22 39  1  0
 23 40  1  0
 24 41  1  0
 26 42  1  0
 27 43  1  0
 28 44  1  0
M  END
>  <smiles>  (11) 
N#Cc1ccc(/C=C/c2nc3ccccc3c(=O)n2Cc2cccnc2)cc1

>  <score_type>  (11) 
oracle

>  <origin>  (11) 
autodockgpu

>  <m_score__min__energy>  (11) 
-8.8599999999999994

>  <m_primary>  (11) 
energy

>  <rmsd>  (11) 
6.055238162027113

>  <m_score__min__rmsd>  (11) 
6.055238162027113

>  <meeko>  (11) 
{"free_energy": -8.62, "intermolecular_energy": -10.41, "internal_energy": -1.02, "cluster_size": 10, "cluster_id": 1, "rank_in_cluster": 5}

>  <energy>  (11) 
-8.4

>  <cluster_rmsd>  (11) 
0.0

>  <cluster>  (11) 
2

$$$$

     RDKit          3D

 44 47  0  0  0  0  0  0  0  0999 V2000
  133.1270   73.5080  227.1850 N   0  0  0  0  0  0  0  0  0  0  0  0
  133.6320   72.6830  226.5500 C   0  0  0  0  0  0  0  0  0  0  0  0
  134.2550   71.6700  225.7490 C   0  0  0  0  0  0  0  0  0  0  0  0
  134.6770   72.0010  224.4680 C   0  0  0  0  0  0  0  0  0  0  0  0
  135.2880   71.0420  223.6590 C   0  0  0  0  0  0  0  0  0  0  0  0
  135.4950   69.7470  224.0830 C   0  0  0  0  0  0  0  0  0  0  0  0
  136.1280   68.7230  223.2630 C   0  0  0  0  0  0  0  0  0  0  0  0
  137.4170   68.6570  223.0220 C   0  0  0  0  0  0  0  0  0  0  0  0
  138.3830   69.1270  224.0190 C   0  0  0  0  0  0  0  0  0  0  0  0
  138.8010   68.1980  224.9110 N   0  0  0  0  0  0  0  0  0  0  0  0
  139.6660   68.4810  225.9000 C   0  0  0  0  0  0  0  0  0  0  0  0
  140.0710   67.5100  226.7940 C   0  0  0  0  0  0  0  0  0  0  0  0
  140.9600   67.8900  227.7770 C   0  0  0  0  0  0  0  0  0  0  0  0
  141.4270   69.1670  227.8730 C   0  0  0  0  0  0  0  0  0  0  0  0
  141.0020   70.1150  226.9640 C   0  0  0  0  0  0  0  0  0  0  0  0
  140.1150   69.7880  225.9630 C   0  0  0  0  0  0  0  0  0  0  0  0
  139.6760   70.7150  225.0420 C   0  0  0  0  0  0  0  0  0  0  0  0
  140.1400   71.8870  225.1780 O   0  0  0  0  0  0  0  0  0  0  0  0
  138.8000   70.4050  224.0480 N   0  0  0  0  0  0  0  0  0  0  0  0
  138.3620   71.4110  223.1010 C   0  0  0  0  0  0  0  0  0  0  0  0
  139.4910   72.1010  222.4750 C   0  0  0  0  0  0  0  0  0  0  0  0
  140.5170   71.3110  221.9410 C   0  0  0  0  0  0  0  0  0  0  0  0
  141.6200   71.9060  221.3250 C   0  0  0  0  0  0  0  0  0  0  0  0
  141.7120   73.2690  221.2390 C   0  0  0  0  0  0  0  0  0  0  0  0
  140.7300   74.0130  221.7520 N   0  0  0  0  0  0  0  0  0  0  0  0
  139.6580   73.4510  222.3490 C   0  0  0  0  0  0  0  0  0  0  0  0
  135.0620   69.4490  225.3650 C   0  0  0  0  0  0  0  0  0  0  0  0
  134.4560   70.3780  226.1850 C   0  0  0  0  0  0  0  0  0  0  0  0
  134.5291   73.0232  224.0895 H   0  0  0  0  0  0  0  0  0  0  0  0
  135.6154   71.3293  222.6489 H   0  0  0  0  0  0  0  0  0  0  0  0
  135.4825   67.9529  222.8154 H   0  0  0  0  0  0  0  0  0  0  0  0
  137.7741   68.2464  222.0660 H   0  0  0  0  0  0  0  0  0  0  0  0
  139.7000   66.4767  226.7250 H   0  0  0  0  0  0  0  0  0  0  0  0
  141.3026   67.1403  228.5054 H   0  0  0  0  0  0  0  0  0  0  0  0
  142.1365   69.4398  228.6681 H   0  0  0  0  0  0  0  0  0  0  0  0
  141.3773   71.1462  227.0405 H   0  0  0  0  0  0  0  0  0  0  0  0
  137.7637   70.9243  222.3167 H   0  0  0  0  0  0  0  0  0  0  0  0
  137.7675   72.1576  223.6480 H   0  0  0  0  0  0  0  0  0  0  0  0
  140.4535   70.2148  222.0073 H   0  0  0  0  0  0  0  0  0  0  0  0
  142.4190   71.2761  220.9067 H   0  0  0  0  0  0  0  0  0  0  0  0
  142.5795   73.7424  220.7559 H   0  0  0  0  0  0  0  0  0  0  0  0
  138.8793   74.1135  222.7547 H   0  0  0  0  0  0  0  0  0  0  0  0
  135.2078   68.4272  225.7454 H   0  0  0  0  0  0  0  0  0  0  0  0
  134.1307   70.0856  227.1943 H   0  0  0  0  0  0  0  0  0  0  0  0
  1  2  3  0
  2  3  1  0
  3  4  2  0
  4  5  1  0
  5  6  2  0
  6  7  1  0
  7  8  2  0
  8  9  1  0
  9 10  2  0
 10 11  1  0
 11 12  2  0
 12 13  1  0
 13 14  2  0
 14 15  1  0
 15 16  2  0
 16 17  1  0
 17 18  2  0
 17 19  1  0
 19 20  1  0
 20 21  1  0
 21 22  2  0
 22 23  1  0
 23 24  2  0
 24 25  1  0
 25 26  2  0
  6 27  1  0
 27 28  2  0
 28  3  1  0
 19  9  1  0
 26 21  1  0
 16 11  1  0
  4 29  1  0
  5 30  1  0
  7 31  1  0
  8 32  1  0
 12 33  1  0
 13 34  1  0
 14 35  1  0
 15 36  1  0
 20 37  1  0
 20 38  1  0
 22 39  1  0
 23 40  1  0
 24 41  1  0
 26 42  1  0
 27 43  1  0
 28 44  1  0
M  END
>  <smiles>  (12) 
N#Cc1ccc(/C=C/c2nc3ccccc3c(=O)n2Cc2cccnc2)cc1

>  <score_type>  (12) 
oracle

>  <origin>  (12) 
autodockgpu

>  <m_score__min__energy>  (12) 
-8.8599999999999994

>  <m_primary>  (12) 
energy

>  <rmsd>  (12) 
10.712213929722056

>  <m_score__min__rmsd>  (12) 
10.712213929722056

>  <meeko>  (12) 
{"free_energy": -7.48, "intermolecular_energy": -9.27, "internal_energy": -1.52, "cluster_size": 5, "cluster_id": 4, "rank_in_cluster": 3}

>  <energy>  (12) 
-8.37

>  <cluster_rmsd>  (12) 
0.28

>  <cluster>  (12) 
2

$$$$

     RDKit          3D

 44 47  0  0  0  0  0  0  0  0999 V2000
  145.9450   73.0440  218.3150 N   0  0  0  0  0  0  0  0  0  0  0  0
  145.0010   72.9950  218.9820 C   0  0  0  0  0  0  0  0  0  0  0  0
  143.8330   72.9500  219.8120 C   0  0  0  0  0  0  0  0  0  0  0  0
  143.4360   71.7270  220.3360 C   0  0  0  0  0  0  0  0  0  0  0  0
  142.3050   71.6440  221.1490 C   0  0  0  0  0  0  0  0  0  0  0  0
  141.5430   72.7490  221.4640 C   0  0  0  0  0  0  0  0  0  0  0  0
  140.3580   72.6960  222.3090 C   0  0  0  0  0  0  0  0  0  0  0  0
  139.6060   71.6310  222.4650 C   0  0  0  0  0  0  0  0  0  0  0  0
  139.6700   70.8530  223.7050 C   0  0  0  0  0  0  0  0  0  0  0  0
  140.2600   71.4730  224.7550 N   0  0  0  0  0  0  0  0  0  0  0  0
  140.4170   70.8810  225.9510 C   0  0  0  0  0  0  0  0  0  0  0  0
  141.0240   71.5420  227.0010 C   0  0  0  0  0  0  0  0  0  0  0  0
  141.1430   70.8570  228.1930 C   0  0  0  0  0  0  0  0  0  0  0  0
  140.6840   69.5820  228.3400 C   0  0  0  0  0  0  0  0  0  0  0  0
  140.0820   68.9490  227.2720 C   0  0  0  0  0  0  0  0  0  0  0  0
  139.9390   69.5880  226.0600 C   0  0  0  0  0  0  0  0  0  0  0  0
  139.3410   68.9780  224.9770 C   0  0  0  0  0  0  0  0  0  0  0  0
  138.9340   67.7930  225.1700 O   0  0  0  0  0  0  0  0  0  0  0  0
  139.1920   69.5980  223.7750 N   0  0  0  0  0  0  0  0  0  0  0  0
  138.5590   68.9200  222.6610 C   0  0  0  0  0  0  0  0  0  0  0  0
  137.1250   68.7310  222.8810 C   0  0  0  0  0  0  0  0  0  0  0  0
  136.4750   69.6350  223.7310 C   0  0  0  0  0  0  0  0  0  0  0  0
  135.1050   69.5130  223.9790 C   0  0  0  0  0  0  0  0  0  0  0  0
  134.3840   68.5080  223.3950 C   0  0  0  0  0  0  0  0  0  0  0  0
  135.0120   67.6510  222.5870 N   0  0  0  0  0  0  0  0  0  0  0  0
  136.3340   67.7580  222.3380 C   0  0  0  0  0  0  0  0  0  0  0  0
  141.9660   73.9540  220.9260 C   0  0  0  0  0  0  0  0  0  0  0  0
  143.0800   74.0640  220.1200 C   0  0  0  0  0  0  0  0  0  0  0  0
  144.0154   70.8199  220.1093 H   0  0  0  0  0  0  0  0  0  0  0  0
  142.0114   70.6636  221.5523 H   0  0  0  0  0  0  0  0  0  0  0  0
  140.0740   73.6090  222.8528 H   0  0  0  0  0  0  0  0  0  0  0  0
  138.9237   71.3209  221.6598 H   0  0  0  0  0  0  0  0  0  0  0  0
  141.3968   72.5711  226.8916 H   0  0  0  0  0  0  0  0  0  0  0  0
  141.6221   71.3543  229.0493 H   0  0  0  0  0  0  0  0  0  0  0  0
  140.7927   69.0616  229.3030 H   0  0  0  0  0  0  0  0  0  0  0  0
  139.7112   67.9201  227.3899 H   0  0  0  0  0  0  0  0  0  0  0  0
  138.7030   69.5207  221.7508 H   0  0  0  0  0  0  0  0  0  0  0  0
  139.0219   67.9274  222.5584 H   0  0  0  0  0  0  0  0  0  0  0  0
  137.0464   70.4459  224.2063 H   0  0  0  0  0  0  0  0  0  0  0  0
  134.6040   70.2288  224.6473 H   0  0  0  0  0  0  0  0  0  0  0  0
  133.3057   68.4078  223.5878 H   0  0  0  0  0  0  0  0  0  0  0  0
  136.7988   67.0242  221.6631 H   0  0  0  0  0  0  0  0  0  0  0  0
  141.3882   74.8624  221.1515 H   0  0  0  0  0  0  0  0  0  0  0  0
  143.3699   75.0469  219.7201 H   0  0  0  0  0  0  0  0  0  0  0  0
  1  2  3  0
  2  3  1  0
  3  4  2  0
  4  5  1  0
  5  6  2  0
  6  7  1  0
  7  8  2  0
  8  9  1  0
  9 10  2  0
 10 11  1  0
 11 12  2  0
 12 13  1  0
 13 14  2  0
 14 15  1  0
 15 16  2  0
 16 17  1  0
 17 18  2  0
 17 19  1  0
 19 20  1  0
 20 21  1  0
 21 22  2  0
 22 23  1  0
 23 24  2  0
 24 25  1  0
 25 26  2  0
  6 27  1  0
 27 28  2  0
 28  3  1  0
 19  9  1  0
 26 21  1  0
 16 11  1  0
  4 29  1  0
  5 30  1  0
  7 31  1  0
  8 32  1  0
 12 33  1  0
 13 34  1  0
 14 35  1  0
 15 36  1  0
 20 37  1  0
 20 38  1  0
 22 39  1  0
 23 40  1  0
 24 41  1  0
 26 42  1  0
 27 43  1  0
 28 44  1  0
M  END
>  <smiles>  (13) 
N#Cc1ccc(/C=C/c2nc3ccccc3c(=O)n2Cc2cccnc2)cc1

>  <score_type>  (13) 
oracle

>  <origin>  (13) 
autodockgpu

>  <m_score__min__energy>  (13) 
-8.8599999999999994

>  <m_primary>  (13) 
energy

>  <rmsd>  (13) 
11.63148753121134

>  <m_score__min__rmsd>  (13) 
11.63148753121134

>  <meeko>  (13) 
{"free_energy": -7.92, "intermolecular_energy": -9.71, "internal_energy": -1.13, "cluster_size": 33, "cluster_id": 2, "rank_in_cluster": 24}

>  <energy>  (13) 
-8.37

>  <cluster_rmsd>  (13) 
0.22

>  <cluster>  (13) 
2

$$$$

     RDKit          3D

 44 47  0  0  0  0  0  0  0  0999 V2000
  145.9680   73.0190  219.3290 N   0  0  0  0  0  0  0  0  0  0  0  0
  144.9170   73.0140  219.8130 C   0  0  0  0  0  0  0  0  0  0  0  0
  143.6150   72.9910  220.4130 C   0  0  0  0  0  0  0  0  0  0  0  0
  143.0900   71.7700  220.8160 C   0  0  0  0  0  0  0  0  0  0  0  0
  141.8260   71.7080  221.4040 C   0  0  0  0  0  0  0  0  0  0  0  0
  141.0540   72.8310  221.6080 C   0  0  0  0  0  0  0  0  0  0  0  0
  139.7320   72.8000  222.2170 C   0  0  0  0  0  0  0  0  0  0  0  0
  139.0580   71.7020  222.4730 C   0  0  0  0  0  0  0  0  0  0  0  0
  139.3020   70.9520  223.7080 C   0  0  0  0  0  0  0  0  0  0  0  0
  140.0160   71.6040  224.6570 N   0  0  0  0  0  0  0  0  0  0  0  0
  140.3420   71.0410  225.8320 C   0  0  0  0  0  0  0  0  0  0  0  0
  141.0710   71.7330  226.7790 C   0  0  0  0  0  0  0  0  0  0  0  0
  141.3610   71.0760  227.9560 C   0  0  0  0  0  0  0  0  0  0  0  0
  140.9510   69.7970  228.1880 C   0  0  0  0  0  0  0  0  0  0  0  0
  140.2230   69.1320  227.2220 C   0  0  0  0  0  0  0  0  0  0  0  0
  139.9070   69.7420  226.0290 C   0  0  0  0  0  0  0  0  0  0  0  0
  139.1810   69.1000  225.0470 C   0  0  0  0  0  0  0  0  0  0  0  0
  138.8260   67.9130  225.3160 O   0  0  0  0  0  0  0  0  0  0  0  0
  138.8620   69.6920  223.8650 N   0  0  0  0  0  0  0  0  0  0  0  0
  138.0970   68.9800  222.8590 C   0  0  0  0  0  0  0  0  0  0  0  0
  138.9580   68.2060  221.9650 C   0  0  0  0  0  0  0  0  0  0  0  0
  139.6800   68.9080  220.9920 C   0  0  0  0  0  0  0  0  0  0  0  0
  140.5240   68.2290  220.1100 C   0  0  0  0  0  0  0  0  0  0  0  0
  140.6540   66.8690  220.1860 C   0  0  0  0  0  0  0  0  0  0  0  0
  139.9610   66.2090  221.1160 N   0  0  0  0  0  0  0  0  0  0  0  0
  139.1430   66.8520  221.9750 C   0  0  0  0  0  0  0  0  0  0  0  0
  141.6060   74.0330  221.1940 C   0  0  0  0  0  0  0  0  0  0  0  0
  142.8530   74.1230  220.6100 C   0  0  0  0  0  0  0  0  0  0  0  0
  143.6727   70.8484  220.6711 H   0  0  0  0  0  0  0  0  0  0  0  0
  141.4324   70.7291  221.7153 H   0  0  0  0  0  0  0  0  0  0  0  0
  139.2661   73.7610  222.4805 H   0  0  0  0  0  0  0  0  0  0  0  0
  138.3054   71.3431  221.7555 H   0  0  0  0  0  0  0  0  0  0  0  0
  141.4064   72.7655  226.6017 H   0  0  0  0  0  0  0  0  0  0  0  0
  141.9404   71.5996  228.7307 H   0  0  0  0  0  0  0  0  0  0  0  0
  141.1982   69.2989  229.1371 H   0  0  0  0  0  0  0  0  0  0  0  0
  139.8907   68.1001  227.4081 H   0  0  0  0  0  0  0  0  0  0  0  0
  137.3992   68.2945  223.3621 H   0  0  0  0  0  0  0  0  0  0  0  0
  137.5566   69.7223  222.2533 H   0  0  0  0  0  0  0  0  0  0  0  0
  139.5819   70.0014  220.9217 H   0  0  0  0  0  0  0  0  0  0  0  0
  141.0872   68.7907  219.3502 H   0  0  0  0  0  0  0  0  0  0  0  0
  141.3173   66.3299  219.4936 H   0  0  0  0  0  0  0  0  0  0  0  0
  138.5973   66.2561  222.7214 H   0  0  0  0  0  0  0  0  0  0  0  0
  141.0246   74.9557  221.3372 H   0  0  0  0  0  0  0  0  0  0  0  0
  143.2416   75.1042  220.2997 H   0  0  0  0  0  0  0  0  0  0  0  0
  1  2  3  0
  2  3  1  0
  3  4  2  0
  4  5  1  0
  5  6  2  0
  6  7  1  0
  7  8  2  0
  8  9  1  0
  9 10  2  0
 10 11  1  0
 11 12  2  0
 12 13  1  0
 13 14  2  0
 14 15  1  0
 15 16  2  0
 16 17  1  0
 17 18  2  0
 17 19  1  0
 19 20  1  0
 20 21  1  0
 21 22  2  0
 22 23  1  0
 23 24  2  0
 24 25  1  0
 25 26  2  0
  6 27  1  0
 27 28  2  0
 28  3  1  0
 19  9  1  0
 26 21  1  0
 16 11  1  0
  4 29  1  0
  5 30  1  0
  7 31  1  0
  8 32  1  0
 12 33  1  0
 13 34  1  0
 14 35  1  0
 15 36  1  0
 20 37  1  0
 20 38  1  0
 22 39  1  0
 23 40  1  0
 24 41  1  0
 26 42  1  0
 27 43  1  0
 28 44  1  0
M  END
>  <smiles>  (14) 
N#Cc1ccc(/C=C/c2nc3ccccc3c(=O)n2Cc2cccnc2)cc1

>  <score_type>  (14) 
oracle

>  <origin>  (14) 
autodockgpu

>  <m_score__min__energy>  (14) 
-8.8599999999999994

>  <m_primary>  (14) 
energy

>  <rmsd>  (14) 
11.038507336204317

>  <m_score__min__rmsd>  (14) 
11.038507336204317

>  <meeko>  (14) 
{"free_energy": -7.79, "intermolecular_energy": -9.58, "internal_energy": -1.49, "cluster_size": 33, "cluster_id": 2, "rank_in_cluster": 29}

>  <energy>  (14) 
-8.37

>  <cluster_rmsd>  (14) 
0.18

>  <cluster>  (14) 
2

$$$$

     RDKit          3D

 44 47  0  0  0  0  0  0  0  0999 V2000
  140.8330   68.1380  228.9280 N   0  0  0  0  0  0  0  0  0  0  0  0
  140.6670   68.7330  227.9500 C   0  0  0  0  0  0  0  0  0  0  0  0
  140.4550   69.4830  226.7460 C   0  0  0  0  0  0  0  0  0  0  0  0
  141.0010   70.7560  226.6510 C   0  0  0  0  0  0  0  0  0  0  0  0
  140.8160   71.5150  225.4960 C   0  0  0  0  0  0  0  0  0  0  0  0
  140.0970   71.0480  224.4160 C   0  0  0  0  0  0  0  0  0  0  0  0
  139.8860   71.8160  223.1970 C   0  0  0  0  0  0  0  0  0  0  0  0
  140.8240   72.0910  222.3200 C   0  0  0  0  0  0  0  0  0  0  0  0
  140.8890   73.4130  221.6920 C   0  0  0  0  0  0  0  0  0  0  0  0
  140.2140   74.3980  222.3310 N   0  0  0  0  0  0  0  0  0  0  0  0
  140.1590   75.6570  221.8660 C   0  0  0  0  0  0  0  0  0  0  0  0
  139.4610   76.6390  222.5420 C   0  0  0  0  0  0  0  0  0  0  0  0
  139.4560   77.9030  221.9910 C   0  0  0  0  0  0  0  0  0  0  0  0
  140.1100   78.1850  220.8280 C   0  0  0  0  0  0  0  0  0  0  0  0
  140.7990   77.1820  220.1770 C   0  0  0  0  0  0  0  0  0  0  0  0
  140.8350   75.9020  220.6840 C   0  0  0  0  0  0  0  0  0  0  0  0
  141.5150   74.8830  220.0530 C   0  0  0  0  0  0  0  0  0  0  0  0
  142.1040   75.2000  218.9760 O   0  0  0  0  0  0  0  0  0  0  0  0
  141.5590   73.6140  220.5440 N   0  0  0  0  0  0  0  0  0  0  0  0
  142.2860   72.5710  219.8470 C   0  0  0  0  0  0  0  0  0  0  0  0
  143.7250   72.8320  219.8220 C   0  0  0  0  0  0  0  0  0  0  0  0
  144.2610   73.6080  220.8580 C   0  0  0  0  0  0  0  0  0  0  0  0
  145.6290   73.8890  220.8960 C   0  0  0  0  0  0  0  0  0  0  0  0
  146.4610   73.4100  219.9210 C   0  0  0  0  0  0  0  0  0  0  0  0
  145.9400   72.6720  218.9380 N   0  0  0  0  0  0  0  0  0  0  0  0
  144.6210   72.3920  218.8900 C   0  0  0  0  0  0  0  0  0  0  0  0
  139.5660   69.7750  224.5430 C   0  0  0  0  0  0  0  0  0  0  0  0
  139.7340   69.0030  225.6730 C   0  0  0  0  0  0  0  0  0  0  0  0
  141.5816   71.1673  227.4899 H   0  0  0  0  0  0  0  0  0  0  0  0
  141.2587   72.5207  225.4446 H   0  0  0  0  0  0  0  0  0  0  0  0
  138.8716   72.1915  222.9971 H   0  0  0  0  0  0  0  0  0  0  0  0
  141.5660   71.3234  222.0551 H   0  0  0  0  0  0  0  0  0  0  0  0
  138.9311   76.4215  223.4811 H   0  0  0  0  0  0  0  0  0  0  0  0
  138.9086   78.7072  222.5044 H   0  0  0  0  0  0  0  0  0  0  0  0
  140.0885   79.2032  220.4124 H   0  0  0  0  0  0  0  0  0  0  0  0
  141.3273   77.4083  219.2391 H   0  0  0  0  0  0  0  0  0  0  0  0
  142.1073   71.6122  220.3557 H   0  0  0  0  0  0  0  0  0  0  0  0
  141.9269   72.5416  218.8077 H   0  0  0  0  0  0  0  0  0  0  0  0
  143.6007   73.9984  221.6464 H   0  0  0  0  0  0  0  0  0  0  0  0
  146.0396   74.4987  221.7143 H   0  0  0  0  0  0  0  0  0  0  0  0
  147.5387   73.6289  219.9466 H   0  0  0  0  0  0  0  0  0  0  0  0
  144.2481   71.7776  218.0572 H   0  0  0  0  0  0  0  0  0  0  0  0
  138.9847   69.3618  223.7055 H   0  0  0  0  0  0  0  0  0  0  0  0
  139.2900   67.9976  225.7189 H   0  0  0  0  0  0  0  0  0  0  0  0
  1  2  3  0
  2  3  1  0
  3  4  2  0
  4  5  1  0
  5  6  2  0
  6  7  1  0
  7  8  2  0
  8  9  1  0
  9 10  2  0
 10 11  1  0
 11 12  2  0
 12 13  1  0
 13 14  2  0
 14 15  1  0
 15 16  2  0
 16 17  1  0
 17 18  2  0
 17 19  1  0
 19 20  1  0
 20 21  1  0
 21 22  2  0
 22 23  1  0
 23 24  2  0
 24 25  1  0
 25 26  2  0
  6 27  1  0
 27 28  2  0
 28  3  1  0
 19  9  1  0
 26 21  1  0
 16 11  1  0
  4 29  1  0
  5 30  1  0
  7 31  1  0
  8 32  1  0
 12 33  1  0
 13 34  1  0
 14 35  1  0
 15 36  1  0
 20 37  1  0
 20 38  1  0
 22 39  1  0
 23 40  1  0
 24 41  1  0
 26 42  1  0
 27 43  1  0
 28 44  1  0
M  END
>  <smiles>  (15) 
N#Cc1ccc(/C=C/c2nc3ccccc3c(=O)n2Cc2cccnc2)cc1

>  <score_type>  (15) 
oracle

>  <origin>  (15) 
autodockgpu

>  <m_score__min__energy>  (15) 
-8.8599999999999994

>  <m_primary>  (15) 
energy

>  <rmsd>  (15) 
5.765012141679071

>  <m_score__min__rmsd>  (15) 
5.765012141679071

>  <meeko>  (15) 
{"free_energy": -8.43, "intermolecular_energy": -10.22, "internal_energy": -1.02, "cluster_size": 10, "cluster_id": 1, "rank_in_cluster": 8}

>  <energy>  (15) 
-8.36

>  <cluster_rmsd>  (15) 
0.16

>  <cluster>  (15) 
2

$$$$

     RDKit          3D

 44 47  0  0  0  0  0  0  0  0999 V2000
  145.9460   72.9390  219.3600 N   0  0  0  0  0  0  0  0  0  0  0  0
  144.8910   72.9030  219.8320 C   0  0  0  0  0  0  0  0  0  0  0  0
  143.5870   72.8720  220.4270 C   0  0  0  0  0  0  0  0  0  0  0  0
  143.0590   71.6470  220.8100 C   0  0  0  0  0  0  0  0  0  0  0  0
  141.7930   71.5770  221.3930 C   0  0  0  0  0  0  0  0  0  0  0  0
  141.0210   72.6990  221.6100 C   0  0  0  0  0  0  0  0  0  0  0  0
  139.6970   72.6600  222.2140 C   0  0  0  0  0  0  0  0  0  0  0  0
  139.0620   71.5580  222.5390 C   0  0  0  0  0  0  0  0  0  0  0  0
  139.3610   70.8730  223.8000 C   0  0  0  0  0  0  0  0  0  0  0  0
  140.0150   71.6130  224.7270 N   0  0  0  0  0  0  0  0  0  0  0  0
  140.3810   71.1200  225.9210 C   0  0  0  0  0  0  0  0  0  0  0  0
  141.0480   71.9020  226.8440 C   0  0  0  0  0  0  0  0  0  0  0  0
  141.3860   71.3120  228.0440 C   0  0  0  0  0  0  0  0  0  0  0  0
  141.0800   70.0120  228.3190 C   0  0  0  0  0  0  0  0  0  0  0  0
  140.4140   69.2570  227.3760 C   0  0  0  0  0  0  0  0  0  0  0  0
  140.0530   69.7970  226.1620 C   0  0  0  0  0  0  0  0  0  0  0  0
  139.3860   69.0650  225.2030 C   0  0  0  0  0  0  0  0  0  0  0  0
  139.1290   67.8620  225.5110 O   0  0  0  0  0  0  0  0  0  0  0  0
  139.0250   69.5870  224.0000 N   0  0  0  0  0  0  0  0  0  0  0  0
  138.3250   68.7810  223.0190 C   0  0  0  0  0  0  0  0  0  0  0  0
  136.9070   68.6330  223.3440 C   0  0  0  0  0  0  0  0  0  0  0  0
  136.4080   69.3740  224.4230 C   0  0  0  0  0  0  0  0  0  0  0  0
  135.0620   69.2820  224.7820 C   0  0  0  0  0  0  0  0  0  0  0  0
  134.2140   68.4650  224.0850 C   0  0  0  0  0  0  0  0  0  0  0  0
  134.6990   67.7620  223.0580 N   0  0  0  0  0  0  0  0  0  0  0  0
  135.9970   67.8420  222.7000 C   0  0  0  0  0  0  0  0  0  0  0  0
  141.5770   73.9060  221.2160 C   0  0  0  0  0  0  0  0  0  0  0  0
  142.8250   74.0020  220.6380 C   0  0  0  0  0  0  0  0  0  0  0  0
  143.6411   70.7269  220.6533 H   0  0  0  0  0  0  0  0  0  0  0  0
  141.3977   70.5942  221.6893 H   0  0  0  0  0  0  0  0  0  0  0  0
  139.1948   73.6186  222.4114 H   0  0  0  0  0  0  0  0  0  0  0  0
  138.3005   71.1459  221.8606 H   0  0  0  0  0  0  0  0  0  0  0  0
  141.2991   72.9515  226.6308 H   0  0  0  0  0  0  0  0  0  0  0  0
  141.9177   71.9073  228.8009 H   0  0  0  0  0  0  0  0  0  0  0  0
  141.3621   69.5687  229.2854 H   0  0  0  0  0  0  0  0  0  0  0  0
  140.1677   68.2080  227.5972 H   0  0  0  0  0  0  0  0  0  0  0  0
  138.4154   69.2623  222.0340 H   0  0  0  0  0  0  0  0  0  0  0  0
  138.7794   67.7792  223.0151 H   0  0  0  0  0  0  0  0  0  0  0  0
  137.0812   70.0327  224.9912 H   0  0  0  0  0  0  0  0  0  0  0  0
  134.6809   69.8697  225.6301 H   0  0  0  0  0  0  0  0  0  0  0  0
  133.1530   68.3886  224.3652 H   0  0  0  0  0  0  0  0  0  0  0  0
  136.3408   67.2399  221.8461 H   0  0  0  0  0  0  0  0  0  0  0  0
  140.9971   74.8277  221.3713 H   0  0  0  0  0  0  0  0  0  0  0  0
  143.2158   74.9870  220.3430 H   0  0  0  0  0  0  0  0  0  0  0  0
  1  2  3  0
  2  3  1  0
  3  4  2  0
  4  5  1  0
  5  6  2  0
  6  7  1  0
  7  8  2  0
  8  9  1  0
  9 10  2  0
 10 11  1  0
 11 12  2  0
 12 13  1  0
 13 14  2  0
 14 15  1  0
 15 16  2  0
 16 17  1  0
 17 18  2  0
 17 19  1  0
 19 20  1  0
 20 21  1  0
 21 22  2  0
 22 23  1  0
 23 24  2  0
 24 25  1  0
 25 26  2  0
  6 27  1  0
 27 28  2  0
 28  3  1  0
 19  9  1  0
 26 21  1  0
 16 11  1  0
  4 29  1  0
  5 30  1  0
  7 31  1  0
  8 32  1  0
 12 33  1  0
 13 34  1  0
 14 35  1  0
 15 36  1  0
 20 37  1  0
 20 38  1  0
 22 39  1  0
 23 40  1  0
 24 41  1  0
 26 42  1  0
 27 43  1  0
 28 44  1  0
M  END
>  <smiles>  (16) 
N#Cc1ccc(/C=C/c2nc3ccccc3c(=O)n2Cc2cccnc2)cc1

>  <score_type>  (16) 
oracle

>  <origin>  (16) 
autodockgpu

>  <m_score__min__energy>  (16) 
-8.8599999999999994

>  <m_primary>  (16) 
energy

>  <rmsd>  (16) 
11.682146233302701

>  <m_score__min__rmsd>  (16) 
11.682146233302701

>  <meeko>  (16) 
{"free_energy": -8.18, "intermolecular_energy": -9.97, "internal_energy": -1.21, "cluster_size": 33, "cluster_id": 2, "rank_in_cluster": 20}

>  <energy>  (16) 
-8.36

>  <cluster_rmsd>  (16) 
0.27

>  <cluster>  (16) 
2

$$$$

     RDKit          3D

 44 47  0  0  0  0  0  0  0  0999 V2000
  146.0050   73.0140  219.2640 N   0  0  0  0  0  0  0  0  0  0  0  0
  144.9610   72.9730  219.7600 C   0  0  0  0  0  0  0  0  0  0  0  0
  143.6690   72.9380  220.3810 C   0  0  0  0  0  0  0  0  0  0  0  0
  142.9740   74.1300  220.5370 C   0  0  0  0  0  0  0  0  0  0  0  0
  141.7140   74.1360  221.1370 C   0  0  0  0  0  0  0  0  0  0  0  0
  141.1130   72.9830  221.5940 C   0  0  0  0  0  0  0  0  0  0  0  0
  139.8000   72.9550  222.2250 C   0  0  0  0  0  0  0  0  0  0  0  0
  139.1100   71.8620  222.4530 C   0  0  0  0  0  0  0  0  0  0  0  0
  139.3290   71.0880  223.6770 C   0  0  0  0  0  0  0  0  0  0  0  0
  140.0300   71.7180  224.6510 N   0  0  0  0  0  0  0  0  0  0  0  0
  140.3330   71.1310  225.8200 C   0  0  0  0  0  0  0  0  0  0  0  0
  141.0500   71.8020  226.7910 C   0  0  0  0  0  0  0  0  0  0  0  0
  141.3170   71.1220  227.9610 C   0  0  0  0  0  0  0  0  0  0  0  0
  140.8960   69.8410  228.1620 C   0  0  0  0  0  0  0  0  0  0  0  0
  140.1810   69.1980  227.1720 C   0  0  0  0  0  0  0  0  0  0  0  0
  139.8880   69.8320  225.9850 C   0  0  0  0  0  0  0  0  0  0  0  0
  139.1760   69.2120  224.9800 C   0  0  0  0  0  0  0  0  0  0  0  0
  138.8100   68.0220  225.2210 O   0  0  0  0  0  0  0  0  0  0  0  0
  138.8790   69.8270  223.8040 N   0  0  0  0  0  0  0  0  0  0  0  0
  138.1280   69.1380  222.7730 C   0  0  0  0  0  0  0  0  0  0  0  0
  138.9910   68.3160  221.9250 C   0  0  0  0  0  0  0  0  0  0  0  0
  139.7560   68.9710  220.9510 C   0  0  0  0  0  0  0  0  0  0  0  0
  140.6050   68.2450  220.1120 C   0  0  0  0  0  0  0  0  0  0  0  0
  140.6970   66.8850  220.2310 C   0  0  0  0  0  0  0  0  0  0  0  0
  139.9640   66.2700  221.1620 N   0  0  0  0  0  0  0  0  0  0  0  0
  139.1410   66.9590  221.9790 C   0  0  0  0  0  0  0  0  0  0  0  0
  141.8330   71.8110  221.4230 C   0  0  0  0  0  0  0  0  0  0  0  0
  143.0790   71.7770  220.8340 C   0  0  0  0  0  0  0  0  0  0  0  0
  143.4183   75.0732  220.1863 H   0  0  0  0  0  0  0  0  0  0  0  0
  141.1829   75.0928  221.2489 H   0  0  0  0  0  0  0  0  0  0  0  0
  139.3572   73.9144  222.5309 H   0  0  0  0  0  0  0  0  0  0  0  0
  138.3623   71.5250  221.7199 H   0  0  0  0  0  0  0  0  0  0  0  0
  141.3938   72.8356  226.6378 H   0  0  0  0  0  0  0  0  0  0  0  0
  141.8861   71.6279  228.7548 H   0  0  0  0  0  0  0  0  0  0  0  0
  141.1243   69.3240  229.1057 H   0  0  0  0  0  0  0  0  0  0  0  0
  139.8404   68.1646  227.3333 H   0  0  0  0  0  0  0  0  0  0  0  0
  137.3790   68.4901  223.2518 H   0  0  0  0  0  0  0  0  0  0  0  0
  137.6485   69.8965  222.1368 H   0  0  0  0  0  0  0  0  0  0  0  0
  139.6877   70.0639  220.8462 H   0  0  0  0  0  0  0  0  0  0  0  0
  141.2026   68.7694  219.3518 H   0  0  0  0  0  0  0  0  0  0  0  0
  141.3628   66.3089  219.5716 H   0  0  0  0  0  0  0  0  0  0  0  0
  138.5606   66.3995  222.7274 H   0  0  0  0  0  0  0  0  0  0  0  0
  141.3907   70.8665  221.7727 H   0  0  0  0  0  0  0  0  0  0  0  0
  143.6058   70.8176  220.7247 H   0  0  0  0  0  0  0  0  0  0  0  0
  1  2  3  0
  2  3  1  0
  3  4  2  0
  4  5  1  0
  5  6  2  0
  6  7  1  0
  7  8  2  0
  8  9  1  0
  9 10  2  0
 10 11  1  0
 11 12  2  0
 12 13  1  0
 13 14  2  0
 14 15  1  0
 15 16  2  0
 16 17  1  0
 17 18  2  0
 17 19  1  0
 19 20  1  0
 20 21  1  0
 21 22  2  0
 22 23  1  0
 23 24  2  0
 24 25  1  0
 25 26  2  0
  6 27  1  0
 27 28  2  0
 28  3  1  0
 19  9  1  0
 26 21  1  0
 16 11  1  0
  4 29  1  0
  5 30  1  0
  7 31  1  0
  8 32  1  0
 12 33  1  0
 13 34  1  0
 14 35  1  0
 15 36  1  0
 20 37  1  0
 20 38  1  0
 22 39  1  0
 23 40  1  0
 24 41  1  0
 26 42  1  0
 27 43  1  0
 28 44  1  0
M  END
>  <smiles>  (17) 
N#Cc1ccc(/C=C/c2nc3ccccc3c(=O)n2Cc2cccnc2)cc1

>  <score_type>  (17) 
oracle

>  <origin>  (17) 
autodockgpu

>  <m_score__min__energy>  (17) 
-8.8599999999999994

>  <m_primary>  (17) 
energy

>  <rmsd>  (17) 
10.971965429560536

>  <m_score__min__rmsd>  (17) 
10.971965429560536

>  <meeko>  (17) 
{"free_energy": -7.75, "intermolecular_energy": -9.54, "internal_energy": -1.52, "cluster_size": 33, "cluster_id": 2, "rank_in_cluster": 31}

>  <energy>  (17) 
-8.36

>  <cluster_rmsd>  (17) 
0.27

>  <cluster>  (17) 
2

$$$$

     RDKit          3D

 44 47  0  0  0  0  0  0  0  0999 V2000
  146.2960   73.3340  219.2950 N   0  0  0  0  0  0  0  0  0  0  0  0
  145.2460   73.1970  219.7580 C   0  0  0  0  0  0  0  0  0  0  0  0
  143.9480   73.0110  220.3400 C   0  0  0  0  0  0  0  0  0  0  0  0
  143.1630   74.1300  220.5850 C   0  0  0  0  0  0  0  0  0  0  0  0
  141.8950   73.9890  221.1490 C   0  0  0  0  0  0  0  0  0  0  0  0
  141.3710   72.7580  221.4830 C   0  0  0  0  0  0  0  0  0  0  0  0
  140.0520   72.5780  222.0730 C   0  0  0  0  0  0  0  0  0  0  0  0
  139.4910   71.4110  222.2920 C   0  0  0  0  0  0  0  0  0  0  0  0
  139.6280   70.7540  223.5940 C   0  0  0  0  0  0  0  0  0  0  0  0
  140.1520   71.5180  224.5830 N   0  0  0  0  0  0  0  0  0  0  0  0
  140.3630   71.0510  225.8240 C   0  0  0  0  0  0  0  0  0  0  0  0
  140.8990   71.8560  226.8100 C   0  0  0  0  0  0  0  0  0  0  0  0
  141.0820   71.2930  228.0550 C   0  0  0  0  0  0  0  0  0  0  0  0
  140.7510   69.9960  228.3150 C   0  0  0  0  0  0  0  0  0  0  0  0
  140.2170   69.2170  227.3090 C   0  0  0  0  0  0  0  0  0  0  0  0
  140.0140   69.7310  226.0480 C   0  0  0  0  0  0  0  0  0  0  0  0
  139.4820   68.9740  225.0250 C   0  0  0  0  0  0  0  0  0  0  0  0
  139.1940   67.7750  225.3230 O   0  0  0  0  0  0  0  0  0  0  0  0
  139.2760   69.4690  223.7750 N   0  0  0  0  0  0  0  0  0  0  0  0
  138.7150   68.6380  222.7280 C   0  0  0  0  0  0  0  0  0  0  0  0
  137.2770   68.4360  222.9030 C   0  0  0  0  0  0  0  0  0  0  0  0
  136.6050   67.6840  221.9300 C   0  0  0  0  0  0  0  0  0  0  0  0
  135.2330   67.4490  222.0400 C   0  0  0  0  0  0  0  0  0  0  0  0
  134.5280   67.9540  223.0990 C   0  0  0  0  0  0  0  0  0  0  0  0
  135.1770   68.6700  224.0200 N   0  0  0  0  0  0  0  0  0  0  0  0
  136.5020   68.9030  223.9260 C   0  0  0  0  0  0  0  0  0  0  0  0
  142.1790   71.6620  221.2250 C   0  0  0  0  0  0  0  0  0  0  0  0
  143.4360   71.7740  220.6690 C   0  0  0  0  0  0  0  0  0  0  0  0
  143.5425   75.1313  220.3334 H   0  0  0  0  0  0  0  0  0  0  0  0
  141.2925   74.8906  221.3336 H   0  0  0  0  0  0  0  0  0  0  0  0
  139.4879   73.4796  222.3540 H   0  0  0  0  0  0  0  0  0  0  0  0
  138.9142   70.9235  221.4922 H   0  0  0  0  0  0  0  0  0  0  0  0
  141.1688   72.9035  226.6101 H   0  0  0  0  0  0  0  0  0  0  0  0
  141.5073   71.9078  228.8619 H   0  0  0  0  0  0  0  0  0  0  0  0
  140.9084   69.5741  229.3186 H   0  0  0  0  0  0  0  0  0  0  0  0
  139.9497   68.1705  227.5175 H   0  0  0  0  0  0  0  0  0  0  0  0
  138.8902   69.1234  221.7566 H   0  0  0  0  0  0  0  0  0  0  0  0
  139.2053   67.6544  222.7743 H   0  0  0  0  0  0  0  0  0  0  0  0
  137.1622   67.2761  221.0737 H   0  0  0  0  0  0  0  0  0  0  0  0
  134.7162   66.8551  221.2718 H   0  0  0  0  0  0  0  0  0  0  0  0
  133.4467   67.7732  223.1895 H   0  0  0  0  0  0  0  0  0  0  0  0
  136.9836   69.5002  224.7143 H   0  0  0  0  0  0  0  0  0  0  0  0
  141.8014   70.6594  221.4745 H   0  0  0  0  0  0  0  0  0  0  0  0
  144.0347   70.8694  220.4866 H   0  0  0  0  0  0  0  0  0  0  0  0
  1  2  3  0
  2  3  1  0
  3  4  2  0
  4  5  1  0
  5  6  2  0
  6  7  1  0
  7  8  2  0
  8  9  1  0
  9 10  2  0
 10 11  1  0
 11 12  2  0
 12 13  1  0
 13 14  2  0
 14 15  1  0
 15 16  2  0
 16 17  1  0
 17 18  2  0
 17 19  1  0
 19 20  1  0
 20 21  1  0
 21 22  2  0
 22 23  1  0
 23 24  2  0
 24 25  1  0
 25 26  2  0
  6 27  1  0
 27 28  2  0
 28  3  1  0
 19  9  1  0
 26 21  1  0
 16 11  1  0
  4 29  1  0
  5 30  1  0
  7 31  1  0
  8 32  1  0
 12 33  1  0
 13 34  1  0
 14 35  1  0
 15 36  1  0
 20 37  1  0
 20 38  1  0
 22 39  1  0
 23 40  1  0
 24 41  1  0
 26 42  1  0
 27 43  1  0
 28 44  1  0
M  END
>  <smiles>  (18) 
N#Cc1ccc(/C=C/c2nc3ccccc3c(=O)n2Cc2cccnc2)cc1

>  <score_type>  (18) 
oracle

>  <origin>  (18) 
autodockgpu

>  <m_score__min__energy>  (18) 
-8.8599999999999994

>  <m_primary>  (18) 
energy

>  <rmsd>  (18) 
11.599216349394322

>  <m_score__min__rmsd>  (18) 
11.599216349394322

>  <meeko>  (18) 
{"free_energy": -8.4, "intermolecular_energy": -10.19, "internal_energy": -1.13, "cluster_size": 33, "cluster_id": 2, "rank_in_cluster": 1}

>  <energy>  (18) 
-8.36

>  <cluster_rmsd>  (18) 
0.16

>  <cluster>  (18) 
2

$$$$

     RDKit          3D

 44 47  0  0  0  0  0  0  0  0999 V2000
  146.2040   73.0160  219.1660 N   0  0  0  0  0  0  0  0  0  0  0  0
  145.1570   72.9890  219.6570 C   0  0  0  0  0  0  0  0  0  0  0  0
  143.8600   72.9380  220.2670 C   0  0  0  0  0  0  0  0  0  0  0  0
  143.3440   71.7010  220.6300 C   0  0  0  0  0  0  0  0  0  0  0  0
  142.0860   71.6120  221.2270 C   0  0  0  0  0  0  0  0  0  0  0  0
  141.3110   72.7240  221.4790 C   0  0  0  0  0  0  0  0  0  0  0  0
  139.9950   72.6650  222.0990 C   0  0  0  0  0  0  0  0  0  0  0  0
  139.3270   71.5560  222.3180 C   0  0  0  0  0  0  0  0  0  0  0  0
  139.5070   70.8170  223.5700 C   0  0  0  0  0  0  0  0  0  0  0  0
  140.0280   71.5260  224.5990 N   0  0  0  0  0  0  0  0  0  0  0  0
  140.2750   70.9830  225.8020 C   0  0  0  0  0  0  0  0  0  0  0  0
  140.8080   71.7350  226.8310 C   0  0  0  0  0  0  0  0  0  0  0  0
  141.0290   71.0940  228.0320 C   0  0  0  0  0  0  0  0  0  0  0  0
  140.7390   69.7740  228.2090 C   0  0  0  0  0  0  0  0  0  0  0  0
  140.2070   69.0500  227.1620 C   0  0  0  0  0  0  0  0  0  0  0  0
  139.9660   69.6410  225.9420 C   0  0  0  0  0  0  0  0  0  0  0  0
  139.4350   68.9400  224.8790 C   0  0  0  0  0  0  0  0  0  0  0  0
  139.1850   67.7170  225.1000 O   0  0  0  0  0  0  0  0  0  0  0  0
  139.1930   69.5130  223.6690 N   0  0  0  0  0  0  0  0  0  0  0  0
  138.6350   68.7390  222.5780 C   0  0  0  0  0  0  0  0  0  0  0  0
  137.2190   68.4370  222.7910 C   0  0  0  0  0  0  0  0  0  0  0  0
  136.6040   67.5500  221.8970 C   0  0  0  0  0  0  0  0  0  0  0  0
  135.2570   67.2160  222.0470 C   0  0  0  0  0  0  0  0  0  0  0  0
  134.5210   67.7520  223.0680 C   0  0  0  0  0  0  0  0  0  0  0  0
  135.1150   68.5960  223.9150 N   0  0  0  0  0  0  0  0  0  0  0  0
  136.4170   68.9270  223.7820 C   0  0  0  0  0  0  0  0  0  0  0  0
  141.8550   73.9430  221.1050 C   0  0  0  0  0  0  0  0  0  0  0  0
  143.0960   74.0590  220.5140 C   0  0  0  0  0  0  0  0  0  0  0  0
  143.9292   70.7879  220.4462 H   0  0  0  0  0  0  0  0  0  0  0  0
  141.6994   70.6207  221.5061 H   0  0  0  0  0  0  0  0  0  0  0  0
  139.5289   73.6134  222.4045 H   0  0  0  0  0  0  0  0  0  0  0  0
  138.6279   71.1795  221.5567 H   0  0  0  0  0  0  0  0  0  0  0  0
  141.0462   72.8006  226.6980 H   0  0  0  0  0  0  0  0  0  0  0  0
  141.4518   71.6649  228.8718 H   0  0  0  0  0  0  0  0  0  0  0  0
  140.9276   69.2900  229.1786 H   0  0  0  0  0  0  0  0  0  0  0  0
  139.9719   67.9848  227.3040 H   0  0  0  0  0  0  0  0  0  0  0  0
  138.7398   69.3125  221.6452 H   0  0  0  0  0  0  0  0  0  0  0  0
  139.1819   67.7862  222.5216 H   0  0  0  0  0  0  0  0  0  0  0  0
  137.1865   67.1143  221.0719 H   0  0  0  0  0  0  0  0  0  0  0  0
  134.7847   66.5179  221.3402 H   0  0  0  0  0  0  0  0  0  0  0  0
  133.4590   67.4923  223.1890 H   0  0  0  0  0  0  0  0  0  0  0  0
  136.8544   69.6272  224.5090 H   0  0  0  0  0  0  0  0  0  0  0  0
  141.2716   74.8576  221.2874 H   0  0  0  0  0  0  0  0  0  0  0  0
  143.4788   75.0526  220.2379 H   0  0  0  0  0  0  0  0  0  0  0  0
  1  2  3  0
  2  3  1  0
  3  4  2  0
  4  5  1  0
  5  6  2  0
  6  7  1  0
  7  8  2  0
  8  9  1  0
  9 10  2  0
 10 11  1  0
 11 12  2  0
 12 13  1  0
 13 14  2  0
 14 15  1  0
 15 16  2  0
 16 17  1  0
 17 18  2  0
 17 19  1  0
 19 20  1  0
 20 21  1  0
 21 22  2  0
 22 23  1  0
 23 24  2  0
 24 25  1  0
 25 26  2  0
  6 27  1  0
 27 28  2  0
 28  3  1  0
 19  9  1  0
 26 21  1  0
 16 11  1  0
  4 29  1  0
  5 30  1  0
  7 31  1  0
  8 32  1  0
 12 33  1  0
 13 34  1  0
 14 35  1  0
 15 36  1  0
 20 37  1  0
 20 38  1  0
 22 39  1  0
 23 40  1  0
 24 41  1  0
 26 42  1  0
 27 43  1  0
 28 44  1  0
M  END
>  <smiles>  (19) 
N#Cc1ccc(/C=C/c2nc3ccccc3c(=O)n2Cc2cccnc2)cc1

>  <score_type>  (19) 
oracle

>  <origin>  (19) 
autodockgpu

>  <m_score__min__energy>  (19) 
-8.8599999999999994

>  <m_primary>  (19) 
energy

>  <rmsd>  (19) 
11.683781388658709

>  <m_score__min__rmsd>  (19) 
11.683781388658709

>  <meeko>  (19) 
{"free_energy": -8.37, "intermolecular_energy": -10.16, "internal_energy": -1.14, "cluster_size": 33, "cluster_id": 2, "rank_in_cluster": 4}

>  <energy>  (19) 
-8.32

>  <cluster_rmsd>  (19) 
0.22

>  <cluster>  (19) 
2

$$$$

     RDKit          3D

 44 47  0  0  0  0  0  0  0  0999 V2000
  146.1520   73.0080  219.3110 N   0  0  0  0  0  0  0  0  0  0  0  0
  145.1000   72.9820  219.7900 C   0  0  0  0  0  0  0  0  0  0  0  0
  143.7950   72.9680  220.3850 C   0  0  0  0  0  0  0  0  0  0  0  0
  143.2440   71.7460  220.7490 C   0  0  0  0  0  0  0  0  0  0  0  0
  141.9770   71.6920  221.3310 C   0  0  0  0  0  0  0  0  0  0  0  0
  141.2270   72.8240  221.5670 C   0  0  0  0  0  0  0  0  0  0  0  0
  139.9020   72.8020  222.1720 C   0  0  0  0  0  0  0  0  0  0  0  0
  139.2280   71.7080  222.4390 C   0  0  0  0  0  0  0  0  0  0  0  0
  139.4230   71.0070  223.7110 C   0  0  0  0  0  0  0  0  0  0  0  0
  140.0960   71.6980  224.6620 N   0  0  0  0  0  0  0  0  0  0  0  0
  140.3750   71.1820  225.8710 C   0  0  0  0  0  0  0  0  0  0  0  0
  141.0630   71.9140  226.8180 C   0  0  0  0  0  0  0  0  0  0  0  0
  141.3070   71.3050  228.0310 C   0  0  0  0  0  0  0  0  0  0  0  0
  140.8910   70.0330  228.2960 C   0  0  0  0  0  0  0  0  0  0  0  0
  140.2050   69.3290  227.3280 C   0  0  0  0  0  0  0  0  0  0  0  0
  139.9360   69.8900  226.1000 C   0  0  0  0  0  0  0  0  0  0  0  0
  139.2530   69.2080  225.1160 C   0  0  0  0  0  0  0  0  0  0  0  0
  138.8910   68.0300  225.4150 O   0  0  0  0  0  0  0  0  0  0  0  0
  138.9800   69.7520  223.8990 N   0  0  0  0  0  0  0  0  0  0  0  0
  138.2590   68.9980  222.8920 C   0  0  0  0  0  0  0  0  0  0  0  0
  136.8590   68.7930  223.2610 C   0  0  0  0  0  0  0  0  0  0  0  0
  136.3340   69.5930  224.2840 C   0  0  0  0  0  0  0  0  0  0  0  0
  135.0030   69.4520  224.6810 C   0  0  0  0  0  0  0  0  0  0  0  0
  134.1950   68.5280  224.0750 C   0  0  0  0  0  0  0  0  0  0  0  0
  134.7040   67.7700  223.1010 N   0  0  0  0  0  0  0  0  0  0  0  0
  135.9890   67.8970  222.7080 C   0  0  0  0  0  0  0  0  0  0  0  0
  141.8060   74.0270  221.1930 C   0  0  0  0  0  0  0  0  0  0  0  0
  143.0560   74.1080  220.6160 C   0  0  0  0  0  0  0  0  0  0  0  0
  143.8085   70.8175  220.5778 H   0  0  0  0  0  0  0  0  0  0  0  0
  141.5625   70.7123  221.6111 H   0  0  0  0  0  0  0  0  0  0  0  0
  139.4354   73.7664  222.4216 H   0  0  0  0  0  0  0  0  0  0  0  0
  138.5117   71.3145  221.7028 H   0  0  0  0  0  0  0  0  0  0  0  0
  141.4024   72.9402  226.6135 H   0  0  0  0  0  0  0  0  0  0  0  0
  141.8529   71.8610  228.8075 H   0  0  0  0  0  0  0  0  0  0  0  0
  141.1007   69.5728  229.2729 H   0  0  0  0  0  0  0  0  0  0  0  0
  139.8678   68.3038  227.5407 H   0  0  0  0  0  0  0  0  0  0  0  0
  138.2988   69.5478  221.9401 H   0  0  0  0  0  0  0  0  0  0  0  0
  138.7350   68.0105  222.8005 H   0  0  0  0  0  0  0  0  0  0  0  0
  136.9752   70.3378  224.7782 H   0  0  0  0  0  0  0  0  0  0  0  0
  134.6015   70.0866  225.4848 H   0  0  0  0  0  0  0  0  0  0  0  0
  133.1459   68.4122  224.3848 H   0  0  0  0  0  0  0  0  0  0  0  0
  136.3544   67.2453  221.9007 H   0  0  0  0  0  0  0  0  0  0  0  0
  141.2440   74.9571  221.3639 H   0  0  0  0  0  0  0  0  0  0  0  0
  143.4663   75.0901  220.3381 H   0  0  0  0  0  0  0  0  0  0  0  0
  1  2  3  0
  2  3  1  0
  3  4  2  0
  4  5  1  0
  5  6  2  0
  6  7  1  0
  7  8  2  0
  8  9  1  0
  9 10  2  0
 10 11  1  0
 11 12  2  0
 12 13  1  0
 13 14  2  0
 14 15  1  0
 15 16  2  0
 16 17  1  0
 17 18  2  0
 17 19  1  0
 19 20  1  0
 20 21  1  0
 21 22  2  0
 22 23  1  0
 23 24  2  0
 24 25  1  0
 25 26  2  0
  6 27  1  0
 27 28  2  0
 28  3  1  0
 19  9  1  0
 26 21  1  0
 16 11  1  0
  4 29  1  0
  5 30  1  0
  7 31  1  0
  8 32  1  0
 12 33  1  0
 13 34  1  0
 14 35  1  0
 15 36  1  0
 20 37  1  0
 20 38  1  0
 22 39  1  0
 23 40  1  0
 24 41  1  0
 26 42  1  0
 27 43  1  0
 28 44  1  0
M  END
>  <smiles>  (20) 
N#Cc1ccc(/C=C/c2nc3ccccc3c(=O)n2Cc2cccnc2)cc1

>  <score_type>  (20) 
oracle

>  <origin>  (20) 
autodockgpu

>  <m_score__min__energy>  (20) 
-8.8599999999999994

>  <m_primary>  (20) 
energy

>  <rmsd>  (20) 
11.594144305858524

>  <m_score__min__rmsd>  (20) 
11.594144305858524

>  <meeko>  (20) 
{"free_energy": -8.25, "intermolecular_energy": -10.04, "internal_energy": -1.16, "cluster_size": 33, "cluster_id": 2, "rank_in_cluster": 10}

>  <energy>  (20) 
-8.25

>  <cluster_rmsd>  (20) 
0.61

>  <cluster>  (20) 
2

$$$$

     RDKit          3D

 44 47  0  0  0  0  0  0  0  0999 V2000
  140.5980   68.3710  228.8440 N   0  0  0  0  0  0  0  0  0  0  0  0
  140.4820   68.9580  227.8550 C   0  0  0  0  0  0  0  0  0  0  0  0
  140.3400   69.6710  226.6190 C   0  0  0  0  0  0  0  0  0  0  0  0
  139.5860   69.0990  225.6030 C   0  0  0  0  0  0  0  0  0  0  0  0
  139.4250   69.7630  224.3870 C   0  0  0  0  0  0  0  0  0  0  0  0
  139.9950   70.9940  224.1400 C   0  0  0  0  0  0  0  0  0  0  0  0
  139.8470   71.7130  222.8820 C   0  0  0  0  0  0  0  0  0  0  0  0
  140.8440   72.0430  222.0950 C   0  0  0  0  0  0  0  0  0  0  0  0
  140.9880   73.4210  221.6190 C   0  0  0  0  0  0  0  0  0  0  0  0
  140.2900   74.3550  222.3090 N   0  0  0  0  0  0  0  0  0  0  0  0
  140.3000   75.6570  221.9790 C   0  0  0  0  0  0  0  0  0  0  0  0
  139.5770   76.5840  222.7040 C   0  0  0  0  0  0  0  0  0  0  0  0
  139.6450   77.8980  222.2930 C   0  0  0  0  0  0  0  0  0  0  0  0
  140.3920   78.2800  221.2180 C   0  0  0  0  0  0  0  0  0  0  0  0
  141.1040   77.3300  220.5150 C   0  0  0  0  0  0  0  0  0  0  0  0
  141.0700   76.0040  220.8830 C   0  0  0  0  0  0  0  0  0  0  0  0
  141.7720   75.0350  220.1970 C   0  0  0  0  0  0  0  0  0  0  0  0
  142.4490   75.4460  219.2070 O   0  0  0  0  0  0  0  0  0  0  0  0
  141.7480   73.7220  220.5510 N   0  0  0  0  0  0  0  0  0  0  0  0
  142.5010   72.7350  219.8010 C   0  0  0  0  0  0  0  0  0  0  0  0
  143.9400   72.9900  219.8550 C   0  0  0  0  0  0  0  0  0  0  0  0
  144.4700   73.4640  221.0620 C   0  0  0  0  0  0  0  0  0  0  0  0
  145.8370   73.7220  221.1810 C   0  0  0  0  0  0  0  0  0  0  0  0
  146.6750   73.5160  220.1190 C   0  0  0  0  0  0  0  0  0  0  0  0
  146.1610   73.0650  218.9730 N   0  0  0  0  0  0  0  0  0  0  0  0
  144.8420   72.8110  218.8440 C   0  0  0  0  0  0  0  0  0  0  0  0
  140.7420   71.5380  225.1740 C   0  0  0  0  0  0  0  0  0  0  0  0
  140.9170   70.9020  226.3850 C   0  0  0  0  0  0  0  0  0  0  0  0
  139.1135   68.1178  225.7578 H   0  0  0  0  0  0  0  0  0  0  0  0
  138.8228   69.2885  223.5982 H   0  0  0  0  0  0  0  0  0  0  0  0
  138.8314   71.9986  222.5707 H   0  0  0  0  0  0  0  0  0  0  0  0
  141.5760   71.2803  221.7909 H   0  0  0  0  0  0  0  0  0  0  0  0
  138.9721   76.2861  223.5731 H   0  0  0  0  0  0  0  0  0  0  0  0
  139.0800   78.6610  222.8486 H   0  0  0  0  0  0  0  0  0  0  0  0
  140.4266   79.3366  220.9139 H   0  0  0  0  0  0  0  0  0  0  0  0
  141.7075   77.6366  219.6480 H   0  0  0  0  0  0  0  0  0  0  0  0
  142.3003   71.7390  220.2226 H   0  0  0  0  0  0  0  0  0  0  0  0
  142.1841   72.7917  218.7492 H   0  0  0  0  0  0  0  0  0  0  0  0
  143.8049   73.6340  221.9215 H   0  0  0  0  0  0  0  0  0  0  0  0
  146.2426   74.0930  222.1338 H   0  0  0  0  0  0  0  0  0  0  0  0
  147.7525   73.7184  220.2083 H   0  0  0  0  0  0  0  0  0  0  0  0
  144.4740   72.4410  217.8757 H   0  0  0  0  0  0  0  0  0  0  0  0
  141.2154   72.5192  225.0216 H   0  0  0  0  0  0  0  0  0  0  0  0
  141.5212   71.3798  227.1703 H   0  0  0  0  0  0  0  0  0  0  0  0
  1  2  3  0
  2  3  1  0
  3  4  2  0
  4  5  1  0
  5  6  2  0
  6  7  1  0
  7  8  2  0
  8  9  1  0
  9 10  2  0
 10 11  1  0
 11 12  2  0
 12 13  1  0
 13 14  2  0
 14 15  1  0
 15 16  2  0
 16 17  1  0
 17 18  2  0
 17 19  1  0
 19 20  1  0
 20 21  1  0
 21 22  2  0
 22 23  1  0
 23 24  2  0
 24 25  1  0
 25 26  2  0
  6 27  1  0
 27 28  2  0
 28  3  1  0
 19  9  1  0
 26 21  1  0
 16 11  1  0
  4 29  1  0
  5 30  1  0
  7 31  1  0
  8 32  1  0
 12 33  1  0
 13 34  1  0
 14 35  1  0
 15 36  1  0
 20 37  1  0
 20 38  1  0
 22 39  1  0
 23 40  1  0
 24 41  1  0
 26 42  1  0
 27 43  1  0
 28 44  1  0
M  END
>  <smiles>  (21) 
N#Cc1ccc(/C=C/c2nc3ccccc3c(=O)n2Cc2cccnc2)cc1

>  <score_type>  (21) 
oracle

>  <origin>  (21) 
autodockgpu

>  <m_score__min__energy>  (21) 
-8.8599999999999994

>  <m_primary>  (21) 
energy

>  <rmsd>  (21) 
5.88614833750039

>  <m_score__min__rmsd>  (21) 
5.88614833750039

>  <meeko>  (21) 
{"free_energy": -8.49, "intermolecular_energy": -10.28, "internal_energy": -1.08, "cluster_size": 10, "cluster_id": 1, "rank_in_cluster": 7}

>  <energy>  (21) 
-8.24

>  <cluster_rmsd>  (21) 
0.66

>  <cluster>  (21) 
2

$$$$

     RDKit          3D

 44 47  0  0  0  0  0  0  0  0999 V2000
  133.2270   73.2610  227.1070 N   0  0  0  0  0  0  0  0  0  0  0  0
  133.7290   72.5000  226.3960 C   0  0  0  0  0  0  0  0  0  0  0  0
  134.3560   71.5470  225.5270 C   0  0  0  0  0  0  0  0  0  0  0  0
  134.6220   70.2750  226.0160 C   0  0  0  0  0  0  0  0  0  0  0  0
  135.2300   69.3210  225.2000 C   0  0  0  0  0  0  0  0  0  0  0  0
  135.5910   69.5900  223.8970 C   0  0  0  0  0  0  0  0  0  0  0  0
  136.2280   68.6170  223.0210 C   0  0  0  0  0  0  0  0  0  0  0  0
  137.5120   68.3400  223.0290 C   0  0  0  0  0  0  0  0  0  0  0  0
  138.3950   68.9470  224.0270 C   0  0  0  0  0  0  0  0  0  0  0  0
  138.7670   68.1400  225.0500 N   0  0  0  0  0  0  0  0  0  0  0  0
  139.5540   68.5590  226.0550 C   0  0  0  0  0  0  0  0  0  0  0  0
  139.9140   67.7100  227.0820 C   0  0  0  0  0  0  0  0  0  0  0  0
  140.7230   68.2260  228.0730 C   0  0  0  0  0  0  0  0  0  0  0  0
  141.1570   69.5180  228.0490 C   0  0  0  0  0  0  0  0  0  0  0  0
  140.7800   70.3420  227.0080 C   0  0  0  0  0  0  0  0  0  0  0  0
  139.9720   69.8770  225.9940 C   0  0  0  0  0  0  0  0  0  0  0  0
  139.5810   70.6790  224.9430 C   0  0  0  0  0  0  0  0  0  0  0  0
  140.0120   71.8710  224.9720 O   0  0  0  0  0  0  0  0  0  0  0  0
  138.7840   70.2310  223.9350 N   0  0  0  0  0  0  0  0  0  0  0  0
  138.3960   71.1090  222.8480 C   0  0  0  0  0  0  0  0  0  0  0  0
  139.5300   71.8760  222.3330 C   0  0  0  0  0  0  0  0  0  0  0  0
  140.5770   71.1630  221.7350 C   0  0  0  0  0  0  0  0  0  0  0  0
  141.6860   71.8350  221.2180 C   0  0  0  0  0  0  0  0  0  0  0  0
  141.7640   73.1990  221.2920 C   0  0  0  0  0  0  0  0  0  0  0  0
  140.7620   73.8700  221.8640 N   0  0  0  0  0  0  0  0  0  0  0  0
  139.6840   73.2330  222.3670 C   0  0  0  0  0  0  0  0  0  0  0  0
  135.3130   70.8680  223.4400 C   0  0  0  0  0  0  0  0  0  0  0  0
  134.7120   71.8300  224.2250 C   0  0  0  0  0  0  0  0  0  0  0  0
  134.3522   70.0186  227.0511 H   0  0  0  0  0  0  0  0  0  0  0  0
  135.4282   68.3198  225.6102 H   0  0  0  0  0  0  0  0  0  0  0  0
  135.5912   68.0776  222.3043 H   0  0  0  0  0  0  0  0  0  0  0  0
  137.9265   67.6477  222.2814 H   0  0  0  0  0  0  0  0  0  0  0  0
  139.5701   66.6655  227.1091 H   0  0  0  0  0  0  0  0  0  0  0  0
  141.0267   67.5760  228.9068 H   0  0  0  0  0  0  0  0  0  0  0  0
  141.8027   69.9009  228.8531 H   0  0  0  0  0  0  0  0  0  0  0  0
  141.1297   71.3847  226.9878 H   0  0  0  0  0  0  0  0  0  0  0  0
  137.9783   70.5010  222.0320 H   0  0  0  0  0  0  0  0  0  0  0  0
  137.6515   71.8205  223.2346 H   0  0  0  0  0  0  0  0  0  0  0  0
  140.5250   70.0660  221.6724 H   0  0  0  0  0  0  0  0  0  0  0  0
  142.5014   71.2650  220.7487 H   0  0  0  0  0  0  0  0  0  0  0  0
  142.6366   73.7328  220.8875 H   0  0  0  0  0  0  0  0  0  0  0  0
  138.8887   73.8372  222.8279 H   0  0  0  0  0  0  0  0  0  0  0  0
  135.5834   71.1270  222.4057 H   0  0  0  0  0  0  0  0  0  0  0  0
  134.5154   72.8295  223.8098 H   0  0  0  0  0  0  0  0  0  0  0  0
  1  2  3  0
  2  3  1  0
  3  4  2  0
  4  5  1  0
  5  6  2  0
  6  7  1  0
  7  8  2  0
  8  9  1  0
  9 10  2  0
 10 11  1  0
 11 12  2  0
 12 13  1  0
 13 14  2  0
 14 15  1  0
 15 16  2  0
 16 17  1  0
 17 18  2  0
 17 19  1  0
 19 20  1  0
 20 21  1  0
 21 22  2  0
 22 23  1  0
 23 24  2  0
 24 25  1  0
 25 26  2  0
  6 27  1  0
 27 28  2  0
 28  3  1  0
 19  9  1  0
 26 21  1  0
 16 11  1  0
  4 29  1  0
  5 30  1  0
  7 31  1  0
  8 32  1  0
 12 33  1  0
 13 34  1  0
 14 35  1  0
 15 36  1  0
 20 37  1  0
 20 38  1  0
 22 39  1  0
 23 40  1  0
 24 41  1  0
 26 42  1  0
 27 43  1  0
 28 44  1  0
M  END
>  <smiles>  (22) 
N#Cc1ccc(/C=C/c2nc3ccccc3c(=O)n2Cc2cccnc2)cc1

>  <score_type>  (22) 
oracle

>  <origin>  (22) 
autodockgpu

>  <m_score__min__energy>  (22) 
-8.8599999999999994

>  <m_primary>  (22) 
energy

>  <rmsd>  (22) 
10.641554102793474

>  <m_score__min__rmsd>  (22) 
10.641554102793474

>  <meeko>  (22) 
{"free_energy": -7.54, "intermolecular_energy": -9.33, "internal_energy": -1.48, "cluster_size": 5, "cluster_id": 4, "rank_in_cluster": 1}

>  <energy>  (22) 
-8.22

>  <cluster_rmsd>  (22) 
0.65

>  <cluster>  (22) 
2

$$$$

     RDKit          3D

 44 47  0  0  0  0  0  0  0  0999 V2000
  146.0950   73.0180  219.2880 N   0  0  0  0  0  0  0  0  0  0  0  0
  145.0460   72.9350  219.7690 C   0  0  0  0  0  0  0  0  0  0  0  0
  143.7490   72.8150  220.3680 C   0  0  0  0  0  0  0  0  0  0  0  0
  143.0300   73.9730  220.6360 C   0  0  0  0  0  0  0  0  0  0  0  0
  141.7640   73.8960  221.2170 C   0  0  0  0  0  0  0  0  0  0  0  0
  141.1790   72.6930  221.5470 C   0  0  0  0  0  0  0  0  0  0  0  0
  139.8600   72.5790  222.1550 C   0  0  0  0  0  0  0  0  0  0  0  0
  139.2650   71.4410  222.4270 C   0  0  0  0  0  0  0  0  0  0  0  0
  139.4920   70.7730  223.7120 C   0  0  0  0  0  0  0  0  0  0  0  0
  140.0810   71.5290  224.6690 N   0  0  0  0  0  0  0  0  0  0  0  0
  140.3770   71.0520  225.8890 C   0  0  0  0  0  0  0  0  0  0  0  0
  140.9780   71.8500  226.8420 C   0  0  0  0  0  0  0  0  0  0  0  0
  141.2470   71.2770  228.0670 C   0  0  0  0  0  0  0  0  0  0  0  0
  140.9360   69.9770  228.3380 C   0  0  0  0  0  0  0  0  0  0  0  0
  140.3350   69.2060  227.3650 C   0  0  0  0  0  0  0  0  0  0  0  0
  140.0460   69.7300  226.1250 C   0  0  0  0  0  0  0  0  0  0  0  0
  139.4460   68.9800  225.1340 C   0  0  0  0  0  0  0  0  0  0  0  0
  139.1800   67.7790  225.4410 O   0  0  0  0  0  0  0  0  0  0  0  0
  139.1550   69.4860  223.9060 N   0  0  0  0  0  0  0  0  0  0  0  0
  138.5240   68.6620  222.8930 C   0  0  0  0  0  0  0  0  0  0  0  0
  137.0800   68.5520  223.0990 C   0  0  0  0  0  0  0  0  0  0  0  0
  136.5120   69.3160  224.1260 C   0  0  0  0  0  0  0  0  0  0  0  0
  135.1380   69.2610  224.3720 C   0  0  0  0  0  0  0  0  0  0  0  0
  134.3320   68.4570  223.6130 C   0  0  0  0  0  0  0  0  0  0  0  0
  134.8830   67.7310  222.6380 N   0  0  0  0  0  0  0  0  0  0  0  0
  136.2080   67.7760  222.3890 C   0  0  0  0  0  0  0  0  0  0  0  0
  141.9220   71.5560  221.2670 C   0  0  0  0  0  0  0  0  0  0  0  0
  143.1750   71.6040  220.6930 C   0  0  0  0  0  0  0  0  0  0  0  0
  143.4606   74.9546  220.3891 H   0  0  0  0  0  0  0  0  0  0  0  0
  141.2142   74.8272  221.4185 H   0  0  0  0  0  0  0  0  0  0  0  0
  139.3270   73.5088  222.4027 H   0  0  0  0  0  0  0  0  0  0  0  0
  138.5917   70.9856  221.6859 H   0  0  0  0  0  0  0  0  0  0  0  0
  141.2318   72.8996  226.6326 H   0  0  0  0  0  0  0  0  0  0  0  0
  141.7261   71.8857  228.8480 H   0  0  0  0  0  0  0  0  0  0  0  0
  141.1627   69.5468  229.3247 H   0  0  0  0  0  0  0  0  0  0  0  0
  140.0830   68.1576  227.5828 H   0  0  0  0  0  0  0  0  0  0  0  0
  138.7090   69.1093  221.9052 H   0  0  0  0  0  0  0  0  0  0  0  0
  138.9550   67.6521  222.9589 H   0  0  0  0  0  0  0  0  0  0  0  0
  137.1520   69.9637  224.7431 H   0  0  0  0  0  0  0  0  0  0  0  0
  134.7019   69.8670  225.1798 H   0  0  0  0  0  0  0  0  0  0  0  0
  133.2496   68.4098  223.8030 H   0  0  0  0  0  0  0  0  0  0  0  0
  136.6068   67.1562  221.5725 H   0  0  0  0  0  0  0  0  0  0  0  0
  141.4934   70.5734  221.5134 H   0  0  0  0  0  0  0  0  0  0  0  0
  143.7203   70.6699  220.4930 H   0  0  0  0  0  0  0  0  0  0  0  0
  1  2  3  0
  2  3  1  0
  3  4  2  0
  4  5  1  0
  5  6  2  0
  6  7  1  0
  7  8  2  0
  8  9  1  0
  9 10  2  0
 10 11  1  0
 11 12  2  0
 12 13  1  0
 13 14  2  0
 14 15  1  0
 15 16  2  0
 16 17  1  0
 17 18  2  0
 17 19  1  0
 19 20  1  0
 20 21  1  0
 21 22  2  0
 22 23  1  0
 23 24  2  0
 24 25  1  0
 25 26  2  0
  6 27  1  0
 27 28  2  0
 28  3  1  0
 19  9  1  0
 26 21  1  0
 16 11  1  0
  4 29  1  0
  5 30  1  0
  7 31  1  0
  8 32  1  0
 12 33  1  0
 13 34  1  0
 14 35  1  0
 15 36  1  0
 20 37  1  0
 20 38  1  0
 22 39  1  0
 23 40  1  0
 24 41  1  0
 26 42  1  0
 27 43  1  0
 28 44  1  0
M  END
>  <smiles>  (23) 
N#Cc1ccc(/C=C/c2nc3ccccc3c(=O)n2Cc2cccnc2)cc1

>  <score_type>  (23) 
oracle

>  <origin>  (23) 
autodockgpu

>  <m_score__min__energy>  (23) 
-8.8599999999999994

>  <m_primary>  (23) 
energy

>  <rmsd>  (23) 
11.620707469138491

>  <m_score__min__rmsd>  (23) 
11.620707469138491

>  <meeko>  (23) 
{"free_energy": -8.18, "intermolecular_energy": -9.97, "internal_energy": -1.2, "cluster_size": 33, "cluster_id": 2, "rank_in_cluster": 19}

>  <energy>  (23) 
-8.21

>  <cluster_rmsd>  (23) 
0.5

>  <cluster>  (23) 
2

$$$$

     RDKit          3D

 44 47  0  0  0  0  0  0  0  0999 V2000
  146.1410   72.9770  219.3500 N   0  0  0  0  0  0  0  0  0  0  0  0
  145.0840   72.8890  219.8110 C   0  0  0  0  0  0  0  0  0  0  0  0
  143.7750   72.7950  220.3900 C   0  0  0  0  0  0  0  0  0  0  0  0
  143.0780   73.9670  220.6500 C   0  0  0  0  0  0  0  0  0  0  0  0
  141.8010   73.9160  221.2110 C   0  0  0  0  0  0  0  0  0  0  0  0
  141.1850   72.7240  221.5280 C   0  0  0  0  0  0  0  0  0  0  0  0
  139.8550   72.6360  222.1160 C   0  0  0  0  0  0  0  0  0  0  0  0
  139.2190   71.5120  222.3470 C   0  0  0  0  0  0  0  0  0  0  0  0
  139.4330   70.7810  223.5990 C   0  0  0  0  0  0  0  0  0  0  0  0
  139.9550   71.5060  224.6170 N   0  0  0  0  0  0  0  0  0  0  0  0
  140.2310   70.9720  225.8190 C   0  0  0  0  0  0  0  0  0  0  0  0
  140.7630   71.7400  226.8360 C   0  0  0  0  0  0  0  0  0  0  0  0
  141.0160   71.1080  228.0360 C   0  0  0  0  0  0  0  0  0  0  0  0
  140.7560   69.7830  228.2220 C   0  0  0  0  0  0  0  0  0  0  0  0
  140.2240   69.0440  227.1860 C   0  0  0  0  0  0  0  0  0  0  0  0
  139.9530   69.6250  225.9670 C   0  0  0  0  0  0  0  0  0  0  0  0
  139.4210   68.9090  224.9160 C   0  0  0  0  0  0  0  0  0  0  0  0
  139.2010   67.6810  225.1440 O   0  0  0  0  0  0  0  0  0  0  0  0
  139.1480   69.4720  223.7070 N   0  0  0  0  0  0  0  0  0  0  0  0
  138.5900   68.6810  222.6280 C   0  0  0  0  0  0  0  0  0  0  0  0
  137.1690   68.4020  222.8330 C   0  0  0  0  0  0  0  0  0  0  0  0
  136.5380   67.5490  221.9190 C   0  0  0  0  0  0  0  0  0  0  0  0
  135.1840   67.2370  222.0600 C   0  0  0  0  0  0  0  0  0  0  0  0
  134.4580   67.7630  223.0940 C   0  0  0  0  0  0  0  0  0  0  0  0
  135.0680   68.5760  223.9600 N   0  0  0  0  0  0  0  0  0  0  0  0
  136.3760   68.8840  223.8350 C   0  0  0  0  0  0  0  0  0  0  0  0
  141.9080   71.5730  221.2560 C   0  0  0  0  0  0  0  0  0  0  0  0
  143.1700   71.5960  220.7020 C   0  0  0  0  0  0  0  0  0  0  0  0
  143.5339   74.9396  220.4130 H   0  0  0  0  0  0  0  0  0  0  0  0
  141.2683   74.8583  221.4067 H   0  0  0  0  0  0  0  0  0  0  0  0
  139.3498   73.5755  222.3845 H   0  0  0  0  0  0  0  0  0  0  0  0
  138.5202   71.1155  221.5957 H   0  0  0  0  0  0  0  0  0  0  0  0
  140.9759   72.8100  226.6953 H   0  0  0  0  0  0  0  0  0  0  0  0
  141.4401   71.6906  228.8671 H   0  0  0  0  0  0  0  0  0  0  0  0
  140.9687   69.3069  229.1905 H   0  0  0  0  0  0  0  0  0  0  0  0
  140.0130   67.9748  227.3356 H   0  0  0  0  0  0  0  0  0  0  0  0
  138.7113   69.2321  221.6838 H   0  0  0  0  0  0  0  0  0  0  0  0
  139.1247   67.7201  222.5987 H   0  0  0  0  0  0  0  0  0  0  0  0
  137.1128   67.1217  221.0841 H   0  0  0  0  0  0  0  0  0  0  0  0
  134.6988   66.5653  221.3365 H   0  0  0  0  0  0  0  0  0  0  0  0
  133.3913   67.5205  223.2096 H   0  0  0  0  0  0  0  0  0  0  0  0
  136.8266   69.5580  224.5785 H   0  0  0  0  0  0  0  0  0  0  0  0
  141.4550   70.5989  221.4925 H   0  0  0  0  0  0  0  0  0  0  0  0
  143.6982   70.6509  220.5074 H   0  0  0  0  0  0  0  0  0  0  0  0
  1  2  3  0
  2  3  1  0
  3  4  2  0
  4  5  1  0
  5  6  2  0
  6  7  1  0
  7  8  2  0
  8  9  1  0
  9 10  2  0
 10 11  1  0
 11 12  2  0
 12 13  1  0
 13 14  2  0
 14 15  1  0
 15 16  2  0
 16 17  1  0
 17 18  2  0
 17 19  1  0
 19 20  1  0
 20 21  1  0
 21 22  2  0
 22 23  1  0
 23 24  2  0
 24 25  1  0
 25 26  2  0
  6 27  1  0
 27 28  2  0
 28  3  1  0
 19  9  1  0
 26 21  1  0
 16 11  1  0
  4 29  1  0
  5 30  1  0
  7 31  1  0
  8 32  1  0
 12 33  1  0
 13 34  1  0
 14 35  1  0
 15 36  1  0
 20 37  1  0
 20 38  1  0
 22 39  1  0
 23 40  1  0
 24 41  1  0
 26 42  1  0
 27 43  1  0
 28 44  1  0
M  END
>  <smiles>  (24) 
N#Cc1ccc(/C=C/c2nc3ccccc3c(=O)n2Cc2cccnc2)cc1

>  <score_type>  (24) 
oracle

>  <origin>  (24) 
autodockgpu

>  <m_score__min__energy>  (24) 
-8.8599999999999994

>  <m_primary>  (24) 
energy

>  <rmsd>  (24) 
11.703921590242517

>  <m_score__min__rmsd>  (24) 
11.703921590242517

>  <meeko>  (24) 
{"free_energy": -8.32, "intermolecular_energy": -10.11, "internal_energy": -1.18, "cluster_size": 33, "cluster_id": 2, "rank_in_cluster": 9}

>  <energy>  (24) 
-8.21

>  <cluster_rmsd>  (24) 
0.63

>  <cluster>  (24) 
2

$$$$

     RDKit          3D

 44 47  0  0  0  0  0  0  0  0999 V2000
  133.1500   73.8840  227.0340 N   0  0  0  0  0  0  0  0  0  0  0  0
  133.6560   73.0250  226.4480 C   0  0  0  0  0  0  0  0  0  0  0  0
  134.2980   71.9700  225.7180 C   0  0  0  0  0  0  0  0  0  0  0  0
  134.9880   72.2890  224.5560 C   0  0  0  0  0  0  0  0  0  0  0  0
  135.6250   71.2900  223.8200 C   0  0  0  0  0  0  0  0  0  0  0  0
  135.6000   69.9660  224.2030 C   0  0  0  0  0  0  0  0  0  0  0  0
  136.2540   68.8990  223.4570 C   0  0  0  0  0  0  0  0  0  0  0  0
  137.5260   68.8930  223.1330 C   0  0  0  0  0  0  0  0  0  0  0  0
  138.5190   69.5160  224.0130 C   0  0  0  0  0  0  0  0  0  0  0  0
  138.5100   69.0900  225.2990 N   0  0  0  0  0  0  0  0  0  0  0  0
  139.3430   69.5840  226.2300 C   0  0  0  0  0  0  0  0  0  0  0  0
  139.3080   69.1280  227.5340 C   0  0  0  0  0  0  0  0  0  0  0  0
  140.1970   69.6930  228.4230 C   0  0  0  0  0  0  0  0  0  0  0  0
  141.0800   70.6610  228.0440 C   0  0  0  0  0  0  0  0  0  0  0  0
  141.0900   71.0950  226.7340 C   0  0  0  0  0  0  0  0  0  0  0  0
  140.2220   70.5640  225.8060 C   0  0  0  0  0  0  0  0  0  0  0  0
  140.2120   70.9800  224.4910 C   0  0  0  0  0  0  0  0  0  0  0  0
  141.0520   71.8820  224.1950 O   0  0  0  0  0  0  0  0  0  0  0  0
  139.3600   70.4640  223.5650 N   0  0  0  0  0  0  0  0  0  0  0  0
  139.3820   70.9310  222.1920 C   0  0  0  0  0  0  0  0  0  0  0  0
  139.2130   72.3820  222.1060 C   0  0  0  0  0  0  0  0  0  0  0  0
  137.9040   72.8810  222.0730 C   0  0  0  0  0  0  0  0  0  0  0  0
  137.6730   74.2560  221.9960 C   0  0  0  0  0  0  0  0  0  0  0  0
  138.7240   75.1320  221.9500 C   0  0  0  0  0  0  0  0  0  0  0  0
  139.9670   74.6470  221.9810 N   0  0  0  0  0  0  0  0  0  0  0  0
  140.2040   73.3200  222.0560 C   0  0  0  0  0  0  0  0  0  0  0  0
  134.9030   69.6810  225.3660 C   0  0  0  0  0  0  0  0  0  0  0  0
  134.2650   70.6490  226.1120 C   0  0  0  0  0  0  0  0  0  0  0  0
  135.0324   73.3337  224.2146 H   0  0  0  0  0  0  0  0  0  0  0  0
  136.1655   71.5680  222.9032 H   0  0  0  0  0  0  0  0  0  0  0  0
  135.6407   68.0410  223.1444 H   0  0  0  0  0  0  0  0  0  0  0  0
  137.8488   68.4174  222.1951 H   0  0  0  0  0  0  0  0  0  0  0  0
  138.6004   68.3470  227.8493 H   0  0  0  0  0  0  0  0  0  0  0  0
  140.1943   69.3531  229.4692 H   0  0  0  0  0  0  0  0  0  0  0  0
  141.7783   71.0922  228.7764 H   0  0  0  0  0  0  0  0  0  0  0  0
  141.8012   71.8759  226.4268 H   0  0  0  0  0  0  0  0  0  0  0  0
  140.3465   70.6579  221.7390 H   0  0  0  0  0  0  0  0  0  0  0  0
  138.5447   70.4582  221.6578 H   0  0  0  0  0  0  0  0  0  0  0  0
  137.0529   72.1850  222.1080 H   0  0  0  0  0  0  0  0  0  0  0  0
  136.6414   74.6371  221.9722 H   0  0  0  0  0  0  0  0  0  0  0  0
  138.5472   76.2160  221.8886 H   0  0  0  0  0  0  0  0  0  0  0  0
  141.2489   72.9769  222.0779 H   0  0  0  0  0  0  0  0  0  0  0  0
  134.8567   68.6369  225.7090 H   0  0  0  0  0  0  0  0  0  0  0  0
  133.7258   70.3656  227.0280 H   0  0  0  0  0  0  0  0  0  0  0  0
  1  2  3  0
  2  3  1  0
  3  4  2  0
  4  5  1  0
  5  6  2  0
  6  7  1  0
  7  8  2  0
  8  9  1  0
  9 10  2  0
 10 11  1  0
 11 12  2  0
 12 13  1  0
 13 14  2  0
 14 15  1  0
 15 16  2  0
 16 17  1  0
 17 18  2  0
 17 19  1  0
 19 20  1  0
 20 21  1  0
 21 22  2  0
 22 23  1  0
 23 24  2  0
 24 25  1  0
 25 26  2  0
  6 27  1  0
 27 28  2  0
 28  3  1  0
 19  9  1  0
 26 21  1  0
 16 11  1  0
  4 29  1  0
  5 30  1  0
  7 31  1  0
  8 32  1  0
 12 33  1  0
 13 34  1  0
 14 35  1  0
 15 36  1  0
 20 37  1  0
 20 38  1  0
 22 39  1  0
 23 40  1  0
 24 41  1  0
 26 42  1  0
 27 43  1  0
 28 44  1  0
M  END
>  <smiles>  (25) 
N#Cc1ccc(/C=C/c2nc3ccccc3c(=O)n2Cc2cccnc2)cc1

>  <score_type>  (25) 
oracle

>  <origin>  (25) 
autodockgpu

>  <m_score__min__energy>  (25) 
-8.8599999999999994

>  <m_primary>  (25) 
energy

>  <rmsd>  (25) 
9.910025889436664

>  <m_score__min__rmsd>  (25) 
9.910025889436664

>  <meeko>  (25) 
{"free_energy": -7.39, "intermolecular_energy": -9.18, "internal_energy": -1.63, "cluster_size": 5, "cluster_id": 4, "rank_in_cluster": 4}

>  <energy>  (25) 
-8.21

>  <cluster_rmsd>  (25) 
0.49

>  <cluster>  (25) 
2

$$$$

     RDKit          3D

 44 47  0  0  0  0  0  0  0  0999 V2000
  146.1910   73.0110  219.3050 N   0  0  0  0  0  0  0  0  0  0  0  0
  145.1330   72.9600  219.7680 C   0  0  0  0  0  0  0  0  0  0  0  0
  143.8250   72.9090  220.3550 C   0  0  0  0  0  0  0  0  0  0  0  0
  143.2850   71.6680  220.6670 C   0  0  0  0  0  0  0  0  0  0  0  0
  142.0150   71.5780  221.2390 C   0  0  0  0  0  0  0  0  0  0  0  0
  141.2530   72.6930  221.5150 C   0  0  0  0  0  0  0  0  0  0  0  0
  139.9250   72.6320  222.1110 C   0  0  0  0  0  0  0  0  0  0  0  0
  139.2710   71.5200  222.3550 C   0  0  0  0  0  0  0  0  0  0  0  0
  139.4690   70.8050  223.6180 C   0  0  0  0  0  0  0  0  0  0  0  0
  139.9890   71.5390  224.6310 N   0  0  0  0  0  0  0  0  0  0  0  0
  140.2510   71.0190  225.8420 C   0  0  0  0  0  0  0  0  0  0  0  0
  140.7810   71.7960  226.8530 C   0  0  0  0  0  0  0  0  0  0  0  0
  141.0190   71.1790  228.0630 C   0  0  0  0  0  0  0  0  0  0  0  0
  140.7470   69.8580  228.2650 C   0  0  0  0  0  0  0  0  0  0  0  0
  140.2170   69.1090  227.2340 C   0  0  0  0  0  0  0  0  0  0  0  0
  139.9600   69.6770  226.0060 C   0  0  0  0  0  0  0  0  0  0  0  0
  139.4310   68.9510  224.9600 C   0  0  0  0  0  0  0  0  0  0  0  0
  139.1990   67.7280  225.2030 O   0  0  0  0  0  0  0  0  0  0  0  0
  139.1730   69.4990  223.7420 N   0  0  0  0  0  0  0  0  0  0  0  0
  138.6170   68.6990  222.6680 C   0  0  0  0  0  0  0  0  0  0  0  0
  137.1900   68.4430  222.8600 C   0  0  0  0  0  0  0  0  0  0  0  0
  136.5460   67.6270  221.9220 C   0  0  0  0  0  0  0  0  0  0  0  0
  135.1850   67.3380  222.0500 C   0  0  0  0  0  0  0  0  0  0  0  0
  134.4650   67.8530  223.0930 C   0  0  0  0  0  0  0  0  0  0  0  0
  135.0870   68.6310  223.9820 N   0  0  0  0  0  0  0  0  0  0  0  0
  136.4010   68.9160  223.8700 C   0  0  0  0  0  0  0  0  0  0  0  0
  141.8200   73.9150  221.1920 C   0  0  0  0  0  0  0  0  0  0  0  0
  143.0730   74.0320  220.6260 C   0  0  0  0  0  0  0  0  0  0  0  0
  143.8602   70.7529  220.4626 H   0  0  0  0  0  0  0  0  0  0  0  0
  141.6086   70.5840  221.4775 H   0  0  0  0  0  0  0  0  0  0  0  0
  139.4372   73.5821  222.3744 H   0  0  0  0  0  0  0  0  0  0  0  0
  138.5699   71.1228  221.6062 H   0  0  0  0  0  0  0  0  0  0  0  0
  141.0040   72.8622  226.6996 H   0  0  0  0  0  0  0  0  0  0  0  0
  141.4406   71.7697  228.8896 H   0  0  0  0  0  0  0  0  0  0  0  0
  140.9483   69.3933  229.2415 H   0  0  0  0  0  0  0  0  0  0  0  0
  139.9968   68.0434  227.3954 H   0  0  0  0  0  0  0  0  0  0  0  0
  138.7574   69.2338  221.7171 H   0  0  0  0  0  0  0  0  0  0  0  0
  139.1386   67.7306  222.6596 H   0  0  0  0  0  0  0  0  0  0  0  0
  137.1157   67.2104  221.0782 H   0  0  0  0  0  0  0  0  0  0  0  0
  134.6901   66.6934  221.3087 H   0  0  0  0  0  0  0  0  0  0  0  0
  133.3929   67.6301  223.1973 H   0  0  0  0  0  0  0  0  0  0  0  0
  136.8609   69.5629  224.6316 H   0  0  0  0  0  0  0  0  0  0  0  0
  141.2467   74.8315  221.3955 H   0  0  0  0  0  0  0  0  0  0  0  0
  143.4746   75.0284  220.3894 H   0  0  0  0  0  0  0  0  0  0  0  0
  1  2  3  0
  2  3  1  0
  3  4  2  0
  4  5  1  0
  5  6  2  0
  6  7  1  0
  7  8  2  0
  8  9  1  0
  9 10  2  0
 10 11  1  0
 11 12  2  0
 12 13  1  0
 13 14  2  0
 14 15  1  0
 15 16  2  0
 16 17  1  0
 17 18  2  0
 17 19  1  0
 19 20  1  0
 20 21  1  0
 21 22  2  0
 22 23  1  0
 23 24  2  0
 24 25  1  0
 25 26  2  0
  6 27  1  0
 27 28  2  0
 28  3  1  0
 19  9  1  0
 26 21  1  0
 16 11  1  0
  4 29  1  0
  5 30  1  0
  7 31  1  0
  8 32  1  0
 12 33  1  0
 13 34  1  0
 14 35  1  0
 15 36  1  0
 20 37  1  0
 20 38  1  0
 22 39  1  0
 23 40  1  0
 24 41  1  0
 26 42  1  0
 27 43  1  0
 28 44  1  0
M  END
>  <smiles>  (26) 
N#Cc1ccc(/C=C/c2nc3ccccc3c(=O)n2Cc2cccnc2)cc1

>  <score_type>  (26) 
oracle

>  <origin>  (26) 
autodockgpu

>  <m_score__min__energy>  (26) 
-8.8599999999999994

>  <m_primary>  (26) 
energy

>  <rmsd>  (26) 
11.657707325492241

>  <m_score__min__rmsd>  (26) 
11.657707325492241

>  <meeko>  (26) 
{"free_energy": -8.36, "intermolecular_energy": -10.15, "internal_energy": -1.16, "cluster_size": 33, "cluster_id": 2, "rank_in_cluster": 8}

>  <energy>  (26) 
-8.21

>  <cluster_rmsd>  (26) 
0.51

>  <cluster>  (26) 
2

$$$$

     RDKit          3D

 44 47  0  0  0  0  0  0  0  0999 V2000
  146.2970   73.3860  219.3560 N   0  0  0  0  0  0  0  0  0  0  0  0
  145.2320   73.1230  219.7210 C   0  0  0  0  0  0  0  0  0  0  0  0
  143.9150   72.8010  220.1900 C   0  0  0  0  0  0  0  0  0  0  0  0
  143.4680   71.4930  220.0680 C   0  0  0  0  0  0  0  0  0  0  0  0
  142.1930   71.1410  220.5130 C   0  0  0  0  0  0  0  0  0  0  0  0
  141.3350   72.0570  221.0830 C   0  0  0  0  0  0  0  0  0  0  0  0
  139.9990   71.7220  221.5570 C   0  0  0  0  0  0  0  0  0  0  0  0
  139.5000   72.1140  222.7060 C   0  0  0  0  0  0  0  0  0  0  0  0
  139.5230   71.2220  223.8680 C   0  0  0  0  0  0  0  0  0  0  0  0
  140.2320   71.6660  224.9330 N   0  0  0  0  0  0  0  0  0  0  0  0
  140.3680   70.9510  226.0620 C   0  0  0  0  0  0  0  0  0  0  0  0
  141.0990   71.4330  227.1300 C   0  0  0  0  0  0  0  0  0  0  0  0
  141.1860   70.6310  228.2480 C   0  0  0  0  0  0  0  0  0  0  0  0
  140.5800   69.4110  228.3090 C   0  0  0  0  0  0  0  0  0  0  0  0
  139.8570   68.9570  227.2250 C   0  0  0  0  0  0  0  0  0  0  0  0
  139.7390   69.7190  226.0840 C   0  0  0  0  0  0  0  0  0  0  0  0
  139.0210   69.2890  224.9870 C   0  0  0  0  0  0  0  0  0  0  0  0
  138.4800   68.1480  225.0990 O   0  0  0  0  0  0  0  0  0  0  0  0
  138.8970   70.0320  223.8540 N   0  0  0  0  0  0  0  0  0  0  0  0
  138.1340   69.5410  222.7230 C   0  0  0  0  0  0  0  0  0  0  0  0
  138.7560   68.3660  222.1130 C   0  0  0  0  0  0  0  0  0  0  0  0
  139.6100   68.5770  221.0230 C   0  0  0  0  0  0  0  0  0  0  0  0
  140.2390   67.4980  220.3980 C   0  0  0  0  0  0  0  0  0  0  0  0
  140.0270   66.2220  220.8440 C   0  0  0  0  0  0  0  0  0  0  0  0
  139.2120   66.0310  221.8830 N   0  0  0  0  0  0  0  0  0  0  0  0
  138.5980   67.0640  222.4960 C   0  0  0  0  0  0  0  0  0  0  0  0
  141.8120   73.3540  221.1900 C   0  0  0  0  0  0  0  0  0  0  0  0
  143.0670   73.7280  220.7580 C   0  0  0  0  0  0  0  0  0  0  0  0
  144.1213   70.7305  219.6187 H   0  0  0  0  0  0  0  0  0  0  0  0
  141.8616   70.0977  220.4053 H   0  0  0  0  0  0  0  0  0  0  0  0
  139.3658   71.0987  220.9085 H   0  0  0  0  0  0  0  0  0  0  0  0
  139.0617   73.1188  222.7970 H   0  0  0  0  0  0  0  0  0  0  0  0
  141.5913   72.4159  227.0903 H   0  0  0  0  0  0  0  0  0  0  0  0
  141.7610   70.9856  229.1161 H   0  0  0  0  0  0  0  0  0  0  0  0
  140.6668   68.7936  229.2153 H   0  0  0  0  0  0  0  0  0  0  0  0
  139.3681   67.9728  227.2729 H   0  0  0  0  0  0  0  0  0  0  0  0
  137.1242   69.2710  223.0658 H   0  0  0  0  0  0  0  0  0  0  0  0
  138.0964   70.3380  221.9658 H   0  0  0  0  0  0  0  0  0  0  0  0
  139.7864   69.5992  220.6569 H   0  0  0  0  0  0  0  0  0  0  0  0
  140.9081   67.6749  219.5430 H   0  0  0  0  0  0  0  0  0  0  0  0
  140.5197   65.3688  220.3547 H   0  0  0  0  0  0  0  0  0  0  0  0
  137.9364   66.8470  223.3476 H   0  0  0  0  0  0  0  0  0  0  0  0
  141.1609   74.1184  221.6392 H   0  0  0  0  0  0  0  0  0  0  0  0
  143.3937   74.7727  220.8672 H   0  0  0  0  0  0  0  0  0  0  0  0
  1  2  3  0
  2  3  1  0
  3  4  2  0
  4  5  1  0
  5  6  2  0
  6  7  1  0
  7  8  2  0
  8  9  1  0
  9 10  2  0
 10 11  1  0
 11 12  2  0
 12 13  1  0
 13 14  2  0
 14 15  1  0
 15 16  2  0
 16 17  1  0
 17 18  2  0
 17 19  1  0
 19 20  1  0
 20 21  1  0
 21 22  2  0
 22 23  1  0
 23 24  2  0
 24 25  1  0
 25 26  2  0
  6 27  1  0
 27 28  2  0
 28  3  1  0
 19  9  1  0
 26 21  1  0
 16 11  1  0
  4 29  1  0
  5 30  1  0
  7 31  1  0
  8 32  1  0
 12 33  1  0
 13 34  1  0
 14 35  1  0
 15 36  1  0
 20 37  1  0
 20 38  1  0
 22 39  1  0
 23 40  1  0
 24 41  1  0
 26 42  1  0
 27 43  1  0
 28 44  1  0
M  END
>  <smiles>  (27) 
N#Cc1ccc(/C=C/c2nc3ccccc3c(=O)n2Cc2cccnc2)cc1

>  <score_type>  (27) 
oracle

>  <origin>  (27) 
autodockgpu

>  <m_score__min__energy>  (27) 
-8.8599999999999994

>  <m_primary>  (27) 
energy

>  <rmsd>  (27) 
11.319297905049304

>  <m_score__min__rmsd>  (27) 
11.319297905049304

>  <meeko>  (27) 
{"free_energy": -7.61, "intermolecular_energy": -9.4, "internal_energy": -1.23, "cluster_size": 33, "cluster_id": 2, "rank_in_cluster": 33}

>  <energy>  (27) 
-8.2

>  <cluster_rmsd>  (27) 
0.63

>  <cluster>  (27) 
2

$$$$

     RDKit          3D

 44 47  0  0  0  0  0  0  0  0999 V2000
  146.0530   73.0140  219.0370 N   0  0  0  0  0  0  0  0  0  0  0  0
  145.0290   72.9610  219.5710 C   0  0  0  0  0  0  0  0  0  0  0  0
  143.7570   72.9120  220.2320 C   0  0  0  0  0  0  0  0  0  0  0  0
  143.2310   71.6720  220.5710 C   0  0  0  0  0  0  0  0  0  0  0  0
  141.9960   71.5840  221.2150 C   0  0  0  0  0  0  0  0  0  0  0  0
  141.2540   72.7000  221.5370 C   0  0  0  0  0  0  0  0  0  0  0  0
  139.9630   72.6420  222.2070 C   0  0  0  0  0  0  0  0  0  0  0  0
  139.3130   71.5320  222.4710 C   0  0  0  0  0  0  0  0  0  0  0  0
  139.5420   70.8210  223.7320 C   0  0  0  0  0  0  0  0  0  0  0  0
  140.1390   71.5420  224.7110 N   0  0  0  0  0  0  0  0  0  0  0  0
  140.4380   71.0220  225.9130 C   0  0  0  0  0  0  0  0  0  0  0  0
  141.0470   71.7850  226.8900 C   0  0  0  0  0  0  0  0  0  0  0  0
  141.3180   71.1690  228.0940 C   0  0  0  0  0  0  0  0  0  0  0  0
  141.0020   69.8630  228.3220 C   0  0  0  0  0  0  0  0  0  0  0  0
  140.3930   69.1270  227.3260 C   0  0  0  0  0  0  0  0  0  0  0  0
  140.1010   69.6940  226.1050 C   0  0  0  0  0  0  0  0  0  0  0  0
  139.4940   68.9810  225.0930 C   0  0  0  0  0  0  0  0  0  0  0  0
  139.2230   67.7710  225.3600 O   0  0  0  0  0  0  0  0  0  0  0  0
  139.2000   69.5290  223.8830 N   0  0  0  0  0  0  0  0  0  0  0  0
  138.5610   68.7430  222.8460 C   0  0  0  0  0  0  0  0  0  0  0  0
  137.1270   68.5830  223.0860 C   0  0  0  0  0  0  0  0  0  0  0  0
  136.5530   69.3430  224.1140 C   0  0  0  0  0  0  0  0  0  0  0  0
  135.1880   69.2410  224.3920 C   0  0  0  0  0  0  0  0  0  0  0  0
  134.3960   68.3960  223.6640 C   0  0  0  0  0  0  0  0  0  0  0  0
  134.9520   67.6750  222.6870 N   0  0  0  0  0  0  0  0  0  0  0  0
  136.2690   67.7650  222.4080 C   0  0  0  0  0  0  0  0  0  0  0  0
  141.8070   73.9220  221.1850 C   0  0  0  0  0  0  0  0  0  0  0  0
  143.0250   74.0360  220.5480 C   0  0  0  0  0  0  0  0  0  0  0  0
  143.7901   70.7556  220.3309 H   0  0  0  0  0  0  0  0  0  0  0  0
  141.6015   70.5905  221.4743 H   0  0  0  0  0  0  0  0  0  0  0  0
  139.5007   73.5922  222.5128 H   0  0  0  0  0  0  0  0  0  0  0  0
  138.5925   71.1335  221.7416 H   0  0  0  0  0  0  0  0  0  0  0  0
  141.3051   72.8399  226.7152 H   0  0  0  0  0  0  0  0  0  0  0  0
  141.8032   71.7485  228.8932 H   0  0  0  0  0  0  0  0  0  0  0  0
  141.2307   69.3990  229.2928 H   0  0  0  0  0  0  0  0  0  0  0  0
  140.1372   68.0730  227.5097 H   0  0  0  0  0  0  0  0  0  0  0  0
  138.7053   69.2465  221.8787 H   0  0  0  0  0  0  0  0  0  0  0  0
  139.0195   67.7431  222.8459 H   0  0  0  0  0  0  0  0  0  0  0  0
  137.1816   70.0245  224.7059 H   0  0  0  0  0  0  0  0  0  0  0  0
  134.7477   69.8432  225.2004 H   0  0  0  0  0  0  0  0  0  0  0  0
  133.3206   68.3119  223.8794 H   0  0  0  0  0  0  0  0  0  0  0  0
  136.6726   67.1474  221.5921 H   0  0  0  0  0  0  0  0  0  0  0  0
  141.2502   74.8400  221.4241 H   0  0  0  0  0  0  0  0  0  0  0  0
  143.4151   75.0317  220.2903 H   0  0  0  0  0  0  0  0  0  0  0  0
  1  2  3  0
  2  3  1  0
  3  4  2  0
  4  5  1  0
  5  6  2  0
  6  7  1  0
  7  8  2  0
  8  9  1  0
  9 10  2  0
 10 11  1  0
 11 12  2  0
 12 13  1  0
 13 14  2  0
 14 15  1  0
 15 16  2  0
 16 17  1  0
 17 18  2  0
 17 19  1  0
 19 20  1  0
 20 21  1  0
 21 22  2  0
 22 23  1  0
 23 24  2  0
 24 25  1  0
 25 26  2  0
  6 27  1  0
 27 28  2  0
 28  3  1  0
 19  9  1  0
 26 21  1  0
 16 11  1  0
  4 29  1  0
  5 30  1  0
  7 31  1  0
  8 32  1  0
 12 33  1  0
 13 34  1  0
 14 35  1  0
 15 36  1  0
 20 37  1  0
 20 38  1  0
 22 39  1  0
 23 40  1  0
 24 41  1  0
 26 42  1  0
 27 43  1  0
 28 44  1  0
M  END
>  <smiles>  (28) 
N#Cc1ccc(/C=C/c2nc3ccccc3c(=O)n2Cc2cccnc2)cc1

>  <score_type>  (28) 
oracle

>  <origin>  (28) 
autodockgpu

>  <m_score__min__energy>  (28) 
-8.8599999999999994

>  <m_primary>  (28) 
energy

>  <rmsd>  (28) 
11.647422179683677

>  <m_score__min__rmsd>  (28) 
11.647422179683677

>  <meeko>  (28) 
{"free_energy": -8.21, "intermolecular_energy": -10.0, "internal_energy": -1.19, "cluster_size": 33, "cluster_id": 2, "rank_in_cluster": 13}

>  <energy>  (28) 
-8.19

>  <cluster_rmsd>  (28) 
0.52

>  <cluster>  (28) 
2

$$$$

     RDKit          3D

 44 47  0  0  0  0  0  0  0  0999 V2000
  145.9860   73.0170  219.0490 N   0  0  0  0  0  0  0  0  0  0  0  0
  144.9670   72.9320  219.5890 C   0  0  0  0  0  0  0  0  0  0  0  0
  143.6980   72.8390  220.2510 C   0  0  0  0  0  0  0  0  0  0  0  0
  143.0180   74.0120  220.5520 C   0  0  0  0  0  0  0  0  0  0  0  0
  141.7810   73.9620  221.1940 C   0  0  0  0  0  0  0  0  0  0  0  0
  141.1870   72.7710  221.5550 C   0  0  0  0  0  0  0  0  0  0  0  0
  139.8980   72.6850  222.2280 C   0  0  0  0  0  0  0  0  0  0  0  0
  139.2590   71.5630  222.4640 C   0  0  0  0  0  0  0  0  0  0  0  0
  139.4700   70.8400  223.7210 C   0  0  0  0  0  0  0  0  0  0  0  0
  140.0060   71.5650  224.7320 N   0  0  0  0  0  0  0  0  0  0  0  0
  140.2810   71.0370  225.9360 C   0  0  0  0  0  0  0  0  0  0  0  0
  140.8290   71.8050  226.9440 C   0  0  0  0  0  0  0  0  0  0  0  0
  141.0790   71.1800  228.1480 C   0  0  0  0  0  0  0  0  0  0  0  0
  140.8030   69.8600  228.3460 C   0  0  0  0  0  0  0  0  0  0  0  0
  140.2560   69.1200  227.3180 C   0  0  0  0  0  0  0  0  0  0  0  0
  139.9860   69.6950  226.0960 C   0  0  0  0  0  0  0  0  0  0  0  0
  139.4390   68.9780  225.0530 C   0  0  0  0  0  0  0  0  0  0  0  0
  139.2030   67.7550  225.2920 O   0  0  0  0  0  0  0  0  0  0  0  0
  139.1680   69.5350  223.8420 N   0  0  0  0  0  0  0  0  0  0  0  0
  138.5940   68.7430  222.7710 C   0  0  0  0  0  0  0  0  0  0  0  0
  137.1620   68.5180  222.9650 C   0  0  0  0  0  0  0  0  0  0  0  0
  136.4830   67.7810  221.9870 C   0  0  0  0  0  0  0  0  0  0  0  0
  135.1160   67.5260  222.1140 C   0  0  0  0  0  0  0  0  0  0  0  0
  134.4230   67.9960  223.1970 C   0  0  0  0  0  0  0  0  0  0  0  0
  135.0780   68.6980  224.1240 N   0  0  0  0  0  0  0  0  0  0  0  0
  136.3990   68.9510  224.0130 C   0  0  0  0  0  0  0  0  0  0  0  0
  141.8920   71.6190  221.2420 C   0  0  0  0  0  0  0  0  0  0  0  0
  143.1160   71.6410  220.6070 C   0  0  0  0  0  0  0  0  0  0  0  0
  143.4568   74.9842  220.2830 H   0  0  0  0  0  0  0  0  0  0  0  0
  141.2614   74.9048  221.4202 H   0  0  0  0  0  0  0  0  0  0  0  0
  139.4289   73.6227  222.5606 H   0  0  0  0  0  0  0  0  0  0  0  0
  138.5610   71.1631  221.7138 H   0  0  0  0  0  0  0  0  0  0  0  0
  141.0567   72.8706  226.7933 H   0  0  0  0  0  0  0  0  0  0  0  0
  141.5139   71.7640  228.9725 H   0  0  0  0  0  0  0  0  0  0  0  0
  141.0146   69.3887  229.3171 H   0  0  0  0  0  0  0  0  0  0  0  0
  140.0322   68.0548  227.4768 H   0  0  0  0  0  0  0  0  0  0  0  0
  138.7449   69.2713  221.8181 H   0  0  0  0  0  0  0  0  0  0  0  0
  139.0949   67.7637  222.7657 H   0  0  0  0  0  0  0  0  0  0  0  0
  137.0305   67.4001  221.1122 H   0  0  0  0  0  0  0  0  0  0  0  0
  134.5934   66.9447  221.3401 H   0  0  0  0  0  0  0  0  0  0  0  0
  133.3459   67.7987  223.3013 H   0  0  0  0  0  0  0  0  0  0  0  0
  136.8867   69.5358  224.8068 H   0  0  0  0  0  0  0  0  0  0  0  0
  141.4564   70.6456  221.5118 H   0  0  0  0  0  0  0  0  0  0  0  0
  143.6318   70.6956  220.3829 H   0  0  0  0  0  0  0  0  0  0  0  0
  1  2  3  0
  2  3  1  0
  3  4  2  0
  4  5  1  0
  5  6  2  0
  6  7  1  0
  7  8  2  0
  8  9  1  0
  9 10  2  0
 10 11  1  0
 11 12  2  0
 12 13  1  0
 13 14  2  0
 14 15  1  0
 15 16  2  0
 16 17  1  0
 17 18  2  0
 17 19  1  0
 19 20  1  0
 20 21  1  0
 21 22  2  0
 22 23  1  0
 23 24  2  0
 24 25  1  0
 25 26  2  0
  6 27  1  0
 27 28  2  0
 28  3  1  0
 19  9  1  0
 26 21  1  0
 16 11  1  0
  4 29  1  0
  5 30  1  0
  7 31  1  0
  8 32  1  0
 12 33  1  0
 13 34  1  0
 14 35  1  0
 15 36  1  0
 20 37  1  0
 20 38  1  0
 22 39  1  0
 23 40  1  0
 24 41  1  0
 26 42  1  0
 27 43  1  0
 28 44  1  0
M  END
>  <smiles>  (29) 
N#Cc1ccc(/C=C/c2nc3ccccc3c(=O)n2Cc2cccnc2)cc1

>  <score_type>  (29) 
oracle

>  <origin>  (29) 
autodockgpu

>  <m_score__min__energy>  (29) 
-8.8599999999999994

>  <m_primary>  (29) 
energy

>  <rmsd>  (29) 
11.652039351151359

>  <m_score__min__rmsd>  (29) 
11.652039351151359

>  <meeko>  (29) 
{"free_energy": -8.37, "intermolecular_energy": -10.16, "internal_energy": -1.15, "cluster_size": 33, "cluster_id": 2, "rank_in_cluster": 3}

>  <energy>  (29) 
-8.18

>  <cluster_rmsd>  (29) 
0.51

>  <cluster>  (29) 
2

$$$$

     RDKit          3D

 44 47  0  0  0  0  0  0  0  0999 V2000
  145.9510   73.0030  219.1330 N   0  0  0  0  0  0  0  0  0  0  0  0
  144.9290   73.0130  219.6730 C   0  0  0  0  0  0  0  0  0  0  0  0
  143.6530   73.0300  220.3280 C   0  0  0  0  0  0  0  0  0  0  0  0
  143.1260   71.8310  220.7890 C   0  0  0  0  0  0  0  0  0  0  0  0
  141.8880   71.8070  221.4310 C   0  0  0  0  0  0  0  0  0  0  0  0
  141.1440   72.9490  221.6350 C   0  0  0  0  0  0  0  0  0  0  0  0
  139.8490   72.9580  222.3010 C   0  0  0  0  0  0  0  0  0  0  0  0
  139.1400   71.8840  222.5600 C   0  0  0  0  0  0  0  0  0  0  0  0
  139.3670   71.1250  223.7930 C   0  0  0  0  0  0  0  0  0  0  0  0
  140.0420   71.7800  224.7680 N   0  0  0  0  0  0  0  0  0  0  0  0
  140.3490   71.2100  225.9450 C   0  0  0  0  0  0  0  0  0  0  0  0
  141.0390   71.9060  226.9180 C   0  0  0  0  0  0  0  0  0  0  0  0
  141.3110   71.2420  228.0950 C   0  0  0  0  0  0  0  0  0  0  0  0
  140.9210   69.9520  228.3020 C   0  0  0  0  0  0  0  0  0  0  0  0
  140.2330   69.2840  227.3110 C   0  0  0  0  0  0  0  0  0  0  0  0
  139.9350   69.9010  226.1160 C   0  0  0  0  0  0  0  0  0  0  0  0
  139.2490   69.2560  225.1090 C   0  0  0  0  0  0  0  0  0  0  0  0
  138.9110   68.0580  225.3550 O   0  0  0  0  0  0  0  0  0  0  0  0
  138.9480   69.8540  223.9250 N   0  0  0  0  0  0  0  0  0  0  0  0
  138.2250   69.1380  222.8920 C   0  0  0  0  0  0  0  0  0  0  0  0
  136.8340   68.8920  223.2700 C   0  0  0  0  0  0  0  0  0  0  0  0
  136.2940   69.6710  224.3010 C   0  0  0  0  0  0  0  0  0  0  0  0
  134.9700   69.4900  224.7070 C   0  0  0  0  0  0  0  0  0  0  0  0
  134.1850   68.5470  224.1010 C   0  0  0  0  0  0  0  0  0  0  0  0
  134.7080   67.8090  223.1190 N   0  0  0  0  0  0  0  0  0  0  0  0
  135.9850   67.9750  222.7180 C   0  0  0  0  0  0  0  0  0  0  0  0
  141.6980   74.1290  221.1640 C   0  0  0  0  0  0  0  0  0  0  0  0
  142.9190   74.1800  220.5260 C   0  0  0  0  0  0  0  0  0  0  0  0
  143.6874   70.8957  220.6473 H   0  0  0  0  0  0  0  0  0  0  0  0
  141.4922   70.8442  221.7864 H   0  0  0  0  0  0  0  0  0  0  0  0
  139.4370   73.9307  222.6078 H   0  0  0  0  0  0  0  0  0  0  0  0
  138.3708   71.5517  221.8473 H   0  0  0  0  0  0  0  0  0  0  0  0
  141.3582   72.9468  226.7604 H   0  0  0  0  0  0  0  0  0  0  0  0
  141.8588   71.7683  228.8906 H   0  0  0  0  0  0  0  0  0  0  0  0
  141.1533   69.4482  229.2518 H   0  0  0  0  0  0  0  0  0  0  0  0
  139.9176   68.2434  227.4772 H   0  0  0  0  0  0  0  0  0  0  0  0
  138.2422   69.7342  221.9677 H   0  0  0  0  0  0  0  0  0  0  0  0
  138.7155   68.1644  222.7453 H   0  0  0  0  0  0  0  0  0  0  0  0
  136.9173   70.4311  224.7947 H   0  0  0  0  0  0  0  0  0  0  0  0
  134.5564   70.1081  225.5174 H   0  0  0  0  0  0  0  0  0  0  0  0
  133.1418   68.3997  224.4173 H   0  0  0  0  0  0  0  0  0  0  0  0
  136.3626   67.3388  221.9040 H   0  0  0  0  0  0  0  0  0  0  0  0
  141.1390   75.0657  221.3055 H   0  0  0  0  0  0  0  0  0  0  0  0
  143.3104   75.1453  220.1724 H   0  0  0  0  0  0  0  0  0  0  0  0
  1  2  3  0
  2  3  1  0
  3  4  2  0
  4  5  1  0
  5  6  2  0
  6  7  1  0
  7  8  2  0
  8  9  1  0
  9 10  2  0
 10 11  1  0
 11 12  2  0
 12 13  1  0
 13 14  2  0
 14 15  1  0
 15 16  2  0
 16 17  1  0
 17 18  2  0
 17 19  1  0
 19 20  1  0
 20 21  1  0
 21 22  2  0
 22 23  1  0
 23 24  2  0
 24 25  1  0
 25 26  2  0
  6 27  1  0
 27 28  2  0
 28  3  1  0
 19  9  1  0
 26 21  1  0
 16 11  1  0
  4 29  1  0
  5 30  1  0
  7 31  1  0
  8 32  1  0
 12 33  1  0
 13 34  1  0
 14 35  1  0
 15 36  1  0
 20 37  1  0
 20 38  1  0
 22 39  1  0
 23 40  1  0
 24 41  1  0
 26 42  1  0
 27 43  1  0
 28 44  1  0
M  END
>  <smiles>  (30) 
N#Cc1ccc(/C=C/c2nc3ccccc3c(=O)n2Cc2cccnc2)cc1

>  <score_type>  (30) 
oracle

>  <origin>  (30) 
autodockgpu

>  <m_score__min__energy>  (30) 
-8.8599999999999994

>  <m_primary>  (30) 
energy

>  <rmsd>  (30) 
11.600919159236817

>  <m_score__min__rmsd>  (30) 
11.600919159236817

>  <meeko>  (30) 
{"free_energy": -8.24, "intermolecular_energy": -10.03, "internal_energy": -1.18, "cluster_size": 33, "cluster_id": 2, "rank_in_cluster": 11}

>  <energy>  (30) 
-8.18

>  <cluster_rmsd>  (30) 
0.62

>  <cluster>  (30) 
2

$$$$

     RDKit          3D

 44 47  0  0  0  0  0  0  0  0999 V2000
  141.2510   68.0610  228.8290 N   0  0  0  0  0  0  0  0  0  0  0  0
  141.0010   68.7230  227.9130 C   0  0  0  0  0  0  0  0  0  0  0  0
  140.6800   69.5310  226.7730 C   0  0  0  0  0  0  0  0  0  0  0  0
  139.9350   68.9660  225.7460 C   0  0  0  0  0  0  0  0  0  0  0  0
  139.6020   69.7210  224.6210 C   0  0  0  0  0  0  0  0  0  0  0  0
  139.9910   71.0360  224.4770 C   0  0  0  0  0  0  0  0  0  0  0  0
  139.6620   71.8510  223.3160 C   0  0  0  0  0  0  0  0  0  0  0  0
  140.4280   71.9770  222.2570 C   0  0  0  0  0  0  0  0  0  0  0  0
  140.7990   73.3060  221.7640 C   0  0  0  0  0  0  0  0  0  0  0  0
  140.1050   74.3420  222.2930 N   0  0  0  0  0  0  0  0  0  0  0  0
  140.3130   75.6160  221.9240 C   0  0  0  0  0  0  0  0  0  0  0  0
  139.5870   76.6500  222.4840 C   0  0  0  0  0  0  0  0  0  0  0  0
  139.8660   77.9270  222.0450 C   0  0  0  0  0  0  0  0  0  0  0  0
  140.8170   78.1720  221.0980 C   0  0  0  0  0  0  0  0  0  0  0  0
  141.5260   77.1180  220.5590 C   0  0  0  0  0  0  0  0  0  0  0  0
  141.2860   75.8230  220.9620 C   0  0  0  0  0  0  0  0  0  0  0  0
  141.9800   74.7520  220.4400 C   0  0  0  0  0  0  0  0  0  0  0  0
  142.8510   75.0380  219.5640 O   0  0  0  0  0  0  0  0  0  0  0  0
  141.7520   73.4690  220.8300 N   0  0  0  0  0  0  0  0  0  0  0  0
  142.5040   72.3720  220.2530 C   0  0  0  0  0  0  0  0  0  0  0  0
  143.9190   72.7060  220.0880 C   0  0  0  0  0  0  0  0  0  0  0  0
  144.6100   73.1740  221.2130 C   0  0  0  0  0  0  0  0  0  0  0  0
  145.9630   73.5060  221.1250 C   0  0  0  0  0  0  0  0  0  0  0  0
  146.6300   73.3790  219.9370 C   0  0  0  0  0  0  0  0  0  0  0  0
  145.9630   72.9320  218.8700 N   0  0  0  0  0  0  0  0  0  0  0  0
  144.6560   72.6070  218.9420 C   0  0  0  0  0  0  0  0  0  0  0  0
  140.7330   71.5690  225.5190 C   0  0  0  0  0  0  0  0  0  0  0  0
  141.0750   70.8450  226.6420 C   0  0  0  0  0  0  0  0  0  0  0  0
  139.6061   67.9189  225.8199 H   0  0  0  0  0  0  0  0  0  0  0  0
  139.0093   69.2515  223.8221 H   0  0  0  0  0  0  0  0  0  0  0  0
  138.7076   72.3979  223.3269 H   0  0  0  0  0  0  0  0  0  0  0  0
  140.7934   71.0793  221.7368 H   0  0  0  0  0  0  0  0  0  0  0  0
  138.8185   76.4621  223.2482 H   0  0  0  0  0  0  0  0  0  0  0  0
  139.3057   78.7725  222.4706 H   0  0  0  0  0  0  0  0  0  0  0  0
  141.0170   79.2017  220.7667 H   0  0  0  0  0  0  0  0  0  0  0  0
  142.2940   77.3149  219.7965 H   0  0  0  0  0  0  0  0  0  0  0  0
  142.4202   71.4970  220.9144 H   0  0  0  0  0  0  0  0  0  0  0  0
  142.0862   72.1593  219.2579 H   0  0  0  0  0  0  0  0  0  0  0  0
  144.0828   73.2807  222.1725 H   0  0  0  0  0  0  0  0  0  0  0  0
  146.4957   73.8716  222.0153 H   0  0  0  0  0  0  0  0  0  0  0  0
  147.6959   73.6403  219.8623 H   0  0  0  0  0  0  0  0  0  0  0  0
  144.1578   72.2435  218.0311 H   0  0  0  0  0  0  0  0  0  0  0  0
  141.0638   72.6156  225.4473 H   0  0  0  0  0  0  0  0  0  0  0  0
  141.6670   71.3195  227.4385 H   0  0  0  0  0  0  0  0  0  0  0  0
  1  2  3  0
  2  3  1  0
  3  4  2  0
  4  5  1  0
  5  6  2  0
  6  7  1  0
  7  8  2  0
  8  9  1  0
  9 10  2  0
 10 11  1  0
 11 12  2  0
 12 13  1  0
 13 14  2  0
 14 15  1  0
 15 16  2  0
 16 17  1  0
 17 18  2  0
 17 19  1  0
 19 20  1  0
 20 21  1  0
 21 22  2  0
 22 23  1  0
 23 24  2  0
 24 25  1  0
 25 26  2  0
  6 27  1  0
 27 28  2  0
 28  3  1  0
 19  9  1  0
 26 21  1  0
 16 11  1  0
  4 29  1  0
  5 30  1  0
  7 31  1  0
  8 32  1  0
 12 33  1  0
 13 34  1  0
 14 35  1  0
 15 36  1  0
 20 37  1  0
 20 38  1  0
 22 39  1  0
 23 40  1  0
 24 41  1  0
 26 42  1  0
 27 43  1  0
 28 44  1  0
M  END
>  <smiles>  (31) 
N#Cc1ccc(/C=C/c2nc3ccccc3c(=O)n2Cc2cccnc2)cc1

>  <score_type>  (31) 
oracle

>  <origin>  (31) 
autodockgpu

>  <m_score__min__energy>  (31) 
-8.8599999999999994

>  <m_primary>  (31) 
energy

>  <rmsd>  (31) 
5.975906931366285

>  <m_score__min__rmsd>  (31) 
5.975906931366285

>  <meeko>  (31) 
{"free_energy": -8.86, "intermolecular_energy": -10.65, "internal_energy": -0.84, "cluster_size": 10, "cluster_id": 1, "rank_in_cluster": 1}

>  <energy>  (31) 
-8.16

>  <cluster_rmsd>  (31) 
0.54

>  <cluster>  (31) 
2

$$$$

     RDKit          3D

 44 47  0  0  0  0  0  0  0  0999 V2000
  145.9620   73.0110  219.1880 N   0  0  0  0  0  0  0  0  0  0  0  0
  144.9360   72.9950  219.7220 C   0  0  0  0  0  0  0  0  0  0  0  0
  143.6610   72.9600  220.3770 C   0  0  0  0  0  0  0  0  0  0  0  0
  142.9740   74.1530  220.5570 C   0  0  0  0  0  0  0  0  0  0  0  0
  141.7300   74.1600  221.1890 C   0  0  0  0  0  0  0  0  0  0  0  0
  141.1360   73.0060  221.6550 C   0  0  0  0  0  0  0  0  0  0  0  0
  139.8410   72.9790  222.3200 C   0  0  0  0  0  0  0  0  0  0  0  0
  139.1600   71.8850  222.5740 C   0  0  0  0  0  0  0  0  0  0  0  0
  139.4080   71.1260  223.8020 C   0  0  0  0  0  0  0  0  0  0  0  0
  140.0810   71.7870  224.7740 N   0  0  0  0  0  0  0  0  0  0  0  0
  140.4050   71.2190  225.9470 C   0  0  0  0  0  0  0  0  0  0  0  0
  141.0920   71.9220  226.9160 C   0  0  0  0  0  0  0  0  0  0  0  0
  141.3840   71.2580  228.0890 C   0  0  0  0  0  0  0  0  0  0  0  0
  141.0140   69.9620  228.2960 C   0  0  0  0  0  0  0  0  0  0  0  0
  140.3270   69.2870  227.3070 C   0  0  0  0  0  0  0  0  0  0  0  0
  140.0120   69.9030  226.1170 C   0  0  0  0  0  0  0  0  0  0  0  0
  139.3260   69.2510  225.1130 C   0  0  0  0  0  0  0  0  0  0  0  0
  139.0080   68.0480  225.3580 O   0  0  0  0  0  0  0  0  0  0  0  0
  139.0080   69.8490  223.9330 N   0  0  0  0  0  0  0  0  0  0  0  0
  138.2870   69.1260  222.9040 C   0  0  0  0  0  0  0  0  0  0  0  0
  136.8920   68.8910  223.2760 C   0  0  0  0  0  0  0  0  0  0  0  0
  136.3590   69.6660  224.3140 C   0  0  0  0  0  0  0  0  0  0  0  0
  135.0320   69.4950  224.7150 C   0  0  0  0  0  0  0  0  0  0  0  0
  134.2380   68.5670  224.0980 C   0  0  0  0  0  0  0  0  0  0  0  0
  134.7550   67.8330  223.1100 N   0  0  0  0  0  0  0  0  0  0  0  0
  136.0350   67.9880  222.7130 C   0  0  0  0  0  0  0  0  0  0  0  0
  141.8480   71.8330  221.4600 C   0  0  0  0  0  0  0  0  0  0  0  0
  143.0790   71.7990  220.8380 C   0  0  0  0  0  0  0  0  0  0  0  0
  143.4122   75.0966  220.1999 H   0  0  0  0  0  0  0  0  0  0  0  0
  141.2056   75.1181  221.3199 H   0  0  0  0  0  0  0  0  0  0  0  0
  139.4036   73.9393  222.6305 H   0  0  0  0  0  0  0  0  0  0  0  0
  138.3989   71.5367  221.8603 H   0  0  0  0  0  0  0  0  0  0  0  0
  141.3940   72.9681  226.7592 H   0  0  0  0  0  0  0  0  0  0  0  0
  141.9316   71.7897  228.8811 H   0  0  0  0  0  0  0  0  0  0  0  0
  141.2608   69.4589  229.2426 H   0  0  0  0  0  0  0  0  0  0  0  0
  140.0269   68.2417  227.4723 H   0  0  0  0  0  0  0  0  0  0  0  0
  138.3127   69.7122  221.9736 H   0  0  0  0  0  0  0  0  0  0  0  0
  138.7730   68.1482  222.7712 H   0  0  0  0  0  0  0  0  0  0  0  0
  136.9896   70.4141  224.8166 H   0  0  0  0  0  0  0  0  0  0  0  0
  134.6233   70.1094  225.5308 H   0  0  0  0  0  0  0  0  0  0  0  0
  133.1925   68.4283  224.4105 H   0  0  0  0  0  0  0  0  0  0  0  0
  136.4078   67.3551  221.8942 H   0  0  0  0  0  0  0  0  0  0  0  0
  141.4126   70.8879  221.8167 H   0  0  0  0  0  0  0  0  0  0  0  0
  143.5995   70.8386  220.7091 H   0  0  0  0  0  0  0  0  0  0  0  0
  1  2  3  0
  2  3  1  0
  3  4  2  0
  4  5  1  0
  5  6  2  0
  6  7  1  0
  7  8  2  0
  8  9  1  0
  9 10  2  0
 10 11  1  0
 11 12  2  0
 12 13  1  0
 13 14  2  0
 14 15  1  0
 15 16  2  0
 16 17  1  0
 17 18  2  0
 17 19  1  0
 19 20  1  0
 20 21  1  0
 21 22  2  0
 22 23  1  0
 23 24  2  0
 24 25  1  0
 25 26  2  0
  6 27  1  0
 27 28  2  0
 28  3  1  0
 19  9  1  0
 26 21  1  0
 16 11  1  0
  4 29  1  0
  5 30  1  0
  7 31  1  0
  8 32  1  0
 12 33  1  0
 13 34  1  0
 14 35  1  0
 15 36  1  0
 20 37  1  0
 20 38  1  0
 22 39  1  0
 23 40  1  0
 24 41  1  0
 26 42  1  0
 27 43  1  0
 28 44  1  0
M  END
>  <smiles>  (32) 
N#Cc1ccc(/C=C/c2nc3ccccc3c(=O)n2Cc2cccnc2)cc1

>  <score_type>  (32) 
oracle

>  <origin>  (32) 
autodockgpu

>  <m_score__min__energy>  (32) 
-8.8599999999999994

>  <m_primary>  (32) 
energy

>  <rmsd>  (32) 
11.586356365577107

>  <m_score__min__rmsd>  (32) 
11.586356365577107

>  <meeko>  (32) 
{"free_energy": -8.22, "intermolecular_energy": -10.01, "internal_energy": -1.2, "cluster_size": 33, "cluster_id": 2, "rank_in_cluster": 12}

>  <energy>  (32) 
-8.02

>  <cluster_rmsd>  (32) 
0.52

>  <cluster>  (32) 
2

$$$$

     RDKit          3D

 44 47  0  0  0  0  0  0  0  0999 V2000
  145.9510   72.9660  219.3320 N   0  0  0  0  0  0  0  0  0  0  0  0
  144.9090   72.9180  219.8330 C   0  0  0  0  0  0  0  0  0  0  0  0
  143.6120   72.8500  220.4400 C   0  0  0  0  0  0  0  0  0  0  0  0
  142.9030   74.0290  220.6280 C   0  0  0  0  0  0  0  0  0  0  0  0
  141.6380   74.0030  221.2160 C   0  0  0  0  0  0  0  0  0  0  0  0
  141.0440   72.8300  221.6290 C   0  0  0  0  0  0  0  0  0  0  0  0
  139.7260   72.7680  222.2460 C   0  0  0  0  0  0  0  0  0  0  0  0
  139.0940   71.6550  222.5380 C   0  0  0  0  0  0  0  0  0  0  0  0
  139.3770   70.9480  223.7900 C   0  0  0  0  0  0  0  0  0  0  0  0
  140.0380   71.6640  224.7300 N   0  0  0  0  0  0  0  0  0  0  0  0
  140.3900   71.1480  225.9190 C   0  0  0  0  0  0  0  0  0  0  0  0
  141.0650   71.9060  226.8560 C   0  0  0  0  0  0  0  0  0  0  0  0
  141.3870   71.2930  228.0490 C   0  0  0  0  0  0  0  0  0  0  0  0
  141.0600   69.9950  228.3050 C   0  0  0  0  0  0  0  0  0  0  0  0
  140.3860   69.2640  227.3480 C   0  0  0  0  0  0  0  0  0  0  0  0
  140.0400   69.8280  226.1400 C   0  0  0  0  0  0  0  0  0  0  0  0
  139.3660   69.1190  225.1670 C   0  0  0  0  0  0  0  0  0  0  0  0
  139.0880   67.9170  225.4580 O   0  0  0  0  0  0  0  0  0  0  0  0
  139.0180   69.6650  223.9700 N   0  0  0  0  0  0  0  0  0  0  0  0
  138.3110   68.8840  222.9740 C   0  0  0  0  0  0  0  0  0  0  0  0
  136.9010   68.7050  223.3200 C   0  0  0  0  0  0  0  0  0  0  0  0
  136.3930   69.4630  224.3830 C   0  0  0  0  0  0  0  0  0  0  0  0
  135.0540   69.3440  224.7620 C   0  0  0  0  0  0  0  0  0  0  0  0
  134.2230   68.4830  224.0980 C   0  0  0  0  0  0  0  0  0  0  0  0
  134.7160   67.7650  223.0870 N   0  0  0  0  0  0  0  0  0  0  0  0
  136.0070   67.8710  222.7110 C   0  0  0  0  0  0  0  0  0  0  0  0
  141.7770   71.6710  221.4270 C   0  0  0  0  0  0  0  0  0  0  0  0
  143.0290   71.6690  220.8490 C   0  0  0  0  0  0  0  0  0  0  0  0
  143.3405   74.9875  220.3120 H   0  0  0  0  0  0  0  0  0  0  0  0
  141.0966   74.9505  221.3546 H   0  0  0  0  0  0  0  0  0  0  0  0
  139.2261   73.7186  222.4835 H   0  0  0  0  0  0  0  0  0  0  0  0
  138.3474   71.2507  221.8386 H   0  0  0  0  0  0  0  0  0  0  0  0
  141.3344   72.9542  226.6591 H   0  0  0  0  0  0  0  0  0  0  0  0
  141.9239   71.8692  228.8169 H   0  0  0  0  0  0  0  0  0  0  0  0
  141.3310   69.5339  229.2662 H   0  0  0  0  0  0  0  0  0  0  0  0
  140.1214   68.2161  227.5528 H   0  0  0  0  0  0  0  0  0  0  0  0
  138.3764   69.4006  222.0051 H   0  0  0  0  0  0  0  0  0  0  0  0
  138.7788   67.8896  222.9261 H   0  0  0  0  0  0  0  0  0  0  0  0
  137.0536   70.1571  224.9232 H   0  0  0  0  0  0  0  0  0  0  0  0
  134.6658   69.9448  225.5976 H   0  0  0  0  0  0  0  0  0  0  0  0
  133.1677   68.3846  224.3924 H   0  0  0  0  0  0  0  0  0  0  0  0
  136.3580   67.2540  221.8706 H   0  0  0  0  0  0  0  0  0  0  0  0
  141.3411   70.7112  221.7414 H   0  0  0  0  0  0  0  0  0  0  0  0
  143.5664   70.7189  220.7132 H   0  0  0  0  0  0  0  0  0  0  0  0
  1  2  3  0
  2  3  1  0
  3  4  2  0
  4  5  1  0
  5  6  2  0
  6  7  1  0
  7  8  2  0
  8  9  1  0
  9 10  2  0
 10 11  1  0
 11 12  2  0
 12 13  1  0
 13 14  2  0
 14 15  1  0
 15 16  2  0
 16 17  1  0
 17 18  2  0
 17 19  1  0
 19 20  1  0
 20 21  1  0
 21 22  2  0
 22 23  1  0
 23 24  2  0
 24 25  1  0
 25 26  2  0
  6 27  1  0
 27 28  2  0
 28  3  1  0
 19  9  1  0
 26 21  1  0
 16 11  1  0
  4 29  1  0
  5 30  1  0
  7 31  1  0
  8 32  1  0
 12 33  1  0
 13 34  1  0
 14 35  1  0
 15 36  1  0
 20 37  1  0
 20 38  1  0
 22 39  1  0
 23 40  1  0
 24 41  1  0
 26 42  1  0
 27 43  1  0
 28 44  1  0
M  END
>  <smiles>  (33) 
N#Cc1ccc(/C=C/c2nc3ccccc3c(=O)n2Cc2cccnc2)cc1

>  <score_type>  (33) 
oracle

>  <origin>  (33) 
autodockgpu

>  <m_score__min__energy>  (33) 
-8.8599999999999994

>  <m_primary>  (33) 
energy

>  <rmsd>  (33) 
11.653439719895973

>  <m_score__min__rmsd>  (33) 
11.653439719895973

>  <meeko>  (33) 
{"free_energy": -8.2, "intermolecular_energy": -9.99, "internal_energy": -1.21, "cluster_size": 33, "cluster_id": 2, "rank_in_cluster": 17}

>  <energy>  (33) 
-7.99

>  <cluster_rmsd>  (33) 
0.57

>  <cluster>  (33) 
2

$$$$

     RDKit          3D

 44 47  0  0  0  0  0  0  0  0999 V2000
  141.4680   78.7260  222.0650 N   0  0  0  0  0  0  0  0  0  0  0  0
  141.0600   77.6450  222.0200 C   0  0  0  0  0  0  0  0  0  0  0  0
  140.5670   76.2990  221.9730 C   0  0  0  0  0  0  0  0  0  0  0  0
  141.4360   75.2860  221.5910 C   0  0  0  0  0  0  0  0  0  0  0  0
  140.9930   73.9640  221.5340 C   0  0  0  0  0  0  0  0  0  0  0  0
  139.6980   73.6090  221.8470 C   0  0  0  0  0  0  0  0  0  0  0  0
  139.2050   72.2390  221.7970 C   0  0  0  0  0  0  0  0  0  0  0  0
  139.9250   71.1800  222.0840 C   0  0  0  0  0  0  0  0  0  0  0  0
  139.9200   70.6250  223.4400 C   0  0  0  0  0  0  0  0  0  0  0  0
  140.4230   71.4320  224.4050 N   0  0  0  0  0  0  0  0  0  0  0  0
  140.5080   71.0560  225.6920 C   0  0  0  0  0  0  0  0  0  0  0  0
  141.0270   71.9030  226.6510 C   0  0  0  0  0  0  0  0  0  0  0  0
  141.0780   71.4340  227.9470 C   0  0  0  0  0  0  0  0  0  0  0  0
  140.6370   70.1870  228.2790 C   0  0  0  0  0  0  0  0  0  0  0  0
  140.1240   69.3640  227.2980 C   0  0  0  0  0  0  0  0  0  0  0  0
  140.0510   69.7840  225.9880 C   0  0  0  0  0  0  0  0  0  0  0  0
  139.5430   68.9820  224.9880 C   0  0  0  0  0  0  0  0  0  0  0  0
  139.1490   67.8330  225.3540 O   0  0  0  0  0  0  0  0  0  0  0  0
  139.4650   69.3850  223.6910 N   0  0  0  0  0  0  0  0  0  0  0  0
  138.9240   68.5090  222.6710 C   0  0  0  0  0  0  0  0  0  0  0  0
  137.4800   68.3290  222.8140 C   0  0  0  0  0  0  0  0  0  0  0  0
  136.8390   67.4770  221.9060 C   0  0  0  0  0  0  0  0  0  0  0  0
  135.4620   67.2580  221.9910 C   0  0  0  0  0  0  0  0  0  0  0  0
  134.7230   67.8750  222.9630 C   0  0  0  0  0  0  0  0  0  0  0  0
  135.3420   68.6860  223.8240 N   0  0  0  0  0  0  0  0  0  0  0  0
  136.6720   68.9050  223.7530 C   0  0  0  0  0  0  0  0  0  0  0  0
  138.8570   74.6430  222.2240 C   0  0  0  0  0  0  0  0  0  0  0  0
  139.2690   75.9580  222.2890 C   0  0  0  0  0  0  0  0  0  0  0  0
  142.4778   75.5264  221.3323 H   0  0  0  0  0  0  0  0  0  0  0  0
  141.7006   73.1789  221.2292 H   0  0  0  0  0  0  0  0  0  0  0  0
  138.1581   72.0815  221.4984 H   0  0  0  0  0  0  0  0  0  0  0  0
  140.5361   70.7061  221.3017 H   0  0  0  0  0  0  0  0  0  0  0  0
  141.3850   72.9103  226.3920 H   0  0  0  0  0  0  0  0  0  0  0  0
  141.4859   72.0841  228.7350 H   0  0  0  0  0  0  0  0  0  0  0  0
  140.6900   69.8399  229.3215 H   0  0  0  0  0  0  0  0  0  0  0  0
  139.7682   68.3581  227.5655 H   0  0  0  0  0  0  0  0  0  0  0  0
  139.1316   68.9443  221.6823 H   0  0  0  0  0  0  0  0  0  0  0  0
  139.4019   67.5243  222.7802 H   0  0  0  0  0  0  0  0  0  0  0  0
  137.4240   66.9766  221.1203 H   0  0  0  0  0  0  0  0  0  0  0  0
  134.9694   66.5861  221.2728 H   0  0  0  0  0  0  0  0  0  0  0  0
  133.6384   67.7059  223.0338 H   0  0  0  0  0  0  0  0  0  0  0  0
  137.1290   69.5824  224.4894 H   0  0  0  0  0  0  0  0  0  0  0  0
  137.8147   74.4052  222.4830 H   0  0  0  0  0  0  0  0  0  0  0  0
  138.5576   76.7392  222.5948 H   0  0  0  0  0  0  0  0  0  0  0  0
  1  2  3  0
  2  3  1  0
  3  4  2  0
  4  5  1  0
  5  6  2  0
  6  7  1  0
  7  8  2  0
  8  9  1  0
  9 10  2  0
 10 11  1  0
 11 12  2  0
 12 13  1  0
 13 14  2  0
 14 15  1  0
 15 16  2  0
 16 17  1  0
 17 18  2  0
 17 19  1  0
 19 20  1  0
 20 21  1  0
 21 22  2  0
 22 23  1  0
 23 24  2  0
 24 25  1  0
 25 26  2  0
  6 27  1  0
 27 28  2  0
 28  3  1  0
 19  9  1  0
 26 21  1  0
 16 11  1  0
  4 29  1  0
  5 30  1  0
  7 31  1  0
  8 32  1  0
 12 33  1  0
 13 34  1  0
 14 35  1  0
 15 36  1  0
 20 37  1  0
 20 38  1  0
 22 39  1  0
 23 40  1  0
 24 41  1  0
 26 42  1  0
 27 43  1  0
 28 44  1  0
M  END
>  <smiles>  (34) 
N#Cc1ccc(/C=C/c2nc3ccccc3c(=O)n2Cc2cccnc2)cc1

>  <score_type>  (34) 
oracle

>  <origin>  (34) 
autodockgpu

>  <m_score__min__energy>  (34) 
-8.8599999999999994

>  <m_primary>  (34) 
energy

>  <rmsd>  (34) 
11.542174680453005

>  <m_score__min__rmsd>  (34) 
11.542174680453005

>  <meeko>  (34) 
{"free_energy": -7.62, "intermolecular_energy": -9.41, "internal_energy": -1.15, "cluster_size": 2, "cluster_id": 3, "rank_in_cluster": 1}

>  <energy>  (34) 
-7.92

>  <cluster_rmsd>  (34) 
0.62

>  <cluster>  (34) 
2

$$$$

     RDKit          3D

 44 47  0  0  0  0  0  0  0  0999 V2000
  146.0240   72.9680  219.1030 N   0  0  0  0  0  0  0  0  0  0  0  0
  144.9890   72.9320  219.6180 C   0  0  0  0  0  0  0  0  0  0  0  0
  143.7140   72.8920  220.2730 C   0  0  0  0  0  0  0  0  0  0  0  0
  143.1900   71.6580  220.6320 C   0  0  0  0  0  0  0  0  0  0  0  0
  141.9520   71.5790  221.2720 C   0  0  0  0  0  0  0  0  0  0  0  0
  141.2060   72.6990  221.5700 C   0  0  0  0  0  0  0  0  0  0  0  0
  139.9110   72.6510  222.2340 C   0  0  0  0  0  0  0  0  0  0  0  0
  139.2530   71.5450  222.4990 C   0  0  0  0  0  0  0  0  0  0  0  0
  139.4860   70.8250  223.7530 C   0  0  0  0  0  0  0  0  0  0  0  0
  140.0830   71.5410  224.7370 N   0  0  0  0  0  0  0  0  0  0  0  0
  140.3840   71.0140  225.9350 C   0  0  0  0  0  0  0  0  0  0  0  0
  140.9930   71.7710  226.9160 C   0  0  0  0  0  0  0  0  0  0  0  0
  141.2670   71.1480  228.1150 C   0  0  0  0  0  0  0  0  0  0  0  0
  140.9550   69.8390  228.3350 C   0  0  0  0  0  0  0  0  0  0  0  0
  140.3470   69.1090  227.3350 C   0  0  0  0  0  0  0  0  0  0  0  0
  140.0520   69.6830  226.1180 C   0  0  0  0  0  0  0  0  0  0  0  0
  139.4440   68.9760  225.1020 C   0  0  0  0  0  0  0  0  0  0  0  0
  139.1780   67.7640  225.3610 O   0  0  0  0  0  0  0  0  0  0  0  0
  139.1470   69.5320  223.8970 N   0  0  0  0  0  0  0  0  0  0  0  0
  138.5090   68.7520  222.8550 C   0  0  0  0  0  0  0  0  0  0  0  0
  137.0760   68.5840  223.0970 C   0  0  0  0  0  0  0  0  0  0  0  0
  136.4980   69.3490  224.1180 C   0  0  0  0  0  0  0  0  0  0  0  0
  135.1340   69.2410  224.3970 C   0  0  0  0  0  0  0  0  0  0  0  0
  134.3470   68.3840  223.6770 C   0  0  0  0  0  0  0  0  0  0  0  0
  134.9070   67.6580  222.7070 N   0  0  0  0  0  0  0  0  0  0  0  0
  136.2230   67.7540  222.4270 C   0  0  0  0  0  0  0  0  0  0  0  0
  141.7570   73.9150  221.1980 C   0  0  0  0  0  0  0  0  0  0  0  0
  142.9780   74.0210  220.5650 C   0  0  0  0  0  0  0  0  0  0  0  0
  143.7524   70.7387  220.4114 H   0  0  0  0  0  0  0  0  0  0  0  0
  141.5585   70.5895  221.5478 H   0  0  0  0  0  0  0  0  0  0  0  0
  139.4527   73.6049  222.5340 H   0  0  0  0  0  0  0  0  0  0  0  0
  138.5222   71.1572  221.7741 H   0  0  0  0  0  0  0  0  0  0  0  0
  141.2490   72.8275  226.7479 H   0  0  0  0  0  0  0  0  0  0  0  0
  141.7514   71.7237  228.9175 H   0  0  0  0  0  0  0  0  0  0  0  0
  141.1863   69.3689  229.3022 H   0  0  0  0  0  0  0  0  0  0  0  0
  140.0940   68.0532  227.5119 H   0  0  0  0  0  0  0  0  0  0  0  0
  138.6490   69.2642  221.8916 H   0  0  0  0  0  0  0  0  0  0  0  0
  138.9717   67.7541  222.8455 H   0  0  0  0  0  0  0  0  0  0  0  0
  137.1226   70.0394  224.7039 H   0  0  0  0  0  0  0  0  0  0  0  0
  134.6900   69.8480  225.1997 H   0  0  0  0  0  0  0  0  0  0  0  0
  133.2722   68.2950  223.8937 H   0  0  0  0  0  0  0  0  0  0  0  0
  136.6304   67.1314  221.6168 H   0  0  0  0  0  0  0  0  0  0  0  0
  141.1963   74.8357  221.4170 H   0  0  0  0  0  0  0  0  0  0  0  0
  143.3672   75.0128  220.2913 H   0  0  0  0  0  0  0  0  0  0  0  0
  1  2  3  0
  2  3  1  0
  3  4  2  0
  4  5  1  0
  5  6  2  0
  6  7  1  0
  7  8  2  0
  8  9  1  0
  9 10  2  0
 10 11  1  0
 11 12  2  0
 12 13  1  0
 13 14  2  0
 14 15  1  0
 15 16  2  0
 16 17  1  0
 17 18  2  0
 17 19  1  0
 19 20  1  0
 20 21  1  0
 21 22  2  0
 22 23  1  0
 23 24  2  0
 24 25  1  0
 25 26  2  0
  6 27  1  0
 27 28  2  0
 28  3  1  0
 19  9  1  0
 26 21  1  0
 16 11  1  0
  4 29  1  0
  5 30  1  0
  7 31  1  0
  8 32  1  0
 12 33  1  0
 13 34  1  0
 14 35  1  0
 15 36  1  0
 20 37  1  0
 20 38  1  0
 22 39  1  0
 23 40  1  0
 24 41  1  0
 26 42  1  0
 27 43  1  0
 28 44  1  0
M  END
>  <smiles>  (35) 
N#Cc1ccc(/C=C/c2nc3ccccc3c(=O)n2Cc2cccnc2)cc1

>  <score_type>  (35) 
oracle

>  <origin>  (35) 
autodockgpu

>  <m_score__min__energy>  (35) 
-8.8599999999999994

>  <m_primary>  (35) 
energy

>  <rmsd>  (35) 
11.668491783101684

>  <m_score__min__rmsd>  (35) 
11.668491783101684

>  <meeko>  (35) 
{"free_energy": -8.19, "intermolecular_energy": -9.98, "internal_energy": -1.19, "cluster_size": 33, "cluster_id": 2, "rank_in_cluster": 18}

>  <energy>  (35) 
-7.91

>  <cluster_rmsd>  (35) 
0.75

>  <cluster>  (35) 
2

$$$$

     RDKit          3D

 44 47  0  0  0  0  0  0  0  0999 V2000
  146.0080   73.0120  219.2720 N   0  0  0  0  0  0  0  0  0  0  0  0
  144.9670   72.9790  219.7740 C   0  0  0  0  0  0  0  0  0  0  0  0
  143.6690   72.9440  220.3830 C   0  0  0  0  0  0  0  0  0  0  0  0
  142.9680   74.1350  220.5240 C   0  0  0  0  0  0  0  0  0  0  0  0
  141.7020   74.1410  221.1100 C   0  0  0  0  0  0  0  0  0  0  0  0
  141.0990   72.9890  221.5690 C   0  0  0  0  0  0  0  0  0  0  0  0
  139.7810   72.9620  222.1870 C   0  0  0  0  0  0  0  0  0  0  0  0
  139.0970   71.8670  222.4280 C   0  0  0  0  0  0  0  0  0  0  0  0
  139.3290   71.1030  223.6560 C   0  0  0  0  0  0  0  0  0  0  0  0
  140.0350   71.7420  224.6190 N   0  0  0  0  0  0  0  0  0  0  0  0
  140.3500   71.1650  225.7900 C   0  0  0  0  0  0  0  0  0  0  0  0
  141.0720   71.8460  226.7510 C   0  0  0  0  0  0  0  0  0  0  0  0
  141.3510   71.1750  227.9230 C   0  0  0  0  0  0  0  0  0  0  0  0
  140.9360   69.8940  228.1370 C   0  0  0  0  0  0  0  0  0  0  0  0
  140.2160   69.2410  227.1570 C   0  0  0  0  0  0  0  0  0  0  0  0
  139.9110   69.8650  225.9680 C   0  0  0  0  0  0  0  0  0  0  0  0
  139.1930   69.2360  224.9730 C   0  0  0  0  0  0  0  0  0  0  0  0
  138.8340   68.0460  225.2250 O   0  0  0  0  0  0  0  0  0  0  0  0
  138.8850   69.8410  223.7950 N   0  0  0  0  0  0  0  0  0  0  0  0
  138.1290   69.1420  222.7750 C   0  0  0  0  0  0  0  0  0  0  0  0
  138.9890   68.3200  221.9230 C   0  0  0  0  0  0  0  0  0  0  0  0
  139.7500   68.9750  220.9460 C   0  0  0  0  0  0  0  0  0  0  0  0
  140.5950   68.2490  220.1040 C   0  0  0  0  0  0  0  0  0  0  0  0
  140.6880   66.8890  220.2230 C   0  0  0  0  0  0  0  0  0  0  0  0
  139.9590   66.2740  221.1570 N   0  0  0  0  0  0  0  0  0  0  0  0
  139.1390   66.9630  221.9770 C   0  0  0  0  0  0  0  0  0  0  0  0
  141.8250   71.8180  221.4140 C   0  0  0  0  0  0  0  0  0  0  0  0
  143.0770   71.7850  220.8380 C   0  0  0  0  0  0  0  0  0  0  0  0
  143.4131   75.0774  220.1721 H   0  0  0  0  0  0  0  0  0  0  0  0
  141.1668   75.0969  221.2092 H   0  0  0  0  0  0  0  0  0  0  0  0
  139.3277   73.9231  222.4711 H   0  0  0  0  0  0  0  0  0  0  0  0
  138.3452   71.5215  221.7031 H   0  0  0  0  0  0  0  0  0  0  0  0
  141.4101   72.8800  226.5882 H   0  0  0  0  0  0  0  0  0  0  0  0
  141.9252   71.6883  228.7083 H   0  0  0  0  0  0  0  0  0  0  0  0
  141.1731   69.3851  229.0829 H   0  0  0  0  0  0  0  0  0  0  0  0
  139.8811   68.2073  227.3283 H   0  0  0  0  0  0  0  0  0  0  0  0
  137.3884   68.4924  223.2643 H   0  0  0  0  0  0  0  0  0  0  0  0
  137.6394   69.8943  222.1391 H   0  0  0  0  0  0  0  0  0  0  0  0
  139.6815   70.0679  220.8415 H   0  0  0  0  0  0  0  0  0  0  0  0
  141.1891   68.7732  219.3410 H   0  0  0  0  0  0  0  0  0  0  0  0
  141.3514   66.3130  219.5611 H   0  0  0  0  0  0  0  0  0  0  0  0
  138.5614   66.4037  222.7277 H   0  0  0  0  0  0  0  0  0  0  0  0
  141.3828   70.8743  221.7659 H   0  0  0  0  0  0  0  0  0  0  0  0
  143.6078   70.8265  220.7406 H   0  0  0  0  0  0  0  0  0  0  0  0
  1  2  3  0
  2  3  1  0
  3  4  2  0
  4  5  1  0
  5  6  2  0
  6  7  1  0
  7  8  2  0
  8  9  1  0
  9 10  2  0
 10 11  1  0
 11 12  2  0
 12 13  1  0
 13 14  2  0
 14 15  1  0
 15 16  2  0
 16 17  1  0
 17 18  2  0
 17 19  1  0
 19 20  1  0
 20 21  1  0
 21 22  2  0
 22 23  1  0
 23 24  2  0
 24 25  1  0
 25 26  2  0
  6 27  1  0
 27 28  2  0
 28  3  1  0
 19  9  1  0
 26 21  1  0
 16 11  1  0
  4 29  1  0
  5 30  1  0
  7 31  1  0
  8 32  1  0
 12 33  1  0
 13 34  1  0
 14 35  1  0
 15 36  1  0
 20 37  1  0
 20 38  1  0
 22 39  1  0
 23 40  1  0
 24 41  1  0
 26 42  1  0
 27 43  1  0
 28 44  1  0
M  END
>  <smiles>  (36) 
N#Cc1ccc(/C=C/c2nc3ccccc3c(=O)n2Cc2cccnc2)cc1

>  <score_type>  (36) 
oracle

>  <origin>  (36) 
autodockgpu

>  <m_score__min__energy>  (36) 
-8.8599999999999994

>  <m_primary>  (36) 
energy

>  <rmsd>  (36) 
10.94173361438032

>  <m_score__min__rmsd>  (36) 
10.94173361438032

>  <meeko>  (36) 
{"free_energy": -7.75, "intermolecular_energy": -9.54, "internal_energy": -1.52, "cluster_size": 33, "cluster_id": 2, "rank_in_cluster": 30}

>  <energy>  (36) 
-7.86

>  <cluster_rmsd>  (36) 
1.75

>  <cluster>  (36) 
2

$$$$

     RDKit          3D

 44 47  0  0  0  0  0  0  0  0999 V2000
  140.9800   68.2170  228.9960 N   0  0  0  0  0  0  0  0  0  0  0  0
  140.7930   68.8210  228.0280 C   0  0  0  0  0  0  0  0  0  0  0  0
  140.5470   69.5600  226.8230 C   0  0  0  0  0  0  0  0  0  0  0  0
  139.8210   68.9540  225.8070 C   0  0  0  0  0  0  0  0  0  0  0  0
  139.5610   69.6420  224.6220 C   0  0  0  0  0  0  0  0  0  0  0  0
  140.0040   70.9290  224.4070 C   0  0  0  0  0  0  0  0  0  0  0  0
  139.7510   71.6740  223.1810 C   0  0  0  0  0  0  0  0  0  0  0  0
  140.6440   71.8830  222.2420 C   0  0  0  0  0  0  0  0  0  0  0  0
  140.8980   73.2400  221.7490 C   0  0  0  0  0  0  0  0  0  0  0  0
  140.1590   74.2190  222.3230 N   0  0  0  0  0  0  0  0  0  0  0  0
  140.2590   75.5090  221.9610 C   0  0  0  0  0  0  0  0  0  0  0  0
  139.4900   76.4830  222.5670 C   0  0  0  0  0  0  0  0  0  0  0  0
  139.6580   77.7810  222.1310 C   0  0  0  0  0  0  0  0  0  0  0  0
  140.5420   78.1010  221.1440 C   0  0  0  0  0  0  0  0  0  0  0  0
  141.2960   77.1050  220.5590 C   0  0  0  0  0  0  0  0  0  0  0  0
  141.1670   75.7930  220.9570 C   0  0  0  0  0  0  0  0  0  0  0  0
  141.9090   74.7780  220.3890 C   0  0  0  0  0  0  0  0  0  0  0  0
  142.7150   75.1330  219.4760 O   0  0  0  0  0  0  0  0  0  0  0  0
  141.7910   73.4790  220.7730 N   0  0  0  0  0  0  0  0  0  0  0  0
  142.5900   72.4430  220.1480 C   0  0  0  0  0  0  0  0  0  0  0  0
  144.0010   72.8170  220.0630 C   0  0  0  0  0  0  0  0  0  0  0  0
  144.6080   73.3240  221.2190 C   0  0  0  0  0  0  0  0  0  0  0  0
  145.9540   73.6950  221.2080 C   0  0  0  0  0  0  0  0  0  0  0  0
  146.6960   73.5690  220.0650 C   0  0  0  0  0  0  0  0  0  0  0  0
  146.1090   73.0860  218.9670 N   0  0  0  0  0  0  0  0  0  0  0  0
  144.8100   72.7230  218.9660 C   0  0  0  0  0  0  0  0  0  0  0  0
  140.7260   71.5060  225.4400 C   0  0  0  0  0  0  0  0  0  0  0  0
  140.9960   70.8480  226.6210 C   0  0  0  0  0  0  0  0  0  0  0  0
  139.4492   67.9269  225.9370 H   0  0  0  0  0  0  0  0  0  0  0  0
  138.9827   69.1402  223.8322 H   0  0  0  0  0  0  0  0  0  0  0  0
  138.7434   72.0895  223.0321 H   0  0  0  0  0  0  0  0  0  0  0  0
  141.2051   71.0349  221.8225 H   0  0  0  0  0  0  0  0  0  0  0  0
  138.7736   76.2343  223.3638 H   0  0  0  0  0  0  0  0  0  0  0  0
  139.0612   78.5811  222.5933 H   0  0  0  0  0  0  0  0  0  0  0  0
  140.6532   79.1452  220.8166 H   0  0  0  0  0  0  0  0  0  0  0  0
  142.0105   77.3624  219.7633 H   0  0  0  0  0  0  0  0  0  0  0  0
  142.5020   71.5204  220.7406 H   0  0  0  0  0  0  0  0  0  0  0  0
  142.2150   72.2953  219.1245 H   0  0  0  0  0  0  0  0  0  0  0  0
  144.0199   73.4307  222.1424 H   0  0  0  0  0  0  0  0  0  0  0  0
  146.4202   74.0905  222.1224 H   0  0  0  0  0  0  0  0  0  0  0  0
  147.7566   73.8603  220.0509 H   0  0  0  0  0  0  0  0  0  0  0  0
  144.3793   72.3307  218.0330 H   0  0  0  0  0  0  0  0  0  0  0  0
  141.0995   72.5327  225.3120 H   0  0  0  0  0  0  0  0  0  0  0  0
  141.5740   71.3543  227.4081 H   0  0  0  0  0  0  0  0  0  0  0  0
  1  2  3  0
  2  3  1  0
  3  4  2  0
  4  5  1  0
  5  6  2  0
  6  7  1  0
  7  8  2  0
  8  9  1  0
  9 10  2  0
 10 11  1  0
 11 12  2  0
 12 13  1  0
 13 14  2  0
 14 15  1  0
 15 16  2  0
 16 17  1  0
 17 18  2  0
 17 19  1  0
 19 20  1  0
 20 21  1  0
 21 22  2  0
 22 23  1  0
 23 24  2  0
 24 25  1  0
 25 26  2  0
  6 27  1  0
 27 28  2  0
 28  3  1  0
 19  9  1  0
 26 21  1  0
 16 11  1  0
  4 29  1  0
  5 30  1  0
  7 31  1  0
  8 32  1  0
 12 33  1  0
 13 34  1  0
 14 35  1  0
 15 36  1  0
 20 37  1  0
 20 38  1  0
 22 39  1  0
 23 40  1  0
 24 41  1  0
 26 42  1  0
 27 43  1  0
 28 44  1  0
M  END
>  <smiles>  (37) 
N#Cc1ccc(/C=C/c2nc3ccccc3c(=O)n2Cc2cccnc2)cc1

>  <score_type>  (37) 
oracle

>  <origin>  (37) 
autodockgpu

>  <m_score__min__energy>  (37) 
-8.8599999999999994

>  <m_primary>  (37) 
energy

>  <rmsd>  (37) 
6.002067480001653

>  <m_score__min__rmsd>  (37) 
6.002067480001653

>  <meeko>  (37) 
{"free_energy": -8.84, "intermolecular_energy": -10.63, "internal_energy": -0.96, "cluster_size": 10, "cluster_id": 1, "rank_in_cluster": 2}

>  <energy>  (37) 
-7.81

>  <cluster_rmsd>  (37) 
1.76

>  <cluster>  (37) 
2

$$$$

     RDKit          3D

 44 47  0  0  0  0  0  0  0  0999 V2000
  133.2070   73.2440  227.1870 N   0  0  0  0  0  0  0  0  0  0  0  0
  133.7060   72.4520  226.5070 C   0  0  0  0  0  0  0  0  0  0  0  0
  134.3370   71.4700  225.6750 C   0  0  0  0  0  0  0  0  0  0  0  0
  134.7650   71.8480  224.4090 C   0  0  0  0  0  0  0  0  0  0  0  0
  135.3850   70.9200  223.5700 C   0  0  0  0  0  0  0  0  0  0  0  0
  135.5960   69.6120  223.9500 C   0  0  0  0  0  0  0  0  0  0  0  0
  136.2380   68.6200  223.0980 C   0  0  0  0  0  0  0  0  0  0  0  0
  137.5370   68.4790  222.9740 C   0  0  0  0  0  0  0  0  0  0  0  0
  138.4440   69.0290  223.9850 C   0  0  0  0  0  0  0  0  0  0  0  0
  138.8100   68.1750  224.9710 N   0  0  0  0  0  0  0  0  0  0  0  0
  139.6150   68.5390  225.9820 C   0  0  0  0  0  0  0  0  0  0  0  0
  139.9690   67.6430  226.9720 C   0  0  0  0  0  0  0  0  0  0  0  0
  140.7990   68.1040  227.9720 C   0  0  0  0  0  0  0  0  0  0  0  0
  141.2580   69.3870  227.9940 C   0  0  0  0  0  0  0  0  0  0  0  0
  140.8870   70.2580  226.9910 C   0  0  0  0  0  0  0  0  0  0  0  0
  140.0590   69.8490  225.9690 C   0  0  0  0  0  0  0  0  0  0  0  0
  139.6730   70.7000  224.9540 C   0  0  0  0  0  0  0  0  0  0  0  0
  140.1290   71.8810  225.0250 O   0  0  0  0  0  0  0  0  0  0  0  0
  138.8570   70.3080  223.9380 N   0  0  0  0  0  0  0  0  0  0  0  0
  138.4750   71.2350  222.8910 C   0  0  0  0  0  0  0  0  0  0  0  0
  139.6310   71.9380  222.3350 C   0  0  0  0  0  0  0  0  0  0  0  0
  140.6250   71.1670  221.7210 C   0  0  0  0  0  0  0  0  0  0  0  0
  141.7520   71.7760  221.1660 C   0  0  0  0  0  0  0  0  0  0  0  0
  141.8980   73.1360  221.2160 C   0  0  0  0  0  0  0  0  0  0  0  0
  140.9450   73.8630  221.8040 N   0  0  0  0  0  0  0  0  0  0  0  0
  139.8510   73.2870  222.3440 C   0  0  0  0  0  0  0  0  0  0  0  0
  135.1570   69.2670  225.2180 C   0  0  0  0  0  0  0  0  0  0  0  0
  134.5430   70.1640  226.0670 C   0  0  0  0  0  0  0  0  0  0  0  0
  134.6150   72.8823  224.0660 H   0  0  0  0  0  0  0  0  0  0  0  0
  135.7162   71.2436  222.5722 H   0  0  0  0  0  0  0  0  0  0  0  0
  135.5909   67.9439  222.5200 H   0  0  0  0  0  0  0  0  0  0  0  0
  137.9477   67.9441  222.1050 H   0  0  0  0  0  0  0  0  0  0  0  0
  139.6041   66.6053  226.9630 H   0  0  0  0  0  0  0  0  0  0  0  0
  141.0995   67.4158  228.7758 H   0  0  0  0  0  0  0  0  0  0  0  0
  141.9192   69.7253  228.8054 H   0  0  0  0  0  0  0  0  0  0  0  0
  141.2574   71.2936  227.0074 H   0  0  0  0  0  0  0  0  0  0  0  0
  137.9778   70.6755  222.0849 H   0  0  0  0  0  0  0  0  0  0  0  0
  137.7995   71.9843  223.3295 H   0  0  0  0  0  0  0  0  0  0  0  0
  140.5173   70.0732  221.6754 H   0  0  0  0  0  0  0  0  0  0  0  0
  142.5266   71.1598  220.6861 H   0  0  0  0  0  0  0  0  0  0  0  0
  142.7838   73.6209  220.7799 H   0  0  0  0  0  0  0  0  0  0  0  0
  139.0980   73.9358  222.8153 H   0  0  0  0  0  0  0  0  0  0  0  0
  135.3045   68.2328  225.5626 H   0  0  0  0  0  0  0  0  0  0  0  0
  134.2152   69.8352  227.0642 H   0  0  0  0  0  0  0  0  0  0  0  0
  1  2  3  0
  2  3  1  0
  3  4  2  0
  4  5  1  0
  5  6  2  0
  6  7  1  0
  7  8  2  0
  8  9  1  0
  9 10  2  0
 10 11  1  0
 11 12  2  0
 12 13  1  0
 13 14  2  0
 14 15  1  0
 15 16  2  0
 16 17  1  0
 17 18  2  0
 17 19  1  0
 19 20  1  0
 20 21  1  0
 21 22  2  0
 22 23  1  0
 23 24  2  0
 24 25  1  0
 25 26  2  0
  6 27  1  0
 27 28  2  0
 28  3  1  0
 19  9  1  0
 26 21  1  0
 16 11  1  0
  4 29  1  0
  5 30  1  0
  7 31  1  0
  8 32  1  0
 12 33  1  0
 13 34  1  0
 14 35  1  0
 15 36  1  0
 20 37  1  0
 20 38  1  0
 22 39  1  0
 23 40  1  0
 24 41  1  0
 26 42  1  0
 27 43  1  0
 28 44  1  0
M  END
>  <smiles>  (38) 
N#Cc1ccc(/C=C/c2nc3ccccc3c(=O)n2Cc2cccnc2)cc1

>  <score_type>  (38) 
oracle

>  <origin>  (38) 
autodockgpu

>  <m_score__min__energy>  (38) 
-8.8599999999999994

>  <m_primary>  (38) 
energy

>  <rmsd>  (38) 
10.6664711926582

>  <m_score__min__rmsd>  (38) 
10.6664711926582

>  <meeko>  (38) 
{"free_energy": -7.53, "intermolecular_energy": -9.32, "internal_energy": -1.53, "cluster_size": 5, "cluster_id": 4, "rank_in_cluster": 2}

>  <energy>  (38) 
-7.81

>  <cluster_rmsd>  (38) 
1.85

>  <cluster>  (38) 
2

$$$$

     RDKit          3D

 44 47  0  0  0  0  0  0  0  0999 V2000
  141.3380   68.4000  228.9480 N   0  0  0  0  0  0  0  0  0  0  0  0
  141.0370   68.9430  227.9720 C   0  0  0  0  0  0  0  0  0  0  0  0
  140.6800   69.6190  226.7590 C   0  0  0  0  0  0  0  0  0  0  0  0
  139.9150   68.9390  225.8200 C   0  0  0  0  0  0  0  0  0  0  0  0
  139.5470   69.5630  224.6270 C   0  0  0  0  0  0  0  0  0  0  0  0
  139.9190   70.8570  224.3300 C   0  0  0  0  0  0  0  0  0  0  0  0
  139.5530   71.5360  223.0950 C   0  0  0  0  0  0  0  0  0  0  0  0
  140.3660   71.7200  222.0800 C   0  0  0  0  0  0  0  0  0  0  0  0
  140.8390   73.0650  221.7430 C   0  0  0  0  0  0  0  0  0  0  0  0
  139.9600   74.0700  221.9750 N   0  0  0  0  0  0  0  0  0  0  0  0
  140.2370   75.3540  221.6940 C   0  0  0  0  0  0  0  0  0  0  0  0
  139.3180   76.3540  221.9430 C   0  0  0  0  0  0  0  0  0  0  0  0
  139.6880   77.6440  221.6220 C   0  0  0  0  0  0  0  0  0  0  0  0
  140.9060   77.9320  221.0820 C   0  0  0  0  0  0  0  0  0  0  0  0
  141.8030   76.9100  220.8460 C   0  0  0  0  0  0  0  0  0  0  0  0
  141.4840   75.6040  221.1480 C   0  0  0  0  0  0  0  0  0  0  0  0
  142.3610   74.5650  220.9220 C   0  0  0  0  0  0  0  0  0  0  0  0
  143.4780   74.8900  220.4180 O   0  0  0  0  0  0  0  0  0  0  0  0
  142.0580   73.2710  221.2160 N   0  0  0  0  0  0  0  0  0  0  0  0
  143.0100   72.2080  220.9610 C   0  0  0  0  0  0  0  0  0  0  0  0
  143.7130   72.3960  219.6910 C   0  0  0  0  0  0  0  0  0  0  0  0
  142.9360   72.5140  218.5320 C   0  0  0  0  0  0  0  0  0  0  0  0
  143.5430   72.7000  217.2880 C   0  0  0  0  0  0  0  0  0  0  0  0
  144.9060   72.7680  217.1890 C   0  0  0  0  0  0  0  0  0  0  0  0
  145.6390   72.6540  218.2990 N   0  0  0  0  0  0  0  0  0  0  0  0
  145.0640   72.4740  219.5070 C   0  0  0  0  0  0  0  0  0  0  0  0
  140.6820   71.5070  225.2870 C   0  0  0  0  0  0  0  0  0  0  0  0
  141.0590   70.9130  226.4740 C   0  0  0  0  0  0  0  0  0  0  0  0
  139.5979   67.9044  226.0174 H   0  0  0  0  0  0  0  0  0  0  0  0
  138.9401   69.0039  223.8996 H   0  0  0  0  0  0  0  0  0  0  0  0
  138.5263   71.9208  223.0061 H   0  0  0  0  0  0  0  0  0  0  0  0
  140.6938   70.8588  221.4792 H   0  0  0  0  0  0  0  0  0  0  0  0
  138.3327   76.1317  222.3787 H   0  0  0  0  0  0  0  0  0  0  0  0
  138.9790   78.4643  221.8074 H   0  0  0  0  0  0  0  0  0  0  0  0
  141.1719   78.9707  220.8363 H   0  0  0  0  0  0  0  0  0  0  0  0
  142.7864   77.1413  220.4107 H   0  0  0  0  0  0  0  0  0  0  0  0
  143.7482   72.1889  221.7763 H   0  0  0  0  0  0  0  0  0  0  0  0
  142.4547   71.2601  220.9055 H   0  0  0  0  0  0  0  0  0  0  0  0
  141.8396   72.4598  218.6019 H   0  0  0  0  0  0  0  0  0  0  0  0
  142.9228   72.7922  216.3842 H   0  0  0  0  0  0  0  0  0  0  0  0
  145.3894   72.9141  216.2118 H   0  0  0  0  0  0  0  0  0  0  0  0
  145.7168   72.3857  220.3879 H   0  0  0  0  0  0  0  0  0  0  0  0
  141.0010   72.5415  225.0919 H   0  0  0  0  0  0  0  0  0  0  0  0
  141.6663   71.4762  227.1978 H   0  0  0  0  0  0  0  0  0  0  0  0
  1  2  3  0
  2  3  1  0
  3  4  2  0
  4  5  1  0
  5  6  2  0
  6  7  1  0
  7  8  2  0
  8  9  1  0
  9 10  2  0
 10 11  1  0
 11 12  2  0
 12 13  1  0
 13 14  2  0
 14 15  1  0
 15 16  2  0
 16 17  1  0
 17 18  2  0
 17 19  1  0
 19 20  1  0
 20 21  1  0
 21 22  2  0
 22 23  1  0
 23 24  2  0
 24 25  1  0
 25 26  2  0
  6 27  1  0
 27 28  2  0
 28  3  1  0
 19  9  1  0
 26 21  1  0
 16 11  1  0
  4 29  1  0
  5 30  1  0
  7 31  1  0
  8 32  1  0
 12 33  1  0
 13 34  1  0
 14 35  1  0
 15 36  1  0
 20 37  1  0
 20 38  1  0
 22 39  1  0
 23 40  1  0
 24 41  1  0
 26 42  1  0
 27 43  1  0
 28 44  1  0
M  END
>  <smiles>  (39) 
N#Cc1ccc(/C=C/c2nc3ccccc3c(=O)n2Cc2cccnc2)cc1

>  <score_type>  (39) 
oracle

>  <origin>  (39) 
autodockgpu

>  <m_score__min__energy>  (39) 
-8.8599999999999994

>  <m_primary>  (39) 
energy

>  <rmsd>  (39) 
5.399457788190305

>  <m_score__min__rmsd>  (39) 
5.399457788190305

>  <meeko>  (39) 
{"free_energy": -7.61, "intermolecular_energy": -9.4, "internal_energy": -0.87, "cluster_size": 10, "cluster_id": 1, "rank_in_cluster": 10}

>  <energy>  (39) 
-7.79

>  <cluster_rmsd>  (39) 
1.86

>  <cluster>  (39) 
2

$$$$

     RDKit          3D

 44 47  0  0  0  0  0  0  0  0999 V2000
  145.9870   72.9980  219.2870 N   0  0  0  0  0  0  0  0  0  0  0  0
  144.9450   72.9240  219.7850 C   0  0  0  0  0  0  0  0  0  0  0  0
  143.6500   72.8200  220.3910 C   0  0  0  0  0  0  0  0  0  0  0  0
  142.9280   73.9840  220.6210 C   0  0  0  0  0  0  0  0  0  0  0  0
  141.6640   73.9230  221.2080 C   0  0  0  0  0  0  0  0  0  0  0  0
  141.0840   72.7290  221.5810 C   0  0  0  0  0  0  0  0  0  0  0  0
  139.7670   72.6320  222.1970 C   0  0  0  0  0  0  0  0  0  0  0  0
  139.1620   71.5010  222.4790 C   0  0  0  0  0  0  0  0  0  0  0  0
  139.4280   70.8140  223.7460 C   0  0  0  0  0  0  0  0  0  0  0  0
  140.0280   71.5620  224.7030 N   0  0  0  0  0  0  0  0  0  0  0  0
  140.3580   71.0670  225.9070 C   0  0  0  0  0  0  0  0  0  0  0  0
  140.9690   71.8570  226.8610 C   0  0  0  0  0  0  0  0  0  0  0  0
  141.2730   71.2660  228.0690 C   0  0  0  0  0  0  0  0  0  0  0  0
  140.9870   69.9570  228.3240 C   0  0  0  0  0  0  0  0  0  0  0  0
  140.3750   69.1940  227.3500 C   0  0  0  0  0  0  0  0  0  0  0  0
  140.0500   69.7360  226.1260 C   0  0  0  0  0  0  0  0  0  0  0  0
  139.4380   68.9960  225.1370 C   0  0  0  0  0  0  0  0  0  0  0  0
  139.1960   67.7860  225.4270 O   0  0  0  0  0  0  0  0  0  0  0  0
  139.1130   69.5190  223.9240 N   0  0  0  0  0  0  0  0  0  0  0  0
  138.4710   68.7050  222.9110 C   0  0  0  0  0  0  0  0  0  0  0  0
  137.0310   68.5810  223.1400 C   0  0  0  0  0  0  0  0  0  0  0  0
  136.4820   69.2970  224.2110 C   0  0  0  0  0  0  0  0  0  0  0  0
  135.1130   69.2260  224.4820 C   0  0  0  0  0  0  0  0  0  0  0  0
  134.2940   68.4540  223.7030 C   0  0  0  0  0  0  0  0  0  0  0  0
  134.8270   67.7750  222.6850 N   0  0  0  0  0  0  0  0  0  0  0  0
  136.1470   67.8350  222.4130 C   0  0  0  0  0  0  0  0  0  0  0  0
  141.8300   71.5870  221.3380 C   0  0  0  0  0  0  0  0  0  0  0  0
  143.0810   71.6190  220.7590 C   0  0  0  0  0  0  0  0  0  0  0  0
  143.3546   74.9579  220.3391 H   0  0  0  0  0  0  0  0  0  0  0  0
  141.1115   74.8587  221.3790 H   0  0  0  0  0  0  0  0  0  0  0  0
  139.2447   73.5686  222.4422 H   0  0  0  0  0  0  0  0  0  0  0  0
  138.4516   71.0668  221.7602 H   0  0  0  0  0  0  0  0  0  0  0  0
  141.2033   72.9138  226.6652 H   0  0  0  0  0  0  0  0  0  0  0  0
  141.7605   71.8679  228.8501 H   0  0  0  0  0  0  0  0  0  0  0  0
  141.2419   69.5131  229.2976 H   0  0  0  0  0  0  0  0  0  0  0  0
  140.1435   68.1382  227.5541 H   0  0  0  0  0  0  0  0  0  0  0  0
  138.6357   69.1675  221.9266 H   0  0  0  0  0  0  0  0  0  0  0  0
  138.9104   67.6976  222.9554 H   0  0  0  0  0  0  0  0  0  0  0  0
  137.1326   69.9193  224.8430 H   0  0  0  0  0  0  0  0  0  0  0  0
  134.6916   69.7931  225.3251 H   0  0  0  0  0  0  0  0  0  0  0  0
  133.2157   68.3943  223.9122 H   0  0  0  0  0  0  0  0  0  0  0  0
  136.5313   67.2534  221.5621 H   0  0  0  0  0  0  0  0  0  0  0  0
  141.4056   70.6119  221.6194 H   0  0  0  0  0  0  0  0  0  0  0  0
  143.6287   70.6803  220.5895 H   0  0  0  0  0  0  0  0  0  0  0  0
  1  2  3  0
  2  3  1  0
  3  4  2  0
  4  5  1  0
  5  6  2  0
  6  7  1  0
  7  8  2  0
  8  9  1  0
  9 10  2  0
 10 11  1  0
 11 12  2  0
 12 13  1  0
 13 14  2  0
 14 15  1  0
 15 16  2  0
 16 17  1  0
 17 18  2  0
 17 19  1  0
 19 20  1  0
 20 21  1  0
 21 22  2  0
 22 23  1  0
 23 24  2  0
 24 25  1  0
 25 26  2  0
  6 27  1  0
 27 28  2  0
 28  3  1  0
 19  9  1  0
 26 21  1  0
 16 11  1  0
  4 29  1  0
  5 30  1  0
  7 31  1  0
  8 32  1  0
 12 33  1  0
 13 34  1  0
 14 35  1  0
 15 36  1  0
 20 37  1  0
 20 38  1  0
 22 39  1  0
 23 40  1  0
 24 41  1  0
 26 42  1  0
 27 43  1  0
 28 44  1  0
M  END
>  <smiles>  (40) 
N#Cc1ccc(/C=C/c2nc3ccccc3c(=O)n2Cc2cccnc2)cc1

>  <score_type>  (40) 
oracle

>  <origin>  (40) 
autodockgpu

>  <m_score__min__energy>  (40) 
-8.8599999999999994

>  <m_primary>  (40) 
energy

>  <rmsd>  (40) 
11.64521778219476

>  <m_score__min__rmsd>  (40) 
11.64521778219476

>  <meeko>  (40) 
{"free_energy": -8.16, "intermolecular_energy": -9.95, "internal_energy": -1.21, "cluster_size": 33, "cluster_id": 2, "rank_in_cluster": 21}

>  <energy>  (40) 
-7.75

>  <cluster_rmsd>  (40) 
1.86

>  <cluster>  (40) 
2

$$$$

     RDKit          3D

 44 47  0  0  0  0  0  0  0  0999 V2000
  141.3180   78.6620  222.0070 N   0  0  0  0  0  0  0  0  0  0  0  0
  140.9680   77.5610  221.9700 C   0  0  0  0  0  0  0  0  0  0  0  0
  140.5270   76.1970  221.9080 C   0  0  0  0  0  0  0  0  0  0  0  0
  141.4550   75.2110  221.6040 C   0  0  0  0  0  0  0  0  0  0  0  0
  141.0630   73.8730  221.5360 C   0  0  0  0  0  0  0  0  0  0  0  0
  139.7630   73.4760  221.7620 C   0  0  0  0  0  0  0  0  0  0  0  0
  139.3220   72.0900  221.6980 C   0  0  0  0  0  0  0  0  0  0  0  0
  140.0440   71.0630  222.0830 C   0  0  0  0  0  0  0  0  0  0  0  0
  139.9560   70.5680  223.4590 C   0  0  0  0  0  0  0  0  0  0  0  0
  140.4890   71.3760  224.4070 N   0  0  0  0  0  0  0  0  0  0  0  0
  140.5070   71.0490  225.7100 C   0  0  0  0  0  0  0  0  0  0  0  0
  141.0590   71.8960  226.6510 C   0  0  0  0  0  0  0  0  0  0  0  0
  141.0350   71.4800  227.9660 C   0  0  0  0  0  0  0  0  0  0  0  0
  140.4920   70.2840  228.3340 C   0  0  0  0  0  0  0  0  0  0  0  0
  139.9470   69.4610  227.3690 C   0  0  0  0  0  0  0  0  0  0  0  0
  139.9460   69.8290  226.0420 C   0  0  0  0  0  0  0  0  0  0  0  0
  139.4080   69.0250  225.0590 C   0  0  0  0  0  0  0  0  0  0  0  0
  138.9180   67.9260  225.4570 O   0  0  0  0  0  0  0  0  0  0  0  0
  139.4010   69.3770  223.7450 N   0  0  0  0  0  0  0  0  0  0  0  0
  138.8260   68.5010  222.7440 C   0  0  0  0  0  0  0  0  0  0  0  0
  137.3770   68.3720  222.8960 C   0  0  0  0  0  0  0  0  0  0  0  0
  136.6990   67.5500  221.9870 C   0  0  0  0  0  0  0  0  0  0  0  0
  135.3160   67.3800  222.0800 C   0  0  0  0  0  0  0  0  0  0  0  0
  134.6070   68.0170  223.0620 C   0  0  0  0  0  0  0  0  0  0  0  0
  135.2610   68.7990  223.9240 N   0  0  0  0  0  0  0  0  0  0  0  0
  136.5970   68.9710  223.8450 C   0  0  0  0  0  0  0  0  0  0  0  0
  138.8610   74.4850  222.0640 C   0  0  0  0  0  0  0  0  0  0  0  0
  139.2220   75.8140  222.1370 C   0  0  0  0  0  0  0  0  0  0  0  0
  142.5036   75.4849  221.4159 H   0  0  0  0  0  0  0  0  0  0  0  0
  141.8173   73.1098  221.2938 H   0  0  0  0  0  0  0  0  0  0  0  0
  138.3162   71.8896  221.3003 H   0  0  0  0  0  0  0  0  0  0  0  0
  140.7194   70.5711  221.3676 H   0  0  0  0  0  0  0  0  0  0  0  0
  141.4995   72.8622  226.3638 H   0  0  0  0  0  0  0  0  0  0  0  0
  141.4662   72.1316  228.7403 H   0  0  0  0  0  0  0  0  0  0  0  0
  140.4884   69.9780  229.3906 H   0  0  0  0  0  0  0  0  0  0  0  0
  139.5071   68.4971  227.6644 H   0  0  0  0  0  0  0  0  0  0  0  0
  139.0434   68.9106  221.7465 H   0  0  0  0  0  0  0  0  0  0  0  0
  139.2710   67.5030  222.8699 H   0  0  0  0  0  0  0  0  0  0  0  0
  137.2602   67.0344  221.1938 H   0  0  0  0  0  0  0  0  0  0  0  0
  134.7943   66.7313  221.3609 H   0  0  0  0  0  0  0  0  0  0  0  0
  133.5175   67.8870  223.1397 H   0  0  0  0  0  0  0  0  0  0  0  0
  137.0832   69.6269  224.5822 H   0  0  0  0  0  0  0  0  0  0  0  0
  137.8120   74.2136  222.2536 H   0  0  0  0  0  0  0  0  0  0  0  0
  138.4642   76.5735  222.3794 H   0  0  0  0  0  0  0  0  0  0  0  0
  1  2  3  0
  2  3  1  0
  3  4  2  0
  4  5  1  0
  5  6  2  0
  6  7  1  0
  7  8  2  0
  8  9  1  0
  9 10  2  0
 10 11  1  0
 11 12  2  0
 12 13  1  0
 13 14  2  0
 14 15  1  0
 15 16  2  0
 16 17  1  0
 17 18  2  0
 17 19  1  0
 19 20  1  0
 20 21  1  0
 21 22  2  0
 22 23  1  0
 23 24  2  0
 24 25  1  0
 25 26  2  0
  6 27  1  0
 27 28  2  0
 28  3  1  0
 19  9  1  0
 26 21  1  0
 16 11  1  0
  4 29  1  0
  5 30  1  0
  7 31  1  0
  8 32  1  0
 12 33  1  0
 13 34  1  0
 14 35  1  0
 15 36  1  0
 20 37  1  0
 20 38  1  0
 22 39  1  0
 23 40  1  0
 24 41  1  0
 26 42  1  0
 27 43  1  0
 28 44  1  0
M  END
>  <smiles>  (41) 
N#Cc1ccc(/C=C/c2nc3ccccc3c(=O)n2Cc2cccnc2)cc1

>  <score_type>  (41) 
oracle

>  <origin>  (41) 
autodockgpu

>  <m_score__min__energy>  (41) 
-8.8599999999999994

>  <m_primary>  (41) 
energy

>  <rmsd>  (41) 
11.537389510513627

>  <m_score__min__rmsd>  (41) 
11.537389510513627

>  <meeko>  (41) 
{"free_energy": -7.54, "intermolecular_energy": -9.33, "internal_energy": -1.11, "cluster_size": 2, "cluster_id": 3, "rank_in_cluster": 2}

>  <energy>  (41) 
-7.75

>  <cluster_rmsd>  (41) 
1.86

>  <cluster>  (41) 
2

$$$$

     RDKit          3D

 44 47  0  0  0  0  0  0  0  0999 V2000
  145.9930   72.9970  218.9480 N   0  0  0  0  0  0  0  0  0  0  0  0
  144.9860   72.9160  219.5100 C   0  0  0  0  0  0  0  0  0  0  0  0
  143.7320   72.8300  220.2010 C   0  0  0  0  0  0  0  0  0  0  0  0
  143.0550   74.0060  220.4990 C   0  0  0  0  0  0  0  0  0  0  0  0
  141.8330   73.9630  221.1690 C   0  0  0  0  0  0  0  0  0  0  0  0
  141.2510   72.7760  221.5610 C   0  0  0  0  0  0  0  0  0  0  0  0
  139.9770   72.6970  222.2630 C   0  0  0  0  0  0  0  0  0  0  0  0
  139.3020   71.5870  222.4530 C   0  0  0  0  0  0  0  0  0  0  0  0
  139.4890   70.8060  223.6780 C   0  0  0  0  0  0  0  0  0  0  0  0
  140.0020   71.4840  224.7330 N   0  0  0  0  0  0  0  0  0  0  0  0
  140.2540   70.9000  225.9160 C   0  0  0  0  0  0  0  0  0  0  0  0
  140.7770   71.6210  226.9720 C   0  0  0  0  0  0  0  0  0  0  0  0
  141.0050   70.9400  228.1490 C   0  0  0  0  0  0  0  0  0  0  0  0
  140.7290   69.6110  228.2780 C   0  0  0  0  0  0  0  0  0  0  0  0
  140.2070   68.9190  227.2050 C   0  0  0  0  0  0  0  0  0  0  0  0
  139.9610   69.5510  226.0070 C   0  0  0  0  0  0  0  0  0  0  0  0
  139.4390   68.8830  224.9190 C   0  0  0  0  0  0  0  0  0  0  0  0
  139.2030   67.6490  225.0950 O   0  0  0  0  0  0  0  0  0  0  0  0
  139.1910   69.4960  223.7300 N   0  0  0  0  0  0  0  0  0  0  0  0
  138.6420   68.7550  222.6110 C   0  0  0  0  0  0  0  0  0  0  0  0
  137.2310   68.4260  222.8120 C   0  0  0  0  0  0  0  0  0  0  0  0
  136.6410   67.5260  221.9160 C   0  0  0  0  0  0  0  0  0  0  0  0
  135.2980   67.1670  222.0550 C   0  0  0  0  0  0  0  0  0  0  0  0
  134.5440   67.6920  223.0680 C   0  0  0  0  0  0  0  0  0  0  0  0
  135.1150   68.5490  223.9170 N   0  0  0  0  0  0  0  0  0  0  0  0
  136.4100   68.9040  223.7940 C   0  0  0  0  0  0  0  0  0  0  0  0
  141.9510   71.6220  221.2500 C   0  0  0  0  0  0  0  0  0  0  0  0
  143.1610   71.6360  220.5880 C   0  0  0  0  0  0  0  0  0  0  0  0
  143.4848   74.9750  220.2051 H   0  0  0  0  0  0  0  0  0  0  0  0
  141.3158   74.9078  221.3924 H   0  0  0  0  0  0  0  0  0  0  0  0
  139.5518   73.6303  222.6607 H   0  0  0  0  0  0  0  0  0  0  0  0
  138.5917   71.2414  221.6875 H   0  0  0  0  0  0  0  0  0  0  0  0
  141.0021   72.6936  226.8778 H   0  0  0  0  0  0  0  0  0  0  0  0
  141.4217   71.4848  229.0090 H   0  0  0  0  0  0  0  0  0  0  0  0
  140.9211   69.0948  229.2302 H   0  0  0  0  0  0  0  0  0  0  0  0
  139.9841   67.8468  227.3081 H   0  0  0  0  0  0  0  0  0  0  0  0
  138.7385   69.3639  221.7000 H   0  0  0  0  0  0  0  0  0  0  0  0
  139.2014   67.8122  222.5201 H   0  0  0  0  0  0  0  0  0  0  0  0
  137.2389   67.0989  221.0974 H   0  0  0  0  0  0  0  0  0  0  0  0
  134.8448   66.4585  221.3461 H   0  0  0  0  0  0  0  0  0  0  0  0
  133.4860   67.4130  223.1810 H   0  0  0  0  0  0  0  0  0  0  0  0
  136.8271   69.6153  224.5220 H   0  0  0  0  0  0  0  0  0  0  0  0
  141.5233   70.6521  221.5438 H   0  0  0  0  0  0  0  0  0  0  0  0
  143.6739   70.6883  220.3673 H   0  0  0  0  0  0  0  0  0  0  0  0
  1  2  3  0
  2  3  1  0
  3  4  2  0
  4  5  1  0
  5  6  2  0
  6  7  1  0
  7  8  2  0
  8  9  1  0
  9 10  2  0
 10 11  1  0
 11 12  2  0
 12 13  1  0
 13 14  2  0
 14 15  1  0
 15 16  2  0
 16 17  1  0
 17 18  2  0
 17 19  1  0
 19 20  1  0
 20 21  1  0
 21 22  2  0
 22 23  1  0
 23 24  2  0
 24 25  1  0
 25 26  2  0
  6 27  1  0
 27 28  2  0
 28  3  1  0
 19  9  1  0
 26 21  1  0
 16 11  1  0
  4 29  1  0
  5 30  1  0
  7 31  1  0
  8 32  1  0
 12 33  1  0
 13 34  1  0
 14 35  1  0
 15 36  1  0
 20 37  1  0
 20 38  1  0
 22 39  1  0
 23 40  1  0
 24 41  1  0
 26 42  1  0
 27 43  1  0
 28 44  1  0
M  END
>  <smiles>  (42) 
N#Cc1ccc(/C=C/c2nc3ccccc3c(=O)n2Cc2cccnc2)cc1

>  <score_type>  (42) 
oracle

>  <origin>  (42) 
autodockgpu

>  <m_score__min__energy>  (42) 
-8.8599999999999994

>  <m_primary>  (42) 
energy

>  <rmsd>  (42) 
11.769758730381378

>  <m_score__min__rmsd>  (42) 
11.769758730381378

>  <meeko>  (42) 
{"free_energy": -8.36, "intermolecular_energy": -10.15, "internal_energy": -1.15, "cluster_size": 33, "cluster_id": 2, "rank_in_cluster": 7}

>  <energy>  (42) 
-7.64

>  <cluster_rmsd>  (42) 
1.95

>  <cluster>  (42) 
2

$$$$

     RDKit          3D

 44 47  0  0  0  0  0  0  0  0999 V2000
  146.0430   72.9870  219.0570 N   0  0  0  0  0  0  0  0  0  0  0  0
  145.0140   72.9500  219.5830 C   0  0  0  0  0  0  0  0  0  0  0  0
  143.7440   72.9110  220.2480 C   0  0  0  0  0  0  0  0  0  0  0  0
  143.2210   71.6770  220.6100 C   0  0  0  0  0  0  0  0  0  0  0  0
  141.9880   71.5990  221.2600 C   0  0  0  0  0  0  0  0  0  0  0  0
  141.2470   72.7200  221.5670 C   0  0  0  0  0  0  0  0  0  0  0  0
  139.9580   72.6730  222.2430 C   0  0  0  0  0  0  0  0  0  0  0  0
  139.2940   71.5690  222.4990 C   0  0  0  0  0  0  0  0  0  0  0  0
  139.5230   70.8390  223.7480 C   0  0  0  0  0  0  0  0  0  0  0  0
  140.1190   71.5460  224.7390 N   0  0  0  0  0  0  0  0  0  0  0  0
  140.4170   71.0090  225.9330 C   0  0  0  0  0  0  0  0  0  0  0  0
  141.0250   71.7570  226.9210 C   0  0  0  0  0  0  0  0  0  0  0  0
  141.2950   71.1240  228.1160 C   0  0  0  0  0  0  0  0  0  0  0  0
  140.9790   69.8150  228.3260 C   0  0  0  0  0  0  0  0  0  0  0  0
  140.3710   69.0940  227.3180 C   0  0  0  0  0  0  0  0  0  0  0  0
  140.0800   69.6780  226.1060 C   0  0  0  0  0  0  0  0  0  0  0  0
  139.4720   68.9800  225.0830 C   0  0  0  0  0  0  0  0  0  0  0  0
  139.2020   67.7670  225.3320 O   0  0  0  0  0  0  0  0  0  0  0  0
  139.1790   69.5460  223.8810 N   0  0  0  0  0  0  0  0  0  0  0  0
  138.5410   68.7760  222.8320 C   0  0  0  0  0  0  0  0  0  0  0  0
  137.1090   68.6020  223.0760 C   0  0  0  0  0  0  0  0  0  0  0  0
  136.5270   69.3690  224.0930 C   0  0  0  0  0  0  0  0  0  0  0  0
  135.1630   69.2550  224.3730 C   0  0  0  0  0  0  0  0  0  0  0  0
  134.3810   68.3900  223.6570 C   0  0  0  0  0  0  0  0  0  0  0  0
  134.9450   67.6630  222.6900 N   0  0  0  0  0  0  0  0  0  0  0  0
  136.2610   67.7640  222.4090 C   0  0  0  0  0  0  0  0  0  0  0  0
  141.7970   73.9360  221.1920 C   0  0  0  0  0  0  0  0  0  0  0  0
  143.0130   74.0410  220.5490 C   0  0  0  0  0  0  0  0  0  0  0  0
  143.7803   70.7572  220.3838 H   0  0  0  0  0  0  0  0  0  0  0  0
  141.5946   70.6097  221.5365 H   0  0  0  0  0  0  0  0  0  0  0  0
  139.5103   73.6262  222.5606 H   0  0  0  0  0  0  0  0  0  0  0  0
  138.5615   71.1904  221.7709 H   0  0  0  0  0  0  0  0  0  0  0  0
  141.2834   72.8143  226.7617 H   0  0  0  0  0  0  0  0  0  0  0  0
  141.7797   71.6923  228.9235 H   0  0  0  0  0  0  0  0  0  0  0  0
  141.2065   69.3372  229.2903 H   0  0  0  0  0  0  0  0  0  0  0  0
  140.1153   68.0374  227.4858 H   0  0  0  0  0  0  0  0  0  0  0  0
  138.6774   69.2991  221.8740 H   0  0  0  0  0  0  0  0  0  0  0  0
  139.0063   67.7795  222.8099 H   0  0  0  0  0  0  0  0  0  0  0  0
  137.1479   70.0658  224.6752 H   0  0  0  0  0  0  0  0  0  0  0  0
  134.7156   69.8634  225.1728 H   0  0  0  0  0  0  0  0  0  0  0  0
  133.3068   68.2954  223.8744 H   0  0  0  0  0  0  0  0  0  0  0  0
  136.6718   67.1398  221.6018 H   0  0  0  0  0  0  0  0  0  0  0  0
  141.2396   74.8572  221.4169 H   0  0  0  0  0  0  0  0  0  0  0  0
  143.4021   75.0326  220.2746 H   0  0  0  0  0  0  0  0  0  0  0  0
  1  2  3  0
  2  3  1  0
  3  4  2  0
  4  5  1  0
  5  6  2  0
  6  7  1  0
  7  8  2  0
  8  9  1  0
  9 10  2  0
 10 11  1  0
 11 12  2  0
 12 13  1  0
 13 14  2  0
 14 15  1  0
 15 16  2  0
 16 17  1  0
 17 18  2  0
 17 19  1  0
 19 20  1  0
 20 21  1  0
 21 22  2  0
 22 23  1  0
 23 24  2  0
 24 25  1  0
 25 26  2  0
  6 27  1  0
 27 28  2  0
 28  3  1  0
 19  9  1  0
 26 21  1  0
 16 11  1  0
  4 29  1  0
  5 30  1  0
  7 31  1  0
  8 32  1  0
 12 33  1  0
 13 34  1  0
 14 35  1  0
 15 36  1  0
 20 37  1  0
 20 38  1  0
 22 39  1  0
 23 40  1  0
 24 41  1  0
 26 42  1  0
 27 43  1  0
 28 44  1  0
M  END
>  <smiles>  (43) 
N#Cc1ccc(/C=C/c2nc3ccccc3c(=O)n2Cc2cccnc2)cc1

>  <score_type>  (43) 
oracle

>  <origin>  (43) 
autodockgpu

>  <m_score__min__energy>  (43) 
-8.8599999999999994

>  <m_primary>  (43) 
energy

>  <rmsd>  (43) 
11.65904371889131

>  <m_score__min__rmsd>  (43) 
11.65904371889131

>  <meeko>  (43) 
{"free_energy": -8.21, "intermolecular_energy": -10.0, "internal_energy": -1.19, "cluster_size": 33, "cluster_id": 2, "rank_in_cluster": 16}

>  <energy>  (43) 
-7.61

>  <cluster_rmsd>  (43) 
1.72

>  <cluster>  (43) 
2

$$$$

     RDKit          3D

 44 47  0  0  0  0  0  0  0  0999 V2000
  146.3200   73.2880  219.4280 N   0  0  0  0  0  0  0  0  0  0  0  0
  145.2490   73.0190  219.7700 C   0  0  0  0  0  0  0  0  0  0  0  0
  143.9250   72.6680  220.1980 C   0  0  0  0  0  0  0  0  0  0  0  0
  143.4920   71.3620  220.0150 C   0  0  0  0  0  0  0  0  0  0  0  0
  142.2110   70.9830  220.4190 C   0  0  0  0  0  0  0  0  0  0  0  0
  141.3330   71.8690  221.0050 C   0  0  0  0  0  0  0  0  0  0  0  0
  139.9900   71.5050  221.4370 C   0  0  0  0  0  0  0  0  0  0  0  0
  139.4270   71.9290  222.5440 C   0  0  0  0  0  0  0  0  0  0  0  0
  139.5650   71.1640  223.7860 C   0  0  0  0  0  0  0  0  0  0  0  0
  140.2560   71.7760  224.7770 N   0  0  0  0  0  0  0  0  0  0  0  0
  140.4880   71.1930  225.9650 C   0  0  0  0  0  0  0  0  0  0  0  0
  141.1980   71.8450  226.9550 C   0  0  0  0  0  0  0  0  0  0  0  0
  141.3890   71.1710  228.1420 C   0  0  0  0  0  0  0  0  0  0  0  0
  140.9030   69.9130  228.3430 C   0  0  0  0  0  0  0  0  0  0  0  0
  140.1980   69.2890  227.3350 C   0  0  0  0  0  0  0  0  0  0  0  0
  139.9790   69.9180  226.1300 C   0  0  0  0  0  0  0  0  0  0  0  0
  139.2770   69.3160  225.1060 C   0  0  0  0  0  0  0  0  0  0  0  0
  138.8490   68.1470  225.3470 O   0  0  0  0  0  0  0  0  0  0  0  0
  139.0540   69.9270  223.9110 N   0  0  0  0  0  0  0  0  0  0  0  0
  138.3120   69.2570  222.8610 C   0  0  0  0  0  0  0  0  0  0  0  0
  136.9180   69.0230  223.2400 C   0  0  0  0  0  0  0  0  0  0  0  0
  136.3650   69.8570  224.2200 C   0  0  0  0  0  0  0  0  0  0  0  0
  135.0380   69.6910  224.6230 C   0  0  0  0  0  0  0  0  0  0  0  0
  134.2640   68.7090  224.0660 C   0  0  0  0  0  0  0  0  0  0  0  0
  134.8000   67.9190  223.1340 N   0  0  0  0  0  0  0  0  0  0  0  0
  136.0800   68.0700  222.7340 C   0  0  0  0  0  0  0  0  0  0  0  0
  141.7960   73.1640  221.1730 C   0  0  0  0  0  0  0  0  0  0  0  0
  143.0570   73.5650  220.7840 C   0  0  0  0  0  0  0  0  0  0  0  0
  144.1610   70.6230  219.5498 H   0  0  0  0  0  0  0  0  0  0  0  0
  141.8913   69.9419  220.2645 H   0  0  0  0  0  0  0  0  0  0  0  0
  139.4090   70.8295  220.7920 H   0  0  0  0  0  0  0  0  0  0  0  0
  138.8480   72.8643  222.5395 H   0  0  0  0  0  0  0  0  0  0  0  0
  141.5943   72.8597  226.8022 H   0  0  0  0  0  0  0  0  0  0  0  0
  141.9499   71.6623  228.9507 H   0  0  0  0  0  0  0  0  0  0  0  0
  141.0718   69.3999  229.3013 H   0  0  0  0  0  0  0  0  0  0  0  0
  139.8051   68.2743  227.4962 H   0  0  0  0  0  0  0  0  0  0  0  0
  138.3341   69.8819  221.9560 H   0  0  0  0  0  0  0  0  0  0  0  0
  138.7842   68.2800  222.6808 H   0  0  0  0  0  0  0  0  0  0  0  0
  136.9796   70.6477  224.6751 H   0  0  0  0  0  0  0  0  0  0  0  0
  134.6128   70.3528  225.3919 H   0  0  0  0  0  0  0  0  0  0  0  0
  133.2188   68.5736  224.3811 H   0  0  0  0  0  0  0  0  0  0  0  0
  136.4686   67.3909  221.9608 H   0  0  0  0  0  0  0  0  0  0  0  0
  141.1285   73.9050  221.6371 H   0  0  0  0  0  0  0  0  0  0  0  0
  143.3723   74.6069  220.9422 H   0  0  0  0  0  0  0  0  0  0  0  0
  1  2  3  0
  2  3  1  0
  3  4  2  0
  4  5  1  0
  5  6  2  0
  6  7  1  0
  7  8  2  0
  8  9  1  0
  9 10  2  0
 10 11  1  0
 11 12  2  0
 12 13  1  0
 13 14  2  0
 14 15  1  0
 15 16  2  0
 16 17  1  0
 17 18  2  0
 17 19  1  0
 19 20  1  0
 20 21  1  0
 21 22  2  0
 22 23  1  0
 23 24  2  0
 24 25  1  0
 25 26  2  0
  6 27  1  0
 27 28  2  0
 28  3  1  0
 19  9  1  0
 26 21  1  0
 16 11  1  0
  4 29  1  0
  5 30  1  0
  7 31  1  0
  8 32  1  0
 12 33  1  0
 13 34  1  0
 14 35  1  0
 15 36  1  0
 20 37  1  0
 20 38  1  0
 22 39  1  0
 23 40  1  0
 24 41  1  0
 26 42  1  0
 27 43  1  0
 28 44  1  0
M  END
>  <smiles>  (44) 
N#Cc1ccc(/C=C/c2nc3ccccc3c(=O)n2Cc2cccnc2)cc1

>  <score_type>  (44) 
oracle

>  <origin>  (44) 
autodockgpu

>  <m_score__min__energy>  (44) 
-8.8599999999999994

>  <m_primary>  (44) 
energy

>  <rmsd>  (44) 
11.549064960420234

>  <m_score__min__rmsd>  (44) 
11.549064960420234

>  <meeko>  (44) 
{"free_energy": -7.91, "intermolecular_energy": -9.7, "internal_energy": -1.1, "cluster_size": 33, "cluster_id": 2, "rank_in_cluster": 25}

>  <energy>  (44) 
-7.62

>  <cluster_rmsd>  (44) 
0.0

>  <cluster>  (44) 
3

$$$$

     RDKit          3D

 44 47  0  0  0  0  0  0  0  0999 V2000
  145.9520   73.0340  218.7730 N   0  0  0  0  0  0  0  0  0  0  0  0
  144.9610   73.0500  219.3680 C   0  0  0  0  0  0  0  0  0  0  0  0
  143.7310   73.0520  220.1060 C   0  0  0  0  0  0  0  0  0  0  0  0
  143.2290   71.8420  220.5650 C   0  0  0  0  0  0  0  0  0  0  0  0
  142.0360   71.8040  221.2870 C   0  0  0  0  0  0  0  0  0  0  0  0
  141.3140   72.9430  221.5740 C   0  0  0  0  0  0  0  0  0  0  0  0
  140.0660   72.9380  222.3240 C   0  0  0  0  0  0  0  0  0  0  0  0
  139.2790   71.8940  222.4480 C   0  0  0  0  0  0  0  0  0  0  0  0
  139.4090   71.0000  223.6020 C   0  0  0  0  0  0  0  0  0  0  0  0
  140.0450   71.5220  224.6780 N   0  0  0  0  0  0  0  0  0  0  0  0
  140.2630   70.8190  225.8020 C   0  0  0  0  0  0  0  0  0  0  0  0
  140.9150   71.3810  226.8810 C   0  0  0  0  0  0  0  0  0  0  0  0
  141.0970   70.5860  227.9930 C   0  0  0  0  0  0  0  0  0  0  0  0
  140.6550   69.2960  228.0370 C   0  0  0  0  0  0  0  0  0  0  0  0
  140.0060   68.7640  226.9420 C   0  0  0  0  0  0  0  0  0  0  0  0
  139.8000   69.5150  225.8070 C   0  0  0  0  0  0  0  0  0  0  0  0
  139.1540   69.0070  224.6990 C   0  0  0  0  0  0  0  0  0  0  0  0
  138.7660   67.8040  224.7940 O   0  0  0  0  0  0  0  0  0  0  0  0
  138.9430   69.7390  223.5720 N   0  0  0  0  0  0  0  0  0  0  0  0
  138.2610   69.1650  222.4290 C   0  0  0  0  0  0  0  0  0  0  0  0
  139.1530   68.3340  221.6200 C   0  0  0  0  0  0  0  0  0  0  0  0
  140.0450   68.9870  220.7600 C   0  0  0  0  0  0  0  0  0  0  0  0
  140.9270   68.2530  219.9640 C   0  0  0  0  0  0  0  0  0  0  0  0
  140.9290   66.8850  220.0150 C   0  0  0  0  0  0  0  0  0  0  0  0
  140.0750   66.2720  220.8380 N   0  0  0  0  0  0  0  0  0  0  0  0
  139.2190   66.9690  221.6120 C   0  0  0  0  0  0  0  0  0  0  0  0
  141.8420   74.1340  221.1020 C   0  0  0  0  0  0  0  0  0  0  0  0
  143.0190   74.1990  220.3860 C   0  0  0  0  0  0  0  0  0  0  0  0
  143.7742   70.9092  220.3586 H   0  0  0  0  0  0  0  0  0  0  0  0
  141.6586   70.8326  221.6392 H   0  0  0  0  0  0  0  0  0  0  0  0
  139.7619   73.8715  222.8201 H   0  0  0  0  0  0  0  0  0  0  0  0
  138.5176   71.6893  221.6810 H   0  0  0  0  0  0  0  0  0  0  0  0
  141.2746   72.4202  226.8550 H   0  0  0  0  0  0  0  0  0  0  0  0
  141.6134   71.0039  228.8697 H   0  0  0  0  0  0  0  0  0  0  0  0
  140.8147   68.6853  228.9379 H   0  0  0  0  0  0  0  0  0  0  0  0
  139.6479   67.7245  226.9764 H   0  0  0  0  0  0  0  0  0  0  0  0
  137.4262   68.5451  222.7879 H   0  0  0  0  0  0  0  0  0  0  0  0
  137.9003   69.9908  221.7982 H   0  0  0  0  0  0  0  0  0  0  0  0
  140.0509   70.0859  220.7112 H   0  0  0  0  0  0  0  0  0  0  0  0
  141.6236   68.7767  219.2927 H   0  0  0  0  0  0  0  0  0  0  0  0
  141.6211   66.3019  219.3897 H   0  0  0  0  0  0  0  0  0  0  0  0
  138.5385   66.4101  222.2712 H   0  0  0  0  0  0  0  0  0  0  0  0
  141.2988   75.0682  221.3073 H   0  0  0  0  0  0  0  0  0  0  0  0
  143.3923   75.1727  220.0359 H   0  0  0  0  0  0  0  0  0  0  0  0
  1  2  3  0
  2  3  1  0
  3  4  2  0
  4  5  1  0
  5  6  2  0
  6  7  1  0
  7  8  2  0
  8  9  1  0
  9 10  2  0
 10 11  1  0
 11 12  2  0
 12 13  1  0
 13 14  2  0
 14 15  1  0
 15 16  2  0
 16 17  1  0
 17 18  2  0
 17 19  1  0
 19 20  1  0
 20 21  1  0
 21 22  2  0
 22 23  1  0
 23 24  2  0
 24 25  1  0
 25 26  2  0
  6 27  1  0
 27 28  2  0
 28  3  1  0
 19  9  1  0
 26 21  1  0
 16 11  1  0
  4 29  1  0
  5 30  1  0
  7 31  1  0
  8 32  1  0
 12 33  1  0
 13 34  1  0
 14 35  1  0
 15 36  1  0
 20 37  1  0
 20 38  1  0
 22 39  1  0
 23 40  1  0
 24 41  1  0
 26 42  1  0
 27 43  1  0
 28 44  1  0
M  END
>  <smiles>  (45) 
N#Cc1ccc(/C=C/c2nc3ccccc3c(=O)n2Cc2cccnc2)cc1

>  <score_type>  (45) 
oracle

>  <origin>  (45) 
autodockgpu

>  <m_score__min__energy>  (45) 
-8.8599999999999994

>  <m_primary>  (45) 
energy

>  <rmsd>  (45) 
11.141832372317065

>  <m_score__min__rmsd>  (45) 
11.141832372317065

>  <meeko>  (45) 
{"free_energy": -7.64, "intermolecular_energy": -9.43, "internal_energy": -1.49, "cluster_size": 33, "cluster_id": 2, "rank_in_cluster": 32}

>  <energy>  (45) 
-7.54

>  <cluster_rmsd>  (45) 
0.16

>  <cluster>  (45) 
3

$$$$

     RDKit          3D

 44 47  0  0  0  0  0  0  0  0999 V2000
  146.0830   72.9610  219.3780 N   0  0  0  0  0  0  0  0  0  0  0  0
  145.0170   72.6700  219.7210 C   0  0  0  0  0  0  0  0  0  0  0  0
  143.7000   72.3150  220.1620 C   0  0  0  0  0  0  0  0  0  0  0  0
  142.9280   73.2810  220.7940 C   0  0  0  0  0  0  0  0  0  0  0  0
  141.6410   72.9740  221.2370 C   0  0  0  0  0  0  0  0  0  0  0  0
  141.0860   71.7230  221.0710 C   0  0  0  0  0  0  0  0  0  0  0  0
  139.7470   71.3700  221.5220 C   0  0  0  0  0  0  0  0  0  0  0  0
  139.2470   71.6970  222.6920 C   0  0  0  0  0  0  0  0  0  0  0  0
  139.4600   70.8340  223.8570 C   0  0  0  0  0  0  0  0  0  0  0  0
  139.9880   71.4410  224.9460 N   0  0  0  0  0  0  0  0  0  0  0  0
  140.2640   70.7790  226.0820 C   0  0  0  0  0  0  0  0  0  0  0  0
  140.8030   71.4280  227.1750 C   0  0  0  0  0  0  0  0  0  0  0  0
  141.0550   70.6690  228.2990 C   0  0  0  0  0  0  0  0  0  0  0  0
  140.7880   69.3330  228.3410 C   0  0  0  0  0  0  0  0  0  0  0  0
  140.2490   68.7130  227.2320 C   0  0  0  0  0  0  0  0  0  0  0  0
  139.9780   69.4250  226.0850 C   0  0  0  0  0  0  0  0  0  0  0  0
  139.4400   68.8300  224.9630 C   0  0  0  0  0  0  0  0  0  0  0  0
  139.2120   67.5860  225.0580 O   0  0  0  0  0  0  0  0  0  0  0  0
  139.1680   69.5220  223.8240 N   0  0  0  0  0  0  0  0  0  0  0  0
  138.6030   68.8560  222.6660 C   0  0  0  0  0  0  0  0  0  0  0  0
  137.1900   68.5280  222.8600 C   0  0  0  0  0  0  0  0  0  0  0  0
  136.5650   67.7490  221.8780 C   0  0  0  0  0  0  0  0  0  0  0  0
  135.2200   67.3950  222.0050 C   0  0  0  0  0  0  0  0  0  0  0  0
  134.4970   67.8080  223.0910 C   0  0  0  0  0  0  0  0  0  0  0  0
  135.1010   68.5510  224.0210 N   0  0  0  0  0  0  0  0  0  0  0  0
  136.4000   68.8990  223.9110 C   0  0  0  0  0  0  0  0  0  0  0  0
  141.8820   70.7820  220.4370 C   0  0  0  0  0  0  0  0  0  0  0  0
  143.1570   71.0600  219.9910 C   0  0  0  0  0  0  0  0  0  0  0  0
  143.3328   74.2924  220.9460 H   0  0  0  0  0  0  0  0  0  0  0  0
  141.0495   73.7562  221.7353 H   0  0  0  0  0  0  0  0  0  0  0  0
  139.1112   70.7903  220.8366 H   0  0  0  0  0  0  0  0  0  0  0  0
  138.6649   72.6243  222.7978 H   0  0  0  0  0  0  0  0  0  0  0  0
  141.0224   72.5056  227.1505 H   0  0  0  0  0  0  0  0  0  0  0  0
  141.4839   71.1561  229.1872 H   0  0  0  0  0  0  0  0  0  0  0  0
  141.0004   68.7536  229.2516 H   0  0  0  0  0  0  0  0  0  0  0  0
  140.0329   67.6349  227.2649 H   0  0  0  0  0  0  0  0  0  0  0  0
  138.6975   69.5189  221.7933 H   0  0  0  0  0  0  0  0  0  0  0  0
  139.1529   67.9159  222.5116 H   0  0  0  0  0  0  0  0  0  0  0  0
  137.1375   67.4137  221.0006 H   0  0  0  0  0  0  0  0  0  0  0  0
  134.7396   66.7814  221.2286 H   0  0  0  0  0  0  0  0  0  0  0  0
  133.4372   67.5326  223.1957 H   0  0  0  0  0  0  0  0  0  0  0  0
  136.8455   69.5125  224.7080 H   0  0  0  0  0  0  0  0  0  0  0  0
  141.4795   69.7700  220.2830 H   0  0  0  0  0  0  0  0  0  0  0  0
  143.7451   70.2739  219.4949 H   0  0  0  0  0  0  0  0  0  0  0  0
  1  2  3  0
  2  3  1  0
  3  4  2  0
  4  5  1  0
  5  6  2  0
  6  7  1  0
  7  8  2  0
  8  9  1  0
  9 10  2  0
 10 11  1  0
 11 12  2  0
 12 13  1  0
 13 14  2  0
 14 15  1  0
 15 16  2  0
 16 17  1  0
 17 18  2  0
 17 19  1  0
 19 20  1  0
 20 21  1  0
 21 22  2  0
 22 23  1  0
 23 24  2  0
 24 25  1  0
 25 26  2  0
  6 27  1  0
 27 28  2  0
 28  3  1  0
 19  9  1  0
 26 21  1  0
 16 11  1  0
  4 29  1  0
  5 30  1  0
  7 31  1  0
  8 32  1  0
 12 33  1  0
 13 34  1  0
 14 35  1  0
 15 36  1  0
 20 37  1  0
 20 38  1  0
 22 39  1  0
 23 40  1  0
 24 41  1  0
 26 42  1  0
 27 43  1  0
 28 44  1  0
M  END
>  <smiles>  (46) 
N#Cc1ccc(/C=C/c2nc3ccccc3c(=O)n2Cc2cccnc2)cc1

>  <score_type>  (46) 
oracle

>  <origin>  (46) 
autodockgpu

>  <m_score__min__energy>  (46) 
-8.8599999999999994

>  <m_primary>  (46) 
energy

>  <rmsd>  (46) 
11.842908983416992

>  <m_score__min__rmsd>  (46) 
11.842908983416992

>  <meeko>  (46) 
{"free_energy": -7.99, "intermolecular_energy": -9.78, "internal_energy": -1.04, "cluster_size": 33, "cluster_id": 2, "rank_in_cluster": 23}

>  <energy>  (46) 
-7.54

>  <cluster_rmsd>  (46) 
0.0

>  <cluster>  (46) 
4

$$$$

     RDKit          3D

 44 47  0  0  0  0  0  0  0  0999 V2000
  146.3030   73.3700  218.8130 N   0  0  0  0  0  0  0  0  0  0  0  0
  145.2890   73.3060  219.3650 C   0  0  0  0  0  0  0  0  0  0  0  0
  144.0250   73.2150  220.0380 C   0  0  0  0  0  0  0  0  0  0  0  0
  143.6050   71.9750  220.4980 C   0  0  0  0  0  0  0  0  0  0  0  0
  142.3820   71.8470  221.1580 C   0  0  0  0  0  0  0  0  0  0  0  0
  141.5500   72.9240  221.3780 C   0  0  0  0  0  0  0  0  0  0  0  0
  140.2680   72.8240  222.0620 C   0  0  0  0  0  0  0  0  0  0  0  0
  139.5990   71.7070  222.2240 C   0  0  0  0  0  0  0  0  0  0  0  0
  139.5450   71.0580  223.5370 C   0  0  0  0  0  0  0  0  0  0  0  0
  140.2920   71.6360  224.5070 N   0  0  0  0  0  0  0  0  0  0  0  0
  140.3660   71.1440  225.7550 C   0  0  0  0  0  0  0  0  0  0  0  0
  141.1380   71.7590  226.7210 C   0  0  0  0  0  0  0  0  0  0  0  0
  141.1560   71.1840  227.9740 C   0  0  0  0  0  0  0  0  0  0  0  0
  140.4450   70.0560  228.2600 C   0  0  0  0  0  0  0  0  0  0  0  0
  139.6830   69.4660  227.2730 C   0  0  0  0  0  0  0  0  0  0  0  0
  139.6310   69.9990  226.0040 C   0  0  0  0  0  0  0  0  0  0  0  0
  138.8770   69.4290  225.0000 C   0  0  0  0  0  0  0  0  0  0  0  0
  138.2370   68.3820  225.3210 O   0  0  0  0  0  0  0  0  0  0  0  0
  138.8170   69.9470  223.7430 N   0  0  0  0  0  0  0  0  0  0  0  0
  138.0120   69.3140  222.7170 C   0  0  0  0  0  0  0  0  0  0  0  0
  138.7160   68.2020  222.0780 C   0  0  0  0  0  0  0  0  0  0  0  0
  138.8060   66.9990  222.7880 C   0  0  0  0  0  0  0  0  0  0  0  0
  139.4610   65.8960  222.2330 C   0  0  0  0  0  0  0  0  0  0  0  0
  140.0230   65.9810  220.9880 C   0  0  0  0  0  0  0  0  0  0  0  0
  139.9320   67.1330  220.3190 N   0  0  0  0  0  0  0  0  0  0  0  0
  139.3020   68.2050  220.8440 C   0  0  0  0  0  0  0  0  0  0  0  0
  141.9990   74.1480  220.9070 C   0  0  0  0  0  0  0  0  0  0  0  0
  143.2030   74.3010  220.2520 C   0  0  0  0  0  0  0  0  0  0  0  0
  144.2385   71.0894  220.3418 H   0  0  0  0  0  0  0  0  0  0  0  0
  142.0716   70.8538  221.5145 H   0  0  0  0  0  0  0  0  0  0  0  0
  139.8312   73.7473  222.4703 H   0  0  0  0  0  0  0  0  0  0  0  0
  139.0753   71.2547  221.3689 H   0  0  0  0  0  0  0  0  0  0  0  0
  141.7144   72.6695  226.5000 H   0  0  0  0  0  0  0  0  0  0  0  0
  141.7615   71.6487  228.7661 H   0  0  0  0  0  0  0  0  0  0  0  0
  140.4789   69.6202  229.2694 H   0  0  0  0  0  0  0  0  0  0  0  0
  139.1085   68.5565  227.5028 H   0  0  0  0  0  0  0  0  0  0  0  0
  137.0875   68.9329  223.1754 H   0  0  0  0  0  0  0  0  0  0  0  0
  137.7919   70.0660  221.9450 H   0  0  0  0  0  0  0  0  0  0  0  0
  138.3581   66.9211  223.7897 H   0  0  0  0  0  0  0  0  0  0  0  0
  139.5251   64.9553  222.7995 H   0  0  0  0  0  0  0  0  0  0  0  0
  140.5401   65.1163  220.5466 H   0  0  0  0  0  0  0  0  0  0  0  0
  139.2582   69.1283  220.2477 H   0  0  0  0  0  0  0  0  0  0  0  0
  141.3678   75.0354  221.0623 H   0  0  0  0  0  0  0  0  0  0  0  0
  143.5096   75.2963  219.8979 H   0  0  0  0  0  0  0  0  0  0  0  0
  1  2  3  0
  2  3  1  0
  3  4  2  0
  4  5  1  0
  5  6  2  0
  6  7  1  0
  7  8  2  0
  8  9  1  0
  9 10  2  0
 10 11  1  0
 11 12  2  0
 12 13  1  0
 13 14  2  0
 14 15  1  0
 15 16  2  0
 16 17  1  0
 17 18  2  0
 17 19  1  0
 19 20  1  0
 20 21  1  0
 21 22  2  0
 22 23  1  0
 23 24  2  0
 24 25  1  0
 25 26  2  0
  6 27  1  0
 27 28  2  0
 28  3  1  0
 19  9  1  0
 26 21  1  0
 16 11  1  0
  4 29  1  0
  5 30  1  0
  7 31  1  0
  8 32  1  0
 12 33  1  0
 13 34  1  0
 14 35  1  0
 15 36  1  0
 20 37  1  0
 20 38  1  0
 22 39  1  0
 23 40  1  0
 24 41  1  0
 26 42  1  0
 27 43  1  0
 28 44  1  0
M  END
>  <smiles>  (47) 
N#Cc1ccc(/C=C/c2nc3ccccc3c(=O)n2Cc2cccnc2)cc1

>  <score_type>  (47) 
oracle

>  <origin>  (47) 
autodockgpu

>  <m_score__min__energy>  (47) 
-8.8599999999999994

>  <m_primary>  (47) 
energy

>  <rmsd>  (47) 
11.548504916898569

>  <m_score__min__rmsd>  (47) 
11.548504916898569

>  <meeko>  (47) 
{"free_energy": -7.86, "intermolecular_energy": -9.65, "internal_energy": -1.18, "cluster_size": 33, "cluster_id": 2, "rank_in_cluster": 26}

>  <energy>  (47) 
-7.53

>  <cluster_rmsd>  (47) 
0.13

>  <cluster>  (47) 
4

$$$$

     RDKit          3D

 44 47  0  0  0  0  0  0  0  0999 V2000
  145.9880   73.0120  219.2720 N   0  0  0  0  0  0  0  0  0  0  0  0
  144.9440   72.9950  219.7690 C   0  0  0  0  0  0  0  0  0  0  0  0
  143.6560   72.9670  220.4000 C   0  0  0  0  0  0  0  0  0  0  0  0
  142.9730   74.1640  220.5700 C   0  0  0  0  0  0  0  0  0  0  0  0
  141.7180   74.1760  221.1790 C   0  0  0  0  0  0  0  0  0  0  0  0
  141.1090   73.0260  221.6320 C   0  0  0  0  0  0  0  0  0  0  0  0
  139.8010   73.0050  222.2720 C   0  0  0  0  0  0  0  0  0  0  0  0
  139.1050   71.9160  222.5030 C   0  0  0  0  0  0  0  0  0  0  0  0
  139.3040   71.1570  223.7400 C   0  0  0  0  0  0  0  0  0  0  0  0
  140.0460   71.7730  224.6920 N   0  0  0  0  0  0  0  0  0  0  0  0
  140.3370   71.1960  225.8700 C   0  0  0  0  0  0  0  0  0  0  0  0
  141.0960   71.8520  226.8190 C   0  0  0  0  0  0  0  0  0  0  0  0
  141.3460   71.1830  227.9990 C   0  0  0  0  0  0  0  0  0  0  0  0
  140.8700   69.9260  228.2300 C   0  0  0  0  0  0  0  0  0  0  0  0
  140.1140   69.2980  227.2620 C   0  0  0  0  0  0  0  0  0  0  0  0
  139.8350   69.9210  226.0660 C   0  0  0  0  0  0  0  0  0  0  0  0
  139.0820   69.3160  225.0820 C   0  0  0  0  0  0  0  0  0  0  0  0
  138.6660   68.1480  225.3500 O   0  0  0  0  0  0  0  0  0  0  0  0
  138.7990   69.9210  223.8970 N   0  0  0  0  0  0  0  0  0  0  0  0
  138.0050   69.2470  222.8890 C   0  0  0  0  0  0  0  0  0  0  0  0
  138.7920   68.2710  222.1340 C   0  0  0  0  0  0  0  0  0  0  0  0
  139.6080   68.7550  221.1040 C   0  0  0  0  0  0  0  0  0  0  0  0
  140.3890   67.8770  220.3490 C   0  0  0  0  0  0  0  0  0  0  0  0
  140.3630   66.5330  220.6060 C   0  0  0  0  0  0  0  0  0  0  0  0
  139.5810   66.0820  221.5900 N   0  0  0  0  0  0  0  0  0  0  0  0
  138.8230   66.9190  222.3270 C   0  0  0  0  0  0  0  0  0  0  0  0
  141.8170   71.8490  221.4470 C   0  0  0  0  0  0  0  0  0  0  0  0
  143.0580   71.8080  220.8480 C   0  0  0  0  0  0  0  0  0  0  0  0
  143.4231   75.1059  220.2233 H   0  0  0  0  0  0  0  0  0  0  0  0
  141.1966   75.1367  221.3018 H   0  0  0  0  0  0  0  0  0  0  0  0
  139.3668   73.9667  222.5829 H   0  0  0  0  0  0  0  0  0  0  0  0
  138.3677   71.5713  221.7630 H   0  0  0  0  0  0  0  0  0  0  0  0
  141.4849   72.8655  226.6413 H   0  0  0  0  0  0  0  0  0  0  0  0
  141.9468   71.6777  228.7764 H   0  0  0  0  0  0  0  0  0  0  0  0
  141.0872   69.4170  229.1806 H   0  0  0  0  0  0  0  0  0  0  0  0
  139.7284   68.2848  227.4482 H   0  0  0  0  0  0  0  0  0  0  0  0
  137.1719   68.7257  223.3831 H   0  0  0  0  0  0  0  0  0  0  0  0
  137.6365   70.0058  222.1830 H   0  0  0  0  0  0  0  0  0  0  0  0
  139.6341   69.8333  220.8882 H   0  0  0  0  0  0  0  0  0  0  0  0
  141.0283   68.2678  219.5437 H   0  0  0  0  0  0  0  0  0  0  0  0
  140.9749   65.8373  220.0131 H   0  0  0  0  0  0  0  0  0  0  0  0
  138.1976   66.4912  223.1244 H   0  0  0  0  0  0  0  0  0  0  0  0
  141.3690   70.9060  221.7934 H   0  0  0  0  0  0  0  0  0  0  0  0
  143.5746   70.8444  220.7266 H   0  0  0  0  0  0  0  0  0  0  0  0
  1  2  3  0
  2  3  1  0
  3  4  2  0
  4  5  1  0
  5  6  2  0
  6  7  1  0
  7  8  2  0
  8  9  1  0
  9 10  2  0
 10 11  1  0
 11 12  2  0
 12 13  1  0
 13 14  2  0
 14 15  1  0
 15 16  2  0
 16 17  1  0
 17 18  2  0
 17 19  1  0
 19 20  1  0
 20 21  1  0
 21 22  2  0
 22 23  1  0
 23 24  2  0
 24 25  1  0
 25 26  2  0
  6 27  1  0
 27 28  2  0
 28  3  1  0
 19  9  1  0
 26 21  1  0
 16 11  1  0
  4 29  1  0
  5 30  1  0
  7 31  1  0
  8 32  1  0
 12 33  1  0
 13 34  1  0
 14 35  1  0
 15 36  1  0
 20 37  1  0
 20 38  1  0
 22 39  1  0
 23 40  1  0
 24 41  1  0
 26 42  1  0
 27 43  1  0
 28 44  1  0
M  END
>  <smiles>  (48) 
N#Cc1ccc(/C=C/c2nc3ccccc3c(=O)n2Cc2cccnc2)cc1

>  <score_type>  (48) 
oracle

>  <origin>  (48) 
autodockgpu

>  <m_score__min__energy>  (48) 
-8.8599999999999994

>  <m_primary>  (48) 
energy

>  <rmsd>  (48) 
11.050852773647206

>  <m_score__min__rmsd>  (48) 
11.050852773647206

>  <meeko>  (48) 
{"free_energy": -7.81, "intermolecular_energy": -9.6, "internal_energy": -1.47, "cluster_size": 33, "cluster_id": 2, "rank_in_cluster": 27}

>  <energy>  (48) 
-7.48

>  <cluster_rmsd>  (48) 
0.28

>  <cluster>  (48) 
4

$$$$

     RDKit          3D

 44 47  0  0  0  0  0  0  0  0999 V2000
  146.3040   73.0170  219.5310 N   0  0  0  0  0  0  0  0  0  0  0  0
  145.2320   72.7240  219.8500 C   0  0  0  0  0  0  0  0  0  0  0  0
  143.9040   72.3450  220.2390 C   0  0  0  0  0  0  0  0  0  0  0  0
  143.0880   73.2990  220.8320 C   0  0  0  0  0  0  0  0  0  0  0  0
  141.7900   72.9680  221.2230 C   0  0  0  0  0  0  0  0  0  0  0  0
  141.2680   71.7050  221.0440 C   0  0  0  0  0  0  0  0  0  0  0  0
  139.9180   71.3270  221.4410 C   0  0  0  0  0  0  0  0  0  0  0  0
  139.3550   71.6740  222.5760 C   0  0  0  0  0  0  0  0  0  0  0  0
  139.5290   70.8480  223.7730 C   0  0  0  0  0  0  0  0  0  0  0  0
  140.0510   71.4820  224.8510 N   0  0  0  0  0  0  0  0  0  0  0  0
  140.2930   70.8540  226.0130 C   0  0  0  0  0  0  0  0  0  0  0  0
  140.8260   71.5300  227.0930 C   0  0  0  0  0  0  0  0  0  0  0  0
  141.0420   70.8060  228.2470 C   0  0  0  0  0  0  0  0  0  0  0  0
  140.7460   69.4770  228.3300 C   0  0  0  0  0  0  0  0  0  0  0  0
  140.2140   68.8310  227.2340 C   0  0  0  0  0  0  0  0  0  0  0  0
  139.9790   69.5070  226.0580 C   0  0  0  0  0  0  0  0  0  0  0  0
  139.4480   68.8840  224.9480 C   0  0  0  0  0  0  0  0  0  0  0  0
  139.1930   67.6490  225.0810 O   0  0  0  0  0  0  0  0  0  0  0  0
  139.2110   69.5420  223.7800 N   0  0  0  0  0  0  0  0  0  0  0  0
  138.6520   68.8480  222.6360 C   0  0  0  0  0  0  0  0  0  0  0  0
  137.2350   68.5380  222.8240 C   0  0  0  0  0  0  0  0  0  0  0  0
  136.6030   67.7720  221.8350 C   0  0  0  0  0  0  0  0  0  0  0  0
  135.2520   67.4360  221.9560 C   0  0  0  0  0  0  0  0  0  0  0  0
  134.5310   67.8540  223.0410 C   0  0  0  0  0  0  0  0  0  0  0  0
  135.1420   68.5840  223.9770 N   0  0  0  0  0  0  0  0  0  0  0  0
  136.4460   68.9140  223.8730 C   0  0  0  0  0  0  0  0  0  0  0  0
  142.1080   70.7770  220.4490 C   0  0  0  0  0  0  0  0  0  0  0  0
  143.3940   71.0780  220.0530 C   0  0  0  0  0  0  0  0  0  0  0  0
  143.4660   74.3192  220.9942 H   0  0  0  0  0  0  0  0  0  0  0  0
  141.1622   73.7412  221.6899 H   0  0  0  0  0  0  0  0  0  0  0  0
  139.3314   70.7103  220.7442 H   0  0  0  0  0  0  0  0  0  0  0  0
  138.7491   72.5906  222.6278 H   0  0  0  0  0  0  0  0  0  0  0  0
  141.0682   72.6014  227.0353 H   0  0  0  0  0  0  0  0  0  0  0  0
  141.4651   71.3149  229.1256 H   0  0  0  0  0  0  0  0  0  0  0  0
  140.9302   68.9251  229.2636 H   0  0  0  0  0  0  0  0  0  0  0  0
  139.9738   67.7596  227.3004 H   0  0  0  0  0  0  0  0  0  0  0  0
  138.7615   69.4847  221.7457 H   0  0  0  0  0  0  0  0  0  0  0  0
  139.1950   67.8991  222.5147 H   0  0  0  0  0  0  0  0  0  0  0  0
  137.1740   67.4332  220.9580 H   0  0  0  0  0  0  0  0  0  0  0  0
  134.7659   66.8326  221.1752 H   0  0  0  0  0  0  0  0  0  0  0  0
  133.4670   67.5933  223.1404 H   0  0  0  0  0  0  0  0  0  0  0  0
  136.8969   69.5172  224.6748 H   0  0  0  0  0  0  0  0  0  0  0  0
  141.7325   69.7561  220.2856 H   0  0  0  0  0  0  0  0  0  0  0  0
  144.0173   70.3016  219.5854 H   0  0  0  0  0  0  0  0  0  0  0  0
  1  2  3  0
  2  3  1  0
  3  4  2  0
  4  5  1  0
  5  6  2  0
  6  7  1  0
  7  8  2  0
  8  9  1  0
  9 10  2  0
 10 11  1  0
 11 12  2  0
 12 13  1  0
 13 14  2  0
 14 15  1  0
 15 16  2  0
 16 17  1  0
 17 18  2  0
 17 19  1  0
 19 20  1  0
 20 21  1  0
 21 22  2  0
 22 23  1  0
 23 24  2  0
 24 25  1  0
 25 26  2  0
  6 27  1  0
 27 28  2  0
 28  3  1  0
 19  9  1  0
 26 21  1  0
 16 11  1  0
  4 29  1  0
  5 30  1  0
  7 31  1  0
  8 32  1  0
 12 33  1  0
 13 34  1  0
 14 35  1  0
 15 36  1  0
 20 37  1  0
 20 38  1  0
 22 39  1  0
 23 40  1  0
 24 41  1  0
 26 42  1  0
 27 43  1  0
 28 44  1  0
M  END
>  <smiles>  (49) 
N#Cc1ccc(/C=C/c2nc3ccccc3c(=O)n2Cc2cccnc2)cc1

>  <score_type>  (49) 
oracle

>  <origin>  (49) 
autodockgpu

>  <m_score__min__energy>  (49) 
-8.8599999999999994

>  <m_primary>  (49) 
energy

>  <rmsd>  (49) 
11.760630632194172

>  <m_score__min__rmsd>  (49) 
11.760630632194172

>  <meeko>  (49) 
{"free_energy": -8.02, "intermolecular_energy": -9.81, "internal_energy": -1.05, "cluster_size": 33, "cluster_id": 2, "rank_in_cluster": 22}

>  <energy>  (49) 
-7.39

>  <cluster_rmsd>  (49) 
1.05

>  <cluster>  (49) 
4

$$$$

     RDKit          3D

 44 47  0  0  0  0  0  0  0  0999 V2000
  145.9640   72.9860  219.3190 N   0  0  0  0  0  0  0  0  0  0  0  0
  144.9130   72.9860  219.8020 C   0  0  0  0  0  0  0  0  0  0  0  0
  143.6180   72.9840  220.4180 C   0  0  0  0  0  0  0  0  0  0  0  0
  143.0870   71.7750  220.8460 C   0  0  0  0  0  0  0  0  0  0  0  0
  141.8300   71.7340  221.4500 C   0  0  0  0  0  0  0  0  0  0  0  0
  141.0700   72.8680  221.6450 C   0  0  0  0  0  0  0  0  0  0  0  0
  139.7550   72.8580  222.2710 C   0  0  0  0  0  0  0  0  0  0  0  0
  139.0790   71.7700  222.5600 C   0  0  0  0  0  0  0  0  0  0  0  0
  139.3630   71.0250  223.7890 C   0  0  0  0  0  0  0  0  0  0  0  0
  140.0330   71.7090  224.7470 N   0  0  0  0  0  0  0  0  0  0  0  0
  140.3880   71.1560  225.9180 C   0  0  0  0  0  0  0  0  0  0  0  0
  141.0720   71.8820  226.8740 C   0  0  0  0  0  0  0  0  0  0  0  0
  141.3960   71.2320  228.0470 C   0  0  0  0  0  0  0  0  0  0  0  0
  141.0610   69.9290  228.2660 C   0  0  0  0  0  0  0  0  0  0  0  0
  140.3780   69.2310  227.2910 C   0  0  0  0  0  0  0  0  0  0  0  0
  140.0300   69.8320  226.1020 C   0  0  0  0  0  0  0  0  0  0  0  0
  139.3470   69.1570  225.1120 C   0  0  0  0  0  0  0  0  0  0  0  0
  139.0620   67.9480  225.3690 O   0  0  0  0  0  0  0  0  0  0  0  0
  138.9970   69.7390  223.9330 N   0  0  0  0  0  0  0  0  0  0  0  0
  138.2800   68.9930  222.9190 C   0  0  0  0  0  0  0  0  0  0  0  0
  136.8790   68.7820  223.2830 C   0  0  0  0  0  0  0  0  0  0  0  0
  136.3610   69.5480  224.3350 C   0  0  0  0  0  0  0  0  0  0  0  0
  135.0290   69.4000  224.7290 C   0  0  0  0  0  0  0  0  0  0  0  0
  134.2150   68.5030  224.0930 C   0  0  0  0  0  0  0  0  0  0  0  0
  134.7180   67.7770  223.0910 N   0  0  0  0  0  0  0  0  0  0  0  0
  136.0020   67.9110  222.7000 C   0  0  0  0  0  0  0  0  0  0  0  0
  141.6290   74.0580  221.2060 C   0  0  0  0  0  0  0  0  0  0  0  0
  142.8690   74.1260  220.6070 C   0  0  0  0  0  0  0  0  0  0  0  0
  143.6594   70.8458  220.7084 H   0  0  0  0  0  0  0  0  0  0  0  0
  141.4316   70.7639  221.7820 H   0  0  0  0  0  0  0  0  0  0  0  0
  139.2973   73.8272  222.5184 H   0  0  0  0  0  0  0  0  0  0  0  0
  138.2946   71.4158  221.8750 H   0  0  0  0  0  0  0  0  0  0  0  0
  141.3467   72.9340  226.7069 H   0  0  0  0  0  0  0  0  0  0  0  0
  141.9408   71.7816  228.8287 H   0  0  0  0  0  0  0  0  0  0  0  0
  141.3328   69.4380  229.2120 H   0  0  0  0  0  0  0  0  0  0  0  0
  140.1077   68.1792  227.4662 H   0  0  0  0  0  0  0  0  0  0  0  0
  138.3208   69.5511  221.9720 H   0  0  0  0  0  0  0  0  0  0  0  0
  138.7580   68.0072  222.8204 H   0  0  0  0  0  0  0  0  0  0  0  0
  137.0073   70.2709  224.8544 H   0  0  0  0  0  0  0  0  0  0  0  0
  134.6323   70.0081  225.5553 H   0  0  0  0  0  0  0  0  0  0  0  0
  133.1660   68.3819  224.4010 H   0  0  0  0  0  0  0  0  0  0  0  0
  136.3618   67.2868  221.8688 H   0  0  0  0  0  0  0  0  0  0  0  0
  141.0585   74.9887  221.3414 H   0  0  0  0  0  0  0  0  0  0  0  0
  143.2636   75.0985  220.2775 H   0  0  0  0  0  0  0  0  0  0  0  0
  1  2  3  0
  2  3  1  0
  3  4  2  0
  4  5  1  0
  5  6  2  0
  6  7  1  0
  7  8  2  0
  8  9  1  0
  9 10  2  0
 10 11  1  0
 11 12  2  0
 12 13  1  0
 13 14  2  0
 14 15  1  0
 15 16  2  0
 16 17  1  0
 17 18  2  0
 17 19  1  0
 19 20  1  0
 20 21  1  0
 21 22  2  0
 22 23  1  0
 23 24  2  0
 24 25  1  0
 25 26  2  0
  6 27  1  0
 27 28  2  0
 28  3  1  0
 19  9  1  0
 26 21  1  0
 16 11  1  0
  4 29  1  0
  5 30  1  0
  7 31  1  0
  8 32  1  0
 12 33  1  0
 13 34  1  0
 14 35  1  0
 15 36  1  0
 20 37  1  0
 20 38  1  0
 22 39  1  0
 23 40  1  0
 24 41  1  0
 26 42  1  0
 27 43  1  0
 28 44  1  0
M  END
>  <smiles>  (50) 
N#Cc1ccc(/C=C/c2nc3ccccc3c(=O)n2Cc2cccnc2)cc1

>  <score_type>  (50) 
oracle

>  <origin>  (50) 
autodockgpu

>  <m_score__min__energy>  (50) 
-8.8599999999999994

>  <m_primary>  (50) 
energy

>  <rmsd>  (50) 
11.637299267081463

>  <m_score__min__rmsd>  (50) 
11.637299267081463

>  <meeko>  (50) 
{"free_energy": -8.21, "intermolecular_energy": -10.0, "internal_energy": -1.21, "cluster_size": 33, "cluster_id": 2, "rank_in_cluster": 14}

>  <energy>  (50) 
-7.12

>  <cluster_rmsd>  (50) 
0.87

>  <cluster>  (50) 
4

$$$$
