
     RDKit          3D

 52 55  0  0  0  0  0  0  0  0999 V2000
  140.3530   72.4270  220.7310 O   0  0  0  0  0  0  0  0  0  0  0  0
  140.1000   72.7940  221.9080 C   0  0  0  0  0  0  0  0  0  0  0  0
  139.7920   74.1840  222.0880 N   0  0  0  0  0  0  0  0  0  0  0  0
  139.8070   75.0100  220.8980 C   0  0  0  0  0  0  0  0  0  0  0  0
  141.1780   75.3790  220.4870 C   0  0  0  0  0  0  0  0  0  0  0  0
  142.2120   74.7690  220.8740 O   0  0  0  0  0  0  0  0  0  0  0  0
  141.3230   76.4860  219.6060 N   0  0  0  0  0  0  0  0  0  0  0  0
  141.4560   76.4760  218.1470 C   0  0  0  0  0  0  0  0  0  0  0  0
  142.5820   77.4620  217.9470 C   0  0  0  0  0  0  0  0  0  0  0  0
  142.2150   78.5660  218.9130 C   0  0  0  0  0  0  0  0  0  0  0  0
  141.3720   77.8890  219.9670 C   0  0  1  0  0  0  0  0  0  0  0  0
  139.9910   78.5100  219.9060 C   0  0  0  0  0  0  0  0  0  0  0  0
  139.5870   79.0690  221.1200 O   0  0  0  0  0  0  0  0  0  0  0  0
  140.5700   79.4350  222.0360 C   0  0  0  0  0  0  0  0  0  0  0  0
  140.8520   78.6320  223.1350 C   0  0  0  0  0  0  0  0  0  0  0  0
  141.8360   78.9940  224.0550 C   0  0  0  0  0  0  0  0  0  0  0  0
  142.5570   80.1620  223.8940 C   0  0  0  0  0  0  0  0  0  0  0  0
  142.2870   80.9700  222.8050 C   0  0  0  0  0  0  0  0  0  0  0  0
  141.3100   80.6030  221.8980 C   0  0  0  0  0  0  0  0  0  0  0  0
  140.1120   71.8770  223.0430 C   0  0  0  0  0  0  0  0  0  0  0  0
  139.6080   70.6080  222.8450 C   0  0  0  0  0  0  0  0  0  0  0  0
  139.5690   69.6600  223.8430 C   0  0  0  0  0  0  0  0  0  0  0  0
  140.0700   70.0340  225.0900 C   0  0  0  0  0  0  0  0  0  0  0  0
  140.0440   69.1060  226.1120 C   0  0  0  0  0  0  0  0  0  0  0  0
  140.5420   69.4900  227.3410 C   0  0  0  0  0  0  0  0  0  0  0  0
  140.5380   68.3550  228.6780 Cl  0  0  0  0  0  0  0  0  0  0  0  0
  141.0540   70.7680  227.5570 C   0  0  0  0  0  0  0  0  0  0  0  0
  141.0650   71.6730  226.5120 C   0  0  0  0  0  0  0  0  0  0  0  0
  140.5770   71.3180  225.2810 C   0  0  0  0  0  0  0  0  0  0  0  0
  140.5900   72.2170  224.2560 N   0  0  0  0  0  0  0  0  0  0  0  0
  139.5720   74.5550  223.0430 H   0  0  0  0  0  0  0  0  0  0  0  0
  139.3289   74.4557  220.0769 H   0  0  0  0  0  0  0  0  0  0  0  0
  139.2635   75.9386  221.1267 H   0  0  0  0  0  0  0  0  0  0  0  0
  141.7245   75.4767  217.7738 H   0  0  0  0  0  0  0  0  0  0  0  0
  140.5317   76.7316  217.6082 H   0  0  0  0  0  0  0  0  0  0  0  0
  143.5539   77.0148  218.2029 H   0  0  0  0  0  0  0  0  0  0  0  0
  142.6906   77.8033  216.9069 H   0  0  0  0  0  0  0  0  0  0  0  0
  143.1183   79.0049  219.3618 H   0  0  0  0  0  0  0  0  0  0  0  0
  141.6802   79.3905  218.4188 H   0  0  0  0  0  0  0  0  0  0  0  0
  141.7711   78.0022  220.9858 H   0  0  0  0  0  0  0  0  0  0  0  0
  139.9963   79.3006  219.1412 H   0  0  0  0  0  0  0  0  0  0  0  0
  139.2806   77.7061  219.6629 H   0  0  0  0  0  0  0  0  0  0  0  0
  140.2909   77.6973  223.2814 H   0  0  0  0  0  0  0  0  0  0  0  0
  142.0403   78.3429  224.9178 H   0  0  0  0  0  0  0  0  0  0  0  0
  143.3332   80.4443  224.6205 H   0  0  0  0  0  0  0  0  0  0  0  0
  142.8492   81.9043  222.6602 H   0  0  0  0  0  0  0  0  0  0  0  0
  141.1116   81.2585  221.0372 H   0  0  0  0  0  0  0  0  0  0  0  0
  139.2217   70.3428  221.8498 H   0  0  0  0  0  0  0  0  0  0  0  0
  139.1614   68.6539  223.6650 H   0  0  0  0  0  0  0  0  0  0  0  0
  139.6403   68.0953  225.9524 H   0  0  0  0  0  0  0  0  0  0  0  0
  141.4440   71.0527  228.5454 H   0  0  0  0  0  0  0  0  0  0  0  0
  141.4679   72.6844  226.6692 H   0  0  0  0  0  0  0  0  0  0  0  0
  1  2  2  0
  2  3  1  0
  3  4  1  0
  4  5  1  0
  5  6  2  0
  5  7  1  0
  7  8  1  0
  8  9  1  0
  9 10  1  0
 10 11  1  0
 11 12  1  0
 12 13  1  0
 13 14  1  0
 14 15  2  0
 15 16  1  0
 16 17  2  0
 17 18  1  0
 18 19  2  0
  2 20  1  0
 20 21  2  0
 21 22  1  0
 22 23  2  0
 23 24  1  0
 24 25  2  0
 25 26  1  0
 25 27  1  0
 27 28  2  0
 28 29  1  0
 29 30  2  0
 11  7  1  0
 19 14  1  0
 30 20  1  0
 29 23  1  0
  3 31  1  0
  4 32  1  0
  4 33  1  0
  8 34  1  0
  8 35  1  0
  9 36  1  0
  9 37  1  0
 10 38  1  0
 10 39  1  0
 11 40  1  1
 12 41  1  0
 12 42  1  0
 15 43  1  0
 16 44  1  0
 17 45  1  0
 18 46  1  0
 19 47  1  0
 21 48  1  0
 22 49  1  0
 24 50  1  0
 27 51  1  0
 28 52  1  0
M  END
>  <smiles>  (1) 
O=C(NCC(=O)N1CCC[C@H]1COc1ccccc1)c1ccc2cc(Cl)ccc2n1

>  <score_type>  (1) 
oracle

>  <origin>  (1) 
autodockgpu

>  <m_score__min__energy>  (1) 
-8.3900000000000006

>  <m_primary>  (1) 
energy

>  <rmsd>  (1) 
1.9311107147869426

>  <m_score__min__rmsd>  (1) 
1.9311107147869426

>  <meeko>  (1) 
{"free_energy": -8.14, "intermolecular_energy": -10.23, "internal_energy": -1.62, "cluster_size": 23, "cluster_id": 1, "rank_in_cluster": 4}

>  <energy>  (1) 
-8.39

>  <cluster_rmsd>  (1) 
0.0

>  <cluster>  (1) 
1

$$$$

     RDKit          3D

 52 55  0  0  0  0  0  0  0  0999 V2000
  141.3580   73.2930  220.4150 O   0  0  0  0  0  0  0  0  0  0  0  0
  140.7270   74.0520  221.1960 C   0  0  0  0  0  0  0  0  0  0  0  0
  139.7550   73.4250  222.0430 N   0  0  0  0  0  0  0  0  0  0  0  0
  139.6050   71.9910  221.9070 C   0  0  0  0  0  0  0  0  0  0  0  0
  139.5480   71.3040  223.2150 C   0  0  0  0  0  0  0  0  0  0  0  0
  140.4600   71.3760  224.0820 O   0  0  0  0  0  0  0  0  0  0  0  0
  138.3930   70.5220  223.4960 N   0  0  0  0  0  0  0  0  0  0  0  0
  137.1080   70.5140  222.7940 C   0  0  0  0  0  0  0  0  0  0  0  0
  136.1400   70.5280  223.9530 C   0  0  0  0  0  0  0  0  0  0  0  0
  136.7680   69.5380  224.9060 C   0  0  0  0  0  0  0  0  0  0  0  0
  138.2370   69.5470  224.5570 C   0  0  1  0  0  0  0  0  0  0  0  0
  138.5910   68.1560  224.0670 C   0  0  0  0  0  0  0  0  0  0  0  0
  139.4430   67.4700  224.9350 O   0  0  0  0  0  0  0  0  0  0  0  0
  139.9700   68.1610  226.0230 C   0  0  0  0  0  0  0  0  0  0  0  0
  139.5780   67.8500  227.3190 C   0  0  0  0  0  0  0  0  0  0  0  0
  140.1030   68.5390  228.4130 C   0  0  0  0  0  0  0  0  0  0  0  0
  141.0290   69.5500  228.2320 C   0  0  0  0  0  0  0  0  0  0  0  0
  141.4270   69.8690  226.9470 C   0  0  0  0  0  0  0  0  0  0  0  0
  140.9010   69.1810  225.8700 C   0  0  0  0  0  0  0  0  0  0  0  0
  140.9550   75.4920  221.2550 C   0  0  0  0  0  0  0  0  0  0  0  0
  141.8200   76.0410  220.3310 C   0  0  0  0  0  0  0  0  0  0  0  0
  142.1100   77.3870  220.2930 C   0  0  0  0  0  0  0  0  0  0  0  0
  141.4840   78.1960  221.2410 C   0  0  0  0  0  0  0  0  0  0  0  0
  141.7550   79.5490  221.2290 C   0  0  0  0  0  0  0  0  0  0  0  0
  141.1290   80.3380  222.1740 C   0  0  0  0  0  0  0  0  0  0  0  0
  141.4300   82.0650  222.2090 Cl  0  0  0  0  0  0  0  0  0  0  0  0
  140.2520   79.7990  223.1130 C   0  0  0  0  0  0  0  0  0  0  0  0
  140.0040   78.4390  223.0980 C   0  0  0  0  0  0  0  0  0  0  0  0
  140.6120   77.6330  222.1710 C   0  0  0  0  0  0  0  0  0  0  0  0
  140.3620   76.2930  222.1630 N   0  0  0  0  0  0  0  0  0  0  0  0
  139.1940   74.0000  222.7170 H   0  0  0  0  0  0  0  0  0  0  0  0
  138.6746   71.7836  221.3581 H   0  0  0  0  0  0  0  0  0  0  0  0
  140.4847   71.6114  221.3667 H   0  0  0  0  0  0  0  0  0  0  0  0
  136.9899   71.4047  222.1594 H   0  0  0  0  0  0  0  0  0  0  0  0
  136.9752   69.6666  222.1053 H   0  0  0  0  0  0  0  0  0  0  0  0
  136.0731   71.5288  224.4046 H   0  0  0  0  0  0  0  0  0  0  0  0
  135.1081   70.2738  223.6693 H   0  0  0  0  0  0  0  0  0  0  0  0
  136.6153   69.8533  225.9487 H   0  0  0  0  0  0  0  0  0  0  0  0
  136.3253   68.5352  224.8150 H   0  0  0  0  0  0  0  0  0  0  0  0
  138.8877   69.8049  225.4056 H   0  0  0  0  0  0  0  0  0  0  0  0
  137.6624   67.5766  223.9573 H   0  0  0  0  0  0  0  0  0  0  0  0
  139.1206   68.2703  223.1097 H   0  0  0  0  0  0  0  0  0  0  0  0
  138.8429   67.0488  227.4852 H   0  0  0  0  0  0  0  0  0  0  0  0
  139.7769   68.2752  229.4299 H   0  0  0  0  0  0  0  0  0  0  0  0
  141.4420   70.0913  229.0959 H   0  0  0  0  0  0  0  0  0  0  0  0
  142.1623   70.6703  226.7819 H   0  0  0  0  0  0  0  0  0  0  0  0
  141.2310   69.4504  224.8558 H   0  0  0  0  0  0  0  0  0  0  0  0
  142.2972   75.3772  219.5951 H   0  0  0  0  0  0  0  0  0  0  0  0
  142.8039   77.8049  219.5487 H   0  0  0  0  0  0  0  0  0  0  0  0
  142.4460   79.9842  220.4920 H   0  0  0  0  0  0  0  0  0  0  0  0
  139.7637   80.4467  223.8560 H   0  0  0  0  0  0  0  0  0  0  0  0
  139.3144   78.0010  223.8346 H   0  0  0  0  0  0  0  0  0  0  0  0
  1  2  2  0
  2  3  1  0
  3  4  1  0
  4  5  1  0
  5  6  2  0
  5  7  1  0
  7  8  1  0
  8  9  1  0
  9 10  1  0
 10 11  1  0
 11 12  1  0
 12 13  1  0
 13 14  1  0
 14 15  2  0
 15 16  1  0
 16 17  2  0
 17 18  1  0
 18 19  2  0
  2 20  1  0
 20 21  2  0
 21 22  1  0
 22 23  2  0
 23 24  1  0
 24 25  2  0
 25 26  1  0
 25 27  1  0
 27 28  2  0
 28 29  1  0
 29 30  2  0
 11  7  1  0
 19 14  1  0
 30 20  1  0
 29 23  1  0
  3 31  1  0
  4 32  1  0
  4 33  1  0
  8 34  1  0
  8 35  1  0
  9 36  1  0
  9 37  1  0
 10 38  1  0
 10 39  1  0
 11 40  1  1
 12 41  1  0
 12 42  1  0
 15 43  1  0
 16 44  1  0
 17 45  1  0
 18 46  1  0
 19 47  1  0
 21 48  1  0
 22 49  1  0
 24 50  1  0
 27 51  1  0
 28 52  1  0
M  END
>  <smiles>  (2) 
O=C(NCC(=O)N1CCC[C@H]1COc1ccccc1)c1ccc2cc(Cl)ccc2n1

>  <score_type>  (2) 
oracle

>  <origin>  (2) 
autodockgpu

>  <m_score__min__energy>  (2) 
-8.3900000000000006

>  <m_primary>  (2) 
energy

>  <rmsd>  (2) 
8.37086732205491

>  <m_score__min__rmsd>  (2) 
8.37086732205491

>  <meeko>  (2) 
{"free_energy": -8.29, "intermolecular_energy": -10.38, "internal_energy": -1.55, "cluster_size": 9, "cluster_id": 3, "rank_in_cluster": 1}

>  <energy>  (2) 
-8.28

>  <cluster_rmsd>  (2) 
1.46

>  <cluster>  (2) 
1

$$$$

     RDKit          3D

 52 55  0  0  0  0  0  0  0  0999 V2000
  141.1010   73.6060  222.0030 O   0  0  0  0  0  0  0  0  0  0  0  0
  140.1510   72.8020  222.1940 C   0  0  0  0  0  0  0  0  0  0  0  0
  139.0690   72.8620  221.2550 N   0  0  0  0  0  0  0  0  0  0  0  0
  139.1850   73.8400  220.1930 C   0  0  0  0  0  0  0  0  0  0  0  0
  138.8750   75.2100  220.6540 C   0  0  0  0  0  0  0  0  0  0  0  0
  137.7040   75.6280  220.8640 O   0  0  0  0  0  0  0  0  0  0  0  0
  139.9690   76.0950  220.8660 N   0  0  0  0  0  0  0  0  0  0  0  0
  140.7380   76.3100  222.0940 C   0  0  0  0  0  0  0  0  0  0  0  0
  140.8220   77.8170  222.1280 C   0  0  0  0  0  0  0  0  0  0  0  0
  141.1220   78.1530  220.6850 C   0  0  0  0  0  0  0  0  0  0  0  0
  140.5690   76.9890  219.8970 C   0  0  1  0  0  0  0  0  0  0  0  0
  141.7380   76.3230  219.1990 C   0  0  0  0  0  0  0  0  0  0  0  0
  141.7320   74.9330  219.3270 O   0  0  0  0  0  0  0  0  0  0  0  0
  142.8890   74.3090  219.7880 C   0  0  0  0  0  0  0  0  0  0  0  0
  144.0280   75.0490  220.0780 C   0  0  0  0  0  0  0  0  0  0  0  0
  145.1900   74.4290  220.5410 C   0  0  0  0  0  0  0  0  0  0  0  0
  145.2330   73.0590  220.7230 C   0  0  0  0  0  0  0  0  0  0  0  0
  144.1060   72.3100  220.4380 C   0  0  0  0  0  0  0  0  0  0  0  0
  142.9600   72.9340  219.9800 C   0  0  0  0  0  0  0  0  0  0  0  0
  140.1310   71.8520  223.3020 C   0  0  0  0  0  0  0  0  0  0  0  0
  139.5820   70.6090  223.0680 C   0  0  0  0  0  0  0  0  0  0  0  0
  139.5090   69.6340  224.0380 C   0  0  0  0  0  0  0  0  0  0  0  0
  140.0220   69.9540  225.2950 C   0  0  0  0  0  0  0  0  0  0  0  0
  139.9630   68.9980  226.2890 C   0  0  0  0  0  0  0  0  0  0  0  0
  140.4730   69.3280  227.5290 C   0  0  0  0  0  0  0  0  0  0  0  0
  140.4290   68.1560  228.8320 Cl  0  0  0  0  0  0  0  0  0  0  0  0
  141.0310   70.5790  227.7810 C   0  0  0  0  0  0  0  0  0  0  0  0
  141.0740   71.5140  226.7630 C   0  0  0  0  0  0  0  0  0  0  0  0
  140.5750   71.2130  225.5230 C   0  0  0  0  0  0  0  0  0  0  0  0
  140.6200   72.1400  224.5250 N   0  0  0  0  0  0  0  0  0  0  0  0
  138.2470   72.2200  221.3580 H   0  0  0  0  0  0  0  0  0  0  0  0
  140.2147   73.8216  219.8064 H   0  0  0  0  0  0  0  0  0  0  0  0
  138.4571   73.5756  219.4118 H   0  0  0  0  0  0  0  0  0  0  0  0
  140.2097   75.9158  222.9746 H   0  0  0  0  0  0  0  0  0  0  0  0
  141.7142   75.8032  222.1097 H   0  0  0  0  0  0  0  0  0  0  0  0
  139.8696   78.2623  222.4515 H   0  0  0  0  0  0  0  0  0  0  0  0
  141.5712   78.2015  222.8358 H   0  0  0  0  0  0  0  0  0  0  0  0
  140.6248   79.0899  220.3935 H   0  0  0  0  0  0  0  0  0  0  0  0
  142.1973   78.3023  220.5074 H   0  0  0  0  0  0  0  0  0  0  0  0
  139.8233   77.2839  219.1441 H   0  0  0  0  0  0  0  0  0  0  0  0
  141.6977   76.5763  218.1293 H   0  0  0  0  0  0  0  0  0  0  0  0
  142.6583   76.6924  219.6751 H   0  0  0  0  0  0  0  0  0  0  0  0
  144.0143   76.1403  219.9408 H   0  0  0  0  0  0  0  0  0  0  0  0
  146.0799   75.0362  220.7631 H   0  0  0  0  0  0  0  0  0  0  0  0
  146.1493   72.5725  221.0888 H   0  0  0  0  0  0  0  0  0  0  0  0
  144.1211   71.2187  220.5755 H   0  0  0  0  0  0  0  0  0  0  0  0
  142.0736   72.3209  219.7599 H   0  0  0  0  0  0  0  0  0  0  0  0
  139.1863   70.3871  222.0659 H   0  0  0  0  0  0  0  0  0  0  0  0
  139.0666   68.6484  223.8310 H   0  0  0  0  0  0  0  0  0  0  0  0
  139.5246   68.0070  226.0997 H   0  0  0  0  0  0  0  0  0  0  0  0
  141.4321   70.8201  228.7765 H   0  0  0  0  0  0  0  0  0  0  0  0
  141.5116   72.5057  226.9500 H   0  0  0  0  0  0  0  0  0  0  0  0
  1  2  2  0
  2  3  1  0
  3  4  1  0
  4  5  1  0
  5  6  2  0
  5  7  1  0
  7  8  1  0
  8  9  1  0
  9 10  1  0
 10 11  1  0
 11 12  1  0
 12 13  1  0
 13 14  1  0
 14 15  2  0
 15 16  1  0
 16 17  2  0
 17 18  1  0
 18 19  2  0
  2 20  1  0
 20 21  2  0
 21 22  1  0
 22 23  2  0
 23 24  1  0
 24 25  2  0
 25 26  1  0
 25 27  1  0
 27 28  2  0
 28 29  1  0
 29 30  2  0
 11  7  1  0
 19 14  1  0
 30 20  1  0
 29 23  1  0
  3 31  1  0
  4 32  1  0
  4 33  1  0
  8 34  1  0
  8 35  1  0
  9 36  1  0
  9 37  1  0
 10 38  1  0
 10 39  1  0
 11 40  1  6
 12 41  1  0
 12 42  1  0
 15 43  1  0
 16 44  1  0
 17 45  1  0
 18 46  1  0
 19 47  1  0
 21 48  1  0
 22 49  1  0
 24 50  1  0
 27 51  1  0
 28 52  1  0
M  END
>  <smiles>  (3) 
O=C(NCC(=O)N1CCC[C@H]1COc1ccccc1)c1ccc2cc(Cl)ccc2n1

>  <score_type>  (3) 
oracle

>  <origin>  (3) 
autodockgpu

>  <m_score__min__energy>  (3) 
-8.3900000000000006

>  <m_primary>  (3) 
energy

>  <rmsd>  (3) 
2.4617298575359214

>  <m_score__min__rmsd>  (3) 
2.4617298575359214

>  <meeko>  (3) 
{"free_energy": -7.33, "intermolecular_energy": -9.42, "internal_energy": -2.02, "cluster_size": 9, "cluster_id": 2, "rank_in_cluster": 6}

>  <energy>  (3) 
-8.17

>  <cluster_rmsd>  (3) 
0.66

>  <cluster>  (3) 
1

$$$$

     RDKit          3D

 52 55  0  0  0  0  0  0  0  0999 V2000
  137.5490   71.2300  221.0760 O   0  0  0  0  0  0  0  0  0  0  0  0
  138.1160   71.7640  222.0640 C   0  0  0  0  0  0  0  0  0  0  0  0
  138.2860   73.1870  222.0070 N   0  0  0  0  0  0  0  0  0  0  0  0
  137.7880   73.8520  220.8210 C   0  0  0  0  0  0  0  0  0  0  0  0
  138.6770   73.6640  219.6560 C   0  0  0  0  0  0  0  0  0  0  0  0
  138.4900   72.7910  218.7660 O   0  0  0  0  0  0  0  0  0  0  0  0
  139.8050   74.5250  219.5460 N   0  0  0  0  0  0  0  0  0  0  0  0
  139.8470   75.9140  219.0820 C   0  0  0  0  0  0  0  0  0  0  0  0
  141.0510   75.8840  218.1720 C   0  0  0  0  0  0  0  0  0  0  0  0
  142.0370   75.0630  218.9720 C   0  0  0  0  0  0  0  0  0  0  0  0
  141.1810   74.2070  219.8750 C   0  0  1  0  0  0  0  0  0  0  0  0
  141.4980   74.6030  221.3040 C   0  0  0  0  0  0  0  0  0  0  0  0
  140.3590   74.8860  222.0600 O   0  0  0  0  0  0  0  0  0  0  0  0
  140.0730   76.2190  222.3440 C   0  0  0  0  0  0  0  0  0  0  0  0
  138.7580   76.6600  222.4330 C   0  0  0  0  0  0  0  0  0  0  0  0
  138.4650   77.9940  222.7180 C   0  0  0  0  0  0  0  0  0  0  0  0
  139.4810   78.9120  222.9180 C   0  0  0  0  0  0  0  0  0  0  0  0
  140.7930   78.4860  222.8320 C   0  0  0  0  0  0  0  0  0  0  0  0
  141.0730   77.1620  222.5500 C   0  0  0  0  0  0  0  0  0  0  0  0
  138.5840   70.9990  223.2160 C   0  0  0  0  0  0  0  0  0  0  0  0
  138.1620   69.6910  223.3280 C   0  0  0  0  0  0  0  0  0  0  0  0
  138.5400   68.8750  224.3710 C   0  0  0  0  0  0  0  0  0  0  0  0
  139.3840   69.4300  225.3340 C   0  0  0  0  0  0  0  0  0  0  0  0
  139.7790   68.6380  226.3930 C   0  0  0  0  0  0  0  0  0  0  0  0
  140.6140   69.2000  227.3390 C   0  0  0  0  0  0  0  0  0  0  0  0
  141.1530   68.2450  228.7070 Cl  0  0  0  0  0  0  0  0  0  0  0  0
  141.0490   70.5200  227.2390 C   0  0  0  0  0  0  0  0  0  0  0  0
  140.6330   71.2860  226.1650 C   0  0  0  0  0  0  0  0  0  0  0  0
  139.8050   70.7530  225.2120 C   0  0  0  0  0  0  0  0  0  0  0  0
  139.3990   71.5140  224.1570 N   0  0  0  0  0  0  0  0  0  0  0  0
  138.7510   73.6940  222.7980 H   0  0  0  0  0  0  0  0  0  0  0  0
  136.7956   73.4446  220.5777 H   0  0  0  0  0  0  0  0  0  0  0  0
  137.7391   74.9297  221.0357 H   0  0  0  0  0  0  0  0  0  0  0  0
  138.9330   76.1830  218.5322 H   0  0  0  0  0  0  0  0  0  0  0  0
  139.9107   76.6577  219.8900 H   0  0  0  0  0  0  0  0  0  0  0  0
  140.8141   75.3995  217.2133 H   0  0  0  0  0  0  0  0  0  0  0  0
  141.4250   76.8827  217.9021 H   0  0  0  0  0  0  0  0  0  0  0  0
  142.6480   74.4348  218.3071 H   0  0  0  0  0  0  0  0  0  0  0  0
  142.7389   75.6924  219.5387 H   0  0  0  0  0  0  0  0  0  0  0  0
  141.3593   73.1283  219.7539 H   0  0  0  0  0  0  0  0  0  0  0  0
  142.0402   73.7752  221.7845 H   0  0  0  0  0  0  0  0  0  0  0  0
  142.1010   75.5221  221.2633 H   0  0  0  0  0  0  0  0  0  0  0  0
  137.9357   75.9464  222.2764 H   0  0  0  0  0  0  0  0  0  0  0  0
  137.4163   78.3192  222.7844 H   0  0  0  0  0  0  0  0  0  0  0  0
  139.2482   79.9635  223.1418 H   0  0  0  0  0  0  0  0  0  0  0  0
  141.6145   79.2007  222.9880 H   0  0  0  0  0  0  0  0  0  0  0  0
  142.1240   76.8436  222.4864 H   0  0  0  0  0  0  0  0  0  0  0  0
  137.4966   69.2829  222.5530 H   0  0  0  0  0  0  0  0  0  0  0  0
  138.1927   67.8337  224.4418 H   0  0  0  0  0  0  0  0  0  0  0  0
  139.4405   67.5951  226.4807 H   0  0  0  0  0  0  0  0  0  0  0  0
  141.7143   70.9471  228.0038 H   0  0  0  0  0  0  0  0  0  0  0  0
  140.9689   72.3296  226.0753 H   0  0  0  0  0  0  0  0  0  0  0  0
  1  2  2  0
  2  3  1  0
  3  4  1  0
  4  5  1  0
  5  6  2  0
  5  7  1  0
  7  8  1  0
  8  9  1  0
  9 10  1  0
 10 11  1  0
 11 12  1  0
 12 13  1  0
 13 14  1  0
 14 15  2  0
 15 16  1  0
 16 17  2  0
 17 18  1  0
 18 19  2  0
  2 20  1  0
 20 21  2  0
 21 22  1  0
 22 23  2  0
 23 24  1  0
 24 25  2  0
 25 26  1  0
 25 27  1  0
 27 28  2  0
 28 29  1  0
 29 30  2  0
 11  7  1  0
 19 14  1  0
 30 20  1  0
 29 23  1  0
  3 31  1  0
  4 32  1  0
  4 33  1  0
  8 34  1  0
  8 35  1  0
  9 36  1  0
  9 37  1  0
 10 38  1  0
 10 39  1  0
 11 40  1  1
 12 41  1  0
 12 42  1  0
 15 43  1  0
 16 44  1  0
 17 45  1  0
 18 46  1  0
 19 47  1  0
 21 48  1  0
 22 49  1  0
 24 50  1  0
 27 51  1  0
 28 52  1  0
M  END
>  <smiles>  (4) 
O=C(NCC(=O)N1CCC[C@H]1COc1ccccc1)c1ccc2cc(Cl)ccc2n1

>  <score_type>  (4) 
oracle

>  <origin>  (4) 
autodockgpu

>  <m_score__min__energy>  (4) 
-8.3900000000000006

>  <m_primary>  (4) 
energy

>  <rmsd>  (4) 
1.7438312701205316

>  <m_score__min__rmsd>  (4) 
1.7438312701205316

>  <meeko>  (4) 
{"free_energy": -6.95, "intermolecular_energy": -9.04, "internal_energy": -2.8, "cluster_size": 23, "cluster_id": 1, "rank_in_cluster": 21}

>  <energy>  (4) 
-8.14

>  <cluster_rmsd>  (4) 
1.04

>  <cluster>  (4) 
1

$$$$

     RDKit          3D

 52 55  0  0  0  0  0  0  0  0999 V2000
  141.8130   73.0900  220.5110 O   0  0  0  0  0  0  0  0  0  0  0  0
  141.1980   73.8460  221.3070 C   0  0  0  0  0  0  0  0  0  0  0  0
  140.3480   73.2040  222.2670 N   0  0  0  0  0  0  0  0  0  0  0  0
  140.2910   71.7570  222.2160 C   0  0  0  0  0  0  0  0  0  0  0  0
  139.6030   71.1800  223.3900 C   0  0  0  0  0  0  0  0  0  0  0  0
  139.7680   71.5920  224.5700 O   0  0  0  0  0  0  0  0  0  0  0  0
  138.7060   70.1000  223.1600 N   0  0  0  0  0  0  0  0  0  0  0  0
  138.9270   68.8880  222.3670 C   0  0  0  0  0  0  0  0  0  0  0  0
  137.6320   68.8010  221.5950 C   0  0  0  0  0  0  0  0  0  0  0  0
  136.6060   69.1330  222.6540 C   0  0  0  0  0  0  0  0  0  0  0  0
  137.3560   69.9620  223.6690 C   0  0  1  0  0  0  0  0  0  0  0  0
  137.3490   69.1890  224.9740 C   0  0  0  0  0  0  0  0  0  0  0  0
  138.4350   68.3220  225.1040 O   0  0  0  0  0  0  0  0  0  0  0  0
  139.3200   68.5290  226.1590 C   0  0  0  0  0  0  0  0  0  0  0  0
  139.2430   69.6780  226.9360 C   0  0  0  0  0  0  0  0  0  0  0  0
  140.1270   69.8900  227.9950 C   0  0  0  0  0  0  0  0  0  0  0  0
  141.1030   68.9580  228.2960 C   0  0  0  0  0  0  0  0  0  0  0  0
  141.1910   67.8100  227.5310 C   0  0  0  0  0  0  0  0  0  0  0  0
  140.3100   67.6090  226.4840 C   0  0  0  0  0  0  0  0  0  0  0  0
  141.3250   75.3000  221.2730 C   0  0  0  0  0  0  0  0  0  0  0  0
  142.0120   75.8570  220.2150 C   0  0  0  0  0  0  0  0  0  0  0  0
  142.1940   77.2150  220.0800 C   0  0  0  0  0  0  0  0  0  0  0  0
  141.6480   78.0280  221.0740 C   0  0  0  0  0  0  0  0  0  0  0  0
  141.8150   79.3950  220.9670 C   0  0  0  0  0  0  0  0  0  0  0  0
  141.2700   80.1870  221.9590 C   0  0  0  0  0  0  0  0  0  0  0  0
  141.4470   81.9300  221.8790 Cl  0  0  0  0  0  0  0  0  0  0  0  0
  140.5740   79.6390  223.0340 C   0  0  0  0  0  0  0  0  0  0  0  0
  140.4260   78.2670  223.1100 C   0  0  0  0  0  0  0  0  0  0  0  0
  140.9570   77.4570  222.1400 C   0  0  0  0  0  0  0  0  0  0  0  0
  140.8070   76.1040  222.2220 N   0  0  0  0  0  0  0  0  0  0  0  0
  139.8070   73.7770  222.9590 H   0  0  0  0  0  0  0  0  0  0  0  0
  139.7505   71.4563  221.3064 H   0  0  0  0  0  0  0  0  0  0  0  0
  141.3243   71.3799  222.2131 H   0  0  0  0  0  0  0  0  0  0  0  0
  139.7904   68.9984  221.6944 H   0  0  0  0  0  0  0  0  0  0  0  0
  139.1567   67.9936  222.9647 H   0  0  0  0  0  0  0  0  0  0  0  0
  137.6077   69.5318  220.7732 H   0  0  0  0  0  0  0  0  0  0  0  0
  137.4697   67.8254  221.1135 H   0  0  0  0  0  0  0  0  0  0  0  0
  135.7745   69.7087  222.2214 H   0  0  0  0  0  0  0  0  0  0  0  0
  136.1621   68.2309  223.1002 H   0  0  0  0  0  0  0  0  0  0  0  0
  136.9128   70.9547  223.8370 H   0  0  0  0  0  0  0  0  0  0  0  0
  137.3735   69.9077  225.8064 H   0  0  0  0  0  0  0  0  0  0  0  0
  136.4365   68.5749  224.9859 H   0  0  0  0  0  0  0  0  0  0  0  0
  138.4737   70.4321  226.7133 H   0  0  0  0  0  0  0  0  0  0  0  0
  140.0465   70.8077  228.5962 H   0  0  0  0  0  0  0  0  0  0  0  0
  141.7986   69.1274  229.1312 H   0  0  0  0  0  0  0  0  0  0  0  0
  141.9610   67.0570  227.7548 H   0  0  0  0  0  0  0  0  0  0  0  0
  140.3958   66.6888  225.8875 H   0  0  0  0  0  0  0  0  0  0  0  0
  142.4315   75.1894  219.4480 H   0  0  0  0  0  0  0  0  0  0  0  0
  142.7446   77.6396  219.2276 H   0  0  0  0  0  0  0  0  0  0  0  0
  142.3626   79.8373  220.1217 H   0  0  0  0  0  0  0  0  0  0  0  0
  140.1479   80.2895  223.8120 H   0  0  0  0  0  0  0  0  0  0  0  0
  139.8787   77.8222  223.9542 H   0  0  0  0  0  0  0  0  0  0  0  0
  1  2  2  0
  2  3  1  0
  3  4  1  0
  4  5  1  0
  5  6  2  0
  5  7  1  0
  7  8  1  0
  8  9  1  0
  9 10  1  0
 10 11  1  0
 11 12  1  0
 12 13  1  0
 13 14  1  0
 14 15  2  0
 15 16  1  0
 16 17  2  0
 17 18  1  0
 18 19  2  0
  2 20  1  0
 20 21  2  0
 21 22  1  0
 22 23  2  0
 23 24  1  0
 24 25  2  0
 25 26  1  0
 25 27  1  0
 27 28  2  0
 28 29  1  0
 29 30  2  0
 11  7  1  0
 19 14  1  0
 30 20  1  0
 29 23  1  0
  3 31  1  0
  4 32  1  0
  4 33  1  0
  8 34  1  0
  8 35  1  0
  9 36  1  0
  9 37  1  0
 10 38  1  0
 10 39  1  0
 11 40  1  1
 12 41  1  0
 12 42  1  0
 15 43  1  0
 16 44  1  0
 17 45  1  0
 18 46  1  0
 19 47  1  0
 21 48  1  0
 22 49  1  0
 24 50  1  0
 27 51  1  0
 28 52  1  0
M  END
>  <smiles>  (5) 
O=C(NCC(=O)N1CCC[C@H]1COc1ccccc1)c1ccc2cc(Cl)ccc2n1

>  <score_type>  (5) 
oracle

>  <origin>  (5) 
autodockgpu

>  <m_score__min__energy>  (5) 
-8.3900000000000006

>  <m_primary>  (5) 
energy

>  <rmsd>  (5) 
8.22591303673077

>  <m_score__min__rmsd>  (5) 
8.22591303673077

>  <meeko>  (5) 
{"free_energy": -7.95, "intermolecular_energy": -10.03, "internal_energy": -1.8, "cluster_size": 9, "cluster_id": 3, "rank_in_cluster": 5}

>  <energy>  (5) 
-8.1

>  <cluster_rmsd>  (5) 
0.95

>  <cluster>  (5) 
1

$$$$

     RDKit          3D

 52 55  0  0  0  0  0  0  0  0999 V2000
  139.8330   72.2880  220.5050 O   0  0  0  0  0  0  0  0  0  0  0  0
  139.5990   72.6750  221.6790 C   0  0  0  0  0  0  0  0  0  0  0  0
  139.1290   74.0220  221.8230 N   0  0  0  0  0  0  0  0  0  0  0  0
  138.9780   74.7890  220.6040 C   0  0  0  0  0  0  0  0  0  0  0  0
  139.0080   76.2460  220.8490 C   0  0  0  0  0  0  0  0  0  0  0  0
  138.0150   77.0050  220.6810 O   0  0  0  0  0  0  0  0  0  0  0  0
  140.2340   76.8110  221.3000 N   0  0  0  0  0  0  0  0  0  0  0  0
  140.8770   76.6620  222.6070 C   0  0  0  0  0  0  0  0  0  0  0  0
  141.2820   78.0860  222.9000 C   0  0  0  0  0  0  0  0  0  0  0  0
  141.8200   78.5480  221.5640 C   0  0  0  0  0  0  0  0  0  0  0  0
  141.1270   77.6710  220.5480 C   0  0  1  0  0  0  0  0  0  0  0  0
  142.1990   76.8570  219.8510 C   0  0  0  0  0  0  0  0  0  0  0  0
  141.9320   75.4870  219.8470 O   0  0  0  0  0  0  0  0  0  0  0  0
  142.9680   74.6130  220.1660 C   0  0  0  0  0  0  0  0  0  0  0  0
  144.2870   75.0490  220.1780 C   0  0  0  0  0  0  0  0  0  0  0  0
  145.3290   74.1780  220.4970 C   0  0  0  0  0  0  0  0  0  0  0  0
  145.0720   72.8560  220.8090 C   0  0  0  0  0  0  0  0  0  0  0  0
  143.7640   72.4090  220.8010 C   0  0  0  0  0  0  0  0  0  0  0  0
  142.7380   73.2800  220.4840 C   0  0  0  0  0  0  0  0  0  0  0  0
  139.7860   71.8180  222.8460 C   0  0  0  0  0  0  0  0  0  0  0  0
  139.3630   70.5080  222.7520 C   0  0  0  0  0  0  0  0  0  0  0  0
  139.4890   69.6110  223.7890 C   0  0  0  0  0  0  0  0  0  0  0  0
  140.0730   70.0810  224.9650 C   0  0  0  0  0  0  0  0  0  0  0  0
  140.2120   69.2050  226.0230 C   0  0  0  0  0  0  0  0  0  0  0  0
  140.7920   69.6850  227.1820 C   0  0  0  0  0  0  0  0  0  0  0  0
  140.9980   68.6200  228.5600 Cl  0  0  0  0  0  0  0  0  0  0  0  0
  141.2240   71.0050  227.2920 C   0  0  0  0  0  0  0  0  0  0  0  0
  141.0680   71.8550  226.2130 C   0  0  0  0  0  0  0  0  0  0  0  0
  140.4970   71.4060  225.0510 C   0  0  0  0  0  0  0  0  0  0  0  0
  140.3470   72.2510  223.9920 N   0  0  0  0  0  0  0  0  0  0  0  0
  138.9160   74.4060  222.7750 H   0  0  0  0  0  0  0  0  0  0  0  0
  139.7983   74.5288  219.9188 H   0  0  0  0  0  0  0  0  0  0  0  0
  137.9977   74.5414  220.1707 H   0  0  0  0  0  0  0  0  0  0  0  0
  140.1731   76.2800  223.3611 H   0  0  0  0  0  0  0  0  0  0  0  0
  141.7105   75.9443  222.6203 H   0  0  0  0  0  0  0  0  0  0  0  0
  140.4173   78.6902  223.2120 H   0  0  0  0  0  0  0  0  0  0  0  0
  142.0062   78.1781  223.7228 H   0  0  0  0  0  0  0  0  0  0  0  0
  141.5765   79.6070  221.3929 H   0  0  0  0  0  0  0  0  0  0  0  0
  142.9155   78.4669  221.5057 H   0  0  0  0  0  0  0  0  0  0  0  0
  140.5601   78.2372  219.7943 H   0  0  0  0  0  0  0  0  0  0  0  0
  142.2776   77.2011  218.8092 H   0  0  0  0  0  0  0  0  0  0  0  0
  143.1366   77.0062  220.4066 H   0  0  0  0  0  0  0  0  0  0  0  0
  144.5132   76.0971  219.9322 H   0  0  0  0  0  0  0  0  0  0  0  0
  146.3653   74.5468  220.5003 H   0  0  0  0  0  0  0  0  0  0  0  0
  145.8952   72.1708  221.0596 H   0  0  0  0  0  0  0  0  0  0  0  0
  143.5394   71.3606  221.0468 H   0  0  0  0  0  0  0  0  0  0  0  0
  141.7040   72.9048  220.4835 H   0  0  0  0  0  0  0  0  0  0  0  0
  138.9069   70.1666  221.8110 H   0  0  0  0  0  0  0  0  0  0  0  0
  139.1446   68.5706  223.6942 H   0  0  0  0  0  0  0  0  0  0  0  0
  139.8729   68.1614  225.9462 H   0  0  0  0  0  0  0  0  0  0  0  0
  141.6828   71.3658  228.2244 H   0  0  0  0  0  0  0  0  0  0  0  0
  141.4047   72.8995  226.2877 H   0  0  0  0  0  0  0  0  0  0  0  0
  1  2  2  0
  2  3  1  0
  3  4  1  0
  4  5  1  0
  5  6  2  0
  5  7  1  0
  7  8  1  0
  8  9  1  0
  9 10  1  0
 10 11  1  0
 11 12  1  0
 12 13  1  0
 13 14  1  0
 14 15  2  0
 15 16  1  0
 16 17  2  0
 17 18  1  0
 18 19  2  0
  2 20  1  0
 20 21  2  0
 21 22  1  0
 22 23  2  0
 23 24  1  0
 24 25  2  0
 25 26  1  0
 25 27  1  0
 27 28  2  0
 28 29  1  0
 29 30  2  0
 11  7  1  0
 19 14  1  0
 30 20  1  0
 29 23  1  0
  3 31  1  0
  4 32  1  0
  4 33  1  0
  8 34  1  0
  8 35  1  0
  9 36  1  0
  9 37  1  0
 10 38  1  0
 10 39  1  0
 11 40  1  6
 12 41  1  0
 12 42  1  0
 15 43  1  0
 16 44  1  0
 17 45  1  0
 18 46  1  0
 19 47  1  0
 21 48  1  0
 22 49  1  0
 24 50  1  0
 27 51  1  0
 28 52  1  0
M  END
>  <smiles>  (6) 
O=C(NCC(=O)N1CCC[C@H]1COc1ccccc1)c1ccc2cc(Cl)ccc2n1

>  <score_type>  (6) 
oracle

>  <origin>  (6) 
autodockgpu

>  <m_score__min__energy>  (6) 
-8.3900000000000006

>  <m_primary>  (6) 
energy

>  <rmsd>  (6) 
2.7501688737021595

>  <m_score__min__rmsd>  (6) 
2.7501688737021595

>  <meeko>  (6) 
{"free_energy": -7.87, "intermolecular_energy": -9.96, "internal_energy": -2.23, "cluster_size": 9, "cluster_id": 2, "rank_in_cluster": 4}

>  <energy>  (6) 
-8.06

>  <cluster_rmsd>  (6) 
1.2

>  <cluster>  (6) 
1

$$$$

     RDKit          3D

 52 55  0  0  0  0  0  0  0  0999 V2000
  140.3910   72.2550  220.8450 O   0  0  0  0  0  0  0  0  0  0  0  0
  140.0250   72.5900  222.0020 C   0  0  0  0  0  0  0  0  0  0  0  0
  139.5620   73.9380  222.1570 N   0  0  0  0  0  0  0  0  0  0  0  0
  139.5650   74.7650  220.9680 C   0  0  0  0  0  0  0  0  0  0  0  0
  140.8640   75.4390  220.7560 C   0  0  0  0  0  0  0  0  0  0  0  0
  141.8080   75.4150  221.5900 O   0  0  0  0  0  0  0  0  0  0  0  0
  141.0430   76.1510  219.5370 N   0  0  0  0  0  0  0  0  0  0  0  0
  140.3520   75.9540  218.2600 C   0  0  0  0  0  0  0  0  0  0  0  0
  141.5070   76.0140  217.2890 C   0  0  0  0  0  0  0  0  0  0  0  0
  142.3150   77.1740  217.8240 C   0  0  0  0  0  0  0  0  0  0  0  0
  141.9630   77.2430  219.2910 C   0  0  1  0  0  0  0  0  0  0  0  0
  141.2880   78.5800  219.5290 C   0  0  0  0  0  0  0  0  0  0  0  0
  140.5860   78.6330  220.7340 O   0  0  0  0  0  0  0  0  0  0  0  0
  141.2360   79.1460  221.8530 C   0  0  0  0  0  0  0  0  0  0  0  0
  141.1690   78.4910  223.0770 C   0  0  0  0  0  0  0  0  0  0  0  0
  141.8190   79.0000  224.2010 C   0  0  0  0  0  0  0  0  0  0  0  0
  142.5480   80.1730  224.1240 C   0  0  0  0  0  0  0  0  0  0  0  0
  142.6220   80.8350  222.9130 C   0  0  0  0  0  0  0  0  0  0  0  0
  141.9750   80.3220  221.8040 C   0  0  0  0  0  0  0  0  0  0  0  0
  140.0620   71.6750  223.1380 C   0  0  0  0  0  0  0  0  0  0  0  0
  139.5690   70.4010  222.9500 C   0  0  0  0  0  0  0  0  0  0  0  0
  139.5530   69.4540  223.9500 C   0  0  0  0  0  0  0  0  0  0  0  0
  140.0650   69.8360  225.1900 C   0  0  0  0  0  0  0  0  0  0  0  0
  140.0620   68.9100  226.2130 C   0  0  0  0  0  0  0  0  0  0  0  0
  140.5720   69.3020  227.4360 C   0  0  0  0  0  0  0  0  0  0  0  0
  140.5970   68.1700  228.7750 Cl  0  0  0  0  0  0  0  0  0  0  0  0
  141.0740   70.5850  227.6420 C   0  0  0  0  0  0  0  0  0  0  0  0
  141.0610   71.4880  226.5950 C   0  0  0  0  0  0  0  0  0  0  0  0
  140.5610   71.1260  225.3720 C   0  0  0  0  0  0  0  0  0  0  0  0
  140.5510   72.0220  224.3450 N   0  0  0  0  0  0  0  0  0  0  0  0
  139.2430   74.2810  223.0950 H   0  0  0  0  0  0  0  0  0  0  0  0
  139.3491   74.1308  220.0955 H   0  0  0  0  0  0  0  0  0  0  0  0
  138.7992   75.5439  221.0981 H   0  0  0  0  0  0  0  0  0  0  0  0
  139.8443   74.9789  218.2227 H   0  0  0  0  0  0  0  0  0  0  0  0
  139.5557   76.6860  218.0600 H   0  0  0  0  0  0  0  0  0  0  0  0
  142.0899   75.0813  217.3046 H   0  0  0  0  0  0  0  0  0  0  0  0
  141.1965   76.1386  216.2411 H   0  0  0  0  0  0  0  0  0  0  0  0
  143.3915   76.9905  217.6917 H   0  0  0  0  0  0  0  0  0  0  0  0
  142.0918   78.1140  217.2981 H   0  0  0  0  0  0  0  0  0  0  0  0
  142.8357   77.1582  219.9552 H   0  0  0  0  0  0  0  0  0  0  0  0
  142.0590   79.3645  219.5384 H   0  0  0  0  0  0  0  0  0  0  0  0
  140.5592   78.7279  218.7185 H   0  0  0  0  0  0  0  0  0  0  0  0
  140.5944   77.5567  223.1605 H   0  0  0  0  0  0  0  0  0  0  0  0
  141.7512   78.4631  225.1587 H   0  0  0  0  0  0  0  0  0  0  0  0
  143.0603   80.5723  225.0118 H   0  0  0  0  0  0  0  0  0  0  0  0
  143.1956   81.7700  222.8315 H   0  0  0  0  0  0  0  0  0  0  0  0
  142.0477   80.8637  220.8494 H   0  0  0  0  0  0  0  0  0  0  0  0
  139.1721   70.1298  221.9606 H   0  0  0  0  0  0  0  0  0  0  0  0
  139.1548   68.4430  223.7787 H   0  0  0  0  0  0  0  0  0  0  0  0
  139.6672   67.8947  226.0602 H   0  0  0  0  0  0  0  0  0  0  0  0
  141.4752   70.8757  228.6241 H   0  0  0  0  0  0  0  0  0  0  0  0
  141.4548   72.5041  226.7451 H   0  0  0  0  0  0  0  0  0  0  0  0
  1  2  2  0
  2  3  1  0
  3  4  1  0
  4  5  1  0
  5  6  2  0
  5  7  1  0
  7  8  1  0
  8  9  1  0
  9 10  1  0
 10 11  1  0
 11 12  1  0
 12 13  1  0
 13 14  1  0
 14 15  2  0
 15 16  1  0
 16 17  2  0
 17 18  1  0
 18 19  2  0
  2 20  1  0
 20 21  2  0
 21 22  1  0
 22 23  2  0
 23 24  1  0
 24 25  2  0
 25 26  1  0
 25 27  1  0
 27 28  2  0
 28 29  1  0
 29 30  2  0
 11  7  1  0
 19 14  1  0
 30 20  1  0
 29 23  1  0
  3 31  1  0
  4 32  1  0
  4 33  1  0
  8 34  1  0
  8 35  1  0
  9 36  1  0
  9 37  1  0
 10 38  1  0
 10 39  1  0
 11 40  1  1
 12 41  1  0
 12 42  1  0
 15 43  1  0
 16 44  1  0
 17 45  1  0
 18 46  1  0
 19 47  1  0
 21 48  1  0
 22 49  1  0
 24 50  1  0
 27 51  1  0
 28 52  1  0
M  END
>  <smiles>  (7) 
O=C(NCC(=O)N1CCC[C@H]1COc1ccccc1)c1ccc2cc(Cl)ccc2n1

>  <score_type>  (7) 
oracle

>  <origin>  (7) 
autodockgpu

>  <m_score__min__energy>  (7) 
-8.3900000000000006

>  <m_primary>  (7) 
energy

>  <rmsd>  (7) 
1.481650529813328

>  <m_score__min__rmsd>  (7) 
1.481650529813328

>  <meeko>  (7) 
{"free_energy": -8.1, "intermolecular_energy": -10.19, "internal_energy": -1.68, "cluster_size": 23, "cluster_id": 1, "rank_in_cluster": 5}

>  <energy>  (7) 
-8.02

>  <cluster_rmsd>  (7) 
1.28

>  <cluster>  (7) 
1

$$$$

     RDKit          3D

 52 55  0  0  0  0  0  0  0  0999 V2000
  139.0670   72.9360  221.1220 O   0  0  0  0  0  0  0  0  0  0  0  0
  140.1150   72.6420  221.7540 C   0  0  0  0  0  0  0  0  0  0  0  0
  141.3360   73.2070  221.2570 N   0  0  0  0  0  0  0  0  0  0  0  0
  141.2300   74.0500  220.0840 C   0  0  0  0  0  0  0  0  0  0  0  0
  142.3730   74.9770  219.9530 C   0  0  0  0  0  0  0  0  0  0  0  0
  143.5070   74.7670  220.4630 O   0  0  0  0  0  0  0  0  0  0  0  0
  142.1680   76.1710  219.2070 N   0  0  0  0  0  0  0  0  0  0  0  0
  142.1020   76.3350  217.7530 C   0  0  0  0  0  0  0  0  0  0  0  0
  142.9630   77.5590  217.5550 C   0  0  0  0  0  0  0  0  0  0  0  0
  142.5110   78.4540  218.6860 C   0  0  0  0  0  0  0  0  0  0  0  0
  141.9750   77.5080  219.7340 C   0  0  1  0  0  0  0  0  0  0  0  0
  140.5000   77.8130  219.9040 C   0  0  0  0  0  0  0  0  0  0  0  0
  140.2630   79.0440  220.5190 O   0  0  0  0  0  0  0  0  0  0  0  0
  141.0350   79.3860  221.6260 C   0  0  0  0  0  0  0  0  0  0  0  0
  141.0410   78.5870  222.7630 C   0  0  0  0  0  0  0  0  0  0  0  0
  141.8130   78.9250  223.8750 C   0  0  0  0  0  0  0  0  0  0  0  0
  142.5930   80.0670  223.8710 C   0  0  0  0  0  0  0  0  0  0  0  0
  142.5970   80.8710  222.7470 C   0  0  0  0  0  0  0  0  0  0  0  0
  141.8280   80.5270  221.6500 C   0  0  0  0  0  0  0  0  0  0  0  0
  140.1130   71.7780  222.9300 C   0  0  0  0  0  0  0  0  0  0  0  0
  139.5620   70.5210  222.7990 C   0  0  0  0  0  0  0  0  0  0  0  0
  139.5060   69.6210  223.8400 C   0  0  0  0  0  0  0  0  0  0  0  0
  140.0380   70.0350  225.0620 C   0  0  0  0  0  0  0  0  0  0  0  0
  139.9960   69.1560  226.1260 C   0  0  0  0  0  0  0  0  0  0  0  0
  140.5260   69.5790  227.3290 C   0  0  0  0  0  0  0  0  0  0  0  0
  140.5040   68.5080  228.7170 Cl  0  0  0  0  0  0  0  0  0  0  0  0
  141.0860   70.8460  227.4770 C   0  0  0  0  0  0  0  0  0  0  0  0
  141.1120   71.7010  226.3910 C   0  0  0  0  0  0  0  0  0  0  0  0
  140.5930   71.3070  225.1850 C   0  0  0  0  0  0  0  0  0  0  0  0
  140.6210   72.1570  224.1200 N   0  0  0  0  0  0  0  0  0  0  0  0
  142.2450   73.0010  221.7380 H   0  0  0  0  0  0  0  0  0  0  0  0
  141.1902   73.4094  219.1907 H   0  0  0  0  0  0  0  0  0  0  0  0
  140.3169   74.6548  220.1864 H   0  0  0  0  0  0  0  0  0  0  0  0
  142.5176   75.4612  217.2298 H   0  0  0  0  0  0  0  0  0  0  0  0
  141.0808   76.4332  217.3563 H   0  0  0  0  0  0  0  0  0  0  0  0
  144.0316   77.3134  217.6434 H   0  0  0  0  0  0  0  0  0  0  0  0
  142.8573   78.0169  216.5604 H   0  0  0  0  0  0  0  0  0  0  0  0
  143.3571   79.0339  219.0834 H   0  0  0  0  0  0  0  0  0  0  0  0
  141.7564   79.1855  218.3612 H   0  0  0  0  0  0  0  0  0  0  0  0
  142.4753   77.6054  220.7088 H   0  0  0  0  0  0  0  0  0  0  0  0
  140.0273   77.8210  218.9108 H   0  0  0  0  0  0  0  0  0  0  0  0
  140.0767   77.0340  220.5551 H   0  0  0  0  0  0  0  0  0  0  0  0
  140.4277   77.6741  222.7867 H   0  0  0  0  0  0  0  0  0  0  0  0
  141.8011   78.2768  224.7636 H   0  0  0  0  0  0  0  0  0  0  0  0
  143.2008   80.3313  224.7489 H   0  0  0  0  0  0  0  0  0  0  0  0
  143.2110   81.7834  222.7248 H   0  0  0  0  0  0  0  0  0  0  0  0
  141.8447   81.1799  220.7649 H   0  0  0  0  0  0  0  0  0  0  0  0
  139.1502   70.2248  221.8230 H   0  0  0  0  0  0  0  0  0  0  0  0
  139.0625   68.6222  223.7141 H   0  0  0  0  0  0  0  0  0  0  0  0
  139.5557   68.1537  226.0191 H   0  0  0  0  0  0  0  0  0  0  0  0
  141.5019   71.1619  228.4451 H   0  0  0  0  0  0  0  0  0  0  0  0
  141.5519   72.7038  226.4953 H   0  0  0  0  0  0  0  0  0  0  0  0
  1  2  2  0
  2  3  1  0
  3  4  1  0
  4  5  1  0
  5  6  2  0
  5  7  1  0
  7  8  1  0
  8  9  1  0
  9 10  1  0
 10 11  1  0
 11 12  1  0
 12 13  1  0
 13 14  1  0
 14 15  2  0
 15 16  1  0
 16 17  2  0
 17 18  1  0
 18 19  2  0
  2 20  1  0
 20 21  2  0
 21 22  1  0
 22 23  2  0
 23 24  1  0
 24 25  2  0
 25 26  1  0
 25 27  1  0
 27 28  2  0
 28 29  1  0
 29 30  2  0
 11  7  1  0
 19 14  1  0
 30 20  1  0
 29 23  1  0
  3 31  1  0
  4 32  1  0
  4 33  1  0
  8 34  1  0
  8 35  1  0
  9 36  1  0
  9 37  1  0
 10 38  1  0
 10 39  1  0
 11 40  1  1
 12 41  1  0
 12 42  1  0
 15 43  1  0
 16 44  1  0
 17 45  1  0
 18 46  1  0
 19 47  1  0
 21 48  1  0
 22 49  1  0
 24 50  1  0
 27 51  1  0
 28 52  1  0
M  END
>  <smiles>  (8) 
O=C(NCC(=O)N1CCC[C@H]1COc1ccccc1)c1ccc2cc(Cl)ccc2n1

>  <score_type>  (8) 
oracle

>  <origin>  (8) 
autodockgpu

>  <m_score__min__energy>  (8) 
-8.3900000000000006

>  <m_primary>  (8) 
energy

>  <rmsd>  (8) 
2.331632654044961

>  <m_score__min__rmsd>  (8) 
2.331632654044961

>  <meeko>  (8) 
{"free_energy": -7.8, "intermolecular_energy": -9.89, "internal_energy": -1.63, "cluster_size": 23, "cluster_id": 1, "rank_in_cluster": 13}

>  <energy>  (8) 
-8.0

>  <cluster_rmsd>  (8) 
1.09

>  <cluster>  (8) 
1

$$$$

     RDKit          3D

 52 55  0  0  0  0  0  0  0  0999 V2000
  138.3610   73.0390  222.2770 O   0  0  0  0  0  0  0  0  0  0  0  0
  139.4150   72.3620  222.3890 C   0  0  0  0  0  0  0  0  0  0  0  0
  140.3790   72.5050  221.3360 N   0  0  0  0  0  0  0  0  0  0  0  0
  140.0330   73.4110  220.2610 C   0  0  0  0  0  0  0  0  0  0  0  0
  140.4030   74.8100  220.5630 C   0  0  0  0  0  0  0  0  0  0  0  0
  139.7960   75.5280  221.4030 O   0  0  0  0  0  0  0  0  0  0  0  0
  141.5080   75.3640  219.8580 N   0  0  0  0  0  0  0  0  0  0  0  0
  142.1490   74.8670  218.6390 C   0  0  0  0  0  0  0  0  0  0  0  0
  143.6090   75.0000  218.9990 C   0  0  0  0  0  0  0  0  0  0  0  0
  143.6500   76.3520  219.6750 C   0  0  0  0  0  0  0  0  0  0  0  0
  142.2500   76.5610  220.2000 C   0  0  1  0  0  0  0  0  0  0  0  0
  141.6790   77.7720  219.4890 C   0  0  0  0  0  0  0  0  0  0  0  0
  140.8400   78.5380  220.3000 O   0  0  0  0  0  0  0  0  0  0  0  0
  141.3630   79.0630  221.4790 C   0  0  0  0  0  0  0  0  0  0  0  0
  142.0380   80.2770  221.4780 C   0  0  0  0  0  0  0  0  0  0  0  0
  142.5640   80.8080  222.6560 C   0  0  0  0  0  0  0  0  0  0  0  0
  142.4250   80.1350  223.8570 C   0  0  0  0  0  0  0  0  0  0  0  0
  141.7550   78.9260  223.8720 C   0  0  0  0  0  0  0  0  0  0  0  0
  141.2370   78.4090  222.6980 C   0  0  0  0  0  0  0  0  0  0  0  0
  139.6670   71.4730  223.5190 C   0  0  0  0  0  0  0  0  0  0  0  0
  139.3370   70.1420  223.3710 C   0  0  0  0  0  0  0  0  0  0  0  0
  139.5300   69.2130  224.3700 C   0  0  0  0  0  0  0  0  0  0  0  0
  140.0840   69.6740  225.5640 C   0  0  0  0  0  0  0  0  0  0  0  0
  140.2890   68.7670  226.5840 C   0  0  0  0  0  0  0  0  0  0  0  0
  140.8380   69.2380  227.7610 C   0  0  0  0  0  0  0  0  0  0  0  0
  141.1250   68.1350  229.0940 Cl  0  0  0  0  0  0  0  0  0  0  0  0
  141.1770   70.5790  227.9250 C   0  0  0  0  0  0  0  0  0  0  0  0
  140.9580   71.4610  226.8830 C   0  0  0  0  0  0  0  0  0  0  0  0
  140.4150   71.0210  225.7040 C   0  0  0  0  0  0  0  0  0  0  0  0
  140.2010   71.8960  224.6820 N   0  0  0  0  0  0  0  0  0  0  0  0
  141.2790   71.9680  221.3700 H   0  0  0  0  0  0  0  0  0  0  0  0
  140.5605   73.0950  219.3489 H   0  0  0  0  0  0  0  0  0  0  0  0
  138.9417   73.3735  220.1285 H   0  0  0  0  0  0  0  0  0  0  0  0
  141.8771   73.8201  218.4389 H   0  0  0  0  0  0  0  0  0  0  0  0
  141.8589   75.4059  217.7250 H   0  0  0  0  0  0  0  0  0  0  0  0
  143.9247   74.2010  219.6859 H   0  0  0  0  0  0  0  0  0  0  0  0
  144.2857   74.9175  218.1357 H   0  0  0  0  0  0  0  0  0  0  0  0
  144.3775   76.3512  220.5001 H   0  0  0  0  0  0  0  0  0  0  0  0
  143.9600   77.1521  218.9867 H   0  0  0  0  0  0  0  0  0  0  0  0
  142.2101   76.7317  221.2859 H   0  0  0  0  0  0  0  0  0  0  0  0
  142.5128   78.4050  219.1511 H   0  0  0  0  0  0  0  0  0  0  0  0
  141.0744   77.4033  218.6472 H   0  0  0  0  0  0  0  0  0  0  0  0
  142.1597   80.8282  220.5339 H   0  0  0  0  0  0  0  0  0  0  0  0
  143.0945   81.7713  222.6298 H   0  0  0  0  0  0  0  0  0  0  0  0
  142.8409   80.5552  224.7846 H   0  0  0  0  0  0  0  0  0  0  0  0
  141.6338   78.3755  224.8166 H   0  0  0  0  0  0  0  0  0  0  0  0
  140.7066   77.4459  222.7310 H   0  0  0  0  0  0  0  0  0  0  0  0
  138.9023   69.8088  222.4171 H   0  0  0  0  0  0  0  0  0  0  0  0
  139.2594   68.1557  224.2321 H   0  0  0  0  0  0  0  0  0  0  0  0
  140.0245   67.7061  226.4639 H   0  0  0  0  0  0  0  0  0  0  0  0
  141.6133   70.9317  228.8712 H   0  0  0  0  0  0  0  0  0  0  0  0
  141.2212   72.5225  227.0010 H   0  0  0  0  0  0  0  0  0  0  0  0
  1  2  2  0
  2  3  1  0
  3  4  1  0
  4  5  1  0
  5  6  2  0
  5  7  1  0
  7  8  1  0
  8  9  1  0
  9 10  1  0
 10 11  1  0
 11 12  1  0
 12 13  1  0
 13 14  1  0
 14 15  2  0
 15 16  1  0
 16 17  2  0
 17 18  1  0
 18 19  2  0
  2 20  1  0
 20 21  2  0
 21 22  1  0
 22 23  2  0
 23 24  1  0
 24 25  2  0
 25 26  1  0
 25 27  1  0
 27 28  2  0
 28 29  1  0
 29 30  2  0
 11  7  1  0
 19 14  1  0
 30 20  1  0
 29 23  1  0
  3 31  1  0
  4 32  1  0
  4 33  1  0
  8 34  1  0
  8 35  1  0
  9 36  1  0
  9 37  1  0
 10 38  1  0
 10 39  1  0
 11 40  1  1
 12 41  1  0
 12 42  1  0
 15 43  1  0
 16 44  1  0
 17 45  1  0
 18 46  1  0
 19 47  1  0
 21 48  1  0
 22 49  1  0
 24 50  1  0
 27 51  1  0
 28 52  1  0
M  END
>  <smiles>  (9) 
O=C(NCC(=O)N1CCC[C@H]1COc1ccccc1)c1ccc2cc(Cl)ccc2n1

>  <score_type>  (9) 
oracle

>  <origin>  (9) 
autodockgpu

>  <m_score__min__energy>  (9) 
-8.3900000000000006

>  <m_primary>  (9) 
energy

>  <rmsd>  (9) 
2.158877532870511

>  <m_score__min__rmsd>  (9) 
2.158877532870511

>  <meeko>  (9) 
{"free_energy": -7.88, "intermolecular_energy": -9.97, "internal_energy": -1.42, "cluster_size": 23, "cluster_id": 1, "rank_in_cluster": 10}

>  <energy>  (9) 
-7.99

>  <cluster_rmsd>  (9) 
1.05

>  <cluster>  (9) 
1

$$$$

     RDKit          3D

 52 55  0  0  0  0  0  0  0  0999 V2000
  134.7070   70.9100  223.6240 O   0  0  0  0  0  0  0  0  0  0  0  0
  135.4390   71.7610  224.1920 C   0  0  0  0  0  0  0  0  0  0  0  0
  136.8520   71.5160  224.1470 N   0  0  0  0  0  0  0  0  0  0  0  0
  137.2800   70.3170  223.4550 C   0  0  0  0  0  0  0  0  0  0  0  0
  137.9780   70.6200  222.1880 C   0  0  0  0  0  0  0  0  0  0  0  0
  137.8020   69.9730  221.1200 O   0  0  0  0  0  0  0  0  0  0  0  0
  138.8990   71.7050  222.1880 N   0  0  0  0  0  0  0  0  0  0  0  0
  138.6300   73.1250  221.9540 C   0  0  0  0  0  0  0  0  0  0  0  0
  139.7590   73.4880  221.0200 C   0  0  0  0  0  0  0  0  0  0  0  0
  140.9370   72.7810  221.6520 C   0  0  0  0  0  0  0  0  0  0  0  0
  140.3270   71.6370  222.4270 C   0  0  1  0  0  0  0  0  0  0  0  0
  140.6410   71.8680  223.8920 C   0  0  0  0  0  0  0  0  0  0  0  0
  139.6060   71.4750  224.7430 O   0  0  0  0  0  0  0  0  0  0  0  0
  139.9410   70.8450  225.9380 C   0  0  0  0  0  0  0  0  0  0  0  0
  139.5690   69.5270  226.1750 C   0  0  0  0  0  0  0  0  0  0  0  0
  139.9010   68.8910  227.3710 C   0  0  0  0  0  0  0  0  0  0  0  0
  140.6120   69.5580  228.3520 C   0  0  0  0  0  0  0  0  0  0  0  0
  140.9890   70.8690  228.1290 C   0  0  0  0  0  0  0  0  0  0  0  0
  140.6540   71.4920  226.9400 C   0  0  0  0  0  0  0  0  0  0  0  0
  134.9040   72.9400  224.8660 C   0  0  0  0  0  0  0  0  0  0  0  0
  135.4690   74.1610  224.5620 C   0  0  0  0  0  0  0  0  0  0  0  0
  135.0460   75.3390  225.1370 C   0  0  0  0  0  0  0  0  0  0  0  0
  134.0010   75.2540  226.0570 C   0  0  0  0  0  0  0  0  0  0  0  0
  133.5550   76.4170  226.6510 C   0  0  0  0  0  0  0  0  0  0  0  0
  132.5200   76.3180  227.5610 C   0  0  0  0  0  0  0  0  0  0  0  0
  131.9080   77.7610  228.3470 Cl  0  0  0  0  0  0  0  0  0  0  0  0
  131.9400   75.0920  227.8780 C   0  0  0  0  0  0  0  0  0  0  0  0
  132.4110   73.9460  227.2650 C   0  0  0  0  0  0  0  0  0  0  0  0
  133.4370   74.0160  226.3580 C   0  0  0  0  0  0  0  0  0  0  0  0
  133.8970   72.8810  225.7590 N   0  0  0  0  0  0  0  0  0  0  0  0
  137.5170   72.1860  224.6020 H   0  0  0  0  0  0  0  0  0  0  0  0
  137.9627   69.7554  224.1095 H   0  0  0  0  0  0  0  0  0  0  0  0
  136.3822   69.7295  223.2126 H   0  0  0  0  0  0  0  0  0  0  0  0
  137.6495   73.2765  221.4790 H   0  0  0  0  0  0  0  0  0  0  0  0
  138.5886   73.7332  222.8696 H   0  0  0  0  0  0  0  0  0  0  0  0
  139.5698   73.1159  220.0023 H   0  0  0  0  0  0  0  0  0  0  0  0
  139.9050   74.5721  220.9045 H   0  0  0  0  0  0  0  0  0  0  0  0
  141.6231   72.4038  220.8793 H   0  0  0  0  0  0  0  0  0  0  0  0
  141.5283   73.4502  222.2942 H   0  0  0  0  0  0  0  0  0  0  0  0
  140.7128   70.6507  222.1297 H   0  0  0  0  0  0  0  0  0  0  0  0
  141.5437   71.2952  224.1510 H   0  0  0  0  0  0  0  0  0  0  0  0
  140.7857   72.9497  224.0297 H   0  0  0  0  0  0  0  0  0  0  0  0
  139.0042   68.9772  225.4077 H   0  0  0  0  0  0  0  0  0  0  0  0
  139.5940   67.8476  227.5358 H   0  0  0  0  0  0  0  0  0  0  0  0
  140.8731   69.0536  229.2940 H   0  0  0  0  0  0  0  0  0  0  0  0
  141.5552   71.4168  228.8967 H   0  0  0  0  0  0  0  0  0  0  0  0
  140.9628   72.5359  226.7823 H   0  0  0  0  0  0  0  0  0  0  0  0
  136.2903   74.1954  223.8311 H   0  0  0  0  0  0  0  0  0  0  0  0
  135.5111   76.3028  224.8823 H   0  0  0  0  0  0  0  0  0  0  0  0
  134.0079   77.3896  226.4083 H   0  0  0  0  0  0  0  0  0  0  0  0
  131.1178   75.0364  228.6067 H   0  0  0  0  0  0  0  0  0  0  0  0
  131.9600   72.9721  227.5062 H   0  0  0  0  0  0  0  0  0  0  0  0
  1  2  2  0
  2  3  1  0
  3  4  1  0
  4  5  1  0
  5  6  2  0
  5  7  1  0
  7  8  1  0
  8  9  1  0
  9 10  1  0
 10 11  1  0
 11 12  1  0
 12 13  1  0
 13 14  1  0
 14 15  2  0
 15 16  1  0
 16 17  2  0
 17 18  1  0
 18 19  2  0
  2 20  1  0
 20 21  2  0
 21 22  1  0
 22 23  2  0
 23 24  1  0
 24 25  2  0
 25 26  1  0
 25 27  1  0
 27 28  2  0
 28 29  1  0
 29 30  2  0
 11  7  1  0
 19 14  1  0
 30 20  1  0
 29 23  1  0
  3 31  1  0
  4 32  1  0
  4 33  1  0
  8 34  1  0
  8 35  1  0
  9 36  1  0
  9 37  1  0
 10 38  1  0
 10 39  1  0
 11 40  1  6
 12 41  1  0
 12 42  1  0
 15 43  1  0
 16 44  1  0
 17 45  1  0
 18 46  1  0
 19 47  1  0
 21 48  1  0
 22 49  1  0
 24 50  1  0
 27 51  1  0
 28 52  1  0
M  END
>  <smiles>  (10) 
O=C(NCC(=O)N1CCC[C@H]1COc1ccccc1)c1ccc2cc(Cl)ccc2n1

>  <score_type>  (10) 
oracle

>  <origin>  (10) 
autodockgpu

>  <m_score__min__energy>  (10) 
-8.3900000000000006

>  <m_primary>  (10) 
energy

>  <rmsd>  (10) 
6.765792003840948

>  <m_score__min__rmsd>  (10) 
6.765792003840948

>  <meeko>  (10) 
{"free_energy": -7.13, "intermolecular_energy": -9.22, "internal_energy": -2.38, "cluster_size": 2, "cluster_id": 4, "rank_in_cluster": 2}

>  <energy>  (10) 
-7.88

>  <cluster_rmsd>  (10) 
1.12

>  <cluster>  (10) 
1

$$$$

     RDKit          3D

 52 55  0  0  0  0  0  0  0  0999 V2000
  141.2810   72.8610  220.9370 O   0  0  0  0  0  0  0  0  0  0  0  0
  140.6270   73.7090  221.5980 C   0  0  0  0  0  0  0  0  0  0  0  0
  139.5960   73.1920  222.4510 N   0  0  0  0  0  0  0  0  0  0  0  0
  139.4190   71.7550  222.4570 C   0  0  0  0  0  0  0  0  0  0  0  0
  137.9960   71.3630  222.3940 C   0  0  0  0  0  0  0  0  0  0  0  0
  137.1490   71.9220  221.6450 O   0  0  0  0  0  0  0  0  0  0  0  0
  137.5710   70.2940  223.2320 N   0  0  0  0  0  0  0  0  0  0  0  0
  136.4570   69.3660  223.0270 C   0  0  0  0  0  0  0  0  0  0  0  0
  135.8300   69.3520  224.4010 C   0  0  0  0  0  0  0  0  0  0  0  0
  137.0410   69.2810  225.3040 C   0  0  0  0  0  0  0  0  0  0  0  0
  138.1610   69.8850  224.4910 C   0  0  1  0  0  0  0  0  0  0  0  0
  139.1960   68.7980  224.2740 C   0  0  0  0  0  0  0  0  0  0  0  0
  140.0380   68.6160  225.3730 O   0  0  0  0  0  0  0  0  0  0  0  0
  140.2850   69.7080  226.2000 C   0  0  0  0  0  0  0  0  0  0  0  0
  139.7820   69.7480  227.4940 C   0  0  0  0  0  0  0  0  0  0  0  0
  140.0270   70.8400  228.3280 C   0  0  0  0  0  0  0  0  0  0  0  0
  140.7800   71.9110  227.8840 C   0  0  0  0  0  0  0  0  0  0  0  0
  141.2870   71.8850  226.5980 C   0  0  0  0  0  0  0  0  0  0  0  0
  141.0390   70.7980  225.7800 C   0  0  0  0  0  0  0  0  0  0  0  0
  140.8860   75.1430  221.5190 C   0  0  0  0  0  0  0  0  0  0  0  0
  141.7420   75.5850  220.5330 C   0  0  0  0  0  0  0  0  0  0  0  0
  142.0590   76.9140  220.3640 C   0  0  0  0  0  0  0  0  0  0  0  0
  141.4700   77.8210  221.2450 C   0  0  0  0  0  0  0  0  0  0  0  0
  141.7680   79.1620  221.1020 C   0  0  0  0  0  0  0  0  0  0  0  0
  141.1790   80.0480  221.9830 C   0  0  0  0  0  0  0  0  0  0  0  0
  141.5160   81.7640  221.8510 Cl  0  0  0  0  0  0  0  0  0  0  0  0
  140.3110   79.6170  222.9840 C   0  0  0  0  0  0  0  0  0  0  0  0
  140.0350   78.2680  223.0990 C   0  0  0  0  0  0  0  0  0  0  0  0
  140.6060   77.3660  222.2390 C   0  0  0  0  0  0  0  0  0  0  0  0
  140.3290   76.0370  222.3600 N   0  0  0  0  0  0  0  0  0  0  0  0
  139.0140   73.8460  223.0290 H   0  0  0  0  0  0  0  0  0  0  0  0
  139.9412   71.3310  221.5866 H   0  0  0  0  0  0  0  0  0  0  0  0
  139.8317   71.3700  223.4012 H   0  0  0  0  0  0  0  0  0  0  0  0
  135.7550   69.7404  222.2674 H   0  0  0  0  0  0  0  0  0  0  0  0
  136.7576   68.3744  222.6579 H   0  0  0  0  0  0  0  0  0  0  0  0
  135.2494   70.2682  224.5838 H   0  0  0  0  0  0  0  0  0  0  0  0
  135.1171   68.5281  224.5527 H   0  0  0  0  0  0  0  0  0  0  0  0
  136.8734   69.8602  226.2240 H   0  0  0  0  0  0  0  0  0  0  0  0
  137.2646   68.2515  225.6204 H   0  0  0  0  0  0  0  0  0  0  0  0
  138.6418   70.7455  224.9791 H   0  0  0  0  0  0  0  0  0  0  0  0
  138.6728   67.8514  224.0733 H   0  0  0  0  0  0  0  0  0  0  0  0
  139.8251   69.1086  223.4268 H   0  0  0  0  0  0  0  0  0  0  0  0
  139.1810   68.9057  227.8674 H   0  0  0  0  0  0  0  0  0  0  0  0
  139.6169   70.8485  229.3487 H   0  0  0  0  0  0  0  0  0  0  0  0
  140.9727   72.7701  228.5434 H   0  0  0  0  0  0  0  0  0  0  0  0
  141.8872   72.7284  226.2258 H   0  0  0  0  0  0  0  0  0  0  0  0
  141.4530   70.7956  224.7609 H   0  0  0  0  0  0  0  0  0  0  0  0
  142.1902   74.8454  219.8533 H   0  0  0  0  0  0  0  0  0  0  0  0
  142.7452   77.2454  219.5707 H   0  0  0  0  0  0  0  0  0  0  0  0
  142.4507   79.5123  220.3139 H   0  0  0  0  0  0  0  0  0  0  0  0
  139.8517   80.3408  223.6733 H   0  0  0  0  0  0  0  0  0  0  0  0
  139.3523   77.9154  223.8861 H   0  0  0  0  0  0  0  0  0  0  0  0
  1  2  2  0
  2  3  1  0
  3  4  1  0
  4  5  1  0
  5  6  2  0
  5  7  1  0
  7  8  1  0
  8  9  1  0
  9 10  1  0
 10 11  1  0
 11 12  1  0
 12 13  1  0
 13 14  1  0
 14 15  2  0
 15 16  1  0
 16 17  2  0
 17 18  1  0
 18 19  2  0
  2 20  1  0
 20 21  2  0
 21 22  1  0
 22 23  2  0
 23 24  1  0
 24 25  2  0
 25 26  1  0
 25 27  1  0
 27 28  2  0
 28 29  1  0
 29 30  2  0
 11  7  1  0
 19 14  1  0
 30 20  1  0
 29 23  1  0
  3 31  1  0
  4 32  1  0
  4 33  1  0
  8 34  1  0
  8 35  1  0
  9 36  1  0
  9 37  1  0
 10 38  1  0
 10 39  1  0
 11 40  1  1
 12 41  1  0
 12 42  1  0
 15 43  1  0
 16 44  1  0
 17 45  1  0
 18 46  1  0
 19 47  1  0
 21 48  1  0
 22 49  1  0
 24 50  1  0
 27 51  1  0
 28 52  1  0
M  END
>  <smiles>  (11) 
O=C(NCC(=O)N1CCC[C@H]1COc1ccccc1)c1ccc2cc(Cl)ccc2n1

>  <score_type>  (11) 
oracle

>  <origin>  (11) 
autodockgpu

>  <m_score__min__energy>  (11) 
-8.3900000000000006

>  <m_primary>  (11) 
energy

>  <rmsd>  (11) 
8.393649184410178

>  <m_score__min__rmsd>  (11) 
8.393649184410178

>  <meeko>  (11) 
{"free_energy": -7.99, "intermolecular_energy": -10.08, "internal_energy": -1.7, "cluster_size": 9, "cluster_id": 3, "rank_in_cluster": 4}

>  <energy>  (11) 
-7.85

>  <cluster_rmsd>  (11) 
1.29

>  <cluster>  (11) 
1

$$$$

     RDKit          3D

 52 55  0  0  0  0  0  0  0  0999 V2000
  136.8380   75.1740  220.9110 O   0  0  0  0  0  0  0  0  0  0  0  0
  137.7710   74.9930  221.7360 C   0  0  0  0  0  0  0  0  0  0  0  0
  137.8450   73.6930  222.3370 N   0  0  0  0  0  0  0  0  0  0  0  0
  136.8400   72.7330  221.9290 C   0  0  0  0  0  0  0  0  0  0  0  0
  137.4260   71.4240  221.5710 C   0  0  0  0  0  0  0  0  0  0  0  0
  136.8230   70.3260  221.7120 O   0  0  0  0  0  0  0  0  0  0  0  0
  138.7460   71.4190  221.0400 N   0  0  0  0  0  0  0  0  0  0  0  0
  139.2330   72.0450  219.8090 C   0  0  0  0  0  0  0  0  0  0  0  0
  140.0820   70.9380  219.2310 C   0  0  0  0  0  0  0  0  0  0  0  0
  140.8120   70.4240  220.4510 C   0  0  0  0  0  0  0  0  0  0  0  0
  139.9150   70.7810  221.6130 C   0  0  1  0  0  0  0  0  0  0  0  0
  140.6820   71.7510  222.4910 C   0  0  0  0  0  0  0  0  0  0  0  0
  139.9560   72.1710  223.6080 O   0  0  0  0  0  0  0  0  0  0  0  0
  140.0930   71.4500  224.7910 C   0  0  0  0  0  0  0  0  0  0  0  0
  139.4290   70.2420  224.9680 C   0  0  0  0  0  0  0  0  0  0  0  0
  139.5620   69.5150  226.1510 C   0  0  0  0  0  0  0  0  0  0  0  0
  140.3610   69.9820  227.1790 C   0  0  0  0  0  0  0  0  0  0  0  0
  141.0270   71.1820  227.0160 C   0  0  0  0  0  0  0  0  0  0  0  0
  140.8890   71.8950  225.8390 C   0  0  0  0  0  0  0  0  0  0  0  0
  138.7360   76.0330  222.0800 C   0  0  0  0  0  0  0  0  0  0  0  0
  140.0740   75.7440  221.9150 C   0  0  0  0  0  0  0  0  0  0  0  0
  141.0710   76.6470  222.2060 C   0  0  0  0  0  0  0  0  0  0  0  0
  140.6730   77.8950  222.6860 C   0  0  0  0  0  0  0  0  0  0  0  0
  141.6500   78.8230  222.9880 C   0  0  0  0  0  0  0  0  0  0  0  0
  141.2420   80.0540  223.4620 C   0  0  0  0  0  0  0  0  0  0  0  0
  142.4340   81.2760  223.8620 Cl  0  0  0  0  0  0  0  0  0  0  0  0
  139.8940   80.3620  223.6340 C   0  0  0  0  0  0  0  0  0  0  0  0
  138.9410   79.4090  223.3220 C   0  0  0  0  0  0  0  0  0  0  0  0
  139.3190   78.1790  222.8500 C   0  0  0  0  0  0  0  0  0  0  0  0
  138.3740   77.2450  222.5450 N   0  0  0  0  0  0  0  0  0  0  0  0
  138.5990   73.4770  223.0330 H   0  0  0  0  0  0  0  0  0  0  0  0
  136.1318   72.5885  222.7582 H   0  0  0  0  0  0  0  0  0  0  0  0
  136.3372   73.1319  221.0356 H   0  0  0  0  0  0  0  0  0  0  0  0
  138.4038   72.3098  219.1364 H   0  0  0  0  0  0  0  0  0  0  0  0
  139.7719   72.9908  219.9669 H   0  0  0  0  0  0  0  0  0  0  0  0
  139.4589   70.1524  218.7788 H   0  0  0  0  0  0  0  0  0  0  0  0
  140.7513   71.2708  218.4240 H   0  0  0  0  0  0  0  0  0  0  0  0
  140.9518   69.3347  220.3892 H   0  0  0  0  0  0  0  0  0  0  0  0
  141.8162   70.8618  220.5505 H   0  0  0  0  0  0  0  0  0  0  0  0
  139.6129   69.9121  222.2162 H   0  0  0  0  0  0  0  0  0  0  0  0
  141.6022   71.2575  222.8369 H   0  0  0  0  0  0  0  0  0  0  0  0
  140.8961   72.6434  221.8845 H   0  0  0  0  0  0  0  0  0  0  0  0
  138.7886   69.8531  224.1626 H   0  0  0  0  0  0  0  0  0  0  0  0
  139.0264   68.5613  226.2675 H   0  0  0  0  0  0  0  0  0  0  0  0
  140.4647   69.4075  228.1113 H   0  0  0  0  0  0  0  0  0  0  0  0
  141.6668   71.5700  227.8223 H   0  0  0  0  0  0  0  0  0  0  0  0
  141.4282   72.8474  225.7289 H   0  0  0  0  0  0  0  0  0  0  0  0
  140.3562   74.7510  221.5352 H   0  0  0  0  0  0  0  0  0  0  0  0
  142.1329   76.3962  222.0665 H   0  0  0  0  0  0  0  0  0  0  0  0
  142.7167   78.5895  222.8555 H   0  0  0  0  0  0  0  0  0  0  0  0
  139.5917   81.3495  224.0127 H   0  0  0  0  0  0  0  0  0  0  0  0
  137.8735   79.6397  223.4535 H   0  0  0  0  0  0  0  0  0  0  0  0
  1  2  2  0
  2  3  1  0
  3  4  1  0
  4  5  1  0
  5  6  2  0
  5  7  1  0
  7  8  1  0
  8  9  1  0
  9 10  1  0
 10 11  1  0
 11 12  1  0
 12 13  1  0
 13 14  1  0
 14 15  2  0
 15 16  1  0
 16 17  2  0
 17 18  1  0
 18 19  2  0
  2 20  1  0
 20 21  2  0
 21 22  1  0
 22 23  2  0
 23 24  1  0
 24 25  2  0
 25 26  1  0
 25 27  1  0
 27 28  2  0
 28 29  1  0
 29 30  2  0
 11  7  1  0
 19 14  1  0
 30 20  1  0
 29 23  1  0
  3 31  1  0
  4 32  1  0
  4 33  1  0
  8 34  1  0
  8 35  1  0
  9 36  1  0
  9 37  1  0
 10 38  1  0
 10 39  1  0
 11 40  1  1
 12 41  1  0
 12 42  1  0
 15 43  1  0
 16 44  1  0
 17 45  1  0
 18 46  1  0
 19 47  1  0
 21 48  1  0
 22 49  1  0
 24 50  1  0
 27 51  1  0
 28 52  1  0
M  END
>  <smiles>  (12) 
O=C(NCC(=O)N1CCC[C@H]1COc1ccccc1)c1ccc2cc(Cl)ccc2n1

>  <score_type>  (12) 
oracle

>  <origin>  (12) 
autodockgpu

>  <m_score__min__energy>  (12) 
-8.3900000000000006

>  <m_primary>  (12) 
energy

>  <rmsd>  (12) 
7.068267670212312

>  <m_score__min__rmsd>  (12) 
7.068267670212312

>  <meeko>  (12) 
{"free_energy": -6.93, "intermolecular_energy": -9.02, "internal_energy": -2.65, "cluster_size": 3, "cluster_id": 5, "rank_in_cluster": 1}

>  <energy>  (12) 
-7.81

>  <cluster_rmsd>  (12) 
1.24

>  <cluster>  (12) 
1

$$$$

     RDKit          3D

 52 55  0  0  0  0  0  0  0  0999 V2000
  138.4940   70.9330  221.2660 O   0  0  0  0  0  0  0  0  0  0  0  0
  138.7800   71.6730  222.2430 C   0  0  0  0  0  0  0  0  0  0  0  0
  138.5150   73.0730  222.0780 N   0  0  0  0  0  0  0  0  0  0  0  0
  137.9490   73.4810  220.8090 C   0  0  0  0  0  0  0  0  0  0  0  0
  138.9780   73.6340  219.7590 C   0  0  0  0  0  0  0  0  0  0  0  0
  138.8930   73.1110  218.6150 O   0  0  0  0  0  0  0  0  0  0  0  0
  140.1220   74.4200  220.0710 N   0  0  0  0  0  0  0  0  0  0  0  0
  140.9990   75.1520  219.1550 C   0  0  0  0  0  0  0  0  0  0  0  0
  142.3610   74.7790  219.6900 C   0  0  0  0  0  0  0  0  0  0  0  0
  142.1570   74.8870  221.1850 C   0  0  0  0  0  0  0  0  0  0  0  0
  140.6760   74.6710  221.3870 C   0  0  1  0  0  0  0  0  0  0  0  0
  140.1110   75.9480  221.9760 C   0  0  0  0  0  0  0  0  0  0  0  0
  140.4110   77.0810  221.2160 O   0  0  0  0  0  0  0  0  0  0  0  0
  141.0650   78.1390  221.8430 C   0  0  0  0  0  0  0  0  0  0  0  0
  141.2420   78.1500  223.2210 C   0  0  0  0  0  0  0  0  0  0  0  0
  141.8970   79.2070  223.8530 C   0  0  0  0  0  0  0  0  0  0  0  0
  142.3870   80.2720  223.1200 C   0  0  0  0  0  0  0  0  0  0  0  0
  142.2180   80.2740  221.7480 C   0  0  0  0  0  0  0  0  0  0  0  0
  141.5680   79.2210  221.1310 C   0  0  0  0  0  0  0  0  0  0  0  0
  139.3500   71.1590  223.4840 C   0  0  0  0  0  0  0  0  0  0  0  0
  140.3330   71.9090  224.0940 C   0  0  0  0  0  0  0  0  0  0  0  0
  140.9420   71.5230  225.2670 C   0  0  0  0  0  0  0  0  0  0  0  0
  140.5200   70.3190  225.8320 C   0  0  0  0  0  0  0  0  0  0  0  0
  141.1120   69.9030  227.0080 C   0  0  0  0  0  0  0  0  0  0  0  0
  140.6860   68.7090  227.5550 C   0  0  0  0  0  0  0  0  0  0  0  0
  141.3980   68.1290  229.0480 Cl  0  0  0  0  0  0  0  0  0  0  0  0
  139.6930   67.9400  226.9500 C   0  0  0  0  0  0  0  0  0  0  0  0
  139.1220   68.3860  225.7720 C   0  0  0  0  0  0  0  0  0  0  0  0
  139.5260   69.5670  225.2080 C   0  0  0  0  0  0  0  0  0  0  0  0
  138.9590   69.9990  224.0460 N   0  0  0  0  0  0  0  0  0  0  0  0
  138.7310   73.7440  222.8540 H   0  0  0  0  0  0  0  0  0  0  0  0
  137.2230   72.7209  220.4847 H   0  0  0  0  0  0  0  0  0  0  0  0
  137.4682   74.4597  220.9541 H   0  0  0  0  0  0  0  0  0  0  0  0
  140.8680   74.8149  218.1162 H   0  0  0  0  0  0  0  0  0  0  0  0
  140.8099   76.2350  219.1185 H   0  0  0  0  0  0  0  0  0  0  0  0
  142.6376   73.7552  219.3981 H   0  0  0  0  0  0  0  0  0  0  0  0
  143.1745   75.4133  219.3082 H   0  0  0  0  0  0  0  0  0  0  0  0
  142.7369   74.1152  221.7123 H   0  0  0  0  0  0  0  0  0  0  0  0
  142.4940   75.8560  221.5819 H   0  0  0  0  0  0  0  0  0  0  0  0
  140.4432   73.8329  222.0604 H   0  0  0  0  0  0  0  0  0  0  0  0
  139.0173   75.8496  222.0413 H   0  0  0  0  0  0  0  0  0  0  0  0
  140.5717   76.0850  222.9654 H   0  0  0  0  0  0  0  0  0  0  0  0
  140.8598   77.3123  223.8228 H   0  0  0  0  0  0  0  0  0  0  0  0
  142.0250   79.1931  224.9454 H   0  0  0  0  0  0  0  0  0  0  0  0
  142.9031   81.1045  223.6206 H   0  0  0  0  0  0  0  0  0  0  0  0
  142.6003   81.1126  221.1475 H   0  0  0  0  0  0  0  0  0  0  0  0
  141.4448   79.2406  220.0381 H   0  0  0  0  0  0  0  0  0  0  0  0
  140.6433   72.8541  223.6245 H   0  0  0  0  0  0  0  0  0  0  0  0
  141.7253   72.1357  225.7371 H   0  0  0  0  0  0  0  0  0  0  0  0
  141.8965   70.5026  227.4927 H   0  0  0  0  0  0  0  0  0  0  0  0
  139.3682   66.9918  227.4032 H   0  0  0  0  0  0  0  0  0  0  0  0
  138.3378   67.7881  225.2846 H   0  0  0  0  0  0  0  0  0  0  0  0
  1  2  2  0
  2  3  1  0
  3  4  1  0
  4  5  1  0
  5  6  2  0
  5  7  1  0
  7  8  1  0
  8  9  1  0
  9 10  1  0
 10 11  1  0
 11 12  1  0
 12 13  1  0
 13 14  1  0
 14 15  2  0
 15 16  1  0
 16 17  2  0
 17 18  1  0
 18 19  2  0
  2 20  1  0
 20 21  2  0
 21 22  1  0
 22 23  2  0
 23 24  1  0
 24 25  2  0
 25 26  1  0
 25 27  1  0
 27 28  2  0
 28 29  1  0
 29 30  2  0
 11  7  1  0
 19 14  1  0
 30 20  1  0
 29 23  1  0
  3 31  1  0
  4 32  1  0
  4 33  1  0
  8 34  1  0
  8 35  1  0
  9 36  1  0
  9 37  1  0
 10 38  1  0
 10 39  1  0
 11 40  1  1
 12 41  1  0
 12 42  1  0
 15 43  1  0
 16 44  1  0
 17 45  1  0
 18 46  1  0
 19 47  1  0
 21 48  1  0
 22 49  1  0
 24 50  1  0
 27 51  1  0
 28 52  1  0
M  END
>  <smiles>  (13) 
O=C(NCC(=O)N1CCC[C@H]1COc1ccccc1)c1ccc2cc(Cl)ccc2n1

>  <score_type>  (13) 
oracle

>  <origin>  (13) 
autodockgpu

>  <m_score__min__energy>  (13) 
-8.3900000000000006

>  <m_primary>  (13) 
energy

>  <rmsd>  (13) 
2.9893281570014874

>  <m_score__min__rmsd>  (13) 
2.9893281570014874

>  <meeko>  (13) 
{"free_energy": -7.61, "intermolecular_energy": -9.7, "internal_energy": -1.52, "cluster_size": 23, "cluster_id": 1, "rank_in_cluster": 18}

>  <energy>  (13) 
-7.8

>  <cluster_rmsd>  (13) 
1.45

>  <cluster>  (13) 
1

$$$$

     RDKit          3D

 52 55  0  0  0  0  0  0  0  0999 V2000
  140.5580   72.6620  221.0600 O   0  0  0  0  0  0  0  0  0  0  0  0
  139.9060   72.8110  222.1260 C   0  0  0  0  0  0  0  0  0  0  0  0
  139.0600   73.9670  222.1980 N   0  0  0  0  0  0  0  0  0  0  0  0
  139.0490   74.8350  221.0390 C   0  0  0  0  0  0  0  0  0  0  0  0
  139.2700   76.2520  221.3960 C   0  0  0  0  0  0  0  0  0  0  0  0
  139.0570   76.7260  222.5440 O   0  0  0  0  0  0  0  0  0  0  0  0
  139.7510   77.1190  220.3750 N   0  0  0  0  0  0  0  0  0  0  0  0
  139.2250   78.4240  219.9670 C   0  0  0  0  0  0  0  0  0  0  0  0
  139.2470   78.2930  218.4630 C   0  0  0  0  0  0  0  0  0  0  0  0
  140.5830   77.6300  218.2190 C   0  0  0  0  0  0  0  0  0  0  0  0
  140.8870   76.8940  219.5030 C   0  0  1  0  0  0  0  0  0  0  0  0
  142.1450   77.5080  220.0860 C   0  0  0  0  0  0  0  0  0  0  0  0
  142.1110   78.9030  220.1150 O   0  0  0  0  0  0  0  0  0  0  0  0
  141.9070   79.5310  221.3410 C   0  0  0  0  0  0  0  0  0  0  0  0
  141.8020   78.7890  222.5110 C   0  0  0  0  0  0  0  0  0  0  0  0
  141.5980   79.4140  223.7420 C   0  0  0  0  0  0  0  0  0  0  0  0
  141.4940   80.7900  223.8260 C   0  0  0  0  0  0  0  0  0  0  0  0
  141.5970   81.5400  222.6700 C   0  0  0  0  0  0  0  0  0  0  0  0
  141.8000   80.9120  221.4540 C   0  0  0  0  0  0  0  0  0  0  0  0
  139.9900   71.8730  223.2410 C   0  0  0  0  0  0  0  0  0  0  0  0
  139.5480   70.5840  223.0270 C   0  0  0  0  0  0  0  0  0  0  0  0
  139.5790   69.6150  224.0050 C   0  0  0  0  0  0  0  0  0  0  0  0
  140.0850   69.9900  225.2500 C   0  0  0  0  0  0  0  0  0  0  0  0
  140.1280   69.0420  226.2520 C   0  0  0  0  0  0  0  0  0  0  0  0
  140.6300   69.4270  227.4800 C   0  0  0  0  0  0  0  0  0  0  0  0
  140.7130   68.2670  228.7920 Cl  0  0  0  0  0  0  0  0  0  0  0  0
  141.0800   70.7250  227.7120 C   0  0  0  0  0  0  0  0  0  0  0  0
  141.0220   71.6500  226.6860 C   0  0  0  0  0  0  0  0  0  0  0  0
  140.5280   71.2950  225.4580 C   0  0  0  0  0  0  0  0  0  0  0  0
  140.4730   72.2130  224.4520 N   0  0  0  0  0  0  0  0  0  0  0  0
  138.4910   74.1500  223.0590 H   0  0  0  0  0  0  0  0  0  0  0  0
  139.8452   74.5156  220.3505 H   0  0  0  0  0  0  0  0  0  0  0  0
  138.0568   74.7573  220.5704 H   0  0  0  0  0  0  0  0  0  0  0  0
  138.2033   78.5820  220.3428 H   0  0  0  0  0  0  0  0  0  0  0  0
  139.7957   79.2813  220.3535 H   0  0  0  0  0  0  0  0  0  0  0  0
  138.4185   77.6639  218.1054 H   0  0  0  0  0  0  0  0  0  0  0  0
  139.1265   79.2504  217.9349 H   0  0  0  0  0  0  0  0  0  0  0  0
  140.5188   76.9273  217.3751 H   0  0  0  0  0  0  0  0  0  0  0  0
  141.3671   78.3570  217.9607 H   0  0  0  0  0  0  0  0  0  0  0  0
  141.0470   75.8148  219.3627 H   0  0  0  0  0  0  0  0  0  0  0  0
  142.2700   77.1395  221.1149 H   0  0  0  0  0  0  0  0  0  0  0  0
  142.9840   77.2139  219.4382 H   0  0  0  0  0  0  0  0  0  0  0  0
  141.8808   77.6927  222.4663 H   0  0  0  0  0  0  0  0  0  0  0  0
  141.5191   78.8055  224.6549 H   0  0  0  0  0  0  0  0  0  0  0  0
  141.3319   81.2799  224.7974 H   0  0  0  0  0  0  0  0  0  0  0  0
  141.5176   82.6361  222.7165 H   0  0  0  0  0  0  0  0  0  0  0  0
  141.8794   81.5269  220.5454 H   0  0  0  0  0  0  0  0  0  0  0  0
  139.1546   70.3192  222.0344 H   0  0  0  0  0  0  0  0  0  0  0  0
  139.2213   68.5925  223.8135 H   0  0  0  0  0  0  0  0  0  0  0  0
  139.7746   68.0148  226.0787 H   0  0  0  0  0  0  0  0  0  0  0  0
  141.4760   71.0100  228.6979 H   0  0  0  0  0  0  0  0  0  0  0  0
  141.3748   72.6778  226.8566 H   0  0  0  0  0  0  0  0  0  0  0  0
  1  2  2  0
  2  3  1  0
  3  4  1  0
  4  5  1  0
  5  6  2  0
  5  7  1  0
  7  8  1  0
  8  9  1  0
  9 10  1  0
 10 11  1  0
 11 12  1  0
 12 13  1  0
 13 14  1  0
 14 15  2  0
 15 16  1  0
 16 17  2  0
 17 18  1  0
 18 19  2  0
  2 20  1  0
 20 21  2  0
 21 22  1  0
 22 23  2  0
 23 24  1  0
 24 25  2  0
 25 26  1  0
 25 27  1  0
 27 28  2  0
 28 29  1  0
 29 30  2  0
 11  7  1  0
 19 14  1  0
 30 20  1  0
 29 23  1  0
  3 31  1  0
  4 32  1  0
  4 33  1  0
  8 34  1  0
  8 35  1  0
  9 36  1  0
  9 37  1  0
 10 38  1  0
 10 39  1  0
 11 40  1  6
 12 41  1  0
 12 42  1  0
 15 43  1  0
 16 44  1  0
 17 45  1  0
 18 46  1  0
 19 47  1  0
 21 48  1  0
 22 49  1  0
 24 50  1  0
 27 51  1  0
 28 52  1  0
M  END
>  <smiles>  (14) 
O=C(NCC(=O)N1CCC[C@H]1COc1ccccc1)c1ccc2cc(Cl)ccc2n1

>  <score_type>  (14) 
oracle

>  <origin>  (14) 
autodockgpu

>  <m_score__min__energy>  (14) 
-8.3900000000000006

>  <m_primary>  (14) 
energy

>  <rmsd>  (14) 
1.9094098053892103

>  <m_score__min__rmsd>  (14) 
1.9094098053892103

>  <meeko>  (14) 
{"free_energy": -7.68, "intermolecular_energy": -9.77, "internal_energy": -1.78, "cluster_size": 23, "cluster_id": 1, "rank_in_cluster": 16}

>  <energy>  (14) 
-7.73

>  <cluster_rmsd>  (14) 
1.08

>  <cluster>  (14) 
1

$$$$

     RDKit          3D

 52 55  0  0  0  0  0  0  0  0999 V2000
  140.6970   72.5970  220.9650 O   0  0  0  0  0  0  0  0  0  0  0  0
  140.1530   72.8450  222.0730 C   0  0  0  0  0  0  0  0  0  0  0  0
  139.5200   74.1260  222.1960 N   0  0  0  0  0  0  0  0  0  0  0  0
  139.5760   74.9920  221.0360 C   0  0  0  0  0  0  0  0  0  0  0  0
  139.4170   76.4180  221.3900 C   0  0  0  0  0  0  0  0  0  0  0  0
  139.1330   76.8230  222.5500 O   0  0  0  0  0  0  0  0  0  0  0  0
  139.5960   77.3750  220.3530 N   0  0  0  0  0  0  0  0  0  0  0  0
  138.8540   78.6170  220.1250 C   0  0  0  0  0  0  0  0  0  0  0  0
  138.6140   78.5460  218.6360 C   0  0  0  0  0  0  0  0  0  0  0  0
  139.9510   78.0670  218.1180 C   0  0  0  0  0  0  0  0  0  0  0  0
  140.5700   77.3280  219.2800 C   0  0  1  0  0  0  0  0  0  0  0  0
  141.8330   78.0730  219.6650 C   0  0  0  0  0  0  0  0  0  0  0  0
  141.5890   79.3770  220.1000 O   0  0  0  0  0  0  0  0  0  0  0  0
  141.7750   79.6680  221.4490 C   0  0  0  0  0  0  0  0  0  0  0  0
  142.0190   80.9700  221.8690 C   0  0  0  0  0  0  0  0  0  0  0  0
  142.2060   81.2660  223.2190 C   0  0  0  0  0  0  0  0  0  0  0  0
  142.1530   80.2670  224.1740 C   0  0  0  0  0  0  0  0  0  0  0  0
  141.9120   78.9680  223.7700 C   0  0  0  0  0  0  0  0  0  0  0  0
  141.7270   78.6840  222.4290 C   0  0  0  0  0  0  0  0  0  0  0  0
  140.1540   71.8990  223.1840 C   0  0  0  0  0  0  0  0  0  0  0  0
  139.6310   70.6440  222.9550 C   0  0  0  0  0  0  0  0  0  0  0  0
  139.5800   69.6710  223.9290 C   0  0  0  0  0  0  0  0  0  0  0  0
  140.0860   70.0070  225.1840 C   0  0  0  0  0  0  0  0  0  0  0  0
  140.0490   69.0530  226.1820 C   0  0  0  0  0  0  0  0  0  0  0  0
  140.5530   69.3990  227.4210 C   0  0  0  0  0  0  0  0  0  0  0  0
  140.5340   68.2310  228.7280 Cl  0  0  0  0  0  0  0  0  0  0  0  0
  141.0840   70.6640  227.6670 C   0  0  0  0  0  0  0  0  0  0  0  0
  141.1060   71.5950  226.6460 C   0  0  0  0  0  0  0  0  0  0  0  0
  140.6120   71.2780  225.4070 C   0  0  0  0  0  0  0  0  0  0  0  0
  140.6370   72.2020  224.4050 N   0  0  0  0  0  0  0  0  0  0  0  0
  139.0480   74.3960  223.0930 H   0  0  0  0  0  0  0  0  0  0  0  0
  140.5490   74.8572  220.5410 H   0  0  0  0  0  0  0  0  0  0  0  0
  138.7442   74.7165  220.3710 H   0  0  0  0  0  0  0  0  0  0  0  0
  137.9077   78.6300  220.6857 H   0  0  0  0  0  0  0  0  0  0  0  0
  139.3808   79.5246  220.4546 H   0  0  0  0  0  0  0  0  0  0  0  0
  137.8137   77.8309  218.3949 H   0  0  0  0  0  0  0  0  0  0  0  0
  138.2866   79.4996  218.1961 H   0  0  0  0  0  0  0  0  0  0  0  0
  139.8155   77.3942  217.2583 H   0  0  0  0  0  0  0  0  0  0  0  0
  140.5831   78.8965  217.7681 H   0  0  0  0  0  0  0  0  0  0  0  0
  140.8263   76.2836  219.0487 H   0  0  0  0  0  0  0  0  0  0  0  0
  142.3316   77.5212  220.4755 H   0  0  0  0  0  0  0  0  0  0  0  0
  142.4615   78.1399  218.7647 H   0  0  0  0  0  0  0  0  0  0  0  0
  142.0654   81.7793  221.1255 H   0  0  0  0  0  0  0  0  0  0  0  0
  142.3975   82.3044  223.5273 H   0  0  0  0  0  0  0  0  0  0  0  0
  142.3004   80.5030  225.2382 H   0  0  0  0  0  0  0  0  0  0  0  0
  141.8672   78.1597  224.5147 H   0  0  0  0  0  0  0  0  0  0  0  0
  141.5353   77.6435  222.1280 H   0  0  0  0  0  0  0  0  0  0  0  0
  139.2386   70.4102  221.9543 H   0  0  0  0  0  0  0  0  0  0  0  0
  139.1595   68.6750  223.7259 H   0  0  0  0  0  0  0  0  0  0  0  0
  139.6325   68.0519  225.9967 H   0  0  0  0  0  0  0  0  0  0  0  0
  141.4805   70.9180  228.6611 H   0  0  0  0  0  0  0  0  0  0  0  0
  141.5225   72.5966  226.8285 H   0  0  0  0  0  0  0  0  0  0  0  0
  1  2  2  0
  2  3  1  0
  3  4  1  0
  4  5  1  0
  5  6  2  0
  5  7  1  0
  7  8  1  0
  8  9  1  0
  9 10  1  0
 10 11  1  0
 11 12  1  0
 12 13  1  0
 13 14  1  0
 14 15  2  0
 15 16  1  0
 16 17  2  0
 17 18  1  0
 18 19  2  0
  2 20  1  0
 20 21  2  0
 21 22  1  0
 22 23  2  0
 23 24  1  0
 24 25  2  0
 25 26  1  0
 25 27  1  0
 27 28  2  0
 28 29  1  0
 29 30  2  0
 11  7  1  0
 19 14  1  0
 30 20  1  0
 29 23  1  0
  3 31  1  0
  4 32  1  0
  4 33  1  0
  8 34  1  0
  8 35  1  0
  9 36  1  0
  9 37  1  0
 10 38  1  0
 10 39  1  0
 11 40  1  6
 12 41  1  0
 12 42  1  0
 15 43  1  0
 16 44  1  0
 17 45  1  0
 18 46  1  0
 19 47  1  0
 21 48  1  0
 22 49  1  0
 24 50  1  0
 27 51  1  0
 28 52  1  0
M  END
>  <smiles>  (15) 
O=C(NCC(=O)N1CCC[C@H]1COc1ccccc1)c1ccc2cc(Cl)ccc2n1

>  <score_type>  (15) 
oracle

>  <origin>  (15) 
autodockgpu

>  <m_score__min__energy>  (15) 
-8.3900000000000006

>  <m_primary>  (15) 
energy

>  <rmsd>  (15) 
2.1245318064911327

>  <m_score__min__rmsd>  (15) 
2.1245318064911327

>  <meeko>  (15) 
{"free_energy": -7.73, "intermolecular_energy": -9.82, "internal_energy": -1.87, "cluster_size": 23, "cluster_id": 1, "rank_in_cluster": 14}

>  <energy>  (15) 
-7.69

>  <cluster_rmsd>  (15) 
1.49

>  <cluster>  (15) 
1

$$$$

     RDKit          3D

 52 55  0  0  0  0  0  0  0  0999 V2000
  139.7960   74.8720  222.1810 O   0  0  0  0  0  0  0  0  0  0  0  0
  140.9240   75.0910  221.6680 C   0  0  0  0  0  0  0  0  0  0  0  0
  141.3510   76.4600  221.6320 N   0  0  0  0  0  0  0  0  0  0  0  0
  140.4380   77.4380  222.1880 C   0  0  0  0  0  0  0  0  0  0  0  0
  141.1420   78.5110  222.9210 C   0  0  0  0  0  0  0  0  0  0  0  0
  141.5030   78.4140  224.1250 O   0  0  0  0  0  0  0  0  0  0  0  0
  141.4210   79.7140  222.2160 N   0  0  0  0  0  0  0  0  0  0  0  0
  142.3160   80.8080  222.6020 C   0  0  0  0  0  0  0  0  0  0  0  0
  141.4620   82.0120  222.2890 C   0  0  0  0  0  0  0  0  0  0  0  0
  140.8540   81.6360  220.9560 C   0  0  0  0  0  0  0  0  0  0  0  0
  140.8700   80.1260  220.9400 C   0  0  1  0  0  0  0  0  0  0  0  0
  141.7720   79.6980  219.7990 C   0  0  0  0  0  0  0  0  0  0  0  0
  142.2000   78.3730  219.9070 O   0  0  0  0  0  0  0  0  0  0  0  0
  142.6470   77.7300  218.7560 C   0  0  0  0  0  0  0  0  0  0  0  0
  143.2280   76.4700  218.8250 C   0  0  0  0  0  0  0  0  0  0  0  0
  143.6770   75.8210  217.6740 C   0  0  0  0  0  0  0  0  0  0  0  0
  143.5520   76.4190  216.4330 C   0  0  0  0  0  0  0  0  0  0  0  0
  142.9750   77.6720  216.3500 C   0  0  0  0  0  0  0  0  0  0  0  0
  142.5330   78.3070  217.4960 C   0  0  0  0  0  0  0  0  0  0  0  0
  141.7690   74.0280  221.1330 C   0  0  0  0  0  0  0  0  0  0  0  0
  141.1810   72.8050  220.8900 C   0  0  0  0  0  0  0  0  0  0  0  0
  141.8810   71.7310  220.3860 C   0  0  0  0  0  0  0  0  0  0  0  0
  143.2370   71.9270  220.1240 C   0  0  0  0  0  0  0  0  0  0  0  0
  143.9660   70.8690  219.6190 C   0  0  0  0  0  0  0  0  0  0  0  0
  145.3080   71.0760  219.3660 C   0  0  0  0  0  0  0  0  0  0  0  0
  146.2870   69.7720  218.7220 Cl  0  0  0  0  0  0  0  0  0  0  0  0
  145.9160   72.3060  219.6070 C   0  0  0  0  0  0  0  0  0  0  0  0
  145.1570   73.3440  220.1130 C   0  0  0  0  0  0  0  0  0  0  0  0
  143.8230   73.1660  220.3740 C   0  0  0  0  0  0  0  0  0  0  0  0
  143.0810   74.1950  220.8740 N   0  0  0  0  0  0  0  0  0  0  0  0
  142.2810   76.7110  221.2180 H   0  0  0  0  0  0  0  0  0  0  0  0
  139.8614   77.8899  221.3675 H   0  0  0  0  0  0  0  0  0  0  0  0
  139.7822   76.9179  222.9017 H   0  0  0  0  0  0  0  0  0  0  0  0
  142.5708   80.7618  223.6711 H   0  0  0  0  0  0  0  0  0  0  0  0
  143.2878   80.7984  222.0868 H   0  0  0  0  0  0  0  0  0  0  0  0
  140.6854   82.1596  223.0539 H   0  0  0  0  0  0  0  0  0  0  0  0
  142.0237   82.9575  222.2667 H   0  0  0  0  0  0  0  0  0  0  0  0
  139.8238   82.0139  220.8790 H   0  0  0  0  0  0  0  0  0  0  0  0
  141.4081   82.0672  220.1092 H   0  0  0  0  0  0  0  0  0  0  0  0
  139.8751   79.6789  220.7974 H   0  0  0  0  0  0  0  0  0  0  0  0
  141.2198   79.8117  218.8545 H   0  0  0  0  0  0  0  0  0  0  0  0
  142.6676   80.3359  219.8316 H   0  0  0  0  0  0  0  0  0  0  0  0
  143.3358   75.9762  219.8020 H   0  0  0  0  0  0  0  0  0  0  0  0
  144.1348   74.8240  217.7545 H   0  0  0  0  0  0  0  0  0  0  0  0
  143.9061   75.9056  215.5269 H   0  0  0  0  0  0  0  0  0  0  0  0
  142.8674   78.1642  215.3722 H   0  0  0  0  0  0  0  0  0  0  0  0
  142.0752   79.3033  217.4079 H   0  0  0  0  0  0  0  0  0  0  0  0
  140.1097   72.6818  221.1073 H   0  0  0  0  0  0  0  0  0  0  0  0
  141.3930   70.7631  220.1987 H   0  0  0  0  0  0  0  0  0  0  0  0
  143.4943   69.8945  219.4248 H   0  0  0  0  0  0  0  0  0  0  0  0
  146.9863   72.4491  219.3972 H   0  0  0  0  0  0  0  0  0  0  0  0
  145.6263   74.3196  220.3077 H   0  0  0  0  0  0  0  0  0  0  0  0
  1  2  2  0
  2  3  1  0
  3  4  1  0
  4  5  1  0
  5  6  2  0
  5  7  1  0
  7  8  1  0
  8  9  1  0
  9 10  1  0
 10 11  1  0
 11 12  1  0
 12 13  1  0
 13 14  1  0
 14 15  2  0
 15 16  1  0
 16 17  2  0
 17 18  1  0
 18 19  2  0
  2 20  1  0
 20 21  2  0
 21 22  1  0
 22 23  2  0
 23 24  1  0
 24 25  2  0
 25 26  1  0
 25 27  1  0
 27 28  2  0
 28 29  1  0
 29 30  2  0
 11  7  1  0
 19 14  1  0
 30 20  1  0
 29 23  1  0
  3 31  1  0
  4 32  1  0
  4 33  1  0
  8 34  1  0
  8 35  1  0
  9 36  1  0
  9 37  1  0
 10 38  1  0
 10 39  1  0
 11 40  1  6
 12 41  1  0
 12 42  1  0
 15 43  1  0
 16 44  1  0
 17 45  1  0
 18 46  1  0
 19 47  1  0
 21 48  1  0
 22 49  1  0
 24 50  1  0
 27 51  1  0
 28 52  1  0
M  END
>  <smiles>  (16) 
O=C(NCC(=O)N1CCC[C@H]1COc1ccccc1)c1ccc2cc(Cl)ccc2n1

>  <score_type>  (16) 
oracle

>  <origin>  (16) 
autodockgpu

>  <m_score__min__energy>  (16) 
-8.3900000000000006

>  <m_primary>  (16) 
energy

>  <rmsd>  (16) 
6.511571467728751

>  <m_score__min__rmsd>  (16) 
6.511571467728751

>  <meeko>  (16) 
{"free_energy": -6.84, "intermolecular_energy": -8.93, "internal_energy": -2.91, "cluster_size": 1, "cluster_id": 6, "rank_in_cluster": 1}

>  <energy>  (16) 
-7.68

>  <cluster_rmsd>  (16) 
1.02

>  <cluster>  (16) 
1

$$$$

     RDKit          3D

 52 55  0  0  0  0  0  0  0  0999 V2000
  140.9010   72.6700  221.3680 O   0  0  0  0  0  0  0  0  0  0  0  0
  140.0930   72.7220  222.3320 C   0  0  0  0  0  0  0  0  0  0  0  0
  139.1150   73.7710  222.2860 N   0  0  0  0  0  0  0  0  0  0  0  0
  139.1640   74.6530  221.1390 C   0  0  0  0  0  0  0  0  0  0  0  0
  140.2340   75.6660  221.2540 C   0  0  0  0  0  0  0  0  0  0  0  0
  141.3420   75.4530  221.8170 O   0  0  0  0  0  0  0  0  0  0  0  0
  139.9840   76.9500  220.6940 N   0  0  0  0  0  0  0  0  0  0  0  0
  139.2030   78.0530  221.2600 C   0  0  0  0  0  0  0  0  0  0  0  0
  138.3970   78.4880  220.0600 C   0  0  0  0  0  0  0  0  0  0  0  0
  139.4270   78.4530  218.9530 C   0  0  0  0  0  0  0  0  0  0  0  0
  140.4580   77.4540  219.4200 C   0  0  1  0  0  0  0  0  0  0  0  0
  141.7660   78.2030  219.5890 C   0  0  0  0  0  0  0  0  0  0  0  0
  141.5880   79.5520  219.8980 O   0  0  0  0  0  0  0  0  0  0  0  0
  141.7910   79.9580  221.2140 C   0  0  0  0  0  0  0  0  0  0  0  0
  142.2110   79.0530  222.1810 C   0  0  0  0  0  0  0  0  0  0  0  0
  142.4170   79.4540  223.5010 C   0  0  0  0  0  0  0  0  0  0  0  0
  142.2070   80.7680  223.8800 C   0  0  0  0  0  0  0  0  0  0  0  0
  141.7880   81.6790  222.9280 C   0  0  0  0  0  0  0  0  0  0  0  0
  141.5880   81.2710  221.6220 C   0  0  0  0  0  0  0  0  0  0  0  0
  140.1300   71.7800  223.4470 C   0  0  0  0  0  0  0  0  0  0  0  0
  139.6500   70.5070  223.2230 C   0  0  0  0  0  0  0  0  0  0  0  0
  139.6350   69.5360  224.2000 C   0  0  0  0  0  0  0  0  0  0  0  0
  140.1350   69.8920  225.4530 C   0  0  0  0  0  0  0  0  0  0  0  0
  140.1330   68.9410  226.4530 C   0  0  0  0  0  0  0  0  0  0  0  0
  140.6300   69.3080  227.6890 C   0  0  0  0  0  0  0  0  0  0  0  0
  140.6560   68.1440  229.0000 Cl  0  0  0  0  0  0  0  0  0  0  0  0
  141.1190   70.5900  227.9300 C   0  0  0  0  0  0  0  0  0  0  0  0
  141.1060   71.5180  226.9050 C   0  0  0  0  0  0  0  0  0  0  0  0
  140.6180   71.1810  225.6690 C   0  0  0  0  0  0  0  0  0  0  0  0
  140.6080   72.1030  224.6650 N   0  0  0  0  0  0  0  0  0  0  0  0
  138.4140   73.8700  223.0590 H   0  0  0  0  0  0  0  0  0  0  0  0
  139.3437   74.0499  220.2368 H   0  0  0  0  0  0  0  0  0  0  0  0
  138.2027   75.1847  221.0828 H   0  0  0  0  0  0  0  0  0  0  0  0
  138.5536   77.7087  222.0784 H   0  0  0  0  0  0  0  0  0  0  0  0
  139.8107   78.8523  221.7094 H   0  0  0  0  0  0  0  0  0  0  0  0
  137.5719   77.7889  219.8592 H   0  0  0  0  0  0  0  0  0  0  0  0
  137.9154   79.4692  220.1839 H   0  0  0  0  0  0  0  0  0  0  0  0
  138.9696   78.1253  218.0078 H   0  0  0  0  0  0  0  0  0  0  0  0
  139.8648   79.4436  218.7605 H   0  0  0  0  0  0  0  0  0  0  0  0
  140.6101   76.6209  218.7179 H   0  0  0  0  0  0  0  0  0  0  0  0
  142.3378   77.7303  220.4012 H   0  0  0  0  0  0  0  0  0  0  0  0
  142.2987   78.1541  218.6278 H   0  0  0  0  0  0  0  0  0  0  0  0
  142.3838   78.0033  221.9011 H   0  0  0  0  0  0  0  0  0  0  0  0
  142.7497   78.7183  224.2480 H   0  0  0  0  0  0  0  0  0  0  0  0
  142.3706   81.0826  224.9213 H   0  0  0  0  0  0  0  0  0  0  0  0
  141.6138   82.7280  223.2095 H   0  0  0  0  0  0  0  0  0  0  0  0
  141.2565   82.0119  220.8796 H   0  0  0  0  0  0  0  0  0  0  0  0
  139.2635   70.2567  222.2240 H   0  0  0  0  0  0  0  0  0  0  0  0
  139.2466   68.5262  224.0014 H   0  0  0  0  0  0  0  0  0  0  0  0
  139.7491   67.9261  226.2725 H   0  0  0  0  0  0  0  0  0  0  0  0
  141.5101   70.8603  228.9220 H   0  0  0  0  0  0  0  0  0  0  0  0
  141.4898   72.5335  227.0825 H   0  0  0  0  0  0  0  0  0  0  0  0
  1  2  2  0
  2  3  1  0
  3  4  1  0
  4  5  1  0
  5  6  2  0
  5  7  1  0
  7  8  1  0
  8  9  1  0
  9 10  1  0
 10 11  1  0
 11 12  1  0
 12 13  1  0
 13 14  1  0
 14 15  2  0
 15 16  1  0
 16 17  2  0
 17 18  1  0
 18 19  2  0
  2 20  1  0
 20 21  2  0
 21 22  1  0
 22 23  2  0
 23 24  1  0
 24 25  2  0
 25 26  1  0
 25 27  1  0
 27 28  2  0
 28 29  1  0
 29 30  2  0
 11  7  1  0
 19 14  1  0
 30 20  1  0
 29 23  1  0
  3 31  1  0
  4 32  1  0
  4 33  1  0
  8 34  1  0
  8 35  1  0
  9 36  1  0
  9 37  1  0
 10 38  1  0
 10 39  1  0
 11 40  1  6
 12 41  1  0
 12 42  1  0
 15 43  1  0
 16 44  1  0
 17 45  1  0
 18 46  1  0
 19 47  1  0
 21 48  1  0
 22 49  1  0
 24 50  1  0
 27 51  1  0
 28 52  1  0
M  END
>  <smiles>  (17) 
O=C(NCC(=O)N1CCC[C@H]1COc1ccccc1)c1ccc2cc(Cl)ccc2n1

>  <score_type>  (17) 
oracle

>  <origin>  (17) 
autodockgpu

>  <m_score__min__energy>  (17) 
-8.3900000000000006

>  <m_primary>  (17) 
energy

>  <rmsd>  (17) 
2.1437382282728494

>  <m_score__min__rmsd>  (17) 
2.1437382282728494

>  <meeko>  (17) 
{"free_energy": -8.0, "intermolecular_energy": -10.09, "internal_energy": -1.56, "cluster_size": 23, "cluster_id": 1, "rank_in_cluster": 8}

>  <energy>  (17) 
-7.62

>  <cluster_rmsd>  (17) 
1.29

>  <cluster>  (17) 
1

$$$$

     RDKit          3D

 52 55  0  0  0  0  0  0  0  0999 V2000
  140.1630   72.0140  220.8380 O   0  0  0  0  0  0  0  0  0  0  0  0
  139.8430   72.3790  221.9990 C   0  0  0  0  0  0  0  0  0  0  0  0
  139.3800   73.7290  222.1360 N   0  0  0  0  0  0  0  0  0  0  0  0
  139.3340   74.5240  220.9260 C   0  0  0  0  0  0  0  0  0  0  0  0
  140.5560   75.3340  220.7380 C   0  0  0  0  0  0  0  0  0  0  0  0
  141.5410   75.3060  221.5240 O   0  0  0  0  0  0  0  0  0  0  0  0
  140.6090   76.1880  219.6020 N   0  0  0  0  0  0  0  0  0  0  0  0
  139.4990   76.6810  218.7830 C   0  0  0  0  0  0  0  0  0  0  0  0
  140.0450   76.4720  217.3910 C   0  0  0  0  0  0  0  0  0  0  0  0
  141.4740   76.9460  217.5330 C   0  0  0  0  0  0  0  0  0  0  0  0
  141.7930   76.7650  218.9980 C   0  0  1  0  0  0  0  0  0  0  0  0
  142.0740   78.1410  219.5700 C   0  0  0  0  0  0  0  0  0  0  0  0
  141.1120   78.5580  220.4920 O   0  0  0  0  0  0  0  0  0  0  0  0
  141.5480   79.0860  221.7040 C   0  0  0  0  0  0  0  0  0  0  0  0
  141.3830   78.3790  222.8890 C   0  0  0  0  0  0  0  0  0  0  0  0
  141.8180   78.9040  224.1060 C   0  0  0  0  0  0  0  0  0  0  0  0
  142.4270   80.1450  224.1620 C   0  0  0  0  0  0  0  0  0  0  0  0
  142.5980   80.8590  222.9910 C   0  0  0  0  0  0  0  0  0  0  0  0
  142.1630   80.3300  221.7890 C   0  0  0  0  0  0  0  0  0  0  0  0
  139.9280   71.4950  223.1580 C   0  0  0  0  0  0  0  0  0  0  0  0
  139.4710   70.2020  223.0100 C   0  0  0  0  0  0  0  0  0  0  0  0
  139.5020   69.2810  224.0340 C   0  0  0  0  0  0  0  0  0  0  0  0
  140.0240   69.7110  225.2540 C   0  0  0  0  0  0  0  0  0  0  0  0
  140.0680   68.8110  226.3010 C   0  0  0  0  0  0  0  0  0  0  0  0
  140.5870   69.2500  227.5030 C   0  0  0  0  0  0  0  0  0  0  0  0
  140.6720   68.1540  228.8700 Cl  0  0  0  0  0  0  0  0  0  0  0  0
  141.0520   70.5530  227.6680 C   0  0  0  0  0  0  0  0  0  0  0  0
  140.9930   71.4280  226.5990 C   0  0  0  0  0  0  0  0  0  0  0  0
  140.4830   71.0190  225.3940 C   0  0  0  0  0  0  0  0  0  0  0  0
  140.4270   71.8880  224.3460 N   0  0  0  0  0  0  0  0  0  0  0  0
  139.0980   74.0960  223.0770 H   0  0  0  0  0  0  0  0  0  0  0  0
  139.2209   73.8498  220.0642 H   0  0  0  0  0  0  0  0  0  0  0  0
  138.4827   75.2154  221.0108 H   0  0  0  0  0  0  0  0  0  0  0  0
  138.5838   76.0938  218.9492 H   0  0  0  0  0  0  0  0  0  0  0  0
  139.2036   77.7180  219.0007 H   0  0  0  0  0  0  0  0  0  0  0  0
  140.0036   75.4116  217.1015 H   0  0  0  0  0  0  0  0  0  0  0  0
  139.4795   77.0028  216.6109 H   0  0  0  0  0  0  0  0  0  0  0  0
  142.1480   76.3386  216.9111 H   0  0  0  0  0  0  0  0  0  0  0  0
  141.6019   77.9879  217.2044 H   0  0  0  0  0  0  0  0  0  0  0  0
  142.6625   76.1162  219.1795 H   0  0  0  0  0  0  0  0  0  0  0  0
  143.0528   78.1184  220.0714 H   0  0  0  0  0  0  0  0  0  0  0  0
  142.0564   78.8541  218.7326 H   0  0  0  0  0  0  0  0  0  0  0  0
  140.9019   77.3900  222.8670 H   0  0  0  0  0  0  0  0  0  0  0  0
  141.6753   78.3254  225.0306 H   0  0  0  0  0  0  0  0  0  0  0  0
  142.7695   80.5567  225.1228 H   0  0  0  0  0  0  0  0  0  0  0  0
  143.0798   81.8476  223.0148 H   0  0  0  0  0  0  0  0  0  0  0  0
  142.3088   80.9140  220.8683 H   0  0  0  0  0  0  0  0  0  0  0  0
  139.0654   69.8939  222.0350 H   0  0  0  0  0  0  0  0  0  0  0  0
  139.1323   68.2542  223.8960 H   0  0  0  0  0  0  0  0  0  0  0  0
  139.7023   67.7805  226.1814 H   0  0  0  0  0  0  0  0  0  0  0  0
  141.4604   70.8811  228.6353 H   0  0  0  0  0  0  0  0  0  0  0  0
  141.3577   72.4591  226.7162 H   0  0  0  0  0  0  0  0  0  0  0  0
  1  2  2  0
  2  3  1  0
  3  4  1  0
  4  5  1  0
  5  6  2  0
  5  7  1  0
  7  8  1  0
  8  9  1  0
  9 10  1  0
 10 11  1  0
 11 12  1  0
 12 13  1  0
 13 14  1  0
 14 15  2  0
 15 16  1  0
 16 17  2  0
 17 18  1  0
 18 19  2  0
  2 20  1  0
 20 21  2  0
 21 22  1  0
 22 23  2  0
 23 24  1  0
 24 25  2  0
 25 26  1  0
 25 27  1  0
 27 28  2  0
 28 29  1  0
 29 30  2  0
 11  7  1  0
 19 14  1  0
 30 20  1  0
 29 23  1  0
  3 31  1  0
  4 32  1  0
  4 33  1  0
  8 34  1  0
  8 35  1  0
  9 36  1  0
  9 37  1  0
 10 38  1  0
 10 39  1  0
 11 40  1  6
 12 41  1  0
 12 42  1  0
 15 43  1  0
 16 44  1  0
 17 45  1  0
 18 46  1  0
 19 47  1  0
 21 48  1  0
 22 49  1  0
 24 50  1  0
 27 51  1  0
 28 52  1  0
M  END
>  <smiles>  (18) 
O=C(NCC(=O)N1CCC[C@H]1COc1ccccc1)c1ccc2cc(Cl)ccc2n1

>  <score_type>  (18) 
oracle

>  <origin>  (18) 
autodockgpu

>  <m_score__min__energy>  (18) 
-8.3900000000000006

>  <m_primary>  (18) 
energy

>  <rmsd>  (18) 
1.3198560689383503

>  <m_score__min__rmsd>  (18) 
1.3198560689383503

>  <meeko>  (18) 
{"free_energy": -7.99, "intermolecular_energy": -10.08, "internal_energy": -1.64, "cluster_size": 23, "cluster_id": 1, "rank_in_cluster": 9}

>  <energy>  (18) 
-7.61

>  <cluster_rmsd>  (18) 
1.42

>  <cluster>  (18) 
1

$$$$

     RDKit          3D

 52 55  0  0  0  0  0  0  0  0999 V2000
  141.8720   73.3670  221.0500 O   0  0  0  0  0  0  0  0  0  0  0  0
  141.0540   74.1590  221.5860 C   0  0  0  0  0  0  0  0  0  0  0  0
  139.9560   73.5600  222.2890 N   0  0  0  0  0  0  0  0  0  0  0  0
  139.9100   72.1120  222.3050 C   0  0  0  0  0  0  0  0  0  0  0  0
  138.5450   71.5960  222.5370 C   0  0  0  0  0  0  0  0  0  0  0  0
  137.5570   72.3300  222.8090 O   0  0  0  0  0  0  0  0  0  0  0  0
  138.3500   70.1900  222.4450 N   0  0  0  0  0  0  0  0  0  0  0  0
  138.5320   69.3210  221.2800 C   0  0  0  0  0  0  0  0  0  0  0  0
  137.2870   68.4700  221.3500 C   0  0  0  0  0  0  0  0  0  0  0  0
  137.1940   68.1600  222.8270 C   0  0  0  0  0  0  0  0  0  0  0  0
  137.9240   69.2970  223.5040 C   0  0  1  0  0  0  0  0  0  0  0  0
  139.1190   68.7000  224.2210 C   0  0  0  0  0  0  0  0  0  0  0  0
  139.0230   68.7860  225.6110 O   0  0  0  0  0  0  0  0  0  0  0  0
  139.6950   69.8220  226.2540 C   0  0  0  0  0  0  0  0  0  0  0  0
  139.6870   69.9220  227.6400 C   0  0  0  0  0  0  0  0  0  0  0  0
  140.3590   70.9580  228.2900 C   0  0  0  0  0  0  0  0  0  0  0  0
  141.0520   71.9120  227.5660 C   0  0  0  0  0  0  0  0  0  0  0  0
  141.0680   71.8240  226.1870 C   0  0  0  0  0  0  0  0  0  0  0  0
  140.3990   70.7940  225.5530 C   0  0  0  0  0  0  0  0  0  0  0  0
  141.1920   75.6100  221.5090 C   0  0  0  0  0  0  0  0  0  0  0  0
  141.7600   76.1390  220.3690 C   0  0  0  0  0  0  0  0  0  0  0  0
  141.9400   77.4920  220.1870 C   0  0  0  0  0  0  0  0  0  0  0  0
  141.5190   78.3300  221.2190 C   0  0  0  0  0  0  0  0  0  0  0  0
  141.6860   79.6920  221.0670 C   0  0  0  0  0  0  0  0  0  0  0  0
  141.2650   80.5100  222.0980 C   0  0  0  0  0  0  0  0  0  0  0  0
  141.4500   82.2480  221.9640 Cl  0  0  0  0  0  0  0  0  0  0  0  0
  140.6900   79.9900  223.2560 C   0  0  0  0  0  0  0  0  0  0  0  0
  140.5370   78.6220  223.3750 C   0  0  0  0  0  0  0  0  0  0  0  0
  140.9460   77.7870  222.3680 C   0  0  0  0  0  0  0  0  0  0  0  0
  140.7930   76.4380  222.4940 N   0  0  0  0  0  0  0  0  0  0  0  0
  139.2390   74.1640  222.7570 H   0  0  0  0  0  0  0  0  0  0  0  0
  140.2702   71.7361  221.3360 H   0  0  0  0  0  0  0  0  0  0  0  0
  140.5459   71.7646  223.1326 H   0  0  0  0  0  0  0  0  0  0  0  0
  138.5712   69.9016  220.3465 H   0  0  0  0  0  0  0  0  0  0  0  0
  139.4709   68.7480  221.2871 H   0  0  0  0  0  0  0  0  0  0  0  0
  136.4038   69.0263  221.0029 H   0  0  0  0  0  0  0  0  0  0  0  0
  137.3282   67.5743  220.7128 H   0  0  0  0  0  0  0  0  0  0  0  0
  136.1433   68.1260  223.1509 H   0  0  0  0  0  0  0  0  0  0  0  0
  137.6283   67.1802  223.0749 H   0  0  0  0  0  0  0  0  0  0  0  0
  137.3062   69.8435  224.2318 H   0  0  0  0  0  0  0  0  0  0  0  0
  139.2014   67.6395  223.9408 H   0  0  0  0  0  0  0  0  0  0  0  0
  140.0052   69.2765  223.9172 H   0  0  0  0  0  0  0  0  0  0  0  0
  139.1426   69.1730  228.2339 H   0  0  0  0  0  0  0  0  0  0  0  0
  140.3376   71.0168  229.3882 H   0  0  0  0  0  0  0  0  0  0  0  0
  141.5818   72.7276  228.0800 H   0  0  0  0  0  0  0  0  0  0  0  0
  141.6129   72.5734  225.5941 H   0  0  0  0  0  0  0  0  0  0  0  0
  140.4247   70.7417  224.4545 H   0  0  0  0  0  0  0  0  0  0  0  0
  142.0824   75.4521  219.5726 H   0  0  0  0  0  0  0  0  0  0  0  0
  142.3951   77.8934  219.2695 H   0  0  0  0  0  0  0  0  0  0  0  0
  142.1386   80.1116  220.1565 H   0  0  0  0  0  0  0  0  0  0  0  0
  140.3623   80.6598  224.0647 H   0  0  0  0  0  0  0  0  0  0  0  0
  140.0838   78.2001  224.2842 H   0  0  0  0  0  0  0  0  0  0  0  0
  1  2  2  0
  2  3  1  0
  3  4  1  0
  4  5  1  0
  5  6  2  0
  5  7  1  0
  7  8  1  0
  8  9  1  0
  9 10  1  0
 10 11  1  0
 11 12  1  0
 12 13  1  0
 13 14  1  0
 14 15  2  0
 15 16  1  0
 16 17  2  0
 17 18  1  0
 18 19  2  0
  2 20  1  0
 20 21  2  0
 21 22  1  0
 22 23  2  0
 23 24  1  0
 24 25  2  0
 25 26  1  0
 25 27  1  0
 27 28  2  0
 28 29  1  0
 29 30  2  0
 11  7  1  0
 19 14  1  0
 30 20  1  0
 29 23  1  0
  3 31  1  0
  4 32  1  0
  4 33  1  0
  8 34  1  0
  8 35  1  0
  9 36  1  0
  9 37  1  0
 10 38  1  0
 10 39  1  0
 11 40  1  1
 12 41  1  0
 12 42  1  0
 15 43  1  0
 16 44  1  0
 17 45  1  0
 18 46  1  0
 19 47  1  0
 21 48  1  0
 22 49  1  0
 24 50  1  0
 27 51  1  0
 28 52  1  0
M  END
>  <smiles>  (19) 
O=C(NCC(=O)N1CCC[C@H]1COc1ccccc1)c1ccc2cc(Cl)ccc2n1

>  <score_type>  (19) 
oracle

>  <origin>  (19) 
autodockgpu

>  <m_score__min__energy>  (19) 
-8.3900000000000006

>  <m_primary>  (19) 
energy

>  <rmsd>  (19) 
8.339018772220543

>  <m_score__min__rmsd>  (19) 
8.339018772220543

>  <meeko>  (19) 
{"free_energy": -7.87, "intermolecular_energy": -9.96, "internal_energy": -1.84, "cluster_size": 9, "cluster_id": 3, "rank_in_cluster": 6}

>  <energy>  (19) 
-7.23

>  <cluster_rmsd>  (19) 
1.58

>  <cluster>  (19) 
1

$$$$

     RDKit          3D

 52 55  0  0  0  0  0  0  0  0999 V2000
  139.5550   74.6030  220.9230 O   0  0  0  0  0  0  0  0  0  0  0  0
  140.0150   75.6540  221.4400 C   0  0  0  0  0  0  0  0  0  0  0  0
  141.4440   75.7850  221.4520 N   0  0  0  0  0  0  0  0  0  0  0  0
  142.1990   74.6940  220.8690 C   0  0  0  0  0  0  0  0  0  0  0  0
  142.9650   75.1150  219.6780 C   0  0  0  0  0  0  0  0  0  0  0  0
  144.0910   74.6400  219.3670 O   0  0  0  0  0  0  0  0  0  0  0  0
  142.3880   76.1140  218.8450 N   0  0  0  0  0  0  0  0  0  0  0  0
  141.3330   75.9610  217.8400 C   0  0  0  0  0  0  0  0  0  0  0  0
  141.8980   76.7680  216.6950 C   0  0  0  0  0  0  0  0  0  0  0  0
  142.4410   77.9890  217.4020 C   0  0  0  0  0  0  0  0  0  0  0  0
  142.7240   77.5230  218.8100 C   0  0  1  0  0  0  0  0  0  0  0  0
  141.8220   78.3160  219.7360 C   0  0  0  0  0  0  0  0  0  0  0  0
  142.1800   78.2010  221.0810 O   0  0  0  0  0  0  0  0  0  0  0  0
  142.1340   79.3430  221.8750 C   0  0  0  0  0  0  0  0  0  0  0  0
  141.5630   80.5170  221.3990 C   0  0  0  0  0  0  0  0  0  0  0  0
  141.5140   81.6650  222.1900 C   0  0  0  0  0  0  0  0  0  0  0  0
  142.0340   81.6610  223.4720 C   0  0  0  0  0  0  0  0  0  0  0  0
  142.6050   80.5000  223.9580 C   0  0  0  0  0  0  0  0  0  0  0  0
  142.6490   79.3670  223.1660 C   0  0  0  0  0  0  0  0  0  0  0  0
  139.1630   76.6970  222.0030 C   0  0  0  0  0  0  0  0  0  0  0  0
  137.8000   76.5670  221.8360 C   0  0  0  0  0  0  0  0  0  0  0  0
  136.9010   77.4890  222.3240 C   0  0  0  0  0  0  0  0  0  0  0  0
  137.4270   78.5840  223.0100 C   0  0  0  0  0  0  0  0  0  0  0  0
  136.5510   79.5260  223.5100 C   0  0  0  0  0  0  0  0  0  0  0  0
  137.0860   80.6060  224.1860 C   0  0  0  0  0  0  0  0  0  0  0  0
  136.0260   81.8350  224.8470 Cl  0  0  0  0  0  0  0  0  0  0  0  0
  138.4610   80.7500  224.3630 C   0  0  0  0  0  0  0  0  0  0  0  0
  139.3100   79.7880  223.8480 C   0  0  0  0  0  0  0  0  0  0  0  0
  138.8060   78.7070  223.1730 C   0  0  0  0  0  0  0  0  0  0  0  0
  139.6490   77.7630  222.6680 N   0  0  0  0  0  0  0  0  0  0  0  0
  141.8910   76.6370  221.8680 H   0  0  0  0  0  0  0  0  0  0  0  0
  142.9010   74.3074  221.6225 H   0  0  0  0  0  0  0  0  0  0  0  0
  141.4832   73.9211  220.5525 H   0  0  0  0  0  0  0  0  0  0  0  0
  141.1935   74.9065  217.5595 H   0  0  0  0  0  0  0  0  0  0  0  0
  140.3386   76.2898  218.1762 H   0  0  0  0  0  0  0  0  0  0  0  0
  142.6977   76.2188  216.1765 H   0  0  0  0  0  0  0  0  0  0  0  0
  141.1601   77.0020  215.9135 H   0  0  0  0  0  0  0  0  0  0  0  0
  143.3637   78.3398  216.9167 H   0  0  0  0  0  0  0  0  0  0  0  0
  141.7353   78.8324  217.3769 H   0  0  0  0  0  0  0  0  0  0  0  0
  143.7702   77.6684  219.1172 H   0  0  0  0  0  0  0  0  0  0  0  0
  141.8725   79.3769  219.4498 H   0  0  0  0  0  0  0  0  0  0  0  0
  140.8055   77.9089  219.6313 H   0  0  0  0  0  0  0  0  0  0  0  0
  141.1431   80.5415  220.3826 H   0  0  0  0  0  0  0  0  0  0  0  0
  141.0574   82.5825  221.7904 H   0  0  0  0  0  0  0  0  0  0  0  0
  141.9936   82.5671  224.0944 H   0  0  0  0  0  0  0  0  0  0  0  0
  143.0244   80.4771  224.9746 H   0  0  0  0  0  0  0  0  0  0  0  0
  143.1074   78.4531  223.5718 H   0  0  0  0  0  0  0  0  0  0  0  0
  137.4158   75.6920  221.2913 H   0  0  0  0  0  0  0  0  0  0  0  0
  135.8173   77.3676  222.1795 H   0  0  0  0  0  0  0  0  0  0  0  0
  135.4644   79.4207  223.3750 H   0  0  0  0  0  0  0  0  0  0  0  0
  138.8653   81.6175  224.9052 H   0  0  0  0  0  0  0  0  0  0  0  0
  140.3971   79.8909  223.9809 H   0  0  0  0  0  0  0  0  0  0  0  0
  1  2  2  0
  2  3  1  0
  3  4  1  0
  4  5  1  0
  5  6  2  0
  5  7  1  0
  7  8  1  0
  8  9  1  0
  9 10  1  0
 10 11  1  0
 11 12  1  0
 12 13  1  0
 13 14  1  0
 14 15  2  0
 15 16  1  0
 16 17  2  0
 17 18  1  0
 18 19  2  0
  2 20  1  0
 20 21  2  0
 21 22  1  0
 22 23  2  0
 23 24  1  0
 24 25  2  0
 25 26  1  0
 25 27  1  0
 27 28  2  0
 28 29  1  0
 29 30  2  0
 11  7  1  0
 19 14  1  0
 30 20  1  0
 29 23  1  0
  3 31  1  0
  4 32  1  0
  4 33  1  0
  8 34  1  0
  8 35  1  0
  9 36  1  0
  9 37  1  0
 10 38  1  0
 10 39  1  0
 11 40  1  1
 12 41  1  0
 12 42  1  0
 15 43  1  0
 16 44  1  0
 17 45  1  0
 18 46  1  0
 19 47  1  0
 21 48  1  0
 22 49  1  0
 24 50  1  0
 27 51  1  0
 28 52  1  0
M  END
>  <smiles>  (20) 
O=C(NCC(=O)N1CCC[C@H]1COc1ccccc1)c1ccc2cc(Cl)ccc2n1

>  <score_type>  (20) 
oracle

>  <origin>  (20) 
autodockgpu

>  <m_score__min__energy>  (20) 
-8.3900000000000006

>  <m_primary>  (20) 
energy

>  <rmsd>  (20) 
6.8373361616589925

>  <m_score__min__rmsd>  (20) 
6.8373361616589925

>  <meeko>  (20) 
{"free_energy": -6.31, "intermolecular_energy": -8.4, "internal_energy": -3.45, "cluster_size": 3, "cluster_id": 7, "rank_in_cluster": 3}

>  <energy>  (20) 
-7.12

>  <cluster_rmsd>  (20) 
1.74

>  <cluster>  (20) 
1

$$$$

     RDKit          3D

 52 55  0  0  0  0  0  0  0  0999 V2000
  141.5230   73.1550  220.5830 O   0  0  0  0  0  0  0  0  0  0  0  0
  140.9340   73.9370  221.3740 C   0  0  0  0  0  0  0  0  0  0  0  0
  140.0670   73.3290  222.3410 N   0  0  0  0  0  0  0  0  0  0  0  0
  139.9640   71.8840  222.3010 C   0  0  0  0  0  0  0  0  0  0  0  0
  139.3970   71.3270  223.5470 C   0  0  0  0  0  0  0  0  0  0  0  0
  139.7670   71.6740  224.7010 O   0  0  0  0  0  0  0  0  0  0  0  0
  138.3770   70.3440  223.4210 N   0  0  0  0  0  0  0  0  0  0  0  0
  137.3870   70.1920  222.3520 C   0  0  0  0  0  0  0  0  0  0  0  0
  136.1300   69.9380  223.1480 C   0  0  0  0  0  0  0  0  0  0  0  0
  136.6130   68.9770  224.2100 C   0  0  0  0  0  0  0  0  0  0  0  0
  138.0910   69.2590  224.3390 C   0  0  1  0  0  0  0  0  0  0  0  0
  138.8270   67.9980  223.9300 C   0  0  0  0  0  0  0  0  0  0  0  0
  139.5370   67.4130  224.9800 O   0  0  0  0  0  0  0  0  0  0  0  0
  140.0260   68.2420  225.9870 C   0  0  0  0  0  0  0  0  0  0  0  0
  139.6160   68.0780  227.3040 C   0  0  0  0  0  0  0  0  0  0  0  0
  140.1030   68.9050  228.3170 C   0  0  0  0  0  0  0  0  0  0  0  0
  141.0080   69.9110  228.0310 C   0  0  0  0  0  0  0  0  0  0  0  0
  141.4240   70.0850  226.7250 C   0  0  0  0  0  0  0  0  0  0  0  0
  140.9360   69.2600  225.7280 C   0  0  0  0  0  0  0  0  0  0  0  0
  141.1070   75.3860  221.3290 C   0  0  0  0  0  0  0  0  0  0  0  0
  141.8390   75.9100  220.2840 C   0  0  0  0  0  0  0  0  0  0  0  0
  142.0660   77.2600  220.1400 C   0  0  0  0  0  0  0  0  0  0  0  0
  141.5180   78.1010  221.1090 C   0  0  0  0  0  0  0  0  0  0  0  0
  141.7290   79.4600  220.9930 C   0  0  0  0  0  0  0  0  0  0  0  0
  141.1820   80.2800  221.9610 C   0  0  0  0  0  0  0  0  0  0  0  0
  141.4130   82.0160  221.8680 Cl  0  0  0  0  0  0  0  0  0  0  0  0
  140.4400   79.7650  223.0210 C   0  0  0  0  0  0  0  0  0  0  0  0
  140.2470   78.3990  223.1070 C   0  0  0  0  0  0  0  0  0  0  0  0
  140.7800   77.5620  222.1620 C   0  0  0  0  0  0  0  0  0  0  0  0
  140.5870   76.2160  222.2540 N   0  0  0  0  0  0  0  0  0  0  0  0
  139.5460   73.9240  223.0290 H   0  0  0  0  0  0  0  0  0  0  0  0
  139.3160   71.5988  221.4591 H   0  0  0  0  0  0  0  0  0  0  0  0
  140.9793   71.4776  222.1824 H   0  0  0  0  0  0  0  0  0  0  0  0
  137.3030   71.1073  221.7476 H   0  0  0  0  0  0  0  0  0  0  0  0
  137.6269   69.4028  221.6243 H   0  0  0  0  0  0  0  0  0  0  0  0
  135.7467   70.8670  223.5953 H   0  0  0  0  0  0  0  0  0  0  0  0
  135.2970   69.5474  222.5450 H   0  0  0  0  0  0  0  0  0  0  0  0
  136.0980   69.1625  225.1641 H   0  0  0  0  0  0  0  0  0  0  0  0
  136.4110   67.9286  223.9454 H   0  0  0  0  0  0  0  0  0  0  0  0
  138.3963   69.5375  225.3584 H   0  0  0  0  0  0  0  0  0  0  0  0
  138.0924   67.2698  223.5556 H   0  0  0  0  0  0  0  0  0  0  0  0
  139.5575   68.2806  223.1576 H   0  0  0  0  0  0  0  0  0  0  0  0
  138.8963   67.2840  227.5522 H   0  0  0  0  0  0  0  0  0  0  0  0
  139.7639   68.7554  229.3527 H   0  0  0  0  0  0  0  0  0  0  0  0
  141.3905   70.5623  228.8307 H   0  0  0  0  0  0  0  0  0  0  0  0
  142.1434   70.8797  226.4782 H   0  0  0  0  0  0  0  0  0  0  0  0
  141.2799   69.4149  224.6947 H   0  0  0  0  0  0  0  0  0  0  0  0
  142.2582   75.2214  219.5356 H   0  0  0  0  0  0  0  0  0  0  0  0
  142.6529   77.6578  219.2990 H   0  0  0  0  0  0  0  0  0  0  0  0
  142.3126   79.8759  220.1585 H   0  0  0  0  0  0  0  0  0  0  0  0
  140.0129   80.4367  223.7802 H   0  0  0  0  0  0  0  0  0  0  0  0
  139.6618   77.9811  223.9394 H   0  0  0  0  0  0  0  0  0  0  0  0
  1  2  2  0
  2  3  1  0
  3  4  1  0
  4  5  1  0
  5  6  2  0
  5  7  1  0
  7  8  1  0
  8  9  1  0
  9 10  1  0
 10 11  1  0
 11 12  1  0
 12 13  1  0
 13 14  1  0
 14 15  2  0
 15 16  1  0
 16 17  2  0
 17 18  1  0
 18 19  2  0
  2 20  1  0
 20 21  2  0
 21 22  1  0
 22 23  2  0
 23 24  1  0
 24 25  2  0
 25 26  1  0
 25 27  1  0
 27 28  2  0
 28 29  1  0
 29 30  2  0
 11  7  1  0
 19 14  1  0
 30 20  1  0
 29 23  1  0
  3 31  1  0
  4 32  1  0
  4 33  1  0
  8 34  1  0
  8 35  1  0
  9 36  1  0
  9 37  1  0
 10 38  1  0
 10 39  1  0
 11 40  1  1
 12 41  1  0
 12 42  1  0
 15 43  1  0
 16 44  1  0
 17 45  1  0
 18 46  1  0
 19 47  1  0
 21 48  1  0
 22 49  1  0
 24 50  1  0
 27 51  1  0
 28 52  1  0
M  END
>  <smiles>  (21) 
O=C(NCC(=O)N1CCC[C@H]1COc1ccccc1)c1ccc2cc(Cl)ccc2n1

>  <score_type>  (21) 
oracle

>  <origin>  (21) 
autodockgpu

>  <m_score__min__energy>  (21) 
-8.3900000000000006

>  <m_primary>  (21) 
energy

>  <rmsd>  (21) 
8.382665345335935

>  <m_score__min__rmsd>  (21) 
8.382665345335935

>  <meeko>  (21) 
{"free_energy": -8.25, "intermolecular_energy": -10.33, "internal_energy": -1.74, "cluster_size": 9, "cluster_id": 3, "rank_in_cluster": 2}

>  <energy>  (21) 
-6.95

>  <cluster_rmsd>  (21) 
1.76

>  <cluster>  (21) 
1

$$$$

     RDKit          3D

 52 55  0  0  0  0  0  0  0  0999 V2000
  136.0920   76.1440  221.4690 O   0  0  0  0  0  0  0  0  0  0  0  0
  137.1980   75.9910  222.0510 C   0  0  0  0  0  0  0  0  0  0  0  0
  137.6000   74.6380  222.3060 N   0  0  0  0  0  0  0  0  0  0  0  0
  136.6900   73.5990  221.8700 C   0  0  0  0  0  0  0  0  0  0  0  0
  137.3370   72.6340  220.9560 C   0  0  0  0  0  0  0  0  0  0  0  0
  137.1300   72.6000  219.7130 O   0  0  0  0  0  0  0  0  0  0  0  0
  138.2430   71.6960  221.5260 N   0  0  0  0  0  0  0  0  0  0  0  0
  138.5880   70.3560  221.0440 C   0  0  0  0  0  0  0  0  0  0  0  0
  138.5380   69.5600  222.3260 C   0  0  0  0  0  0  0  0  0  0  0  0
  139.2310   70.4840  223.3030 C   0  0  0  0  0  0  0  0  0  0  0  0
  139.0340   71.8670  222.7290 C   0  0  1  0  0  0  0  0  0  0  0  0
  140.4080   72.4150  222.3970 C   0  0  0  0  0  0  0  0  0  0  0  0
  140.3970   73.7790  222.1000 O   0  0  0  0  0  0  0  0  0  0  0  0
  141.4020   74.2820  221.2780 C   0  0  0  0  0  0  0  0  0  0  0  0
  142.4630   73.4790  220.8790 C   0  0  0  0  0  0  0  0  0  0  0  0
  143.4730   73.9780  220.0560 C   0  0  0  0  0  0  0  0  0  0  0  0
  143.4410   75.2880  219.6160 C   0  0  0  0  0  0  0  0  0  0  0  0
  142.3910   76.0990  220.0050 C   0  0  0  0  0  0  0  0  0  0  0  0
  141.3950   75.5950  220.8210 C   0  0  0  0  0  0  0  0  0  0  0  0
  138.0420   77.1120  222.4520 C   0  0  0  0  0  0  0  0  0  0  0  0
  137.4240   78.3180  222.7060 C   0  0  0  0  0  0  0  0  0  0  0  0
  138.1200   79.4430  223.0910 C   0  0  0  0  0  0  0  0  0  0  0  0
  139.5030   79.3180  223.2180 C   0  0  0  0  0  0  0  0  0  0  0  0
  140.2290   80.4280  223.6010 C   0  0  0  0  0  0  0  0  0  0  0  0
  141.5980   80.2900  223.7220 C   0  0  0  0  0  0  0  0  0  0  0  0
  142.5750   81.6630  224.2070 Cl  0  0  0  0  0  0  0  0  0  0  0  0
  142.2360   79.0780  223.4680 C   0  0  0  0  0  0  0  0  0  0  0  0
  141.4790   77.9860  223.0860 C   0  0  0  0  0  0  0  0  0  0  0  0
  140.1190   78.0950  222.9580 C   0  0  0  0  0  0  0  0  0  0  0  0
  139.3800   77.0140  222.5800 N   0  0  0  0  0  0  0  0  0  0  0  0
  138.5100   74.4420  222.7880 H   0  0  0  0  0  0  0  0  0  0  0  0
  136.3221   73.0572  222.7538 H   0  0  0  0  0  0  0  0  0  0  0  0
  135.8664   74.0808  221.3227 H   0  0  0  0  0  0  0  0  0  0  0  0
  137.8525   69.9890  220.3130 H   0  0  0  0  0  0  0  0  0  0  0  0
  139.5515   70.3008  220.5161 H   0  0  0  0  0  0  0  0  0  0  0  0
  137.5002   69.3617  222.6321 H   0  0  0  0  0  0  0  0  0  0  0  0
  139.0065   68.5678  222.2483 H   0  0  0  0  0  0  0  0  0  0  0  0
  138.7723   70.4089  224.3000 H   0  0  0  0  0  0  0  0  0  0  0  0
  140.2947   70.2337  223.4294 H   0  0  0  0  0  0  0  0  0  0  0  0
  138.5280   72.5595  223.4178 H   0  0  0  0  0  0  0  0  0  0  0  0
  141.0686   72.2503  223.2610 H   0  0  0  0  0  0  0  0  0  0  0  0
  140.7634   71.8871  221.4998 H   0  0  0  0  0  0  0  0  0  0  0  0
  142.5075   72.4332  221.2173 H   0  0  0  0  0  0  0  0  0  0  0  0
  144.3031   73.3224  219.7542 H   0  0  0  0  0  0  0  0  0  0  0  0
  144.2382   75.6790  218.9667 H   0  0  0  0  0  0  0  0  0  0  0  0
  142.3480   77.1444  219.6656 H   0  0  0  0  0  0  0  0  0  0  0  0
  140.5680   76.2562  221.1191 H   0  0  0  0  0  0  0  0  0  0  0  0
  136.3315   78.3847  222.5969 H   0  0  0  0  0  0  0  0  0  0  0  0
  137.6081   80.3962  223.2892 H   0  0  0  0  0  0  0  0  0  0  0  0
  139.7342   81.3894  223.8029 H   0  0  0  0  0  0  0  0  0  0  0  0
  143.3278   78.9909  223.5700 H   0  0  0  0  0  0  0  0  0  0  0  0
  141.9716   77.0235  222.8835 H   0  0  0  0  0  0  0  0  0  0  0  0
  1  2  2  0
  2  3  1  0
  3  4  1  0
  4  5  1  0
  5  6  2  0
  5  7  1  0
  7  8  1  0
  8  9  1  0
  9 10  1  0
 10 11  1  0
 11 12  1  0
 12 13  1  0
 13 14  1  0
 14 15  2  0
 15 16  1  0
 16 17  2  0
 17 18  1  0
 18 19  2  0
  2 20  1  0
 20 21  2  0
 21 22  1  0
 22 23  2  0
 23 24  1  0
 24 25  2  0
 25 26  1  0
 25 27  1  0
 27 28  2  0
 28 29  1  0
 29 30  2  0
 11  7  1  0
 19 14  1  0
 30 20  1  0
 29 23  1  0
  3 31  1  0
  4 32  1  0
  4 33  1  0
  8 34  1  0
  8 35  1  0
  9 36  1  0
  9 37  1  0
 10 38  1  0
 10 39  1  0
 11 40  1  1
 12 41  1  0
 12 42  1  0
 15 43  1  0
 16 44  1  0
 17 45  1  0
 18 46  1  0
 19 47  1  0
 21 48  1  0
 22 49  1  0
 24 50  1  0
 27 51  1  0
 28 52  1  0
M  END
>  <smiles>  (22) 
O=C(NCC(=O)N1CCC[C@H]1COc1ccccc1)c1ccc2cc(Cl)ccc2n1

>  <score_type>  (22) 
oracle

>  <origin>  (22) 
autodockgpu

>  <m_score__min__energy>  (22) 
-8.3900000000000006

>  <m_primary>  (22) 
energy

>  <rmsd>  (22) 
7.836130694019051

>  <m_score__min__rmsd>  (22) 
7.836130694019051

>  <meeko>  (22) 
{"free_energy": -6.48, "intermolecular_energy": -8.57, "internal_energy": -2.94, "cluster_size": 3, "cluster_id": 5, "rank_in_cluster": 3}

>  <energy>  (22) 
-6.89

>  <cluster_rmsd>  (22) 
1.78

>  <cluster>  (22) 
1

$$$$

     RDKit          3D

 52 55  0  0  0  0  0  0  0  0999 V2000
  139.8880   72.4080  220.7920 O   0  0  0  0  0  0  0  0  0  0  0  0
  139.7090   72.7720  221.9840 C   0  0  0  0  0  0  0  0  0  0  0  0
  139.3640   74.1500  222.1830 N   0  0  0  0  0  0  0  0  0  0  0  0
  139.2610   74.9710  220.9930 C   0  0  0  0  0  0  0  0  0  0  0  0
  140.5810   75.4120  220.4980 C   0  0  0  0  0  0  0  0  0  0  0  0
  141.5690   74.6410  220.3580 O   0  0  0  0  0  0  0  0  0  0  0  0
  140.7310   76.7870  220.1650 N   0  0  0  0  0  0  0  0  0  0  0  0
  139.8280   77.6380  219.3880 C   0  0  0  0  0  0  0  0  0  0  0  0
  140.8020   78.3550  218.4850 C   0  0  0  0  0  0  0  0  0  0  0  0
  141.9290   78.6930  219.4340 C   0  0  0  0  0  0  0  0  0  0  0  0
  141.8300   77.6590  220.5310 C   0  0  1  0  0  0  0  0  0  0  0  0
  141.5280   78.3970  221.8200 C   0  0  0  0  0  0  0  0  0  0  0  0
  140.4790   77.8270  222.5440 O   0  0  0  0  0  0  0  0  0  0  0  0
  139.4550   78.6610  222.9870 C   0  0  0  0  0  0  0  0  0  0  0  0
  138.1300   78.3880  222.6720 C   0  0  0  0  0  0  0  0  0  0  0  0
  137.1000   79.2200  223.1130 C   0  0  0  0  0  0  0  0  0  0  0  0
  137.3760   80.3390  223.8770 C   0  0  0  0  0  0  0  0  0  0  0  0
  138.6900   80.6220  224.1980 C   0  0  0  0  0  0  0  0  0  0  0  0
  139.7040   79.7920  223.7560 C   0  0  0  0  0  0  0  0  0  0  0  0
  139.8400   71.8610  223.1170 C   0  0  0  0  0  0  0  0  0  0  0  0
  139.4230   70.5580  222.9400 C   0  0  0  0  0  0  0  0  0  0  0  0
  139.4990   69.6130  223.9390 C   0  0  0  0  0  0  0  0  0  0  0  0
  140.0240   70.0260  225.1630 C   0  0  0  0  0  0  0  0  0  0  0  0
  140.1120   69.1010  226.1840 C   0  0  0  0  0  0  0  0  0  0  0  0
  140.6330   69.5250  227.3910 C   0  0  0  0  0  0  0  0  0  0  0  0
  140.7730   68.3970  228.7260 Cl  0  0  0  0  0  0  0  0  0  0  0  0
  141.0580   70.8380  227.5840 C   0  0  0  0  0  0  0  0  0  0  0  0
  140.9560   71.7380  226.5400 C   0  0  0  0  0  0  0  0  0  0  0  0
  140.4420   71.3450  225.3320 C   0  0  0  0  0  0  0  0  0  0  0  0
  140.3430   72.2390  224.3080 N   0  0  0  0  0  0  0  0  0  0  0  0
  139.2030   74.5180  223.1510 H   0  0  0  0  0  0  0  0  0  0  0  0
  138.7642   74.3881  220.2034 H   0  0  0  0  0  0  0  0  0  0  0  0
  138.6830   75.8697  221.2542 H   0  0  0  0  0  0  0  0  0  0  0  0
  139.1085   77.0396  218.8099 H   0  0  0  0  0  0  0  0  0  0  0  0
  139.2028   78.3067  219.9979 H   0  0  0  0  0  0  0  0  0  0  0  0
  141.1483   77.7000  217.6720 H   0  0  0  0  0  0  0  0  0  0  0  0
  140.3719   79.2327  217.9804 H   0  0  0  0  0  0  0  0  0  0  0  0
  142.9005   78.6242  218.9226 H   0  0  0  0  0  0  0  0  0  0  0  0
  141.8528   79.7196  219.8217 H   0  0  0  0  0  0  0  0  0  0  0  0
  142.7502   77.0709  220.6632 H   0  0  0  0  0  0  0  0  0  0  0  0
  142.4313   78.3896  222.4477 H   0  0  0  0  0  0  0  0  0  0  0  0
  141.2231   79.4187  221.5496 H   0  0  0  0  0  0  0  0  0  0  0  0
  137.8889   77.5025  222.0656 H   0  0  0  0  0  0  0  0  0  0  0  0
  136.0584   78.9833  222.8503 H   0  0  0  0  0  0  0  0  0  0  0  0
  136.5627   80.9934  224.2237 H   0  0  0  0  0  0  0  0  0  0  0  0
  138.9294   81.5075  224.8051 H   0  0  0  0  0  0  0  0  0  0  0  0
  140.7433   80.0351  224.0221 H   0  0  0  0  0  0  0  0  0  0  0  0
  139.0138   70.2622  221.9627 H   0  0  0  0  0  0  0  0  0  0  0  0
  139.1607   68.5787  223.7785 H   0  0  0  0  0  0  0  0  0  0  0  0
  139.7788   68.0624  226.0413 H   0  0  0  0  0  0  0  0  0  0  0  0
  141.4691   71.1539  228.5541 H   0  0  0  0  0  0  0  0  0  0  0  0
  141.2897   72.7768  226.6797 H   0  0  0  0  0  0  0  0  0  0  0  0
  1  2  2  0
  2  3  1  0
  3  4  1  0
  4  5  1  0
  5  6  2  0
  5  7  1  0
  7  8  1  0
  8  9  1  0
  9 10  1  0
 10 11  1  0
 11 12  1  0
 12 13  1  0
 13 14  1  0
 14 15  2  0
 15 16  1  0
 16 17  2  0
 17 18  1  0
 18 19  2  0
  2 20  1  0
 20 21  2  0
 21 22  1  0
 22 23  2  0
 23 24  1  0
 24 25  2  0
 25 26  1  0
 25 27  1  0
 27 28  2  0
 28 29  1  0
 29 30  2  0
 11  7  1  0
 19 14  1  0
 30 20  1  0
 29 23  1  0
  3 31  1  0
  4 32  1  0
  4 33  1  0
  8 34  1  0
  8 35  1  0
  9 36  1  0
  9 37  1  0
 10 38  1  0
 10 39  1  0
 11 40  1  1
 12 41  1  0
 12 42  1  0
 15 43  1  0
 16 44  1  0
 17 45  1  0
 18 46  1  0
 19 47  1  0
 21 48  1  0
 22 49  1  0
 24 50  1  0
 27 51  1  0
 28 52  1  0
M  END
>  <smiles>  (23) 
O=C(NCC(=O)N1CCC[C@H]1COc1ccccc1)c1ccc2cc(Cl)ccc2n1

>  <score_type>  (23) 
oracle

>  <origin>  (23) 
autodockgpu

>  <m_score__min__energy>  (23) 
-8.3900000000000006

>  <m_primary>  (23) 
energy

>  <rmsd>  (23) 
1.8133924244376962

>  <m_score__min__rmsd>  (23) 
1.8133924244376962

>  <meeko>  (23) 
{"free_energy": -7.23, "intermolecular_energy": -9.32, "internal_energy": -1.74, "cluster_size": 23, "cluster_id": 1, "rank_in_cluster": 19}

>  <energy>  (23) 
-6.86

>  <cluster_rmsd>  (23) 
1.85

>  <cluster>  (23) 
1

$$$$

     RDKit          3D

 52 55  0  0  0  0  0  0  0  0999 V2000
  140.5140   72.4590  220.8150 O   0  0  0  0  0  0  0  0  0  0  0  0
  140.1850   72.8090  221.9780 C   0  0  0  0  0  0  0  0  0  0  0  0
  139.8260   74.1870  222.1500 N   0  0  0  0  0  0  0  0  0  0  0  0
  139.8810   75.0230  220.9680 C   0  0  0  0  0  0  0  0  0  0  0  0
  140.6680   76.2540  221.1870 C   0  0  0  0  0  0  0  0  0  0  0  0
  141.0650   76.6380  222.3210 O   0  0  0  0  0  0  0  0  0  0  0  0
  140.9890   77.0400  220.0450 N   0  0  0  0  0  0  0  0  0  0  0  0
  141.0380   78.5000  219.9310 C   0  0  0  0  0  0  0  0  0  0  0  0
  140.3150   78.7170  218.6230 C   0  0  0  0  0  0  0  0  0  0  0  0
  140.8920   77.6230  217.7540 C   0  0  0  0  0  0  0  0  0  0  0  0
  141.3430   76.5580  218.7250 C   0  0  1  0  0  0  0  0  0  0  0  0
  142.8470   76.4280  218.5840 C   0  0  0  0  0  0  0  0  0  0  0  0
  143.4920   76.1860  219.7980 O   0  0  0  0  0  0  0  0  0  0  0  0
  143.8900   74.8830  220.0840 C   0  0  0  0  0  0  0  0  0  0  0  0
  145.1760   74.6160  220.5400 C   0  0  0  0  0  0  0  0  0  0  0  0
  145.5800   73.3120  220.8280 C   0  0  0  0  0  0  0  0  0  0  0  0
  144.7070   72.2520  220.6680 C   0  0  0  0  0  0  0  0  0  0  0  0
  143.4250   72.5030  220.2160 C   0  0  0  0  0  0  0  0  0  0  0  0
  143.0340   73.7990  219.9320 C   0  0  0  0  0  0  0  0  0  0  0  0
  140.1630   71.8830  223.1060 C   0  0  0  0  0  0  0  0  0  0  0  0
  139.6180   70.6330  222.8960 C   0  0  0  0  0  0  0  0  0  0  0  0
  139.5450   69.6790  223.8860 C   0  0  0  0  0  0  0  0  0  0  0  0
  140.0520   70.0270  225.1390 C   0  0  0  0  0  0  0  0  0  0  0  0
  139.9920   69.0920  226.1530 C   0  0  0  0  0  0  0  0  0  0  0  0
  140.4970   69.4500  227.3870 C   0  0  0  0  0  0  0  0  0  0  0  0
  140.4510   68.3060  228.7150 Cl  0  0  0  0  0  0  0  0  0  0  0  0
  141.0500   70.7090  227.6140 C   0  0  0  0  0  0  0  0  0  0  0  0
  141.0940   71.6210  226.5770 C   0  0  0  0  0  0  0  0  0  0  0  0
  140.6000   71.2920  225.3410 C   0  0  0  0  0  0  0  0  0  0  0  0
  140.6460   72.1980  224.3240 N   0  0  0  0  0  0  0  0  0  0  0  0
  139.5420   74.5430  223.0940 H   0  0  0  0  0  0  0  0  0  0  0  0
  140.3419   74.4494  220.1504 H   0  0  0  0  0  0  0  0  0  0  0  0
  138.8519   75.3217  220.7194 H   0  0  0  0  0  0  0  0  0  0  0  0
  140.5143   78.9873  220.7666 H   0  0  0  0  0  0  0  0  0  0  0  0
  142.0538   78.9211  219.9604 H   0  0  0  0  0  0  0  0  0  0  0  0
  139.2280   78.5989  218.7437 H   0  0  0  0  0  0  0  0  0  0  0  0
  140.4473   79.7269  218.2076 H   0  0  0  0  0  0  0  0  0  0  0  0
  140.1264   77.2259  217.0712 H   0  0  0  0  0  0  0  0  0  0  0  0
  141.7163   77.9854  217.1222 H   0  0  0  0  0  0  0  0  0  0  0  0
  140.8801   75.5765  218.5447 H   0  0  0  0  0  0  0  0  0  0  0  0
  143.0637   75.5941  217.9001 H   0  0  0  0  0  0  0  0  0  0  0  0
  143.2242   77.3863  218.1976 H   0  0  0  0  0  0  0  0  0  0  0  0
  145.8857   75.4454  220.6758 H   0  0  0  0  0  0  0  0  0  0  0  0
  146.6033   73.1254  221.1859 H   0  0  0  0  0  0  0  0  0  0  0  0
  145.0275   71.2249  220.8968 H   0  0  0  0  0  0  0  0  0  0  0  0
  142.7162   71.6725  220.0823 H   0  0  0  0  0  0  0  0  0  0  0  0
  142.0096   73.9778  219.5733 H   0  0  0  0  0  0  0  0  0  0  0  0
  139.2261   70.3888  221.8976 H   0  0  0  0  0  0  0  0  0  0  0  0
  139.1070   68.6876  223.6980 H   0  0  0  0  0  0  0  0  0  0  0  0
  139.5568   68.0961  225.9835 H   0  0  0  0  0  0  0  0  0  0  0  0
  141.4462   70.9731  228.6056 H   0  0  0  0  0  0  0  0  0  0  0  0
  141.5283   72.6177  226.7441 H   0  0  0  0  0  0  0  0  0  0  0  0
  1  2  2  0
  2  3  1  0
  3  4  1  0
  4  5  1  0
  5  6  2  0
  5  7  1  0
  7  8  1  0
  8  9  1  0
  9 10  1  0
 10 11  1  0
 11 12  1  0
 12 13  1  0
 13 14  1  0
 14 15  2  0
 15 16  1  0
 16 17  2  0
 17 18  1  0
 18 19  2  0
  2 20  1  0
 20 21  2  0
 21 22  1  0
 22 23  2  0
 23 24  1  0
 24 25  2  0
 25 26  1  0
 25 27  1  0
 27 28  2  0
 28 29  1  0
 29 30  2  0
 11  7  1  0
 19 14  1  0
 30 20  1  0
 29 23  1  0
  3 31  1  0
  4 32  1  0
  4 33  1  0
  8 34  1  0
  8 35  1  0
  9 36  1  0
  9 37  1  0
 10 38  1  0
 10 39  1  0
 11 40  1  6
 12 41  1  0
 12 42  1  0
 15 43  1  0
 16 44  1  0
 17 45  1  0
 18 46  1  0
 19 47  1  0
 21 48  1  0
 22 49  1  0
 24 50  1  0
 27 51  1  0
 28 52  1  0
M  END
>  <smiles>  (24) 
O=C(NCC(=O)N1CCC[C@H]1COc1ccccc1)c1ccc2cc(Cl)ccc2n1

>  <score_type>  (24) 
oracle

>  <origin>  (24) 
autodockgpu

>  <m_score__min__energy>  (24) 
-8.3900000000000006

>  <m_primary>  (24) 
energy

>  <rmsd>  (24) 
2.2223381439469336

>  <m_score__min__rmsd>  (24) 
2.2223381439469336

>  <meeko>  (24) 
{"free_energy": -7.45, "intermolecular_energy": -9.54, "internal_energy": -2.15, "cluster_size": 9, "cluster_id": 2, "rank_in_cluster": 5}

>  <energy>  (24) 
-8.37

>  <cluster_rmsd>  (24) 
0.0

>  <cluster>  (24) 
2

$$$$

     RDKit          3D

 52 55  0  0  0  0  0  0  0  0999 V2000
  141.5800   73.3360  221.2560 O   0  0  0  0  0  0  0  0  0  0  0  0
  140.6980   74.1120  221.7050 C   0  0  0  0  0  0  0  0  0  0  0  0
  139.5710   73.4940  222.3410 N   0  0  0  0  0  0  0  0  0  0  0  0
  139.5710   72.0460  222.3960 C   0  0  0  0  0  0  0  0  0  0  0  0
  138.2570   71.4990  222.7930 C   0  0  0  0  0  0  0  0  0  0  0  0
  137.3840   72.1600  223.4180 O   0  0  0  0  0  0  0  0  0  0  0  0
  137.9770   70.1480  222.4450 N   0  0  0  0  0  0  0  0  0  0  0  0
  137.9970   69.5280  221.1180 C   0  0  0  0  0  0  0  0  0  0  0  0
  136.7190   68.7260  221.1490 C   0  0  0  0  0  0  0  0  0  0  0  0
  136.7510   68.1260  222.5360 C   0  0  0  0  0  0  0  0  0  0  0  0
  137.6040   69.0740  223.3440 C   0  0  1  0  0  0  0  0  0  0  0  0
  138.8270   68.3020  223.7990 C   0  0  0  0  0  0  0  0  0  0  0  0
  138.9000   68.1590  225.1860 O   0  0  0  0  0  0  0  0  0  0  0  0
  139.5270   69.1630  225.9190 C   0  0  0  0  0  0  0  0  0  0  0  0
  139.5290   69.1340  227.3080 C   0  0  0  0  0  0  0  0  0  0  0  0
  140.1560   70.1370  228.0480 C   0  0  0  0  0  0  0  0  0  0  0  0
  140.7920   71.1880  227.4130 C   0  0  0  0  0  0  0  0  0  0  0  0
  140.7980   71.2300  226.0310 C   0  0  0  0  0  0  0  0  0  0  0  0
  140.1740   70.2300  225.3070 C   0  0  0  0  0  0  0  0  0  0  0  0
  140.7940   75.5650  221.5980 C   0  0  0  0  0  0  0  0  0  0  0  0
  140.5670   76.1300  220.3610 C   0  0  0  0  0  0  0  0  0  0  0  0
  140.6310   77.4880  220.1410 C   0  0  0  0  0  0  0  0  0  0  0  0
  140.9390   78.2920  221.2390 C   0  0  0  0  0  0  0  0  0  0  0  0
  141.0110   79.6580  221.0520 C   0  0  0  0  0  0  0  0  0  0  0  0
  141.3180   80.4410  222.1470 C   0  0  0  0  0  0  0  0  0  0  0  0
  141.4220   82.1830  221.9740 Cl  0  0  0  0  0  0  0  0  0  0  0  0
  141.5490   79.8850  223.4030 C   0  0  0  0  0  0  0  0  0  0  0  0
  141.4700   78.5130  223.5560 C   0  0  0  0  0  0  0  0  0  0  0  0
  141.1670   77.7120  222.4860 C   0  0  0  0  0  0  0  0  0  0  0  0
  141.0910   76.3600  222.6440 N   0  0  0  0  0  0  0  0  0  0  0  0
  138.8000   74.0850  222.7370 H   0  0  0  0  0  0  0  0  0  0  0  0
  139.8311   71.6544  221.4015 H   0  0  0  0  0  0  0  0  0  0  0  0
  140.3061   71.7384  223.1543 H   0  0  0  0  0  0  0  0  0  0  0  0
  137.9788   70.2844  220.3195 H   0  0  0  0  0  0  0  0  0  0  0  0
  138.8985   68.9324  220.9118 H   0  0  0  0  0  0  0  0  0  0  0  0
  135.8393   69.3725  221.0145 H   0  0  0  0  0  0  0  0  0  0  0  0
  136.6482   67.9775  220.3460 H   0  0  0  0  0  0  0  0  0  0  0  0
  135.7360   68.0641  222.9554 H   0  0  0  0  0  0  0  0  0  0  0  0
  137.1518   67.1016  222.5372 H   0  0  0  0  0  0  0  0  0  0  0  0
  137.0894   69.4826  224.2262 H   0  0  0  0  0  0  0  0  0  0  0  0
  138.7977   67.3005  223.3449 H   0  0  0  0  0  0  0  0  0  0  0  0
  139.7120   68.8728  223.4812 H   0  0  0  0  0  0  0  0  0  0  0  0
  139.0283   68.3070  227.8328 H   0  0  0  0  0  0  0  0  0  0  0  0
  140.1443   70.0913  229.1470 H   0  0  0  0  0  0  0  0  0  0  0  0
  141.2853   71.9781  227.9981 H   0  0  0  0  0  0  0  0  0  0  0  0
  141.2986   72.0580  225.5077 H   0  0  0  0  0  0  0  0  0  0  0  0
  140.1904   70.2811  224.2083 H   0  0  0  0  0  0  0  0  0  0  0  0
  140.3250   75.4693  219.5155 H   0  0  0  0  0  0  0  0  0  0  0  0
  140.4478   77.9189  219.1457 H   0  0  0  0  0  0  0  0  0  0  0  0
  140.8300   80.1072  220.0644 H   0  0  0  0  0  0  0  0  0  0  0  0
  141.7910   80.5286  224.2616 H   0  0  0  0  0  0  0  0  0  0  0  0
  141.6515   78.0617  224.5426 H   0  0  0  0  0  0  0  0  0  0  0  0
  1  2  2  0
  2  3  1  0
  3  4  1  0
  4  5  1  0
  5  6  2  0
  5  7  1  0
  7  8  1  0
  8  9  1  0
  9 10  1  0
 10 11  1  0
 11 12  1  0
 12 13  1  0
 13 14  1  0
 14 15  2  0
 15 16  1  0
 16 17  2  0
 17 18  1  0
 18 19  2  0
  2 20  1  0
 20 21  2  0
 21 22  1  0
 22 23  2  0
 23 24  1  0
 24 25  2  0
 25 26  1  0
 25 27  1  0
 27 28  2  0
 28 29  1  0
 29 30  2  0
 11  7  1  0
 19 14  1  0
 30 20  1  0
 29 23  1  0
  3 31  1  0
  4 32  1  0
  4 33  1  0
  8 34  1  0
  8 35  1  0
  9 36  1  0
  9 37  1  0
 10 38  1  0
 10 39  1  0
 11 40  1  1
 12 41  1  0
 12 42  1  0
 15 43  1  0
 16 44  1  0
 17 45  1  0
 18 46  1  0
 19 47  1  0
 21 48  1  0
 22 49  1  0
 24 50  1  0
 27 51  1  0
 28 52  1  0
M  END
>  <smiles>  (25) 
O=C(NCC(=O)N1CCC[C@H]1COc1ccccc1)c1ccc2cc(Cl)ccc2n1

>  <score_type>  (25) 
oracle

>  <origin>  (25) 
autodockgpu

>  <m_score__min__energy>  (25) 
-8.3900000000000006

>  <m_primary>  (25) 
energy

>  <rmsd>  (25) 
8.263573157106581

>  <m_score__min__rmsd>  (25) 
8.263573157106581

>  <meeko>  (25) 
{"free_energy": -7.73, "intermolecular_energy": -9.81, "internal_energy": -1.77, "cluster_size": 9, "cluster_id": 3, "rank_in_cluster": 9}

>  <energy>  (25) 
-7.99

>  <cluster_rmsd>  (25) 
0.33

>  <cluster>  (25) 
2

$$$$

     RDKit          3D

 52 55  0  0  0  0  0  0  0  0999 V2000
  138.0070   71.3670  221.0610 O   0  0  0  0  0  0  0  0  0  0  0  0
  138.5230   71.8710  222.0930 C   0  0  0  0  0  0  0  0  0  0  0  0
  138.6800   73.2970  222.0930 N   0  0  0  0  0  0  0  0  0  0  0  0
  138.2300   73.9990  220.9090 C   0  0  0  0  0  0  0  0  0  0  0  0
  137.6930   75.3400  221.2210 C   0  0  0  0  0  0  0  0  0  0  0  0
  136.4780   75.6540  221.0960 O   0  0  0  0  0  0  0  0  0  0  0  0
  138.6110   76.3220  221.6860 N   0  0  0  0  0  0  0  0  0  0  0  0
  138.4430   77.2760  222.7850 C   0  0  0  0  0  0  0  0  0  0  0  0
  138.9630   78.5450  222.1560 C   0  0  0  0  0  0  0  0  0  0  0  0
  140.1970   78.0600  221.4290 C   0  0  0  0  0  0  0  0  0  0  0  0
  139.9350   76.5970  221.1630 C   0  0  1  0  0  0  0  0  0  0  0  0
  140.9870   75.8070  221.9170 C   0  0  0  0  0  0  0  0  0  0  0  0
  140.8280   74.4260  221.7940 O   0  0  0  0  0  0  0  0  0  0  0  0
  141.8740   73.6900  221.2430 C   0  0  0  0  0  0  0  0  0  0  0  0
  142.9900   74.3260  220.7150 C   0  0  0  0  0  0  0  0  0  0  0  0
  144.0410   73.5930  220.1620 C   0  0  0  0  0  0  0  0  0  0  0  0
  143.9950   72.2110  220.1270 C   0  0  0  0  0  0  0  0  0  0  0  0
  142.8910   71.5650  220.6490 C   0  0  0  0  0  0  0  0  0  0  0  0
  141.8550   72.3010  221.1950 C   0  0  0  0  0  0  0  0  0  0  0  0
  138.9460   71.0700  223.2370 C   0  0  0  0  0  0  0  0  0  0  0  0
  138.6140   69.7320  223.2380 C   0  0  0  0  0  0  0  0  0  0  0  0
  138.9600   68.8810  224.2650 C   0  0  0  0  0  0  0  0  0  0  0  0
  139.6750   69.4320  225.3290 C   0  0  0  0  0  0  0  0  0  0  0  0
  140.0360   68.6050  226.3730 C   0  0  0  0  0  0  0  0  0  0  0  0
  140.7420   69.1640  227.4200 C   0  0  0  0  0  0  0  0  0  0  0  0
  141.2310   68.1650  228.7760 Cl  0  0  0  0  0  0  0  0  0  0  0  0
  141.0850   70.5140  227.4340 C   0  0  0  0  0  0  0  0  0  0  0  0
  140.7070   71.3140  226.3710 C   0  0  0  0  0  0  0  0  0  0  0  0
  140.0050   70.7860  225.3190 C   0  0  0  0  0  0  0  0  0  0  0  0
  139.6360   71.5810  224.2760 N   0  0  0  0  0  0  0  0  0  0  0  0
  139.1030   73.7790  222.9220 H   0  0  0  0  0  0  0  0  0  0  0  0
  139.0798   74.1101  220.2195 H   0  0  0  0  0  0  0  0  0  0  0  0
  137.4192   73.4092  220.4564 H   0  0  0  0  0  0  0  0  0  0  0  0
  137.3866   77.3739  223.0754 H   0  0  0  0  0  0  0  0  0  0  0  0
  138.9582   76.9892  223.7136 H   0  0  0  0  0  0  0  0  0  0  0  0
  138.2300   78.9723  221.4559 H   0  0  0  0  0  0  0  0  0  0  0  0
  139.1650   79.3465  222.8818 H   0  0  0  0  0  0  0  0  0  0  0  0
  140.3314   78.6080  220.4847 H   0  0  0  0  0  0  0  0  0  0  0  0
  141.1144   78.2187  222.0148 H   0  0  0  0  0  0  0  0  0  0  0  0
  139.9823   76.3307  220.0968 H   0  0  0  0  0  0  0  0  0  0  0  0
  141.9778   76.0814  221.5259 H   0  0  0  0  0  0  0  0  0  0  0  0
  140.8815   76.0553  222.9834 H   0  0  0  0  0  0  0  0  0  0  0  0
  143.0464   75.4244  220.7329 H   0  0  0  0  0  0  0  0  0  0  0  0
  144.9145   74.1195  219.7499 H   0  0  0  0  0  0  0  0  0  0  0  0
  144.8244   71.6353  219.6904 H   0  0  0  0  0  0  0  0  0  0  0  0
  142.8360   70.4665  220.6304 H   0  0  0  0  0  0  0  0  0  0  0  0
  140.9849   71.7680  221.6060 H   0  0  0  0  0  0  0  0  0  0  0  0
  138.0501   69.3274  222.3846 H   0  0  0  0  0  0  0  0  0  0  0  0
  138.6852   67.8160  224.2469 H   0  0  0  0  0  0  0  0  0  0  0  0
  139.7706   67.5375  226.3713 H   0  0  0  0  0  0  0  0  0  0  0  0
  141.6484   70.9377  228.2784 H   0  0  0  0  0  0  0  0  0  0  0  0
  140.9717   72.3817  226.3699 H   0  0  0  0  0  0  0  0  0  0  0  0
  1  2  2  0
  2  3  1  0
  3  4  1  0
  4  5  1  0
  5  6  2  0
  5  7  1  0
  7  8  1  0
  8  9  1  0
  9 10  1  0
 10 11  1  0
 11 12  1  0
 12 13  1  0
 13 14  1  0
 14 15  2  0
 15 16  1  0
 16 17  2  0
 17 18  1  0
 18 19  2  0
  2 20  1  0
 20 21  2  0
 21 22  1  0
 22 23  2  0
 23 24  1  0
 24 25  2  0
 25 26  1  0
 25 27  1  0
 27 28  2  0
 28 29  1  0
 29 30  2  0
 11  7  1  0
 19 14  1  0
 30 20  1  0
 29 23  1  0
  3 31  1  0
  4 32  1  0
  4 33  1  0
  8 34  1  0
  8 35  1  0
  9 36  1  0
  9 37  1  0
 10 38  1  0
 10 39  1  0
 11 40  1  6
 12 41  1  0
 12 42  1  0
 15 43  1  0
 16 44  1  0
 17 45  1  0
 18 46  1  0
 19 47  1  0
 21 48  1  0
 22 49  1  0
 24 50  1  0
 27 51  1  0
 28 52  1  0
M  END
>  <smiles>  (26) 
O=C(NCC(=O)N1CCC[C@H]1COc1ccccc1)c1ccc2cc(Cl)ccc2n1

>  <score_type>  (26) 
oracle

>  <origin>  (26) 
autodockgpu

>  <m_score__min__energy>  (26) 
-8.3900000000000006

>  <m_primary>  (26) 
energy

>  <rmsd>  (26) 
2.544823683573066

>  <m_score__min__rmsd>  (26) 
2.544823683573066

>  <meeko>  (26) 
{"free_energy": -7.23, "intermolecular_energy": -9.32, "internal_energy": -2.52, "cluster_size": 9, "cluster_id": 2, "rank_in_cluster": 7}

>  <energy>  (26) 
-7.93

>  <cluster_rmsd>  (26) 
0.37

>  <cluster>  (26) 
2

$$$$

     RDKit          3D

 52 55  0  0  0  0  0  0  0  0999 V2000
  139.4910   74.8550  220.6850 O   0  0  0  0  0  0  0  0  0  0  0  0
  139.9550   75.7930  221.3840 C   0  0  0  0  0  0  0  0  0  0  0  0
  141.3780   75.8110  221.5600 N   0  0  0  0  0  0  0  0  0  0  0  0
  142.1240   74.7490  220.9170 C   0  0  0  0  0  0  0  0  0  0  0  0
  143.1260   75.2660  219.9610 C   0  0  0  0  0  0  0  0  0  0  0  0
  144.3580   75.0080  220.0320 O   0  0  0  0  0  0  0  0  0  0  0  0
  142.6590   76.0990  218.9070 N   0  0  0  0  0  0  0  0  0  0  0  0
  141.7460   75.7570  217.8140 C   0  0  0  0  0  0  0  0  0  0  0  0
  142.4540   76.3800  216.6340 C   0  0  0  0  0  0  0  0  0  0  0  0
  142.8930   77.7150  217.1930 C   0  0  0  0  0  0  0  0  0  0  0  0
  142.9910   77.4930  218.6840 C   0  0  1  0  0  0  0  0  0  0  0  0
  141.9720   78.4020  219.3410 C   0  0  0  0  0  0  0  0  0  0  0  0
  141.8500   78.1860  220.7160 O   0  0  0  0  0  0  0  0  0  0  0  0
  141.9500   79.2840  221.5660 C   0  0  0  0  0  0  0  0  0  0  0  0
  142.5530   79.1660  222.8120 C   0  0  0  0  0  0  0  0  0  0  0  0
  142.6550   80.2630  223.6680 C   0  0  0  0  0  0  0  0  0  0  0  0
  142.1580   81.4980  223.2940 C   0  0  0  0  0  0  0  0  0  0  0  0
  141.5550   81.6290  222.0570 C   0  0  0  0  0  0  0  0  0  0  0  0
  141.4590   80.5360  221.2160 C   0  0  0  0  0  0  0  0  0  0  0  0
  139.1110   76.8170  221.9910 C   0  0  0  0  0  0  0  0  0  0  0  0
  137.7460   76.6940  221.8400 C   0  0  0  0  0  0  0  0  0  0  0  0
  136.8550   77.6000  222.3700 C   0  0  0  0  0  0  0  0  0  0  0  0
  137.3920   78.6730  223.0810 C   0  0  0  0  0  0  0  0  0  0  0  0
  136.5240   79.5990  223.6240 C   0  0  0  0  0  0  0  0  0  0  0  0
  137.0690   80.6570  224.3260 C   0  0  0  0  0  0  0  0  0  0  0  0
  136.0190   81.8650  225.0400 Cl  0  0  0  0  0  0  0  0  0  0  0  0
  138.4460   80.7950  224.4870 C   0  0  0  0  0  0  0  0  0  0  0  0
  139.2870   79.8490  223.9300 C   0  0  0  0  0  0  0  0  0  0  0  0
  138.7730   78.7900  223.2290 C   0  0  0  0  0  0  0  0  0  0  0  0
  139.6080   77.8620  222.6820 N   0  0  0  0  0  0  0  0  0  0  0  0
  141.8280   76.5660  222.1320 H   0  0  0  0  0  0  0  0  0  0  0  0
  142.6423   74.1627  221.6901 H   0  0  0  0  0  0  0  0  0  0  0  0
  141.4102   74.1297  220.3540 H   0  0  0  0  0  0  0  0  0  0  0  0
  141.6484   74.6677  217.6963 H   0  0  0  0  0  0  0  0  0  0  0  0
  140.7148   76.1109  217.9599 H   0  0  0  0  0  0  0  0  0  0  0  0
  143.3179   75.7746  216.3222 H   0  0  0  0  0  0  0  0  0  0  0  0
  141.8251   76.4629  215.7353 H   0  0  0  0  0  0  0  0  0  0  0  0
  143.8696   78.0065  216.7792 H   0  0  0  0  0  0  0  0  0  0  0  0
  142.1924   78.5237  216.9378 H   0  0  0  0  0  0  0  0  0  0  0  0
  143.9868   77.7139  219.0959 H   0  0  0  0  0  0  0  0  0  0  0  0
  142.2768   79.4460  219.1764 H   0  0  0  0  0  0  0  0  0  0  0  0
  140.9948   78.1814  218.8866 H   0  0  0  0  0  0  0  0  0  0  0  0
  142.9562   78.1927  223.1285 H   0  0  0  0  0  0  0  0  0  0  0  0
  143.1356   80.1443  224.6503 H   0  0  0  0  0  0  0  0  0  0  0  0
  142.2411   82.3620  223.9697 H   0  0  0  0  0  0  0  0  0  0  0  0
  141.1516   82.6027  221.7419 H   0  0  0  0  0  0  0  0  0  0  0  0
  140.9770   80.6618  220.2353 H   0  0  0  0  0  0  0  0  0  0  0  0
  137.3529   75.8372  221.2731 H   0  0  0  0  0  0  0  0  0  0  0  0
  135.7692   77.4829  222.2387 H   0  0  0  0  0  0  0  0  0  0  0  0
  135.4355   79.4980  223.5019 H   0  0  0  0  0  0  0  0  0  0  0  0
  138.8588   81.6452  225.0498 H   0  0  0  0  0  0  0  0  0  0  0  0
  140.3759   79.9474  224.0506 H   0  0  0  0  0  0  0  0  0  0  0  0
  1  2  2  0
  2  3  1  0
  3  4  1  0
  4  5  1  0
  5  6  2  0
  5  7  1  0
  7  8  1  0
  8  9  1  0
  9 10  1  0
 10 11  1  0
 11 12  1  0
 12 13  1  0
 13 14  1  0
 14 15  2  0
 15 16  1  0
 16 17  2  0
 17 18  1  0
 18 19  2  0
  2 20  1  0
 20 21  2  0
 21 22  1  0
 22 23  2  0
 23 24  1  0
 24 25  2  0
 25 26  1  0
 25 27  1  0
 27 28  2  0
 28 29  1  0
 29 30  2  0
 11  7  1  0
 19 14  1  0
 30 20  1  0
 29 23  1  0
  3 31  1  0
  4 32  1  0
  4 33  1  0
  8 34  1  0
  8 35  1  0
  9 36  1  0
  9 37  1  0
 10 38  1  0
 10 39  1  0
 11 40  1  1
 12 41  1  0
 12 42  1  0
 15 43  1  0
 16 44  1  0
 17 45  1  0
 18 46  1  0
 19 47  1  0
 21 48  1  0
 22 49  1  0
 24 50  1  0
 27 51  1  0
 28 52  1  0
M  END
>  <smiles>  (27) 
O=C(NCC(=O)N1CCC[C@H]1COc1ccccc1)c1ccc2cc(Cl)ccc2n1

>  <score_type>  (27) 
oracle

>  <origin>  (27) 
autodockgpu

>  <m_score__min__energy>  (27) 
-8.3900000000000006

>  <m_primary>  (27) 
energy

>  <rmsd>  (27) 
6.909716975701269

>  <m_score__min__rmsd>  (27) 
6.909716975701269

>  <meeko>  (27) 
{"free_energy": -6.33, "intermolecular_energy": -8.42, "internal_energy": -3.44, "cluster_size": 3, "cluster_id": 7, "rank_in_cluster": 2}

>  <energy>  (27) 
-7.87

>  <cluster_rmsd>  (27) 
0.5

>  <cluster>  (27) 
2

$$$$

     RDKit          3D

 52 55  0  0  0  0  0  0  0  0999 V2000
  139.7630   72.0370  220.8230 O   0  0  0  0  0  0  0  0  0  0  0  0
  139.6790   72.4290  222.0160 C   0  0  0  0  0  0  0  0  0  0  0  0
  139.4150   73.8260  222.2090 N   0  0  0  0  0  0  0  0  0  0  0  0
  139.2760   74.6300  221.0120 C   0  0  0  0  0  0  0  0  0  0  0  0
  139.1510   76.0710  221.3150 C   0  0  0  0  0  0  0  0  0  0  0  0
  138.0470   76.6680  221.4340 O   0  0  0  0  0  0  0  0  0  0  0  0
  140.3540   76.8130  221.4790 N   0  0  0  0  0  0  0  0  0  0  0  0
  141.0590   77.1400  222.7210 C   0  0  0  0  0  0  0  0  0  0  0  0
  141.3790   78.5990  222.5030 C   0  0  0  0  0  0  0  0  0  0  0  0
  141.8300   78.6160  221.0600 C   0  0  0  0  0  0  0  0  0  0  0  0
  141.1560   77.4180  220.4340 C   0  0  1  0  0  0  0  0  0  0  0  0
  142.2510   76.4730  219.9800 C   0  0  0  0  0  0  0  0  0  0  0  0
  142.0860   75.1720  220.4590 O   0  0  0  0  0  0  0  0  0  0  0  0
  143.1960   74.3310  220.4790 C   0  0  0  0  0  0  0  0  0  0  0  0
  144.4830   74.8530  220.4530 C   0  0  0  0  0  0  0  0  0  0  0  0
  145.5990   74.0160  220.4730 C   0  0  0  0  0  0  0  0  0  0  0  0
  145.4490   72.6420  220.5190 C   0  0  0  0  0  0  0  0  0  0  0  0
  144.1740   72.1090  220.5460 C   0  0  0  0  0  0  0  0  0  0  0  0
  143.0740   72.9480  220.5260 C   0  0  0  0  0  0  0  0  0  0  0  0
  139.8360   71.5320  223.1560 C   0  0  0  0  0  0  0  0  0  0  0  0
  139.4550   70.2160  222.9920 C   0  0  0  0  0  0  0  0  0  0  0  0
  139.5590   69.2820  223.9980 C   0  0  0  0  0  0  0  0  0  0  0  0
  140.0750   69.7200  225.2180 C   0  0  0  0  0  0  0  0  0  0  0  0
  140.1900   68.8070  226.2470 C   0  0  0  0  0  0  0  0  0  0  0  0
  140.7020   69.2550  227.4490 C   0  0  0  0  0  0  0  0  0  0  0  0
  140.8750   68.1430  228.7930 Cl  0  0  0  0  0  0  0  0  0  0  0  0
  141.0910   70.5800  227.6300 C   0  0  0  0  0  0  0  0  0  0  0  0
  140.9620   71.4690  226.5790 C   0  0  0  0  0  0  0  0  0  0  0  0
  140.4570   71.0510  225.3750 C   0  0  0  0  0  0  0  0  0  0  0  0
  140.3310   71.9340  224.3440 N   0  0  0  0  0  0  0  0  0  0  0  0
  139.3330   74.2170  223.1780 H   0  0  0  0  0  0  0  0  0  0  0  0
  140.1623   74.4774  220.3786 H   0  0  0  0  0  0  0  0  0  0  0  0
  138.3559   74.3132  220.4991 H   0  0  0  0  0  0  0  0  0  0  0  0
  140.4139   76.9961  223.6003 H   0  0  0  0  0  0  0  0  0  0  0  0
  141.9388   76.5102  222.9192 H   0  0  0  0  0  0  0  0  0  0  0  0
  140.4891   79.2286  222.6500 H   0  0  0  0  0  0  0  0  0  0  0  0
  142.1280   78.9959  223.2040 H   0  0  0  0  0  0  0  0  0  0  0  0
  141.5098   79.5443  220.5643 H   0  0  0  0  0  0  0  0  0  0  0  0
  142.9251   78.5742  220.9655 H   0  0  0  0  0  0  0  0  0  0  0  0
  140.5217   77.6732  219.5723 H   0  0  0  0  0  0  0  0  0  0  0  0
  142.2540   76.4433  218.8804 H   0  0  0  0  0  0  0  0  0  0  0  0
  143.2006   76.8532  220.3847 H   0  0  0  0  0  0  0  0  0  0  0  0
  144.6245   75.9432  220.4161 H   0  0  0  0  0  0  0  0  0  0  0  0
  146.6081   74.4533  220.4520 H   0  0  0  0  0  0  0  0  0  0  0  0
  146.3303   71.9838  220.5338 H   0  0  0  0  0  0  0  0  0  0  0  0
  144.0339   71.0186  220.5834 H   0  0  0  0  0  0  0  0  0  0  0  0
  142.0677   72.5044  220.5481 H   0  0  0  0  0  0  0  0  0  0  0  0
  139.0520   69.9005  222.0183 H   0  0  0  0  0  0  0  0  0  0  0  0
  139.2492   68.2374  223.8467 H   0  0  0  0  0  0  0  0  0  0  0  0
  139.8844   67.7587  226.1142 H   0  0  0  0  0  0  0  0  0  0  0  0
  141.4956   70.9148  228.5965 H   0  0  0  0  0  0  0  0  0  0  0  0
  141.2664   72.5179  226.7097 H   0  0  0  0  0  0  0  0  0  0  0  0
  1  2  2  0
  2  3  1  0
  3  4  1  0
  4  5  1  0
  5  6  2  0
  5  7  1  0
  7  8  1  0
  8  9  1  0
  9 10  1  0
 10 11  1  0
 11 12  1  0
 12 13  1  0
 13 14  1  0
 14 15  2  0
 15 16  1  0
 16 17  2  0
 17 18  1  0
 18 19  2  0
  2 20  1  0
 20 21  2  0
 21 22  1  0
 22 23  2  0
 23 24  1  0
 24 25  2  0
 25 26  1  0
 25 27  1  0
 27 28  2  0
 28 29  1  0
 29 30  2  0
 11  7  1  0
 19 14  1  0
 30 20  1  0
 29 23  1  0
  3 31  1  0
  4 32  1  0
  4 33  1  0
  8 34  1  0
  8 35  1  0
  9 36  1  0
  9 37  1  0
 10 38  1  0
 10 39  1  0
 11 40  1  6
 12 41  1  0
 12 42  1  0
 15 43  1  0
 16 44  1  0
 17 45  1  0
 18 46  1  0
 19 47  1  0
 21 48  1  0
 22 49  1  0
 24 50  1  0
 27 51  1  0
 28 52  1  0
M  END
>  <smiles>  (28) 
O=C(NCC(=O)N1CCC[C@H]1COc1ccccc1)c1ccc2cc(Cl)ccc2n1

>  <score_type>  (28) 
oracle

>  <origin>  (28) 
autodockgpu

>  <m_score__min__energy>  (28) 
-8.3900000000000006

>  <m_primary>  (28) 
energy

>  <rmsd>  (28) 
2.671084667215383

>  <m_score__min__rmsd>  (28) 
2.671084667215383

>  <meeko>  (28) 
{"free_energy": -8.37, "intermolecular_energy": -10.46, "internal_energy": -2.0, "cluster_size": 9, "cluster_id": 2, "rank_in_cluster": 1}

>  <energy>  (28) 
-7.45

>  <cluster_rmsd>  (28) 
1.14

>  <cluster>  (28) 
2

$$$$

     RDKit          3D

 52 55  0  0  0  0  0  0  0  0999 V2000
  138.8870   72.7910  220.9990 O   0  0  0  0  0  0  0  0  0  0  0  0
  139.8290   72.8050  221.8340 C   0  0  0  0  0  0  0  0  0  0  0  0
  140.8810   73.7490  221.5890 N   0  0  0  0  0  0  0  0  0  0  0  0
  140.7440   74.5800  220.4110 C   0  0  0  0  0  0  0  0  0  0  0  0
  142.0300   75.1750  219.9910 C   0  0  0  0  0  0  0  0  0  0  0  0
  143.1240   74.9640  220.5810 O   0  0  0  0  0  0  0  0  0  0  0  0
  142.0170   76.0310  218.8540 N   0  0  0  0  0  0  0  0  0  0  0  0
  141.1890   75.9320  217.6510 C   0  0  0  0  0  0  0  0  0  0  0  0
  142.2110   76.1840  216.5680 C   0  0  0  0  0  0  0  0  0  0  0  0
  143.0100   77.3310  217.1440 C   0  0  0  0  0  0  0  0  0  0  0  0
  142.8360   77.2080  218.6390 C   0  0  1  0  0  0  0  0  0  0  0  0
  142.1200   78.4570  219.1120 C   0  0  0  0  0  0  0  0  0  0  0  0
  141.3070   78.2340  220.2260 O   0  0  0  0  0  0  0  0  0  0  0  0
  141.6410   78.8660  221.4210 C   0  0  0  0  0  0  0  0  0  0  0  0
  141.4340   78.2340  222.6410 C   0  0  0  0  0  0  0  0  0  0  0  0
  141.7670   78.8620  223.8420 C   0  0  0  0  0  0  0  0  0  0  0  0
  142.3140   80.1320  223.8450 C   0  0  0  0  0  0  0  0  0  0  0  0
  142.5260   80.7720  222.6390 C   0  0  0  0  0  0  0  0  0  0  0  0
  142.1920   80.1410  221.4540 C   0  0  0  0  0  0  0  0  0  0  0  0
  139.8710   71.9200  222.9930 C   0  0  0  0  0  0  0  0  0  0  0  0
  139.2790   70.6800  222.8730 C   0  0  0  0  0  0  0  0  0  0  0  0
  139.2580   69.7640  223.9010 C   0  0  0  0  0  0  0  0  0  0  0  0
  139.8710   70.1400  225.0960 C   0  0  0  0  0  0  0  0  0  0  0  0
  139.8660   69.2440  226.1460 C   0  0  0  0  0  0  0  0  0  0  0  0
  140.4750   69.6300  227.3240 C   0  0  0  0  0  0  0  0  0  0  0  0
  140.5040   68.5350  228.6930 Cl  0  0  0  0  0  0  0  0  0  0  0  0
  141.0780   70.8790  227.4600 C   0  0  0  0  0  0  0  0  0  0  0  0
  141.0640   71.7530  226.3890 C   0  0  0  0  0  0  0  0  0  0  0  0
  140.4660   71.3950  225.2090 C   0  0  0  0  0  0  0  0  0  0  0  0
  140.4560   72.2630  224.1580 N   0  0  0  0  0  0  0  0  0  0  0  0
  141.6950   73.8110  222.2470 H   0  0  0  0  0  0  0  0  0  0  0  0
  140.3535   73.9643  219.5874 H   0  0  0  0  0  0  0  0  0  0  0  0
  140.0574   75.4031  220.6581 H   0  0  0  0  0  0  0  0  0  0  0  0
  140.7371   74.9338  217.5540 H   0  0  0  0  0  0  0  0  0  0  0  0
  140.3340   76.6239  217.6339 H   0  0  0  0  0  0  0  0  0  0  0  0
  142.8442   75.2997  216.4035 H   0  0  0  0  0  0  0  0  0  0  0  0
  141.7682   76.4037  215.5853 H   0  0  0  0  0  0  0  0  0  0  0  0
  144.0711   77.2413  216.8685 H   0  0  0  0  0  0  0  0  0  0  0  0
  142.6704   78.3061  216.7647 H   0  0  0  0  0  0  0  0  0  0  0  0
  143.7862   77.1112  219.1847 H   0  0  0  0  0  0  0  0  0  0  0  0
  142.8734   79.2143  219.3744 H   0  0  0  0  0  0  0  0  0  0  0  0
  141.4679   78.7917  218.2918 H   0  0  0  0  0  0  0  0  0  0  0  0
  141.0010   77.2230  222.6605 H   0  0  0  0  0  0  0  0  0  0  0  0
  141.5927   78.3417  224.7954 H   0  0  0  0  0  0  0  0  0  0  0  0
  142.5762   80.6250  224.7927 H   0  0  0  0  0  0  0  0  0  0  0  0
  142.9601   81.7826  222.6211 H   0  0  0  0  0  0  0  0  0  0  0  0
  142.3689   80.6673  220.5044 H   0  0  0  0  0  0  0  0  0  0  0  0
  138.8045   70.4120  221.9175 H   0  0  0  0  0  0  0  0  0  0  0  0
  138.7794   68.7804  223.7849 H   0  0  0  0  0  0  0  0  0  0  0  0
  139.3929   68.2558  226.0478 H   0  0  0  0  0  0  0  0  0  0  0  0
  141.5587   71.1656  228.4070 H   0  0  0  0  0  0  0  0  0  0  0  0
  141.5358   72.7421  226.4845 H   0  0  0  0  0  0  0  0  0  0  0  0
  1  2  2  0
  2  3  1  0
  3  4  1  0
  4  5  1  0
  5  6  2  0
  5  7  1  0
  7  8  1  0
  8  9  1  0
  9 10  1  0
 10 11  1  0
 11 12  1  0
 12 13  1  0
 13 14  1  0
 14 15  2  0
 15 16  1  0
 16 17  2  0
 17 18  1  0
 18 19  2  0
  2 20  1  0
 20 21  2  0
 21 22  1  0
 22 23  2  0
 23 24  1  0
 24 25  2  0
 25 26  1  0
 25 27  1  0
 27 28  2  0
 28 29  1  0
 29 30  2  0
 11  7  1  0
 19 14  1  0
 30 20  1  0
 29 23  1  0
  3 31  1  0
  4 32  1  0
  4 33  1  0
  8 34  1  0
  8 35  1  0
  9 36  1  0
  9 37  1  0
 10 38  1  0
 10 39  1  0
 11 40  1  1
 12 41  1  0
 12 42  1  0
 15 43  1  0
 16 44  1  0
 17 45  1  0
 18 46  1  0
 19 47  1  0
 21 48  1  0
 22 49  1  0
 24 50  1  0
 27 51  1  0
 28 52  1  0
M  END
>  <smiles>  (29) 
O=C(NCC(=O)N1CCC[C@H]1COc1ccccc1)c1ccc2cc(Cl)ccc2n1

>  <score_type>  (29) 
oracle

>  <origin>  (29) 
autodockgpu

>  <m_score__min__energy>  (29) 
-8.3900000000000006

>  <m_primary>  (29) 
energy

>  <rmsd>  (29) 
2.136691584933278

>  <m_score__min__rmsd>  (29) 
2.136691584933278

>  <meeko>  (29) 
{"free_energy": -7.69, "intermolecular_energy": -9.78, "internal_energy": -1.88, "cluster_size": 23, "cluster_id": 1, "rank_in_cluster": 15}

>  <energy>  (29) 
-7.33

>  <cluster_rmsd>  (29) 
0.98

>  <cluster>  (29) 
2

$$$$

     RDKit          3D

 52 55  0  0  0  0  0  0  0  0999 V2000
  134.2490   71.2610  224.9980 O   0  0  0  0  0  0  0  0  0  0  0  0
  134.9200   72.3240  224.9360 C   0  0  0  0  0  0  0  0  0  0  0  0
  136.2040   72.2290  224.3040 N   0  0  0  0  0  0  0  0  0  0  0  0
  136.5870   70.9230  223.8090 C   0  0  0  0  0  0  0  0  0  0  0  0
  137.8980   70.9430  223.1270 C   0  0  0  0  0  0  0  0  0  0  0  0
  138.4950   72.0010  222.7910 O   0  0  0  0  0  0  0  0  0  0  0  0
  138.5080   69.6900  222.8400 N   0  0  0  0  0  0  0  0  0  0  0  0
  139.5280   69.3840  221.8340 C   0  0  0  0  0  0  0  0  0  0  0  0
  138.9790   68.1110  221.2360 C   0  0  0  0  0  0  0  0  0  0  0  0
  138.5210   67.3530  222.4620 C   0  0  0  0  0  0  0  0  0  0  0  0
  138.2480   68.4220  223.4940 C   0  0  1  0  0  0  0  0  0  0  0  0
  139.2140   68.1980  224.6400 C   0  0  0  0  0  0  0  0  0  0  0  0
  138.7830   68.7700  225.8390 O   0  0  0  0  0  0  0  0  0  0  0  0
  139.5490   69.7920  226.3930 C   0  0  0  0  0  0  0  0  0  0  0  0
  140.2380   70.6850  225.5810 C   0  0  0  0  0  0  0  0  0  0  0  0
  141.0070   71.7110  226.1310 C   0  0  0  0  0  0  0  0  0  0  0  0
  141.1010   71.8640  227.5020 C   0  0  0  0  0  0  0  0  0  0  0  0
  140.4210   70.9830  228.3220 C   0  0  0  0  0  0  0  0  0  0  0  0
  139.6620   69.9690  227.7670 C   0  0  0  0  0  0  0  0  0  0  0  0
  134.4400   73.5940  225.4700 C   0  0  0  0  0  0  0  0  0  0  0  0
  135.0140   74.7500  224.9830 C   0  0  0  0  0  0  0  0  0  0  0  0
  134.6400   76.0040  225.4140 C   0  0  0  0  0  0  0  0  0  0  0  0
  133.6380   76.0670  226.3810 C   0  0  0  0  0  0  0  0  0  0  0  0
  133.2420   77.3100  226.8340 C   0  0  0  0  0  0  0  0  0  0  0  0
  132.2480   77.3580  227.7930 C   0  0  0  0  0  0  0  0  0  0  0  0
  131.7010   78.9060  228.4060 Cl  0  0  0  0  0  0  0  0  0  0  0  0
  131.6590   76.1990  228.2940 C   0  0  0  0  0  0  0  0  0  0  0  0
  132.0800   74.9710  227.8190 C   0  0  0  0  0  0  0  0  0  0  0  0
  133.0630   74.8940  226.8680 C   0  0  0  0  0  0  0  0  0  0  0  0
  133.4730   73.6790  226.4050 N   0  0  0  0  0  0  0  0  0  0  0  0
  136.8130   73.0780  224.2200 H   0  0  0  0  0  0  0  0  0  0  0  0
  136.6405   70.2250  224.6575 H   0  0  0  0  0  0  0  0  0  0  0  0
  135.8311   70.6068  223.0751 H   0  0  0  0  0  0  0  0  0  0  0  0
  139.6040   70.1826  221.0814 H   0  0  0  0  0  0  0  0  0  0  0  0
  140.5465   69.2897  222.2386 H   0  0  0  0  0  0  0  0  0  0  0  0
  138.1378   68.3191  220.5585 H   0  0  0  0  0  0  0  0  0  0  0  0
  139.7085   67.5606  220.6238 H   0  0  0  0  0  0  0  0  0  0  0  0
  137.6070   66.7806  222.2452 H   0  0  0  0  0  0  0  0  0  0  0  0
  139.2706   66.6249  222.8053 H   0  0  0  0  0  0  0  0  0  0  0  0
  137.2195   68.4025  223.8837 H   0  0  0  0  0  0  0  0  0  0  0  0
  139.3326   67.1149  224.7914 H   0  0  0  0  0  0  0  0  0  0  0  0
  140.1636   68.6820  224.3681 H   0  0  0  0  0  0  0  0  0  0  0  0
  140.1761   70.5812  224.4876 H   0  0  0  0  0  0  0  0  0  0  0  0
  141.5438   72.4050  225.4675 H   0  0  0  0  0  0  0  0  0  0  0  0
  141.7074   72.6741  227.9334 H   0  0  0  0  0  0  0  0  0  0  0  0
  140.4836   71.0885  229.4151 H   0  0  0  0  0  0  0  0  0  0  0  0
  139.1288   69.2781  228.4366 H   0  0  0  0  0  0  0  0  0  0  0  0
  135.8020   74.6673  224.2199 H   0  0  0  0  0  0  0  0  0  0  0  0
  135.1106   76.9139  225.0133 H   0  0  0  0  0  0  0  0  0  0  0  0
  133.7020   78.2303  226.4449 H   0  0  0  0  0  0  0  0  0  0  0  0
  130.8694   76.2603  229.0574 H   0  0  0  0  0  0  0  0  0  0  0  0
  131.6225   74.0491  228.2074 H   0  0  0  0  0  0  0  0  0  0  0  0
  1  2  2  0
  2  3  1  0
  3  4  1  0
  4  5  1  0
  5  6  2  0
  5  7  1  0
  7  8  1  0
  8  9  1  0
  9 10  1  0
 10 11  1  0
 11 12  1  0
 12 13  1  0
 13 14  1  0
 14 15  2  0
 15 16  1  0
 16 17  2  0
 17 18  1  0
 18 19  2  0
  2 20  1  0
 20 21  2  0
 21 22  1  0
 22 23  2  0
 23 24  1  0
 24 25  2  0
 25 26  1  0
 25 27  1  0
 27 28  2  0
 28 29  1  0
 29 30  2  0
 11  7  1  0
 19 14  1  0
 30 20  1  0
 29 23  1  0
  3 31  1  0
  4 32  1  0
  4 33  1  0
  8 34  1  0
  8 35  1  0
  9 36  1  0
  9 37  1  0
 10 38  1  0
 10 39  1  0
 11 40  1  1
 12 41  1  0
 12 42  1  0
 15 43  1  0
 16 44  1  0
 17 45  1  0
 18 46  1  0
 19 47  1  0
 21 48  1  0
 22 49  1  0
 24 50  1  0
 27 51  1  0
 28 52  1  0
M  END
>  <smiles>  (30) 
O=C(NCC(=O)N1CCC[C@H]1COc1ccccc1)c1ccc2cc(Cl)ccc2n1

>  <score_type>  (30) 
oracle

>  <origin>  (30) 
autodockgpu

>  <m_score__min__energy>  (30) 
-8.3900000000000006

>  <m_primary>  (30) 
energy

>  <rmsd>  (30) 
8.419568539741617

>  <m_score__min__rmsd>  (30) 
8.419568539741617

>  <meeko>  (30) 
{"free_energy": -7.85, "intermolecular_energy": -9.94, "internal_energy": -1.87, "cluster_size": 2, "cluster_id": 4, "rank_in_cluster": 1}

>  <energy>  (30) 
-7.23

>  <cluster_rmsd>  (30) 
1.27

>  <cluster>  (30) 
2

$$$$

     RDKit          3D

 52 55  0  0  0  0  0  0  0  0999 V2000
  140.5030   72.4450  220.9260 O   0  0  0  0  0  0  0  0  0  0  0  0
  139.9560   72.6750  222.0360 C   0  0  0  0  0  0  0  0  0  0  0  0
  139.2520   73.9190  222.1520 N   0  0  0  0  0  0  0  0  0  0  0  0
  139.2490   74.7740  220.9830 C   0  0  0  0  0  0  0  0  0  0  0  0
  140.1740   75.9180  221.1200 C   0  0  0  0  0  0  0  0  0  0  0  0
  140.1000   76.7700  222.0450 O   0  0  0  0  0  0  0  0  0  0  0  0
  141.2020   76.0510  220.1450 N   0  0  0  0  0  0  0  0  0  0  0  0
  141.4600   75.2080  218.9750 C   0  0  0  0  0  0  0  0  0  0  0  0
  142.9580   75.0380  219.0610 C   0  0  0  0  0  0  0  0  0  0  0  0
  143.4190   76.4340  219.4120 C   0  0  0  0  0  0  0  0  0  0  0  0
  142.2320   77.0690  220.0960 C   0  0  1  0  0  0  0  0  0  0  0  0
  141.7940   78.2410  219.2400 C   0  0  0  0  0  0  0  0  0  0  0  0
  141.9950   79.4770  219.8580 O   0  0  0  0  0  0  0  0  0  0  0  0
  141.5950   79.6240  221.1830 C   0  0  0  0  0  0  0  0  0  0  0  0
  142.5310   79.6650  222.2080 C   0  0  0  0  0  0  0  0  0  0  0  0
  142.1350   79.8120  223.5380 C   0  0  0  0  0  0  0  0  0  0  0  0
  140.7960   79.9210  223.8670 C   0  0  0  0  0  0  0  0  0  0  0  0
  139.8540   79.8820  222.8570 C   0  0  0  0  0  0  0  0  0  0  0  0
  140.2570   79.7360  221.5420 C   0  0  0  0  0  0  0  0  0  0  0  0
  140.0210   71.7420  223.1570 C   0  0  0  0  0  0  0  0  0  0  0  0
  139.5470   70.4630  222.9520 C   0  0  0  0  0  0  0  0  0  0  0  0
  139.5580   69.5000  223.9370 C   0  0  0  0  0  0  0  0  0  0  0  0
  140.0770   69.8710  225.1780 C   0  0  0  0  0  0  0  0  0  0  0  0
  140.1010   68.9280  226.1860 C   0  0  0  0  0  0  0  0  0  0  0  0
  140.6160   69.3100  227.4090 C   0  0  0  0  0  0  0  0  0  0  0  0
  140.6750   68.1570  228.7290 Cl  0  0  0  0  0  0  0  0  0  0  0  0
  141.0970   70.5980  227.6310 C   0  0  0  0  0  0  0  0  0  0  0  0
  141.0580   71.5170  226.6000 C   0  0  0  0  0  0  0  0  0  0  0  0
  140.5520   71.1660  225.3750 C   0  0  0  0  0  0  0  0  0  0  0  0
  140.5160   72.0790  224.3640 N   0  0  0  0  0  0  0  0  0  0  0  0
  138.7750   74.1720  223.0510 H   0  0  0  0  0  0  0  0  0  0  0  0
  139.5507   74.1784  220.1088 H   0  0  0  0  0  0  0  0  0  0  0  0
  138.2323   75.1769  220.8645 H   0  0  0  0  0  0  0  0  0  0  0  0
  140.9396   74.2419  219.0515 H   0  0  0  0  0  0  0  0  0  0  0  0
  141.1078   75.6348  218.0243 H   0  0  0  0  0  0  0  0  0  0  0  0
  143.2331   74.3181  219.8459 H   0  0  0  0  0  0  0  0  0  0  0  0
  143.4107   74.6424  218.1399 H   0  0  0  0  0  0  0  0  0  0  0  0
  144.2840   76.3977  220.0905 H   0  0  0  0  0  0  0  0  0  0  0  0
  143.7413   77.0009  218.5262 H   0  0  0  0  0  0  0  0  0  0  0  0
  142.4525   77.4302  221.1113 H   0  0  0  0  0  0  0  0  0  0  0  0
  142.3668   78.2219  218.3011 H   0  0  0  0  0  0  0  0  0  0  0  0
  140.7132   78.1337  219.0658 H   0  0  0  0  0  0  0  0  0  0  0  0
  143.6011   79.5803  221.9678 H   0  0  0  0  0  0  0  0  0  0  0  0
  142.8952   79.8415  224.3325 H   0  0  0  0  0  0  0  0  0  0  0  0
  140.4860   80.0369  224.9160 H   0  0  0  0  0  0  0  0  0  0  0  0
  138.7842   79.9670  223.0986 H   0  0  0  0  0  0  0  0  0  0  0  0
  139.4916   79.7075  220.7525 H   0  0  0  0  0  0  0  0  0  0  0  0
  139.1441   70.2015  221.9624 H   0  0  0  0  0  0  0  0  0  0  0  0
  139.1752   68.4852  223.7536 H   0  0  0  0  0  0  0  0  0  0  0  0
  139.7232   67.9082  226.0208 H   0  0  0  0  0  0  0  0  0  0  0  0
  141.5025   70.8799  228.6139 H   0  0  0  0  0  0  0  0  0  0  0  0
  141.4355   72.5372  226.7631 H   0  0  0  0  0  0  0  0  0  0  0  0
  1  2  2  0
  2  3  1  0
  3  4  1  0
  4  5  1  0
  5  6  2  0
  5  7  1  0
  7  8  1  0
  8  9  1  0
  9 10  1  0
 10 11  1  0
 11 12  1  0
 12 13  1  0
 13 14  1  0
 14 15  2  0
 15 16  1  0
 16 17  2  0
 17 18  1  0
 18 19  2  0
  2 20  1  0
 20 21  2  0
 21 22  1  0
 22 23  2  0
 23 24  1  0
 24 25  2  0
 25 26  1  0
 25 27  1  0
 27 28  2  0
 28 29  1  0
 29 30  2  0
 11  7  1  0
 19 14  1  0
 30 20  1  0
 29 23  1  0
  3 31  1  0
  4 32  1  0
  4 33  1  0
  8 34  1  0
  8 35  1  0
  9 36  1  0
  9 37  1  0
 10 38  1  0
 10 39  1  0
 11 40  1  1
 12 41  1  0
 12 42  1  0
 15 43  1  0
 16 44  1  0
 17 45  1  0
 18 46  1  0
 19 47  1  0
 21 48  1  0
 22 49  1  0
 24 50  1  0
 27 51  1  0
 28 52  1  0
M  END
>  <smiles>  (31) 
O=C(NCC(=O)N1CCC[C@H]1COc1ccccc1)c1ccc2cc(Cl)ccc2n1

>  <score_type>  (31) 
oracle

>  <origin>  (31) 
autodockgpu

>  <m_score__min__energy>  (31) 
-8.3900000000000006

>  <m_primary>  (31) 
energy

>  <rmsd>  (31) 
1.9334582742059838

>  <m_score__min__rmsd>  (31) 
1.9334582742059838

>  <meeko>  (31) 
{"free_energy": -8.17, "intermolecular_energy": -10.25, "internal_energy": -1.81, "cluster_size": 23, "cluster_id": 1, "rank_in_cluster": 3}

>  <energy>  (31) 
-7.17

>  <cluster_rmsd>  (31) 
1.64

>  <cluster>  (31) 
2

$$$$

     RDKit          3D

 52 55  0  0  0  0  0  0  0  0999 V2000
  137.8680   71.1980  220.9560 O   0  0  0  0  0  0  0  0  0  0  0  0
  138.3650   71.7360  221.9790 C   0  0  0  0  0  0  0  0  0  0  0  0
  138.4870   73.1650  221.9510 N   0  0  0  0  0  0  0  0  0  0  0  0
  138.0270   73.8310  220.7500 C   0  0  0  0  0  0  0  0  0  0  0  0
  138.8840   73.5390  219.5820 C   0  0  0  0  0  0  0  0  0  0  0  0
  138.4380   73.1760  218.4610 O   0  0  0  0  0  0  0  0  0  0  0  0
  140.2910   73.6790  219.7480 N   0  0  0  0  0  0  0  0  0  0  0  0
  141.3090   73.9100  218.7210 C   0  0  0  0  0  0  0  0  0  0  0  0
  142.3760   72.9270  219.1390 C   0  0  0  0  0  0  0  0  0  0  0  0
  142.4070   73.1080  220.6400 C   0  0  0  0  0  0  0  0  0  0  0  0
  141.0320   73.6240  220.9920 C   0  0  1  0  0  0  0  0  0  0  0  0
  141.2100   75.0110  221.5770 C   0  0  0  0  0  0  0  0  0  0  0  0
  140.1200   75.4250  222.3460 O   0  0  0  0  0  0  0  0  0  0  0  0
  139.9950   76.7810  222.6340 C   0  0  0  0  0  0  0  0  0  0  0  0
  138.7430   77.3800  222.7060 C   0  0  0  0  0  0  0  0  0  0  0  0
  138.6120   78.7390  222.9940 C   0  0  0  0  0  0  0  0  0  0  0  0
  139.7290   79.5240  223.2170 C   0  0  0  0  0  0  0  0  0  0  0  0
  140.9800   78.9410  223.1500 C   0  0  0  0  0  0  0  0  0  0  0  0
  141.1000   77.5930  222.8630 C   0  0  0  0  0  0  0  0  0  0  0  0
  138.8000   70.9690  223.1430 C   0  0  0  0  0  0  0  0  0  0  0  0
  138.4240   69.6440  223.2120 C   0  0  0  0  0  0  0  0  0  0  0  0
  138.7770   68.8250  224.2610 C   0  0  0  0  0  0  0  0  0  0  0  0
  139.5460   69.3950  225.2770 C   0  0  0  0  0  0  0  0  0  0  0  0
  139.9150   68.6000  226.3440 C   0  0  0  0  0  0  0  0  0  0  0  0
  140.6750   69.1780  227.3420 C   0  0  0  0  0  0  0  0  0  0  0  0
  141.1760   68.2200  228.7220 Cl  0  0  0  0  0  0  0  0  0  0  0  0
  141.0620   70.5150  227.2860 C   0  0  0  0  0  0  0  0  0  0  0  0
  140.6740   71.2830  226.2040 C   0  0  0  0  0  0  0  0  0  0  0  0
  139.9200   70.7350  225.1990 C   0  0  0  0  0  0  0  0  0  0  0  0
  139.5420   71.4990  224.1350 N   0  0  0  0  0  0  0  0  0  0  0  0
  138.8940   73.6740  222.7720 H   0  0  0  0  0  0  0  0  0  0  0  0
  137.0029   73.4953  220.5298 H   0  0  0  0  0  0  0  0  0  0  0  0
  138.0647   74.9152  220.9317 H   0  0  0  0  0  0  0  0  0  0  0  0
  140.9251   73.6847  217.7151 H   0  0  0  0  0  0  0  0  0  0  0  0
  141.6558   74.9518  218.6555 H   0  0  0  0  0  0  0  0  0  0  0  0
  142.0987   71.8978  218.8671 H   0  0  0  0  0  0  0  0  0  0  0  0
  143.3482   73.0978  218.6536 H   0  0  0  0  0  0  0  0  0  0  0  0
  142.6019   72.1491  221.1425 H   0  0  0  0  0  0  0  0  0  0  0  0
  143.2041   73.7951  220.9601 H   0  0  0  0  0  0  0  0  0  0  0  0
  140.4995   72.9938  221.7195 H   0  0  0  0  0  0  0  0  0  0  0  0
  142.1073   75.0101  222.2133 H   0  0  0  0  0  0  0  0  0  0  0  0
  141.3031   75.7128  220.7351 H   0  0  0  0  0  0  0  0  0  0  0  0
  137.8417   76.7736  222.5333 H   0  0  0  0  0  0  0  0  0  0  0  0
  137.6103   79.1907  223.0442 H   0  0  0  0  0  0  0  0  0  0  0  0
  139.6230   80.5951  223.4440 H   0  0  0  0  0  0  0  0  0  0  0  0
  141.8802   79.5485  223.3248 H   0  0  0  0  0  0  0  0  0  0  0  0
  142.1048   77.1481  222.8143 H   0  0  0  0  0  0  0  0  0  0  0  0
  137.8175   69.2244  222.3959 H   0  0  0  0  0  0  0  0  0  0  0  0
  138.4673   67.7701  224.2968 H   0  0  0  0  0  0  0  0  0  0  0  0
  139.6142   67.5433  226.3973 H   0  0  0  0  0  0  0  0  0  0  0  0
  141.6683   70.9539  228.0921 H   0  0  0  0  0  0  0  0  0  0  0  0
  140.9722   72.3404  226.1492 H   0  0  0  0  0  0  0  0  0  0  0  0
  1  2  2  0
  2  3  1  0
  3  4  1  0
  4  5  1  0
  5  6  2  0
  5  7  1  0
  7  8  1  0
  8  9  1  0
  9 10  1  0
 10 11  1  0
 11 12  1  0
 12 13  1  0
 13 14  1  0
 14 15  2  0
 15 16  1  0
 16 17  2  0
 17 18  1  0
 18 19  2  0
  2 20  1  0
 20 21  2  0
 21 22  1  0
 22 23  2  0
 23 24  1  0
 24 25  2  0
 25 26  1  0
 25 27  1  0
 27 28  2  0
 28 29  1  0
 29 30  2  0
 11  7  1  0
 19 14  1  0
 30 20  1  0
 29 23  1  0
  3 31  1  0
  4 32  1  0
  4 33  1  0
  8 34  1  0
  8 35  1  0
  9 36  1  0
  9 37  1  0
 10 38  1  0
 10 39  1  0
 11 40  1  1
 12 41  1  0
 12 42  1  0
 15 43  1  0
 16 44  1  0
 17 45  1  0
 18 46  1  0
 19 47  1  0
 21 48  1  0
 22 49  1  0
 24 50  1  0
 27 51  1  0
 28 52  1  0
M  END
>  <smiles>  (32) 
O=C(NCC(=O)N1CCC[C@H]1COc1ccccc1)c1ccc2cc(Cl)ccc2n1

>  <score_type>  (32) 
oracle

>  <origin>  (32) 
autodockgpu

>  <m_score__min__energy>  (32) 
-8.3900000000000006

>  <m_primary>  (32) 
energy

>  <rmsd>  (32) 
2.48926584268001

>  <m_score__min__rmsd>  (32) 
2.48926584268001

>  <meeko>  (32) 
{"free_energy": -7.12, "intermolecular_energy": -9.21, "internal_energy": -2.45, "cluster_size": 23, "cluster_id": 1, "rank_in_cluster": 20}

>  <energy>  (32) 
-6.74

>  <cluster_rmsd>  (32) 
1.76

>  <cluster>  (32) 
2

$$$$

     RDKit          3D

 52 55  0  0  0  0  0  0  0  0999 V2000
  138.2340   70.6730  221.1740 O   0  0  0  0  0  0  0  0  0  0  0  0
  138.5190   71.4480  222.1230 C   0  0  0  0  0  0  0  0  0  0  0  0
  138.2030   72.8340  221.9290 N   0  0  0  0  0  0  0  0  0  0  0  0
  137.5920   73.1880  220.6640 C   0  0  0  0  0  0  0  0  0  0  0  0
  137.6990   74.6330  220.3740 C   0  0  0  0  0  0  0  0  0  0  0  0
  137.5970   75.1230  219.2170 O   0  0  0  0  0  0  0  0  0  0  0  0
  137.9290   75.5080  221.4720 N   0  0  0  0  0  0  0  0  0  0  0  0
  137.1590   75.6320  222.7120 C   0  0  0  0  0  0  0  0  0  0  0  0
  137.0530   77.1330  222.8430 C   0  0  0  0  0  0  0  0  0  0  0  0
  138.4490   77.5850  222.4800 C   0  0  0  0  0  0  0  0  0  0  0  0
  138.9940   76.4820  221.6030 C   0  0  1  0  0  0  0  0  0  0  0  0
  140.1870   75.8840  222.3230 C   0  0  0  0  0  0  0  0  0  0  0  0
  140.3030   74.5050  222.1370 O   0  0  0  0  0  0  0  0  0  0  0  0
  141.3900   74.0280  221.4090 C   0  0  0  0  0  0  0  0  0  0  0  0
  141.6040   72.6630  221.2610 C   0  0  0  0  0  0  0  0  0  0  0  0
  142.6910   72.1800  220.5330 C   0  0  0  0  0  0  0  0  0  0  0  0
  143.5840   73.0530  219.9370 C   0  0  0  0  0  0  0  0  0  0  0  0
  143.3840   74.4130  220.0760 C   0  0  0  0  0  0  0  0  0  0  0  0
  142.3030   74.8820  220.8000 C   0  0  0  0  0  0  0  0  0  0  0  0
  139.1370   70.9880  223.3630 C   0  0  0  0  0  0  0  0  0  0  0  0
  140.0540   71.8210  223.9680 C   0  0  0  0  0  0  0  0  0  0  0  0
  140.6990   71.4900  225.1390 C   0  0  0  0  0  0  0  0  0  0  0  0
  140.3850   70.2550  225.7070 C   0  0  0  0  0  0  0  0  0  0  0  0
  141.0160   69.8950  226.8810 C   0  0  0  0  0  0  0  0  0  0  0  0
  140.6960   68.6690  227.4310 C   0  0  0  0  0  0  0  0  0  0  0  0
  141.4620   68.1550  228.9220 Cl  0  0  0  0  0  0  0  0  0  0  0  0
  139.7720   67.8160  226.8310 C   0  0  0  0  0  0  0  0  0  0  0  0
  139.1590   68.2090  225.6560 C   0  0  0  0  0  0  0  0  0  0  0  0
  139.4570   69.4200  225.0880 C   0  0  0  0  0  0  0  0  0  0  0  0
  138.8490   69.7990  223.9280 N   0  0  0  0  0  0  0  0  0  0  0  0
  138.4150   73.5330  222.6810 H   0  0  0  0  0  0  0  0  0  0  0  0
  138.0926   72.6280  219.8604 H   0  0  0  0  0  0  0  0  0  0  0  0
  136.5231   72.9353  220.7244 H   0  0  0  0  0  0  0  0  0  0  0  0
  136.1676   75.1645  222.6193 H   0  0  0  0  0  0  0  0  0  0  0  0
  137.6172   75.1345  223.5795 H   0  0  0  0  0  0  0  0  0  0  0  0
  136.3073   77.5425  222.1457 H   0  0  0  0  0  0  0  0  0  0  0  0
  136.7257   77.4672  223.8386 H   0  0  0  0  0  0  0  0  0  0  0  0
  138.4177   78.5375  221.9307 H   0  0  0  0  0  0  0  0  0  0  0  0
  139.0745   77.7576  223.3682 H   0  0  0  0  0  0  0  0  0  0  0  0
  139.3123   76.8287  220.6088 H   0  0  0  0  0  0  0  0  0  0  0  0
  141.1012   76.3663  221.9466 H   0  0  0  0  0  0  0  0  0  0  0  0
  140.0427   76.0593  223.3993 H   0  0  0  0  0  0  0  0  0  0  0  0
  140.9048   71.9521  221.7255 H   0  0  0  0  0  0  0  0  0  0  0  0
  142.8399   71.0949  220.4316 H   0  0  0  0  0  0  0  0  0  0  0  0
  144.4397   72.6702  219.3615 H   0  0  0  0  0  0  0  0  0  0  0  0
  144.0843   75.1225  219.6110 H   0  0  0  0  0  0  0  0  0  0  0  0
  142.1604   75.9684  220.8975 H   0  0  0  0  0  0  0  0  0  0  0  0
  140.2795   72.7889  223.4965 H   0  0  0  0  0  0  0  0  0  0  0  0
  141.4286   72.1685  225.6052 H   0  0  0  0  0  0  0  0  0  0  0  0
  141.7478   70.5610  227.3615 H   0  0  0  0  0  0  0  0  0  0  0  0
  139.5336   66.8433  227.2860 H   0  0  0  0  0  0  0  0  0  0  0  0
  138.4268   67.5449  225.1735 H   0  0  0  0  0  0  0  0  0  0  0  0
  1  2  2  0
  2  3  1  0
  3  4  1  0
  4  5  1  0
  5  6  2  0
  5  7  1  0
  7  8  1  0
  8  9  1  0
  9 10  1  0
 10 11  1  0
 11 12  1  0
 12 13  1  0
 13 14  1  0
 14 15  2  0
 15 16  1  0
 16 17  2  0
 17 18  1  0
 18 19  2  0
  2 20  1  0
 20 21  2  0
 21 22  1  0
 22 23  2  0
 23 24  1  0
 24 25  2  0
 25 26  1  0
 25 27  1  0
 27 28  2  0
 28 29  1  0
 29 30  2  0
 11  7  1  0
 19 14  1  0
 30 20  1  0
 29 23  1  0
  3 31  1  0
  4 32  1  0
  4 33  1  0
  8 34  1  0
  8 35  1  0
  9 36  1  0
  9 37  1  0
 10 38  1  0
 10 39  1  0
 11 40  1  6
 12 41  1  0
 12 42  1  0
 15 43  1  0
 16 44  1  0
 17 45  1  0
 18 46  1  0
 19 47  1  0
 21 48  1  0
 22 49  1  0
 24 50  1  0
 27 51  1  0
 28 52  1  0
M  END
>  <smiles>  (33) 
O=C(NCC(=O)N1CCC[C@H]1COc1ccccc1)c1ccc2cc(Cl)ccc2n1

>  <score_type>  (33) 
oracle

>  <origin>  (33) 
autodockgpu

>  <m_score__min__energy>  (33) 
-8.3900000000000006

>  <m_primary>  (33) 
energy

>  <rmsd>  (33) 
3.5531487411400473

>  <m_score__min__rmsd>  (33) 
3.5531487411400473

>  <meeko>  (33) 
{"free_energy": -7.17, "intermolecular_energy": -9.26, "internal_energy": -2.85, "cluster_size": 9, "cluster_id": 2, "rank_in_cluster": 8}

>  <energy>  (33) 
-8.29

>  <cluster_rmsd>  (33) 
0.0

>  <cluster>  (33) 
3

$$$$

     RDKit          3D

 52 55  0  0  0  0  0  0  0  0999 V2000
  139.6730   72.0490  220.7490 O   0  0  0  0  0  0  0  0  0  0  0  0
  139.6150   72.4490  221.9410 C   0  0  0  0  0  0  0  0  0  0  0  0
  139.3840   73.8520  222.1290 N   0  0  0  0  0  0  0  0  0  0  0  0
  139.2440   74.6530  220.9300 C   0  0  0  0  0  0  0  0  0  0  0  0
  139.1250   76.0950  221.2280 C   0  0  0  0  0  0  0  0  0  0  0  0
  138.0370   76.6600  221.5230 O   0  0  0  0  0  0  0  0  0  0  0  0
  140.3120   76.8770  221.1750 N   0  0  0  0  0  0  0  0  0  0  0  0
  141.0600   77.4720  222.2850 C   0  0  0  0  0  0  0  0  0  0  0  0
  141.3300   78.8580  221.7500 C   0  0  0  0  0  0  0  0  0  0  0  0
  141.7180   78.5770  220.3160 C   0  0  0  0  0  0  0  0  0  0  0  0
  141.0520   77.2610  219.9890 C   0  0  1  0  0  0  0  0  0  0  0  0
  142.1520   76.2620  219.6920 C   0  0  0  0  0  0  0  0  0  0  0  0
  142.2370   75.2420  220.6420 O   0  0  0  0  0  0  0  0  0  0  0  0
  143.1720   74.2310  220.4410 C   0  0  0  0  0  0  0  0  0  0  0  0
  144.5320   74.4820  220.5790 C   0  0  0  0  0  0  0  0  0  0  0  0
  145.4740   73.4730  220.3790 C   0  0  0  0  0  0  0  0  0  0  0  0
  145.0750   72.1930  220.0390 C   0  0  0  0  0  0  0  0  0  0  0  0
  143.7250   71.9290  219.8990 C   0  0  0  0  0  0  0  0  0  0  0  0
  142.7990   72.9360  220.0990 C   0  0  0  0  0  0  0  0  0  0  0  0
  139.7700   71.5550  223.0840 C   0  0  0  0  0  0  0  0  0  0  0  0
  139.3810   70.2410  222.9260 C   0  0  0  0  0  0  0  0  0  0  0  0
  139.4810   69.3100  223.9350 C   0  0  0  0  0  0  0  0  0  0  0  0
  140.0020   69.7500  225.1520 C   0  0  0  0  0  0  0  0  0  0  0  0
  140.1150   68.8400  226.1840 C   0  0  0  0  0  0  0  0  0  0  0  0
  140.6320   69.2890  227.3830 C   0  0  0  0  0  0  0  0  0  0  0  0
  140.8020   68.1810  228.7310 Cl  0  0  0  0  0  0  0  0  0  0  0  0
  141.0290   70.6130  227.5580 C   0  0  0  0  0  0  0  0  0  0  0  0
  140.9020   71.4980  226.5040 C   0  0  0  0  0  0  0  0  0  0  0  0
  140.3930   71.0790  225.3030 C   0  0  0  0  0  0  0  0  0  0  0  0
  140.2700   71.9590  224.2690 N   0  0  0  0  0  0  0  0  0  0  0  0
  139.3240   74.2510  223.0980 H   0  0  0  0  0  0  0  0  0  0  0  0
  140.1278   74.4952  220.2943 H   0  0  0  0  0  0  0  0  0  0  0  0
  138.3209   74.3379  220.4215 H   0  0  0  0  0  0  0  0  0  0  0  0
  140.4573   77.5056  223.2046 H   0  0  0  0  0  0  0  0  0  0  0  0
  141.9647   76.9144  222.5689 H   0  0  0  0  0  0  0  0  0  0  0  0
  140.4302   79.4884  221.8035 H   0  0  0  0  0  0  0  0  0  0  0  0
  142.0970   79.4078  222.3153 H   0  0  0  0  0  0  0  0  0  0  0  0
  141.3508   79.3732  219.6517 H   0  0  0  0  0  0  0  0  0  0  0  0
  142.8089   78.5362  220.1805 H   0  0  0  0  0  0  0  0  0  0  0  0
  140.3749   77.3157  219.1238 H   0  0  0  0  0  0  0  0  0  0  0  0
  141.9574   75.8091  218.7086 H   0  0  0  0  0  0  0  0  0  0  0  0
  143.1061   76.8091  219.7121 H   0  0  0  0  0  0  0  0  0  0  0  0
  144.8709   75.4927  220.8503 H   0  0  0  0  0  0  0  0  0  0  0  0
  146.5448   73.6974  220.4928 H   0  0  0  0  0  0  0  0  0  0  0  0
  145.8193   71.3983  219.8826 H   0  0  0  0  0  0  0  0  0  0  0  0
  143.3877   70.9176  219.6284 H   0  0  0  0  0  0  0  0  0  0  0  0
  141.7298   72.7045  219.9835 H   0  0  0  0  0  0  0  0  0  0  0  0
  138.9744   69.9243  221.9542 H   0  0  0  0  0  0  0  0  0  0  0  0
  139.1646   68.2667  223.7884 H   0  0  0  0  0  0  0  0  0  0  0  0
  139.8038   67.7928  226.0555 H   0  0  0  0  0  0  0  0  0  0  0  0
  141.4381   70.9494  228.5221 H   0  0  0  0  0  0  0  0  0  0  0  0
  141.2117   72.5459  226.6303 H   0  0  0  0  0  0  0  0  0  0  0  0
  1  2  2  0
  2  3  1  0
  3  4  1  0
  4  5  1  0
  5  6  2  0
  5  7  1  0
  7  8  1  0
  8  9  1  0
  9 10  1  0
 10 11  1  0
 11 12  1  0
 12 13  1  0
 13 14  1  0
 14 15  2  0
 15 16  1  0
 16 17  2  0
 17 18  1  0
 18 19  2  0
  2 20  1  0
 20 21  2  0
 21 22  1  0
 22 23  2  0
 23 24  1  0
 24 25  2  0
 25 26  1  0
 25 27  1  0
 27 28  2  0
 28 29  1  0
 29 30  2  0
 11  7  1  0
 19 14  1  0
 30 20  1  0
 29 23  1  0
  3 31  1  0
  4 32  1  0
  4 33  1  0
  8 34  1  0
  8 35  1  0
  9 36  1  0
  9 37  1  0
 10 38  1  0
 10 39  1  0
 11 40  1  6
 12 41  1  0
 12 42  1  0
 15 43  1  0
 16 44  1  0
 17 45  1  0
 18 46  1  0
 19 47  1  0
 21 48  1  0
 22 49  1  0
 24 50  1  0
 27 51  1  0
 28 52  1  0
M  END
>  <smiles>  (34) 
O=C(NCC(=O)N1CCC[C@H]1COc1ccccc1)c1ccc2cc(Cl)ccc2n1

>  <score_type>  (34) 
oracle

>  <origin>  (34) 
autodockgpu

>  <m_score__min__energy>  (34) 
-8.3900000000000006

>  <m_primary>  (34) 
energy

>  <rmsd>  (34) 
2.5115571023560195

>  <m_score__min__rmsd>  (34) 
2.5115571023560195

>  <meeko>  (34) 
{"free_energy": -7.93, "intermolecular_energy": -10.02, "internal_energy": -1.99, "cluster_size": 9, "cluster_id": 2, "rank_in_cluster": 3}

>  <energy>  (34) 
-8.25

>  <cluster_rmsd>  (34) 
0.42

>  <cluster>  (34) 
3

$$$$

     RDKit          3D

 52 55  0  0  0  0  0  0  0  0999 V2000
  141.4360   73.0030  220.9960 O   0  0  0  0  0  0  0  0  0  0  0  0
  140.7070   73.8450  221.5820 C   0  0  0  0  0  0  0  0  0  0  0  0
  139.6110   73.3170  222.3420 N   0  0  0  0  0  0  0  0  0  0  0  0
  139.4640   71.8760  222.3510 C   0  0  0  0  0  0  0  0  0  0  0  0
  138.0540   71.4540  222.2160 C   0  0  0  0  0  0  0  0  0  0  0  0
  137.2340   71.9990  221.4280 O   0  0  0  0  0  0  0  0  0  0  0  0
  137.6110   70.3710  223.0260 N   0  0  0  0  0  0  0  0  0  0  0  0
  136.5520   69.3990  222.7450 C   0  0  0  0  0  0  0  0  0  0  0  0
  135.8270   69.3630  224.0680 C   0  0  0  0  0  0  0  0  0  0  0  0
  136.9700   69.3430  225.0590 C   0  0  0  0  0  0  0  0  0  0  0  0
  138.1220   69.9890  224.3270 C   0  0  1  0  0  0  0  0  0  0  0  0
  139.2120   68.9440  224.1930 C   0  0  0  0  0  0  0  0  0  0  0  0
  139.8770   68.6880  225.3940 O   0  0  0  0  0  0  0  0  0  0  0  0
  140.2460   69.7720  226.1860 C   0  0  0  0  0  0  0  0  0  0  0  0
  141.0440   70.7880  225.6730 C   0  0  0  0  0  0  0  0  0  0  0  0
  141.4180   71.8770  226.4620 C   0  0  0  0  0  0  0  0  0  0  0  0
  141.0000   71.9710  227.7770 C   0  0  0  0  0  0  0  0  0  0  0  0
  140.2060   70.9680  228.3000 C   0  0  0  0  0  0  0  0  0  0  0  0
  139.8410   69.8930  227.5100 C   0  0  0  0  0  0  0  0  0  0  0  0
  140.9430   75.2830  221.5070 C   0  0  0  0  0  0  0  0  0  0  0  0
  141.7980   75.7400  220.5270 C   0  0  0  0  0  0  0  0  0  0  0  0
  142.0950   77.0750  220.3630 C   0  0  0  0  0  0  0  0  0  0  0  0
  141.4860   77.9710  221.2420 C   0  0  0  0  0  0  0  0  0  0  0  0
  141.7630   79.3160  221.1040 C   0  0  0  0  0  0  0  0  0  0  0  0
  141.1540   80.1910  221.9820 C   0  0  0  0  0  0  0  0  0  0  0  0
  141.4650   81.9120  221.8560 Cl  0  0  0  0  0  0  0  0  0  0  0  0
  140.2880   79.7440  222.9770 C   0  0  0  0  0  0  0  0  0  0  0  0
  140.0320   78.3900  223.0880 C   0  0  0  0  0  0  0  0  0  0  0  0
  140.6230   77.5000  222.2300 C   0  0  0  0  0  0  0  0  0  0  0  0
  140.3660   76.1660  222.3470 N   0  0  0  0  0  0  0  0  0  0  0  0
  138.9650   73.9650  222.8540 H   0  0  0  0  0  0  0  0  0  0  0  0
  140.0403   71.4566  221.5131 H   0  0  0  0  0  0  0  0  0  0  0  0
  139.8341   71.5065  223.3187 H   0  0  0  0  0  0  0  0  0  0  0  0
  135.8936   69.7437  221.9340 H   0  0  0  0  0  0  0  0  0  0  0  0
  136.9179   68.4192  222.4044 H   0  0  0  0  0  0  0  0  0  0  0  0
  135.1982   70.2555  224.2025 H   0  0  0  0  0  0  0  0  0  0  0  0
  135.1386   68.5112  224.1710 H   0  0  0  0  0  0  0  0  0  0  0  0
  136.7120   69.9178  225.9607 H   0  0  0  0  0  0  0  0  0  0  0  0
  137.2102   68.3243  225.3974 H   0  0  0  0  0  0  0  0  0  0  0  0
  138.5310   70.8694  224.8443 H   0  0  0  0  0  0  0  0  0  0  0  0
  138.7571   68.0074  223.8383 H   0  0  0  0  0  0  0  0  0  0  0  0
  139.9559   69.3355  223.4835 H   0  0  0  0  0  0  0  0  0  0  0  0
  141.3861   70.7329  224.6290 H   0  0  0  0  0  0  0  0  0  0  0  0
  142.0512   72.6680  226.0338 H   0  0  0  0  0  0  0  0  0  0  0  0
  141.2949   72.8306  228.3968 H   0  0  0  0  0  0  0  0  0  0  0  0
  139.8645   71.0246  229.3441 H   0  0  0  0  0  0  0  0  0  0  0  0
  139.2077   69.1058  227.9450 H   0  0  0  0  0  0  0  0  0  0  0  0
  142.2619   75.0090  219.8485 H   0  0  0  0  0  0  0  0  0  0  0  0
  142.7811   77.4189  219.5750 H   0  0  0  0  0  0  0  0  0  0  0  0
  142.4456   79.6787  220.3214 H   0  0  0  0  0  0  0  0  0  0  0  0
  139.8139   80.4590  223.6655 H   0  0  0  0  0  0  0  0  0  0  0  0
  139.3497   78.0249  223.8698 H   0  0  0  0  0  0  0  0  0  0  0  0
  1  2  2  0
  2  3  1  0
  3  4  1  0
  4  5  1  0
  5  6  2  0
  5  7  1  0
  7  8  1  0
  8  9  1  0
  9 10  1  0
 10 11  1  0
 11 12  1  0
 12 13  1  0
 13 14  1  0
 14 15  2  0
 15 16  1  0
 16 17  2  0
 17 18  1  0
 18 19  2  0
  2 20  1  0
 20 21  2  0
 21 22  1  0
 22 23  2  0
 23 24  1  0
 24 25  2  0
 25 26  1  0
 25 27  1  0
 27 28  2  0
 28 29  1  0
 29 30  2  0
 11  7  1  0
 19 14  1  0
 30 20  1  0
 29 23  1  0
  3 31  1  0
  4 32  1  0
  4 33  1  0
  8 34  1  0
  8 35  1  0
  9 36  1  0
  9 37  1  0
 10 38  1  0
 10 39  1  0
 11 40  1  1
 12 41  1  0
 12 42  1  0
 15 43  1  0
 16 44  1  0
 17 45  1  0
 18 46  1  0
 19 47  1  0
 21 48  1  0
 22 49  1  0
 24 50  1  0
 27 51  1  0
 28 52  1  0
M  END
>  <smiles>  (35) 
O=C(NCC(=O)N1CCC[C@H]1COc1ccccc1)c1ccc2cc(Cl)ccc2n1

>  <score_type>  (35) 
oracle

>  <origin>  (35) 
autodockgpu

>  <m_score__min__energy>  (35) 
-8.3900000000000006

>  <m_primary>  (35) 
energy

>  <rmsd>  (35) 
8.384007071366142

>  <m_score__min__rmsd>  (35) 
8.384007071366142

>  <meeko>  (35) 
{"free_energy": -8.1, "intermolecular_energy": -10.18, "internal_energy": -1.67, "cluster_size": 9, "cluster_id": 3, "rank_in_cluster": 3}

>  <energy>  (35) 
-8.1

>  <cluster_rmsd>  (35) 
1.23

>  <cluster>  (35) 
3

$$$$

     RDKit          3D

 52 55  0  0  0  0  0  0  0  0999 V2000
  138.5890   71.8490  220.9830 O   0  0  0  0  0  0  0  0  0  0  0  0
  139.0280   72.2850  222.0790 C   0  0  0  0  0  0  0  0  0  0  0  0
  139.2150   73.7040  222.1700 N   0  0  0  0  0  0  0  0  0  0  0  0
  138.8800   74.4790  220.9920 C   0  0  0  0  0  0  0  0  0  0  0  0
  139.6320   74.0390  219.7980 C   0  0  0  0  0  0  0  0  0  0  0  0
  139.1010   73.4600  218.8120 O   0  0  0  0  0  0  0  0  0  0  0  0
  141.0320   74.2900  219.7750 N   0  0  0  0  0  0  0  0  0  0  0  0
  142.0240   73.8200  218.8040 C   0  0  0  0  0  0  0  0  0  0  0  0
  143.1420   73.3770  219.7170 C   0  0  0  0  0  0  0  0  0  0  0  0
  143.1850   74.4940  220.7350 C   0  0  0  0  0  0  0  0  0  0  0  0
  141.7930   75.0800  220.7220 C   0  0  1  0  0  0  0  0  0  0  0  0
  141.9140   76.5160  220.2540 C   0  0  0  0  0  0  0  0  0  0  0  0
  140.9660   77.3630  220.8310 O   0  0  0  0  0  0  0  0  0  0  0  0
  141.4000   78.2950  221.7690 C   0  0  0  0  0  0  0  0  0  0  0  0
  141.8680   79.5410  221.3690 C   0  0  0  0  0  0  0  0  0  0  0  0
  142.3040   80.4800  222.3050 C   0  0  0  0  0  0  0  0  0  0  0  0
  142.2790   80.1910  223.6570 C   0  0  0  0  0  0  0  0  0  0  0  0
  141.8160   78.9550  224.0690 C   0  0  0  0  0  0  0  0  0  0  0  0
  141.3860   78.0320  223.1340 C   0  0  0  0  0  0  0  0  0  0  0  0
  139.3360   71.4150  223.2090 C   0  0  0  0  0  0  0  0  0  0  0  0
  138.9860   70.0850  223.1060 C   0  0  0  0  0  0  0  0  0  0  0  0
  139.2270   69.1730  224.1090 C   0  0  0  0  0  0  0  0  0  0  0  0
  139.8540   69.6500  225.2600 C   0  0  0  0  0  0  0  0  0  0  0  0
  140.1090   68.7610  226.2840 C   0  0  0  0  0  0  0  0  0  0  0  0
  140.7290   69.2470  227.4190 C   0  0  0  0  0  0  0  0  0  0  0  0
  141.0820   68.1660  228.7540 Cl  0  0  0  0  0  0  0  0  0  0  0  0
  141.0890   70.5880  227.5380 C   0  0  0  0  0  0  0  0  0  0  0  0
  140.8180   71.4520  226.4930 C   0  0  0  0  0  0  0  0  0  0  0  0
  140.2040   70.9960  225.3560 C   0  0  0  0  0  0  0  0  0  0  0  0
  139.9400   71.8550  224.3310 N   0  0  0  0  0  0  0  0  0  0  0  0
  139.5780   74.1320  223.0560 H   0  0  0  0  0  0  0  0  0  0  0  0
  137.8038   74.3709  220.7918 H   0  0  0  0  0  0  0  0  0  0  0  0
  139.1485   75.5269  221.1913 H   0  0  0  0  0  0  0  0  0  0  0  0
  141.6366   72.9823  218.2054 H   0  0  0  0  0  0  0  0  0  0  0  0
  142.3206   74.5747  218.0607 H   0  0  0  0  0  0  0  0  0  0  0  0
  142.9100   72.4127  220.1926 H   0  0  0  0  0  0  0  0  0  0  0  0
  144.0983   73.2158  219.1978 H   0  0  0  0  0  0  0  0  0  0  0  0
  143.4306   74.1004  221.7324 H   0  0  0  0  0  0  0  0  0  0  0  0
  143.9539   75.2438  220.4972 H   0  0  0  0  0  0  0  0  0  0  0  0
  141.3015   75.0649  221.7060 H   0  0  0  0  0  0  0  0  0  0  0  0
  142.9171   76.8852  220.5136 H   0  0  0  0  0  0  0  0  0  0  0  0
  141.7405   76.5221  219.1678 H   0  0  0  0  0  0  0  0  0  0  0  0
  141.8952   79.7910  220.2981 H   0  0  0  0  0  0  0  0  0  0  0  0
  142.6710   81.4593  221.9639 H   0  0  0  0  0  0  0  0  0  0  0  0
  142.6221   80.9328  224.3932 H   0  0  0  0  0  0  0  0  0  0  0  0
  141.7898   78.7063  225.1402 H   0  0  0  0  0  0  0  0  0  0  0  0
  141.0199   77.0550  223.4824 H   0  0  0  0  0  0  0  0  0  0  0  0
  138.4942   69.7387  222.1850 H   0  0  0  0  0  0  0  0  0  0  0  0
  138.9383   68.1165  224.0072 H   0  0  0  0  0  0  0  0  0  0  0  0
  139.8280   67.7008  226.1995 H   0  0  0  0  0  0  0  0  0  0  0  0
  141.5820   70.9541  228.4507 H   0  0  0  0  0  0  0  0  0  0  0  0
  141.0972   72.5128  226.5750 H   0  0  0  0  0  0  0  0  0  0  0  0
  1  2  2  0
  2  3  1  0
  3  4  1  0
  4  5  1  0
  5  6  2  0
  5  7  1  0
  7  8  1  0
  8  9  1  0
  9 10  1  0
 10 11  1  0
 11 12  1  0
 12 13  1  0
 13 14  1  0
 14 15  2  0
 15 16  1  0
 16 17  2  0
 17 18  1  0
 18 19  2  0
  2 20  1  0
 20 21  2  0
 21 22  1  0
 22 23  2  0
 23 24  1  0
 24 25  2  0
 25 26  1  0
 25 27  1  0
 27 28  2  0
 28 29  1  0
 29 30  2  0
 11  7  1  0
 19 14  1  0
 30 20  1  0
 29 23  1  0
  3 31  1  0
  4 32  1  0
  4 33  1  0
  8 34  1  0
  8 35  1  0
  9 36  1  0
  9 37  1  0
 10 38  1  0
 10 39  1  0
 11 40  1  1
 12 41  1  0
 12 42  1  0
 15 43  1  0
 16 44  1  0
 17 45  1  0
 18 46  1  0
 19 47  1  0
 21 48  1  0
 22 49  1  0
 24 50  1  0
 27 51  1  0
 28 52  1  0
M  END
>  <smiles>  (36) 
O=C(NCC(=O)N1CCC[C@H]1COc1ccccc1)c1ccc2cc(Cl)ccc2n1

>  <score_type>  (36) 
oracle

>  <origin>  (36) 
autodockgpu

>  <m_score__min__energy>  (36) 
-8.3900000000000006

>  <m_primary>  (36) 
energy

>  <rmsd>  (36) 
2.3774442495878305

>  <m_score__min__rmsd>  (36) 
2.3774442495878305

>  <meeko>  (36) 
{"free_energy": -7.85, "intermolecular_energy": -9.94, "internal_energy": -1.62, "cluster_size": 23, "cluster_id": 1, "rank_in_cluster": 11}

>  <energy>  (36) 
-7.99

>  <cluster_rmsd>  (36) 
1.22

>  <cluster>  (36) 
3

$$$$

     RDKit          3D

 52 55  0  0  0  0  0  0  0  0999 V2000
  139.1170   71.8430  220.6710 O   0  0  0  0  0  0  0  0  0  0  0  0
  139.3140   72.3190  221.8190 C   0  0  0  0  0  0  0  0  0  0  0  0
  139.2810   73.7480  221.9300 N   0  0  0  0  0  0  0  0  0  0  0  0
  139.0270   74.4870  220.7100 C   0  0  0  0  0  0  0  0  0  0  0  0
  138.9360   75.9430  220.9430 C   0  0  0  0  0  0  0  0  0  0  0  0
  137.8720   76.6070  220.8140 O   0  0  0  0  0  0  0  0  0  0  0  0
  140.1240   76.6210  221.3350 N   0  0  0  0  0  0  0  0  0  0  0  0
  140.6940   76.7540  222.6770 C   0  0  0  0  0  0  0  0  0  0  0  0
  141.0570   78.2190  222.6990 C   0  0  0  0  0  0  0  0  0  0  0  0
  141.6620   78.4190  221.3280 C   0  0  0  0  0  0  0  0  0  0  0  0
  141.0430   77.3380  220.4740 C   0  0  1  0  0  0  0  0  0  0  0  0
  142.1680   76.4320  220.0110 C   0  0  0  0  0  0  0  0  0  0  0  0
  142.0100   75.1080  220.4260 O   0  0  0  0  0  0  0  0  0  0  0  0
  143.1420   74.3000  220.4900 C   0  0  0  0  0  0  0  0  0  0  0  0
  144.4150   74.8500  220.4020 C   0  0  0  0  0  0  0  0  0  0  0  0
  145.5520   74.0440  220.4650 C   0  0  0  0  0  0  0  0  0  0  0  0
  145.4380   72.6740  220.6190 C   0  0  0  0  0  0  0  0  0  0  0  0
  144.1780   72.1140  220.7080 C   0  0  0  0  0  0  0  0  0  0  0  0
  143.0570   72.9210  220.6440 C   0  0  0  0  0  0  0  0  0  0  0  0
  139.5640   71.4820  222.9890 C   0  0  0  0  0  0  0  0  0  0  0  0
  139.2190   70.1490  222.9070 C   0  0  0  0  0  0  0  0  0  0  0  0
  139.4090   69.2670  223.9470 C   0  0  0  0  0  0  0  0  0  0  0  0
  139.9750   69.7800  225.1150 C   0  0  0  0  0  0  0  0  0  0  0  0
  140.1770   68.9200  226.1770 C   0  0  0  0  0  0  0  0  0  0  0  0
  140.7370   69.4410  227.3270 C   0  0  0  0  0  0  0  0  0  0  0  0
  141.0200   68.4000  228.7090 Cl  0  0  0  0  0  0  0  0  0  0  0  0
  141.0900   70.7860  227.4250 C   0  0  0  0  0  0  0  0  0  0  0  0
  140.8730   71.6180  226.3430 C   0  0  0  0  0  0  0  0  0  0  0  0
  140.3190   71.1280  225.1890 C   0  0  0  0  0  0  0  0  0  0  0  0
  140.1080   71.9560  224.1270 N   0  0  0  0  0  0  0  0  0  0  0  0
  139.4380   74.2080  222.8590 H   0  0  0  0  0  0  0  0  0  0  0  0
  139.8463   74.2929  220.0022 H   0  0  0  0  0  0  0  0  0  0  0  0
  138.0598   74.1501  220.3087 H   0  0  0  0  0  0  0  0  0  0  0  0
  139.9551   76.5103  223.4545 H   0  0  0  0  0  0  0  0  0  0  0  0
  141.5377   76.0773  222.8777 H   0  0  0  0  0  0  0  0  0  0  0  0
  140.1657   78.8487  222.8373 H   0  0  0  0  0  0  0  0  0  0  0  0
  141.7311   78.4944  223.5235 H   0  0  0  0  0  0  0  0  0  0  0  0
  141.4110   79.4152  220.9349 H   0  0  0  0  0  0  0  0  0  0  0  0
  142.7602   78.3581  221.3449 H   0  0  0  0  0  0  0  0  0  0  0  0
  140.5098   77.7258  219.5935 H   0  0  0  0  0  0  0  0  0  0  0  0
  142.2044   76.4526  218.9118 H   0  0  0  0  0  0  0  0  0  0  0  0
  143.0988   76.8082  220.4606 H   0  0  0  0  0  0  0  0  0  0  0  0
  144.5280   75.9374  220.2808 H   0  0  0  0  0  0  0  0  0  0  0  0
  146.5492   74.5025  220.3915 H   0  0  0  0  0  0  0  0  0  0  0  0
  146.3359   72.0407  220.6698 H   0  0  0  0  0  0  0  0  0  0  0  0
  144.0667   71.0264  220.8297 H   0  0  0  0  0  0  0  0  0  0  0  0
  142.0631   72.4555  220.7175 H   0  0  0  0  0  0  0  0  0  0  0  0
  138.7741   69.7755  221.9729 H   0  0  0  0  0  0  0  0  0  0  0  0
  139.1277   68.2070  223.8613 H   0  0  0  0  0  0  0  0  0  0  0  0
  139.9014   67.8572  226.1091 H   0  0  0  0  0  0  0  0  0  0  0  0
  141.5351   71.1797  228.3507 H   0  0  0  0  0  0  0  0  0  0  0  0
  141.1469   72.6813  226.4084 H   0  0  0  0  0  0  0  0  0  0  0  0
  1  2  2  0
  2  3  1  0
  3  4  1  0
  4  5  1  0
  5  6  2  0
  5  7  1  0
  7  8  1  0
  8  9  1  0
  9 10  1  0
 10 11  1  0
 11 12  1  0
 12 13  1  0
 13 14  1  0
 14 15  2  0
 15 16  1  0
 16 17  2  0
 17 18  1  0
 18 19  2  0
  2 20  1  0
 20 21  2  0
 21 22  1  0
 22 23  2  0
 23 24  1  0
 24 25  2  0
 25 26  1  0
 25 27  1  0
 27 28  2  0
 28 29  1  0
 29 30  2  0
 11  7  1  0
 19 14  1  0
 30 20  1  0
 29 23  1  0
  3 31  1  0
  4 32  1  0
  4 33  1  0
  8 34  1  0
  8 35  1  0
  9 36  1  0
  9 37  1  0
 10 38  1  0
 10 39  1  0
 11 40  1  6
 12 41  1  0
 12 42  1  0
 15 43  1  0
 16 44  1  0
 17 45  1  0
 18 46  1  0
 19 47  1  0
 21 48  1  0
 22 49  1  0
 24 50  1  0
 27 51  1  0
 28 52  1  0
M  END
>  <smiles>  (37) 
O=C(NCC(=O)N1CCC[C@H]1COc1ccccc1)c1ccc2cc(Cl)ccc2n1

>  <score_type>  (37) 
oracle

>  <origin>  (37) 
autodockgpu

>  <m_score__min__energy>  (37) 
-8.3900000000000006

>  <m_primary>  (37) 
energy

>  <rmsd>  (37) 
2.599594241809839

>  <m_score__min__rmsd>  (37) 
2.599594241809839

>  <meeko>  (37) 
{"free_energy": -7.99, "intermolecular_energy": -10.08, "internal_energy": -2.05, "cluster_size": 9, "cluster_id": 2, "rank_in_cluster": 2}

>  <energy>  (37) 
-7.95

>  <cluster_rmsd>  (37) 
0.94

>  <cluster>  (37) 
3

$$$$

     RDKit          3D

 52 55  0  0  0  0  0  0  0  0999 V2000
  139.5180   74.7420  220.6860 O   0  0  0  0  0  0  0  0  0  0  0  0
  139.9800   75.7110  221.3430 C   0  0  0  0  0  0  0  0  0  0  0  0
  141.4070   75.7600  221.4830 N   0  0  0  0  0  0  0  0  0  0  0  0
  142.1570   74.6910  220.8560 C   0  0  0  0  0  0  0  0  0  0  0  0
  143.1430   75.1960  219.8770 C   0  0  0  0  0  0  0  0  0  0  0  0
  144.3600   74.8710  219.8790 O   0  0  0  0  0  0  0  0  0  0  0  0
  142.6760   76.1010  218.8820 N   0  0  0  0  0  0  0  0  0  0  0  0
  141.8220   75.8190  217.7260 C   0  0  0  0  0  0  0  0  0  0  0  0
  142.5430   76.5770  216.6370 C   0  0  0  0  0  0  0  0  0  0  0  0
  142.8960   77.8730  217.3300 C   0  0  0  0  0  0  0  0  0  0  0  0
  142.9490   77.5220  218.7980 C   0  0  1  0  0  0  0  0  0  0  0  0
  141.8630   78.3220  219.4910 C   0  0  0  0  0  0  0  0  0  0  0  0
  141.8730   78.1720  220.8790 O   0  0  0  0  0  0  0  0  0  0  0  0
  141.9620   79.3180  221.6640 C   0  0  0  0  0  0  0  0  0  0  0  0
  141.4480   80.5290  221.2150 C   0  0  0  0  0  0  0  0  0  0  0  0
  141.5340   81.6810  221.9980 C   0  0  0  0  0  0  0  0  0  0  0  0
  142.1340   81.6440  223.2440 C   0  0  0  0  0  0  0  0  0  0  0  0
  142.6490   80.4460  223.7020 C   0  0  0  0  0  0  0  0  0  0  0  0
  142.5590   79.3100  222.9190 C   0  0  0  0  0  0  0  0  0  0  0  0
  139.1330   76.7390  221.9380 C   0  0  0  0  0  0  0  0  0  0  0  0
  137.7680   76.6120  221.7830 C   0  0  0  0  0  0  0  0  0  0  0  0
  136.8740   77.5210  222.3010 C   0  0  0  0  0  0  0  0  0  0  0  0
  137.4060   78.6010  223.0060 C   0  0  0  0  0  0  0  0  0  0  0  0
  136.5350   79.5310  223.5370 C   0  0  0  0  0  0  0  0  0  0  0  0
  137.0760   80.5950  224.2310 C   0  0  0  0  0  0  0  0  0  0  0  0
  136.0210   81.8080  224.9320 Cl  0  0  0  0  0  0  0  0  0  0  0  0
  138.4520   80.7370  224.3970 C   0  0  0  0  0  0  0  0  0  0  0  0
  139.2960   79.7880  223.8520 C   0  0  0  0  0  0  0  0  0  0  0  0
  138.7860   78.7220  223.1580 C   0  0  0  0  0  0  0  0  0  0  0  0
  139.6260   77.7910  222.6220 N   0  0  0  0  0  0  0  0  0  0  0  0
  141.8570   76.5410  222.0190 H   0  0  0  0  0  0  0  0  0  0  0  0
  142.6899   74.1280  221.6364 H   0  0  0  0  0  0  0  0  0  0  0  0
  141.4435   74.0517  220.3154 H   0  0  0  0  0  0  0  0  0  0  0  0
  141.7813   74.7416  217.5081 H   0  0  0  0  0  0  0  0  0  0  0  0
  140.7702   76.1119  217.8595 H   0  0  0  0  0  0  0  0  0  0  0  0
  143.4460   76.0413  216.3090 H   0  0  0  0  0  0  0  0  0  0  0  0
  141.9452   76.7132  215.7237 H   0  0  0  0  0  0  0  0  0  0  0  0
  143.8722   78.2440  216.9846 H   0  0  0  0  0  0  0  0  0  0  0  0
  142.1670   78.6693  217.1190 H   0  0  0  0  0  0  0  0  0  0  0  0
  143.9169   77.7491  219.2688 H   0  0  0  0  0  0  0  0  0  0  0  0
  142.0064   79.3863  219.2529 H   0  0  0  0  0  0  0  0  0  0  0  0
  140.8956   77.9451  219.1275 H   0  0  0  0  0  0  0  0  0  0  0  0
  140.9661   80.5800  220.2275 H   0  0  0  0  0  0  0  0  0  0  0  0
  141.1206   82.6279  221.6207 H   0  0  0  0  0  0  0  0  0  0  0  0
  142.2001   82.5530  223.8600 H   0  0  0  0  0  0  0  0  0  0  0  0
  143.1306   80.3963  224.6897 H   0  0  0  0  0  0  0  0  0  0  0  0
  142.9746   78.3666  223.3029 H   0  0  0  0  0  0  0  0  0  0  0  0
  137.3785   75.7492  221.2227 H   0  0  0  0  0  0  0  0  0  0  0  0
  135.7890   77.4015  222.1653 H   0  0  0  0  0  0  0  0  0  0  0  0
  135.4471   79.4279  223.4115 H   0  0  0  0  0  0  0  0  0  0  0  0
  138.8610   81.5927  224.9542 H   0  0  0  0  0  0  0  0  0  0  0  0
  140.3843   79.8890  223.9761 H   0  0  0  0  0  0  0  0  0  0  0  0
  1  2  2  0
  2  3  1  0
  3  4  1  0
  4  5  1  0
  5  6  2  0
  5  7  1  0
  7  8  1  0
  8  9  1  0
  9 10  1  0
 10 11  1  0
 11 12  1  0
 12 13  1  0
 13 14  1  0
 14 15  2  0
 15 16  1  0
 16 17  2  0
 17 18  1  0
 18 19  2  0
  2 20  1  0
 20 21  2  0
 21 22  1  0
 22 23  2  0
 23 24  1  0
 24 25  2  0
 25 26  1  0
 25 27  1  0
 27 28  2  0
 28 29  1  0
 29 30  2  0
 11  7  1  0
 19 14  1  0
 30 20  1  0
 29 23  1  0
  3 31  1  0
  4 32  1  0
  4 33  1  0
  8 34  1  0
  8 35  1  0
  9 36  1  0
  9 37  1  0
 10 38  1  0
 10 39  1  0
 11 40  1  1
 12 41  1  0
 12 42  1  0
 15 43  1  0
 16 44  1  0
 17 45  1  0
 18 46  1  0
 19 47  1  0
 21 48  1  0
 22 49  1  0
 24 50  1  0
 27 51  1  0
 28 52  1  0
M  END
>  <smiles>  (38) 
O=C(NCC(=O)N1CCC[C@H]1COc1ccccc1)c1ccc2cc(Cl)ccc2n1

>  <score_type>  (38) 
oracle

>  <origin>  (38) 
autodockgpu

>  <m_score__min__energy>  (38) 
-8.3900000000000006

>  <m_primary>  (38) 
energy

>  <rmsd>  (38) 
6.885169968243531

>  <m_score__min__rmsd>  (38) 
6.885169968243531

>  <meeko>  (38) 
{"free_energy": -6.42, "intermolecular_energy": -8.51, "internal_energy": -3.4, "cluster_size": 3, "cluster_id": 7, "rank_in_cluster": 1}

>  <energy>  (38) 
-7.87

>  <cluster_rmsd>  (38) 
1.34

>  <cluster>  (38) 
3

$$$$

     RDKit          3D

 52 55  0  0  0  0  0  0  0  0999 V2000
  140.3870   72.2170  220.6820 O   0  0  0  0  0  0  0  0  0  0  0  0
  139.9640   72.5610  221.8160 C   0  0  0  0  0  0  0  0  0  0  0  0
  139.4100   73.8800  221.9140 N   0  0  0  0  0  0  0  0  0  0  0  0
  139.3980   74.6700  220.7000 C   0  0  0  0  0  0  0  0  0  0  0  0
  138.6110   75.9130  220.8460 C   0  0  0  0  0  0  0  0  0  0  0  0
  137.4200   75.9420  221.2570 O   0  0  0  0  0  0  0  0  0  0  0  0
  139.2470   77.1370  220.4980 N   0  0  0  0  0  0  0  0  0  0  0  0
  138.7800   78.5040  220.7390 C   0  0  0  0  0  0  0  0  0  0  0  0
  139.0590   79.1500  219.4030 C   0  0  0  0  0  0  0  0  0  0  0  0
  140.4270   78.6030  219.0630 C   0  0  0  0  0  0  0  0  0  0  0  0
  140.5180   77.2990  219.8200 C   0  0  1  0  0  0  0  0  0  0  0  0
  141.6490   77.4370  220.8190 C   0  0  0  0  0  0  0  0  0  0  0  0
  141.2040   77.6480  222.1260 O   0  0  0  0  0  0  0  0  0  0  0  0
  141.4690   78.8780  222.7210 C   0  0  0  0  0  0  0  0  0  0  0  0
  142.7680   79.3650  222.8000 C   0  0  0  0  0  0  0  0  0  0  0  0
  143.0390   80.5970  223.3950 C   0  0  0  0  0  0  0  0  0  0  0  0
  142.0170   81.3660  223.9220 C   0  0  0  0  0  0  0  0  0  0  0  0
  140.7200   80.8930  223.8500 C   0  0  0  0  0  0  0  0  0  0  0  0
  140.4620   79.6710  223.2580 C   0  0  0  0  0  0  0  0  0  0  0  0
  140.0240   71.6840  222.9810 C   0  0  0  0  0  0  0  0  0  0  0  0
  139.5320   70.4030  222.8430 C   0  0  0  0  0  0  0  0  0  0  0  0
  139.5370   69.4900  223.8740 C   0  0  0  0  0  0  0  0  0  0  0  0
  140.0680   69.9150  225.0920 C   0  0  0  0  0  0  0  0  0  0  0  0
  140.0860   69.0230  226.1450 C   0  0  0  0  0  0  0  0  0  0  0  0
  140.6140   69.4570  227.3460 C   0  0  0  0  0  0  0  0  0  0  0  0
  140.6670   68.3700  228.7210 Cl  0  0  0  0  0  0  0  0  0  0  0  0
  141.1140   70.7480  227.5010 C   0  0  0  0  0  0  0  0  0  0  0  0
  141.0810   71.6160  226.4250 C   0  0  0  0  0  0  0  0  0  0  0  0
  140.5620   71.2110  225.2230 C   0  0  0  0  0  0  0  0  0  0  0  0
  140.5320   72.0730  224.1670 N   0  0  0  0  0  0  0  0  0  0  0  0
  139.0400   74.2280  222.8310 H   0  0  0  0  0  0  0  0  0  0  0  0
  140.4335   74.9356  220.4407 H   0  0  0  0  0  0  0  0  0  0  0  0
  138.9280   74.0655  219.9103 H   0  0  0  0  0  0  0  0  0  0  0  0
  137.7073   78.5265  220.9813 H   0  0  0  0  0  0  0  0  0  0  0  0
  139.2648   79.0027  221.5912 H   0  0  0  0  0  0  0  0  0  0  0  0
  138.3124   78.8519  218.6522 H   0  0  0  0  0  0  0  0  0  0  0  0
  139.0163   80.2489  219.4265 H   0  0  0  0  0  0  0  0  0  0  0  0
  140.5175   78.4301  217.9804 H   0  0  0  0  0  0  0  0  0  0  0  0
  141.2333   79.2997  219.3361 H   0  0  0  0  0  0  0  0  0  0  0  0
  140.7146   76.4302  219.1747 H   0  0  0  0  0  0  0  0  0  0  0  0
  142.2488   76.5151  220.7981 H   0  0  0  0  0  0  0  0  0  0  0  0
  142.2381   78.3189  220.5271 H   0  0  0  0  0  0  0  0  0  0  0  0
  143.5955   78.7696  222.3868 H   0  0  0  0  0  0  0  0  0  0  0  0
  144.0759   80.9608  223.4457 H   0  0  0  0  0  0  0  0  0  0  0  0
  142.2327   82.3376  224.3905 H   0  0  0  0  0  0  0  0  0  0  0  0
  139.8934   81.4891  224.2639 H   0  0  0  0  0  0  0  0  0  0  0  0
  139.4228   79.3135  223.2102 H   0  0  0  0  0  0  0  0  0  0  0  0
  139.1189   70.0982  221.8701 H   0  0  0  0  0  0  0  0  0  0  0  0
  139.1405   68.4723  223.7431 H   0  0  0  0  0  0  0  0  0  0  0  0
  139.6935   68.0016  226.0321 H   0  0  0  0  0  0  0  0  0  0  0  0
  141.5295   71.0726  228.4664 H   0  0  0  0  0  0  0  0  0  0  0  0
  141.4737   72.6377  226.5345 H   0  0  0  0  0  0  0  0  0  0  0  0
  1  2  2  0
  2  3  1  0
  3  4  1  0
  4  5  1  0
  5  6  2  0
  5  7  1  0
  7  8  1  0
  8  9  1  0
  9 10  1  0
 10 11  1  0
 11 12  1  0
 12 13  1  0
 13 14  1  0
 14 15  2  0
 15 16  1  0
 16 17  2  0
 17 18  1  0
 18 19  2  0
  2 20  1  0
 20 21  2  0
 21 22  1  0
 22 23  2  0
 23 24  1  0
 24 25  2  0
 25 26  1  0
 25 27  1  0
 27 28  2  0
 28 29  1  0
 29 30  2  0
 11  7  1  0
 19 14  1  0
 30 20  1  0
 29 23  1  0
  3 31  1  0
  4 32  1  0
  4 33  1  0
  8 34  1  0
  8 35  1  0
  9 36  1  0
  9 37  1  0
 10 38  1  0
 10 39  1  0
 11 40  1  6
 12 41  1  0
 12 42  1  0
 15 43  1  0
 16 44  1  0
 17 45  1  0
 18 46  1  0
 19 47  1  0
 21 48  1  0
 22 49  1  0
 24 50  1  0
 27 51  1  0
 28 52  1  0
M  END
>  <smiles>  (39) 
O=C(NCC(=O)N1CCC[C@H]1COc1ccccc1)c1ccc2cc(Cl)ccc2n1

>  <score_type>  (39) 
oracle

>  <origin>  (39) 
autodockgpu

>  <m_score__min__energy>  (39) 
-8.3900000000000006

>  <m_primary>  (39) 
energy

>  <rmsd>  (39) 
2.1735690390330284

>  <m_score__min__rmsd>  (39) 
2.1735690390330284

>  <meeko>  (39) 
{"free_energy": -7.81, "intermolecular_energy": -9.9, "internal_energy": -1.62, "cluster_size": 23, "cluster_id": 1, "rank_in_cluster": 12}

>  <energy>  (39) 
-7.86

>  <cluster_rmsd>  (39) 
1.25

>  <cluster>  (39) 
3

$$$$

     RDKit          3D

 52 55  0  0  0  0  0  0  0  0999 V2000
  136.9200   74.9900  220.8330 O   0  0  0  0  0  0  0  0  0  0  0  0
  137.8220   74.8470  221.6980 C   0  0  0  0  0  0  0  0  0  0  0  0
  137.8940   73.5650  222.3370 N   0  0  0  0  0  0  0  0  0  0  0  0
  136.9210   72.5770  221.9180 C   0  0  0  0  0  0  0  0  0  0  0  0
  137.5030   71.5640  221.0120 C   0  0  0  0  0  0  0  0  0  0  0  0
  136.8360   70.6330  220.4840 O   0  0  0  0  0  0  0  0  0  0  0  0
  138.8940   71.6580  220.7300 N   0  0  0  0  0  0  0  0  0  0  0  0
  139.5620   72.4650  219.7070 C   0  0  0  0  0  0  0  0  0  0  0  0
  140.5430   71.4680  219.1390 C   0  0  0  0  0  0  0  0  0  0  0  0
  141.0700   70.7930  220.3850 C   0  0  0  0  0  0  0  0  0  0  0  0
  139.9700   70.9620  221.4070 C   0  0  1  0  0  0  0  0  0  0  0  0
  140.5320   71.8040  222.5360 C   0  0  0  0  0  0  0  0  0  0  0  0
  139.6690   71.8990  223.6290 O   0  0  0  0  0  0  0  0  0  0  0  0
  139.9550   71.1410  224.7610 C   0  0  0  0  0  0  0  0  0  0  0  0
  139.4520   69.8530  224.9000 C   0  0  0  0  0  0  0  0  0  0  0  0
  139.7360   69.0880  226.0320 C   0  0  0  0  0  0  0  0  0  0  0  0
  140.5270   69.5960  227.0460 C   0  0  0  0  0  0  0  0  0  0  0  0
  141.0340   70.8760  226.9210 C   0  0  0  0  0  0  0  0  0  0  0  0
  140.7470   71.6260  225.7950 C   0  0  0  0  0  0  0  0  0  0  0  0
  138.7570   75.9120  222.0490 C   0  0  0  0  0  0  0  0  0  0  0  0
  140.1050   75.6440  221.9320 C   0  0  0  0  0  0  0  0  0  0  0  0
  141.0760   76.5720  222.2350 C   0  0  0  0  0  0  0  0  0  0  0  0
  140.6400   77.8230  222.6740 C   0  0  0  0  0  0  0  0  0  0  0  0
  141.5900   78.7750  222.9870 C   0  0  0  0  0  0  0  0  0  0  0  0
  141.1440   80.0080  223.4210 C   0  0  0  0  0  0  0  0  0  0  0  0
  142.3010   81.2600  223.8310 Cl  0  0  0  0  0  0  0  0  0  0  0  0
  139.7860   80.2940  223.5440 C   0  0  0  0  0  0  0  0  0  0  0  0
  138.8620   79.3170  223.2230 C   0  0  0  0  0  0  0  0  0  0  0  0
  139.2760   78.0850  222.7890 C   0  0  0  0  0  0  0  0  0  0  0  0
  138.3580   77.1270  222.4760 N   0  0  0  0  0  0  0  0  0  0  0  0
  138.6230   73.3810  223.0670 H   0  0  0  0  0  0  0  0  0  0  0  0
  136.5267   72.0685  222.8102 H   0  0  0  0  0  0  0  0  0  0  0  0
  136.1249   73.1011  221.3690 H   0  0  0  0  0  0  0  0  0  0  0  0
  138.8526   72.8130  218.9417 H   0  0  0  0  0  0  0  0  0  0  0  0
  140.0260   73.3855  220.0909 H   0  0  0  0  0  0  0  0  0  0  0  0
  140.0409   70.7472  218.4770 H   0  0  0  0  0  0  0  0  0  0  0  0
  141.3281   71.9252  218.5189 H   0  0  0  0  0  0  0  0  0  0  0  0
  141.2637   69.7268  220.1962 H   0  0  0  0  0  0  0  0  0  0  0  0
  142.0224   71.2277  220.7227 H   0  0  0  0  0  0  0  0  0  0  0  0
  139.6029   70.0101  221.8182 H   0  0  0  0  0  0  0  0  0  0  0  0
  141.4763   71.3519  222.8735 H   0  0  0  0  0  0  0  0  0  0  0  0
  140.6797   72.8214  222.1448 H   0  0  0  0  0  0  0  0  0  0  0  0
  138.8201   69.4299  224.1052 H   0  0  0  0  0  0  0  0  0  0  0  0
  139.3265   68.0707  226.1185 H   0  0  0  0  0  0  0  0  0  0  0  0
  140.7492   68.9914  227.9377 H   0  0  0  0  0  0  0  0  0  0  0  0
  141.6655   71.2978  227.7168 H   0  0  0  0  0  0  0  0  0  0  0  0
  141.1602   72.6423  225.7150 H   0  0  0  0  0  0  0  0  0  0  0  0
  140.4168   74.6487  221.5825 H   0  0  0  0  0  0  0  0  0  0  0  0
  142.1462   76.3381  222.1356 H   0  0  0  0  0  0  0  0  0  0  0  0
  142.6645   78.5589  222.8939 H   0  0  0  0  0  0  0  0  0  0  0  0
  139.4536   81.2833  223.8917 H   0  0  0  0  0  0  0  0  0  0  0  0
  137.7869   79.5302  223.3167 H   0  0  0  0  0  0  0  0  0  0  0  0
  1  2  2  0
  2  3  1  0
  3  4  1  0
  4  5  1  0
  5  6  2  0
  5  7  1  0
  7  8  1  0
  8  9  1  0
  9 10  1  0
 10 11  1  0
 11 12  1  0
 12 13  1  0
 13 14  1  0
 14 15  2  0
 15 16  1  0
 16 17  2  0
 17 18  1  0
 18 19  2  0
  2 20  1  0
 20 21  2  0
 21 22  1  0
 22 23  2  0
 23 24  1  0
 24 25  2  0
 25 26  1  0
 25 27  1  0
 27 28  2  0
 28 29  1  0
 29 30  2  0
 11  7  1  0
 19 14  1  0
 30 20  1  0
 29 23  1  0
  3 31  1  0
  4 32  1  0
  4 33  1  0
  8 34  1  0
  8 35  1  0
  9 36  1  0
  9 37  1  0
 10 38  1  0
 10 39  1  0
 11 40  1  1
 12 41  1  0
 12 42  1  0
 15 43  1  0
 16 44  1  0
 17 45  1  0
 18 46  1  0
 19 47  1  0
 21 48  1  0
 22 49  1  0
 24 50  1  0
 27 51  1  0
 28 52  1  0
M  END
>  <smiles>  (40) 
O=C(NCC(=O)N1CCC[C@H]1COc1ccccc1)c1ccc2cc(Cl)ccc2n1

>  <score_type>  (40) 
oracle

>  <origin>  (40) 
autodockgpu

>  <m_score__min__energy>  (40) 
-8.3900000000000006

>  <m_primary>  (40) 
energy

>  <rmsd>  (40) 
6.94699151591283

>  <m_score__min__rmsd>  (40) 
6.94699151591283

>  <meeko>  (40) 
{"free_energy": -6.84, "intermolecular_energy": -8.92, "internal_energy": -2.62, "cluster_size": 3, "cluster_id": 5, "rank_in_cluster": 2}

>  <energy>  (40) 
-7.83

>  <cluster_rmsd>  (40) 
1.33

>  <cluster>  (40) 
3

$$$$

     RDKit          3D

 52 55  0  0  0  0  0  0  0  0999 V2000
  137.3670   71.2510  221.2200 O   0  0  0  0  0  0  0  0  0  0  0  0
  137.9240   71.7770  222.2180 C   0  0  0  0  0  0  0  0  0  0  0  0
  138.0470   73.2060  222.1970 N   0  0  0  0  0  0  0  0  0  0  0  0
  137.5190   73.8850  221.0320 C   0  0  0  0  0  0  0  0  0  0  0  0
  138.2710   73.5580  219.8020 C   0  0  0  0  0  0  0  0  0  0  0  0
  137.8820   72.7180  218.9470 O   0  0  0  0  0  0  0  0  0  0  0  0
  139.5030   74.2370  219.5860 N   0  0  0  0  0  0  0  0  0  0  0  0
  139.7270   75.5260  218.9270 C   0  0  0  0  0  0  0  0  0  0  0  0
  140.9130   75.2050  218.0490 C   0  0  0  0  0  0  0  0  0  0  0  0
  141.7840   74.3880  218.9750 C   0  0  0  0  0  0  0  0  0  0  0  0
  140.8250   73.7930  219.9790 C   0  0  1  0  0  0  0  0  0  0  0  0
  141.1990   74.3470  221.3400 C   0  0  0  0  0  0  0  0  0  0  0  0
  140.0940   74.7770  222.0780 O   0  0  0  0  0  0  0  0  0  0  0  0
  139.9580   76.1400  222.3250 C   0  0  0  0  0  0  0  0  0  0  0  0
  141.0770   76.9550  222.4520 C   0  0  0  0  0  0  0  0  0  0  0  0
  140.9470   78.3220  222.7000 C   0  0  0  0  0  0  0  0  0  0  0  0
  139.6960   78.9000  222.8240 C   0  0  0  0  0  0  0  0  0  0  0  0
  138.5750   78.1010  222.6990 C   0  0  0  0  0  0  0  0  0  0  0  0
  138.7150   76.7480  222.4540 C   0  0  0  0  0  0  0  0  0  0  0  0
  138.4240   70.9980  223.3460 C   0  0  0  0  0  0  0  0  0  0  0  0
  137.9730   69.7010  223.4780 C   0  0  0  0  0  0  0  0  0  0  0  0
  138.3770   68.8750  224.5030 C   0  0  0  0  0  0  0  0  0  0  0  0
  139.2800   69.4050  225.4250 C   0  0  0  0  0  0  0  0  0  0  0  0
  139.7030   68.6010  226.4640 C   0  0  0  0  0  0  0  0  0  0  0  0
  140.5960   69.1400  227.3700 C   0  0  0  0  0  0  0  0  0  0  0  0
  141.1720   68.1680  228.7110 Cl  0  0  0  0  0  0  0  0  0  0  0  0
  141.0610   70.4480  227.2500 C   0  0  0  0  0  0  0  0  0  0  0  0
  140.6160   71.2260  226.1970 C   0  0  0  0  0  0  0  0  0  0  0  0
  139.7300   70.7170  225.2840 C   0  0  0  0  0  0  0  0  0  0  0  0
  139.2950   71.4900  224.2490 N   0  0  0  0  0  0  0  0  0  0  0  0
  138.5020   73.7070  222.9980 H   0  0  0  0  0  0  0  0  0  0  0  0
  136.4692   73.5866  220.8944 H   0  0  0  0  0  0  0  0  0  0  0  0
  137.6103   74.9676  221.2039 H   0  0  0  0  0  0  0  0  0  0  0  0
  138.8545   75.8306  218.3303 H   0  0  0  0  0  0  0  0  0  0  0  0
  139.8922   76.3643  219.6198 H   0  0  0  0  0  0  0  0  0  0  0  0
  140.6101   74.6208  217.1676 H   0  0  0  0  0  0  0  0  0  0  0  0
  141.4148   76.0952  217.6419 H   0  0  0  0  0  0  0  0  0  0  0  0
  142.3043   73.5946  218.4184 H   0  0  0  0  0  0  0  0  0  0  0  0
  142.5649   74.9958  219.4554 H   0  0  0  0  0  0  0  0  0  0  0  0
  140.8568   72.6942  220.0185 H   0  0  0  0  0  0  0  0  0  0  0  0
  141.7153   73.5597  221.9088 H   0  0  0  0  0  0  0  0  0  0  0  0
  141.8430   75.2229  221.1724 H   0  0  0  0  0  0  0  0  0  0  0  0
  142.0807   76.5154  222.3555 H   0  0  0  0  0  0  0  0  0  0  0  0
  141.8476   78.9460  222.7978 H   0  0  0  0  0  0  0  0  0  0  0  0
  139.5952   79.9779  223.0189 H   0  0  0  0  0  0  0  0  0  0  0  0
  137.5717   78.5419  222.7945 H   0  0  0  0  0  0  0  0  0  0  0  0
  137.8100   76.1302  222.3576 H   0  0  0  0  0  0  0  0  0  0  0  0
  137.2622   69.3110  222.7346 H   0  0  0  0  0  0  0  0  0  0  0  0
  138.0045   67.8437  224.5909 H   0  0  0  0  0  0  0  0  0  0  0  0
  139.3418   67.5671  226.5672 H   0  0  0  0  0  0  0  0  0  0  0  0
  141.7725   70.8562  227.9830 H   0  0  0  0  0  0  0  0  0  0  0  0
  140.9756   72.2602  226.0916 H   0  0  0  0  0  0  0  0  0  0  0  0
  1  2  2  0
  2  3  1  0
  3  4  1  0
  4  5  1  0
  5  6  2  0
  5  7  1  0
  7  8  1  0
  8  9  1  0
  9 10  1  0
 10 11  1  0
 11 12  1  0
 12 13  1  0
 13 14  1  0
 14 15  2  0
 15 16  1  0
 16 17  2  0
 17 18  1  0
 18 19  2  0
  2 20  1  0
 20 21  2  0
 21 22  1  0
 22 23  2  0
 23 24  1  0
 24 25  2  0
 25 26  1  0
 25 27  1  0
 27 28  2  0
 28 29  1  0
 29 30  2  0
 11  7  1  0
 19 14  1  0
 30 20  1  0
 29 23  1  0
  3 31  1  0
  4 32  1  0
  4 33  1  0
  8 34  1  0
  8 35  1  0
  9 36  1  0
  9 37  1  0
 10 38  1  0
 10 39  1  0
 11 40  1  1
 12 41  1  0
 12 42  1  0
 15 43  1  0
 16 44  1  0
 17 45  1  0
 18 46  1  0
 19 47  1  0
 21 48  1  0
 22 49  1  0
 24 50  1  0
 27 51  1  0
 28 52  1  0
M  END
>  <smiles>  (41) 
O=C(NCC(=O)N1CCC[C@H]1COc1ccccc1)c1ccc2cc(Cl)ccc2n1

>  <score_type>  (41) 
oracle

>  <origin>  (41) 
autodockgpu

>  <m_score__min__energy>  (41) 
-8.3900000000000006

>  <m_primary>  (41) 
energy

>  <rmsd>  (41) 
1.9115354275262737

>  <m_score__min__rmsd>  (41) 
1.9115354275262737

>  <meeko>  (41) 
{"free_energy": -6.86, "intermolecular_energy": -8.94, "internal_energy": -2.7, "cluster_size": 23, "cluster_id": 1, "rank_in_cluster": 23}

>  <energy>  (41) 
-7.73

>  <cluster_rmsd>  (41) 
1.35

>  <cluster>  (41) 
3

$$$$

     RDKit          3D

 52 55  0  0  0  0  0  0  0  0999 V2000
  141.0400   72.8770  221.5790 O   0  0  0  0  0  0  0  0  0  0  0  0
  140.0740   72.7110  222.3690 C   0  0  0  0  0  0  0  0  0  0  0  0
  138.9050   73.5060  222.1200 N   0  0  0  0  0  0  0  0  0  0  0  0
  138.9650   74.4100  220.9910 C   0  0  0  0  0  0  0  0  0  0  0  0
  139.8040   75.5960  221.2640 C   0  0  0  0  0  0  0  0  0  0  0  0
  139.6430   76.3520  222.2600 O   0  0  0  0  0  0  0  0  0  0  0  0
  140.8480   75.8880  220.3420 N   0  0  0  0  0  0  0  0  0  0  0  0
  141.2000   75.1760  219.1120 C   0  0  0  0  0  0  0  0  0  0  0  0
  142.7030   75.1000  219.2350 C   0  0  0  0  0  0  0  0  0  0  0  0
  143.0540   76.4850  219.7270 C   0  0  0  0  0  0  0  0  0  0  0  0
  141.8060   76.9730  220.4240 C   0  0  1  0  0  0  0  0  0  0  0  0
  141.3110   78.1870  219.6610 C   0  0  0  0  0  0  0  0  0  0  0  0
  140.7120   79.1430  220.4830 O   0  0  0  0  0  0  0  0  0  0  0  0
  141.3220   79.4410  221.6990 C   0  0  0  0  0  0  0  0  0  0  0  0
  140.8120   78.9410  222.8910 C   0  0  0  0  0  0  0  0  0  0  0  0
  141.4190   79.2360  224.1130 C   0  0  0  0  0  0  0  0  0  0  0  0
  142.5470   80.0360  224.1650 C   0  0  0  0  0  0  0  0  0  0  0  0
  143.0640   80.5400  222.9860 C   0  0  0  0  0  0  0  0  0  0  0  0
  142.4550   80.2410  221.7810 C   0  0  0  0  0  0  0  0  0  0  0  0
  140.1160   71.7690  223.4830 C   0  0  0  0  0  0  0  0  0  0  0  0
  139.6660   70.4860  223.2520 C   0  0  0  0  0  0  0  0  0  0  0  0
  139.6590   69.5140  224.2280 C   0  0  0  0  0  0  0  0  0  0  0  0
  140.1350   69.8800  225.4880 C   0  0  0  0  0  0  0  0  0  0  0  0
  140.1400   68.9280  226.4870 C   0  0  0  0  0  0  0  0  0  0  0  0
  140.6130   69.3040  227.7300 C   0  0  0  0  0  0  0  0  0  0  0  0
  140.6470   68.1400  229.0400 Cl  0  0  0  0  0  0  0  0  0  0  0  0
  141.0710   70.5960  227.9780 C   0  0  0  0  0  0  0  0  0  0  0  0
  141.0520   71.5250  226.9540 C   0  0  0  0  0  0  0  0  0  0  0  0
  140.5880   71.1790  225.7120 C   0  0  0  0  0  0  0  0  0  0  0  0
  140.5710   72.1010  224.7080 N   0  0  0  0  0  0  0  0  0  0  0  0
  138.0660   73.4150  222.7420 H   0  0  0  0  0  0  0  0  0  0  0  0
  139.3846   73.8712  220.1287 H   0  0  0  0  0  0  0  0  0  0  0  0
  137.9427   74.7615  220.7875 H   0  0  0  0  0  0  0  0  0  0  0  0
  140.7470   74.1740  219.0829 H   0  0  0  0  0  0  0  0  0  0  0  0
  140.8471   75.6643  218.1917 H   0  0  0  0  0  0  0  0  0  0  0  0
  143.0053   74.3306  219.9607 H   0  0  0  0  0  0  0  0  0  0  0  0
  143.2090   74.8229  218.2984 H   0  0  0  0  0  0  0  0  0  0  0  0
  143.8996   76.4443  220.4293 H   0  0  0  0  0  0  0  0  0  0  0  0
  143.3606   77.1520  218.9078 H   0  0  0  0  0  0  0  0  0  0  0  0
  141.9716   77.2522  221.4750 H   0  0  0  0  0  0  0  0  0  0  0  0
  142.1666   78.6518  219.1493 H   0  0  0  0  0  0  0  0  0  0  0  0
  140.5462   77.8391  218.9510 H   0  0  0  0  0  0  0  0  0  0  0  0
  139.9162   78.3029  222.8714 H   0  0  0  0  0  0  0  0  0  0  0  0
  140.9967   78.8287  225.0434 H   0  0  0  0  0  0  0  0  0  0  0  0
  143.0245   80.2671  225.1286 H   0  0  0  0  0  0  0  0  0  0  0  0
  143.9594   81.1786  223.0064 H   0  0  0  0  0  0  0  0  0  0  0  0
  142.8829   80.6512  220.8543 H   0  0  0  0  0  0  0  0  0  0  0  0
  139.2978   70.2285  222.2479 H   0  0  0  0  0  0  0  0  0  0  0  0
  139.2950   68.4962  224.0238 H   0  0  0  0  0  0  0  0  0  0  0  0
  139.7800   67.9054  226.3005 H   0  0  0  0  0  0  0  0  0  0  0  0
  141.4429   70.8735  228.9753 H   0  0  0  0  0  0  0  0  0  0  0  0
  141.4116   72.5482  227.1376 H   0  0  0  0  0  0  0  0  0  0  0  0
  1  2  2  0
  2  3  1  0
  3  4  1  0
  4  5  1  0
  5  6  2  0
  5  7  1  0
  7  8  1  0
  8  9  1  0
  9 10  1  0
 10 11  1  0
 11 12  1  0
 12 13  1  0
 13 14  1  0
 14 15  2  0
 15 16  1  0
 16 17  2  0
 17 18  1  0
 18 19  2  0
  2 20  1  0
 20 21  2  0
 21 22  1  0
 22 23  2  0
 23 24  1  0
 24 25  2  0
 25 26  1  0
 25 27  1  0
 27 28  2  0
 28 29  1  0
 29 30  2  0
 11  7  1  0
 19 14  1  0
 30 20  1  0
 29 23  1  0
  3 31  1  0
  4 32  1  0
  4 33  1  0
  8 34  1  0
  8 35  1  0
  9 36  1  0
  9 37  1  0
 10 38  1  0
 10 39  1  0
 11 40  1  1
 12 41  1  0
 12 42  1  0
 15 43  1  0
 16 44  1  0
 17 45  1  0
 18 46  1  0
 19 47  1  0
 21 48  1  0
 22 49  1  0
 24 50  1  0
 27 51  1  0
 28 52  1  0
M  END
>  <smiles>  (42) 
O=C(NCC(=O)N1CCC[C@H]1COc1ccccc1)c1ccc2cc(Cl)ccc2n1

>  <score_type>  (42) 
oracle

>  <origin>  (42) 
autodockgpu

>  <m_score__min__energy>  (42) 
-8.3900000000000006

>  <m_primary>  (42) 
energy

>  <rmsd>  (42) 
1.82768820683459

>  <m_score__min__rmsd>  (42) 
1.82768820683459

>  <meeko>  (42) 
{"free_energy": -8.39, "intermolecular_energy": -10.48, "internal_energy": -1.67, "cluster_size": 23, "cluster_id": 1, "rank_in_cluster": 1}

>  <energy>  (42) 
-7.85

>  <cluster_rmsd>  (42) 
0.0

>  <cluster>  (42) 
4

$$$$

     RDKit          3D

 52 55  0  0  0  0  0  0  0  0999 V2000
  138.9560   71.7640  221.0060 O   0  0  0  0  0  0  0  0  0  0  0  0
  138.5410   71.9910  222.1720 C   0  0  0  0  0  0  0  0  0  0  0  0
  137.6620   73.1140  222.3270 N   0  0  0  0  0  0  0  0  0  0  0  0
  137.3490   73.8620  221.1270 C   0  0  0  0  0  0  0  0  0  0  0  0
  138.0040   75.1870  221.1050 C   0  0  0  0  0  0  0  0  0  0  0  0
  137.4290   76.2570  221.4410 O   0  0  0  0  0  0  0  0  0  0  0  0
  139.3600   75.2420  220.6770 N   0  0  0  0  0  0  0  0  0  0  0  0
  139.8830   75.6070  219.3590 C   0  0  0  0  0  0  0  0  0  0  0  0
  140.9150   74.5260  219.1420 C   0  0  0  0  0  0  0  0  0  0  0  0
  141.5810   74.4440  220.4980 C   0  0  0  0  0  0  0  0  0  0  0  0
  140.5370   74.9440  221.4680 C   0  0  1  0  0  0  0  0  0  0  0  0
  141.0880   76.2020  222.1110 C   0  0  0  0  0  0  0  0  0  0  0  0
  140.0920   77.0440  222.6100 O   0  0  0  0  0  0  0  0  0  0  0  0
  140.4530   78.3280  223.0070 C   0  0  0  0  0  0  0  0  0  0  0  0
  141.7780   78.6400  223.2840 C   0  0  0  0  0  0  0  0  0  0  0  0
  142.1460   79.9260  223.6830 C   0  0  0  0  0  0  0  0  0  0  0  0
  141.1970   80.9230  223.8090 C   0  0  0  0  0  0  0  0  0  0  0  0
  139.8750   80.6270  223.5360 C   0  0  0  0  0  0  0  0  0  0  0  0
  139.5210   79.3490  223.1420 C   0  0  0  0  0  0  0  0  0  0  0  0
  138.9190   71.1720  223.3190 C   0  0  0  0  0  0  0  0  0  0  0  0
  138.5070   69.8550  223.3280 C   0  0  0  0  0  0  0  0  0  0  0  0
  138.8050   68.9900  224.3570 C   0  0  0  0  0  0  0  0  0  0  0  0
  139.5560   69.5020  225.4160 C   0  0  0  0  0  0  0  0  0  0  0  0
  139.8700   68.6600  226.4630 C   0  0  0  0  0  0  0  0  0  0  0  0
  140.6130   69.1800  227.5050 C   0  0  0  0  0  0  0  0  0  0  0  0
  141.0460   68.1590  228.8640 Cl  0  0  0  0  0  0  0  0  0  0  0  0
  141.0370   70.5070  227.5100 C   0  0  0  0  0  0  0  0  0  0  0  0
  140.7040   71.3230  226.4450 C   0  0  0  0  0  0  0  0  0  0  0  0
  139.9680   70.8330  225.3990 C   0  0  0  0  0  0  0  0  0  0  0  0
  139.6430   71.6450  224.3530 N   0  0  0  0  0  0  0  0  0  0  0  0
  137.2810   73.3570  223.2730 H   0  0  0  0  0  0  0  0  0  0  0  0
  137.6867   73.2859  220.2529 H   0  0  0  0  0  0  0  0  0  0  0  0
  136.2612   74.0240  221.1056 H   0  0  0  0  0  0  0  0  0  0  0  0
  139.0969   75.5738  218.5902 H   0  0  0  0  0  0  0  0  0  0  0  0
  140.2823   76.6302  219.2998 H   0  0  0  0  0  0  0  0  0  0  0  0
  140.4413   73.5707  218.8718 H   0  0  0  0  0  0  0  0  0  0  0  0
  141.6129   74.7403  218.3192 H   0  0  0  0  0  0  0  0  0  0  0  0
  141.8612   73.4060  220.7305 H   0  0  0  0  0  0  0  0  0  0  0  0
  142.5080   75.0344  220.5430 H   0  0  0  0  0  0  0  0  0  0  0  0
  140.2871   74.2181  222.2558 H   0  0  0  0  0  0  0  0  0  0  0  0
  141.7482   75.9104  222.9412 H   0  0  0  0  0  0  0  0  0  0  0  0
  141.6280   76.7592  221.3313 H   0  0  0  0  0  0  0  0  0  0  0  0
  142.5492   77.8616  223.1874 H   0  0  0  0  0  0  0  0  0  0  0  0
  143.2014   80.1481  223.8992 H   0  0  0  0  0  0  0  0  0  0  0  0
  141.4895   81.9362  224.1217 H   0  0  0  0  0  0  0  0  0  0  0  0
  139.1050   81.4067  223.6319 H   0  0  0  0  0  0  0  0  0  0  0  0
  138.4637   79.1337  222.9280 H   0  0  0  0  0  0  0  0  0  0  0  0
  137.9165   69.4810  222.4786 H   0  0  0  0  0  0  0  0  0  0  0  0
  138.4666   67.9434  224.3449 H   0  0  0  0  0  0  0  0  0  0  0  0
  139.5400   67.6107  226.4678 H   0  0  0  0  0  0  0  0  0  0  0  0
  141.6287   70.9001  228.3499 H   0  0  0  0  0  0  0  0  0  0  0  0
  141.0323   72.3728  226.4376 H   0  0  0  0  0  0  0  0  0  0  0  0
  1  2  2  0
  2  3  1  0
  3  4  1  0
  4  5  1  0
  5  6  2  0
  5  7  1  0
  7  8  1  0
  8  9  1  0
  9 10  1  0
 10 11  1  0
 11 12  1  0
 12 13  1  0
 13 14  1  0
 14 15  2  0
 15 16  1  0
 16 17  2  0
 17 18  1  0
 18 19  2  0
  2 20  1  0
 20 21  2  0
 21 22  1  0
 22 23  2  0
 23 24  1  0
 24 25  2  0
 25 26  1  0
 25 27  1  0
 27 28  2  0
 28 29  1  0
 29 30  2  0
 11  7  1  0
 19 14  1  0
 30 20  1  0
 29 23  1  0
  3 31  1  0
  4 32  1  0
  4 33  1  0
  8 34  1  0
  8 35  1  0
  9 36  1  0
  9 37  1  0
 10 38  1  0
 10 39  1  0
 11 40  1  1
 12 41  1  0
 12 42  1  0
 15 43  1  0
 16 44  1  0
 17 45  1  0
 18 46  1  0
 19 47  1  0
 21 48  1  0
 22 49  1  0
 24 50  1  0
 27 51  1  0
 28 52  1  0
M  END
>  <smiles>  (43) 
O=C(NCC(=O)N1CCC[C@H]1COc1ccccc1)c1ccc2cc(Cl)ccc2n1

>  <score_type>  (43) 
oracle

>  <origin>  (43) 
autodockgpu

>  <m_score__min__energy>  (43) 
-8.3900000000000006

>  <m_primary>  (43) 
energy

>  <rmsd>  (43) 
1.8609138621137182

>  <m_score__min__rmsd>  (43) 
1.8609138621137182

>  <meeko>  (43) 
{"free_energy": -7.62, "intermolecular_energy": -9.71, "internal_energy": -1.72, "cluster_size": 23, "cluster_id": 1, "rank_in_cluster": 17}

>  <energy>  (43) 
-7.13

>  <cluster_rmsd>  (43) 
1.69

>  <cluster>  (43) 
4

$$$$

     RDKit          3D

 52 55  0  0  0  0  0  0  0  0999 V2000
  139.8210   74.0560  222.1290 O   0  0  0  0  0  0  0  0  0  0  0  0
  140.3420   72.9110  222.0850 C   0  0  0  0  0  0  0  0  0  0  0  0
  141.0300   72.5720  220.8730 N   0  0  0  0  0  0  0  0  0  0  0  0
  141.0480   73.5810  219.8340 C   0  0  0  0  0  0  0  0  0  0  0  0
  141.9250   74.7210  220.1730 C   0  0  0  0  0  0  0  0  0  0  0  0
  143.0010   74.6070  220.8200 O   0  0  0  0  0  0  0  0  0  0  0  0
  141.5210   76.0130  219.7370 N   0  0  0  0  0  0  0  0  0  0  0  0
  140.8410   76.3810  218.4920 C   0  0  0  0  0  0  0  0  0  0  0  0
  141.6330   77.5960  218.0730 C   0  0  0  0  0  0  0  0  0  0  0  0
  141.8010   78.3360  219.3810 C   0  0  0  0  0  0  0  0  0  0  0  0
  141.6950   77.2670  220.4430 C   0  0  1  0  0  0  0  0  0  0  0  0
  140.4750   77.5870  221.2840 C   0  0  0  0  0  0  0  0  0  0  0  0
  140.7730   77.7640  222.6360 O   0  0  0  0  0  0  0  0  0  0  0  0
  141.2510   79.0050  223.0480 C   0  0  0  0  0  0  0  0  0  0  0  0
  140.3750   80.0120  223.4330 C   0  0  0  0  0  0  0  0  0  0  0  0
  140.8490   81.2580  223.8470 C   0  0  0  0  0  0  0  0  0  0  0  0
  142.2070   81.5190  223.8840 C   0  0  0  0  0  0  0  0  0  0  0  0
  143.0890   80.5260  223.5030 C   0  0  0  0  0  0  0  0  0  0  0  0
  142.6100   79.2950  223.0950 C   0  0  0  0  0  0  0  0  0  0  0  0
  140.2660   71.9650  223.1930 C   0  0  0  0  0  0  0  0  0  0  0  0
  139.7160   70.7250  222.9380 C   0  0  0  0  0  0  0  0  0  0  0  0
  139.5930   69.7540  223.9070 C   0  0  0  0  0  0  0  0  0  0  0  0
  140.0540   70.0720  225.1840 C   0  0  0  0  0  0  0  0  0  0  0  0
  139.9430   69.1190  226.1770 C   0  0  0  0  0  0  0  0  0  0  0  0
  140.4020   69.4490  227.4370 C   0  0  0  0  0  0  0  0  0  0  0  0
  140.2920   68.2810  228.7400 Cl  0  0  0  0  0  0  0  0  0  0  0  0
  140.9600   70.6960  227.7100 C   0  0  0  0  0  0  0  0  0  0  0  0
  141.0550   71.6270  226.6930 C   0  0  0  0  0  0  0  0  0  0  0  0
  140.6070   71.3270  225.4330 C   0  0  0  0  0  0  0  0  0  0  0  0
  140.7030   72.2510  224.4350 N   0  0  0  0  0  0  0  0  0  0  0  0
  141.4860   71.6330  220.7720 H   0  0  0  0  0  0  0  0  0  0  0  0
  141.4091   73.1221  218.9018 H   0  0  0  0  0  0  0  0  0  0  0  0
  140.0239   73.9665  219.7222 H   0  0  0  0  0  0  0  0  0  0  0  0
  140.9086   75.5780  217.7433 H   0  0  0  0  0  0  0  0  0  0  0  0
  139.7618   76.5622  218.6037 H   0  0  0  0  0  0  0  0  0  0  0  0
  142.6068   77.3102  217.6488 H   0  0  0  0  0  0  0  0  0  0  0  0
  141.1440   78.1923  217.2885 H   0  0  0  0  0  0  0  0  0  0  0  0
  142.7831   78.8295  219.4241 H   0  0  0  0  0  0  0  0  0  0  0  0
  141.0483   79.1276  219.5109 H   0  0  0  0  0  0  0  0  0  0  0  0
  142.5767   77.2116  221.0984 H   0  0  0  0  0  0  0  0  0  0  0  0
  140.0193   78.5124  220.9019 H   0  0  0  0  0  0  0  0  0  0  0  0
  139.7905   76.7292  221.2086 H   0  0  0  0  0  0  0  0  0  0  0  0
  139.2913   79.8247  223.4113 H   0  0  0  0  0  0  0  0  0  0  0  0
  140.1357   82.0399  224.1467 H   0  0  0  0  0  0  0  0  0  0  0  0
  142.5787   82.5012  224.2114 H   0  0  0  0  0  0  0  0  0  0  0  0
  144.1724   80.7150  223.5243 H   0  0  0  0  0  0  0  0  0  0  0  0
  143.3292   78.5178  222.7971 H   0  0  0  0  0  0  0  0  0  0  0  0
  139.3618   70.5035  221.9204 H   0  0  0  0  0  0  0  0  0  0  0  0
  139.1510   68.7718  223.6836 H   0  0  0  0  0  0  0  0  0  0  0  0
  139.5043   68.1314  225.9716 H   0  0  0  0  0  0  0  0  0  0  0  0
  141.3201   70.9363  228.7212 H   0  0  0  0  0  0  0  0  0  0  0  0
  141.4931   72.6153  226.8962 H   0  0  0  0  0  0  0  0  0  0  0  0
  1  2  2  0
  2  3  1  0
  3  4  1  0
  4  5  1  0
  5  6  2  0
  5  7  1  0
  7  8  1  0
  8  9  1  0
  9 10  1  0
 10 11  1  0
 11 12  1  0
 12 13  1  0
 13 14  1  0
 14 15  2  0
 15 16  1  0
 16 17  2  0
 17 18  1  0
 18 19  2  0
  2 20  1  0
 20 21  2  0
 21 22  1  0
 22 23  2  0
 23 24  1  0
 24 25  2  0
 25 26  1  0
 25 27  1  0
 27 28  2  0
 28 29  1  0
 29 30  2  0
 11  7  1  0
 19 14  1  0
 30 20  1  0
 29 23  1  0
  3 31  1  0
  4 32  1  0
  4 33  1  0
  8 34  1  0
  8 35  1  0
  9 36  1  0
  9 37  1  0
 10 38  1  0
 10 39  1  0
 11 40  1  1
 12 41  1  0
 12 42  1  0
 15 43  1  0
 16 44  1  0
 17 45  1  0
 18 46  1  0
 19 47  1  0
 21 48  1  0
 22 49  1  0
 24 50  1  0
 27 51  1  0
 28 52  1  0
M  END
>  <smiles>  (44) 
O=C(NCC(=O)N1CCC[C@H]1COc1ccccc1)c1ccc2cc(Cl)ccc2n1

>  <score_type>  (44) 
oracle

>  <origin>  (44) 
autodockgpu

>  <m_score__min__energy>  (44) 
-8.3900000000000006

>  <m_primary>  (44) 
energy

>  <rmsd>  (44) 
2.1025589727648626

>  <m_score__min__rmsd>  (44) 
2.1025589727648626

>  <meeko>  (44) 
{"free_energy": -8.28, "intermolecular_energy": -10.37, "internal_energy": -1.42, "cluster_size": 23, "cluster_id": 1, "rank_in_cluster": 2}

>  <energy>  (44) 
-6.93

>  <cluster_rmsd>  (44) 
0.0

>  <cluster>  (44) 
5

$$$$

     RDKit          3D

 52 55  0  0  0  0  0  0  0  0999 V2000
  136.7900   71.0710  221.4020 O   0  0  0  0  0  0  0  0  0  0  0  0
  137.5420   71.6440  222.2320 C   0  0  0  0  0  0  0  0  0  0  0  0
  137.8050   73.0340  221.9980 N   0  0  0  0  0  0  0  0  0  0  0  0
  137.1770   73.6260  220.8350 C   0  0  0  0  0  0  0  0  0  0  0  0
  137.8410   74.8770  220.4130 C   0  0  0  0  0  0  0  0  0  0  0  0
  138.0940   75.1650  219.2120 O   0  0  0  0  0  0  0  0  0  0  0  0
  138.2090   75.8000  221.4320 N   0  0  0  0  0  0  0  0  0  0  0  0
  137.5170   76.0900  222.6900 C   0  0  0  0  0  0  0  0  0  0  0  0
  137.5660   77.5980  222.7120 C   0  0  0  0  0  0  0  0  0  0  0  0
  138.9810   77.8790  222.2580 C   0  0  0  0  0  0  0  0  0  0  0  0
  139.3710   76.6670  221.4450 C   0  0  1  0  0  0  0  0  0  0  0  0
  140.5320   76.0030  222.1580 C   0  0  0  0  0  0  0  0  0  0  0  0
  140.3530   74.6290  222.3340 O   0  0  0  0  0  0  0  0  0  0  0  0
  141.1680   73.7610  221.6120 C   0  0  0  0  0  0  0  0  0  0  0  0
  140.9490   72.3900  221.6430 C   0  0  0  0  0  0  0  0  0  0  0  0
  141.7620   71.5150  220.9210 C   0  0  0  0  0  0  0  0  0  0  0  0
  142.8080   71.9960  220.1540 C   0  0  0  0  0  0  0  0  0  0  0  0
  143.0370   73.3580  220.1140 C   0  0  0  0  0  0  0  0  0  0  0  0
  142.2250   74.2160  220.8340 C   0  0  0  0  0  0  0  0  0  0  0  0
  138.1270   70.9530  223.3770 C   0  0  0  0  0  0  0  0  0  0  0  0
  137.6790   69.6780  223.6520 C   0  0  0  0  0  0  0  0  0  0  0  0
  138.1590   68.9320  224.7050 C   0  0  0  0  0  0  0  0  0  0  0  0
  139.1380   69.5230  225.5040 C   0  0  0  0  0  0  0  0  0  0  0  0
  139.6380   68.8010  226.5690 C   0  0  0  0  0  0  0  0  0  0  0  0
  140.6060   69.4000  227.3520 C   0  0  0  0  0  0  0  0  0  0  0  0
  141.2830   68.5330  228.7180 Cl  0  0  0  0  0  0  0  0  0  0  0  0
  141.0690   70.6870  227.0880 C   0  0  0  0  0  0  0  0  0  0  0  0
  140.5460   71.3820  226.0130 C   0  0  0  0  0  0  0  0  0  0  0  0
  139.5840   70.8120  225.2200 C   0  0  0  0  0  0  0  0  0  0  0  0
  139.0730   71.5050  224.1630 N   0  0  0  0  0  0  0  0  0  0  0  0
  138.4250   73.5700  222.6530 H   0  0  0  0  0  0  0  0  0  0  0  0
  137.2201   72.9056  220.0049 H   0  0  0  0  0  0  0  0  0  0  0  0
  136.1384   73.8707  221.1022 H   0  0  0  0  0  0  0  0  0  0  0  0
  136.4810   75.7207  222.6743 H   0  0  0  0  0  0  0  0  0  0  0  0
  137.9662   75.6112  223.5726 H   0  0  0  0  0  0  0  0  0  0  0  0
  136.8310   78.0310  222.0175 H   0  0  0  0  0  0  0  0  0  0  0  0
  137.3225   78.0332  223.6925 H   0  0  0  0  0  0  0  0  0  0  0  0
  139.0167   78.7884  221.6401 H   0  0  0  0  0  0  0  0  0  0  0  0
  139.6632   78.0497  223.1038 H   0  0  0  0  0  0  0  0  0  0  0  0
  139.6735   76.9078  220.4152 H   0  0  0  0  0  0  0  0  0  0  0  0
  141.4449   76.1642  221.5659 H   0  0  0  0  0  0  0  0  0  0  0  0
  140.6048   76.4552  223.1581 H   0  0  0  0  0  0  0  0  0  0  0  0
  140.1218   71.9874  222.2461 H   0  0  0  0  0  0  0  0  0  0  0  0
  141.5692   70.4328  220.9622 H   0  0  0  0  0  0  0  0  0  0  0  0
  143.4473   71.3050  219.5850 H   0  0  0  0  0  0  0  0  0  0  0  0
  143.8641   73.7597  219.5103 H   0  0  0  0  0  0  0  0  0  0  0  0
  142.4235   75.2970  220.7888 H   0  0  0  0  0  0  0  0  0  0  0  0
  136.9065   69.2390  223.0035 H   0  0  0  0  0  0  0  0  0  0  0  0
  137.7875   67.9165  224.9070 H   0  0  0  0  0  0  0  0  0  0  0  0
  139.2784   67.7845  226.7866 H   0  0  0  0  0  0  0  0  0  0  0  0
  141.8399   71.1441  227.7258 H   0  0  0  0  0  0  0  0  0  0  0  0
  140.9041   72.3985  225.7928 H   0  0  0  0  0  0  0  0  0  0  0  0
  1  2  2  0
  2  3  1  0
  3  4  1  0
  4  5  1  0
  5  6  2  0
  5  7  1  0
  7  8  1  0
  8  9  1  0
  9 10  1  0
 10 11  1  0
 11 12  1  0
 12 13  1  0
 13 14  1  0
 14 15  2  0
 15 16  1  0
 16 17  2  0
 17 18  1  0
 18 19  2  0
  2 20  1  0
 20 21  2  0
 21 22  1  0
 22 23  2  0
 23 24  1  0
 24 25  2  0
 25 26  1  0
 25 27  1  0
 27 28  2  0
 28 29  1  0
 29 30  2  0
 11  7  1  0
 19 14  1  0
 30 20  1  0
 29 23  1  0
  3 31  1  0
  4 32  1  0
  4 33  1  0
  8 34  1  0
  8 35  1  0
  9 36  1  0
  9 37  1  0
 10 38  1  0
 10 39  1  0
 11 40  1  6
 12 41  1  0
 12 42  1  0
 15 43  1  0
 16 44  1  0
 17 45  1  0
 18 46  1  0
 19 47  1  0
 21 48  1  0
 22 49  1  0
 24 50  1  0
 27 51  1  0
 28 52  1  0
M  END
>  <smiles>  (45) 
O=C(NCC(=O)N1CCC[C@H]1COc1ccccc1)c1ccc2cc(Cl)ccc2n1

>  <score_type>  (45) 
oracle

>  <origin>  (45) 
autodockgpu

>  <m_score__min__energy>  (45) 
-8.3900000000000006

>  <m_primary>  (45) 
energy

>  <rmsd>  (45) 
2.7944925334673028

>  <m_score__min__rmsd>  (45) 
2.7944925334673028

>  <meeko>  (45) 
{"free_energy": -6.74, "intermolecular_energy": -8.83, "internal_energy": -3.16, "cluster_size": 9, "cluster_id": 2, "rank_in_cluster": 9}

>  <energy>  (45) 
-6.84

>  <cluster_rmsd>  (45) 
0.38

>  <cluster>  (45) 
5

$$$$

     RDKit          3D

 52 55  0  0  0  0  0  0  0  0999 V2000
  138.1710   70.7180  221.3410 O   0  0  0  0  0  0  0  0  0  0  0  0
  138.5530   71.4970  222.2530 C   0  0  0  0  0  0  0  0  0  0  0  0
  138.3460   72.8970  222.0210 N   0  0  0  0  0  0  0  0  0  0  0  0
  137.7220   73.2610  220.7660 C   0  0  0  0  0  0  0  0  0  0  0  0
  138.6480   73.1350  219.6210 C   0  0  0  0  0  0  0  0  0  0  0  0
  138.4280   72.3990  218.6210 O   0  0  0  0  0  0  0  0  0  0  0  0
  139.8520   73.8930  219.6640 N   0  0  0  0  0  0  0  0  0  0  0  0
  140.1860   75.1120  218.9240 C   0  0  0  0  0  0  0  0  0  0  0  0
  141.5890   74.8000  218.4610 C   0  0  0  0  0  0  0  0  0  0  0  0
  142.2020   74.1760  219.6940 C   0  0  0  0  0  0  0  0  0  0  0  0
  141.0290   73.6170  220.4640 C   0  0  1  0  0  0  0  0  0  0  0  0
  140.9670   74.3550  221.7870 C   0  0  0  0  0  0  0  0  0  0  0  0
  139.7800   75.0690  221.9610 O   0  0  0  0  0  0  0  0  0  0  0  0
  139.8660   76.4130  222.3130 C   0  0  0  0  0  0  0  0  0  0  0  0
  141.0990   77.0470  222.4040 C   0  0  0  0  0  0  0  0  0  0  0  0
  141.1910   78.3940  222.7570 C   0  0  0  0  0  0  0  0  0  0  0  0
  140.0530   79.1320  223.0240 C   0  0  0  0  0  0  0  0  0  0  0  0
  138.8190   78.5140  222.9370 C   0  0  0  0  0  0  0  0  0  0  0  0
  138.7390   77.1790  222.5870 C   0  0  0  0  0  0  0  0  0  0  0  0
  139.1750   71.0250  223.4870 C   0  0  0  0  0  0  0  0  0  0  0  0
  140.1350   71.8280  224.0660 C   0  0  0  0  0  0  0  0  0  0  0  0
  140.7880   71.4850  225.2290 C   0  0  0  0  0  0  0  0  0  0  0  0
  140.4360   70.2690  225.8160 C   0  0  0  0  0  0  0  0  0  0  0  0
  141.0730   69.8960  226.9830 C   0  0  0  0  0  0  0  0  0  0  0  0
  140.7150   68.6900  227.5530 C   0  0  0  0  0  0  0  0  0  0  0  0
  141.4860   68.1620  229.0360 Cl  0  0  0  0  0  0  0  0  0  0  0  0
  139.7460   67.8690  226.9800 C   0  0  0  0  0  0  0  0  0  0  0  0
  139.1280   68.2730  225.8110 C   0  0  0  0  0  0  0  0  0  0  0  0
  139.4640   69.4650  225.2240 C   0  0  0  0  0  0  0  0  0  0  0  0
  138.8510   69.8550  224.0710 N   0  0  0  0  0  0  0  0  0  0  0  0
  138.6420   73.5990  222.7420 H   0  0  0  0  0  0  0  0  0  0  0  0
  136.8581   72.6016  220.5963 H   0  0  0  0  0  0  0  0  0  0  0  0
  137.4156   74.3151  220.8362 H   0  0  0  0  0  0  0  0  0  0  0  0
  139.5059   75.2661  218.0733 H   0  0  0  0  0  0  0  0  0  0  0  0
  140.1009   76.0360  219.5148 H   0  0  0  0  0  0  0  0  0  0  0  0
  141.5827   74.0936  217.6178 H   0  0  0  0  0  0  0  0  0  0  0  0
  142.1377   75.6792  218.0923 H   0  0  0  0  0  0  0  0  0  0  0  0
  142.9014   73.3738  219.4160 H   0  0  0  0  0  0  0  0  0  0  0  0
  142.7797   74.9022  220.2847 H   0  0  0  0  0  0  0  0  0  0  0  0
  141.1076   72.5373  220.6589 H   0  0  0  0  0  0  0  0  0  0  0  0
  141.0568   73.6213  222.6016 H   0  0  0  0  0  0  0  0  0  0  0  0
  141.7917   75.0829  221.7954 H   0  0  0  0  0  0  0  0  0  0  0  0
  142.0170   76.4783  222.1945 H   0  0  0  0  0  0  0  0  0  0  0  0
  142.1789   78.8733  222.8235 H   0  0  0  0  0  0  0  0  0  0  0  0
  140.1279   80.1939  223.3012 H   0  0  0  0  0  0  0  0  0  0  0  0
  137.9018   79.0842  223.1461 H   0  0  0  0  0  0  0  0  0  0  0  0
  137.7479   76.7060  222.5231 H   0  0  0  0  0  0  0  0  0  0  0  0
  140.3895   72.7811  223.5792 H   0  0  0  0  0  0  0  0  0  0  0  0
  141.5517   72.1394  225.6746 H   0  0  0  0  0  0  0  0  0  0  0  0
  141.8393   70.5374  227.4429 H   0  0  0  0  0  0  0  0  0  0  0  0
  139.4763   66.9124  227.4513 H   0  0  0  0  0  0  0  0  0  0  0  0
  138.3615   67.6334  225.3490 H   0  0  0  0  0  0  0  0  0  0  0  0
  1  2  2  0
  2  3  1  0
  3  4  1  0
  4  5  1  0
  5  6  2  0
  5  7  1  0
  7  8  1  0
  8  9  1  0
  9 10  1  0
 10 11  1  0
 11 12  1  0
 12 13  1  0
 13 14  1  0
 14 15  2  0
 15 16  1  0
 16 17  2  0
 17 18  1  0
 18 19  2  0
  2 20  1  0
 20 21  2  0
 21 22  1  0
 22 23  2  0
 23 24  1  0
 24 25  2  0
 25 26  1  0
 25 27  1  0
 27 28  2  0
 28 29  1  0
 29 30  2  0
 11  7  1  0
 19 14  1  0
 30 20  1  0
 29 23  1  0
  3 31  1  0
  4 32  1  0
  4 33  1  0
  8 34  1  0
  8 35  1  0
  9 36  1  0
  9 37  1  0
 10 38  1  0
 10 39  1  0
 11 40  1  1
 12 41  1  0
 12 42  1  0
 15 43  1  0
 16 44  1  0
 17 45  1  0
 18 46  1  0
 19 47  1  0
 21 48  1  0
 22 49  1  0
 24 50  1  0
 27 51  1  0
 28 52  1  0
M  END
>  <smiles>  (46) 
O=C(NCC(=O)N1CCC[C@H]1COc1ccccc1)c1ccc2cc(Cl)ccc2n1

>  <score_type>  (46) 
oracle

>  <origin>  (46) 
autodockgpu

>  <m_score__min__energy>  (46) 
-8.3900000000000006

>  <m_primary>  (46) 
energy

>  <rmsd>  (46) 
2.932740243106264

>  <m_score__min__rmsd>  (46) 
2.932740243106264

>  <meeko>  (46) 
{"free_energy": -6.89, "intermolecular_energy": -8.98, "internal_energy": -2.58, "cluster_size": 23, "cluster_id": 1, "rank_in_cluster": 22}

>  <energy>  (46) 
-6.48

>  <cluster_rmsd>  (46) 
1.81

>  <cluster>  (46) 
5

$$$$

     RDKit          3D

 52 55  0  0  0  0  0  0  0  0999 V2000
  138.7250   71.5840  220.7260 O   0  0  0  0  0  0  0  0  0  0  0  0
  138.8710   72.0770  221.8750 C   0  0  0  0  0  0  0  0  0  0  0  0
  138.6850   73.4950  221.9870 N   0  0  0  0  0  0  0  0  0  0  0  0
  138.3520   74.2030  220.7680 C   0  0  0  0  0  0  0  0  0  0  0  0
  139.5400   74.4670  219.9300 C   0  0  0  0  0  0  0  0  0  0  0  0
  140.0050   73.6440  219.0960 O   0  0  0  0  0  0  0  0  0  0  0  0
  140.1850   75.7260  220.0840 N   0  0  0  0  0  0  0  0  0  0  0  0
  140.0130   76.9400  219.2820 C   0  0  0  0  0  0  0  0  0  0  0  0
  141.4480   77.3670  219.0840 C   0  0  0  0  0  0  0  0  0  0  0  0
  142.0400   77.1480  220.4580 C   0  0  0  0  0  0  0  0  0  0  0  0
  141.1690   76.0860  221.0860 C   0  0  1  0  0  0  0  0  0  0  0  0
  140.5030   76.7090  222.2970 C   0  0  0  0  0  0  0  0  0  0  0  0
  141.4120   77.2930  223.1820 O   0  0  0  0  0  0  0  0  0  0  0  0
  141.4640   78.6830  223.2490 C   0  0  0  0  0  0  0  0  0  0  0  0
  142.6670   79.3580  223.0850 C   0  0  0  0  0  0  0  0  0  0  0  0
  142.7250   80.7510  223.1520 C   0  0  0  0  0  0  0  0  0  0  0  0
  141.5810   81.4940  223.3820 C   0  0  0  0  0  0  0  0  0  0  0  0
  140.3770   80.8350  223.5470 C   0  0  0  0  0  0  0  0  0  0  0  0
  140.3310   79.4540  223.4790 C   0  0  0  0  0  0  0  0  0  0  0  0
  139.2090   71.2710  223.0440 C   0  0  0  0  0  0  0  0  0  0  0  0
  138.8720   69.9330  223.0170 C   0  0  0  0  0  0  0  0  0  0  0  0
  139.1420   69.0780  224.0630 C   0  0  0  0  0  0  0  0  0  0  0  0
  139.7830   69.6230  225.1750 C   0  0  0  0  0  0  0  0  0  0  0  0
  140.0670   68.7910  226.2400 C   0  0  0  0  0  0  0  0  0  0  0  0
  140.7010   69.3440  227.3360 C   0  0  0  0  0  0  0  0  0  0  0  0
  141.0900   68.3380  228.7190 Cl  0  0  0  0  0  0  0  0  0  0  0  0
  141.0480   70.6920  227.3770 C   0  0  0  0  0  0  0  0  0  0  0  0
  140.7490   71.4970  226.2930 C   0  0  0  0  0  0  0  0  0  0  0  0
  140.1200   70.9750  225.1940 C   0  0  0  0  0  0  0  0  0  0  0  0
  139.8280   71.7750  224.1300 N   0  0  0  0  0  0  0  0  0  0  0  0
  138.7920   73.9680  222.9170 H   0  0  0  0  0  0  0  0  0  0  0  0
  137.6393   73.5963  220.1901 H   0  0  0  0  0  0  0  0  0  0  0  0
  137.9174   75.1732  221.0506 H   0  0  0  0  0  0  0  0  0  0  0  0
  139.5211   76.7228  218.3224 H   0  0  0  0  0  0  0  0  0  0  0  0
  139.3754   77.7040  219.7508 H   0  0  0  0  0  0  0  0  0  0  0  0
  141.9493   76.7426  218.3298 H   0  0  0  0  0  0  0  0  0  0  0  0
  141.5547   78.3984  218.7169 H   0  0  0  0  0  0  0  0  0  0  0  0
  143.0808   76.8005  220.3810 H   0  0  0  0  0  0  0  0  0  0  0  0
  142.0633   78.0727  221.0533 H   0  0  0  0  0  0  0  0  0  0  0  0
  141.7273   75.1931  221.4038 H   0  0  0  0  0  0  0  0  0  0  0  0
  139.8032   77.4843  221.9516 H   0  0  0  0  0  0  0  0  0  0  0  0
  139.9886   75.9023  222.8398 H   0  0  0  0  0  0  0  0  0  0  0  0
  143.5881   78.7859  222.8995 H   0  0  0  0  0  0  0  0  0  0  0  0
  143.6897   81.2629  223.0206 H   0  0  0  0  0  0  0  0  0  0  0  0
  141.6286   82.5918  223.4328 H   0  0  0  0  0  0  0  0  0  0  0  0
  139.4565   81.4081  223.7322 H   0  0  0  0  0  0  0  0  0  0  0  0
  139.3632   78.9483  223.6117 H   0  0  0  0  0  0  0  0  0  0  0  0
  138.3677   69.5333  222.1248 H   0  0  0  0  0  0  0  0  0  0  0  0
  138.8647   68.0143  224.0228 H   0  0  0  0  0  0  0  0  0  0  0  0
  139.7977   67.7247  226.2166 H   0  0  0  0  0  0  0  0  0  0  0  0
  141.5532   71.1109  228.2598 H   0  0  0  0  0  0  0  0  0  0  0  0
  141.0180   72.5634  226.3135 H   0  0  0  0  0  0  0  0  0  0  0  0
  1  2  2  0
  2  3  1  0
  3  4  1  0
  4  5  1  0
  5  6  2  0
  5  7  1  0
  7  8  1  0
  8  9  1  0
  9 10  1  0
 10 11  1  0
 11 12  1  0
 12 13  1  0
 13 14  1  0
 14 15  2  0
 15 16  1  0
 16 17  2  0
 17 18  1  0
 18 19  2  0
  2 20  1  0
 20 21  2  0
 21 22  1  0
 22 23  2  0
 23 24  1  0
 24 25  2  0
 25 26  1  0
 25 27  1  0
 27 28  2  0
 28 29  1  0
 29 30  2  0
 11  7  1  0
 19 14  1  0
 30 20  1  0
 29 23  1  0
  3 31  1  0
  4 32  1  0
  4 33  1  0
  8 34  1  0
  8 35  1  0
  9 36  1  0
  9 37  1  0
 10 38  1  0
 10 39  1  0
 11 40  1  1
 12 41  1  0
 12 42  1  0
 15 43  1  0
 16 44  1  0
 17 45  1  0
 18 46  1  0
 19 47  1  0
 21 48  1  0
 22 49  1  0
 24 50  1  0
 27 51  1  0
 28 52  1  0
M  END
>  <smiles>  (47) 
O=C(NCC(=O)N1CCC[C@H]1COc1ccccc1)c1ccc2cc(Cl)ccc2n1

>  <score_type>  (47) 
oracle

>  <origin>  (47) 
autodockgpu

>  <m_score__min__energy>  (47) 
-8.3900000000000006

>  <m_primary>  (47) 
energy

>  <rmsd>  (47) 
1.6238462752470624

>  <m_score__min__rmsd>  (47) 
1.6238462752470624

>  <meeko>  (47) 
{"free_energy": -8.02, "intermolecular_energy": -10.11, "internal_energy": -1.52, "cluster_size": 23, "cluster_id": 1, "rank_in_cluster": 7}

>  <energy>  (47) 
-6.84

>  <cluster_rmsd>  (47) 
0.0

>  <cluster>  (47) 
6

$$$$

     RDKit          3D

 52 55  0  0  0  0  0  0  0  0999 V2000
  140.1820   72.2350  220.8030 O   0  0  0  0  0  0  0  0  0  0  0  0
  139.9220   72.5900  221.9830 C   0  0  0  0  0  0  0  0  0  0  0  0
  139.5350   73.9590  222.1640 N   0  0  0  0  0  0  0  0  0  0  0  0
  139.4870   74.7820  220.9720 C   0  0  0  0  0  0  0  0  0  0  0  0
  140.8150   75.3140  220.6040 C   0  0  0  0  0  0  0  0  0  0  0  0
  141.8900   74.9570  221.1570 O   0  0  0  0  0  0  0  0  0  0  0  0
  140.8680   76.2850  219.5650 N   0  0  0  0  0  0  0  0  0  0  0  0
  139.8220   76.6460  218.6050 C   0  0  0  0  0  0  0  0  0  0  0  0
  140.6110   76.7020  217.3180 C   0  0  0  0  0  0  0  0  0  0  0  0
  141.8710   77.4200  217.7460 C   0  0  0  0  0  0  0  0  0  0  0  0
  141.9870   77.1410  219.2260 C   0  0  1  0  0  0  0  0  0  0  0  0
  141.8840   78.4730  219.9430 C   0  0  0  0  0  0  0  0  0  0  0  0
  141.5160   78.3450  221.2840 O   0  0  0  0  0  0  0  0  0  0  0  0
  141.7400   79.4250  222.1340 C   0  0  0  0  0  0  0  0  0  0  0  0
  140.8990   80.5310  222.1170 C   0  0  0  0  0  0  0  0  0  0  0  0
  141.1190   81.6150  222.9660 C   0  0  0  0  0  0  0  0  0  0  0  0
  142.1840   81.6150  223.8490 C   0  0  0  0  0  0  0  0  0  0  0  0
  143.0290   80.5210  223.8770 C   0  0  0  0  0  0  0  0  0  0  0  0
  142.8020   79.4510  223.0310 C   0  0  0  0  0  0  0  0  0  0  0  0
  140.0020   71.6770  223.1190 C   0  0  0  0  0  0  0  0  0  0  0  0
  139.5480   70.3870  222.9360 C   0  0  0  0  0  0  0  0  0  0  0  0
  139.5750   69.4410  223.9360 C   0  0  0  0  0  0  0  0  0  0  0  0
  140.0890   69.8410  225.1710 C   0  0  0  0  0  0  0  0  0  0  0  0
  140.1280   68.9150  226.1940 C   0  0  0  0  0  0  0  0  0  0  0  0
  140.6380   69.3250  227.4110 C   0  0  0  0  0  0  0  0  0  0  0  0
  140.7170   68.1950  228.7500 Cl  0  0  0  0  0  0  0  0  0  0  0  0
  141.1000   70.6240  227.6110 C   0  0  0  0  0  0  0  0  0  0  0  0
  141.0460   71.5260  226.5640 C   0  0  0  0  0  0  0  0  0  0  0  0
  140.5440   71.1460  225.3460 C   0  0  0  0  0  0  0  0  0  0  0  0
  140.4930   72.0410  224.3200 N   0  0  0  0  0  0  0  0  0  0  0  0
  139.3050   74.3190  223.1210 H   0  0  0  0  0  0  0  0  0  0  0  0
  139.1058   74.1746  220.1379 H   0  0  0  0  0  0  0  0  0  0  0  0
  138.8277   75.6376  221.1802 H   0  0  0  0  0  0  0  0  0  0  0  0
  139.0334   75.8804  218.5613 H   0  0  0  0  0  0  0  0  0  0  0  0
  139.2882   77.5766  218.8479 H   0  0  0  0  0  0  0  0  0  0  0  0
  140.8351   75.6923  216.9434 H   0  0  0  0  0  0  0  0  0  0  0  0
  140.0776   77.1996  216.4946 H   0  0  0  0  0  0  0  0  0  0  0  0
  142.7448   77.0249  217.2071 H   0  0  0  0  0  0  0  0  0  0  0  0
  141.8310   78.4973  217.5273 H   0  0  0  0  0  0  0  0  0  0  0  0
  142.9323   76.6539  219.5074 H   0  0  0  0  0  0  0  0  0  0  0  0
  142.8623   78.9735  219.8944 H   0  0  0  0  0  0  0  0  0  0  0  0
  141.0982   79.0565  219.4409 H   0  0  0  0  0  0  0  0  0  0  0  0
  140.0461   80.5517  221.4227 H   0  0  0  0  0  0  0  0  0  0  0  0
  140.4389   82.4789  222.9334 H   0  0  0  0  0  0  0  0  0  0  0  0
  142.3557   82.4713  224.5178 H   0  0  0  0  0  0  0  0  0  0  0  0
  143.8815   80.5018  224.5719 H   0  0  0  0  0  0  0  0  0  0  0  0
  143.4857   78.5901  223.0690 H   0  0  0  0  0  0  0  0  0  0  0  0
  139.1483   70.1029  221.9514 H   0  0  0  0  0  0  0  0  0  0  0  0
  139.2085   68.4173  223.7696 H   0  0  0  0  0  0  0  0  0  0  0  0
  139.7659   67.8870  226.0456 H   0  0  0  0  0  0  0  0  0  0  0  0
  141.5024   70.9282  228.5885 H   0  0  0  0  0  0  0  0  0  0  0  0
  141.4080   72.5545  226.7093 H   0  0  0  0  0  0  0  0  0  0  0  0
  1  2  2  0
  2  3  1  0
  3  4  1  0
  4  5  1  0
  5  6  2  0
  5  7  1  0
  7  8  1  0
  8  9  1  0
  9 10  1  0
 10 11  1  0
 11 12  1  0
 12 13  1  0
 13 14  1  0
 14 15  2  0
 15 16  1  0
 16 17  2  0
 17 18  1  0
 18 19  2  0
  2 20  1  0
 20 21  2  0
 21 22  1  0
 22 23  2  0
 23 24  1  0
 24 25  2  0
 25 26  1  0
 25 27  1  0
 27 28  2  0
 28 29  1  0
 29 30  2  0
 11  7  1  0
 19 14  1  0
 30 20  1  0
 29 23  1  0
  3 31  1  0
  4 32  1  0
  4 33  1  0
  8 34  1  0
  8 35  1  0
  9 36  1  0
  9 37  1  0
 10 38  1  0
 10 39  1  0
 11 40  1  6
 12 41  1  0
 12 42  1  0
 15 43  1  0
 16 44  1  0
 17 45  1  0
 18 46  1  0
 19 47  1  0
 21 48  1  0
 22 49  1  0
 24 50  1  0
 27 51  1  0
 28 52  1  0
M  END
>  <smiles>  (48) 
O=C(NCC(=O)N1CCC[C@H]1COc1ccccc1)c1ccc2cc(Cl)ccc2n1

>  <score_type>  (48) 
oracle

>  <origin>  (48) 
autodockgpu

>  <m_score__min__energy>  (48) 
-8.3900000000000006

>  <m_primary>  (48) 
energy

>  <rmsd>  (48) 
1.4444962883708674

>  <m_score__min__rmsd>  (48) 
1.4444962883708674

>  <meeko>  (48) 
{"free_energy": -8.06, "intermolecular_energy": -10.15, "internal_energy": -1.44, "cluster_size": 23, "cluster_id": 1, "rank_in_cluster": 6}

>  <energy>  (48) 
-6.42

>  <cluster_rmsd>  (48) 
0.0

>  <cluster>  (48) 
7

$$$$

     RDKit          3D

 52 55  0  0  0  0  0  0  0  0999 V2000
  141.4980   72.4740  220.8590 O   0  0  0  0  0  0  0  0  0  0  0  0
  140.8920   73.3210  221.5670 C   0  0  0  0  0  0  0  0  0  0  0  0
  139.9860   72.7990  222.5480 N   0  0  0  0  0  0  0  0  0  0  0  0
  139.8650   71.3580  222.6160 C   0  0  0  0  0  0  0  0  0  0  0  0
  138.5620   70.8780  222.1100 C   0  0  0  0  0  0  0  0  0  0  0  0
  138.1180   71.1450  220.9610 O   0  0  0  0  0  0  0  0  0  0  0  0
  137.7770   70.0710  222.9790 N   0  0  0  0  0  0  0  0  0  0  0  0
  136.6400   69.2110  222.6420 C   0  0  0  0  0  0  0  0  0  0  0  0
  135.6660   69.5670  223.7400 C   0  0  0  0  0  0  0  0  0  0  0  0
  136.5610   69.6140  224.9580 C   0  0  0  0  0  0  0  0  0  0  0  0
  137.9350   69.9220  224.4120 C   0  0  1  0  0  0  0  0  0  0  0  0
  138.8230   68.7360  224.7360 C   0  0  0  0  0  0  0  0  0  0  0  0
  140.1420   69.1000  225.0160 O   0  0  0  0  0  0  0  0  0  0  0  0
  140.3690   70.0250  226.0300 C   0  0  0  0  0  0  0  0  0  0  0  0
  139.8430   69.8300  227.3010 C   0  0  0  0  0  0  0  0  0  0  0  0
  140.0670   70.7550  228.3220 C   0  0  0  0  0  0  0  0  0  0  0  0
  140.8220   71.8900  228.0920 C   0  0  0  0  0  0  0  0  0  0  0  0
  141.3520   72.0970  226.8320 C   0  0  0  0  0  0  0  0  0  0  0  0
  141.1230   71.1750  225.8270 C   0  0  0  0  0  0  0  0  0  0  0  0
  141.0860   74.7600  221.4160 C   0  0  0  0  0  0  0  0  0  0  0  0
  141.8960   75.1910  220.3860 C   0  0  0  0  0  0  0  0  0  0  0  0
  142.1500   76.5240  220.1490 C   0  0  0  0  0  0  0  0  0  0  0  0
  141.5460   77.4450  221.0050 C   0  0  0  0  0  0  0  0  0  0  0  0
  141.7820   78.7890  220.7930 C   0  0  0  0  0  0  0  0  0  0  0  0
  141.1780   79.6890  221.6490 C   0  0  0  0  0  0  0  0  0  0  0  0
  141.4370   81.4100  221.4310 Cl  0  0  0  0  0  0  0  0  0  0  0  0
  140.3570   79.2690  222.6930 C   0  0  0  0  0  0  0  0  0  0  0  0
  140.1420   77.9150  222.8770 C   0  0  0  0  0  0  0  0  0  0  0  0
  140.7290   77.0000  222.0430 C   0  0  0  0  0  0  0  0  0  0  0  0
  140.5130   75.6670  222.2310 N   0  0  0  0  0  0  0  0  0  0  0  0
  139.4500   73.4520  223.1690 H   0  0  0  0  0  0  0  0  0  0  0  0
  140.6663   70.9072  222.0121 H   0  0  0  0  0  0  0  0  0  0  0  0
  139.9434   71.0641  223.6731 H   0  0  0  0  0  0  0  0  0  0  0  0
  136.2331   69.4518  221.6488 H   0  0  0  0  0  0  0  0  0  0  0  0
  136.8853   68.1401  222.5863 H   0  0  0  0  0  0  0  0  0  0  0  0
  135.1943   70.5431  223.5537 H   0  0  0  0  0  0  0  0  0  0  0  0
  134.8289   68.8596  223.8342 H   0  0  0  0  0  0  0  0  0  0  0  0
  136.2328   70.4032  225.6504 H   0  0  0  0  0  0  0  0  0  0  0  0
  136.5403   68.6725  225.5264 H   0  0  0  0  0  0  0  0  0  0  0  0
  138.3816   70.8324  224.8383 H   0  0  0  0  0  0  0  0  0  0  0  0
  138.4089   68.2179  225.6135 H   0  0  0  0  0  0  0  0  0  0  0  0
  138.8429   68.0884  223.8471 H   0  0  0  0  0  0  0  0  0  0  0  0
  139.2406   68.9327  227.5059 H   0  0  0  0  0  0  0  0  0  0  0  0
  139.6385   70.5791  229.3197 H   0  0  0  0  0  0  0  0  0  0  0  0
  140.9982   72.6168  228.8986 H   0  0  0  0  0  0  0  0  0  0  0  0
  141.9553   72.9942  226.6291 H   0  0  0  0  0  0  0  0  0  0  0  0
  141.5530   71.3583  224.8312 H   0  0  0  0  0  0  0  0  0  0  0  0
  142.3575   74.4403  219.7276 H   0  0  0  0  0  0  0  0  0  0  0  0
  142.7996   76.8475  219.3223 H   0  0  0  0  0  0  0  0  0  0  0  0
  142.4284   79.1308  219.9712 H   0  0  0  0  0  0  0  0  0  0  0  0
  139.8860   80.0042  223.3621 H   0  0  0  0  0  0  0  0  0  0  0  0
  139.4958   77.5707  223.6979 H   0  0  0  0  0  0  0  0  0  0  0  0
  1  2  2  0
  2  3  1  0
  3  4  1  0
  4  5  1  0
  5  6  2  0
  5  7  1  0
  7  8  1  0
  8  9  1  0
  9 10  1  0
 10 11  1  0
 11 12  1  0
 12 13  1  0
 13 14  1  0
 14 15  2  0
 15 16  1  0
 16 17  2  0
 17 18  1  0
 18 19  2  0
  2 20  1  0
 20 21  2  0
 21 22  1  0
 22 23  2  0
 23 24  1  0
 24 25  2  0
 25 26  1  0
 25 27  1  0
 27 28  2  0
 28 29  1  0
 29 30  2  0
 11  7  1  0
 19 14  1  0
 30 20  1  0
 29 23  1  0
  3 31  1  0
  4 32  1  0
  4 33  1  0
  8 34  1  0
  8 35  1  0
  9 36  1  0
  9 37  1  0
 10 38  1  0
 10 39  1  0
 11 40  1  1
 12 41  1  0
 12 42  1  0
 15 43  1  0
 16 44  1  0
 17 45  1  0
 18 46  1  0
 19 47  1  0
 21 48  1  0
 22 49  1  0
 24 50  1  0
 27 51  1  0
 28 52  1  0
M  END
>  <smiles>  (49) 
O=C(NCC(=O)N1CCC[C@H]1COc1ccccc1)c1ccc2cc(Cl)ccc2n1

>  <score_type>  (49) 
oracle

>  <origin>  (49) 
autodockgpu

>  <m_score__min__energy>  (49) 
-8.3900000000000006

>  <m_primary>  (49) 
energy

>  <rmsd>  (49) 
8.24906865363068

>  <m_score__min__rmsd>  (49) 
8.24906865363068

>  <meeko>  (49) 
{"free_energy": -7.83, "intermolecular_energy": -9.92, "internal_energy": -1.79, "cluster_size": 9, "cluster_id": 3, "rank_in_cluster": 8}

>  <energy>  (49) 
-6.33

>  <cluster_rmsd>  (49) 
0.13

>  <cluster>  (49) 
7

$$$$

     RDKit          3D

 52 55  0  0  0  0  0  0  0  0999 V2000
  140.0470   73.1030  220.4870 O   0  0  0  0  0  0  0  0  0  0  0  0
  139.6110   73.9180  221.3410 C   0  0  0  0  0  0  0  0  0  0  0  0
  138.5760   73.4350  222.2090 N   0  0  0  0  0  0  0  0  0  0  0  0
  138.1460   72.0670  222.0070 C   0  0  0  0  0  0  0  0  0  0  0  0
  139.0780   71.0910  222.6090 C   0  0  0  0  0  0  0  0  0  0  0  0
  140.0620   71.4140  223.3280 O   0  0  0  0  0  0  0  0  0  0  0  0
  138.8380   69.7110  222.3550 N   0  0  0  0  0  0  0  0  0  0  0  0
  139.1900   68.9320  221.1660 C   0  0  0  0  0  0  0  0  0  0  0  0
  137.9140   68.1580  220.9340 C   0  0  0  0  0  0  0  0  0  0  0  0
  137.5380   67.7340  222.3350 C   0  0  0  0  0  0  0  0  0  0  0  0
  138.1830   68.7630  223.2330 C   0  0  1  0  0  0  0  0  0  0  0  0
  139.1970   68.0350  224.0940 C   0  0  0  0  0  0  0  0  0  0  0  0
  138.8760   68.0530  225.4530 O   0  0  0  0  0  0  0  0  0  0  0  0
  139.6070   68.8900  226.2910 C   0  0  0  0  0  0  0  0  0  0  0  0
  140.1410   68.4140  227.4820 C   0  0  0  0  0  0  0  0  0  0  0  0
  140.8750   69.2480  228.3260 C   0  0  0  0  0  0  0  0  0  0  0  0
  141.0890   70.5740  227.9940 C   0  0  0  0  0  0  0  0  0  0  0  0
  140.5630   71.0610  226.8130 C   0  0  0  0  0  0  0  0  0  0  0  0
  139.8380   70.2260  225.9830 C   0  0  0  0  0  0  0  0  0  0  0  0
  140.1150   75.2820  221.4620 C   0  0  0  0  0  0  0  0  0  0  0  0
  141.2330   75.6180  220.7280 C   0  0  0  0  0  0  0  0  0  0  0  0
  141.7950   76.8740  220.7640 C   0  0  0  0  0  0  0  0  0  0  0  0
  141.1810   77.8190  221.5860 C   0  0  0  0  0  0  0  0  0  0  0  0
  141.7220   79.0880  221.6440 C   0  0  0  0  0  0  0  0  0  0  0  0
  141.1030   80.0130  222.4630 C   0  0  0  0  0  0  0  0  0  0  0  0
  141.7410   81.6420  222.5780 Cl  0  0  0  0  0  0  0  0  0  0  0  0
  139.9730   79.6890  223.2100 C   0  0  0  0  0  0  0  0  0  0  0  0
  139.4580   78.4080  223.1290 C   0  0  0  0  0  0  0  0  0  0  0  0
  140.0510   77.4710  222.3240 C   0  0  0  0  0  0  0  0  0  0  0  0
  139.5380   76.2100  222.2510 N   0  0  0  0  0  0  0  0  0  0  0  0
  138.1680   74.0640  222.9430 H   0  0  0  0  0  0  0  0  0  0  0  0
  137.1539   71.9370  222.4640 H   0  0  0  0  0  0  0  0  0  0  0  0
  138.1170   71.8801  220.9234 H   0  0  0  0  0  0  0  0  0  0  0  0
  139.4268   69.5841  220.3124 H   0  0  0  0  0  0  0  0  0  0  0  0
  140.0841   68.3027  221.2870 H   0  0  0  0  0  0  0  0  0  0  0  0
  137.1364   68.7955  220.4881 H   0  0  0  0  0  0  0  0  0  0  0  0
  138.0289   67.3171  220.2343 H   0  0  0  0  0  0  0  0  0  0  0  0
  136.4453   67.7389  222.4617 H   0  0  0  0  0  0  0  0  0  0  0  0
  137.8738   66.7120  222.5648 H   0  0  0  0  0  0  0  0  0  0  0  0
  137.4679   69.2856  223.8853 H   0  0  0  0  0  0  0  0  0  0  0  0
  139.2514   66.9880  223.7611 H   0  0  0  0  0  0  0  0  0  0  0  0
  140.1593   68.5550  223.9776 H   0  0  0  0  0  0  0  0  0  0  0  0
  139.9826   67.3627  227.7641 H   0  0  0  0  0  0  0  0  0  0  0  0
  141.2873   68.8477  229.2639 H   0  0  0  0  0  0  0  0  0  0  0  0
  141.6688   71.2301  228.6599 H   0  0  0  0  0  0  0  0  0  0  0  0
  140.7210   72.1130  226.5330 H   0  0  0  0  0  0  0  0  0  0  0  0
  139.4297   70.6330  225.0462 H   0  0  0  0  0  0  0  0  0  0  0  0
  141.6943   74.8515  220.0880 H   0  0  0  0  0  0  0  0  0  0  0  0
  142.6880   77.1213  220.1713 H   0  0  0  0  0  0  0  0  0  0  0  0
  142.6147   79.3534  221.0586 H   0  0  0  0  0  0  0  0  0  0  0  0
  139.4967   80.4416  223.8555 H   0  0  0  0  0  0  0  0  0  0  0  0
  138.5664   78.1395  223.7147 H   0  0  0  0  0  0  0  0  0  0  0  0
  1  2  2  0
  2  3  1  0
  3  4  1  0
  4  5  1  0
  5  6  2  0
  5  7  1  0
  7  8  1  0
  8  9  1  0
  9 10  1  0
 10 11  1  0
 11 12  1  0
 12 13  1  0
 13 14  1  0
 14 15  2  0
 15 16  1  0
 16 17  2  0
 17 18  1  0
 18 19  2  0
  2 20  1  0
 20 21  2  0
 21 22  1  0
 22 23  2  0
 23 24  1  0
 24 25  2  0
 25 26  1  0
 25 27  1  0
 27 28  2  0
 28 29  1  0
 29 30  2  0
 11  7  1  0
 19 14  1  0
 30 20  1  0
 29 23  1  0
  3 31  1  0
  4 32  1  0
  4 33  1  0
  8 34  1  0
  8 35  1  0
  9 36  1  0
  9 37  1  0
 10 38  1  0
 10 39  1  0
 11 40  1  1
 12 41  1  0
 12 42  1  0
 15 43  1  0
 16 44  1  0
 17 45  1  0
 18 46  1  0
 19 47  1  0
 21 48  1  0
 22 49  1  0
 24 50  1  0
 27 51  1  0
 28 52  1  0
M  END
>  <smiles>  (50) 
O=C(NCC(=O)N1CCC[C@H]1COc1ccccc1)c1ccc2cc(Cl)ccc2n1

>  <score_type>  (50) 
oracle

>  <origin>  (50) 
autodockgpu

>  <m_score__min__energy>  (50) 
-8.3900000000000006

>  <m_primary>  (50) 
energy

>  <rmsd>  (50) 
8.094890846802016

>  <m_score__min__rmsd>  (50) 
8.094890846802016

>  <meeko>  (50) 
{"free_energy": -7.86, "intermolecular_energy": -9.95, "internal_energy": -1.65, "cluster_size": 9, "cluster_id": 3, "rank_in_cluster": 7}

>  <energy>  (50) 
-6.31

>  <cluster_rmsd>  (50) 
0.27

>  <cluster>  (50) 
7

$$$$
