
     RDKit          3D

 51 54  0  0  0  0  0  0  0  0999 V2000
  140.9610   69.4340  227.6500 C   0  0  0  0  0  0  0  0  0  0  0  0
  140.6890   70.6960  226.9930 N   0  0  0  0  0  0  0  0  0  0  0  0
  140.9850   71.9610  227.6410 C   0  0  0  0  0  0  0  0  0  0  0  0
  140.1230   70.6880  225.6940 C   0  0  0  0  0  0  0  0  0  0  0  0
  138.9780   69.9560  225.4840 C   0  0  0  0  0  0  0  0  0  0  0  0
  138.4340   69.9540  224.2180 C   0  0  0  0  0  0  0  0  0  0  0  0
  139.0350   70.6750  223.1900 C   0  0  0  0  0  0  0  0  0  0  0  0
  140.1820   71.4150  223.3790 C   0  0  0  0  0  0  0  0  0  0  0  0
  140.8360   72.1770  222.3370 C   0  0  0  0  0  0  0  0  0  0  0  0
  140.2120   72.9950  221.5080 C   0  0  0  0  0  0  0  0  0  0  0  0
  140.6960   74.3650  221.2930 C   0  0  0  0  0  0  0  0  0  0  0  0
  140.1360   75.3140  222.0700 N   0  0  0  0  0  0  0  0  0  0  0  0
  140.4810   76.6120  221.9460 C   0  0  0  0  0  0  0  0  0  0  0  0
  139.9150   77.6030  222.7350 C   0  0  0  0  0  0  0  0  0  0  0  0
  140.2930   78.9180  222.5790 C   0  0  0  0  0  0  0  0  0  0  0  0
  141.2490   79.2600  221.6240 C   0  0  0  0  0  0  0  0  0  0  0  0
  141.6510   80.5420  221.4370 F   0  0  0  0  0  0  0  0  0  0  0  0
  141.8080   78.2560  220.8390 C   0  0  0  0  0  0  0  0  0  0  0  0
  141.4170   76.9230  221.0050 C   0  0  0  0  0  0  0  0  0  0  0  0
  141.9810   75.9250  220.2170 C   0  0  0  0  0  0  0  0  0  0  0  0
  142.8320   76.3070  219.3800 O   0  0  0  0  0  0  0  0  0  0  0  0
  141.6210   74.6180  220.3570 N   0  0  0  0  0  0  0  0  0  0  0  0
  142.2290   73.6120  219.5200 C   0  0  0  0  0  0  0  0  0  0  0  0
  143.6800   73.5100  219.6740 C   0  0  0  0  0  0  0  0  0  0  0  0
  144.2570   73.8300  220.9120 C   0  0  0  0  0  0  0  0  0  0  0  0
  145.6290   73.7460  221.1070 C   0  0  0  0  0  0  0  0  0  0  0  0
  146.4710   73.3490  220.1000 C   0  0  0  0  0  0  0  0  0  0  0  0
  145.9110   73.0440  218.9180 N   0  0  0  0  0  0  0  0  0  0  0  0
  144.5680   73.1180  218.6990 C   0  0  0  0  0  0  0  0  0  0  0  0
  140.7090   71.3980  224.6670 C   0  0  0  0  0  0  0  0  0  0  0  0
  140.9307   69.5744  228.7406 H   0  0  0  0  0  0  0  0  0  0  0  0
  140.2014   68.6954  227.3542 H   0  0  0  0  0  0  0  0  0  0  0  0
  141.9574   69.0739  227.3542 H   0  0  0  0  0  0  0  0  0  0  0  0
  140.9543   71.8298  228.7327 H   0  0  0  0  0  0  0  0  0  0  0  0
  141.9870   72.3012  227.3406 H   0  0  0  0  0  0  0  0  0  0  0  0
  140.2380   72.7105  227.3406 H   0  0  0  0  0  0  0  0  0  0  0  0
  138.5103   69.3889  226.3023 H   0  0  0  0  0  0  0  0  0  0  0  0
  137.5181   69.3785  224.0182 H   0  0  0  0  0  0  0  0  0  0  0  0
  138.5774   70.6532  222.1899 H   0  0  0  0  0  0  0  0  0  0  0  0
  141.9251   72.0680  222.2279 H   0  0  0  0  0  0  0  0  0  0  0  0
  139.3177   72.6452  220.9714 H   0  0  0  0  0  0  0  0  0  0  0  0
  139.1600   77.3368  223.4894 H   0  0  0  0  0  0  0  0  0  0  0  0
  139.8404   79.6986  223.2081 H   0  0  0  0  0  0  0  0  0  0  0  0
  142.5635   78.5126  220.0818 H   0  0  0  0  0  0  0  0  0  0  0  0
  141.7848   72.6376  219.7715 H   0  0  0  0  0  0  0  0  0  0  0  0
  142.0387   73.9067  218.4774 H   0  0  0  0  0  0  0  0  0  0  0  0
  143.6116   74.1529  221.7422 H   0  0  0  0  0  0  0  0  0  0  0  0
  146.0497   74.0034  222.0902 H   0  0  0  0  0  0  0  0  0  0  0  0
  147.5582   73.2832  220.2538 H   0  0  0  0  0  0  0  0  0  0  0  0
  144.1790   72.8542  217.7045 H   0  0  0  0  0  0  0  0  0  0  0  0
  141.6251   71.9710  224.8732 H   0  0  0  0  0  0  0  0  0  0  0  0
  1  2  1  0
  2  3  1  0
  2  4  1  0
  4  5  2  0
  5  6  1  0
  6  7  2  0
  7  8  1  0
  8  9  1  0
  9 10  2  0
 10 11  1  0
 11 12  2  0
 12 13  1  0
 13 14  2  0
 14 15  1  0
 15 16  2  0
 16 17  1  0
 16 18  1  0
 18 19  2  0
 19 20  1  0
 20 21  2  0
 20 22  1  0
 22 23  1  0
 23 24  1  0
 24 25  2  0
 25 26  1  0
 26 27  2  0
 27 28  1  0
 28 29  2  0
  8 30  2  0
 30  4  1  0
 22 11  1  0
 29 24  1  0
 19 13  1  0
  1 31  1  0
  1 32  1  0
  1 33  1  0
  3 34  1  0
  3 35  1  0
  3 36  1  0
  5 37  1  0
  6 38  1  0
  7 39  1  0
  9 40  1  0
 10 41  1  0
 14 42  1  0
 15 43  1  0
 18 44  1  0
 23 45  1  0
 23 46  1  0
 25 47  1  0
 26 48  1  0
 27 49  1  0
 29 50  1  0
 30 51  1  0
M  END
>  <smiles>  (1) 
CN(C)c1cccc(/C=C/c2nc3ccc(F)cc3c(=O)n2Cc2cccnc2)c1

>  <score_type>  (1) 
oracle

>  <origin>  (1) 
autodockgpu

>  <m_score__min__energy>  (1) 
-8.6600000000000001

>  <m_primary>  (1) 
energy

>  <rmsd>  (1) 
5.467931949798157

>  <m_score__min__rmsd>  (1) 
5.467931949798157

>  <meeko>  (1) 
{"free_energy": -8.59, "intermolecular_energy": -10.38, "internal_energy": -1.18, "cluster_size": 30, "cluster_id": 1, "rank_in_cluster": 6}

>  <energy>  (1) 
-8.66

>  <cluster_rmsd>  (1) 
0.0

>  <cluster>  (1) 
1

$$$$

     RDKit          3D

 51 54  0  0  0  0  0  0  0  0999 V2000
  141.4160   71.8880  226.5470 C   0  0  0  0  0  0  0  0  0  0  0  0
  140.7410   70.7570  225.9430 N   0  0  0  0  0  0  0  0  0  0  0  0
  140.8930   69.4160  226.4790 C   0  0  0  0  0  0  0  0  0  0  0  0
  139.9190   70.9710  224.8090 C   0  0  0  0  0  0  0  0  0  0  0  0
  138.7390   70.2700  224.7160 C   0  0  0  0  0  0  0  0  0  0  0  0
  137.9440   70.4840  223.6110 C   0  0  0  0  0  0  0  0  0  0  0  0
  138.3360   71.3840  222.6230 C   0  0  0  0  0  0  0  0  0  0  0  0
  139.5140   72.0950  222.6970 C   0  0  0  0  0  0  0  0  0  0  0  0
  139.9550   73.0390  221.6920 C   0  0  0  0  0  0  0  0  0  0  0  0
  141.1770   73.5350  221.6200 C   0  0  0  0  0  0  0  0  0  0  0  0
  141.3980   74.9600  221.3390 C   0  0  0  0  0  0  0  0  0  0  0  0
  140.9370   75.8200  222.2690 N   0  0  0  0  0  0  0  0  0  0  0  0
  141.0580   77.1530  222.1100 C   0  0  0  0  0  0  0  0  0  0  0  0
  140.5900   78.0540  223.0550 C   0  0  0  0  0  0  0  0  0  0  0  0
  140.7320   79.4100  222.8570 C   0  0  0  0  0  0  0  0  0  0  0  0
  141.3490   79.8830  221.7010 C   0  0  0  0  0  0  0  0  0  0  0  0
  141.5100   81.2100  221.4650 F   0  0  0  0  0  0  0  0  0  0  0  0
  141.8140   78.9690  220.7610 C   0  0  0  0  0  0  0  0  0  0  0  0
  141.6650   77.5940  220.9720 C   0  0  0  0  0  0  0  0  0  0  0  0
  142.1330   76.6860  220.0270 C   0  0  0  0  0  0  0  0  0  0  0  0
  142.6760   77.1860  219.0140 O   0  0  0  0  0  0  0  0  0  0  0  0
  142.0030   75.3420  220.2060 N   0  0  0  0  0  0  0  0  0  0  0  0
  142.5010   74.4320  219.2030 C   0  0  0  0  0  0  0  0  0  0  0  0
  143.8080   73.8570  219.5200 C   0  0  0  0  0  0  0  0  0  0  0  0
  144.3470   74.0600  220.7990 C   0  0  0  0  0  0  0  0  0  0  0  0
  145.5830   73.5320  221.1490 C   0  0  0  0  0  0  0  0  0  0  0  0
  146.3210   72.7920  220.2610 C   0  0  0  0  0  0  0  0  0  0  0  0
  145.7970   72.6020  219.0380 N   0  0  0  0  0  0  0  0  0  0  0  0
  144.5880   73.1090  218.6690 C   0  0  0  0  0  0  0  0  0  0  0  0
  140.2950   71.8590  223.8230 C   0  0  0  0  0  0  0  0  0  0  0  0
  141.3653   71.8030  227.6425 H   0  0  0  0  0  0  0  0  0  0  0  0
  142.4688   71.8995  226.2285 H   0  0  0  0  0  0  0  0  0  0  0  0
  140.9264   72.8201  226.2285 H   0  0  0  0  0  0  0  0  0  0  0  0
  140.8883   69.4578  227.5782 H   0  0  0  0  0  0  0  0  0  0  0  0
  140.0605   68.7860  226.1324 H   0  0  0  0  0  0  0  0  0  0  0  0
  141.8454   68.9884  226.1324 H   0  0  0  0  0  0  0  0  0  0  0  0
  138.4390   69.5597  225.5005 H   0  0  0  0  0  0  0  0  0  0  0  0
  136.9933   69.9403  223.5085 H   0  0  0  0  0  0  0  0  0  0  0  0
  137.6812   71.5327  221.7517 H   0  0  0  0  0  0  0  0  0  0  0  0
  139.2235   73.3650  220.9379 H   0  0  0  0  0  0  0  0  0  0  0  0
  142.0413   72.8719  221.7725 H   0  0  0  0  0  0  0  0  0  0  0  0
  140.1022   77.6834  223.9686 H   0  0  0  0  0  0  0  0  0  0  0  0
  140.3585   80.1185  223.6110 H   0  0  0  0  0  0  0  0  0  0  0  0
  142.3029   79.3303  219.8443 H   0  0  0  0  0  0  0  0  0  0  0  0
  141.7787   73.6098  219.0923 H   0  0  0  0  0  0  0  0  0  0  0  0
  142.6244   75.0137  218.2776 H   0  0  0  0  0  0  0  0  0  0  0  0
  143.7812   74.6473  221.5372 H   0  0  0  0  0  0  0  0  0  0  0  0
  145.9783   73.7111  222.1598 H   0  0  0  0  0  0  0  0  0  0  0  0
  147.2994   72.3722  220.5377 H   0  0  0  0  0  0  0  0  0  0  0  0
  144.2210   72.9127  217.6508 H   0  0  0  0  0  0  0  0  0  0  0  0
  141.2467   72.3999  223.9312 H   0  0  0  0  0  0  0  0  0  0  0  0
  1  2  1  0
  2  3  1  0
  2  4  1  0
  4  5  2  0
  5  6  1  0
  6  7  2  0
  7  8  1  0
  8  9  1  0
  9 10  2  0
 10 11  1  0
 11 12  2  0
 12 13  1  0
 13 14  2  0
 14 15  1  0
 15 16  2  0
 16 17  1  0
 16 18  1  0
 18 19  2  0
 19 20  1  0
 20 21  2  0
 20 22  1  0
 22 23  1  0
 23 24  1  0
 24 25  2  0
 25 26  1  0
 26 27  2  0
 27 28  1  0
 28 29  2  0
  8 30  2  0
 30  4  1  0
 22 11  1  0
 29 24  1  0
 19 13  1  0
  1 31  1  0
  1 32  1  0
  1 33  1  0
  3 34  1  0
  3 35  1  0
  3 36  1  0
  5 37  1  0
  6 38  1  0
  7 39  1  0
  9 40  1  0
 10 41  1  0
 14 42  1  0
 15 43  1  0
 18 44  1  0
 23 45  1  0
 23 46  1  0
 25 47  1  0
 26 48  1  0
 27 49  1  0
 29 50  1  0
 30 51  1  0
M  END
>  <smiles>  (2) 
CN(C)c1cccc(/C=C/c2nc3ccc(F)cc3c(=O)n2Cc2cccnc2)c1

>  <score_type>  (2) 
oracle

>  <origin>  (2) 
autodockgpu

>  <m_score__min__energy>  (2) 
-8.6600000000000001

>  <m_primary>  (2) 
energy

>  <rmsd>  (2) 
5.317727346477411

>  <m_score__min__rmsd>  (2) 
5.317727346477411

>  <meeko>  (2) 
{"free_energy": -8.07, "intermolecular_energy": -9.86, "internal_energy": -1.16, "cluster_size": 30, "cluster_id": 1, "rank_in_cluster": 20}

>  <energy>  (2) 
-8.65

>  <cluster_rmsd>  (2) 
0.35

>  <cluster>  (2) 
1

$$$$

     RDKit          3D

 51 54  0  0  0  0  0  0  0  0999 V2000
  140.8100   69.8830  228.0170 C   0  0  0  0  0  0  0  0  0  0  0  0
  140.8280   70.9960  227.0890 N   0  0  0  0  0  0  0  0  0  0  0  0
  141.3870   72.2820  227.4660 C   0  0  0  0  0  0  0  0  0  0  0  0
  140.2890   70.8180  225.7900 C   0  0  0  0  0  0  0  0  0  0  0  0
  139.2240   69.9630  225.6360 C   0  0  0  0  0  0  0  0  0  0  0  0
  138.7050   69.7960  224.3700 C   0  0  0  0  0  0  0  0  0  0  0  0
  139.2540   70.4790  223.2870 C   0  0  0  0  0  0  0  0  0  0  0  0
  140.3220   71.3400  223.4200 C   0  0  0  0  0  0  0  0  0  0  0  0
  140.9190   72.0660  222.3200 C   0  0  0  0  0  0  0  0  0  0  0  0
  140.2610   72.8960  221.5300 C   0  0  0  0  0  0  0  0  0  0  0  0
  140.7450   74.2640  221.3030 C   0  0  0  0  0  0  0  0  0  0  0  0
  140.1740   75.2220  222.0610 N   0  0  0  0  0  0  0  0  0  0  0  0
  140.5170   76.5190  221.9250 C   0  0  0  0  0  0  0  0  0  0  0  0
  139.9400   77.5180  222.6940 C   0  0  0  0  0  0  0  0  0  0  0  0
  140.3170   78.8330  222.5260 C   0  0  0  0  0  0  0  0  0  0  0  0
  141.2830   79.1640  221.5780 C   0  0  0  0  0  0  0  0  0  0  0  0
  141.6840   80.4450  221.3790 F   0  0  0  0  0  0  0  0  0  0  0  0
  141.8530   78.1520  220.8130 C   0  0  0  0  0  0  0  0  0  0  0  0
  141.4630   76.8200  220.9910 C   0  0  0  0  0  0  0  0  0  0  0  0
  142.0390   75.8140  220.2220 C   0  0  0  0  0  0  0  0  0  0  0  0
  142.8980   76.1870  219.3900 O   0  0  0  0  0  0  0  0  0  0  0  0
  141.6800   74.5080  220.3740 N   0  0  0  0  0  0  0  0  0  0  0  0
  142.3000   73.4930  219.5580 C   0  0  0  0  0  0  0  0  0  0  0  0
  143.7560   73.4360  219.6850 C   0  0  0  0  0  0  0  0  0  0  0  0
  144.3460   73.7950  220.9060 C   0  0  0  0  0  0  0  0  0  0  0  0
  145.7230   73.7550  221.0770 C   0  0  0  0  0  0  0  0  0  0  0  0
  146.5580   73.3630  220.0620 C   0  0  0  0  0  0  0  0  0  0  0  0
  145.9850   73.0200  218.8950 N   0  0  0  0  0  0  0  0  0  0  0  0
  144.6370   73.0510  218.7010 C   0  0  0  0  0  0  0  0  0  0  0  0
  140.8240   71.4880  224.7090 C   0  0  0  0  0  0  0  0  0  0  0  0
  140.8162   70.2654  229.0484 H   0  0  0  0  0  0  0  0  0  0  0  0
  139.9020   69.2839  227.8535 H   0  0  0  0  0  0  0  0  0  0  0  0
  141.6981   69.2549  227.8535 H   0  0  0  0  0  0  0  0  0  0  0  0
  141.4208   72.3598  228.5627 H   0  0  0  0  0  0  0  0  0  0  0  0
  142.4055   72.3722  227.0604 H   0  0  0  0  0  0  0  0  0  0  0  0
  140.7581   73.0883  227.0604 H   0  0  0  0  0  0  0  0  0  0  0  0
  138.7984   69.4278  226.4976 H   0  0  0  0  0  0  0  0  0  0  0  0
  137.8520   69.1192  224.2139 H   0  0  0  0  0  0  0  0  0  0  0  0
  138.8189   70.3254  222.2885 H   0  0  0  0  0  0  0  0  0  0  0  0
  141.9920   71.9171  222.1287 H   0  0  0  0  0  0  0  0  0  0  0  0
  139.3383   72.5579  221.0357 H   0  0  0  0  0  0  0  0  0  0  0  0
  139.1767   77.2595  223.4427 H   0  0  0  0  0  0  0  0  0  0  0  0
  139.8556   79.6206  223.1399 H   0  0  0  0  0  0  0  0  0  0  0  0
  142.6169   78.4008  220.0616 H   0  0  0  0  0  0  0  0  0  0  0  0
  141.8887   72.5154  219.8498 H   0  0  0  0  0  0  0  0  0  0  0  0
  142.0813   73.7486  218.5107 H   0  0  0  0  0  0  0  0  0  0  0  0
  143.7065   74.1137  221.7423 H   0  0  0  0  0  0  0  0  0  0  0  0
  146.1536   74.0438  222.0471 H   0  0  0  0  0  0  0  0  0  0  0  0
  147.6492   73.3306  220.1968 H   0  0  0  0  0  0  0  0  0  0  0  0
  144.2373   72.7567  217.7193 H   0  0  0  0  0  0  0  0  0  0  0  0
  141.6773   72.1628  224.8721 H   0  0  0  0  0  0  0  0  0  0  0  0
  1  2  1  0
  2  3  1  0
  2  4  1  0
  4  5  2  0
  5  6  1  0
  6  7  2  0
  7  8  1  0
  8  9  1  0
  9 10  2  0
 10 11  1  0
 11 12  2  0
 12 13  1  0
 13 14  2  0
 14 15  1  0
 15 16  2  0
 16 17  1  0
 16 18  1  0
 18 19  2  0
 19 20  1  0
 20 21  2  0
 20 22  1  0
 22 23  1  0
 23 24  1  0
 24 25  2  0
 25 26  1  0
 26 27  2  0
 27 28  1  0
 28 29  2  0
  8 30  2  0
 30  4  1  0
 22 11  1  0
 29 24  1  0
 19 13  1  0
  1 31  1  0
  1 32  1  0
  1 33  1  0
  3 34  1  0
  3 35  1  0
  3 36  1  0
  5 37  1  0
  6 38  1  0
  7 39  1  0
  9 40  1  0
 10 41  1  0
 14 42  1  0
 15 43  1  0
 18 44  1  0
 23 45  1  0
 23 46  1  0
 25 47  1  0
 26 48  1  0
 27 49  1  0
 29 50  1  0
 30 51  1  0
M  END
>  <smiles>  (3) 
CN(C)c1cccc(/C=C/c2nc3ccc(F)cc3c(=O)n2Cc2cccnc2)c1

>  <score_type>  (3) 
oracle

>  <origin>  (3) 
autodockgpu

>  <m_score__min__energy>  (3) 
-8.6600000000000001

>  <m_primary>  (3) 
energy

>  <rmsd>  (3) 
5.545043948770816

>  <m_score__min__rmsd>  (3) 
5.545043948770816

>  <meeko>  (3) 
{"free_energy": -8.66, "intermolecular_energy": -10.45, "internal_energy": -1.17, "cluster_size": 30, "cluster_id": 1, "rank_in_cluster": 1}

>  <energy>  (3) 
-8.64

>  <cluster_rmsd>  (3) 
0.8

>  <cluster>  (3) 
1

$$$$

     RDKit          3D

 51 54  0  0  0  0  0  0  0  0999 V2000
  141.0560   71.8490  227.7440 C   0  0  0  0  0  0  0  0  0  0  0  0
  140.6360   70.5640  227.2230 N   0  0  0  0  0  0  0  0  0  0  0  0
  140.6520   69.3730  228.0540 C   0  0  0  0  0  0  0  0  0  0  0  0
  140.2030   70.4740  225.8770 C   0  0  0  0  0  0  0  0  0  0  0  0
  139.2830   69.5060  225.5490 C   0  0  0  0  0  0  0  0  0  0  0  0
  138.8660   69.4260  224.2380 C   0  0  0  0  0  0  0  0  0  0  0  0
  139.3700   70.3040  223.2830 C   0  0  0  0  0  0  0  0  0  0  0  0
  140.2920   71.2810  223.5900 C   0  0  0  0  0  0  0  0  0  0  0  0
  140.8380   72.2110  222.6250 C   0  0  0  0  0  0  0  0  0  0  0  0
  140.1150   73.0470  221.9030 C   0  0  0  0  0  0  0  0  0  0  0  0
  140.6380   74.3680  221.5260 C   0  0  0  0  0  0  0  0  0  0  0  0
  140.1670   75.4100  222.2400 N   0  0  0  0  0  0  0  0  0  0  0  0
  140.5530   76.6730  221.9700 C   0  0  0  0  0  0  0  0  0  0  0  0
  140.0800   77.7590  222.6920 C   0  0  0  0  0  0  0  0  0  0  0  0
  140.4990   79.0360  222.3860 C   0  0  0  0  0  0  0  0  0  0  0  0
  141.4030   79.2420  221.3460 C   0  0  0  0  0  0  0  0  0  0  0  0
  141.8420   80.4810  221.0110 F   0  0  0  0  0  0  0  0  0  0  0  0
  141.8700   78.1440  220.6300 C   0  0  0  0  0  0  0  0  0  0  0  0
  141.4380   76.8510  220.9480 C   0  0  0  0  0  0  0  0  0  0  0  0
  141.9110   75.7590  220.2280 C   0  0  0  0  0  0  0  0  0  0  0  0
  142.7190   76.0210  219.3070 O   0  0  0  0  0  0  0  0  0  0  0  0
  141.5090   74.4890  220.5160 N   0  0  0  0  0  0  0  0  0  0  0  0
  142.0210   73.3820  219.7450 C   0  0  0  0  0  0  0  0  0  0  0  0
  143.4800   73.2830  219.7460 C   0  0  0  0  0  0  0  0  0  0  0  0
  144.1940   73.7750  220.8490 C   0  0  0  0  0  0  0  0  0  0  0  0
  145.5800   73.7020  220.8970 C   0  0  0  0  0  0  0  0  0  0  0  0
  146.3030   73.1470  219.8720 C   0  0  0  0  0  0  0  0  0  0  0  0
  145.6110   72.6770  218.8200 N   0  0  0  0  0  0  0  0  0  0  0  0
  144.2520   72.7370  218.7470 C   0  0  0  0  0  0  0  0  0  0  0  0
  140.6940   71.3380  224.9200 C   0  0  0  0  0  0  0  0  0  0  0  0
  141.0464   71.8197  228.8436 H   0  0  0  0  0  0  0  0  0  0  0  0
  142.0739   72.0724  227.3920 H   0  0  0  0  0  0  0  0  0  0  0  0
  140.3665   72.6305  227.3920 H   0  0  0  0  0  0  0  0  0  0  0  0
  140.6481   69.6657  229.1143 H   0  0  0  0  0  0  0  0  0  0  0  0
  139.7619   68.7636  227.8385 H   0  0  0  0  0  0  0  0  0  0  0  0
  141.5581   68.7877  227.8385 H   0  0  0  0  0  0  0  0  0  0  0  0
  138.8914   68.8158  226.3108 H   0  0  0  0  0  0  0  0  0  0  0  0
  138.1299   68.6631  223.9444 H   0  0  0  0  0  0  0  0  0  0  0  0
  139.0192   70.2147  222.2443 H   0  0  0  0  0  0  0  0  0  0  0  0
  141.9288   72.2221  222.4836 H   0  0  0  0  0  0  0  0  0  0  0  0
  139.1065   72.7507  221.5788 H   0  0  0  0  0  0  0  0  0  0  0  0
  139.3662   77.6001  223.5137 H   0  0  0  0  0  0  0  0  0  0  0  0
  140.1197   79.8924  222.9628 H   0  0  0  0  0  0  0  0  0  0  0  0
  142.5846   78.2933  219.8072 H   0  0  0  0  0  0  0  0  0  0  0  0
  141.6105   72.4505  220.1619 H   0  0  0  0  0  0  0  0  0  0  0  0
  141.7134   73.5501  218.7023 H   0  0  0  0  0  0  0  0  0  0  0  0
  143.6468   74.2261  221.6899 H   0  0  0  0  0  0  0  0  0  0  0  0
  146.1095   74.0979  221.7761 H   0  0  0  0  0  0  0  0  0  0  0  0
  147.4008   73.0891  219.9093 H   0  0  0  0  0  0  0  0  0  0  0  0
  143.7524   72.3330  217.8541 H   0  0  0  0  0  0  0  0  0  0  0  0
  141.4296   72.0990  225.2197 H   0  0  0  0  0  0  0  0  0  0  0  0
  1  2  1  0
  2  3  1  0
  2  4  1  0
  4  5  2  0
  5  6  1  0
  6  7  2  0
  7  8  1  0
  8  9  1  0
  9 10  2  0
 10 11  1  0
 11 12  2  0
 12 13  1  0
 13 14  2  0
 14 15  1  0
 15 16  2  0
 16 17  1  0
 16 18  1  0
 18 19  2  0
 19 20  1  0
 20 21  2  0
 20 22  1  0
 22 23  1  0
 23 24  1  0
 24 25  2  0
 25 26  1  0
 26 27  2  0
 27 28  1  0
 28 29  2  0
  8 30  2  0
 30  4  1  0
 22 11  1  0
 29 24  1  0
 19 13  1  0
  1 31  1  0
  1 32  1  0
  1 33  1  0
  3 34  1  0
  3 35  1  0
  3 36  1  0
  5 37  1  0
  6 38  1  0
  7 39  1  0
  9 40  1  0
 10 41  1  0
 14 42  1  0
 15 43  1  0
 18 44  1  0
 23 45  1  0
 23 46  1  0
 25 47  1  0
 26 48  1  0
 27 49  1  0
 29 50  1  0
 30 51  1  0
M  END
>  <smiles>  (4) 
CN(C)c1cccc(/C=C/c2nc3ccc(F)cc3c(=O)n2Cc2cccnc2)c1

>  <score_type>  (4) 
oracle

>  <origin>  (4) 
autodockgpu

>  <m_score__min__energy>  (4) 
-8.6600000000000001

>  <m_primary>  (4) 
energy

>  <rmsd>  (4) 
5.401968307729188

>  <m_score__min__rmsd>  (4) 
5.401968307729188

>  <meeko>  (4) 
{"free_energy": -8.65, "intermolecular_energy": -10.44, "internal_energy": -1.09, "cluster_size": 30, "cluster_id": 1, "rank_in_cluster": 2}

>  <energy>  (4) 
-8.63

>  <cluster_rmsd>  (4) 
0.21

>  <cluster>  (4) 
1

$$$$

     RDKit          3D

 51 54  0  0  0  0  0  0  0  0999 V2000
  141.1670   72.2320  227.3840 C   0  0  0  0  0  0  0  0  0  0  0  0
  140.4530   71.0310  227.0020 N   0  0  0  0  0  0  0  0  0  0  0  0
  140.0320   70.0570  227.9940 C   0  0  0  0  0  0  0  0  0  0  0  0
  140.1620   70.8080  225.6330 C   0  0  0  0  0  0  0  0  0  0  0  0
  139.3480   69.7500  225.3010 C   0  0  0  0  0  0  0  0  0  0  0  0
  139.0700   69.5410  223.9680 C   0  0  0  0  0  0  0  0  0  0  0  0
  139.6040   70.3820  222.9950 C   0  0  0  0  0  0  0  0  0  0  0  0
  140.4220   71.4470  223.3060 C   0  0  0  0  0  0  0  0  0  0  0  0
  140.9950   72.3420  222.3240 C   0  0  0  0  0  0  0  0  0  0  0  0
  140.2940   73.1660  221.5670 C   0  0  0  0  0  0  0  0  0  0  0  0
  140.7660   74.5310  221.2990 C   0  0  0  0  0  0  0  0  0  0  0  0
  140.2660   75.4930  222.1020 N   0  0  0  0  0  0  0  0  0  0  0  0
  140.6040   76.7870  221.9370 C   0  0  0  0  0  0  0  0  0  0  0  0
  140.1000   77.7910  222.7500 C   0  0  0  0  0  0  0  0  0  0  0  0
  140.4700   79.1030  222.5500 C   0  0  0  0  0  0  0  0  0  0  0  0
  141.3560   79.4280  221.5250 C   0  0  0  0  0  0  0  0  0  0  0  0
  141.7470   80.7060  221.2920 F   0  0  0  0  0  0  0  0  0  0  0  0
  141.8530   78.4110  220.7160 C   0  0  0  0  0  0  0  0  0  0  0  0
  141.4720   77.0820  220.9270 C   0  0  0  0  0  0  0  0  0  0  0  0
  141.9750   76.0720  220.1130 C   0  0  0  0  0  0  0  0  0  0  0  0
  142.7640   76.4400  219.2120 O   0  0  0  0  0  0  0  0  0  0  0  0
  141.6220   74.7680  220.2960 N   0  0  0  0  0  0  0  0  0  0  0  0
  142.1650   73.7490  219.4310 C   0  0  0  0  0  0  0  0  0  0  0  0
  143.5890   73.4890  219.6420 C   0  0  0  0  0  0  0  0  0  0  0  0
  144.1840   73.9010  220.8430 C   0  0  0  0  0  0  0  0  0  0  0  0
  145.5310   73.6750  221.0910 C   0  0  0  0  0  0  0  0  0  0  0  0
  146.3300   73.0410  220.1740 C   0  0  0  0  0  0  0  0  0  0  0  0
  145.7510   72.6480  219.0260 N   0  0  0  0  0  0  0  0  0  0  0  0
  144.4330   72.8580  218.7580 C   0  0  0  0  0  0  0  0  0  0  0  0
  140.6850   71.6340  224.6590 C   0  0  0  0  0  0  0  0  0  0  0  0
  141.2080   72.3009  228.4811 H   0  0  0  0  0  0  0  0  0  0  0  0
  142.1897   72.1946  226.9805 H   0  0  0  0  0  0  0  0  0  0  0  0
  140.6456   73.1125  226.9805 H   0  0  0  0  0  0  0  0  0  0  0  0
  140.2067   70.4613  229.0020 H   0  0  0  0  0  0  0  0  0  0  0  0
  138.9608   69.8424  227.8656 H   0  0  0  0  0  0  0  0  0  0  0  0
  140.6096   69.1297  227.8656 H   0  0  0  0  0  0  0  0  0  0  0  0
  138.9315   69.0906  226.0767 H   0  0  0  0  0  0  0  0  0  0  0  0
  138.4216   68.7038  223.6701 H   0  0  0  0  0  0  0  0  0  0  0  0
  139.3641   70.1893  221.9389 H   0  0  0  0  0  0  0  0  0  0  0  0
  142.0879   72.3355  222.1998 H   0  0  0  0  0  0  0  0  0  0  0  0
  139.3433   72.8255  221.1309 H   0  0  0  0  0  0  0  0  0  0  0  0
  139.4001   77.5382  223.5601 H   0  0  0  0  0  0  0  0  0  0  0  0
  140.0660   79.8937  223.1994 H   0  0  0  0  0  0  0  0  0  0  0  0
  142.5523   78.6546  219.9026 H   0  0  0  0  0  0  0  0  0  0  0  0
  141.6125   72.8144  219.6076 H   0  0  0  0  0  0  0  0  0  0  0  0
  142.0569   74.1153  218.3994 H   0  0  0  0  0  0  0  0  0  0  0  0
  143.5730   74.4120  221.6016 H   0  0  0  0  0  0  0  0  0  0  0  0
  145.9669   74.0116  222.0432 H   0  0  0  0  0  0  0  0  0  0  0  0
  147.3976   72.8619  220.3692 H   0  0  0  0  0  0  0  0  0  0  0  0
  144.0270   72.5094  217.7969 H   0  0  0  0  0  0  0  0  0  0  0  0
  141.3325   72.4695  224.9633 H   0  0  0  0  0  0  0  0  0  0  0  0
  1  2  1  0
  2  3  1  0
  2  4  1  0
  4  5  2  0
  5  6  1  0
  6  7  2  0
  7  8  1  0
  8  9  1  0
  9 10  2  0
 10 11  1  0
 11 12  2  0
 12 13  1  0
 13 14  2  0
 14 15  1  0
 15 16  2  0
 16 17  1  0
 16 18  1  0
 18 19  2  0
 19 20  1  0
 20 21  2  0
 20 22  1  0
 22 23  1  0
 23 24  1  0
 24 25  2  0
 25 26  1  0
 26 27  2  0
 27 28  1  0
 28 29  2  0
  8 30  2  0
 30  4  1  0
 22 11  1  0
 29 24  1  0
 19 13  1  0
  1 31  1  0
  1 32  1  0
  1 33  1  0
  3 34  1  0
  3 35  1  0
  3 36  1  0
  5 37  1  0
  6 38  1  0
  7 39  1  0
  9 40  1  0
 10 41  1  0
 14 42  1  0
 15 43  1  0
 18 44  1  0
 23 45  1  0
 23 46  1  0
 25 47  1  0
 26 48  1  0
 27 49  1  0
 29 50  1  0
 30 51  1  0
M  END
>  <smiles>  (5) 
CN(C)c1cccc(/C=C/c2nc3ccc(F)cc3c(=O)n2Cc2cccnc2)c1

>  <score_type>  (5) 
oracle

>  <origin>  (5) 
autodockgpu

>  <m_score__min__energy>  (5) 
-8.6600000000000001

>  <m_primary>  (5) 
energy

>  <rmsd>  (5) 
5.372912714689026

>  <m_score__min__rmsd>  (5) 
5.372912714689026

>  <meeko>  (5) 
{"free_energy": -8.53, "intermolecular_energy": -10.32, "internal_energy": -1.22, "cluster_size": 30, "cluster_id": 1, "rank_in_cluster": 9}

>  <energy>  (5) 
-8.62

>  <cluster_rmsd>  (5) 
0.23

>  <cluster>  (5) 
1

$$$$

     RDKit          3D

 51 54  0  0  0  0  0  0  0  0999 V2000
  140.3810   69.4880  227.9730 C   0  0  0  0  0  0  0  0  0  0  0  0
  140.5240   70.6610  227.1350 N   0  0  0  0  0  0  0  0  0  0  0  0
  141.0990   71.8900  227.6520 C   0  0  0  0  0  0  0  0  0  0  0  0
  140.0920   70.6010  225.7880 C   0  0  0  0  0  0  0  0  0  0  0  0
  139.0850   69.7220  225.4620 C   0  0  0  0  0  0  0  0  0  0  0  0
  138.6700   69.6710  224.1490 C   0  0  0  0  0  0  0  0  0  0  0  0
  139.2620   70.4890  223.1890 C   0  0  0  0  0  0  0  0  0  0  0  0
  140.2710   71.3750  223.4940 C   0  0  0  0  0  0  0  0  0  0  0  0
  140.9090   72.2410  222.5250 C   0  0  0  0  0  0  0  0  0  0  0  0
  140.2600   73.0270  221.6860 C   0  0  0  0  0  0  0  0  0  0  0  0
  140.7470   74.3810  221.3890 C   0  0  0  0  0  0  0  0  0  0  0  0
  140.2540   75.3650  222.1670 N   0  0  0  0  0  0  0  0  0  0  0  0
  140.6070   76.6520  221.9740 C   0  0  0  0  0  0  0  0  0  0  0  0
  140.1100   77.6790  222.7630 C   0  0  0  0  0  0  0  0  0  0  0  0
  140.4940   78.9820  222.5350 C   0  0  0  0  0  0  0  0  0  0  0  0
  141.3870   79.2750  221.5050 C   0  0  0  0  0  0  0  0  0  0  0  0
  141.7930   80.5430  221.2460 F   0  0  0  0  0  0  0  0  0  0  0  0
  141.8770   78.2350  220.7220 C   0  0  0  0  0  0  0  0  0  0  0  0
  141.4810   76.9150  220.9610 C   0  0  0  0  0  0  0  0  0  0  0  0
  141.9760   75.8810  220.1730 C   0  0  0  0  0  0  0  0  0  0  0  0
  142.7730   76.2210  219.2670 O   0  0  0  0  0  0  0  0  0  0  0  0
  141.6090   74.5860  220.3840 N   0  0  0  0  0  0  0  0  0  0  0  0
  142.1450   73.5420  219.5450 C   0  0  0  0  0  0  0  0  0  0  0  0
  143.5880   73.3490  219.6850 C   0  0  0  0  0  0  0  0  0  0  0  0
  144.2180   73.7700  220.8660 C   0  0  0  0  0  0  0  0  0  0  0  0
  145.5850   73.6070  221.0470 C   0  0  0  0  0  0  0  0  0  0  0  0
  146.3700   73.0290  220.0820 C   0  0  0  0  0  0  0  0  0  0  0  0
  145.7580   72.6280  218.9540 N   0  0  0  0  0  0  0  0  0  0  0  0
  144.4190   72.7770  218.7510 C   0  0  0  0  0  0  0  0  0  0  0  0
  140.6690   71.4060  224.8270 C   0  0  0  0  0  0  0  0  0  0  0  0
  140.4174   69.7866  229.0311 H   0  0  0  0  0  0  0  0  0  0  0  0
  139.4170   69.0020  227.7621 H   0  0  0  0  0  0  0  0  0  0  0  0
  141.2000   68.7847  227.7621 H   0  0  0  0  0  0  0  0  0  0  0  0
  141.0877   71.8659  228.7517 H   0  0  0  0  0  0  0  0  0  0  0  0
  142.1360   71.9870  227.2980 H   0  0  0  0  0  0  0  0  0  0  0  0
  140.5089   72.7482  227.2980 H   0  0  0  0  0  0  0  0  0  0  0  0
  138.6249   69.0790  226.2268 H   0  0  0  0  0  0  0  0  0  0  0  0
  137.8658   68.9797  223.8568 H   0  0  0  0  0  0  0  0  0  0  0  0
  138.9103   70.4247  222.1487 H   0  0  0  0  0  0  0  0  0  0  0  0
  142.0083   72.2443  222.4851 H   0  0  0  0  0  0  0  0  0  0  0  0
  139.3415   72.6630  221.2024 H   0  0  0  0  0  0  0  0  0  0  0  0
  139.4048   77.4514  223.5759 H   0  0  0  0  0  0  0  0  0  0  0  0
  140.0963   79.7911  223.1652 H   0  0  0  0  0  0  0  0  0  0  0  0
  142.5828   78.4528  219.9069 H   0  0  0  0  0  0  0  0  0  0  0  0
  141.6430   72.5981  219.8039 H   0  0  0  0  0  0  0  0  0  0  0  0
  141.9639   73.8460  218.5035 H   0  0  0  0  0  0  0  0  0  0  0  0
  143.6190   74.2369  221.6617 H   0  0  0  0  0  0  0  0  0  0  0  0
  146.0484   73.9487  221.9843 H   0  0  0  0  0  0  0  0  0  0  0  0
  147.4529   72.8992  220.2248 H   0  0  0  0  0  0  0  0  0  0  0  0
  143.9859   72.4259  217.8028 H   0  0  0  0  0  0  0  0  0  0  0  0
  141.4718   72.0964  225.1252 H   0  0  0  0  0  0  0  0  0  0  0  0
  1  2  1  0
  2  3  1  0
  2  4  1  0
  4  5  2  0
  5  6  1  0
  6  7  2  0
  7  8  1  0
  8  9  1  0
  9 10  2  0
 10 11  1  0
 11 12  2  0
 12 13  1  0
 13 14  2  0
 14 15  1  0
 15 16  2  0
 16 17  1  0
 16 18  1  0
 18 19  2  0
 19 20  1  0
 20 21  2  0
 20 22  1  0
 22 23  1  0
 23 24  1  0
 24 25  2  0
 25 26  1  0
 26 27  2  0
 27 28  1  0
 28 29  2  0
  8 30  2  0
 30  4  1  0
 22 11  1  0
 29 24  1  0
 19 13  1  0
  1 31  1  0
  1 32  1  0
  1 33  1  0
  3 34  1  0
  3 35  1  0
  3 36  1  0
  5 37  1  0
  6 38  1  0
  7 39  1  0
  9 40  1  0
 10 41  1  0
 14 42  1  0
 15 43  1  0
 18 44  1  0
 23 45  1  0
 23 46  1  0
 25 47  1  0
 26 48  1  0
 27 49  1  0
 29 50  1  0
 30 51  1  0
M  END
>  <smiles>  (6) 
CN(C)c1cccc(/C=C/c2nc3ccc(F)cc3c(=O)n2Cc2cccnc2)c1

>  <score_type>  (6) 
oracle

>  <origin>  (6) 
autodockgpu

>  <m_score__min__energy>  (6) 
-8.6600000000000001

>  <m_primary>  (6) 
energy

>  <rmsd>  (6) 
5.456362349218085

>  <m_score__min__rmsd>  (6) 
5.456362349218085

>  <meeko>  (6) 
{"free_energy": -8.57, "intermolecular_energy": -10.36, "internal_energy": -1.18, "cluster_size": 30, "cluster_id": 1, "rank_in_cluster": 7}

>  <energy>  (6) 
-8.59

>  <cluster_rmsd>  (6) 
0.22

>  <cluster>  (6) 
1

$$$$

     RDKit          3D

 51 54  0  0  0  0  0  0  0  0999 V2000
  141.0840   69.4110  226.4190 C   0  0  0  0  0  0  0  0  0  0  0  0
  140.7150   70.7460  225.9950 N   0  0  0  0  0  0  0  0  0  0  0  0
  141.1180   71.9160  226.7550 C   0  0  0  0  0  0  0  0  0  0  0  0
  139.9460   70.9070  224.8160 C   0  0  0  0  0  0  0  0  0  0  0  0
  138.9130   70.0290  224.5840 C   0  0  0  0  0  0  0  0  0  0  0  0
  138.1700   70.1930  223.4350 C   0  0  0  0  0  0  0  0  0  0  0  0
  138.4670   71.2190  222.5430 C   0  0  0  0  0  0  0  0  0  0  0  0
  139.4980   72.1080  222.7550 C   0  0  0  0  0  0  0  0  0  0  0  0
  139.8370   73.1870  221.8510 C   0  0  0  0  0  0  0  0  0  0  0  0
  141.0650   73.6260  221.6420 C   0  0  0  0  0  0  0  0  0  0  0  0
  141.3210   75.0430  221.3540 C   0  0  0  0  0  0  0  0  0  0  0  0
  140.8590   75.9210  222.2680 N   0  0  0  0  0  0  0  0  0  0  0  0
  141.0110   77.2500  222.1010 C   0  0  0  0  0  0  0  0  0  0  0  0
  140.5410   78.1680  223.0290 C   0  0  0  0  0  0  0  0  0  0  0  0
  140.7160   79.5190  222.8220 C   0  0  0  0  0  0  0  0  0  0  0  0
  141.3670   79.9700  221.6760 C   0  0  0  0  0  0  0  0  0  0  0  0
  141.5600   81.2910  221.4330 F   0  0  0  0  0  0  0  0  0  0  0  0
  141.8320   79.0380  220.7530 C   0  0  0  0  0  0  0  0  0  0  0  0
  141.6500   77.6680  220.9710 C   0  0  0  0  0  0  0  0  0  0  0  0
  142.1190   76.7430  220.0440 C   0  0  0  0  0  0  0  0  0  0  0  0
  142.6920   77.2230  219.0380 O   0  0  0  0  0  0  0  0  0  0  0  0
  141.9570   75.4030  220.2310 N   0  0  0  0  0  0  0  0  0  0  0  0
  142.4570   74.4750  219.2460 C   0  0  0  0  0  0  0  0  0  0  0  0
  143.8030   73.9770  219.5300 C   0  0  0  0  0  0  0  0  0  0  0  0
  144.2970   74.0630  220.8400 C   0  0  0  0  0  0  0  0  0  0  0  0
  145.5670   73.6020  221.1590 C   0  0  0  0  0  0  0  0  0  0  0  0
  146.3850   73.0450  220.2090 C   0  0  0  0  0  0  0  0  0  0  0  0
  145.9040   72.9660  218.9560 N   0  0  0  0  0  0  0  0  0  0  0  0
  144.6620   73.4110  218.6170 C   0  0  0  0  0  0  0  0  0  0  0  0
  140.2300   71.9190  223.9230 C   0  0  0  0  0  0  0  0  0  0  0  0
  141.0965   69.3657  227.5180 H   0  0  0  0  0  0  0  0  0  0  0  0
  140.3522   68.6875  226.0305 H   0  0  0  0  0  0  0  0  0  0  0  0
  142.0835   69.1660  226.0305 H   0  0  0  0  0  0  0  0  0  0  0  0
  141.0430   71.6982  227.8306 H   0  0  0  0  0  0  0  0  0  0  0  0
  142.1573   72.1755  226.5050 H   0  0  0  0  0  0  0  0  0  0  0  0
  140.4589   72.7605  226.5050 H   0  0  0  0  0  0  0  0  0  0  0  0
  138.6867   69.2201  225.2943 H   0  0  0  0  0  0  0  0  0  0  0  0
  137.3362   69.5080  223.2214 H   0  0  0  0  0  0  0  0  0  0  0  0
  137.8557   71.3242  221.6346 H   0  0  0  0  0  0  0  0  0  0  0  0
  139.0174   73.6734  221.3018 H   0  0  0  0  0  0  0  0  0  0  0  0
  141.9078   72.9203  221.6843 H   0  0  0  0  0  0  0  0  0  0  0  0
  140.0259   77.8155  223.9348 H   0  0  0  0  0  0  0  0  0  0  0  0
  140.3415   80.2416  223.5620 H   0  0  0  0  0  0  0  0  0  0  0  0
  142.3473   79.3815  219.8439 H   0  0  0  0  0  0  0  0  0  0  0  0
  141.7721   73.6154  219.2009 H   0  0  0  0  0  0  0  0  0  0  0  0
  142.5131   75.0209  218.2926 H   0  0  0  0  0  0  0  0  0  0  0  0
  143.6677   74.5030  221.6276 H   0  0  0  0  0  0  0  0  0  0  0  0
  145.9251   73.6851  222.1958 H   0  0  0  0  0  0  0  0  0  0  0  0
  147.3910   72.6788  220.4615 H   0  0  0  0  0  0  0  0  0  0  0  0
  144.3331   73.3139  217.5718 H   0  0  0  0  0  0  0  0  0  0  0  0
  141.0649   72.6009  224.1420 H   0  0  0  0  0  0  0  0  0  0  0  0
  1  2  1  0
  2  3  1  0
  2  4  1  0
  4  5  2  0
  5  6  1  0
  6  7  2  0
  7  8  1  0
  8  9  1  0
  9 10  2  0
 10 11  1  0
 11 12  2  0
 12 13  1  0
 13 14  2  0
 14 15  1  0
 15 16  2  0
 16 17  1  0
 16 18  1  0
 18 19  2  0
 19 20  1  0
 20 21  2  0
 20 22  1  0
 22 23  1  0
 23 24  1  0
 24 25  2  0
 25 26  1  0
 26 27  2  0
 27 28  1  0
 28 29  2  0
  8 30  2  0
 30  4  1  0
 22 11  1  0
 29 24  1  0
 19 13  1  0
  1 31  1  0
  1 32  1  0
  1 33  1  0
  3 34  1  0
  3 35  1  0
  3 36  1  0
  5 37  1  0
  6 38  1  0
  7 39  1  0
  9 40  1  0
 10 41  1  0
 14 42  1  0
 15 43  1  0
 18 44  1  0
 23 45  1  0
 23 46  1  0
 25 47  1  0
 26 48  1  0
 27 49  1  0
 29 50  1  0
 30 51  1  0
M  END
>  <smiles>  (7) 
CN(C)c1cccc(/C=C/c2nc3ccc(F)cc3c(=O)n2Cc2cccnc2)c1

>  <score_type>  (7) 
oracle

>  <origin>  (7) 
autodockgpu

>  <m_score__min__energy>  (7) 
-8.6600000000000001

>  <m_primary>  (7) 
energy

>  <rmsd>  (7) 
5.276261399318911

>  <m_score__min__rmsd>  (7) 
5.276261399318911

>  <meeko>  (7) 
{"free_energy": -8.16, "intermolecular_energy": -9.95, "internal_energy": -1.16, "cluster_size": 30, "cluster_id": 1, "rank_in_cluster": 17}

>  <energy>  (7) 
-8.57

>  <cluster_rmsd>  (7) 
0.27

>  <cluster>  (7) 
1

$$$$

     RDKit          3D

 51 54  0  0  0  0  0  0  0  0999 V2000
  140.1460   70.3270  227.9930 C   0  0  0  0  0  0  0  0  0  0  0  0
  140.6110   71.1970  226.9320 N   0  0  0  0  0  0  0  0  0  0  0  0
  141.4410   72.3550  227.2160 C   0  0  0  0  0  0  0  0  0  0  0  0
  140.2470   70.9070  225.5940 C   0  0  0  0  0  0  0  0  0  0  0  0
  139.4940   69.7810  225.3510 C   0  0  0  0  0  0  0  0  0  0  0  0
  139.1440   69.5070  224.0460 C   0  0  0  0  0  0  0  0  0  0  0  0
  139.5460   70.3510  223.0150 C   0  0  0  0  0  0  0  0  0  0  0  0
  140.3000   71.4820  223.2370 C   0  0  0  0  0  0  0  0  0  0  0  0
  140.7370   72.3830  222.1910 C   0  0  0  0  0  0  0  0  0  0  0  0
  139.9960   73.3530  221.6850 C   0  0  0  0  0  0  0  0  0  0  0  0
  140.5500   74.6970  221.4800 C   0  0  0  0  0  0  0  0  0  0  0  0
  140.0700   75.6600  222.2930 N   0  0  0  0  0  0  0  0  0  0  0  0
  140.4840   76.9380  222.1840 C   0  0  0  0  0  0  0  0  0  0  0  0
  140.0010   77.9430  223.0100 C   0  0  0  0  0  0  0  0  0  0  0  0
  140.4480   79.2380  222.8670 C   0  0  0  0  0  0  0  0  0  0  0  0
  141.3910   79.5450  221.8880 C   0  0  0  0  0  0  0  0  0  0  0  0
  141.8580   80.8070  221.7120 F   0  0  0  0  0  0  0  0  0  0  0  0
  141.8660   78.5290  221.0660 C   0  0  0  0  0  0  0  0  0  0  0  0
  141.4060   77.2160  221.2180 C   0  0  0  0  0  0  0  0  0  0  0  0
  141.8860   76.2050  220.3930 C   0  0  0  0  0  0  0  0  0  0  0  0
  142.7300   76.5570  219.5350 O   0  0  0  0  0  0  0  0  0  0  0  0
  141.4570   74.9180  220.5190 N   0  0  0  0  0  0  0  0  0  0  0  0
  141.9800   73.8980  219.6430 C   0  0  0  0  0  0  0  0  0  0  0  0
  143.4270   73.7120  219.7450 C   0  0  0  0  0  0  0  0  0  0  0  0
  144.1240   73.1830  218.6480 C   0  0  0  0  0  0  0  0  0  0  0  0
  145.4980   72.9910  218.6960 C   0  0  0  0  0  0  0  0  0  0  0  0
  146.2260   73.3100  219.8130 C   0  0  0  0  0  0  0  0  0  0  0  0
  145.5510   73.8180  220.8590 N   0  0  0  0  0  0  0  0  0  0  0  0
  144.2040   74.0160  220.8390 C   0  0  0  0  0  0  0  0  0  0  0  0
  140.6390   71.7350  224.5620 C   0  0  0  0  0  0  0  0  0  0  0  0
  140.3863   70.7767  228.9677 H   0  0  0  0  0  0  0  0  0  0  0  0
  139.0572   70.1953  227.9084 H   0  0  0  0  0  0  0  0  0  0  0  0
  140.6414   69.3485  227.9084 H   0  0  0  0  0  0  0  0  0  0  0  0
  141.5324   72.4825  228.3048 H   0  0  0  0  0  0  0  0  0  0  0  0
  142.4395   72.2064  226.7791 H   0  0  0  0  0  0  0  0  0  0  0  0
  140.9795   73.2529  226.7791 H   0  0  0  0  0  0  0  0  0  0  0  0
  139.1811   69.1200  226.1727 H   0  0  0  0  0  0  0  0  0  0  0  0
  138.5425   68.6147  223.8179 H   0  0  0  0  0  0  0  0  0  0  0  0
  139.2505   70.1056  221.9842 H   0  0  0  0  0  0  0  0  0  0  0  0
  141.7532   72.2512  221.7911 H   0  0  0  0  0  0  0  0  0  0  0  0
  138.9494   73.1506  221.4136 H   0  0  0  0  0  0  0  0  0  0  0  0
  139.2566   77.7040  223.7837 H   0  0  0  0  0  0  0  0  0  0  0  0
  140.0607   80.0296  223.5254 H   0  0  0  0  0  0  0  0  0  0  0  0
  142.6100   78.7594  220.2892 H   0  0  0  0  0  0  0  0  0  0  0  0
  141.4903   72.9447  219.8908 H   0  0  0  0  0  0  0  0  0  0  0  0
  141.7727   74.2253  218.6135 H   0  0  0  0  0  0  0  0  0  0  0  0
  143.5723   72.9159  217.7346 H   0  0  0  0  0  0  0  0  0  0  0  0
  146.0139   72.5738  217.8186 H   0  0  0  0  0  0  0  0  0  0  0  0
  147.3146   73.1571  219.8518 H   0  0  0  0  0  0  0  0  0  0  0  0
  143.7181   74.4353  221.7323 H   0  0  0  0  0  0  0  0  0  0  0  0
  141.2404   72.6260  224.7953 H   0  0  0  0  0  0  0  0  0  0  0  0
  1  2  1  0
  2  3  1  0
  2  4  1  0
  4  5  2  0
  5  6  1  0
  6  7  2  0
  7  8  1  0
  8  9  1  0
  9 10  2  0
 10 11  1  0
 11 12  2  0
 12 13  1  0
 13 14  2  0
 14 15  1  0
 15 16  2  0
 16 17  1  0
 16 18  1  0
 18 19  2  0
 19 20  1  0
 20 21  2  0
 20 22  1  0
 22 23  1  0
 23 24  1  0
 24 25  2  0
 25 26  1  0
 26 27  2  0
 27 28  1  0
 28 29  2  0
  8 30  2  0
 30  4  1  0
 22 11  1  0
 29 24  1  0
 19 13  1  0
  1 31  1  0
  1 32  1  0
  1 33  1  0
  3 34  1  0
  3 35  1  0
  3 36  1  0
  5 37  1  0
  6 38  1  0
  7 39  1  0
  9 40  1  0
 10 41  1  0
 14 42  1  0
 15 43  1  0
 18 44  1  0
 23 45  1  0
 23 46  1  0
 25 47  1  0
 26 48  1  0
 27 49  1  0
 29 50  1  0
 30 51  1  0
M  END
>  <smiles>  (8) 
CN(C)c1cccc(/C=C/c2nc3ccc(F)cc3c(=O)n2Cc2cccnc2)c1

>  <score_type>  (8) 
oracle

>  <origin>  (8) 
autodockgpu

>  <m_score__min__energy>  (8) 
-8.6600000000000001

>  <m_primary>  (8) 
energy

>  <rmsd>  (8) 
5.06918455207498

>  <m_score__min__rmsd>  (8) 
5.06918455207498

>  <meeko>  (8) 
{"free_energy": -7.71, "intermolecular_energy": -9.49, "internal_energy": -1.12, "cluster_size": 30, "cluster_id": 1, "rank_in_cluster": 26}

>  <energy>  (8) 
-8.56

>  <cluster_rmsd>  (8) 
0.27

>  <cluster>  (8) 
1

$$$$

     RDKit          3D

 51 54  0  0  0  0  0  0  0  0999 V2000
  139.2040   69.9460  228.7110 C   0  0  0  0  0  0  0  0  0  0  0  0
  139.9770   69.3550  227.6380 N   0  0  0  0  0  0  0  0  0  0  0  0
  140.7450   68.1400  227.8440 C   0  0  0  0  0  0  0  0  0  0  0  0
  139.9790   69.9800  226.3660 C   0  0  0  0  0  0  0  0  0  0  0  0
  140.6610   71.1650  226.2210 C   0  0  0  0  0  0  0  0  0  0  0  0
  140.6590   71.7660  224.9810 C   0  0  0  0  0  0  0  0  0  0  0  0
  139.9820   71.1810  223.9150 C   0  0  0  0  0  0  0  0  0  0  0  0
  139.2920   69.9940  224.0380 C   0  0  0  0  0  0  0  0  0  0  0  0
  138.5770   69.3560  222.9540 C   0  0  0  0  0  0  0  0  0  0  0  0
  137.4100   69.7640  222.4880 C   0  0  0  0  0  0  0  0  0  0  0  0
  136.5430   70.6400  223.2870 C   0  0  0  0  0  0  0  0  0  0  0  0
  136.0520   70.1040  224.4220 N   0  0  0  0  0  0  0  0  0  0  0  0
  135.2240   70.8020  225.2240 C   0  0  0  0  0  0  0  0  0  0  0  0
  134.7070   70.2680  226.3950 C   0  0  0  0  0  0  0  0  0  0  0  0
  133.8630   71.0130  227.1890 C   0  0  0  0  0  0  0  0  0  0  0  0
  133.5240   72.3120  226.8170 C   0  0  0  0  0  0  0  0  0  0  0  0
  132.6970   73.0820  227.5690 F   0  0  0  0  0  0  0  0  0  0  0  0
  134.0490   72.8360  225.6400 C   0  0  0  0  0  0  0  0  0  0  0  0
  134.9050   72.0710  224.8400 C   0  0  0  0  0  0  0  0  0  0  0  0
  135.4260   72.6030  223.6650 C   0  0  0  0  0  0  0  0  0  0  0  0
  135.0760   73.7760  223.3950 O   0  0  0  0  0  0  0  0  0  0  0  0
  136.2630   71.8820  222.8670 N   0  0  0  0  0  0  0  0  0  0  0  0
  136.7820   72.4680  221.6550 C   0  0  0  0  0  0  0  0  0  0  0  0
  137.7910   73.5030  221.8820 C   0  0  0  0  0  0  0  0  0  0  0  0
  137.3720   74.8230  222.1090 C   0  0  0  0  0  0  0  0  0  0  0  0
  138.2910   75.8390  222.3320 C   0  0  0  0  0  0  0  0  0  0  0  0
  139.6410   75.5930  222.3400 C   0  0  0  0  0  0  0  0  0  0  0  0
  140.0340   74.3260  222.1220 N   0  0  0  0  0  0  0  0  0  0  0  0
  139.1530   73.3110  221.9010 C   0  0  0  0  0  0  0  0  0  0  0  0
  139.3120   69.4110  225.3010 C   0  0  0  0  0  0  0  0  0  0  0  0
  139.6186   69.6290  229.6793 H   0  0  0  0  0  0  0  0  0  0  0  0
  139.2487   71.0424  228.6343 H   0  0  0  0  0  0  0  0  0  0  0  0
  138.1577   69.6154  228.6343 H   0  0  0  0  0  0  0  0  0  0  0  0
  140.8603   67.9576  228.9226 H   0  0  0  0  0  0  0  0  0  0  0  0
  140.2190   67.2911  227.3827 H   0  0  0  0  0  0  0  0  0  0  0  0
  141.7374   68.2509  227.3827 H   0  0  0  0  0  0  0  0  0  0  0  0
  141.1926   71.6199  227.0698 H   0  0  0  0  0  0  0  0  0  0  0  0
  141.1961   72.7145  224.8327 H   0  0  0  0  0  0  0  0  0  0  0  0
  139.9981   71.6849  222.9373 H   0  0  0  0  0  0  0  0  0  0  0  0
  139.0357   68.4722  222.4866 H   0  0  0  0  0  0  0  0  0  0  0  0
  137.0832   69.4432  221.4879 H   0  0  0  0  0  0  0  0  0  0  0  0
  134.9727   69.2426  226.6917 H   0  0  0  0  0  0  0  0  0  0  0  0
  133.4570   70.5824  228.1162 H   0  0  0  0  0  0  0  0  0  0  0  0
  133.7889   73.8606  225.3356 H   0  0  0  0  0  0  0  0  0  0  0  0
  137.2355   71.6688  221.0504 H   0  0  0  0  0  0  0  0  0  0  0  0
  135.9356   72.9531  221.1469 H   0  0  0  0  0  0  0  0  0  0  0  0
  136.2970   75.0564  222.1102 H   0  0  0  0  0  0  0  0  0  0  0  0
  137.9294   76.8632  222.5060 H   0  0  0  0  0  0  0  0  0  0  0  0
  140.3699   76.3976  222.5171 H   0  0  0  0  0  0  0  0  0  0  0  0
  139.5461   72.2978  221.7310 H   0  0  0  0  0  0  0  0  0  0  0  0
  138.7769   68.4625  225.4559 H   0  0  0  0  0  0  0  0  0  0  0  0
  1  2  1  0
  2  3  1  0
  2  4  1  0
  4  5  2  0
  5  6  1  0
  6  7  2  0
  7  8  1  0
  8  9  1  0
  9 10  2  0
 10 11  1  0
 11 12  2  0
 12 13  1  0
 13 14  2  0
 14 15  1  0
 15 16  2  0
 16 17  1  0
 16 18  1  0
 18 19  2  0
 19 20  1  0
 20 21  2  0
 20 22  1  0
 22 23  1  0
 23 24  1  0
 24 25  2  0
 25 26  1  0
 26 27  2  0
 27 28  1  0
 28 29  2  0
  8 30  2  0
 30  4  1  0
 22 11  1  0
 29 24  1  0
 19 13  1  0
  1 31  1  0
  1 32  1  0
  1 33  1  0
  3 34  1  0
  3 35  1  0
  3 36  1  0
  5 37  1  0
  6 38  1  0
  7 39  1  0
  9 40  1  0
 10 41  1  0
 14 42  1  0
 15 43  1  0
 18 44  1  0
 23 45  1  0
 23 46  1  0
 25 47  1  0
 26 48  1  0
 27 49  1  0
 29 50  1  0
 30 51  1  0
M  END
>  <smiles>  (9) 
CN(C)c1cccc(/C=C/c2nc3ccc(F)cc3c(=O)n2Cc2cccnc2)c1

>  <score_type>  (9) 
oracle

>  <origin>  (9) 
autodockgpu

>  <m_score__min__energy>  (9) 
-8.6600000000000001

>  <m_primary>  (9) 
energy

>  <rmsd>  (9) 
9.232957995206565

>  <m_score__min__rmsd>  (9) 
9.232957995206565

>  <meeko>  (9) 
{"free_energy": -6.49, "intermolecular_energy": -8.28, "internal_energy": -1.88, "cluster_size": 1, "cluster_id": 8, "rank_in_cluster": 1}

>  <energy>  (9) 
-8.53

>  <cluster_rmsd>  (9) 
0.34

>  <cluster>  (9) 
1

$$$$

     RDKit          3D

 51 54  0  0  0  0  0  0  0  0999 V2000
  140.9110   70.0500  227.9900 C   0  0  0  0  0  0  0  0  0  0  0  0
  140.9170   71.0830  226.9740 N   0  0  0  0  0  0  0  0  0  0  0  0
  141.4760   72.3970  227.2400 C   0  0  0  0  0  0  0  0  0  0  0  0
  140.3670   70.8000  225.7000 C   0  0  0  0  0  0  0  0  0  0  0  0
  139.3810   69.8440  225.6110 C   0  0  0  0  0  0  0  0  0  0  0  0
  138.8500   69.5750  224.3680 C   0  0  0  0  0  0  0  0  0  0  0  0
  139.3080   70.2560  223.2430 C   0  0  0  0  0  0  0  0  0  0  0  0
  140.2940   71.2150  223.3100 C   0  0  0  0  0  0  0  0  0  0  0  0
  140.7960   71.9430  222.1640 C   0  0  0  0  0  0  0  0  0  0  0  0
  140.1000   72.8380  221.4850 C   0  0  0  0  0  0  0  0  0  0  0  0
  140.6270   74.1900  221.2570 C   0  0  0  0  0  0  0  0  0  0  0  0
  140.1070   75.1620  222.0330 N   0  0  0  0  0  0  0  0  0  0  0  0
  140.4940   76.4460  221.8980 C   0  0  0  0  0  0  0  0  0  0  0  0
  139.9700   77.4600  222.6870 C   0  0  0  0  0  0  0  0  0  0  0  0
  140.3900   78.7620  222.5190 C   0  0  0  0  0  0  0  0  0  0  0  0
  141.3460   79.0650  221.5520 C   0  0  0  0  0  0  0  0  0  0  0  0
  141.7890   80.3320  221.3530 F   0  0  0  0  0  0  0  0  0  0  0  0
  141.8630   78.0380  220.7680 C   0  0  0  0  0  0  0  0  0  0  0  0
  141.4300   76.7200  220.9460 C   0  0  0  0  0  0  0  0  0  0  0  0
  141.9520   75.6990  220.1580 C   0  0  0  0  0  0  0  0  0  0  0  0
  142.8060   76.0480  219.3100 O   0  0  0  0  0  0  0  0  0  0  0  0
  141.5500   74.4060  220.3090 N   0  0  0  0  0  0  0  0  0  0  0  0
  142.1150   73.3760  219.4730 C   0  0  0  0  0  0  0  0  0  0  0  0
  143.5600   73.2100  219.6290 C   0  0  0  0  0  0  0  0  0  0  0  0
  144.1630   73.6040  220.8330 C   0  0  0  0  0  0  0  0  0  0  0  0
  145.5300   73.4650  221.0300 C   0  0  0  0  0  0  0  0  0  0  0  0
  146.3420   72.9370  220.0580 C   0  0  0  0  0  0  0  0  0  0  0  0
  145.7560   72.5620  218.9080 N   0  0  0  0  0  0  0  0  0  0  0  0
  144.4180   72.6880  218.6890 C   0  0  0  0  0  0  0  0  0  0  0  0
  140.8110   71.4660  224.5770 C   0  0  0  0  0  0  0  0  0  0  0  0
  140.9137   70.5158  228.9865 H   0  0  0  0  0  0  0  0  0  0  0  0
  140.0092   69.4302  227.8774 H   0  0  0  0  0  0  0  0  0  0  0  0
  141.8055   69.4198  227.8774 H   0  0  0  0  0  0  0  0  0  0  0  0
  141.5428   72.5539  228.3267 H   0  0  0  0  0  0  0  0  0  0  0  0
  142.4807   72.4645  226.7974 H   0  0  0  0  0  0  0  0  0  0  0  0
  140.8278   73.1677  226.7974 H   0  0  0  0  0  0  0  0  0  0  0  0
  139.0272   69.3104  226.5055 H   0  0  0  0  0  0  0  0  0  0  0  0
  138.0593   68.8174  224.2639 H   0  0  0  0  0  0  0  0  0  0  0  0
  138.8656   70.0190  222.2642 H   0  0  0  0  0  0  0  0  0  0  0  0
  141.8258   71.7375  221.8364 H   0  0  0  0  0  0  0  0  0  0  0  0
  139.1120   72.5666  221.0849 H   0  0  0  0  0  0  0  0  0  0  0  0
  139.2149   77.2234  223.4511 H   0  0  0  0  0  0  0  0  0  0  0  0
  139.9707   79.5612  223.1479 H   0  0  0  0  0  0  0  0  0  0  0  0
  142.6188   78.2648  220.0016 H   0  0  0  0  0  0  0  0  0  0  0  0
  141.6281   72.4218  219.7228 H   0  0  0  0  0  0  0  0  0  0  0  0
  141.9400   73.6802  218.4305 H   0  0  0  0  0  0  0  0  0  0  0  0
  143.5419   74.0303  221.6345 H   0  0  0  0  0  0  0  0  0  0  0  0
  145.9716   73.7848  221.9853 H   0  0  0  0  0  0  0  0  0  0  0  0
  147.4253   72.8255  220.2132 H   0  0  0  0  0  0  0  0  0  0  0  0
  144.0072   72.3596  217.7228 H   0  0  0  0  0  0  0  0  0  0  0  0
  141.6020   72.2225  224.6869 H   0  0  0  0  0  0  0  0  0  0  0  0
  1  2  1  0
  2  3  1  0
  2  4  1  0
  4  5  2  0
  5  6  1  0
  6  7  2  0
  7  8  1  0
  8  9  1  0
  9 10  2  0
 10 11  1  0
 11 12  2  0
 12 13  1  0
 13 14  2  0
 14 15  1  0
 15 16  2  0
 16 17  1  0
 16 18  1  0
 18 19  2  0
 19 20  1  0
 20 21  2  0
 20 22  1  0
 22 23  1  0
 23 24  1  0
 24 25  2  0
 25 26  1  0
 26 27  2  0
 27 28  1  0
 28 29  2  0
  8 30  2  0
 30  4  1  0
 22 11  1  0
 29 24  1  0
 19 13  1  0
  1 31  1  0
  1 32  1  0
  1 33  1  0
  3 34  1  0
  3 35  1  0
  3 36  1  0
  5 37  1  0
  6 38  1  0
  7 39  1  0
  9 40  1  0
 10 41  1  0
 14 42  1  0
 15 43  1  0
 18 44  1  0
 23 45  1  0
 23 46  1  0
 25 47  1  0
 26 48  1  0
 27 49  1  0
 29 50  1  0
 30 51  1  0
M  END
>  <smiles>  (10) 
CN(C)c1cccc(/C=C/c2nc3ccc(F)cc3c(=O)n2Cc2cccnc2)c1

>  <score_type>  (10) 
oracle

>  <origin>  (10) 
autodockgpu

>  <m_score__min__energy>  (10) 
-8.6600000000000001

>  <m_primary>  (10) 
energy

>  <rmsd>  (10) 
5.53705127025748

>  <m_score__min__rmsd>  (10) 
5.53705127025748

>  <meeko>  (10) 
{"free_energy": -8.5, "intermolecular_energy": -10.29, "internal_energy": -1.19, "cluster_size": 30, "cluster_id": 1, "rank_in_cluster": 10}

>  <energy>  (10) 
-8.5

>  <cluster_rmsd>  (10) 
0.24

>  <cluster>  (10) 
1

$$$$

     RDKit          3D

 51 54  0  0  0  0  0  0  0  0999 V2000
  141.8160   77.1610  220.2920 C   0  0  0  0  0  0  0  0  0  0  0  0
  141.1570   76.3120  221.2640 N   0  0  0  0  0  0  0  0  0  0  0  0
  140.2800   76.8690  222.2780 C   0  0  0  0  0  0  0  0  0  0  0  0
  141.3770   74.9130  221.2170 C   0  0  0  0  0  0  0  0  0  0  0  0
  142.6160   74.4580  220.8330 C   0  0  0  0  0  0  0  0  0  0  0  0
  142.8220   73.0960  220.7910 C   0  0  0  0  0  0  0  0  0  0  0  0
  141.7960   72.2170  221.1280 C   0  0  0  0  0  0  0  0  0  0  0  0
  140.5470   72.6520  221.5150 C   0  0  0  0  0  0  0  0  0  0  0  0
  139.4570   71.7690  221.8740 C   0  0  0  0  0  0  0  0  0  0  0  0
  138.8110   71.8120  223.0240 C   0  0  0  0  0  0  0  0  0  0  0  0
  139.1860   70.9260  224.1350 C   0  0  0  0  0  0  0  0  0  0  0  0
  139.8860   71.5010  225.1330 N   0  0  0  0  0  0  0  0  0  0  0  0
  140.3090   70.7840  226.1930 C   0  0  0  0  0  0  0  0  0  0  0  0
  141.0320   71.3560  227.2300 C   0  0  0  0  0  0  0  0  0  0  0  0
  141.4470   70.5900  228.2970 C   0  0  0  0  0  0  0  0  0  0  0  0
  141.1410   69.2310  228.3390 C   0  0  0  0  0  0  0  0  0  0  0  0
  141.5290   68.4400  229.3710 F   0  0  0  0  0  0  0  0  0  0  0  0
  140.4160   68.6700  227.2930 C   0  0  0  0  0  0  0  0  0  0  0  0
  139.9990   69.4560  226.2130 C   0  0  0  0  0  0  0  0  0  0  0  0
  139.2740   68.8870  225.1720 C   0  0  0  0  0  0  0  0  0  0  0  0
  139.0380   67.6600  225.2780 O   0  0  0  0  0  0  0  0  0  0  0  0
  138.8540   69.6280  224.1080 N   0  0  0  0  0  0  0  0  0  0  0  0
  138.1040   69.0010  223.0470 C   0  0  0  0  0  0  0  0  0  0  0  0
  136.7050   68.7400  223.3830 C   0  0  0  0  0  0  0  0  0  0  0  0
  136.1560   69.3420  224.5250 C   0  0  0  0  0  0  0  0  0  0  0  0
  134.8330   69.1270  224.8840 C   0  0  0  0  0  0  0  0  0  0  0  0
  134.0120   68.3200  224.1380 C   0  0  0  0  0  0  0  0  0  0  0  0
  134.5450   67.7480  223.0450 N   0  0  0  0  0  0  0  0  0  0  0  0
  135.8400   67.9410  222.6710 C   0  0  0  0  0  0  0  0  0  0  0  0
  140.3690   74.0310  221.5490 C   0  0  0  0  0  0  0  0  0  0  0  0
  142.4093   77.9254  220.8152 H   0  0  0  0  0  0  0  0  0  0  0  0
  142.4790   76.5504  219.6615 H   0  0  0  0  0  0  0  0  0  0  0  0
  141.0600   77.6518  219.6615 H   0  0  0  0  0  0  0  0  0  0  0  0
  140.6700   76.6213  223.2763 H   0  0  0  0  0  0  0  0  0  0  0  0
  140.2343   77.9620  222.1630 H   0  0  0  0  0  0  0  0  0  0  0  0
  139.2712   76.4457  222.1630 H   0  0  0  0  0  0  0  0  0  0  0  0
  143.4196   75.1605  220.5670 H   0  0  0  0  0  0  0  0  0  0  0  0
  143.8032   72.7007  220.4893 H   0  0  0  0  0  0  0  0  0  0  0  0
  141.9897   71.1351  221.0837 H   0  0  0  0  0  0  0  0  0  0  0  0
  139.1466   71.0117  221.1390 H   0  0  0  0  0  0  0  0  0  0  0  0
  137.9800   72.5211  223.1528 H   0  0  0  0  0  0  0  0  0  0  0  0
  141.2754   72.4283  227.1998 H   0  0  0  0  0  0  0  0  0  0  0  0
  142.0196   71.0507  229.1155 H   0  0  0  0  0  0  0  0  0  0  0  0
  140.1681   67.5985  227.3149 H   0  0  0  0  0  0  0  0  0  0  0  0
  138.1314   69.6607  222.1672 H   0  0  0  0  0  0  0  0  0  0  0  0
  138.5740   68.0245  222.8583 H   0  0  0  0  0  0  0  0  0  0  0  0
  136.7853   69.9959  225.1467 H   0  0  0  0  0  0  0  0  0  0  0  0
  134.4340   69.6140  225.7860 H   0  0  0  0  0  0  0  0  0  0  0  0
  132.9632   68.1486  224.4221 H   0  0  0  0  0  0  0  0  0  0  0  0
  136.2090   67.4387  221.7646 H   0  0  0  0  0  0  0  0  0  0  0  0
  139.3905   74.4326  221.8511 H   0  0  0  0  0  0  0  0  0  0  0  0
  1  2  1  0
  2  3  1  0
  2  4  1  0
  4  5  2  0
  5  6  1  0
  6  7  2  0
  7  8  1  0
  8  9  1  0
  9 10  2  0
 10 11  1  0
 11 12  2  0
 12 13  1  0
 13 14  2  0
 14 15  1  0
 15 16  2  0
 16 17  1  0
 16 18  1  0
 18 19  2  0
 19 20  1  0
 20 21  2  0
 20 22  1  0
 22 23  1  0
 23 24  1  0
 24 25  2  0
 25 26  1  0
 26 27  2  0
 27 28  1  0
 28 29  2  0
  8 30  2  0
 30  4  1  0
 22 11  1  0
 29 24  1  0
 19 13  1  0
  1 31  1  0
  1 32  1  0
  1 33  1  0
  3 34  1  0
  3 35  1  0
  3 36  1  0
  5 37  1  0
  6 38  1  0
  7 39  1  0
  9 40  1  0
 10 41  1  0
 14 42  1  0
 15 43  1  0
 18 44  1  0
 23 45  1  0
 23 46  1  0
 25 47  1  0
 26 48  1  0
 27 49  1  0
 29 50  1  0
 30 51  1  0
M  END
>  <smiles>  (11) 
CN(C)c1cccc(/C=C/c2nc3ccc(F)cc3c(=O)n2Cc2cccnc2)c1

>  <score_type>  (11) 
oracle

>  <origin>  (11) 
autodockgpu

>  <m_score__min__energy>  (11) 
-8.6600000000000001

>  <m_primary>  (11) 
energy

>  <rmsd>  (11) 
11.70209350472132

>  <m_score__min__rmsd>  (11) 
11.70209350472132

>  <meeko>  (11) 
{"free_energy": -7.42, "intermolecular_energy": -9.21, "internal_energy": -1.25, "cluster_size": 12, "cluster_id": 2, "rank_in_cluster": 11}

>  <energy>  (11) 
-8.49

>  <cluster_rmsd>  (11) 
0.61

>  <cluster>  (11) 
1

$$$$

     RDKit          3D

 51 54  0  0  0  0  0  0  0  0999 V2000
  141.1120   71.8900  226.7480 C   0  0  0  0  0  0  0  0  0  0  0  0
  140.7360   70.6920  226.0250 N   0  0  0  0  0  0  0  0  0  0  0  0
  141.0490   69.3710  226.5420 C   0  0  0  0  0  0  0  0  0  0  0  0
  140.0520   70.8180  224.7910 C   0  0  0  0  0  0  0  0  0  0  0  0
  139.1780   69.8220  224.4230 C   0  0  0  0  0  0  0  0  0  0  0  0
  138.5160   69.9530  223.2220 C   0  0  0  0  0  0  0  0  0  0  0  0
  138.7350   71.0650  222.4130 C   0  0  0  0  0  0  0  0  0  0  0  0
  139.6060   72.0730  222.7620 C   0  0  0  0  0  0  0  0  0  0  0  0
  139.8600   73.2430  221.9480 C   0  0  0  0  0  0  0  0  0  0  0  0
  141.0630   73.6610  221.5980 C   0  0  0  0  0  0  0  0  0  0  0  0
  141.3220   75.0840  221.3410 C   0  0  0  0  0  0  0  0  0  0  0  0
  140.8610   75.9420  222.2730 N   0  0  0  0  0  0  0  0  0  0  0  0
  141.0160   77.2740  222.1350 C   0  0  0  0  0  0  0  0  0  0  0  0
  140.5480   78.1730  223.0820 C   0  0  0  0  0  0  0  0  0  0  0  0
  140.7260   79.5280  222.9050 C   0  0  0  0  0  0  0  0  0  0  0  0
  141.3790   80.0020  221.7690 C   0  0  0  0  0  0  0  0  0  0  0  0
  141.5760   81.3280  221.5550 F   0  0  0  0  0  0  0  0  0  0  0  0
  141.8430   79.0890  220.8270 C   0  0  0  0  0  0  0  0  0  0  0  0
  141.6580   77.7160  221.0160 C   0  0  0  0  0  0  0  0  0  0  0  0
  142.1260   76.8100  220.0690 C   0  0  0  0  0  0  0  0  0  0  0  0
  142.7020   77.3100  219.0740 O   0  0  0  0  0  0  0  0  0  0  0  0
  141.9600   75.4660  220.2260 N   0  0  0  0  0  0  0  0  0  0  0  0
  142.4600   74.5590  219.2220 C   0  0  0  0  0  0  0  0  0  0  0  0
  143.7900   74.0240  219.5140 C   0  0  0  0  0  0  0  0  0  0  0  0
  144.2920   74.1270  220.8200 C   0  0  0  0  0  0  0  0  0  0  0  0
  145.5470   73.6320  221.1470 C   0  0  0  0  0  0  0  0  0  0  0  0
  146.3430   73.0250  220.2090 C   0  0  0  0  0  0  0  0  0  0  0  0
  145.8540   72.9300  218.9600 N   0  0  0  0  0  0  0  0  0  0  0  0
  144.6260   73.4070  218.6130 C   0  0  0  0  0  0  0  0  0  0  0  0
  140.2600   71.9150  223.9800 C   0  0  0  0  0  0  0  0  0  0  0  0
  141.0522   71.6994  227.8297 H   0  0  0  0  0  0  0  0  0  0  0  0
  142.1416   72.1711  226.4816 H   0  0  0  0  0  0  0  0  0  0  0  0
  140.4277   72.7090  226.4816 H   0  0  0  0  0  0  0  0  0  0  0  0
  141.0429   69.3967  227.6417 H   0  0  0  0  0  0  0  0  0  0  0  0
  140.2966   68.6509  226.1879 H   0  0  0  0  0  0  0  0  0  0  0  0
  142.0445   69.0651  226.1879 H   0  0  0  0  0  0  0  0  0  0  0  0
  139.0124   68.9468  225.0684 H   0  0  0  0  0  0  0  0  0  0  0  0
  137.8096   69.1738  222.8999 H   0  0  0  0  0  0  0  0  0  0  0  0
  138.1919   71.1411  221.4594 H   0  0  0  0  0  0  0  0  0  0  0  0
  138.9932   73.8225  221.5976 H   0  0  0  0  0  0  0  0  0  0  0  0
  141.8821   72.9337  221.4976 H   0  0  0  0  0  0  0  0  0  0  0  0
  140.0317   77.8021  223.9797 H   0  0  0  0  0  0  0  0  0  0  0  0
  140.3527   80.2352  223.6603 H   0  0  0  0  0  0  0  0  0  0  0  0
  142.3598   79.4505  219.9258 H   0  0  0  0  0  0  0  0  0  0  0  0
  141.7587   73.7158  219.1373 H   0  0  0  0  0  0  0  0  0  0  0  0
  142.5457   75.1335  218.2879 H   0  0  0  0  0  0  0  0  0  0  0  0
  143.6809   74.6081  221.5979 H   0  0  0  0  0  0  0  0  0  0  0  0
  145.9110   73.7286  222.1805 H   0  0  0  0  0  0  0  0  0  0  0  0
  147.3378   72.6331  220.4673 H   0  0  0  0  0  0  0  0  0  0  0  0
  144.2901   73.2943  217.5716 H   0  0  0  0  0  0  0  0  0  0  0  0
  140.9671   72.6913  224.3077 H   0  0  0  0  0  0  0  0  0  0  0  0
  1  2  1  0
  2  3  1  0
  2  4  1  0
  4  5  2  0
  5  6  1  0
  6  7  2  0
  7  8  1  0
  8  9  1  0
  9 10  2  0
 10 11  1  0
 11 12  2  0
 12 13  1  0
 13 14  2  0
 14 15  1  0
 15 16  2  0
 16 17  1  0
 16 18  1  0
 18 19  2  0
 19 20  1  0
 20 21  2  0
 20 22  1  0
 22 23  1  0
 23 24  1  0
 24 25  2  0
 25 26  1  0
 26 27  2  0
 27 28  1  0
 28 29  2  0
  8 30  2  0
 30  4  1  0
 22 11  1  0
 29 24  1  0
 19 13  1  0
  1 31  1  0
  1 32  1  0
  1 33  1  0
  3 34  1  0
  3 35  1  0
  3 36  1  0
  5 37  1  0
  6 38  1  0
  7 39  1  0
  9 40  1  0
 10 41  1  0
 14 42  1  0
 15 43  1  0
 18 44  1  0
 23 45  1  0
 23 46  1  0
 25 47  1  0
 26 48  1  0
 27 49  1  0
 29 50  1  0
 30 51  1  0
M  END
>  <smiles>  (12) 
CN(C)c1cccc(/C=C/c2nc3ccc(F)cc3c(=O)n2Cc2cccnc2)c1

>  <score_type>  (12) 
oracle

>  <origin>  (12) 
autodockgpu

>  <m_score__min__energy>  (12) 
-8.6600000000000001

>  <m_primary>  (12) 
energy

>  <rmsd>  (12) 
5.249353191319192

>  <m_score__min__rmsd>  (12) 
5.249353191319192

>  <meeko>  (12) 
{"free_energy": -8.23, "intermolecular_energy": -10.02, "internal_energy": -1.14, "cluster_size": 30, "cluster_id": 1, "rank_in_cluster": 14}

>  <energy>  (12) 
-8.42

>  <cluster_rmsd>  (12) 
0.5

>  <cluster>  (12) 
1

$$$$

     RDKit          3D

 51 54  0  0  0  0  0  0  0  0999 V2000
  141.2650   72.1870  227.3000 C   0  0  0  0  0  0  0  0  0  0  0  0
  140.7810   70.8390  227.0810 N   0  0  0  0  0  0  0  0  0  0  0  0
  141.0860   69.7690  228.0130 C   0  0  0  0  0  0  0  0  0  0  0  0
  139.9940   70.5680  225.9340 C   0  0  0  0  0  0  0  0  0  0  0  0
  139.1680   69.4680  225.9530 C   0  0  0  0  0  0  0  0  0  0  0  0
  138.4060   69.2120  224.8330 C   0  0  0  0  0  0  0  0  0  0  0  0
  138.4800   70.0480  223.7230 C   0  0  0  0  0  0  0  0  0  0  0  0
  139.3010   71.1540  223.6830 C   0  0  0  0  0  0  0  0  0  0  0  0
  139.4040   72.0460  222.5480 C   0  0  0  0  0  0  0  0  0  0  0  0
  140.5350   72.3430  221.9340 C   0  0  0  0  0  0  0  0  0  0  0  0
  140.8550   73.7300  221.5690 C   0  0  0  0  0  0  0  0  0  0  0  0
  140.2050   74.6840  222.2660 N   0  0  0  0  0  0  0  0  0  0  0  0
  140.3960   75.9930  222.0040 C   0  0  0  0  0  0  0  0  0  0  0  0
  139.7380   76.9890  222.7080 C   0  0  0  0  0  0  0  0  0  0  0  0
  139.9590   78.3160  222.4110 C   0  0  0  0  0  0  0  0  0  0  0  0
  140.8490   78.6640  221.3970 C   0  0  0  0  0  0  0  0  0  0  0  0
  141.0970   79.9570  221.0720 F   0  0  0  0  0  0  0  0  0  0  0  0
  141.5030   77.6540  220.6980 C   0  0  0  0  0  0  0  0  0  0  0  0
  141.2710   76.3090  221.0070 C   0  0  0  0  0  0  0  0  0  0  0  0
  141.9300   75.3060  220.3040 C   0  0  0  0  0  0  0  0  0  0  0  0
  142.7130   75.6940  219.4060 O   0  0  0  0  0  0  0  0  0  0  0  0
  141.7250   73.9880  220.5830 N   0  0  0  0  0  0  0  0  0  0  0  0
  142.4270   72.9770  219.8310 C   0  0  0  0  0  0  0  0  0  0  0  0
  143.8830   73.1030  219.8810 C   0  0  0  0  0  0  0  0  0  0  0  0
  144.4870   73.5350  221.0710 C   0  0  0  0  0  0  0  0  0  0  0  0
  145.8660   73.6690  221.1680 C   0  0  0  0  0  0  0  0  0  0  0  0
  146.6880   73.3840  220.1080 C   0  0  0  0  0  0  0  0  0  0  0  0
  146.1010   72.9710  218.9720 N   0  0  0  0  0  0  0  0  0  0  0  0
  144.7520   72.8320  218.8500 C   0  0  0  0  0  0  0  0  0  0  0  0
  140.0580   71.3880  224.8260 C   0  0  0  0  0  0  0  0  0  0  0  0
  141.3345   72.3806  228.3806 H   0  0  0  0  0  0  0  0  0  0  0  0
  142.2593   72.2984  226.8428 H   0  0  0  0  0  0  0  0  0  0  0  0
  140.5687   72.9054  226.8428 H   0  0  0  0  0  0  0  0  0  0  0  0
  140.9805   70.1391  229.0435 H   0  0  0  0  0  0  0  0  0  0  0  0
  140.3906   68.9323  227.8509 H   0  0  0  0  0  0  0  0  0  0  0  0
  142.1181   69.4247  227.8509 H   0  0  0  0  0  0  0  0  0  0  0  0
  139.1171   68.8127  226.8350 H   0  0  0  0  0  0  0  0  0  0  0  0
  137.7348   68.3407  224.8166 H   0  0  0  0  0  0  0  0  0  0  0  0
  137.8597   69.8173  222.8444 H   0  0  0  0  0  0  0  0  0  0  0  0
  138.4790   72.5072  222.1717 H   0  0  0  0  0  0  0  0  0  0  0  0
  141.2476   71.5406  221.6924 H   0  0  0  0  0  0  0  0  0  0  0  0
  139.0346   76.7182  223.5092 H   0  0  0  0  0  0  0  0  0  0  0  0
  139.4329   79.1007  222.9743 H   0  0  0  0  0  0  0  0  0  0  0  0
  142.2086   77.9151  219.8955 H   0  0  0  0  0  0  0  0  0  0  0  0
  142.1509   71.9916  220.2344 H   0  0  0  0  0  0  0  0  0  0  0  0
  142.1325   73.1011  218.7784 H   0  0  0  0  0  0  0  0  0  0  0  0
  143.8580   73.7716  221.9419 H   0  0  0  0  0  0  0  0  0  0  0  0
  146.3082   74.0110  222.1153 H   0  0  0  0  0  0  0  0  0  0  0  0
  147.7803   73.4889  220.1843 H   0  0  0  0  0  0  0  0  0  0  0  0
  144.3410   72.4894  217.8889 H   0  0  0  0  0  0  0  0  0  0  0  0
  140.7315   72.2574  224.8475 H   0  0  0  0  0  0  0  0  0  0  0  0
  1  2  1  0
  2  3  1  0
  2  4  1  0
  4  5  2  0
  5  6  1  0
  6  7  2  0
  7  8  1  0
  8  9  1  0
  9 10  2  0
 10 11  1  0
 11 12  2  0
 12 13  1  0
 13 14  2  0
 14 15  1  0
 15 16  2  0
 16 17  1  0
 16 18  1  0
 18 19  2  0
 19 20  1  0
 20 21  2  0
 20 22  1  0
 22 23  1  0
 23 24  1  0
 24 25  2  0
 25 26  1  0
 26 27  2  0
 27 28  1  0
 28 29  2  0
  8 30  2  0
 30  4  1  0
 22 11  1  0
 29 24  1  0
 19 13  1  0
  1 31  1  0
  1 32  1  0
  1 33  1  0
  3 34  1  0
  3 35  1  0
  3 36  1  0
  5 37  1  0
  6 38  1  0
  7 39  1  0
  9 40  1  0
 10 41  1  0
 14 42  1  0
 15 43  1  0
 18 44  1  0
 23 45  1  0
 23 46  1  0
 25 47  1  0
 26 48  1  0
 27 49  1  0
 29 50  1  0
 30 51  1  0
M  END
>  <smiles>  (13) 
CN(C)c1cccc(/C=C/c2nc3ccc(F)cc3c(=O)n2Cc2cccnc2)c1

>  <score_type>  (13) 
oracle

>  <origin>  (13) 
autodockgpu

>  <m_score__min__energy>  (13) 
-8.6600000000000001

>  <m_primary>  (13) 
energy

>  <rmsd>  (13) 
5.829917824127515

>  <m_score__min__rmsd>  (13) 
5.829917824127515

>  <meeko>  (13) 
{"free_energy": -8.49, "intermolecular_energy": -10.28, "internal_energy": -1.12, "cluster_size": 30, "cluster_id": 1, "rank_in_cluster": 11}

>  <energy>  (13) 
-8.38

>  <cluster_rmsd>  (13) 
0.52

>  <cluster>  (13) 
1

$$$$

     RDKit          3D

 51 54  0  0  0  0  0  0  0  0999 V2000
  140.6910   69.8380  227.9950 C   0  0  0  0  0  0  0  0  0  0  0  0
  140.6880   70.9450  227.0610 N   0  0  0  0  0  0  0  0  0  0  0  0
  141.1490   72.2650  227.4550 C   0  0  0  0  0  0  0  0  0  0  0  0
  140.2270   70.7290  225.7380 C   0  0  0  0  0  0  0  0  0  0  0  0
  139.2980   69.7390  225.5240 C   0  0  0  0  0  0  0  0  0  0  0  0
  138.8540   69.5350  224.2350 C   0  0  0  0  0  0  0  0  0  0  0  0
  139.3410   70.3160  223.1900 C   0  0  0  0  0  0  0  0  0  0  0  0
  140.2720   71.3120  223.3830 C   0  0  0  0  0  0  0  0  0  0  0  0
  140.8020   72.1430  222.3230 C   0  0  0  0  0  0  0  0  0  0  0  0
  140.0900   73.0160  221.6330 C   0  0  0  0  0  0  0  0  0  0  0  0
  140.6160   74.3560  221.3390 C   0  0  0  0  0  0  0  0  0  0  0  0
  140.1190   75.3590  222.0900 N   0  0  0  0  0  0  0  0  0  0  0  0
  140.5060   76.6360  221.8960 C   0  0  0  0  0  0  0  0  0  0  0  0
  140.0060   77.6820  222.6570 C   0  0  0  0  0  0  0  0  0  0  0  0
  140.4260   78.9740  222.4280 C   0  0  0  0  0  0  0  0  0  0  0  0
  141.3590   79.2360  221.4260 C   0  0  0  0  0  0  0  0  0  0  0  0
  141.8000   80.4930  221.1670 F   0  0  0  0  0  0  0  0  0  0  0  0
  141.8520   78.1770  220.6700 C   0  0  0  0  0  0  0  0  0  0  0  0
  141.4190   76.8690  220.9100 C   0  0  0  0  0  0  0  0  0  0  0  0
  141.9170   75.8160  220.1490 C   0  0  0  0  0  0  0  0  0  0  0  0
  142.7510   76.1280  219.2670 O   0  0  0  0  0  0  0  0  0  0  0  0
  141.5150   74.5310  220.3610 N   0  0  0  0  0  0  0  0  0  0  0  0
  142.0550   73.4670  219.5510 C   0  0  0  0  0  0  0  0  0  0  0  0
  143.5060   73.3160  219.6600 C   0  0  0  0  0  0  0  0  0  0  0  0
  144.1430   73.7090  220.8460 C   0  0  0  0  0  0  0  0  0  0  0  0
  145.5170   73.5830  220.9990 C   0  0  0  0  0  0  0  0  0  0  0  0
  146.3030   73.0700  219.9990 C   0  0  0  0  0  0  0  0  0  0  0  0
  145.6840   72.6940  218.8660 N   0  0  0  0  0  0  0  0  0  0  0  0
  144.3390   72.8080  218.6900 C   0  0  0  0  0  0  0  0  0  0  0  0
  140.7020   71.4950  224.6930 C   0  0  0  0  0  0  0  0  0  0  0  0
  140.6899   70.2265  229.0241 H   0  0  0  0  0  0  0  0  0  0  0  0
  139.7945   69.2209  227.8351 H   0  0  0  0  0  0  0  0  0  0  0  0
  141.5908   69.2258  227.8351 H   0  0  0  0  0  0  0  0  0  0  0  0
  141.1726   72.3326  228.5527 H   0  0  0  0  0  0  0  0  0  0  0  0
  142.1597   72.4348  227.0553 H   0  0  0  0  0  0  0  0  0  0  0  0
  140.4638   73.0271  227.0553 H   0  0  0  0  0  0  0  0  0  0  0  0
  138.9200   69.1276  226.3566 H   0  0  0  0  0  0  0  0  0  0  0  0
  138.1105   68.7505  224.0306 H   0  0  0  0  0  0  0  0  0  0  0  0
  138.9679   70.1303  222.1720 H   0  0  0  0  0  0  0  0  0  0  0  0
  141.8689   72.0408  222.0754 H   0  0  0  0  0  0  0  0  0  0  0  0
  139.0889   72.7357  221.2734 H   0  0  0  0  0  0  0  0  0  0  0  0
  139.2695   77.4788  223.4484 H   0  0  0  0  0  0  0  0  0  0  0  0
  140.0252   79.7986  223.0357 H   0  0  0  0  0  0  0  0  0  0  0  0
  142.5889   78.3703  219.8765 H   0  0  0  0  0  0  0  0  0  0  0  0
  141.5843   72.5225  219.8615 H   0  0  0  0  0  0  0  0  0  0  0  0
  141.8387   73.7226  218.5032 H   0  0  0  0  0  0  0  0  0  0  0  0
  143.5434   74.1244  221.6694 H   0  0  0  0  0  0  0  0  0  0  0  0
  145.9852   73.9013  221.9421 H   0  0  0  0  0  0  0  0  0  0  0  0
  147.3919   72.9705  220.1185 H   0  0  0  0  0  0  0  0  0  0  0  0
  143.9012   72.4813  217.7352 H   0  0  0  0  0  0  0  0  0  0  0  0
  141.4463   72.2772  224.9033 H   0  0  0  0  0  0  0  0  0  0  0  0
  1  2  1  0
  2  3  1  0
  2  4  1  0
  4  5  2  0
  5  6  1  0
  6  7  2  0
  7  8  1  0
  8  9  1  0
  9 10  2  0
 10 11  1  0
 11 12  2  0
 12 13  1  0
 13 14  2  0
 14 15  1  0
 15 16  2  0
 16 17  1  0
 16 18  1  0
 18 19  2  0
 19 20  1  0
 20 21  2  0
 20 22  1  0
 22 23  1  0
 23 24  1  0
 24 25  2  0
 25 26  1  0
 26 27  2  0
 27 28  1  0
 28 29  2  0
  8 30  2  0
 30  4  1  0
 22 11  1  0
 29 24  1  0
 19 13  1  0
  1 31  1  0
  1 32  1  0
  1 33  1  0
  3 34  1  0
  3 35  1  0
  3 36  1  0
  5 37  1  0
  6 38  1  0
  7 39  1  0
  9 40  1  0
 10 41  1  0
 14 42  1  0
 15 43  1  0
 18 44  1  0
 23 45  1  0
 23 46  1  0
 25 47  1  0
 26 48  1  0
 27 49  1  0
 29 50  1  0
 30 51  1  0
M  END
>  <smiles>  (14) 
CN(C)c1cccc(/C=C/c2nc3ccc(F)cc3c(=O)n2Cc2cccnc2)c1

>  <score_type>  (14) 
oracle

>  <origin>  (14) 
autodockgpu

>  <m_score__min__energy>  (14) 
-8.6600000000000001

>  <m_primary>  (14) 
energy

>  <rmsd>  (14) 
5.425916140527094

>  <m_score__min__rmsd>  (14) 
5.425916140527094

>  <meeko>  (14) 
{"free_energy": -8.62, "intermolecular_energy": -10.41, "internal_energy": -1.16, "cluster_size": 30, "cluster_id": 1, "rank_in_cluster": 5}

>  <energy>  (14) 
-8.23

>  <cluster_rmsd>  (14) 
0.91

>  <cluster>  (14) 
1

$$$$

     RDKit          3D

 51 54  0  0  0  0  0  0  0  0999 V2000
  140.7120   71.7390  227.5620 C   0  0  0  0  0  0  0  0  0  0  0  0
  140.3890   70.5520  226.7970 N   0  0  0  0  0  0  0  0  0  0  0  0
  140.5000   69.2270  227.3800 C   0  0  0  0  0  0  0  0  0  0  0  0
  139.9570   70.6940  225.4550 C   0  0  0  0  0  0  0  0  0  0  0  0
  138.8270   70.0190  225.0570 C   0  0  0  0  0  0  0  0  0  0  0  0
  138.4130   70.1630  223.7510 C   0  0  0  0  0  0  0  0  0  0  0  0
  139.1280   70.9690  222.8690 C   0  0  0  0  0  0  0  0  0  0  0  0
  140.2640   71.6520  223.2460 C   0  0  0  0  0  0  0  0  0  0  0  0
  141.0330   72.4980  222.3590 C   0  0  0  0  0  0  0  0  0  0  0  0
  140.5190   73.1980  221.3640 C   0  0  0  0  0  0  0  0  0  0  0  0
  140.9230   74.5920  221.1340 C   0  0  0  0  0  0  0  0  0  0  0  0
  140.3890   75.5030  221.9720 N   0  0  0  0  0  0  0  0  0  0  0  0
  140.6650   76.8170  221.8440 C   0  0  0  0  0  0  0  0  0  0  0  0
  140.1260   77.7700  222.6950 C   0  0  0  0  0  0  0  0  0  0  0  0
  140.4320   79.1030  222.5320 C   0  0  0  0  0  0  0  0  0  0  0  0
  141.2870   79.5010  221.5060 C   0  0  0  0  0  0  0  0  0  0  0  0
  141.6150   80.8030  221.3100 F   0  0  0  0  0  0  0  0  0  0  0  0
  141.8210   78.5350  220.6600 C   0  0  0  0  0  0  0  0  0  0  0  0
  141.5040   77.1830  220.8330 C   0  0  0  0  0  0  0  0  0  0  0  0
  142.0420   76.2230  219.9830 C   0  0  0  0  0  0  0  0  0  0  0  0
  142.8010   76.6560  219.0840 O   0  0  0  0  0  0  0  0  0  0  0  0
  141.7530   74.9000  220.1280 N   0  0  0  0  0  0  0  0  0  0  0  0
  142.3310   73.9340  219.2250 C   0  0  0  0  0  0  0  0  0  0  0  0
  143.7130   73.5790  219.5420 C   0  0  0  0  0  0  0  0  0  0  0  0
  144.1730   73.7430  220.8580 C   0  0  0  0  0  0  0  0  0  0  0  0
  145.4760   73.4170  221.2080 C   0  0  0  0  0  0  0  0  0  0  0  0
  146.3630   72.9230  220.2850 C   0  0  0  0  0  0  0  0  0  0  0  0
  145.9140   72.7680  219.0280 N   0  0  0  0  0  0  0  0  0  0  0  0
  144.6410   73.0800  218.6570 C   0  0  0  0  0  0  0  0  0  0  0  0
  140.6570   71.4880  224.5700 C   0  0  0  0  0  0  0  0  0  0  0  0
  140.6500   71.5110  228.6363 H   0  0  0  0  0  0  0  0  0  0  0  0
  141.7323   72.0679  227.3153 H   0  0  0  0  0  0  0  0  0  0  0  0
  139.9990   72.5395  227.3153 H   0  0  0  0  0  0  0  0  0  0  0  0
  140.4933   69.3074  228.4770 H   0  0  0  0  0  0  0  0  0  0  0  0
  139.6504   68.6099  227.0523 H   0  0  0  0  0  0  0  0  0  0  0  0
  141.4404   68.7598  227.0523 H   0  0  0  0  0  0  0  0  0  0  0  0
  138.2701   69.3828  225.7607 H   0  0  0  0  0  0  0  0  0  0  0  0
  137.5115   69.6377  223.4026 H   0  0  0  0  0  0  0  0  0  0  0  0
  138.7727   71.0641  221.8323 H   0  0  0  0  0  0  0  0  0  0  0  0
  142.1186   72.5624  222.5245 H   0  0  0  0  0  0  0  0  0  0  0  0
  139.7782   72.7311  220.6982 H   0  0  0  0  0  0  0  0  0  0  0  0
  139.4499   77.4595  223.5052 H   0  0  0  0  0  0  0  0  0  0  0  0
  140.0016   79.8533  223.2115 H   0  0  0  0  0  0  0  0  0  0  0  0
  142.4986   78.8364  219.8476 H   0  0  0  0  0  0  0  0  0  0  0  0
  141.7216   73.0189  219.2605 H   0  0  0  0  0  0  0  0  0  0  0  0
  142.3413   74.3964  218.2270 H   0  0  0  0  0  0  0  0  0  0  0  0
  143.4894   74.1365  221.6247 H   0  0  0  0  0  0  0  0  0  0  0  0
  145.8048   73.5578  222.2482 H   0  0  0  0  0  0  0  0  0  0  0  0
  147.3959   72.6653  220.5618 H   0  0  0  0  0  0  0  0  0  0  0  0
  144.3433   72.9271  217.6091 H   0  0  0  0  0  0  0  0  0  0  0  0
  141.5581   72.0100  224.9243 H   0  0  0  0  0  0  0  0  0  0  0  0
  1  2  1  0
  2  3  1  0
  2  4  1  0
  4  5  2  0
  5  6  1  0
  6  7  2  0
  7  8  1  0
  8  9  1  0
  9 10  2  0
 10 11  1  0
 11 12  2  0
 12 13  1  0
 13 14  2  0
 14 15  1  0
 15 16  2  0
 16 17  1  0
 16 18  1  0
 18 19  2  0
 19 20  1  0
 20 21  2  0
 20 22  1  0
 22 23  1  0
 23 24  1  0
 24 25  2  0
 25 26  1  0
 26 27  2  0
 27 28  1  0
 28 29  2  0
  8 30  2  0
 30  4  1  0
 22 11  1  0
 29 24  1  0
 19 13  1  0
  1 31  1  0
  1 32  1  0
  1 33  1  0
  3 34  1  0
  3 35  1  0
  3 36  1  0
  5 37  1  0
  6 38  1  0
  7 39  1  0
  9 40  1  0
 10 41  1  0
 14 42  1  0
 15 43  1  0
 18 44  1  0
 23 45  1  0
 23 46  1  0
 25 47  1  0
 26 48  1  0
 27 49  1  0
 29 50  1  0
 30 51  1  0
M  END
>  <smiles>  (15) 
CN(C)c1cccc(/C=C/c2nc3ccc(F)cc3c(=O)n2Cc2cccnc2)c1

>  <score_type>  (15) 
oracle

>  <origin>  (15) 
autodockgpu

>  <m_score__min__energy>  (15) 
-8.6600000000000001

>  <m_primary>  (15) 
energy

>  <rmsd>  (15) 
5.415970055376211

>  <m_score__min__rmsd>  (15) 
5.415970055376211

>  <meeko>  (15) 
{"free_energy": -8.42, "intermolecular_energy": -10.21, "internal_energy": -1.25, "cluster_size": 30, "cluster_id": 1, "rank_in_cluster": 12}

>  <energy>  (15) 
-8.18

>  <cluster_rmsd>  (15) 
0.87

>  <cluster>  (15) 
1

$$$$

     RDKit          3D

 51 54  0  0  0  0  0  0  0  0999 V2000
  143.8620   71.2610  219.9360 C   0  0  0  0  0  0  0  0  0  0  0  0
  144.0440   72.5940  220.4740 N   0  0  0  0  0  0  0  0  0  0  0  0
  145.3700   73.1320  220.7220 C   0  0  0  0  0  0  0  0  0  0  0  0
  142.9020   73.3830  220.7620 C   0  0  0  0  0  0  0  0  0  0  0  0
  142.9250   74.7150  220.4190 C   0  0  0  0  0  0  0  0  0  0  0  0
  141.8100   75.4740  220.7020 C   0  0  0  0  0  0  0  0  0  0  0  0
  140.7010   74.8990  221.3170 C   0  0  0  0  0  0  0  0  0  0  0  0
  140.6590   73.5680  221.6680 C   0  0  0  0  0  0  0  0  0  0  0  0
  139.5250   72.9350  222.3080 C   0  0  0  0  0  0  0  0  0  0  0  0
  139.2880   71.6350  222.2890 C   0  0  0  0  0  0  0  0  0  0  0  0
  139.4960   70.8120  223.4880 C   0  0  0  0  0  0  0  0  0  0  0  0
  140.0340   71.4470  224.5490 N   0  0  0  0  0  0  0  0  0  0  0  0
  140.2960   70.7900  225.6970 C   0  0  0  0  0  0  0  0  0  0  0  0
  140.8510   71.4240  226.7990 C   0  0  0  0  0  0  0  0  0  0  0  0
  141.1040   70.7190  227.9550 C   0  0  0  0  0  0  0  0  0  0  0  0
  140.8030   69.3600  228.0220 C   0  0  0  0  0  0  0  0  0  0  0  0
  141.0360   68.6270  229.1400 F   0  0  0  0  0  0  0  0  0  0  0  0
  140.2480   68.7360  226.9090 C   0  0  0  0  0  0  0  0  0  0  0  0
  139.9940   69.4610  225.7390 C   0  0  0  0  0  0  0  0  0  0  0  0
  139.4380   68.8300  224.6320 C   0  0  0  0  0  0  0  0  0  0  0  0
  139.1960   67.6070  224.7650 O   0  0  0  0  0  0  0  0  0  0  0  0
  139.1800   69.5100  223.4790 N   0  0  0  0  0  0  0  0  0  0  0  0
  138.6020   68.8200  222.3520 C   0  0  0  0  0  0  0  0  0  0  0  0
  137.2180   68.3960  222.5610 C   0  0  0  0  0  0  0  0  0  0  0  0
  136.6870   67.3830  221.7480 C   0  0  0  0  0  0  0  0  0  0  0  0
  135.3800   66.9450  221.9090 C   0  0  0  0  0  0  0  0  0  0  0  0
  134.5590   67.4820  222.8680 C   0  0  0  0  0  0  0  0  0  0  0  0
  135.0760   68.4510  223.6440 N   0  0  0  0  0  0  0  0  0  0  0  0
  136.3540   68.9000  223.5060 C   0  0  0  0  0  0  0  0  0  0  0  0
  141.7970   72.8260  221.3710 C   0  0  0  0  0  0  0  0  0  0  0  0
  143.7638   70.5421  220.7628 H   0  0  0  0  0  0  0  0  0  0  0  0
  142.9521   71.2359  219.3184 H   0  0  0  0  0  0  0  0  0  0  0  0
  144.7319   70.9929  219.3184 H   0  0  0  0  0  0  0  0  0  0  0  0
  145.5407   73.2012  221.8065 H   0  0  0  0  0  0  0  0  0  0  0  0
  146.1245   72.4689  220.2737 H   0  0  0  0  0  0  0  0  0  0  0  0
  145.4491   74.1334  220.2737 H   0  0  0  0  0  0  0  0  0  0  0  0
  143.8060   75.1605  219.9339 H   0  0  0  0  0  0  0  0  0  0  0  0
  141.7961   76.5422  220.4400 H   0  0  0  0  0  0  0  0  0  0  0  0
  139.8264   75.5311  221.5303 H   0  0  0  0  0  0  0  0  0  0  0  0
  138.8135   73.5789  222.8457 H   0  0  0  0  0  0  0  0  0  0  0  0
  138.9299   71.1625  221.3624 H   0  0  0  0  0  0  0  0  0  0  0  0
  141.0905   72.4965  226.7494 H   0  0  0  0  0  0  0  0  0  0  0  0
  141.5436   71.2286  228.8251 H   0  0  0  0  0  0  0  0  0  0  0  0
  140.0068   67.6635  226.9490 H   0  0  0  0  0  0  0  0  0  0  0  0
  138.6301   69.4932  221.4825 H   0  0  0  0  0  0  0  0  0  0  0  0
  139.1954   67.9065  222.1992 H   0  0  0  0  0  0  0  0  0  0  0  0
  137.3175   66.9283  220.9697 H   0  0  0  0  0  0  0  0  0  0  0  0
  134.9941   66.1503  221.2537 H   0  0  0  0  0  0  0  0  0  0  0  0
  133.5231   67.1351  222.9966 H   0  0  0  0  0  0  0  0  0  0  0  0
  136.7096   69.6966  224.1760 H   0  0  0  0  0  0  0  0  0  0  0  0
  141.8165   71.7573  221.6309 H   0  0  0  0  0  0  0  0  0  0  0  0
  1  2  1  0
  2  3  1  0
  2  4  1  0
  4  5  2  0
  5  6  1  0
  6  7  2  0
  7  8  1  0
  8  9  1  0
  9 10  2  0
 10 11  1  0
 11 12  2  0
 12 13  1  0
 13 14  2  0
 14 15  1  0
 15 16  2  0
 16 17  1  0
 16 18  1  0
 18 19  2  0
 19 20  1  0
 20 21  2  0
 20 22  1  0
 22 23  1  0
 23 24  1  0
 24 25  2  0
 25 26  1  0
 26 27  2  0
 27 28  1  0
 28 29  2  0
  8 30  2  0
 30  4  1  0
 22 11  1  0
 29 24  1  0
 19 13  1  0
  1 31  1  0
  1 32  1  0
  1 33  1  0
  3 34  1  0
  3 35  1  0
  3 36  1  0
  5 37  1  0
  6 38  1  0
  7 39  1  0
  9 40  1  0
 10 41  1  0
 14 42  1  0
 15 43  1  0
 18 44  1  0
 23 45  1  0
 23 46  1  0
 25 47  1  0
 26 48  1  0
 27 49  1  0
 29 50  1  0
 30 51  1  0
M  END
>  <smiles>  (16) 
CN(C)c1cccc(/C=C/c2nc3ccc(F)cc3c(=O)n2Cc2cccnc2)c1

>  <score_type>  (16) 
oracle

>  <origin>  (16) 
autodockgpu

>  <m_score__min__energy>  (16) 
-8.6600000000000001

>  <m_primary>  (16) 
energy

>  <rmsd>  (16) 
11.483999726510032

>  <m_score__min__rmsd>  (16) 
11.483999726510032

>  <meeko>  (16) 
{"free_energy": -7.67, "intermolecular_energy": -9.46, "internal_energy": -1.19, "cluster_size": 12, "cluster_id": 2, "rank_in_cluster": 7}

>  <energy>  (16) 
-8.16

>  <cluster_rmsd>  (16) 
0.85

>  <cluster>  (16) 
1

$$$$

     RDKit          3D

 51 54  0  0  0  0  0  0  0  0999 V2000
  141.1950   71.9990  226.7280 C   0  0  0  0  0  0  0  0  0  0  0  0
  140.7720   70.7770  226.0760 N   0  0  0  0  0  0  0  0  0  0  0  0
  141.0710   69.4760  226.6480 C   0  0  0  0  0  0  0  0  0  0  0  0
  140.0550   70.8590  224.8570 C   0  0  0  0  0  0  0  0  0  0  0  0
  139.1330   69.8780  224.5730 C   0  0  0  0  0  0  0  0  0  0  0  0
  138.4390   69.9660  223.3860 C   0  0  0  0  0  0  0  0  0  0  0  0
  138.6740   71.0200  222.5070 C   0  0  0  0  0  0  0  0  0  0  0  0
  139.5940   72.0110  222.7710 C   0  0  0  0  0  0  0  0  0  0  0  0
  139.8660   73.1210  221.8830 C   0  0  0  0  0  0  0  0  0  0  0  0
  141.0760   73.5670  221.5960 C   0  0  0  0  0  0  0  0  0  0  0  0
  141.3110   74.9920  221.3290 C   0  0  0  0  0  0  0  0  0  0  0  0
  140.8340   75.8490  222.2550 N   0  0  0  0  0  0  0  0  0  0  0  0
  140.9660   77.1830  222.1070 C   0  0  0  0  0  0  0  0  0  0  0  0
  140.4810   78.0800  223.0470 C   0  0  0  0  0  0  0  0  0  0  0  0
  140.6360   79.4370  222.8600 C   0  0  0  0  0  0  0  0  0  0  0  0
  141.2830   79.9140  221.7220 C   0  0  0  0  0  0  0  0  0  0  0  0
  141.4570   81.2410  221.4980 F   0  0  0  0  0  0  0  0  0  0  0  0
  141.7640   79.0030  220.7870 C   0  0  0  0  0  0  0  0  0  0  0  0
  141.6020   77.6270  220.9850 C   0  0  0  0  0  0  0  0  0  0  0  0
  142.0870   76.7230  220.0460 C   0  0  0  0  0  0  0  0  0  0  0  0
  142.6550   77.2250  219.0480 O   0  0  0  0  0  0  0  0  0  0  0  0
  141.9440   75.3780  220.2130 N   0  0  0  0  0  0  0  0  0  0  0  0
  142.4610   74.4720  219.2160 C   0  0  0  0  0  0  0  0  0  0  0  0
  143.7800   73.9270  219.5350 C   0  0  0  0  0  0  0  0  0  0  0  0
  144.3200   74.1570  220.8100 C   0  0  0  0  0  0  0  0  0  0  0  0
  145.5670   73.6590  221.1610 C   0  0  0  0  0  0  0  0  0  0  0  0
  146.3180   72.9250  220.2780 C   0  0  0  0  0  0  0  0  0  0  0  0
  145.7930   72.7090  219.0600 N   0  0  0  0  0  0  0  0  0  0  0  0
  144.5730   73.1870  218.6900 C   0  0  0  0  0  0  0  0  0  0  0  0
  140.2790   71.8970  223.9760 C   0  0  0  0  0  0  0  0  0  0  0  0
  141.1494   71.8672  227.8191 H   0  0  0  0  0  0  0  0  0  0  0  0
  142.2272   72.2352  226.4301 H   0  0  0  0  0  0  0  0  0  0  0  0
  140.5297   72.8228  226.4301 H   0  0  0  0  0  0  0  0  0  0  0  0
  141.0550   69.5456  227.7457 H   0  0  0  0  0  0  0  0  0  0  0  0
  140.3169   68.7473  226.3158 H   0  0  0  0  0  0  0  0  0  0  0  0
  142.0676   69.1497  226.3158 H   0  0  0  0  0  0  0  0  0  0  0  0
  138.9552   69.0481  225.2728 H   0  0  0  0  0  0  0  0  0  0  0  0
  137.6939   69.1981  223.1309 H   0  0  0  0  0  0  0  0  0  0  0  0
  138.1041   71.0630  221.5671 H   0  0  0  0  0  0  0  0  0  0  0  0
  139.0082   73.6270  221.4160 H   0  0  0  0  0  0  0  0  0  0  0  0
  141.9190   72.8614  221.5565 H   0  0  0  0  0  0  0  0  0  0  0  0
  139.9699   77.7066  223.9466 H   0  0  0  0  0  0  0  0  0  0  0  0
  140.2489   80.1432  223.6093 H   0  0  0  0  0  0  0  0  0  0  0  0
  142.2761   79.3673  219.8842 H   0  0  0  0  0  0  0  0  0  0  0  0
  141.7563   73.6338  219.1115 H   0  0  0  0  0  0  0  0  0  0  0  0
  142.5716   75.0504  218.2869 H   0  0  0  0  0  0  0  0  0  0  0  0
  143.7452   74.7417  221.5433 H   0  0  0  0  0  0  0  0  0  0  0  0
  145.9616   73.8570  222.1685 H   0  0  0  0  0  0  0  0  0  0  0  0
  147.3068   72.5305  220.5550 H   0  0  0  0  0  0  0  0  0  0  0  0
  144.2073   72.9727  217.6749 H   0  0  0  0  0  0  0  0  0  0  0  0
  141.0259   72.6615  224.2359 H   0  0  0  0  0  0  0  0  0  0  0  0
  1  2  1  0
  2  3  1  0
  2  4  1  0
  4  5  2  0
  5  6  1  0
  6  7  2  0
  7  8  1  0
  8  9  1  0
  9 10  2  0
 10 11  1  0
 11 12  2  0
 12 13  1  0
 13 14  2  0
 14 15  1  0
 15 16  2  0
 16 17  1  0
 16 18  1  0
 18 19  2  0
 19 20  1  0
 20 21  2  0
 20 22  1  0
 22 23  1  0
 23 24  1  0
 24 25  2  0
 25 26  1  0
 26 27  2  0
 27 28  1  0
 28 29  2  0
  8 30  2  0
 30  4  1  0
 22 11  1  0
 29 24  1  0
 19 13  1  0
  1 31  1  0
  1 32  1  0
  1 33  1  0
  3 34  1  0
  3 35  1  0
  3 36  1  0
  5 37  1  0
  6 38  1  0
  7 39  1  0
  9 40  1  0
 10 41  1  0
 14 42  1  0
 15 43  1  0
 18 44  1  0
 23 45  1  0
 23 46  1  0
 25 47  1  0
 26 48  1  0
 27 49  1  0
 29 50  1  0
 30 51  1  0
M  END
>  <smiles>  (17) 
CN(C)c1cccc(/C=C/c2nc3ccc(F)cc3c(=O)n2Cc2cccnc2)c1

>  <score_type>  (17) 
oracle

>  <origin>  (17) 
autodockgpu

>  <m_score__min__energy>  (17) 
-8.6600000000000001

>  <m_primary>  (17) 
energy

>  <rmsd>  (17) 
5.268937083997794

>  <m_score__min__rmsd>  (17) 
5.268937083997794

>  <meeko>  (17) 
{"free_energy": -8.16, "intermolecular_energy": -9.95, "internal_energy": -1.16, "cluster_size": 30, "cluster_id": 1, "rank_in_cluster": 16}

>  <energy>  (17) 
-8.16

>  <cluster_rmsd>  (17) 
0.9

>  <cluster>  (17) 
1

$$$$

     RDKit          3D

 51 54  0  0  0  0  0  0  0  0999 V2000
  144.5670   71.4990  219.6990 C   0  0  0  0  0  0  0  0  0  0  0  0
  144.4390   72.6960  220.5050 N   0  0  0  0  0  0  0  0  0  0  0  0
  145.6090   73.4180  220.9710 C   0  0  0  0  0  0  0  0  0  0  0  0
  143.1450   73.1660  220.8400 C   0  0  0  0  0  0  0  0  0  0  0  0
  142.9110   74.5200  220.8010 C   0  0  0  0  0  0  0  0  0  0  0  0
  141.6490   74.9690  221.1280 C   0  0  0  0  0  0  0  0  0  0  0  0
  140.6510   74.0670  221.4860 C   0  0  0  0  0  0  0  0  0  0  0  0
  140.8650   72.7070  221.5310 C   0  0  0  0  0  0  0  0  0  0  0  0
  139.8530   71.7390  221.8990 C   0  0  0  0  0  0  0  0  0  0  0  0
  139.1740   71.7630  223.0320 C   0  0  0  0  0  0  0  0  0  0  0  0
  139.4560   70.7960  224.1010 C   0  0  0  0  0  0  0  0  0  0  0  0
  140.0900   71.2880  225.1840 N   0  0  0  0  0  0  0  0  0  0  0  0
  140.4250   70.4920  226.2190 C   0  0  0  0  0  0  0  0  0  0  0  0
  141.0790   70.9780  227.3420 C   0  0  0  0  0  0  0  0  0  0  0  0
  141.4050   70.1320  228.3800 C   0  0  0  0  0  0  0  0  0  0  0  0
  141.0780   68.7800  228.3050 C   0  0  0  0  0  0  0  0  0  0  0  0
  141.3800   67.9120  229.3040 F   0  0  0  0  0  0  0  0  0  0  0  0
  140.4230   68.3050  227.1730 C   0  0  0  0  0  0  0  0  0  0  0  0
  140.0960   69.1720  226.1250 C   0  0  0  0  0  0  0  0  0  0  0  0
  139.4410   68.6890  224.9970 C   0  0  0  0  0  0  0  0  0  0  0  0
  139.1810   67.4630  225.0000 O   0  0  0  0  0  0  0  0  0  0  0  0
  139.1090   69.5090  223.9600 N   0  0  0  0  0  0  0  0  0  0  0  0
  138.4290   68.9710  222.8070 C   0  0  0  0  0  0  0  0  0  0  0  0
  137.0170   68.6690  223.0380 C   0  0  0  0  0  0  0  0  0  0  0  0
  136.3370   69.3430  224.0630 C   0  0  0  0  0  0  0  0  0  0  0  0
  134.9950   69.0930  224.3200 C   0  0  0  0  0  0  0  0  0  0  0  0
  134.2850   68.1800  223.5820 C   0  0  0  0  0  0  0  0  0  0  0  0
  134.9440   67.5400  222.6010 N   0  0  0  0  0  0  0  0  0  0  0  0
  136.2590   67.7660  222.3300 C   0  0  0  0  0  0  0  0  0  0  0  0
  142.1470   72.2830  221.1970 C   0  0  0  0  0  0  0  0  0  0  0  0
  144.6608   70.6223  220.3568 H   0  0  0  0  0  0  0  0  0  0  0  0
  143.6757   71.3874  219.0641 H   0  0  0  0  0  0  0  0  0  0  0  0
  145.4618   71.5784  219.0641 H   0  0  0  0  0  0  0  0  0  0  0  0
  145.6212   73.4255  222.0709 H   0  0  0  0  0  0  0  0  0  0  0  0
  146.5178   72.9235  220.5976 H   0  0  0  0  0  0  0  0  0  0  0  0
  145.5745   74.4521  220.5976 H   0  0  0  0  0  0  0  0  0  0  0  0
  143.7069   75.2244  220.5173 H   0  0  0  0  0  0  0  0  0  0  0  0
  141.4295   76.0466  221.1059 H   0  0  0  0  0  0  0  0  0  0  0  0
  139.6541   74.4548  221.7425 H   0  0  0  0  0  0  0  0  0  0  0  0
  139.6349   70.9291  221.1873 H   0  0  0  0  0  0  0  0  0  0  0  0
  138.3867   72.5175  223.1768 H   0  0  0  0  0  0  0  0  0  0  0  0
  141.3389   72.0450  227.4042 H   0  0  0  0  0  0  0  0  0  0  0  0
  141.9232   70.5243  229.2674 H   0  0  0  0  0  0  0  0  0  0  0  0
  140.1602   67.2392  227.1016 H   0  0  0  0  0  0  0  0  0  0  0  0
  138.4969   69.7056  221.9911 H   0  0  0  0  0  0  0  0  0  0  0  0
  138.9225   68.0192  222.5612 H   0  0  0  0  0  0  0  0  0  0  0  0
  136.8757   70.0823  224.6739 H   0  0  0  0  0  0  0  0  0  0  0  0
  134.4912   69.6382  225.1318 H   0  0  0  0  0  0  0  0  0  0  0  0
  133.2224   67.9804  223.7845 H   0  0  0  0  0  0  0  0  0  0  0  0
  136.7340   67.2040  221.5123 H   0  0  0  0  0  0  0  0  0  0  0  0
  142.3728   71.2066  221.2183 H   0  0  0  0  0  0  0  0  0  0  0  0
  1  2  1  0
  2  3  1  0
  2  4  1  0
  4  5  2  0
  5  6  1  0
  6  7  2  0
  7  8  1  0
  8  9  1  0
  9 10  2  0
 10 11  1  0
 11 12  2  0
 12 13  1  0
 13 14  2  0
 14 15  1  0
 15 16  2  0
 16 17  1  0
 16 18  1  0
 18 19  2  0
 19 20  1  0
 20 21  2  0
 20 22  1  0
 22 23  1  0
 23 24  1  0
 24 25  2  0
 25 26  1  0
 26 27  2  0
 27 28  1  0
 28 29  2  0
  8 30  2  0
 30  4  1  0
 22 11  1  0
 29 24  1  0
 19 13  1  0
  1 31  1  0
  1 32  1  0
  1 33  1  0
  3 34  1  0
  3 35  1  0
  3 36  1  0
  5 37  1  0
  6 38  1  0
  7 39  1  0
  9 40  1  0
 10 41  1  0
 14 42  1  0
 15 43  1  0
 18 44  1  0
 23 45  1  0
 23 46  1  0
 25 47  1  0
 26 48  1  0
 27 49  1  0
 29 50  1  0
 30 51  1  0
M  END
>  <smiles>  (18) 
CN(C)c1cccc(/C=C/c2nc3ccc(F)cc3c(=O)n2Cc2cccnc2)c1

>  <score_type>  (18) 
oracle

>  <origin>  (18) 
autodockgpu

>  <m_score__min__energy>  (18) 
-8.6600000000000001

>  <m_primary>  (18) 
energy

>  <rmsd>  (18) 
11.724622644161036

>  <m_score__min__rmsd>  (18) 
11.724622644161036

>  <meeko>  (18) 
{"free_energy": -7.7, "intermolecular_energy": -9.49, "internal_energy": -1.21, "cluster_size": 12, "cluster_id": 2, "rank_in_cluster": 6}

>  <energy>  (18) 
-8.14

>  <cluster_rmsd>  (18) 
0.83

>  <cluster>  (18) 
1

$$$$

     RDKit          3D

 51 54  0  0  0  0  0  0  0  0999 V2000
  140.8240   77.8780  222.3820 C   0  0  0  0  0  0  0  0  0  0  0  0
  140.0640   76.6790  222.0930 N   0  0  0  0  0  0  0  0  0  0  0  0
  138.6250   76.6340  222.2890 C   0  0  0  0  0  0  0  0  0  0  0  0
  140.7420   75.5330  221.6110 C   0  0  0  0  0  0  0  0  0  0  0  0
  141.8180   75.7140  220.7730 C   0  0  0  0  0  0  0  0  0  0  0  0
  142.4730   74.5940  220.3080 C   0  0  0  0  0  0  0  0  0  0  0  0
  142.0470   73.3220  220.6830 C   0  0  0  0  0  0  0  0  0  0  0  0
  140.9730   73.1180  221.5200 C   0  0  0  0  0  0  0  0  0  0  0  0
  140.5010   71.8130  221.9310 C   0  0  0  0  0  0  0  0  0  0  0  0
  139.5160   71.6110  222.7870 C   0  0  0  0  0  0  0  0  0  0  0  0
  139.6720   70.6790  223.9120 C   0  0  0  0  0  0  0  0  0  0  0  0
  140.2300   71.1930  225.0270 N   0  0  0  0  0  0  0  0  0  0  0  0
  140.4480   70.4280  226.1150 C   0  0  0  0  0  0  0  0  0  0  0  0
  141.0220   70.9370  227.2710 C   0  0  0  0  0  0  0  0  0  0  0  0
  141.2290   70.1240  228.3640 C   0  0  0  0  0  0  0  0  0  0  0  0
  140.8620   68.7810  228.3110 C   0  0  0  0  0  0  0  0  0  0  0  0
  141.0480   67.9450  229.3640 F   0  0  0  0  0  0  0  0  0  0  0  0
  140.2880   68.2830  227.1460 C   0  0  0  0  0  0  0  0  0  0  0  0
  140.0820   69.1170  226.0420 C   0  0  0  0  0  0  0  0  0  0  0  0
  139.5070   68.6110  224.8800 C   0  0  0  0  0  0  0  0  0  0  0  0
  139.2040   67.3950  224.9070 O   0  0  0  0  0  0  0  0  0  0  0  0
  139.2930   69.3990  223.7890 N   0  0  0  0  0  0  0  0  0  0  0  0
  138.6940   68.8370  222.6030 C   0  0  0  0  0  0  0  0  0  0  0  0
  137.2910   68.4600  222.7690 C   0  0  0  0  0  0  0  0  0  0  0  0
  136.7190   67.5550  221.8620 C   0  0  0  0  0  0  0  0  0  0  0  0
  135.3920   67.1650  221.9790 C   0  0  0  0  0  0  0  0  0  0  0  0
  134.5910   67.6460  222.9830 C   0  0  0  0  0  0  0  0  0  0  0  0
  135.1470   68.5110  223.8480 N   0  0  0  0  0  0  0  0  0  0  0  0
  136.4460   68.9110  223.7560 C   0  0  0  0  0  0  0  0  0  0  0  0
  140.3310   74.2660  221.9730 C   0  0  0  0  0  0  0  0  0  0  0  0
  140.9056   78.0067  223.4714 H   0  0  0  0  0  0  0  0  0  0  0  0
  141.8303   77.7880  221.9470 H   0  0  0  0  0  0  0  0  0  0  0  0
  140.3132   78.7497  221.9470 H   0  0  0  0  0  0  0  0  0  0  0  0
  138.4017   76.6270  223.3661 H   0  0  0  0  0  0  0  0  0  0  0  0
  138.1639   77.5182  221.8247 H   0  0  0  0  0  0  0  0  0  0  0  0
  138.2200   75.7228  221.8247 H   0  0  0  0  0  0  0  0  0  0  0  0
  142.1459   76.7230  220.4826 H   0  0  0  0  0  0  0  0  0  0  0  0
  143.3373   74.7053  219.6368 H   0  0  0  0  0  0  0  0  0  0  0  0
  142.5894   72.4469  220.2956 H   0  0  0  0  0  0  0  0  0  0  0  0
  140.9962   70.9298  221.5013 H   0  0  0  0  0  0  0  0  0  0  0  0
  138.5651   72.1482  222.6559 H   0  0  0  0  0  0  0  0  0  0  0  0
  141.3138   71.9967  227.3152 H   0  0  0  0  0  0  0  0  0  0  0  0
  141.6836   70.5349  229.2775 H   0  0  0  0  0  0  0  0  0  0  0  0
  139.9936   67.2245  227.0924 H   0  0  0  0  0  0  0  0  0  0  0  0
  138.7593   69.5816  221.7960 H   0  0  0  0  0  0  0  0  0  0  0  0
  139.2472   67.9145  222.3726 H   0  0  0  0  0  0  0  0  0  0  0  0
  137.3324   67.1478  221.0447 H   0  0  0  0  0  0  0  0  0  0  0  0
  134.9737   66.4547  221.2506 H   0  0  0  0  0  0  0  0  0  0  0  0
  133.5394   67.3372  223.0761 H   0  0  0  0  0  0  0  0  0  0  0  0
  136.8341   69.6223  224.4999 H   0  0  0  0  0  0  0  0  0  0  0  0
  139.4653   74.1603  222.6433 H   0  0  0  0  0  0  0  0  0  0  0  0
  1  2  1  0
  2  3  1  0
  2  4  1  0
  4  5  2  0
  5  6  1  0
  6  7  2  0
  7  8  1  0
  8  9  1  0
  9 10  2  0
 10 11  1  0
 11 12  2  0
 12 13  1  0
 13 14  2  0
 14 15  1  0
 15 16  2  0
 16 17  1  0
 16 18  1  0
 18 19  2  0
 19 20  1  0
 20 21  2  0
 20 22  1  0
 22 23  1  0
 23 24  1  0
 24 25  2  0
 25 26  1  0
 26 27  2  0
 27 28  1  0
 28 29  2  0
  8 30  2  0
 30  4  1  0
 22 11  1  0
 29 24  1  0
 19 13  1  0
  1 31  1  0
  1 32  1  0
  1 33  1  0
  3 34  1  0
  3 35  1  0
  3 36  1  0
  5 37  1  0
  6 38  1  0
  7 39  1  0
  9 40  1  0
 10 41  1  0
 14 42  1  0
 15 43  1  0
 18 44  1  0
 23 45  1  0
 23 46  1  0
 25 47  1  0
 26 48  1  0
 27 49  1  0
 29 50  1  0
 30 51  1  0
M  END
>  <smiles>  (19) 
CN(C)c1cccc(/C=C/c2nc3ccc(F)cc3c(=O)n2Cc2cccnc2)c1

>  <score_type>  (19) 
oracle

>  <origin>  (19) 
autodockgpu

>  <m_score__min__energy>  (19) 
-8.6600000000000001

>  <m_primary>  (19) 
energy

>  <rmsd>  (19) 
11.729830689056644

>  <m_score__min__rmsd>  (19) 
11.729830689056644

>  <meeko>  (19) 
{"free_energy": -7.86, "intermolecular_energy": -9.65, "internal_energy": -1.11, "cluster_size": 12, "cluster_id": 2, "rank_in_cluster": 4}

>  <energy>  (19) 
-8.09

>  <cluster_rmsd>  (19) 
0.81

>  <cluster>  (19) 
1

$$$$

     RDKit          3D

 51 54  0  0  0  0  0  0  0  0999 V2000
  141.1750   71.9190  226.8240 C   0  0  0  0  0  0  0  0  0  0  0  0
  140.8050   70.6840  226.1650 N   0  0  0  0  0  0  0  0  0  0  0  0
  140.9980   69.3980  226.8120 C   0  0  0  0  0  0  0  0  0  0  0  0
  140.2450   70.7380  224.8640 C   0  0  0  0  0  0  0  0  0  0  0  0
  139.5710   69.6340  224.3960 C   0  0  0  0  0  0  0  0  0  0  0  0
  139.0290   69.6950  223.1310 C   0  0  0  0  0  0  0  0  0  0  0  0
  139.1670   70.8450  222.3580 C   0  0  0  0  0  0  0  0  0  0  0  0
  139.8390   71.9610  222.8080 C   0  0  0  0  0  0  0  0  0  0  0  0
  140.0030   73.1740  222.0350 C   0  0  0  0  0  0  0  0  0  0  0  0
  141.1560   73.5980  221.5500 C   0  0  0  0  0  0  0  0  0  0  0  0
  141.3840   75.0250  221.2870 C   0  0  0  0  0  0  0  0  0  0  0  0
  140.9410   75.8750  222.2360 N   0  0  0  0  0  0  0  0  0  0  0  0
  141.0710   77.2100  222.0950 C   0  0  0  0  0  0  0  0  0  0  0  0
  140.6220   78.1000  223.0590 C   0  0  0  0  0  0  0  0  0  0  0  0
  140.7720   79.4580  222.8780 C   0  0  0  0  0  0  0  0  0  0  0  0
  141.3790   79.9430  221.7220 C   0  0  0  0  0  0  0  0  0  0  0  0
  141.5480   81.2720  221.5040 F   0  0  0  0  0  0  0  0  0  0  0  0
  141.8250   79.0390  220.7630 C   0  0  0  0  0  0  0  0  0  0  0  0
  141.6680   77.6630  220.9550 C   0  0  0  0  0  0  0  0  0  0  0  0
  142.1170   76.7650  219.9920 C   0  0  0  0  0  0  0  0  0  0  0  0
  142.6510   77.2750  218.9790 O   0  0  0  0  0  0  0  0  0  0  0  0
  141.9780   75.4190  220.1520 N   0  0  0  0  0  0  0  0  0  0  0  0
  142.4580   74.5210  219.1300 C   0  0  0  0  0  0  0  0  0  0  0  0
  143.7770   73.9540  219.4090 C   0  0  0  0  0  0  0  0  0  0  0  0
  144.4520   74.3450  220.5750 C   0  0  0  0  0  0  0  0  0  0  0  0
  145.7050   73.8330  220.8840 C   0  0  0  0  0  0  0  0  0  0  0  0
  146.3290   72.9270  220.0650 C   0  0  0  0  0  0  0  0  0  0  0  0
  145.6750   72.5570  218.9510 N   0  0  0  0  0  0  0  0  0  0  0  0
  144.4460   73.0440  218.6240 C   0  0  0  0  0  0  0  0  0  0  0  0
  140.3750   71.8710  224.0880 C   0  0  0  0  0  0  0  0  0  0  0  0
  141.1332   71.7796  227.9143 H   0  0  0  0  0  0  0  0  0  0  0  0
  142.1968   72.2001  226.5292 H   0  0  0  0  0  0  0  0  0  0  0  0
  140.4761   72.7156  226.5292 H   0  0  0  0  0  0  0  0  0  0  0  0
  140.9782   69.5302  227.9038 H   0  0  0  0  0  0  0  0  0  0  0  0
  140.1928   68.7116  226.5111 H   0  0  0  0  0  0  0  0  0  0  0  0
  141.9692   68.9782  226.5111 H   0  0  0  0  0  0  0  0  0  0  0  0
  139.4679   68.7295  225.0134 H   0  0  0  0  0  0  0  0  0  0  0  0
  138.4832   68.8289  222.7285 H   0  0  0  0  0  0  0  0  0  0  0  0
  138.7235   70.8634  221.3515 H   0  0  0  0  0  0  0  0  0  0  0  0
  139.1082   73.7828  221.8386 H   0  0  0  0  0  0  0  0  0  0  0  0
  141.9561   72.8729  221.3403 H   0  0  0  0  0  0  0  0  0  0  0  0
  140.1433   77.7199  223.9735 H   0  0  0  0  0  0  0  0  0  0  0  0
  140.4125   80.1585  223.6461 H   0  0  0  0  0  0  0  0  0  0  0  0
  142.3054   79.4101  219.8457 H   0  0  0  0  0  0  0  0  0  0  0  0
  141.7397   73.6938  219.0310 H   0  0  0  0  0  0  0  0  0  0  0  0
  142.5537   75.1112  218.2067 H   0  0  0  0  0  0  0  0  0  0  0  0
  143.9807   75.0692  221.2557 H   0  0  0  0  0  0  0  0  0  0  0  0
  146.2081   74.1611  221.8056 H   0  0  0  0  0  0  0  0  0  0  0  0
  147.3216   72.5209  220.3094 H   0  0  0  0  0  0  0  0  0  0  0  0
  143.9696   72.6959  217.6956 H   0  0  0  0  0  0  0  0  0  0  0  0
  140.9219   72.7337  224.4961 H   0  0  0  0  0  0  0  0  0  0  0  0
  1  2  1  0
  2  3  1  0
  2  4  1  0
  4  5  2  0
  5  6  1  0
  6  7  2  0
  7  8  1  0
  8  9  1  0
  9 10  2  0
 10 11  1  0
 11 12  2  0
 12 13  1  0
 13 14  2  0
 14 15  1  0
 15 16  2  0
 16 17  1  0
 16 18  1  0
 18 19  2  0
 19 20  1  0
 20 21  2  0
 20 22  1  0
 22 23  1  0
 23 24  1  0
 24 25  2  0
 25 26  1  0
 26 27  2  0
 27 28  1  0
 28 29  2  0
  8 30  2  0
 30  4  1  0
 22 11  1  0
 29 24  1  0
 19 13  1  0
  1 31  1  0
  1 32  1  0
  1 33  1  0
  3 34  1  0
  3 35  1  0
  3 36  1  0
  5 37  1  0
  6 38  1  0
  7 39  1  0
  9 40  1  0
 10 41  1  0
 14 42  1  0
 15 43  1  0
 18 44  1  0
 23 45  1  0
 23 46  1  0
 25 47  1  0
 26 48  1  0
 27 49  1  0
 29 50  1  0
 30 51  1  0
M  END
>  <smiles>  (20) 
CN(C)c1cccc(/C=C/c2nc3ccc(F)cc3c(=O)n2Cc2cccnc2)c1

>  <score_type>  (20) 
oracle

>  <origin>  (20) 
autodockgpu

>  <m_score__min__energy>  (20) 
-8.6600000000000001

>  <m_primary>  (20) 
energy

>  <rmsd>  (20) 
5.237930914845385

>  <m_score__min__rmsd>  (20) 
5.237930914845385

>  <meeko>  (20) 
{"free_energy": -8.18, "intermolecular_energy": -9.97, "internal_energy": -1.16, "cluster_size": 30, "cluster_id": 1, "rank_in_cluster": 15}

>  <energy>  (20) 
-8.07

>  <cluster_rmsd>  (20) 
0.91

>  <cluster>  (20) 
1

$$$$

     RDKit          3D

 51 54  0  0  0  0  0  0  0  0999 V2000
  143.7950   71.1740  219.9870 C   0  0  0  0  0  0  0  0  0  0  0  0
  144.0030   72.5060  220.5180 N   0  0  0  0  0  0  0  0  0  0  0  0
  145.3390   73.0080  220.7870 C   0  0  0  0  0  0  0  0  0  0  0  0
  142.8790   73.3280  220.7770 C   0  0  0  0  0  0  0  0  0  0  0  0
  142.9380   74.6520  220.4080 C   0  0  0  0  0  0  0  0  0  0  0  0
  141.8400   75.4440  220.6630 C   0  0  0  0  0  0  0  0  0  0  0  0
  140.7110   74.9100  221.2770 C   0  0  0  0  0  0  0  0  0  0  0  0
  140.6310   73.5870  221.6550 C   0  0  0  0  0  0  0  0  0  0  0  0
  139.4760   72.9960  222.2950 C   0  0  0  0  0  0  0  0  0  0  0  0
  139.1880   71.7070  222.2720 C   0  0  0  0  0  0  0  0  0  0  0  0
  139.3640   70.8720  223.4680 C   0  0  0  0  0  0  0  0  0  0  0  0
  139.9620   71.4700  224.5180 N   0  0  0  0  0  0  0  0  0  0  0  0
  140.2020   70.7980  225.6620 C   0  0  0  0  0  0  0  0  0  0  0  0
  140.8160   71.3940  226.7530 C   0  0  0  0  0  0  0  0  0  0  0  0
  141.0440   70.6740  227.9050 C   0  0  0  0  0  0  0  0  0  0  0  0
  140.6560   69.3380  227.9790 C   0  0  0  0  0  0  0  0  0  0  0  0
  140.8610   68.5920  229.0940 F   0  0  0  0  0  0  0  0  0  0  0  0
  140.0410   68.7520  226.8770 C   0  0  0  0  0  0  0  0  0  0  0  0
  139.8140   69.4910  225.7120 C   0  0  0  0  0  0  0  0  0  0  0  0
  139.1980   68.8980  224.6150 C   0  0  0  0  0  0  0  0  0  0  0  0
  138.8790   67.6940  224.7550 O   0  0  0  0  0  0  0  0  0  0  0  0
  138.9630   69.5930  223.4670 N   0  0  0  0  0  0  0  0  0  0  0  0
  138.3210   68.9420  222.3510 C   0  0  0  0  0  0  0  0  0  0  0  0
  139.2430   68.2190  221.4750 C   0  0  0  0  0  0  0  0  0  0  0  0
  140.1020   68.9500  220.6400 C   0  0  0  0  0  0  0  0  0  0  0  0
  140.9960   68.3100  219.7930 C   0  0  0  0  0  0  0  0  0  0  0  0
  141.0750   66.9410  219.7400 C   0  0  0  0  0  0  0  0  0  0  0  0
  140.2500   66.2490  220.5440 N   0  0  0  0  0  0  0  0  0  0  0  0
  139.3630   66.8520  221.3830 C   0  0  0  0  0  0  0  0  0  0  0  0
  141.7540   72.8110  221.3850 C   0  0  0  0  0  0  0  0  0  0  0  0
  143.6837   70.4614  220.8176 H   0  0  0  0  0  0  0  0  0  0  0  0
  142.8843   71.1633  219.3702 H   0  0  0  0  0  0  0  0  0  0  0  0
  144.6591   70.8861  219.3702 H   0  0  0  0  0  0  0  0  0  0  0  0
  145.4965   73.0672  221.8741 H   0  0  0  0  0  0  0  0  0  0  0  0
  146.0821   72.3278  220.3453 H   0  0  0  0  0  0  0  0  0  0  0  0
  145.4503   74.0093  220.3453 H   0  0  0  0  0  0  0  0  0  0  0  0
  143.8349   75.0658  219.9239 H   0  0  0  0  0  0  0  0  0  0  0  0
  141.8558   76.5066  220.3791 H   0  0  0  0  0  0  0  0  0  0  0  0
  139.8506   75.5682  221.4677 H   0  0  0  0  0  0  0  0  0  0  0  0
  138.7916   73.6650  222.8372 H   0  0  0  0  0  0  0  0  0  0  0  0
  138.8110   71.2522  221.3441 H   0  0  0  0  0  0  0  0  0  0  0  0
  141.1231   72.4488  226.6982 H   0  0  0  0  0  0  0  0  0  0  0  0
  141.5322   71.1537  228.7661 H   0  0  0  0  0  0  0  0  0  0  0  0
  139.7306   67.6977  226.9228 H   0  0  0  0  0  0  0  0  0  0  0  0
  137.5845   68.2261  222.7448 H   0  0  0  0  0  0  0  0  0  0  0  0
  137.8582   69.7335  221.7432 H   0  0  0  0  0  0  0  0  0  0  0  0
  140.0661   70.0493  220.6571 H   0  0  0  0  0  0  0  0  0  0  0  0
  141.6550   68.9127  219.1508 H   0  0  0  0  0  0  0  0  0  0  0  0
  141.7826   66.4324  219.0688 H   0  0  0  0  0  0  0  0  0  0  0  0
  138.7173   66.2212  222.0116 H   0  0  0  0  0  0  0  0  0  0  0  0
  141.7442   71.7476  221.6664 H   0  0  0  0  0  0  0  0  0  0  0  0
  1  2  1  0
  2  3  1  0
  2  4  1  0
  4  5  2  0
  5  6  1  0
  6  7  2  0
  7  8  1  0
  8  9  1  0
  9 10  2  0
 10 11  1  0
 11 12  2  0
 12 13  1  0
 13 14  2  0
 14 15  1  0
 15 16  2  0
 16 17  1  0
 16 18  1  0
 18 19  2  0
 19 20  1  0
 20 21  2  0
 20 22  1  0
 22 23  1  0
 23 24  1  0
 24 25  2  0
 25 26  1  0
 26 27  2  0
 27 28  1  0
 28 29  2  0
  8 30  2  0
 30  4  1  0
 22 11  1  0
 29 24  1  0
 19 13  1  0
  1 31  1  0
  1 32  1  0
  1 33  1  0
  3 34  1  0
  3 35  1  0
  3 36  1  0
  5 37  1  0
  6 38  1  0
  7 39  1  0
  9 40  1  0
 10 41  1  0
 14 42  1  0
 15 43  1  0
 18 44  1  0
 23 45  1  0
 23 46  1  0
 25 47  1  0
 26 48  1  0
 27 49  1  0
 29 50  1  0
 30 51  1  0
M  END
>  <smiles>  (21) 
CN(C)c1cccc(/C=C/c2nc3ccc(F)cc3c(=O)n2Cc2cccnc2)c1

>  <score_type>  (21) 
oracle

>  <origin>  (21) 
autodockgpu

>  <m_score__min__energy>  (21) 
-8.6600000000000001

>  <m_primary>  (21) 
energy

>  <rmsd>  (21) 
10.727861126232693

>  <m_score__min__rmsd>  (21) 
10.727861126232693

>  <meeko>  (21) 
{"free_energy": -7.16, "intermolecular_energy": -8.95, "internal_energy": -1.47, "cluster_size": 2, "cluster_id": 5, "rank_in_cluster": 1}

>  <energy>  (21) 
-8.05

>  <cluster_rmsd>  (21) 
0.83

>  <cluster>  (21) 
1

$$$$

     RDKit          3D

 51 54  0  0  0  0  0  0  0  0999 V2000
  137.7810   68.0750  222.3770 C   0  0  0  0  0  0  0  0  0  0  0  0
  137.5260   69.1050  223.3630 N   0  0  0  0  0  0  0  0  0  0  0  0
  136.1940   69.3210  223.9000 C   0  0  0  0  0  0  0  0  0  0  0  0
  138.6010   69.9140  223.8070 C   0  0  0  0  0  0  0  0  0  0  0  0
  138.9280   69.8910  225.1430 C   0  0  0  0  0  0  0  0  0  0  0  0
  139.9750   70.6800  225.5670 C   0  0  0  0  0  0  0  0  0  0  0  0
  140.6720   71.4740  224.6600 C   0  0  0  0  0  0  0  0  0  0  0  0
  140.3610   71.5120  223.3190 C   0  0  0  0  0  0  0  0  0  0  0  0
  141.0620   72.3240  222.3470 C   0  0  0  0  0  0  0  0  0  0  0  0
  140.4700   73.0580  221.4230 C   0  0  0  0  0  0  0  0  0  0  0  0
  140.8870   74.4460  221.1800 C   0  0  0  0  0  0  0  0  0  0  0  0
  140.3680   75.3690  222.0140 N   0  0  0  0  0  0  0  0  0  0  0  0
  140.6560   76.6790  221.8740 C   0  0  0  0  0  0  0  0  0  0  0  0
  140.1310   77.6440  222.7210 C   0  0  0  0  0  0  0  0  0  0  0  0
  140.4490   78.9730  222.5460 C   0  0  0  0  0  0  0  0  0  0  0  0
  141.3030   79.3540  221.5130 C   0  0  0  0  0  0  0  0  0  0  0  0
  141.6440   80.6510  221.3040 F   0  0  0  0  0  0  0  0  0  0  0  0
  141.8230   78.3760  220.6710 C   0  0  0  0  0  0  0  0  0  0  0  0
  141.4930   77.0290  220.8560 C   0  0  0  0  0  0  0  0  0  0  0  0
  142.0180   76.0570  220.0100 C   0  0  0  0  0  0  0  0  0  0  0  0
  142.7760   76.4750  219.1040 O   0  0  0  0  0  0  0  0  0  0  0  0
  141.7150   74.7380  220.1670 N   0  0  0  0  0  0  0  0  0  0  0  0
  142.2790   73.7600  219.2690 C   0  0  0  0  0  0  0  0  0  0  0  0
  143.6770   73.4320  219.5490 C   0  0  0  0  0  0  0  0  0  0  0  0
  144.2080   73.7430  220.8100 C   0  0  0  0  0  0  0  0  0  0  0  0
  145.5280   73.4500  221.1240 C   0  0  0  0  0  0  0  0  0  0  0  0
  146.3620   72.8460  220.2170 C   0  0  0  0  0  0  0  0  0  0  0  0
  145.8440   72.5510  219.0120 N   0  0  0  0  0  0  0  0  0  0  0  0
  144.5530   72.8280  218.6780 C   0  0  0  0  0  0  0  0  0  0  0  0
  139.3000   70.7060  222.9200 C   0  0  0  0  0  0  0  0  0  0  0  0
  138.0152   67.1290  222.8871 H   0  0  0  0  0  0  0  0  0  0  0  0
  136.8889   67.9411  221.7475 H   0  0  0  0  0  0  0  0  0  0  0  0
  138.6326   68.3727  221.7475 H   0  0  0  0  0  0  0  0  0  0  0  0
  136.2362   69.3142  224.9992 H   0  0  0  0  0  0  0  0  0  0  0  0
  135.8122   70.2928  223.5538 H   0  0  0  0  0  0  0  0  0  0  0  0
  135.5247   68.5197  223.5538 H   0  0  0  0  0  0  0  0  0  0  0  0
  138.3701   69.2614  225.8518 H   0  0  0  0  0  0  0  0  0  0  0  0
  140.2621   70.6827  226.6289 H   0  0  0  0  0  0  0  0  0  0  0  0
  141.5023   72.0943  225.0285 H   0  0  0  0  0  0  0  0  0  0  0  0
  142.1615   72.3298  222.3805 H   0  0  0  0  0  0  0  0  0  0  0  0
  139.6534   72.6246  220.8269 H   0  0  0  0  0  0  0  0  0  0  0  0
  139.4566   77.3462  223.5374 H   0  0  0  0  0  0  0  0  0  0  0  0
  140.0290   79.7329  223.2214 H   0  0  0  0  0  0  0  0  0  0  0  0
  142.4994   78.6643  219.8528 H   0  0  0  0  0  0  0  0  0  0  0  0
  141.6852   72.8372  219.3452 H   0  0  0  0  0  0  0  0  0  0  0  0
  142.2508   74.1996  218.2610 H   0  0  0  0  0  0  0  0  0  0  0  0
  143.5677   74.2270  221.5622 H   0  0  0  0  0  0  0  0  0  0  0  0
  145.9138   73.7075  222.1214 H   0  0  0  0  0  0  0  0  0  0  0  0
  147.4082   72.6135  220.4649 H   0  0  0  0  0  0  0  0  0  0  0  0
  144.1973   72.5581  217.6727 H   0  0  0  0  0  0  0  0  0  0  0  0
  139.0080   70.6999  221.8595 H   0  0  0  0  0  0  0  0  0  0  0  0
  1  2  1  0
  2  3  1  0
  2  4  1  0
  4  5  2  0
  5  6  1  0
  6  7  2  0
  7  8  1  0
  8  9  1  0
  9 10  2  0
 10 11  1  0
 11 12  2  0
 12 13  1  0
 13 14  2  0
 14 15  1  0
 15 16  2  0
 16 17  1  0
 16 18  1  0
 18 19  2  0
 19 20  1  0
 20 21  2  0
 20 22  1  0
 22 23  1  0
 23 24  1  0
 24 25  2  0
 25 26  1  0
 26 27  2  0
 27 28  1  0
 28 29  2  0
  8 30  2  0
 30  4  1  0
 22 11  1  0
 29 24  1  0
 19 13  1  0
  1 31  1  0
  1 32  1  0
  1 33  1  0
  3 34  1  0
  3 35  1  0
  3 36  1  0
  5 37  1  0
  6 38  1  0
  7 39  1  0
  9 40  1  0
 10 41  1  0
 14 42  1  0
 15 43  1  0
 18 44  1  0
 23 45  1  0
 23 46  1  0
 25 47  1  0
 26 48  1  0
 27 49  1  0
 29 50  1  0
 30 51  1  0
M  END
>  <smiles>  (22) 
CN(C)c1cccc(/C=C/c2nc3ccc(F)cc3c(=O)n2Cc2cccnc2)c1

>  <score_type>  (22) 
oracle

>  <origin>  (22) 
autodockgpu

>  <m_score__min__energy>  (22) 
-8.6600000000000001

>  <m_primary>  (22) 
energy

>  <rmsd>  (22) 
5.464866707407931

>  <m_score__min__rmsd>  (22) 
5.464866707407931

>  <meeko>  (22) 
{"free_energy": -7.46, "intermolecular_energy": -9.25, "internal_energy": -1.26, "cluster_size": 30, "cluster_id": 1, "rank_in_cluster": 29}

>  <energy>  (22) 
-7.96

>  <cluster_rmsd>  (22) 
0.91

>  <cluster>  (22) 
1

$$$$

     RDKit          3D

 51 54  0  0  0  0  0  0  0  0999 V2000
  141.3920   77.5660  220.9020 C   0  0  0  0  0  0  0  0  0  0  0  0
  140.7100   76.4260  221.4790 N   0  0  0  0  0  0  0  0  0  0  0  0
  139.5260   76.5940  222.3030 C   0  0  0  0  0  0  0  0  0  0  0  0
  141.2120   75.1240  221.2300 C   0  0  0  0  0  0  0  0  0  0  0  0
  142.4220   75.0020  220.5890 C   0  0  0  0  0  0  0  0  0  0  0  0
  142.9030   73.7330  220.3510 C   0  0  0  0  0  0  0  0  0  0  0  0
  142.1760   72.6150  220.7520 C   0  0  0  0  0  0  0  0  0  0  0  0
  140.9610   72.7160  221.3950 C   0  0  0  0  0  0  0  0  0  0  0  0
  140.1760   71.5790  221.8260 C   0  0  0  0  0  0  0  0  0  0  0  0
  139.3700   71.5830  222.8720 C   0  0  0  0  0  0  0  0  0  0  0  0
  139.5910   70.6670  223.9990 C   0  0  0  0  0  0  0  0  0  0  0  0
  140.2110   71.1970  225.0730 N   0  0  0  0  0  0  0  0  0  0  0  0
  140.4920   70.4490  226.1580 C   0  0  0  0  0  0  0  0  0  0  0  0
  141.1290   70.9750  227.2720 C   0  0  0  0  0  0  0  0  0  0  0  0
  141.4000   70.1780  228.3630 C   0  0  0  0  0  0  0  0  0  0  0  0
  141.0320   68.8340  228.3510 C   0  0  0  0  0  0  0  0  0  0  0  0
  141.2790   68.0130  229.4030 F   0  0  0  0  0  0  0  0  0  0  0  0
  140.3940   68.3190  227.2270 C   0  0  0  0  0  0  0  0  0  0  0  0
  140.1240   69.1360  226.1240 C   0  0  0  0  0  0  0  0  0  0  0  0
  139.4840   68.6130  225.0050 C   0  0  0  0  0  0  0  0  0  0  0  0
  139.1860   67.3980  225.0660 O   0  0  0  0  0  0  0  0  0  0  0  0
  139.2080   69.3860  223.9170 N   0  0  0  0  0  0  0  0  0  0  0  0
  138.5430   68.8060  222.7750 C   0  0  0  0  0  0  0  0  0  0  0  0
  137.1200   68.5460  222.9860 C   0  0  0  0  0  0  0  0  0  0  0  0
  136.4180   69.3210  223.9210 C   0  0  0  0  0  0  0  0  0  0  0  0
  135.0650   69.1130  224.1550 C   0  0  0  0  0  0  0  0  0  0  0  0
  134.3640   68.1450  223.4820 C   0  0  0  0  0  0  0  0  0  0  0  0
  135.0440   67.4070  222.5880 N   0  0  0  0  0  0  0  0  0  0  0  0
  136.3700   67.5900  222.3400 C   0  0  0  0  0  0  0  0  0  0  0  0
  140.5000   74.0090  221.6210 C   0  0  0  0  0  0  0  0  0  0  0  0
  141.7768   78.2092  221.7071 H   0  0  0  0  0  0  0  0  0  0  0  0
  142.2293   77.2162  220.2803 H   0  0  0  0  0  0  0  0  0  0  0  0
  140.6878   78.1384  220.2803 H   0  0  0  0  0  0  0  0  0  0  0  0
  139.8097   76.5538  223.3650 H   0  0  0  0  0  0  0  0  0  0  0  0
  139.0619   77.5670  222.0840 H   0  0  0  0  0  0  0  0  0  0  0  0
  138.8096   75.7885  222.0840 H   0  0  0  0  0  0  0  0  0  0  0  0
  142.9892   75.8908  220.2755 H   0  0  0  0  0  0  0  0  0  0  0  0
  143.8685   73.6020  219.8404 H   0  0  0  0  0  0  0  0  0  0  0  0
  142.5863   71.6149  220.5482 H   0  0  0  0  0  0  0  0  0  0  0  0
  140.2561   70.6494  221.2433 H   0  0  0  0  0  0  0  0  0  0  0  0
  138.5212   72.2821  222.8998 H   0  0  0  0  0  0  0  0  0  0  0  0
  141.4199   72.0358  227.2848 H   0  0  0  0  0  0  0  0  0  0  0  0
  141.9063   70.6023  229.2425 H   0  0  0  0  0  0  0  0  0  0  0  0
  140.0991   67.2595  227.2054 H   0  0  0  0  0  0  0  0  0  0  0  0
  138.6463   69.4978  221.9260 H   0  0  0  0  0  0  0  0  0  0  0  0
  139.0207   67.8329  222.5881 H   0  0  0  0  0  0  0  0  0  0  0  0
  136.9484   70.1071  224.4785 H   0  0  0  0  0  0  0  0  0  0  0  0
  134.5445   69.7378  224.8957 H   0  0  0  0  0  0  0  0  0  0  0  0
  133.2921   67.9799  223.6659 H   0  0  0  0  0  0  0  0  0  0  0  0
  136.8613   66.9483  221.5938 H   0  0  0  0  0  0  0  0  0  0  0  0
  139.5342   74.1471  222.1291 H   0  0  0  0  0  0  0  0  0  0  0  0
  1  2  1  0
  2  3  1  0
  2  4  1  0
  4  5  2  0
  5  6  1  0
  6  7  2  0
  7  8  1  0
  8  9  1  0
  9 10  2  0
 10 11  1  0
 11 12  2  0
 12 13  1  0
 13 14  2  0
 14 15  1  0
 15 16  2  0
 16 17  1  0
 16 18  1  0
 18 19  2  0
 19 20  1  0
 20 21  2  0
 20 22  1  0
 22 23  1  0
 23 24  1  0
 24 25  2  0
 25 26  1  0
 26 27  2  0
 27 28  1  0
 28 29  2  0
  8 30  2  0
 30  4  1  0
 22 11  1  0
 29 24  1  0
 19 13  1  0
  1 31  1  0
  1 32  1  0
  1 33  1  0
  3 34  1  0
  3 35  1  0
  3 36  1  0
  5 37  1  0
  6 38  1  0
  7 39  1  0
  9 40  1  0
 10 41  1  0
 14 42  1  0
 15 43  1  0
 18 44  1  0
 23 45  1  0
 23 46  1  0
 25 47  1  0
 26 48  1  0
 27 49  1  0
 29 50  1  0
 30 51  1  0
M  END
>  <smiles>  (23) 
CN(C)c1cccc(/C=C/c2nc3ccc(F)cc3c(=O)n2Cc2cccnc2)c1

>  <score_type>  (23) 
oracle

>  <origin>  (23) 
autodockgpu

>  <m_score__min__energy>  (23) 
-8.6600000000000001

>  <m_primary>  (23) 
energy

>  <rmsd>  (23) 
11.70581850399777

>  <m_score__min__rmsd>  (23) 
11.70581850399777

>  <meeko>  (23) 
{"free_energy": -7.48, "intermolecular_energy": -9.27, "internal_energy": -1.2, "cluster_size": 12, "cluster_id": 2, "rank_in_cluster": 10}

>  <energy>  (23) 
-7.86

>  <cluster_rmsd>  (23) 
0.77

>  <cluster>  (23) 
1

$$$$

     RDKit          3D

 51 54  0  0  0  0  0  0  0  0999 V2000
  137.6700   81.2350  224.9490 C   0  0  0  0  0  0  0  0  0  0  0  0
  138.0510   80.6430  223.6830 N   0  0  0  0  0  0  0  0  0  0  0  0
  139.0490   81.2650  222.8310 C   0  0  0  0  0  0  0  0  0  0  0  0
  137.4340   79.4350  223.2740 C   0  0  0  0  0  0  0  0  0  0  0  0
  136.0740   79.3070  223.4400 C   0  0  0  0  0  0  0  0  0  0  0  0
  135.4820   78.1290  223.0390 C   0  0  0  0  0  0  0  0  0  0  0  0
  136.2480   77.1060  222.4860 C   0  0  0  0  0  0  0  0  0  0  0  0
  137.6100   77.2140  222.3110 C   0  0  0  0  0  0  0  0  0  0  0  0
  138.4390   76.1740  221.7400 C   0  0  0  0  0  0  0  0  0  0  0  0
  139.5460   75.7140  222.2940 C   0  0  0  0  0  0  0  0  0  0  0  0
  140.7430   75.4510  221.4850 C   0  0  0  0  0  0  0  0  0  0  0  0
  141.2100   74.1860  221.5220 N   0  0  0  0  0  0  0  0  0  0  0  0
  142.3170   73.8290  220.8400 C   0  0  0  0  0  0  0  0  0  0  0  0
  142.8130   72.5340  220.8660 C   0  0  0  0  0  0  0  0  0  0  0  0
  143.9480   72.2080  220.1570 C   0  0  0  0  0  0  0  0  0  0  0  0
  144.6040   73.1820  219.4070 C   0  0  0  0  0  0  0  0  0  0  0  0
  145.7240   72.9050  218.6920 F   0  0  0  0  0  0  0  0  0  0  0  0
  144.0960   74.4770  219.3890 C   0  0  0  0  0  0  0  0  0  0  0  0
  142.9430   74.7990  220.1140 C   0  0  0  0  0  0  0  0  0  0  0  0
  142.4400   76.0960  220.0910 C   0  0  0  0  0  0  0  0  0  0  0  0
  143.0840   76.9170  219.3960 O   0  0  0  0  0  0  0  0  0  0  0  0
  141.3190   76.4380  220.7850 N   0  0  0  0  0  0  0  0  0  0  0  0
  140.8290   77.7940  220.7360 C   0  0  0  0  0  0  0  0  0  0  0  0
  141.4070   78.6710  221.7550 C   0  0  0  0  0  0  0  0  0  0  0  0
  141.3250   78.2920  223.1030 C   0  0  0  0  0  0  0  0  0  0  0  0
  141.8600   79.0900  224.1060 C   0  0  0  0  0  0  0  0  0  0  0  0
  142.4880   80.2750  223.8180 C   0  0  0  0  0  0  0  0  0  0  0  0
  142.5620   80.6300  222.5230 N   0  0  0  0  0  0  0  0  0  0  0  0
  142.0450   79.8660  221.5210 C   0  0  0  0  0  0  0  0  0  0  0  0
  138.1810   78.4140  222.7240 C   0  0  0  0  0  0  0  0  0  0  0  0
  138.0641   80.6227  225.7735 H   0  0  0  0  0  0  0  0  0  0  0  0
  138.0836   82.2520  225.0174 H   0  0  0  0  0  0  0  0  0  0  0  0
  136.5730   81.2799  225.0174 H   0  0  0  0  0  0  0  0  0  0  0  0
  139.8174   81.7439  223.4557 H   0  0  0  0  0  0  0  0  0  0  0  0
  139.5178   80.4989  222.1959 H   0  0  0  0  0  0  0  0  0  0  0  0
  138.5677   82.0234  222.1959 H   0  0  0  0  0  0  0  0  0  0  0  0
  135.4776   80.1202  223.8794 H   0  0  0  0  0  0  0  0  0  0  0  0
  134.3964   77.9958  223.1566 H   0  0  0  0  0  0  0  0  0  0  0  0
  135.7466   76.1768  222.1773 H   0  0  0  0  0  0  0  0  0  0  0  0
  138.1259   75.7374  220.7801 H   0  0  0  0  0  0  0  0  0  0  0  0
  139.5718   75.5251  223.3774 H   0  0  0  0  0  0  0  0  0  0  0  0
  142.2968   71.7626  221.4564 H   0  0  0  0  0  0  0  0  0  0  0  0
  144.3364   71.1792  220.1828 H   0  0  0  0  0  0  0  0  0  0  0  0
  144.6048   75.2543  218.8000 H   0  0  0  0  0  0  0  0  0  0  0  0
  141.0642   78.2116  219.7459 H   0  0  0  0  0  0  0  0  0  0  0  0
  139.7471   77.7495  220.9297 H   0  0  0  0  0  0  0  0  0  0  0  0
  140.8288   77.3473  223.3701 H   0  0  0  0  0  0  0  0  0  0  0  0
  141.7784   78.7648  225.1537 H   0  0  0  0  0  0  0  0  0  0  0  0
  142.9126   80.9073  224.6117 H   0  0  0  0  0  0  0  0  0  0  0  0
  142.1418   80.2190  220.4837 H   0  0  0  0  0  0  0  0  0  0  0  0
  139.2659   78.5533  222.6078 H   0  0  0  0  0  0  0  0  0  0  0  0
  1  2  1  0
  2  3  1  0
  2  4  1  0
  4  5  2  0
  5  6  1  0
  6  7  2  0
  7  8  1  0
  8  9  1  0
  9 10  2  0
 10 11  1  0
 11 12  2  0
 12 13  1  0
 13 14  2  0
 14 15  1  0
 15 16  2  0
 16 17  1  0
 16 18  1  0
 18 19  2  0
 19 20  1  0
 20 21  2  0
 20 22  1  0
 22 23  1  0
 23 24  1  0
 24 25  2  0
 25 26  1  0
 26 27  2  0
 27 28  1  0
 28 29  2  0
  8 30  2  0
 30  4  1  0
 22 11  1  0
 29 24  1  0
 19 13  1  0
  1 31  1  0
  1 32  1  0
  1 33  1  0
  3 34  1  0
  3 35  1  0
  3 36  1  0
  5 37  1  0
  6 38  1  0
  7 39  1  0
  9 40  1  0
 10 41  1  0
 14 42  1  0
 15 43  1  0
 18 44  1  0
 23 45  1  0
 23 46  1  0
 25 47  1  0
 26 48  1  0
 27 49  1  0
 29 50  1  0
 30 51  1  0
M  END
>  <smiles>  (24) 
CN(C)c1cccc(/C=C/c2nc3ccc(F)cc3c(=O)n2Cc2cccnc2)c1

>  <score_type>  (24) 
oracle

>  <origin>  (24) 
autodockgpu

>  <m_score__min__energy>  (24) 
-8.6600000000000001

>  <m_primary>  (24) 
energy

>  <rmsd>  (24) 
7.613380007973134

>  <m_score__min__rmsd>  (24) 
7.613380007973134

>  <meeko>  (24) 
{"free_energy": -6.71, "intermolecular_energy": -8.5, "internal_energy": -1.7, "cluster_size": 1, "cluster_id": 7, "rank_in_cluster": 1}

>  <energy>  (24) 
-7.81

>  <cluster_rmsd>  (24) 
1.01

>  <cluster>  (24) 
1

$$$$

     RDKit          3D

 51 54  0  0  0  0  0  0  0  0999 V2000
  140.6860   69.7770  227.6910 C   0  0  0  0  0  0  0  0  0  0  0  0
  140.7230   70.9590  226.8540 N   0  0  0  0  0  0  0  0  0  0  0  0
  141.1960   72.2310  227.3690 C   0  0  0  0  0  0  0  0  0  0  0  0
  140.2890   70.8640  225.5090 C   0  0  0  0  0  0  0  0  0  0  0  0
  139.4490   69.8310  225.1640 C   0  0  0  0  0  0  0  0  0  0  0  0
  139.0310   69.7470  223.8540 C   0  0  0  0  0  0  0  0  0  0  0  0
  139.4540   70.6850  222.9160 C   0  0  0  0  0  0  0  0  0  0  0  0
  140.2960   71.7260  223.2400 C   0  0  0  0  0  0  0  0  0  0  0  0
  140.7580   72.7190  222.2940 C   0  0  0  0  0  0  0  0  0  0  0  0
  140.0050   73.6870  221.8010 C   0  0  0  0  0  0  0  0  0  0  0  0
  140.5570   75.0280  221.5670 C   0  0  0  0  0  0  0  0  0  0  0  0
  140.1090   75.9980  222.3890 N   0  0  0  0  0  0  0  0  0  0  0  0
  140.5230   77.2740  222.2550 C   0  0  0  0  0  0  0  0  0  0  0  0
  140.0730   78.2870  223.0900 C   0  0  0  0  0  0  0  0  0  0  0  0
  140.5190   79.5790  222.9220 C   0  0  0  0  0  0  0  0  0  0  0  0
  141.4290   79.8750  221.9080 C   0  0  0  0  0  0  0  0  0  0  0  0
  141.8950   81.1340  221.7070 F   0  0  0  0  0  0  0  0  0  0  0  0
  141.8720   78.8500  221.0780 C   0  0  0  0  0  0  0  0  0  0  0  0
  141.4120   77.5410  221.2570 C   0  0  0  0  0  0  0  0  0  0  0  0
  141.8610   76.5220  220.4230 C   0  0  0  0  0  0  0  0  0  0  0  0
  142.6760   76.8640  219.5340 O   0  0  0  0  0  0  0  0  0  0  0  0
  141.4310   75.2370  220.5740 N   0  0  0  0  0  0  0  0  0  0  0  0
  141.9200   74.2080  219.6880 C   0  0  0  0  0  0  0  0  0  0  0  0
  143.2310   73.6780  220.0610 C   0  0  0  0  0  0  0  0  0  0  0  0
  144.2430   74.5730  220.4420 C   0  0  0  0  0  0  0  0  0  0  0  0
  145.5030   74.1180  220.8070 C   0  0  0  0  0  0  0  0  0  0  0  0
  145.8070   72.7810  220.8090 C   0  0  0  0  0  0  0  0  0  0  0  0
  144.8330   71.9310  220.4420 N   0  0  0  0  0  0  0  0  0  0  0  0
  143.5880   72.3500  220.0800 C   0  0  0  0  0  0  0  0  0  0  0  0
  140.7020   71.7860  224.5690 C   0  0  0  0  0  0  0  0  0  0  0  0
  140.6954   70.0767  228.7493 H   0  0  0  0  0  0  0  0  0  0  0  0
  139.7696   69.2065  227.4796 H   0  0  0  0  0  0  0  0  0  0  0  0
  141.5650   69.1503  227.4796 H   0  0  0  0  0  0  0  0  0  0  0  0
  141.1872   72.2074  228.4687 H   0  0  0  0  0  0  0  0  0  0  0  0
  142.2214   72.4117  227.0143 H   0  0  0  0  0  0  0  0  0  0  0  0
  140.5378   73.0378  227.0143 H   0  0  0  0  0  0  0  0  0  0  0  0
  139.1208   69.0940  225.9117 H   0  0  0  0  0  0  0  0  0  0  0  0
  138.3581   68.9329  223.5468 H   0  0  0  0  0  0  0  0  0  0  0  0
  139.1028   70.5913  221.8778 H   0  0  0  0  0  0  0  0  0  0  0  0
  141.8057   72.6646  221.9632 H   0  0  0  0  0  0  0  0  0  0  0  0
  138.9502   73.4856  221.5626 H   0  0  0  0  0  0  0  0  0  0  0  0
  139.3554   78.0564  223.8912 H   0  0  0  0  0  0  0  0  0  0  0  0
  140.1576   80.3769  223.5873 H   0  0  0  0  0  0  0  0  0  0  0  0
  142.5899   79.0707  220.2743 H   0  0  0  0  0  0  0  0  0  0  0  0
  141.1979   73.3782  219.6892 H   0  0  0  0  0  0  0  0  0  0  0  0
  142.0327   74.6687  218.6955 H   0  0  0  0  0  0  0  0  0  0  0  0
  144.0343   75.6530  220.4516 H   0  0  0  0  0  0  0  0  0  0  0  0
  146.2738   74.8457  221.1008 H   0  0  0  0  0  0  0  0  0  0  0  0
  146.8049   72.4198  221.0985 H   0  0  0  0  0  0  0  0  0  0  0  0
  142.8396   71.5971  219.7919 H   0  0  0  0  0  0  0  0  0  0  0  0
  141.3761   72.5970  224.8818 H   0  0  0  0  0  0  0  0  0  0  0  0
  1  2  1  0
  2  3  1  0
  2  4  1  0
  4  5  2  0
  5  6  1  0
  6  7  2  0
  7  8  1  0
  8  9  1  0
  9 10  2  0
 10 11  1  0
 11 12  2  0
 12 13  1  0
 13 14  2  0
 14 15  1  0
 15 16  2  0
 16 17  1  0
 16 18  1  0
 18 19  2  0
 19 20  1  0
 20 21  2  0
 20 22  1  0
 22 23  1  0
 23 24  1  0
 24 25  2  0
 25 26  1  0
 26 27  2  0
 27 28  1  0
 28 29  2  0
  8 30  2  0
 30  4  1  0
 22 11  1  0
 29 24  1  0
 19 13  1  0
  1 31  1  0
  1 32  1  0
  1 33  1  0
  3 34  1  0
  3 35  1  0
  3 36  1  0
  5 37  1  0
  6 38  1  0
  7 39  1  0
  9 40  1  0
 10 41  1  0
 14 42  1  0
 15 43  1  0
 18 44  1  0
 23 45  1  0
 23 46  1  0
 25 47  1  0
 26 48  1  0
 27 49  1  0
 29 50  1  0
 30 51  1  0
M  END
>  <smiles>  (25) 
CN(C)c1cccc(/C=C/c2nc3ccc(F)cc3c(=O)n2Cc2cccnc2)c1

>  <score_type>  (25) 
oracle

>  <origin>  (25) 
autodockgpu

>  <m_score__min__energy>  (25) 
-8.6600000000000001

>  <m_primary>  (25) 
energy

>  <rmsd>  (25) 
4.948971683389445

>  <m_score__min__rmsd>  (25) 
4.948971683389445

>  <meeko>  (25) 
{"free_energy": -8.09, "intermolecular_energy": -9.88, "internal_energy": -1.17, "cluster_size": 30, "cluster_id": 1, "rank_in_cluster": 19}

>  <energy>  (25) 
-7.71

>  <cluster_rmsd>  (25) 
1.28

>  <cluster>  (25) 
1

$$$$

     RDKit          3D

 51 54  0  0  0  0  0  0  0  0999 V2000
  135.6980   71.5180  223.8740 C   0  0  0  0  0  0  0  0  0  0  0  0
  136.7790   70.5990  224.1690 N   0  0  0  0  0  0  0  0  0  0  0  0
  136.5140   69.2640  224.6760 C   0  0  0  0  0  0  0  0  0  0  0  0
  138.1160   71.0170  223.9560 C   0  0  0  0  0  0  0  0  0  0  0  0
  139.0820   70.5890  224.8360 C   0  0  0  0  0  0  0  0  0  0  0  0
  140.3800   71.0000  224.6210 C   0  0  0  0  0  0  0  0  0  0  0  0
  140.6910   71.8240  223.5430 C   0  0  0  0  0  0  0  0  0  0  0  0
  139.7380   72.2640  222.6510 C   0  0  0  0  0  0  0  0  0  0  0  0
  140.0220   73.1210  221.5190 C   0  0  0  0  0  0  0  0  0  0  0  0
  141.2180   73.5970  221.2260 C   0  0  0  0  0  0  0  0  0  0  0  0
  141.4450   75.0430  221.1020 C   0  0  0  0  0  0  0  0  0  0  0  0
  140.8860   75.8090  222.0600 N   0  0  0  0  0  0  0  0  0  0  0  0
  141.0030   77.1520  222.0390 C   0  0  0  0  0  0  0  0  0  0  0  0
  140.4350   77.9580  223.0150 C   0  0  0  0  0  0  0  0  0  0  0  0
  140.5770   79.3270  222.9590 C   0  0  0  0  0  0  0  0  0  0  0  0
  141.2950   79.9100  221.9170 C   0  0  0  0  0  0  0  0  0  0  0  0
  141.4600   81.2540  221.8230 F   0  0  0  0  0  0  0  0  0  0  0  0
  141.8600   79.0910  220.9450 C   0  0  0  0  0  0  0  0  0  0  0  0
  141.7100   77.7020  221.0110 C   0  0  0  0  0  0  0  0  0  0  0  0
  142.2790   76.8890  220.0350 C   0  0  0  0  0  0  0  0  0  0  0  0
  142.9090   77.4850  219.1300 O   0  0  0  0  0  0  0  0  0  0  0  0
  142.1500   75.5330  220.0730 N   0  0  0  0  0  0  0  0  0  0  0  0
  142.7550   74.7250  219.0420 C   0  0  0  0  0  0  0  0  0  0  0  0
  143.9870   74.0560  219.4590 C   0  0  0  0  0  0  0  0  0  0  0  0
  144.4050   74.1690  220.7940 C   0  0  0  0  0  0  0  0  0  0  0  0
  145.5650   73.5510  221.2370 C   0  0  0  0  0  0  0  0  0  0  0  0
  146.3470   72.8060  220.3910 C   0  0  0  0  0  0  0  0  0  0  0  0
  145.9400   72.7020  219.1140 N   0  0  0  0  0  0  0  0  0  0  0  0
  144.8060   73.2990  218.6530 C   0  0  0  0  0  0  0  0  0  0  0  0
  138.4370   71.8340  222.8920 C   0  0  0  0  0  0  0  0  0  0  0  0
  135.2636   71.8873  224.8147 H   0  0  0  0  0  0  0  0  0  0  0  0
  136.0866   72.3664  223.2917 H   0  0  0  0  0  0  0  0  0  0  0  0
  134.9232   70.9979  223.2917 H   0  0  0  0  0  0  0  0  0  0  0  0
  136.5176   69.2821  225.7758 H   0  0  0  0  0  0  0  0  0  0  0  0
  135.5309   68.9243  224.3181 H   0  0  0  0  0  0  0  0  0  0  0  0
  137.2928   68.5746  224.3181 H   0  0  0  0  0  0  0  0  0  0  0  0
  138.8267   69.9385  225.6855 H   0  0  0  0  0  0  0  0  0  0  0  0
  141.1762   70.6744  225.3065 H   0  0  0  0  0  0  0  0  0  0  0  0
  141.7361   72.1352  223.3982 H   0  0  0  0  0  0  0  0  0  0  0  0
  139.1853   73.3937  220.8590 H   0  0  0  0  0  0  0  0  0  0  0  0
  142.0561   72.9012  221.0726 H   0  0  0  0  0  0  0  0  0  0  0  0
  139.8675   77.5008  223.8390 H   0  0  0  0  0  0  0  0  0  0  0  0
  140.1238   79.9596  223.7365 H   0  0  0  0  0  0  0  0  0  0  0  0
  142.4295   79.5394  220.1176 H   0  0  0  0  0  0  0  0  0  0  0  0
  142.0306   73.9564  218.7348 H   0  0  0  0  0  0  0  0  0  0  0  0
  143.0237   75.4051  218.2203 H   0  0  0  0  0  0  0  0  0  0  0  0
  143.8023   74.7578  221.5012 H   0  0  0  0  0  0  0  0  0  0  0  0
  145.8646   73.6606  222.2897 H   0  0  0  0  0  0  0  0  0  0  0  0
  147.2667   72.3153  220.7422 H   0  0  0  0  0  0  0  0  0  0  0  0
  144.5341   73.1710  217.5948 H   0  0  0  0  0  0  0  0  0  0  0  0
  137.6364   72.1568  222.2102 H   0  0  0  0  0  0  0  0  0  0  0  0
  1  2  1  0
  2  3  1  0
  2  4  1  0
  4  5  2  0
  5  6  1  0
  6  7  2  0
  7  8  1  0
  8  9  1  0
  9 10  2  0
 10 11  1  0
 11 12  2  0
 12 13  1  0
 13 14  2  0
 14 15  1  0
 15 16  2  0
 16 17  1  0
 16 18  1  0
 18 19  2  0
 19 20  1  0
 20 21  2  0
 20 22  1  0
 22 23  1  0
 23 24  1  0
 24 25  2  0
 25 26  1  0
 26 27  2  0
 27 28  1  0
 28 29  2  0
  8 30  2  0
 30  4  1  0
 22 11  1  0
 29 24  1  0
 19 13  1  0
  1 31  1  0
  1 32  1  0
  1 33  1  0
  3 34  1  0
  3 35  1  0
  3 36  1  0
  5 37  1  0
  6 38  1  0
  7 39  1  0
  9 40  1  0
 10 41  1  0
 14 42  1  0
 15 43  1  0
 18 44  1  0
 23 45  1  0
 23 46  1  0
 25 47  1  0
 26 48  1  0
 27 49  1  0
 29 50  1  0
 30 51  1  0
M  END
>  <smiles>  (26) 
CN(C)c1cccc(/C=C/c2nc3ccc(F)cc3c(=O)n2Cc2cccnc2)c1

>  <score_type>  (26) 
oracle

>  <origin>  (26) 
autodockgpu

>  <m_score__min__energy>  (26) 
-8.6600000000000001

>  <m_primary>  (26) 
energy

>  <rmsd>  (26) 
5.328104168332843

>  <m_score__min__rmsd>  (26) 
5.328104168332843

>  <meeko>  (26) 
{"free_energy": -7.37, "intermolecular_energy": -9.16, "internal_energy": -1.14, "cluster_size": 30, "cluster_id": 1, "rank_in_cluster": 30}

>  <energy>  (26) 
-7.71

>  <cluster_rmsd>  (26) 
0.62

>  <cluster>  (26) 
1

$$$$

     RDKit          3D

 51 54  0  0  0  0  0  0  0  0999 V2000
  138.6070   76.5580  222.2990 C   0  0  0  0  0  0  0  0  0  0  0  0
  140.0370   76.6560  222.0860 N   0  0  0  0  0  0  0  0  0  0  0  0
  140.7600   77.8810  222.3790 C   0  0  0  0  0  0  0  0  0  0  0  0
  140.7360   75.5310  221.5820 C   0  0  0  0  0  0  0  0  0  0  0  0
  141.7670   75.7450  220.6970 C   0  0  0  0  0  0  0  0  0  0  0  0
  142.4420   74.6460  220.2120 C   0  0  0  0  0  0  0  0  0  0  0  0
  142.0820   73.3630  220.6130 C   0  0  0  0  0  0  0  0  0  0  0  0
  141.0530   73.1270  221.4990 C   0  0  0  0  0  0  0  0  0  0  0  0
  140.6500   71.8080  221.9390 C   0  0  0  0  0  0  0  0  0  0  0  0
  139.6200   71.5690  222.7310 C   0  0  0  0  0  0  0  0  0  0  0  0
  139.7450   70.6610  223.8780 C   0  0  0  0  0  0  0  0  0  0  0  0
  140.3060   71.1880  224.9850 N   0  0  0  0  0  0  0  0  0  0  0  0
  140.4980   70.4440  226.0940 C   0  0  0  0  0  0  0  0  0  0  0  0
  141.0740   70.9680  227.2420 C   0  0  0  0  0  0  0  0  0  0  0  0
  141.2540   70.1760  228.3550 C   0  0  0  0  0  0  0  0  0  0  0  0
  140.8550   68.8410  228.3310 C   0  0  0  0  0  0  0  0  0  0  0  0
  141.0130   68.0260  229.4050 F   0  0  0  0  0  0  0  0  0  0  0  0
  140.2790   68.3290  227.1730 C   0  0  0  0  0  0  0  0  0  0  0  0
  140.1010   69.1410  226.0480 C   0  0  0  0  0  0  0  0  0  0  0  0
  139.5230   68.6210  224.8940 C   0  0  0  0  0  0  0  0  0  0  0  0
  139.1920   67.4130  224.9470 O   0  0  0  0  0  0  0  0  0  0  0  0
  139.3370   69.3880  223.7830 N   0  0  0  0  0  0  0  0  0  0  0  0
  138.7340   68.8120  222.6060 C   0  0  0  0  0  0  0  0  0  0  0  0
  137.3040   68.5390  222.7440 C   0  0  0  0  0  0  0  0  0  0  0  0
  136.5560   69.2820  223.6700 C   0  0  0  0  0  0  0  0  0  0  0  0
  135.1960   69.0620  223.8360 C   0  0  0  0  0  0  0  0  0  0  0  0
  134.5310   68.1120  223.1030 C   0  0  0  0  0  0  0  0  0  0  0  0
  135.2550   67.4040  222.2180 N   0  0  0  0  0  0  0  0  0  0  0  0
  136.5900   67.6000  222.0360 C   0  0  0  0  0  0  0  0  0  0  0  0
  140.3890   74.2540  221.9710 C   0  0  0  0  0  0  0  0  0  0  0  0
  138.3972   76.5436  223.3787 H   0  0  0  0  0  0  0  0  0  0  0  0
  138.1077   77.4240  221.8400 H   0  0  0  0  0  0  0  0  0  0  0  0
  138.2305   75.6319  221.8400 H   0  0  0  0  0  0  0  0  0  0  0  0
  140.8362   78.0101  223.4687 H   0  0  0  0  0  0  0  0  0  0  0  0
  141.7692   77.8239  221.9451 H   0  0  0  0  0  0  0  0  0  0  0  0
  140.2222   78.7369  221.9451 H   0  0  0  0  0  0  0  0  0  0  0  0
  142.0443   76.7630  220.3858 H   0  0  0  0  0  0  0  0  0  0  0  0
  143.2714   74.7838  219.5027 H   0  0  0  0  0  0  0  0  0  0  0  0
  142.6393   72.5055  220.2079 H   0  0  0  0  0  0  0  0  0  0  0  0
  141.2405   70.9478  221.5908 H   0  0  0  0  0  0  0  0  0  0  0  0
  138.6553   72.0571  222.5283 H   0  0  0  0  0  0  0  0  0  0  0  0
  141.3888   72.0218  227.2639 H   0  0  0  0  0  0  0  0  0  0  0  0
  141.7123   70.5972  229.2619 H   0  0  0  0  0  0  0  0  0  0  0  0
  139.9608   67.2765  227.1417 H   0  0  0  0  0  0  0  0  0  0  0  0
  138.8735   69.5111  221.7683 H   0  0  0  0  0  0  0  0  0  0  0  0
  139.2281   67.8440  222.4362 H   0  0  0  0  0  0  0  0  0  0  0  0
  137.0565   70.0524  224.2750 H   0  0  0  0  0  0  0  0  0  0  0  0
  134.6393   69.6620  224.5709 H   0  0  0  0  0  0  0  0  0  0  0  0
  133.4529   67.9370  223.2334 H   0  0  0  0  0  0  0  0  0  0  0  0
  137.1183   66.9835  221.2939 H   0  0  0  0  0  0  0  0  0  0  0  0
  139.5579   74.1224  222.6795 H   0  0  0  0  0  0  0  0  0  0  0  0
  1  2  1  0
  2  3  1  0
  2  4  1  0
  4  5  2  0
  5  6  1  0
  6  7  2  0
  7  8  1  0
  8  9  1  0
  9 10  2  0
 10 11  1  0
 11 12  2  0
 12 13  1  0
 13 14  2  0
 14 15  1  0
 15 16  2  0
 16 17  1  0
 16 18  1  0
 18 19  2  0
 19 20  1  0
 20 21  2  0
 20 22  1  0
 22 23  1  0
 23 24  1  0
 24 25  2  0
 25 26  1  0
 26 27  2  0
 27 28  1  0
 28 29  2  0
  8 30  2  0
 30  4  1  0
 22 11  1  0
 29 24  1  0
 19 13  1  0
  1 31  1  0
  1 32  1  0
  1 33  1  0
  3 34  1  0
  3 35  1  0
  3 36  1  0
  5 37  1  0
  6 38  1  0
  7 39  1  0
  9 40  1  0
 10 41  1  0
 14 42  1  0
 15 43  1  0
 18 44  1  0
 23 45  1  0
 23 46  1  0
 25 47  1  0
 26 48  1  0
 27 49  1  0
 29 50  1  0
 30 51  1  0
M  END
>  <smiles>  (27) 
CN(C)c1cccc(/C=C/c2nc3ccc(F)cc3c(=O)n2Cc2cccnc2)c1

>  <score_type>  (27) 
oracle

>  <origin>  (27) 
autodockgpu

>  <m_score__min__energy>  (27) 
-8.6600000000000001

>  <m_primary>  (27) 
energy

>  <rmsd>  (27) 
11.612807078352663

>  <m_score__min__rmsd>  (27) 
11.612807078352663

>  <meeko>  (27) 
{"free_energy": -7.47, "intermolecular_energy": -9.26, "internal_energy": -1.17, "cluster_size": 1, "cluster_id": 3, "rank_in_cluster": 1}

>  <energy>  (27) 
-7.68

>  <cluster_rmsd>  (27) 
1.21

>  <cluster>  (27) 
1

$$$$

     RDKit          3D

 51 54  0  0  0  0  0  0  0  0999 V2000
  140.7340   69.2890  226.6700 C   0  0  0  0  0  0  0  0  0  0  0  0
  140.6560   70.6030  226.0650 N   0  0  0  0  0  0  0  0  0  0  0  0
  141.0910   71.7890  226.7810 C   0  0  0  0  0  0  0  0  0  0  0  0
  140.1460   70.7260  224.7490 C   0  0  0  0  0  0  0  0  0  0  0  0
  139.4810   69.6530  224.2020 C   0  0  0  0  0  0  0  0  0  0  0  0
  138.9880   69.7820  222.9220 C   0  0  0  0  0  0  0  0  0  0  0  0
  139.1640   70.9670  222.2130 C   0  0  0  0  0  0  0  0  0  0  0  0
  139.8260   72.0530  222.7420 C   0  0  0  0  0  0  0  0  0  0  0  0
  140.0290   73.3010  222.0360 C   0  0  0  0  0  0  0  0  0  0  0  0
  141.2040   73.7450  221.6300 C   0  0  0  0  0  0  0  0  0  0  0  0
  141.4240   75.1750  221.3740 C   0  0  0  0  0  0  0  0  0  0  0  0
  140.9090   76.0210  222.2890 N   0  0  0  0  0  0  0  0  0  0  0  0
  141.0240   77.3560  222.1490 C   0  0  0  0  0  0  0  0  0  0  0  0
  140.5000   78.2430  223.0790 C   0  0  0  0  0  0  0  0  0  0  0  0
  140.6380   79.6020  222.9010 C   0  0  0  0  0  0  0  0  0  0  0  0
  141.3050   80.0940  221.7810 C   0  0  0  0  0  0  0  0  0  0  0  0
  141.4640   81.4240  221.5660 F   0  0  0  0  0  0  0  0  0  0  0  0
  141.8250   79.1940  220.8560 C   0  0  0  0  0  0  0  0  0  0  0  0
  141.6800   77.8150  221.0460 C   0  0  0  0  0  0  0  0  0  0  0  0
  142.2030   76.9220  220.1160 C   0  0  0  0  0  0  0  0  0  0  0  0
  142.7890   77.4370  219.1350 O   0  0  0  0  0  0  0  0  0  0  0  0
  142.0780   75.5740  220.2750 N   0  0  0  0  0  0  0  0  0  0  0  0
  142.6350   74.6800  219.2890 C   0  0  0  0  0  0  0  0  0  0  0  0
  143.8500   73.9950  219.7270 C   0  0  0  0  0  0  0  0  0  0  0  0
  144.0480   72.6570  219.3550 C   0  0  0  0  0  0  0  0  0  0  0  0
  145.1870   71.9650  219.7440 C   0  0  0  0  0  0  0  0  0  0  0  0
  146.1600   72.5600  220.5060 C   0  0  0  0  0  0  0  0  0  0  0  0
  145.9620   73.8420  220.8590 N   0  0  0  0  0  0  0  0  0  0  0  0
  144.8550   74.5440  220.4900 C   0  0  0  0  0  0  0  0  0  0  0  0
  140.3140   71.8950  224.0350 C   0  0  0  0  0  0  0  0  0  0  0  0
  140.7281   69.3888  227.7654 H   0  0  0  0  0  0  0  0  0  0  0  0
  139.8700   68.6870  226.3520 H   0  0  0  0  0  0  0  0  0  0  0  0
  141.6631   68.7935  226.3520 H   0  0  0  0  0  0  0  0  0  0  0  0
  141.0248   71.6084  227.8640 H   0  0  0  0  0  0  0  0  0  0  0  0
  142.1321   72.0193  226.5107 H   0  0  0  0  0  0  0  0  0  0  0  0
  140.4457   72.6378  226.5107 H   0  0  0  0  0  0  0  0  0  0  0  0
  139.3470   68.7203  224.7695 H   0  0  0  0  0  0  0  0  0  0  0  0
  138.4512   68.9422  222.4567 H   0  0  0  0  0  0  0  0  0  0  0  0
  138.7595   71.0388  221.1926 H   0  0  0  0  0  0  0  0  0  0  0  0
  139.1450   73.9204  221.8239 H   0  0  0  0  0  0  0  0  0  0  0  0
  142.0302   73.0342  221.4812 H   0  0  0  0  0  0  0  0  0  0  0  0
  139.9713   77.8585  223.9636 H   0  0  0  0  0  0  0  0  0  0  0  0
  140.2215   80.2989  223.6432 H   0  0  0  0  0  0  0  0  0  0  0  0
  142.3545   79.5695  219.9679 H   0  0  0  0  0  0  0  0  0  0  0  0
  141.8784   73.9199  219.0444 H   0  0  0  0  0  0  0  0  0  0  0  0
  142.9121   75.2961  218.4209 H   0  0  0  0  0  0  0  0  0  0  0  0
  143.2879   72.1474  218.7447 H   0  0  0  0  0  0  0  0  0  0  0  0
  145.3118   70.9169  219.4344 H   0  0  0  0  0  0  0  0  0  0  0  0
  147.0626   72.0123  220.8147 H   0  0  0  0  0  0  0  0  0  0  0  0
  144.7605   75.5908  220.8145 H   0  0  0  0  0  0  0  0  0  0  0  0
  140.8527   72.7311  224.5048 H   0  0  0  0  0  0  0  0  0  0  0  0
  1  2  1  0
  2  3  1  0
  2  4  1  0
  4  5  2  0
  5  6  1  0
  6  7  2  0
  7  8  1  0
  8  9  1  0
  9 10  2  0
 10 11  1  0
 11 12  2  0
 12 13  1  0
 13 14  2  0
 14 15  1  0
 15 16  2  0
 16 17  1  0
 16 18  1  0
 18 19  2  0
 19 20  1  0
 20 21  2  0
 20 22  1  0
 22 23  1  0
 23 24  1  0
 24 25  2  0
 25 26  1  0
 26 27  2  0
 27 28  1  0
 28 29  2  0
  8 30  2  0
 30  4  1  0
 22 11  1  0
 29 24  1  0
 19 13  1  0
  1 31  1  0
  1 32  1  0
  1 33  1  0
  3 34  1  0
  3 35  1  0
  3 36  1  0
  5 37  1  0
  6 38  1  0
  7 39  1  0
  9 40  1  0
 10 41  1  0
 14 42  1  0
 15 43  1  0
 18 44  1  0
 23 45  1  0
 23 46  1  0
 25 47  1  0
 26 48  1  0
 27 49  1  0
 29 50  1  0
 30 51  1  0
M  END
>  <smiles>  (28) 
CN(C)c1cccc(/C=C/c2nc3ccc(F)cc3c(=O)n2Cc2cccnc2)c1

>  <score_type>  (28) 
oracle

>  <origin>  (28) 
autodockgpu

>  <m_score__min__energy>  (28) 
-8.6600000000000001

>  <m_primary>  (28) 
energy

>  <rmsd>  (28) 
5.20136859652174

>  <m_score__min__rmsd>  (28) 
5.20136859652174

>  <meeko>  (28) 
{"free_energy": -7.51, "intermolecular_energy": -9.3, "internal_energy": -1.15, "cluster_size": 30, "cluster_id": 1, "rank_in_cluster": 28}

>  <energy>  (28) 
-7.51

>  <cluster_rmsd>  (28) 
1.1

>  <cluster>  (28) 
1

$$$$

     RDKit          3D

 51 54  0  0  0  0  0  0  0  0999 V2000
  140.7370   71.7120  227.6980 C   0  0  0  0  0  0  0  0  0  0  0  0
  140.3560   70.4590  227.0790 N   0  0  0  0  0  0  0  0  0  0  0  0
  140.3160   69.2240  227.8410 C   0  0  0  0  0  0  0  0  0  0  0  0
  140.0160   70.4460  225.7030 C   0  0  0  0  0  0  0  0  0  0  0  0
  139.1930   69.4450  225.2420 C   0  0  0  0  0  0  0  0  0  0  0  0
  138.8670   69.4400  223.9030 C   0  0  0  0  0  0  0  0  0  0  0  0
  139.3640   70.4240  223.0520 C   0  0  0  0  0  0  0  0  0  0  0  0
  140.1900   71.4350  223.4940 C   0  0  0  0  0  0  0  0  0  0  0  0
  140.7250   72.4740  222.6400 C   0  0  0  0  0  0  0  0  0  0  0  0
  139.9890   73.3470  221.9760 C   0  0  0  0  0  0  0  0  0  0  0  0
  140.5320   74.6570  221.5940 C   0  0  0  0  0  0  0  0  0  0  0  0
  140.0650   75.7120  222.2910 N   0  0  0  0  0  0  0  0  0  0  0  0
  140.4700   76.9680  222.0150 C   0  0  0  0  0  0  0  0  0  0  0  0
  140.0000   78.0660  222.7200 C   0  0  0  0  0  0  0  0  0  0  0  0
  140.4370   79.3350  222.4080 C   0  0  0  0  0  0  0  0  0  0  0  0
  141.3570   79.5200  221.3770 C   0  0  0  0  0  0  0  0  0  0  0  0
  141.8150   80.7510  221.0370 F   0  0  0  0  0  0  0  0  0  0  0  0
  141.8200   78.4100  220.6780 C   0  0  0  0  0  0  0  0  0  0  0  0
  141.3700   77.1260  221.0030 C   0  0  0  0  0  0  0  0  0  0  0  0
  141.8380   76.0210  220.2990 C   0  0  0  0  0  0  0  0  0  0  0  0
  142.6620   76.2650  219.3870 O   0  0  0  0  0  0  0  0  0  0  0  0
  141.4180   74.7580  220.5940 N   0  0  0  0  0  0  0  0  0  0  0  0
  141.9270   73.6380  219.8400 C   0  0  0  0  0  0  0  0  0  0  0  0
  143.3390   73.3490  220.0880 C   0  0  0  0  0  0  0  0  0  0  0  0
  143.9010   72.1840  219.5440 C   0  0  0  0  0  0  0  0  0  0  0  0
  145.2370   71.8680  219.7490 C   0  0  0  0  0  0  0  0  0  0  0  0
  146.0580   72.6810  220.4880 C   0  0  0  0  0  0  0  0  0  0  0  0
  145.5130   73.7950  221.0050 N   0  0  0  0  0  0  0  0  0  0  0  0
  144.2050   74.1280  220.8200 C   0  0  0  0  0  0  0  0  0  0  0  0
  140.5020   71.4150  224.8490 C   0  0  0  0  0  0  0  0  0  0  0  0
  140.7045   71.6052  228.7923 H   0  0  0  0  0  0  0  0  0  0  0  0
  141.7572   71.9799  227.3859 H   0  0  0  0  0  0  0  0  0  0  0  0
  140.0386   72.5025  227.3859 H   0  0  0  0  0  0  0  0  0  0  0  0
  140.3235   69.4562  228.9162 H   0  0  0  0  0  0  0  0  0  0  0  0
  139.3994   68.6691  227.5921 H   0  0  0  0  0  0  0  0  0  0  0  0
  141.1948   68.6109  227.5921 H   0  0  0  0  0  0  0  0  0  0  0  0
  138.8065   68.6715  225.9219 H   0  0  0  0  0  0  0  0  0  0  0  0
  138.2098   68.6535  223.5037 H   0  0  0  0  0  0  0  0  0  0  0  0
  139.0871   70.3932  221.9879 H   0  0  0  0  0  0  0  0  0  0  0  0
  141.8181   72.5411  222.5370 H   0  0  0  0  0  0  0  0  0  0  0  0
  138.9545   73.0891  221.7053 H   0  0  0  0  0  0  0  0  0  0  0  0
  139.2736   77.9229  223.5336 H   0  0  0  0  0  0  0  0  0  0  0  0
  140.0604   80.2012  222.9718 H   0  0  0  0  0  0  0  0  0  0  0  0
  142.5463   78.5431  219.8626 H   0  0  0  0  0  0  0  0  0  0  0  0
  141.3394   72.7466  220.1047 H   0  0  0  0  0  0  0  0  0  0  0  0
  141.8374   73.9024  218.7760 H   0  0  0  0  0  0  0  0  0  0  0  0
  143.2719   71.5094  218.9447 H   0  0  0  0  0  0  0  0  0  0  0  0
  145.6459   70.9462  219.3095 H   0  0  0  0  0  0  0  0  0  0  0  0
  147.1170   72.4318  220.6504 H   0  0  0  0  0  0  0  0  0  0  0  0
  143.8266   75.0559  221.2736 H   0  0  0  0  0  0  0  0  0  0  0  0
  141.1590   72.1987  225.2542 H   0  0  0  0  0  0  0  0  0  0  0  0
  1  2  1  0
  2  3  1  0
  2  4  1  0
  4  5  2  0
  5  6  1  0
  6  7  2  0
  7  8  1  0
  8  9  1  0
  9 10  2  0
 10 11  1  0
 11 12  2  0
 12 13  1  0
 13 14  2  0
 14 15  1  0
 15 16  2  0
 16 17  1  0
 16 18  1  0
 18 19  2  0
 19 20  1  0
 20 21  2  0
 20 22  1  0
 22 23  1  0
 23 24  1  0
 24 25  2  0
 25 26  1  0
 26 27  2  0
 27 28  1  0
 28 29  2  0
  8 30  2  0
 30  4  1  0
 22 11  1  0
 29 24  1  0
 19 13  1  0
  1 31  1  0
  1 32  1  0
  1 33  1  0
  3 34  1  0
  3 35  1  0
  3 36  1  0
  5 37  1  0
  6 38  1  0
  7 39  1  0
  9 40  1  0
 10 41  1  0
 14 42  1  0
 15 43  1  0
 18 44  1  0
 23 45  1  0
 23 46  1  0
 25 47  1  0
 26 48  1  0
 27 49  1  0
 29 50  1  0
 30 51  1  0
M  END
>  <smiles>  (29) 
CN(C)c1cccc(/C=C/c2nc3ccc(F)cc3c(=O)n2Cc2cccnc2)c1

>  <score_type>  (29) 
oracle

>  <origin>  (29) 
autodockgpu

>  <m_score__min__energy>  (29) 
-8.6600000000000001

>  <m_primary>  (29) 
energy

>  <rmsd>  (29) 
5.301998547446739

>  <m_score__min__rmsd>  (29) 
5.301998547446739

>  <meeko>  (29) 
{"free_energy": -7.86, "intermolecular_energy": -9.65, "internal_energy": -1.06, "cluster_size": 30, "cluster_id": 1, "rank_in_cluster": 23}

>  <energy>  (29) 
-7.46

>  <cluster_rmsd>  (29) 
1.73

>  <cluster>  (29) 
1

$$$$

     RDKit          3D

 51 54  0  0  0  0  0  0  0  0999 V2000
  143.6510   71.0900  220.0780 C   0  0  0  0  0  0  0  0  0  0  0  0
  143.8790   72.4490  220.5270 N   0  0  0  0  0  0  0  0  0  0  0  0
  145.2240   72.9780  220.6720 C   0  0  0  0  0  0  0  0  0  0  0  0
  142.7660   73.2710  220.8280 C   0  0  0  0  0  0  0  0  0  0  0  0
  142.8780   74.6260  220.6220 C   0  0  0  0  0  0  0  0  0  0  0  0
  141.7900   75.4180  220.9170 C   0  0  0  0  0  0  0  0  0  0  0  0
  140.6180   74.8520  221.4110 C   0  0  0  0  0  0  0  0  0  0  0  0
  140.4850   73.4970  221.6260 C   0  0  0  0  0  0  0  0  0  0  0  0
  139.2830   72.8720  222.1370 C   0  0  0  0  0  0  0  0  0  0  0  0
  139.0810   71.5680  222.1790 C   0  0  0  0  0  0  0  0  0  0  0  0
  139.3410   70.8020  223.4050 C   0  0  0  0  0  0  0  0  0  0  0  0
  139.9110   71.4890  224.4160 N   0  0  0  0  0  0  0  0  0  0  0  0
  140.2200   70.8880  225.5820 C   0  0  0  0  0  0  0  0  0  0  0  0
  140.8080   71.5760  226.6340 C   0  0  0  0  0  0  0  0  0  0  0  0
  141.1100   70.9270  227.8110 C   0  0  0  0  0  0  0  0  0  0  0  0
  140.8250   69.5700  227.9500 C   0  0  0  0  0  0  0  0  0  0  0  0
  141.1050   68.8910  229.0910 F   0  0  0  0  0  0  0  0  0  0  0  0
  140.2360   68.8920  226.8880 C   0  0  0  0  0  0  0  0  0  0  0  0
  139.9330   69.5600  225.6970 C   0  0  0  0  0  0  0  0  0  0  0  0
  139.3430   68.8740  224.6400 C   0  0  0  0  0  0  0  0  0  0  0  0
  139.1180   67.6570  224.8380 O   0  0  0  0  0  0  0  0  0  0  0  0
  139.0370   69.4990  223.4680 N   0  0  0  0  0  0  0  0  0  0  0  0
  138.4250   68.7530  222.3950 C   0  0  0  0  0  0  0  0  0  0  0  0
  137.0380   68.3680  222.6540 C   0  0  0  0  0  0  0  0  0  0  0  0
  136.4570   67.3540  221.8780 C   0  0  0  0  0  0  0  0  0  0  0  0
  135.1450   66.9530  222.0880 C   0  0  0  0  0  0  0  0  0  0  0  0
  134.3680   67.5290  223.0600 C   0  0  0  0  0  0  0  0  0  0  0  0
  134.9320   68.4990  223.8000 N   0  0  0  0  0  0  0  0  0  0  0  0
  136.2170   68.9120  223.6140 C   0  0  0  0  0  0  0  0  0  0  0  0
  141.5980   72.7220  221.3190 C   0  0  0  0  0  0  0  0  0  0  0  0
  143.5402   70.4293  220.9505 H   0  0  0  0  0  0  0  0  0  0  0  0
  142.7341   71.0532  219.4714 H   0  0  0  0  0  0  0  0  0  0  0  0
  144.5057   70.7560  219.4714 H   0  0  0  0  0  0  0  0  0  0  0  0
  145.4672   73.0736  221.7405 H   0  0  0  0  0  0  0  0  0  0  0  0
  145.9404   72.2947  220.1926 H   0  0  0  0  0  0  0  0  0  0  0  0
  145.2830   73.9663  220.1926 H   0  0  0  0  0  0  0  0  0  0  0  0
  143.8088   75.0646  220.2331 H   0  0  0  0  0  0  0  0  0  0  0  0
  141.8478   76.5054  220.7611 H   0  0  0  0  0  0  0  0  0  0  0  0
  139.7666   75.5104  221.6381 H   0  0  0  0  0  0  0  0  0  0  0  0
  138.4848   73.5275  222.5155 H   0  0  0  0  0  0  0  0  0  0  0  0
  138.7126   71.0475  221.2827 H   0  0  0  0  0  0  0  0  0  0  0  0
  141.0345   72.6471  226.5273 H   0  0  0  0  0  0  0  0  0  0  0  0
  141.5757   71.4794  228.6404 H   0  0  0  0  0  0  0  0  0  0  0  0
  140.0063   67.8207  226.9856 H   0  0  0  0  0  0  0  0  0  0  0  0
  138.4482   69.3721  221.4861 H   0  0  0  0  0  0  0  0  0  0  0  0
  138.9993   67.8210  222.2873 H   0  0  0  0  0  0  0  0  0  0  0  0
  137.0513   66.8685  221.0898 H   0  0  0  0  0  0  0  0  0  0  0  0
  134.7192   66.1558  221.4610 H   0  0  0  0  0  0  0  0  0  0  0  0
  133.3283   67.2110  223.2269 H   0  0  0  0  0  0  0  0  0  0  0  0
  136.6133   69.7118  224.2568 H   0  0  0  0  0  0  0  0  0  0  0  0
  141.5462   71.6340  221.4726 H   0  0  0  0  0  0  0  0  0  0  0  0
  1  2  1  0
  2  3  1  0
  2  4  1  0
  4  5  2  0
  5  6  1  0
  6  7  2  0
  7  8  1  0
  8  9  1  0
  9 10  2  0
 10 11  1  0
 11 12  2  0
 12 13  1  0
 13 14  2  0
 14 15  1  0
 15 16  2  0
 16 17  1  0
 16 18  1  0
 18 19  2  0
 19 20  1  0
 20 21  2  0
 20 22  1  0
 22 23  1  0
 23 24  1  0
 24 25  2  0
 25 26  1  0
 26 27  2  0
 27 28  1  0
 28 29  2  0
  8 30  2  0
 30  4  1  0
 22 11  1  0
 29 24  1  0
 19 13  1  0
  1 31  1  0
  1 32  1  0
  1 33  1  0
  3 34  1  0
  3 35  1  0
  3 36  1  0
  5 37  1  0
  6 38  1  0
  7 39  1  0
  9 40  1  0
 10 41  1  0
 14 42  1  0
 15 43  1  0
 18 44  1  0
 23 45  1  0
 23 46  1  0
 25 47  1  0
 26 48  1  0
 27 49  1  0
 29 50  1  0
 30 51  1  0
M  END
>  <smiles>  (30) 
CN(C)c1cccc(/C=C/c2nc3ccc(F)cc3c(=O)n2Cc2cccnc2)c1

>  <score_type>  (30) 
oracle

>  <origin>  (30) 
autodockgpu

>  <m_score__min__energy>  (30) 
-8.6600000000000001

>  <m_primary>  (30) 
energy

>  <rmsd>  (30) 
11.46654866136454

>  <m_score__min__rmsd>  (30) 
11.46654866136454

>  <meeko>  (30) 
{"free_energy": -7.55, "intermolecular_energy": -9.34, "internal_energy": -1.25, "cluster_size": 12, "cluster_id": 2, "rank_in_cluster": 8}

>  <energy>  (30) 
-7.37

>  <cluster_rmsd>  (30) 
1.89

>  <cluster>  (30) 
1

$$$$

     RDKit          3D

 51 54  0  0  0  0  0  0  0  0999 V2000
  141.1940   72.2470  227.4640 C   0  0  0  0  0  0  0  0  0  0  0  0
  140.6890   70.9410  227.0910 N   0  0  0  0  0  0  0  0  0  0  0  0
  140.6590   69.8460  228.0440 C   0  0  0  0  0  0  0  0  0  0  0  0
  140.2170   70.7360  225.7710 C   0  0  0  0  0  0  0  0  0  0  0  0
  139.2660   69.7640  225.5610 C   0  0  0  0  0  0  0  0  0  0  0  0
  138.8120   69.5710  224.2740 C   0  0  0  0  0  0  0  0  0  0  0  0
  139.3090   70.3420  223.2270 C   0  0  0  0  0  0  0  0  0  0  0  0
  140.2620   71.3190  223.4160 C   0  0  0  0  0  0  0  0  0  0  0  0
  140.8020   72.1400  222.3540 C   0  0  0  0  0  0  0  0  0  0  0  0
  140.1030   73.0230  221.6630 C   0  0  0  0  0  0  0  0  0  0  0  0
  140.6410   74.3610  221.3840 C   0  0  0  0  0  0  0  0  0  0  0  0
  140.1430   75.3620  222.1390 N   0  0  0  0  0  0  0  0  0  0  0  0
  140.5410   76.6370  221.9580 C   0  0  0  0  0  0  0  0  0  0  0  0
  140.0410   77.6810  222.7220 C   0  0  0  0  0  0  0  0  0  0  0  0
  140.4720   78.9720  222.5070 C   0  0  0  0  0  0  0  0  0  0  0  0
  141.4150   79.2350  221.5160 C   0  0  0  0  0  0  0  0  0  0  0  0
  141.8670   80.4910  221.2710 F   0  0  0  0  0  0  0  0  0  0  0  0
  141.9080   78.1790  220.7560 C   0  0  0  0  0  0  0  0  0  0  0  0
  141.4640   76.8720  220.9820 C   0  0  0  0  0  0  0  0  0  0  0  0
  141.9630   75.8210  220.2180 C   0  0  0  0  0  0  0  0  0  0  0  0
  142.8060   76.1350  219.3460 O   0  0  0  0  0  0  0  0  0  0  0  0
  141.5500   74.5380  220.4160 N   0  0  0  0  0  0  0  0  0  0  0  0
  142.0900   73.4760  219.6030 C   0  0  0  0  0  0  0  0  0  0  0  0
  143.5380   73.3100  219.7290 C   0  0  0  0  0  0  0  0  0  0  0  0
  144.1630   73.6860  220.9270 C   0  0  0  0  0  0  0  0  0  0  0  0
  145.5340   73.5460  221.0960 C   0  0  0  0  0  0  0  0  0  0  0  0
  146.3280   73.0340  220.1020 C   0  0  0  0  0  0  0  0  0  0  0  0
  145.7210   72.6750  218.9570 N   0  0  0  0  0  0  0  0  0  0  0  0
  144.3790   72.8030  218.7660 C   0  0  0  0  0  0  0  0  0  0  0  0
  140.7020   71.4920  224.7240 C   0  0  0  0  0  0  0  0  0  0  0  0
  141.2255   72.3285  228.5605 H   0  0  0  0  0  0  0  0  0  0  0  0
  142.2076   72.3780  227.0573 H   0  0  0  0  0  0  0  0  0  0  0  0
  140.5322   73.0259  227.0573 H   0  0  0  0  0  0  0  0  0  0  0  0
  140.6701   70.2499  229.0671 H   0  0  0  0  0  0  0  0  0  0  0  0
  139.7443   69.2538  227.8935 H   0  0  0  0  0  0  0  0  0  0  0  0
  141.5399   69.2046  227.8935 H   0  0  0  0  0  0  0  0  0  0  0  0
  138.8798   69.1594  226.3949 H   0  0  0  0  0  0  0  0  0  0  0  0
  138.0514   68.8022  224.0728 H   0  0  0  0  0  0  0  0  0  0  0  0
  138.9267   70.1647  222.2109 H   0  0  0  0  0  0  0  0  0  0  0  0
  141.8668   72.0210  222.1050 H   0  0  0  0  0  0  0  0  0  0  0  0
  139.1037   72.7522  221.2913 H   0  0  0  0  0  0  0  0  0  0  0  0
  139.2955   77.4771  223.5047 H   0  0  0  0  0  0  0  0  0  0  0  0
  140.0716   79.7946  223.1177 H   0  0  0  0  0  0  0  0  0  0  0  0
  142.6533   78.3736  219.9707 H   0  0  0  0  0  0  0  0  0  0  0  0
  141.6064   72.5334  219.8989 H   0  0  0  0  0  0  0  0  0  0  0  0
  141.8895   73.7431  218.5549 H   0  0  0  0  0  0  0  0  0  0  0  0
  143.5566   74.0989  221.7467 H   0  0  0  0  0  0  0  0  0  0  0  0
  145.9931   73.8523  222.0475 H   0  0  0  0  0  0  0  0  0  0  0  0
  147.4141   72.9218  220.2355 H   0  0  0  0  0  0  0  0  0  0  0  0
  143.9503   72.4884  217.8031 H   0  0  0  0  0  0  0  0  0  0  0  0
  141.4634   72.2585  224.9309 H   0  0  0  0  0  0  0  0  0  0  0  0
  1  2  1  0
  2  3  1  0
  2  4  1  0
  4  5  2  0
  5  6  1  0
  6  7  2  0
  7  8  1  0
  8  9  1  0
  9 10  2  0
 10 11  1  0
 11 12  2  0
 12 13  1  0
 13 14  2  0
 14 15  1  0
 15 16  2  0
 16 17  1  0
 16 18  1  0
 18 19  2  0
 19 20  1  0
 20 21  2  0
 20 22  1  0
 22 23  1  0
 23 24  1  0
 24 25  2  0
 25 26  1  0
 26 27  2  0
 27 28  1  0
 28 29  2  0
  8 30  2  0
 30  4  1  0
 22 11  1  0
 29 24  1  0
 19 13  1  0
  1 31  1  0
  1 32  1  0
  1 33  1  0
  3 34  1  0
  3 35  1  0
  3 36  1  0
  5 37  1  0
  6 38  1  0
  7 39  1  0
  9 40  1  0
 10 41  1  0
 14 42  1  0
 15 43  1  0
 18 44  1  0
 23 45  1  0
 23 46  1  0
 25 47  1  0
 26 48  1  0
 27 49  1  0
 29 50  1  0
 30 51  1  0
M  END
>  <smiles>  (31) 
CN(C)c1cccc(/C=C/c2nc3ccc(F)cc3c(=O)n2Cc2cccnc2)c1

>  <score_type>  (31) 
oracle

>  <origin>  (31) 
autodockgpu

>  <m_score__min__energy>  (31) 
-8.6600000000000001

>  <m_primary>  (31) 
energy

>  <rmsd>  (31) 
5.459018978084825

>  <m_score__min__rmsd>  (31) 
5.459018978084825

>  <meeko>  (31) 
{"free_energy": -8.63, "intermolecular_energy": -10.42, "internal_energy": -1.17, "cluster_size": 30, "cluster_id": 1, "rank_in_cluster": 4}

>  <energy>  (31) 
-7.98

>  <cluster_rmsd>  (31) 
0.0

>  <cluster>  (31) 
2

$$$$

     RDKit          3D

 51 54  0  0  0  0  0  0  0  0999 V2000
  142.1990   79.6960  218.7070 C   0  0  0  0  0  0  0  0  0  0  0  0
  141.7810   80.4100  219.8970 N   0  0  0  0  0  0  0  0  0  0  0  0
  141.4130   81.8130  219.8420 C   0  0  0  0  0  0  0  0  0  0  0  0
  141.7330   79.7190  221.1330 C   0  0  0  0  0  0  0  0  0  0  0  0
  142.2810   80.3230  222.2410 C   0  0  0  0  0  0  0  0  0  0  0  0
  142.2300   79.6450  223.4400 C   0  0  0  0  0  0  0  0  0  0  0  0
  141.6390   78.3860  223.5140 C   0  0  0  0  0  0  0  0  0  0  0  0
  141.0850   77.7640  222.4160 C   0  0  0  0  0  0  0  0  0  0  0  0
  140.4630   76.4570  222.4540 C   0  0  0  0  0  0  0  0  0  0  0  0
  140.3260   75.6670  221.4050 C   0  0  0  0  0  0  0  0  0  0  0  0
  141.2970   74.5990  221.1320 C   0  0  0  0  0  0  0  0  0  0  0  0
  142.5520   75.0050  220.8530 N   0  0  0  0  0  0  0  0  0  0  0  0
  143.5250   74.1190  220.5610 C   0  0  0  0  0  0  0  0  0  0  0  0
  144.8220   74.5160  220.2710 C   0  0  0  0  0  0  0  0  0  0  0  0
  145.7890   73.5800  219.9760 C   0  0  0  0  0  0  0  0  0  0  0  0
  145.4660   72.2250  219.9680 C   0  0  0  0  0  0  0  0  0  0  0  0
  146.3870   71.2690  219.6840 F   0  0  0  0  0  0  0  0  0  0  0  0
  144.1620   71.8400  220.2600 C   0  0  0  0  0  0  0  0  0  0  0  0
  143.1870   72.7980  220.5580 C   0  0  0  0  0  0  0  0  0  0  0  0
  141.8850   72.4040  220.8500 C   0  0  0  0  0  0  0  0  0  0  0  0
  141.6690   71.1700  220.8220 O   0  0  0  0  0  0  0  0  0  0  0  0
  140.9140   73.3150  221.1440 N   0  0  0  0  0  0  0  0  0  0  0  0
  139.5750   72.8670  221.4410 C   0  0  0  0  0  0  0  0  0  0  0  0
  139.4850   72.0120  222.6250 C   0  0  0  0  0  0  0  0  0  0  0  0
  140.4570   72.1350  223.6290 C   0  0  0  0  0  0  0  0  0  0  0  0
  140.4120   71.3480  224.7710 C   0  0  0  0  0  0  0  0  0  0  0  0
  139.4180   70.4220  224.9630 C   0  0  0  0  0  0  0  0  0  0  0  0
  138.4900   70.3110  223.9970 N   0  0  0  0  0  0  0  0  0  0  0  0
  138.5110   71.0710  222.8660 C   0  0  0  0  0  0  0  0  0  0  0  0
  141.1520   78.4710  221.2200 C   0  0  0  0  0  0  0  0  0  0  0  0
  142.7350   78.7805  218.9980 H   0  0  0  0  0  0  0  0  0  0  0  0
  141.3146   79.4290  218.1099 H   0  0  0  0  0  0  0  0  0  0  0  0
  142.8647   80.3365  218.1099 H   0  0  0  0  0  0  0  0  0  0  0  0
  141.3101   82.2054  220.8644 H   0  0  0  0  0  0  0  0  0  0  0  0
  142.1938   82.3763  219.3099 H   0  0  0  0  0  0  0  0  0  0  0  0
  140.4563   81.9205  219.3099 H   0  0  0  0  0  0  0  0  0  0  0  0
  142.7461   81.3175  222.1721 H   0  0  0  0  0  0  0  0  0  0  0  0
  142.6589   80.1013  224.3444 H   0  0  0  0  0  0  0  0  0  0  0  0
  141.6135   77.8690  224.4846 H   0  0  0  0  0  0  0  0  0  0  0  0
  140.0793   76.0986  223.4206 H   0  0  0  0  0  0  0  0  0  0  0  0
  139.4727   75.8106  220.7258 H   0  0  0  0  0  0  0  0  0  0  0  0
  145.0803   75.5852  220.2766 H   0  0  0  0  0  0  0  0  0  0  0  0
  146.8154   73.9025  219.7469 H   0  0  0  0  0  0  0  0  0  0  0  0
  143.8948   70.7729  220.2566 H   0  0  0  0  0  0  0  0  0  0  0  0
  138.9418   73.7517  221.6037 H   0  0  0  0  0  0  0  0  0  0  0  0
  139.2432   72.2621  220.5843 H   0  0  0  0  0  0  0  0  0  0  0  0
  141.2686   72.8677  223.5090 H   0  0  0  0  0  0  0  0  0  0  0  0
  141.1901   71.4692  225.5390 H   0  0  0  0  0  0  0  0  0  0  0  0
  139.3821   69.7977  225.8680 H   0  0  0  0  0  0  0  0  0  0  0  0
  137.7185   70.9264  222.1169 H   0  0  0  0  0  0  0  0  0  0  0  0
  140.7267   78.0190  220.3118 H   0  0  0  0  0  0  0  0  0  0  0  0
  1  2  1  0
  2  3  1  0
  2  4  1  0
  4  5  2  0
  5  6  1  0
  6  7  2  0
  7  8  1  0
  8  9  1  0
  9 10  2  0
 10 11  1  0
 11 12  2  0
 12 13  1  0
 13 14  2  0
 14 15  1  0
 15 16  2  0
 16 17  1  0
 16 18  1  0
 18 19  2  0
 19 20  1  0
 20 21  2  0
 20 22  1  0
 22 23  1  0
 23 24  1  0
 24 25  2  0
 25 26  1  0
 26 27  2  0
 27 28  1  0
 28 29  2  0
  8 30  2  0
 30  4  1  0
 22 11  1  0
 29 24  1  0
 19 13  1  0
  1 31  1  0
  1 32  1  0
  1 33  1  0
  3 34  1  0
  3 35  1  0
  3 36  1  0
  5 37  1  0
  6 38  1  0
  7 39  1  0
  9 40  1  0
 10 41  1  0
 14 42  1  0
 15 43  1  0
 18 44  1  0
 23 45  1  0
 23 46  1  0
 25 47  1  0
 26 48  1  0
 27 49  1  0
 29 50  1  0
 30 51  1  0
M  END
>  <smiles>  (32) 
CN(C)c1cccc(/C=C/c2nc3ccc(F)cc3c(=O)n2Cc2cccnc2)c1

>  <score_type>  (32) 
oracle

>  <origin>  (32) 
autodockgpu

>  <m_score__min__energy>  (32) 
-8.6600000000000001

>  <m_primary>  (32) 
energy

>  <rmsd>  (32) 
8.440114746325825

>  <m_score__min__rmsd>  (32) 
8.440114746325825

>  <meeko>  (32) 
{"free_energy": -7.27, "intermolecular_energy": -9.06, "internal_energy": -1.3, "cluster_size": 2, "cluster_id": 4, "rank_in_cluster": 1}

>  <energy>  (32) 
-7.98

>  <cluster_rmsd>  (32) 
1.26

>  <cluster>  (32) 
2

$$$$

     RDKit          3D

 51 54  0  0  0  0  0  0  0  0999 V2000
  145.1570   71.7290  219.4770 C   0  0  0  0  0  0  0  0  0  0  0  0
  144.8920   72.7720  220.4470 N   0  0  0  0  0  0  0  0  0  0  0  0
  145.9690   73.3910  221.2000 C   0  0  0  0  0  0  0  0  0  0  0  0
  143.5560   73.1920  220.6580 C   0  0  0  0  0  0  0  0  0  0  0  0
  143.2800   74.5390  220.6200 C   0  0  0  0  0  0  0  0  0  0  0  0
  141.9770   74.9390  220.8260 C   0  0  0  0  0  0  0  0  0  0  0  0
  140.9800   73.9980  221.0680 C   0  0  0  0  0  0  0  0  0  0  0  0
  141.2350   72.6450  221.1110 C   0  0  0  0  0  0  0  0  0  0  0  0
  140.2260   71.6380  221.3590 C   0  0  0  0  0  0  0  0  0  0  0  0
  139.3620   71.6770  222.3570 C   0  0  0  0  0  0  0  0  0  0  0  0
  139.5410   70.8310  223.5450 C   0  0  0  0  0  0  0  0  0  0  0  0
  140.0770   71.4390  224.6230 N   0  0  0  0  0  0  0  0  0  0  0  0
  140.3140   70.7590  225.7630 C   0  0  0  0  0  0  0  0  0  0  0  0
  140.8650   71.3660  226.8820 C   0  0  0  0  0  0  0  0  0  0  0  0
  141.0920   70.6380  228.0290 C   0  0  0  0  0  0  0  0  0  0  0  0
  140.7680   69.2830  228.0690 C   0  0  0  0  0  0  0  0  0  0  0  0
  140.9740   68.5280  229.1780 F   0  0  0  0  0  0  0  0  0  0  0  0
  140.2160   68.6870  226.9400 C   0  0  0  0  0  0  0  0  0  0  0  0
  139.9890   69.4350  225.7800 C   0  0  0  0  0  0  0  0  0  0  0  0
  139.4360   68.8320  224.6550 C   0  0  0  0  0  0  0  0  0  0  0  0
  139.1720   67.6110  224.7650 O   0  0  0  0  0  0  0  0  0  0  0  0
  139.2040   69.5350  223.5110 N   0  0  0  0  0  0  0  0  0  0  0  0
  138.6290   68.8730  222.3650 C   0  0  0  0  0  0  0  0  0  0  0  0
  137.2390   68.4580  222.5550 C   0  0  0  0  0  0  0  0  0  0  0  0
  136.6970   67.4860  221.7000 C   0  0  0  0  0  0  0  0  0  0  0  0
  135.3840   67.0580  221.8410 C   0  0  0  0  0  0  0  0  0  0  0  0
  134.5690   67.5650  222.8200 C   0  0  0  0  0  0  0  0  0  0  0  0
  135.0960   68.4950  223.6360 N   0  0  0  0  0  0  0  0  0  0  0  0
  136.3800   68.9330  223.5180 C   0  0  0  0  0  0  0  0  0  0  0  0
  142.5580   72.2710  220.8990 C   0  0  0  0  0  0  0  0  0  0  0  0
  145.3950   70.7921  220.0019 H   0  0  0  0  0  0  0  0  0  0  0  0
  144.2681   71.5803  218.8463 H   0  0  0  0  0  0  0  0  0  0  0  0
  146.0091   72.0227  218.8463 H   0  0  0  0  0  0  0  0  0  0  0  0
  145.7747   73.2794  222.2769 H   0  0  0  0  0  0  0  0  0  0  0  0
  146.9214   72.9025  220.9466 H   0  0  0  0  0  0  0  0  0  0  0  0
  146.0264   74.4599  220.9466 H   0  0  0  0  0  0  0  0  0  0  0  0
  144.0753   75.2750  220.4309 H   0  0  0  0  0  0  0  0  0  0  0  0
  141.7233   76.0090  220.7990 H   0  0  0  0  0  0  0  0  0  0  0  0
  139.9500   74.3480  221.2310 H   0  0  0  0  0  0  0  0  0  0  0  0
  140.1752   70.7822  220.6697 H   0  0  0  0  0  0  0  0  0  0  0  0
  138.4959   72.3525  222.2981 H   0  0  0  0  0  0  0  0  0  0  0  0
  141.1222   72.4351  226.8532 H   0  0  0  0  0  0  0  0  0  0  0  0
  141.5287   71.1257  228.9130 H   0  0  0  0  0  0  0  0  0  0  0  0
  139.9558   67.6184  226.9595 H   0  0  0  0  0  0  0  0  0  0  0  0
  138.6704   69.5633  221.5095 H   0  0  0  0  0  0  0  0  0  0  0  0
  139.2153   67.9574  222.1980 H   0  0  0  0  0  0  0  0  0  0  0  0
  137.3233   67.0559  220.9045 H   0  0  0  0  0  0  0  0  0  0  0  0
  134.9892   66.2961  221.1528 H   0  0  0  0  0  0  0  0  0  0  0  0
  133.5288   67.2257  222.9332 H   0  0  0  0  0  0  0  0  0  0  0  0
  136.7444   69.6968  224.2207 H   0  0  0  0  0  0  0  0  0  0  0  0
  142.8175   71.2024  220.9245 H   0  0  0  0  0  0  0  0  0  0  0  0
  1  2  1  0
  2  3  1  0
  2  4  1  0
  4  5  2  0
  5  6  1  0
  6  7  2  0
  7  8  1  0
  8  9  1  0
  9 10  2  0
 10 11  1  0
 11 12  2  0
 12 13  1  0
 13 14  2  0
 14 15  1  0
 15 16  2  0
 16 17  1  0
 16 18  1  0
 18 19  2  0
 19 20  1  0
 20 21  2  0
 20 22  1  0
 22 23  1  0
 23 24  1  0
 24 25  2  0
 25 26  1  0
 26 27  2  0
 27 28  1  0
 28 29  2  0
  8 30  2  0
 30  4  1  0
 22 11  1  0
 29 24  1  0
 19 13  1  0
  1 31  1  0
  1 32  1  0
  1 33  1  0
  3 34  1  0
  3 35  1  0
  3 36  1  0
  5 37  1  0
  6 38  1  0
  7 39  1  0
  9 40  1  0
 10 41  1  0
 14 42  1  0
 15 43  1  0
 18 44  1  0
 23 45  1  0
 23 46  1  0
 25 47  1  0
 26 48  1  0
 27 49  1  0
 29 50  1  0
 30 51  1  0
M  END
>  <smiles>  (33) 
CN(C)c1cccc(/C=C/c2nc3ccc(F)cc3c(=O)n2Cc2cccnc2)c1

>  <score_type>  (33) 
oracle

>  <origin>  (33) 
autodockgpu

>  <m_score__min__energy>  (33) 
-8.6600000000000001

>  <m_primary>  (33) 
energy

>  <rmsd>  (33) 
11.475775355444283

>  <m_score__min__rmsd>  (33) 
11.475775355444283

>  <meeko>  (33) 
{"free_energy": -7.82, "intermolecular_energy": -9.61, "internal_energy": -1.15, "cluster_size": 12, "cluster_id": 2, "rank_in_cluster": 5}

>  <energy>  (33) 
-7.96

>  <cluster_rmsd>  (33) 
1.29

>  <cluster>  (33) 
2

$$$$

     RDKit          3D

 51 54  0  0  0  0  0  0  0  0999 V2000
  145.3870   72.6840  220.4710 C   0  0  0  0  0  0  0  0  0  0  0  0
  144.0180   72.2120  220.4040 N   0  0  0  0  0  0  0  0  0  0  0  0
  143.7120   70.8370  220.0510 C   0  0  0  0  0  0  0  0  0  0  0  0
  142.9640   73.1140  220.6900 C   0  0  0  0  0  0  0  0  0  0  0  0
  143.1000   74.4250  220.2970 C   0  0  0  0  0  0  0  0  0  0  0  0
  142.0700   75.2960  220.5790 C   0  0  0  0  0  0  0  0  0  0  0  0
  140.9310   74.8500  221.2430 C   0  0  0  0  0  0  0  0  0  0  0  0
  140.7750   73.5420  221.6460 C   0  0  0  0  0  0  0  0  0  0  0  0
  139.6060   73.0420  222.3380 C   0  0  0  0  0  0  0  0  0  0  0  0
  139.2170   71.7790  222.3290 C   0  0  0  0  0  0  0  0  0  0  0  0
  139.3980   70.9250  223.5100 C   0  0  0  0  0  0  0  0  0  0  0  0
  139.9900   71.5080  224.5710 N   0  0  0  0  0  0  0  0  0  0  0  0
  140.2330   70.8180  225.7030 C   0  0  0  0  0  0  0  0  0  0  0  0
  140.8420   71.3990  226.8050 C   0  0  0  0  0  0  0  0  0  0  0  0
  141.0740   70.6610  227.9450 C   0  0  0  0  0  0  0  0  0  0  0  0
  140.6960   69.3200  227.9950 C   0  0  0  0  0  0  0  0  0  0  0  0
  140.9040   68.5560  229.0970 F   0  0  0  0  0  0  0  0  0  0  0  0
  140.0860   68.7500  226.8820 C   0  0  0  0  0  0  0  0  0  0  0  0
  139.8550   69.5080  225.7300 C   0  0  0  0  0  0  0  0  0  0  0  0
  139.2440   68.9290  224.6220 C   0  0  0  0  0  0  0  0  0  0  0  0
  138.9340   67.7210  224.7400 O   0  0  0  0  0  0  0  0  0  0  0  0
  139.0060   69.6430  223.4860 N   0  0  0  0  0  0  0  0  0  0  0  0
  138.3700   69.0070  222.3570 C   0  0  0  0  0  0  0  0  0  0  0  0
  139.3000   68.3180  221.4630 C   0  0  0  0  0  0  0  0  0  0  0  0
  140.1540   69.0800  220.6520 C   0  0  0  0  0  0  0  0  0  0  0  0
  141.0560   68.4710  219.7890 C   0  0  0  0  0  0  0  0  0  0  0  0
  141.1460   67.1060  219.6970 C   0  0  0  0  0  0  0  0  0  0  0  0
  140.3250   66.3830  220.4780 N   0  0  0  0  0  0  0  0  0  0  0  0
  139.4310   66.9550  221.3320 C   0  0  0  0  0  0  0  0  0  0  0  0
  141.8300   72.6860  221.3490 C   0  0  0  0  0  0  0  0  0  0  0  0
  145.6880   72.7878  221.5239 H   0  0  0  0  0  0  0  0  0  0  0  0
  146.0487   71.9621  219.9699 H   0  0  0  0  0  0  0  0  0  0  0  0
  145.4632   73.6603  219.9699 H   0  0  0  0  0  0  0  0  0  0  0  0
  143.5800   70.2437  220.9678 H   0  0  0  0  0  0  0  0  0  0  0  0
  142.7854   70.8080  219.4589 H   0  0  0  0  0  0  0  0  0  0  0  0
  144.5388   70.4178  219.4589 H   0  0  0  0  0  0  0  0  0  0  0  0
  144.0043   74.7681  219.7730 H   0  0  0  0  0  0  0  0  0  0  0  0
  142.1486   76.3509  220.2773 H   0  0  0  0  0  0  0  0  0  0  0  0
  140.1254   75.5687  221.4538 H   0  0  0  0  0  0  0  0  0  0  0  0
  139.0011   73.7613  222.9095 H   0  0  0  0  0  0  0  0  0  0  0  0
  138.7511   71.3615  221.4242 H   0  0  0  0  0  0  0  0  0  0  0  0
  141.1420   72.4567  226.7687 H   0  0  0  0  0  0  0  0  0  0  0  0
  141.5571   71.1295  228.8151 H   0  0  0  0  0  0  0  0  0  0  0  0
  139.7826   67.6930  226.9086 H   0  0  0  0  0  0  0  0  0  0  0  0
  137.6456   68.2715  222.7367 H   0  0  0  0  0  0  0  0  0  0  0  0
  137.8932   69.8046  221.7683 H   0  0  0  0  0  0  0  0  0  0  0  0
  140.1086   70.1780  220.7003 H   0  0  0  0  0  0  0  0  0  0  0  0
  141.7119   69.0970  219.1662 H   0  0  0  0  0  0  0  0  0  0  0  0
  141.8596   66.6231  219.0132 H   0  0  0  0  0  0  0  0  0  0  0  0
  138.7888   66.3014  221.9406 H   0  0  0  0  0  0  0  0  0  0  0  0
  141.7578   71.6305  221.6501 H   0  0  0  0  0  0  0  0  0  0  0  0
  1  2  1  0
  2  3  1  0
  2  4  1  0
  4  5  2  0
  5  6  1  0
  6  7  2  0
  7  8  1  0
  8  9  1  0
  9 10  2  0
 10 11  1  0
 11 12  2  0
 12 13  1  0
 13 14  2  0
 14 15  1  0
 15 16  2  0
 16 17  1  0
 16 18  1  0
 18 19  2  0
 19 20  1  0
 20 21  2  0
 20 22  1  0
 22 23  1  0
 23 24  1  0
 24 25  2  0
 25 26  1  0
 26 27  2  0
 27 28  1  0
 28 29  2  0
  8 30  2  0
 30  4  1  0
 22 11  1  0
 29 24  1  0
 19 13  1  0
  1 31  1  0
  1 32  1  0
  1 33  1  0
  3 34  1  0
  3 35  1  0
  3 36  1  0
  5 37  1  0
  6 38  1  0
  7 39  1  0
  9 40  1  0
 10 41  1  0
 14 42  1  0
 15 43  1  0
 18 44  1  0
 23 45  1  0
 23 46  1  0
 25 47  1  0
 26 48  1  0
 27 49  1  0
 29 50  1  0
 30 51  1  0
M  END
>  <smiles>  (34) 
CN(C)c1cccc(/C=C/c2nc3ccc(F)cc3c(=O)n2Cc2cccnc2)c1

>  <score_type>  (34) 
oracle

>  <origin>  (34) 
autodockgpu

>  <m_score__min__energy>  (34) 
-8.6600000000000001

>  <m_primary>  (34) 
energy

>  <rmsd>  (34) 
10.680566253895602

>  <m_score__min__rmsd>  (34) 
10.680566253895602

>  <meeko>  (34) 
{"free_energy": -7.11, "intermolecular_energy": -8.9, "internal_energy": -1.54, "cluster_size": 2, "cluster_id": 5, "rank_in_cluster": 2}

>  <energy>  (34) 
-7.86

>  <cluster_rmsd>  (34) 
1.98

>  <cluster>  (34) 
2

$$$$

     RDKit          3D

 51 54  0  0  0  0  0  0  0  0999 V2000
  140.4120   76.7670  222.3350 C   0  0  0  0  0  0  0  0  0  0  0  0
  141.2550   76.2830  221.2600 N   0  0  0  0  0  0  0  0  0  0  0  0
  141.8000   77.1880  220.2650 C   0  0  0  0  0  0  0  0  0  0  0  0
  141.5480   74.8990  221.1860 C   0  0  0  0  0  0  0  0  0  0  0  0
  142.7890   74.5170  220.7330 C   0  0  0  0  0  0  0  0  0  0  0  0
  143.0670   73.1690  220.6640 C   0  0  0  0  0  0  0  0  0  0  0  0
  142.1100   72.2310  221.0420 C   0  0  0  0  0  0  0  0  0  0  0  0
  140.8610   72.5920  221.4980 C   0  0  0  0  0  0  0  0  0  0  0  0
  139.8410   71.6470  221.9000 C   0  0  0  0  0  0  0  0  0  0  0  0
  139.1860   71.7000  223.0460 C   0  0  0  0  0  0  0  0  0  0  0  0
  139.4630   70.7340  224.1180 C   0  0  0  0  0  0  0  0  0  0  0  0
  140.0960   71.2260  225.2020 N   0  0  0  0  0  0  0  0  0  0  0  0
  140.4270   70.4310  226.2390 C   0  0  0  0  0  0  0  0  0  0  0  0
  141.0800   70.9180  227.3620 C   0  0  0  0  0  0  0  0  0  0  0  0
  141.4010   70.0740  228.4030 C   0  0  0  0  0  0  0  0  0  0  0  0
  141.0700   68.7220  228.3300 C   0  0  0  0  0  0  0  0  0  0  0  0
  141.3670   67.8560  229.3320 F   0  0  0  0  0  0  0  0  0  0  0  0
  140.4160   68.2480  227.1980 C   0  0  0  0  0  0  0  0  0  0  0  0
  140.0940   69.1120  226.1470 C   0  0  0  0  0  0  0  0  0  0  0  0
  139.4390   68.6290  225.0190 C   0  0  0  0  0  0  0  0  0  0  0  0
  139.1750   67.4040  225.0250 O   0  0  0  0  0  0  0  0  0  0  0  0
  139.1120   69.4480  223.9800 N   0  0  0  0  0  0  0  0  0  0  0  0
  138.4330   68.9090  222.8270 C   0  0  0  0  0  0  0  0  0  0  0  0
  137.0150   68.6270  223.0510 C   0  0  0  0  0  0  0  0  0  0  0  0
  136.3400   69.3080  224.0750 C   0  0  0  0  0  0  0  0  0  0  0  0
  134.9950   69.0760  224.3250 C   0  0  0  0  0  0  0  0  0  0  0  0
  134.2740   68.1760  223.5820 C   0  0  0  0  0  0  0  0  0  0  0  0
  134.9280   67.5280  222.6030 N   0  0  0  0  0  0  0  0  0  0  0  0
  136.2480   67.7360  222.3370 C   0  0  0  0  0  0  0  0  0  0  0  0
  140.6090   73.9590  221.5570 C   0  0  0  0  0  0  0  0  0  0  0  0
  140.8658   76.5064  223.3025 H   0  0  0  0  0  0  0  0  0  0  0  0
  140.3124   77.8599  222.2592 H   0  0  0  0  0  0  0  0  0  0  0  0
  139.4180   76.3021  222.2592 H   0  0  0  0  0  0  0  0  0  0  0  0
  142.3045   78.0258  220.7686 H   0  0  0  0  0  0  0  0  0  0  0  0
  142.5237   76.6488  219.6361 H   0  0  0  0  0  0  0  0  0  0  0  0
  140.9849   77.5754  219.6361 H   0  0  0  0  0  0  0  0  0  0  0  0
  143.5378   75.2655  220.4345 H   0  0  0  0  0  0  0  0  0  0  0  0
  144.0516   72.8318  220.3079 H   0  0  0  0  0  0  0  0  0  0  0  0
  142.3604   71.1620  220.9741 H   0  0  0  0  0  0  0  0  0  0  0  0
  139.5949   70.8305  221.2052 H   0  0  0  0  0  0  0  0  0  0  0  0
  138.4232   72.4775  223.1998 H   0  0  0  0  0  0  0  0  0  0  0  0
  141.3431   71.9844  227.4218 H   0  0  0  0  0  0  0  0  0  0  0  0
  141.9180   70.4670  229.2908 H   0  0  0  0  0  0  0  0  0  0  0  0
  140.1494   67.1830  227.1288 H   0  0  0  0  0  0  0  0  0  0  0  0
  138.5158   69.6357  222.0054 H   0  0  0  0  0  0  0  0  0  0  0  0
  138.9159   67.9489  222.5926 H   0  0  0  0  0  0  0  0  0  0  0  0
  136.8862   70.0382  224.6901 H   0  0  0  0  0  0  0  0  0  0  0  0
  134.4960   69.6257  225.1367 H   0  0  0  0  0  0  0  0  0  0  0  0
  133.2074   67.9928  223.7789 H   0  0  0  0  0  0  0  0  0  0  0  0
  136.7184   67.1696  221.5198 H   0  0  0  0  0  0  0  0  0  0  0  0
  139.6261   74.3024  221.9121 H   0  0  0  0  0  0  0  0  0  0  0  0
  1  2  1  0
  2  3  1  0
  2  4  1  0
  4  5  2  0
  5  6  1  0
  6  7  2  0
  7  8  1  0
  8  9  1  0
  9 10  2  0
 10 11  1  0
 11 12  2  0
 12 13  1  0
 13 14  2  0
 14 15  1  0
 15 16  2  0
 16 17  1  0
 16 18  1  0
 18 19  2  0
 19 20  1  0
 20 21  2  0
 20 22  1  0
 22 23  1  0
 23 24  1  0
 24 25  2  0
 25 26  1  0
 26 27  2  0
 27 28  1  0
 28 29  2  0
  8 30  2  0
 30  4  1  0
 22 11  1  0
 29 24  1  0
 19 13  1  0
  1 31  1  0
  1 32  1  0
  1 33  1  0
  3 34  1  0
  3 35  1  0
  3 36  1  0
  5 37  1  0
  6 38  1  0
  7 39  1  0
  9 40  1  0
 10 41  1  0
 14 42  1  0
 15 43  1  0
 18 44  1  0
 23 45  1  0
 23 46  1  0
 25 47  1  0
 26 48  1  0
 27 49  1  0
 29 50  1  0
 30 51  1  0
M  END
>  <smiles>  (35) 
CN(C)c1cccc(/C=C/c2nc3ccc(F)cc3c(=O)n2Cc2cccnc2)c1

>  <score_type>  (35) 
oracle

>  <origin>  (35) 
autodockgpu

>  <m_score__min__energy>  (35) 
-8.6600000000000001

>  <m_primary>  (35) 
energy

>  <rmsd>  (35) 
11.769662756936453

>  <m_score__min__rmsd>  (35) 
11.769662756936453

>  <meeko>  (35) 
{"free_energy": -7.52, "intermolecular_energy": -9.31, "internal_energy": -1.21, "cluster_size": 12, "cluster_id": 2, "rank_in_cluster": 9}

>  <energy>  (35) 
-7.82

>  <cluster_rmsd>  (35) 
0.27

>  <cluster>  (35) 
2

$$$$

     RDKit          3D

 51 54  0  0  0  0  0  0  0  0999 V2000
  141.1430   72.2340  227.4670 C   0  0  0  0  0  0  0  0  0  0  0  0
  140.6050   70.9510  227.0630 N   0  0  0  0  0  0  0  0  0  0  0  0
  140.5030   69.8480  228.0020 C   0  0  0  0  0  0  0  0  0  0  0  0
  140.1710   70.7760  225.7250 C   0  0  0  0  0  0  0  0  0  0  0  0
  139.2320   69.8050  225.4640 C   0  0  0  0  0  0  0  0  0  0  0  0
  138.8160   69.6420  224.1610 C   0  0  0  0  0  0  0  0  0  0  0  0
  139.3380   70.4410  223.1470 C   0  0  0  0  0  0  0  0  0  0  0  0
  140.2790   71.4180  223.3880 C   0  0  0  0  0  0  0  0  0  0  0  0
  140.8450   72.2680  222.3620 C   0  0  0  0  0  0  0  0  0  0  0  0
  140.1470   73.1150  221.6260 C   0  0  0  0  0  0  0  0  0  0  0  0
  140.6680   74.4530  221.3160 C   0  0  0  0  0  0  0  0  0  0  0  0
  140.1910   75.4590  222.0770 N   0  0  0  0  0  0  0  0  0  0  0  0
  140.5750   76.7350  221.8700 C   0  0  0  0  0  0  0  0  0  0  0  0
  140.0950   77.7840  222.6410 C   0  0  0  0  0  0  0  0  0  0  0  0
  140.5110   79.0740  222.3990 C   0  0  0  0  0  0  0  0  0  0  0  0
  141.4200   79.3320  221.3750 C   0  0  0  0  0  0  0  0  0  0  0  0
  141.8570   80.5880  221.1020 F   0  0  0  0  0  0  0  0  0  0  0  0
  141.8930   78.2710  220.6090 C   0  0  0  0  0  0  0  0  0  0  0  0
  141.4640   76.9640  220.8620 C   0  0  0  0  0  0  0  0  0  0  0  0
  141.9430   75.9090  220.0930 C   0  0  0  0  0  0  0  0  0  0  0  0
  142.7560   76.2170  219.1900 O   0  0  0  0  0  0  0  0  0  0  0  0
  141.5440   74.6250  220.3170 N   0  0  0  0  0  0  0  0  0  0  0  0
  142.0630   73.5580  219.4970 C   0  0  0  0  0  0  0  0  0  0  0  0
  143.5050   73.3530  219.6330 C   0  0  0  0  0  0  0  0  0  0  0  0
  144.1310   73.7060  220.8370 C   0  0  0  0  0  0  0  0  0  0  0  0
  145.4970   73.5280  221.0150 C   0  0  0  0  0  0  0  0  0  0  0  0
  146.2840   73.0010  220.0230 C   0  0  0  0  0  0  0  0  0  0  0  0
  145.6760   72.6650  218.8720 N   0  0  0  0  0  0  0  0  0  0  0  0
  144.3390   72.8290  218.6720 C   0  0  0  0  0  0  0  0  0  0  0  0
  140.6810   71.5610  224.7120 C   0  0  0  0  0  0  0  0  0  0  0  0
  141.1673   72.2920  228.5652 H   0  0  0  0  0  0  0  0  0  0  0  0
  142.1634   72.3448  227.0713 H   0  0  0  0  0  0  0  0  0  0  0  0
  140.5068   73.0394  227.0713 H   0  0  0  0  0  0  0  0  0  0  0  0
  140.5390   70.2373  229.0302 H   0  0  0  0  0  0  0  0  0  0  0  0
  139.5521   69.3183  227.8435 H   0  0  0  0  0  0  0  0  0  0  0  0
  141.3407   69.1529  227.8435 H   0  0  0  0  0  0  0  0  0  0  0  0
  138.8258   69.1779  226.2713 H   0  0  0  0  0  0  0  0  0  0  0  0
  138.0656   68.8747  223.9196 H   0  0  0  0  0  0  0  0  0  0  0  0
  138.9863   70.2865  222.1163 H   0  0  0  0  0  0  0  0  0  0  0  0
  141.9285   72.2046  222.1830 H   0  0  0  0  0  0  0  0  0  0  0  0
  139.1619   72.8138  221.2401 H   0  0  0  0  0  0  0  0  0  0  0  0
  139.3777   77.5838  223.4506 H   0  0  0  0  0  0  0  0  0  0  0  0
  140.1258   79.9007  223.0139 H   0  0  0  0  0  0  0  0  0  0  0  0
  142.6106   78.4618  219.7974 H   0  0  0  0  0  0  0  0  0  0  0  0
  141.5526   72.6252  219.7787 H   0  0  0  0  0  0  0  0  0  0  0  0
  141.8783   73.8413  218.4503 H   0  0  0  0  0  0  0  0  0  0  0  0
  143.5301   74.1311  221.6544 H   0  0  0  0  0  0  0  0  0  0  0  0
  145.9573   73.8158  221.9717 H   0  0  0  0  0  0  0  0  0  0  0  0
  147.3658   72.8594  220.1631 H   0  0  0  0  0  0  0  0  0  0  0  0
  143.9089   72.5310  217.7044 H   0  0  0  0  0  0  0  0  0  0  0  0
  141.4313   72.3263  224.9596 H   0  0  0  0  0  0  0  0  0  0  0  0
  1  2  1  0
  2  3  1  0
  2  4  1  0
  4  5  2  0
  5  6  1  0
  6  7  2  0
  7  8  1  0
  8  9  1  0
  9 10  2  0
 10 11  1  0
 11 12  2  0
 12 13  1  0
 13 14  2  0
 14 15  1  0
 15 16  2  0
 16 17  1  0
 16 18  1  0
 18 19  2  0
 19 20  1  0
 20 21  2  0
 20 22  1  0
 22 23  1  0
 23 24  1  0
 24 25  2  0
 25 26  1  0
 26 27  2  0
 27 28  1  0
 28 29  2  0
  8 30  2  0
 30  4  1  0
 22 11  1  0
 29 24  1  0
 19 13  1  0
  1 31  1  0
  1 32  1  0
  1 33  1  0
  3 34  1  0
  3 35  1  0
  3 36  1  0
  5 37  1  0
  6 38  1  0
  7 39  1  0
  9 40  1  0
 10 41  1  0
 14 42  1  0
 15 43  1  0
 18 44  1  0
 23 45  1  0
 23 46  1  0
 25 47  1  0
 26 48  1  0
 27 49  1  0
 29 50  1  0
 30 51  1  0
M  END
>  <smiles>  (36) 
CN(C)c1cccc(/C=C/c2nc3ccc(F)cc3c(=O)n2Cc2cccnc2)c1

>  <score_type>  (36) 
oracle

>  <origin>  (36) 
autodockgpu

>  <m_score__min__energy>  (36) 
-8.6600000000000001

>  <m_primary>  (36) 
energy

>  <rmsd>  (36) 
5.397344143327414

>  <m_score__min__rmsd>  (36) 
5.397344143327414

>  <meeko>  (36) 
{"free_energy": -8.56, "intermolecular_energy": -10.35, "internal_energy": -1.2, "cluster_size": 30, "cluster_id": 1, "rank_in_cluster": 8}

>  <energy>  (36) 
-7.7

>  <cluster_rmsd>  (36) 
0.61

>  <cluster>  (36) 
2

$$$$

     RDKit          3D

 51 54  0  0  0  0  0  0  0  0999 V2000
  144.3640   74.4090  220.1950 C   0  0  0  0  0  0  0  0  0  0  0  0
  143.2310   75.2920  220.0080 N   0  0  0  0  0  0  0  0  0  0  0  0
  143.3270   76.4720  219.1670 C   0  0  0  0  0  0  0  0  0  0  0  0
  142.0090   74.9930  220.6600 C   0  0  0  0  0  0  0  0  0  0  0  0
  141.1190   76.0180  220.8830 C   0  0  0  0  0  0  0  0  0  0  0  0
  139.9330   75.7180  221.5180 C   0  0  0  0  0  0  0  0  0  0  0  0
  139.6560   74.4130  221.9170 C   0  0  0  0  0  0  0  0  0  0  0  0
  140.5340   73.3730  221.7030 C   0  0  0  0  0  0  0  0  0  0  0  0
  140.2810   72.0050  222.1030 C   0  0  0  0  0  0  0  0  0  0  0  0
  139.2910   71.6290  222.8920 C   0  0  0  0  0  0  0  0  0  0  0  0
  139.5170   70.6770  223.9870 C   0  0  0  0  0  0  0  0  0  0  0  0
  140.0850   71.1860  225.0990 N   0  0  0  0  0  0  0  0  0  0  0  0
  140.3660   70.4050  226.1610 C   0  0  0  0  0  0  0  0  0  0  0  0
  140.9510   70.9090  227.3140 C   0  0  0  0  0  0  0  0  0  0  0  0
  141.2230   70.0780  228.3790 C   0  0  0  0  0  0  0  0  0  0  0  0
  140.9100   68.7220  228.3020 C   0  0  0  0  0  0  0  0  0  0  0  0
  141.1600   67.8690  229.3270 F   0  0  0  0  0  0  0  0  0  0  0  0
  140.3240   68.2300  227.1400 C   0  0  0  0  0  0  0  0  0  0  0  0
  140.0520   69.0810  226.0640 C   0  0  0  0  0  0  0  0  0  0  0  0
  139.4650   68.5810  224.9070 C   0  0  0  0  0  0  0  0  0  0  0  0
  139.2140   67.3530  224.9100 O   0  0  0  0  0  0  0  0  0  0  0  0
  139.1880   69.3860  223.8430 N   0  0  0  0  0  0  0  0  0  0  0  0
  138.5790   68.8290  222.6590 C   0  0  0  0  0  0  0  0  0  0  0  0
  137.1680   68.4820  222.8260 C   0  0  0  0  0  0  0  0  0  0  0  0
  136.5540   67.6570  221.8720 C   0  0  0  0  0  0  0  0  0  0  0  0
  135.2170   67.2980  221.9870 C   0  0  0  0  0  0  0  0  0  0  0  0
  134.4480   67.7340  223.0360 C   0  0  0  0  0  0  0  0  0  0  0  0
  135.0440   68.5240  223.9450 N   0  0  0  0  0  0  0  0  0  0  0  0
  136.3530   68.8910  223.8550 C   0  0  0  0  0  0  0  0  0  0  0  0
  141.7220   73.7040  221.0610 C   0  0  0  0  0  0  0  0  0  0  0  0
  144.5452   74.2678  221.2708 H   0  0  0  0  0  0  0  0  0  0  0  0
  144.1515   73.4359  219.7281 H   0  0  0  0  0  0  0  0  0  0  0  0
  145.2557   74.8527  219.7281 H   0  0  0  0  0  0  0  0  0  0  0  0
  143.3999   77.3686  219.8002 H   0  0  0  0  0  0  0  0  0  0  0  0
  144.2221   76.3978  218.5319 H   0  0  0  0  0  0  0  0  0  0  0  0
  142.4317   76.5435  218.5319 H   0  0  0  0  0  0  0  0  0  0  0  0
  141.3469   77.0458  220.5642 H   0  0  0  0  0  0  0  0  0  0  0  0
  139.2001   76.5152  221.7110 H   0  0  0  0  0  0  0  0  0  0  0  0
  138.7010   74.2047  222.4217 H   0  0  0  0  0  0  0  0  0  0  0  0
  140.9591   71.2261  221.7242 H   0  0  0  0  0  0  0  0  0  0  0  0
  138.2821   72.0349  222.7265 H   0  0  0  0  0  0  0  0  0  0  0  0
  141.1992   71.9787  227.3782 H   0  0  0  0  0  0  0  0  0  0  0  0
  141.6870   70.4847  229.2897 H   0  0  0  0  0  0  0  0  0  0  0  0
  140.0723   67.1617  227.0669 H   0  0  0  0  0  0  0  0  0  0  0  0
  138.6605   69.5672  221.8475 H   0  0  0  0  0  0  0  0  0  0  0  0
  139.1135   67.8942  222.4345 H   0  0  0  0  0  0  0  0  0  0  0  0
  137.1413   67.2880  221.0182 H   0  0  0  0  0  0  0  0  0  0  0  0
  134.7655   66.6506  221.2209 H   0  0  0  0  0  0  0  0  0  0  0  0
  133.3896   67.4493  223.1290 H   0  0  0  0  0  0  0  0  0  0  0  0
  136.7745   69.5402  224.6365 H   0  0  0  0  0  0  0  0  0  0  0  0
  142.4588   72.9109  220.8659 H   0  0  0  0  0  0  0  0  0  0  0  0
  1  2  1  0
  2  3  1  0
  2  4  1  0
  4  5  2  0
  5  6  1  0
  6  7  2  0
  7  8  1  0
  8  9  1  0
  9 10  2  0
 10 11  1  0
 11 12  2  0
 12 13  1  0
 13 14  2  0
 14 15  1  0
 15 16  2  0
 16 17  1  0
 16 18  1  0
 18 19  2  0
 19 20  1  0
 20 21  2  0
 20 22  1  0
 22 23  1  0
 23 24  1  0
 24 25  2  0
 25 26  1  0
 26 27  2  0
 27 28  1  0
 28 29  2  0
  8 30  2  0
 30  4  1  0
 22 11  1  0
 29 24  1  0
 19 13  1  0
  1 31  1  0
  1 32  1  0
  1 33  1  0
  3 34  1  0
  3 35  1  0
  3 36  1  0
  5 37  1  0
  6 38  1  0
  7 39  1  0
  9 40  1  0
 10 41  1  0
 14 42  1  0
 15 43  1  0
 18 44  1  0
 23 45  1  0
 23 46  1  0
 25 47  1  0
 26 48  1  0
 27 49  1  0
 29 50  1  0
 30 51  1  0
M  END
>  <smiles>  (37) 
CN(C)c1cccc(/C=C/c2nc3ccc(F)cc3c(=O)n2Cc2cccnc2)c1

>  <score_type>  (37) 
oracle

>  <origin>  (37) 
autodockgpu

>  <m_score__min__energy>  (37) 
-8.6600000000000001

>  <m_primary>  (37) 
energy

>  <rmsd>  (37) 
11.752737236035205

>  <m_score__min__rmsd>  (37) 
11.752737236035205

>  <meeko>  (37) 
{"free_energy": -7.98, "intermolecular_energy": -9.77, "internal_energy": -1.08, "cluster_size": 12, "cluster_id": 2, "rank_in_cluster": 2}

>  <energy>  (37) 
-7.67

>  <cluster_rmsd>  (37) 
0.62

>  <cluster>  (37) 
2

$$$$

     RDKit          3D

 51 54  0  0  0  0  0  0  0  0999 V2000
  145.1830   71.7640  219.3940 C   0  0  0  0  0  0  0  0  0  0  0  0
  144.9290   72.7470  220.4280 N   0  0  0  0  0  0  0  0  0  0  0  0
  146.0160   73.3360  221.1900 C   0  0  0  0  0  0  0  0  0  0  0  0
  143.5940   73.1370  220.6940 C   0  0  0  0  0  0  0  0  0  0  0  0
  143.2720   74.4720  220.6050 C   0  0  0  0  0  0  0  0  0  0  0  0
  141.9710   74.8430  220.8650 C   0  0  0  0  0  0  0  0  0  0  0  0
  141.0190   73.8860  221.2070 C   0  0  0  0  0  0  0  0  0  0  0  0
  141.3200   72.5450  221.3020 C   0  0  0  0  0  0  0  0  0  0  0  0
  140.3590   71.5210  221.6540 C   0  0  0  0  0  0  0  0  0  0  0  0
  139.5190   71.6050  222.6700 C   0  0  0  0  0  0  0  0  0  0  0  0
  139.6380   70.7050  223.8240 C   0  0  0  0  0  0  0  0  0  0  0  0
  140.1730   71.2450  224.9380 N   0  0  0  0  0  0  0  0  0  0  0  0
  140.3560   70.5100  226.0530 C   0  0  0  0  0  0  0  0  0  0  0  0
  140.9060   71.0470  227.2080 C   0  0  0  0  0  0  0  0  0  0  0  0
  141.0780   70.2640  228.3280 C   0  0  0  0  0  0  0  0  0  0  0  0
  140.6990   68.9230  228.3050 C   0  0  0  0  0  0  0  0  0  0  0  0
  140.8500   68.1160  229.3850 F   0  0  0  0  0  0  0  0  0  0  0  0
  140.1490   68.3970  227.1400 C   0  0  0  0  0  0  0  0  0  0  0  0
  139.9790   69.2010  226.0080 C   0  0  0  0  0  0  0  0  0  0  0  0
  139.4280   68.6670  224.8470 C   0  0  0  0  0  0  0  0  0  0  0  0
  139.1120   67.4550  224.9010 O   0  0  0  0  0  0  0  0  0  0  0  0
  139.2490   69.4260  223.7290 N   0  0  0  0  0  0  0  0  0  0  0  0
  138.6740   68.8350  222.5450 C   0  0  0  0  0  0  0  0  0  0  0  0
  137.2800   68.4220  222.7050 C   0  0  0  0  0  0  0  0  0  0  0  0
  136.7590   67.4420  221.8460 C   0  0  0  0  0  0  0  0  0  0  0  0
  135.4430   67.0150  221.9600 C   0  0  0  0  0  0  0  0  0  0  0  0
  134.6040   67.5320  222.9140 C   0  0  0  0  0  0  0  0  0  0  0  0
  135.1110   68.4700  223.7320 N   0  0  0  0  0  0  0  0  0  0  0  0
  136.3980   68.9070  223.6420 C   0  0  0  0  0  0  0  0  0  0  0  0
  142.6410   72.1990  221.0340 C   0  0  0  0  0  0  0  0  0  0  0  0
  145.4324   70.7988  219.8590 H   0  0  0  0  0  0  0  0  0  0  0  0
  144.2851   71.6488  218.7691 H   0  0  0  0  0  0  0  0  0  0  0  0
  146.0243   72.0982  218.7691 H   0  0  0  0  0  0  0  0  0  0  0  0
  145.8120   73.2255  222.2653 H   0  0  0  0  0  0  0  0  0  0  0  0
  146.9576   72.8247  220.9410 H   0  0  0  0  0  0  0  0  0  0  0  0
  146.1018   74.4040  220.9410 H   0  0  0  0  0  0  0  0  0  0  0  0
  144.0310   75.2207  220.3342 H   0  0  0  0  0  0  0  0  0  0  0  0
  141.6822   75.9025  220.8020 H   0  0  0  0  0  0  0  0  0  0  0  0
  139.9883   74.2129  221.4088 H   0  0  0  0  0  0  0  0  0  0  0  0
  140.3261   70.6128  221.0343 H   0  0  0  0  0  0  0  0  0  0  0  0
  138.7191   72.3598  222.6512 H   0  0  0  0  0  0  0  0  0  0  0  0
  141.2066   72.1049  227.2294 H   0  0  0  0  0  0  0  0  0  0  0  0
  141.5143   70.6969  229.2403 H   0  0  0  0  0  0  0  0  0  0  0  0
  139.8454   67.3402  227.1090 H   0  0  0  0  0  0  0  0  0  0  0  0
  138.7253   69.5722  221.7302 H   0  0  0  0  0  0  0  0  0  0  0  0
  139.2534   67.9252  222.3291 H   0  0  0  0  0  0  0  0  0  0  0  0
  137.4041   67.0050  221.0695 H   0  0  0  0  0  0  0  0  0  0  0  0
  135.0650   66.2457  221.2706 H   0  0  0  0  0  0  0  0  0  0  0  0
  133.5614   67.1935  223.0056 H   0  0  0  0  0  0  0  0  0  0  0  0
  136.7452   69.6776  224.3460 H   0  0  0  0  0  0  0  0  0  0  0  0
  142.9356   71.1410  221.0953 H   0  0  0  0  0  0  0  0  0  0  0  0
  1  2  1  0
  2  3  1  0
  2  4  1  0
  4  5  2  0
  5  6  1  0
  6  7  2  0
  7  8  1  0
  8  9  1  0
  9 10  2  0
 10 11  1  0
 11 12  2  0
 12 13  1  0
 13 14  2  0
 14 15  1  0
 15 16  2  0
 16 17  1  0
 16 18  1  0
 18 19  2  0
 19 20  1  0
 20 21  2  0
 20 22  1  0
 22 23  1  0
 23 24  1  0
 24 25  2  0
 25 26  1  0
 26 27  2  0
 27 28  1  0
 28 29  2  0
  8 30  2  0
 30  4  1  0
 22 11  1  0
 29 24  1  0
 19 13  1  0
  1 31  1  0
  1 32  1  0
  1 33  1  0
  3 34  1  0
  3 35  1  0
  3 36  1  0
  5 37  1  0
  6 38  1  0
  7 39  1  0
  9 40  1  0
 10 41  1  0
 14 42  1  0
 15 43  1  0
 18 44  1  0
 23 45  1  0
 23 46  1  0
 25 47  1  0
 26 48  1  0
 27 49  1  0
 29 50  1  0
 30 51  1  0
M  END
>  <smiles>  (38) 
CN(C)c1cccc(/C=C/c2nc3ccc(F)cc3c(=O)n2Cc2cccnc2)c1

>  <score_type>  (38) 
oracle

>  <origin>  (38) 
autodockgpu

>  <m_score__min__energy>  (38) 
-8.6600000000000001

>  <m_primary>  (38) 
energy

>  <rmsd>  (38) 
11.695277253255071

>  <m_score__min__rmsd>  (38) 
11.695277253255071

>  <meeko>  (38) 
{"free_energy": -7.98, "intermolecular_energy": -9.77, "internal_energy": -1.11, "cluster_size": 12, "cluster_id": 2, "rank_in_cluster": 1}

>  <energy>  (38) 
-7.55

>  <cluster_rmsd>  (38) 
0.72

>  <cluster>  (38) 
2

$$$$

     RDKit          3D

 51 54  0  0  0  0  0  0  0  0999 V2000
  141.1140   82.5980  221.4450 C   0  0  0  0  0  0  0  0  0  0  0  0
  141.4450   81.3300  220.8270 N   0  0  0  0  0  0  0  0  0  0  0  0
  141.7940   81.2460  219.4200 C   0  0  0  0  0  0  0  0  0  0  0  0
  141.4260   80.1540  221.6170 C   0  0  0  0  0  0  0  0  0  0  0  0
  141.9900   80.1990  222.8710 C   0  0  0  0  0  0  0  0  0  0  0  0
  141.9670   79.0500  223.6320 C   0  0  0  0  0  0  0  0  0  0  0  0
  141.3880   77.8850  223.1360 C   0  0  0  0  0  0  0  0  0  0  0  0
  140.8190   77.8190  221.8830 C   0  0  0  0  0  0  0  0  0  0  0  0
  140.2080   76.6280  221.3320 C   0  0  0  0  0  0  0  0  0  0  0  0
  140.2360   75.4400  221.9100 C   0  0  0  0  0  0  0  0  0  0  0  0
  141.2190   74.4270  221.5040 C   0  0  0  0  0  0  0  0  0  0  0  0
  142.4440   74.8910  221.1870 N   0  0  0  0  0  0  0  0  0  0  0  0
  143.4220   74.0590  220.7760 C   0  0  0  0  0  0  0  0  0  0  0  0
  144.6890   74.5170  220.4440 C   0  0  0  0  0  0  0  0  0  0  0  0
  145.6620   73.6360  220.0270 C   0  0  0  0  0  0  0  0  0  0  0  0
  145.3770   72.2750  219.9360 C   0  0  0  0  0  0  0  0  0  0  0  0
  146.3050   71.3720  219.5310 F   0  0  0  0  0  0  0  0  0  0  0  0
  144.1020   71.8290  220.2720 C   0  0  0  0  0  0  0  0  0  0  0  0
  143.1210   72.7320  220.6940 C   0  0  0  0  0  0  0  0  0  0  0  0
  141.8490   72.2780  221.0280 C   0  0  0  0  0  0  0  0  0  0  0  0
  141.6660   71.0420  220.9200 O   0  0  0  0  0  0  0  0  0  0  0  0
  140.8730   73.1330  221.4430 N   0  0  0  0  0  0  0  0  0  0  0  0
  139.5660   72.6230  221.7800 C   0  0  0  0  0  0  0  0  0  0  0  0
  139.5370   71.8340  223.0110 C   0  0  0  0  0  0  0  0  0  0  0  0
  140.6380   71.8870  223.8790 C   0  0  0  0  0  0  0  0  0  0  0  0
  140.6560   71.1580  225.0610 C   0  0  0  0  0  0  0  0  0  0  0  0
  139.6010   70.3610  225.4250 C   0  0  0  0  0  0  0  0  0  0  0  0
  138.5500   70.3170  224.5880 N   0  0  0  0  0  0  0  0  0  0  0  0
  138.5070   71.0210  223.4230 C   0  0  0  0  0  0  0  0  0  0  0  0
  140.8560   78.9930  221.1370 C   0  0  0  0  0  0  0  0  0  0  0  0
  141.1420   82.4909  222.5394 H   0  0  0  0  0  0  0  0  0  0  0  0
  141.8434   83.3598  221.1324 H   0  0  0  0  0  0  0  0  0  0  0  0
  140.1053   82.9060  221.1324 H   0  0  0  0  0  0  0  0  0  0  0  0
  142.8591   80.9896  219.3211 H   0  0  0  0  0  0  0  0  0  0  0  0
  141.1835   80.4692  218.9365 H   0  0  0  0  0  0  0  0  0  0  0  0
  141.6038   82.2156  218.9365 H   0  0  0  0  0  0  0  0  0  0  0  0
  142.4455   81.1238  223.2547 H   0  0  0  0  0  0  0  0  0  0  0  0
  142.4095   79.0535  224.6391 H   0  0  0  0  0  0  0  0  0  0  0  0
  141.3847   76.9844  223.7676 H   0  0  0  0  0  0  0  0  0  0  0  0
  139.6857   76.7178  220.3681 H   0  0  0  0  0  0  0  0  0  0  0  0
  139.5134   75.2066  222.7059 H   0  0  0  0  0  0  0  0  0  0  0  0
  144.9178   75.5906  220.5143 H   0  0  0  0  0  0  0  0  0  0  0  0
  146.6642   74.0067  219.7657 H   0  0  0  0  0  0  0  0  0  0  0  0
  143.8640   70.7572  220.2050 H   0  0  0  0  0  0  0  0  0  0  0  0
  138.8816   73.4759  221.8991 H   0  0  0  0  0  0  0  0  0  0  0  0
  139.2651   71.9509  220.9629 H   0  0  0  0  0  0  0  0  0  0  0  0
  141.5017   72.5167  223.6189 H   0  0  0  0  0  0  0  0  0  0  0  0
  141.5351   71.2212  225.7192 H   0  0  0  0  0  0  0  0  0  0  0  0
  139.6142   69.7831  226.3609 H   0  0  0  0  0  0  0  0  0  0  0  0
  137.6137   70.9361  222.7868 H   0  0  0  0  0  0  0  0  0  0  0  0
  140.4153   78.9954  220.1291 H   0  0  0  0  0  0  0  0  0  0  0  0
  1  2  1  0
  2  3  1  0
  2  4  1  0
  4  5  2  0
  5  6  1  0
  6  7  2  0
  7  8  1  0
  8  9  1  0
  9 10  2  0
 10 11  1  0
 11 12  2  0
 12 13  1  0
 13 14  2  0
 14 15  1  0
 15 16  2  0
 16 17  1  0
 16 18  1  0
 18 19  2  0
 19 20  1  0
 20 21  2  0
 20 22  1  0
 22 23  1  0
 23 24  1  0
 24 25  2  0
 25 26  1  0
 26 27  2  0
 27 28  1  0
 28 29  2  0
  8 30  2  0
 30  4  1  0
 22 11  1  0
 29 24  1  0
 19 13  1  0
  1 31  1  0
  1 32  1  0
  1 33  1  0
  3 34  1  0
  3 35  1  0
  3 36  1  0
  5 37  1  0
  6 38  1  0
  7 39  1  0
  9 40  1  0
 10 41  1  0
 14 42  1  0
 15 43  1  0
 18 44  1  0
 23 45  1  0
 23 46  1  0
 25 47  1  0
 26 48  1  0
 27 49  1  0
 29 50  1  0
 30 51  1  0
M  END
>  <smiles>  (39) 
CN(C)c1cccc(/C=C/c2nc3ccc(F)cc3c(=O)n2Cc2cccnc2)c1

>  <score_type>  (39) 
oracle

>  <origin>  (39) 
autodockgpu

>  <m_score__min__energy>  (39) 
-8.6600000000000001

>  <m_primary>  (39) 
energy

>  <rmsd>  (39) 
8.571133899983748

>  <m_score__min__rmsd>  (39) 
8.571133899983748

>  <meeko>  (39) 
{"free_energy": -7.2, "intermolecular_energy": -8.99, "internal_energy": -1.22, "cluster_size": 2, "cluster_id": 4, "rank_in_cluster": 2}

>  <energy>  (39) 
-7.52

>  <cluster_rmsd>  (39) 
1.81

>  <cluster>  (39) 
2

$$$$

     RDKit          3D

 51 54  0  0  0  0  0  0  0  0999 V2000
  141.0610   69.6850  228.3250 C   0  0  0  0  0  0  0  0  0  0  0  0
  140.7290   70.7100  227.3570 N   0  0  0  0  0  0  0  0  0  0  0  0
  141.0840   72.1010  227.5810 C   0  0  0  0  0  0  0  0  0  0  0  0
  140.0460   70.3430  226.1710 C   0  0  0  0  0  0  0  0  0  0  0  0
  139.3790   69.1410  226.1470 C   0  0  0  0  0  0  0  0  0  0  0  0
  138.7170   68.7910  224.9900 C   0  0  0  0  0  0  0  0  0  0  0  0
  138.7320   69.6380  223.8850 C   0  0  0  0  0  0  0  0  0  0  0  0
  139.3950   70.8460  223.8880 C   0  0  0  0  0  0  0  0  0  0  0  0
  139.4330   71.7520  222.7600 C   0  0  0  0  0  0  0  0  0  0  0  0
  140.5240   72.0460  222.0760 C   0  0  0  0  0  0  0  0  0  0  0  0
  140.8100   73.4270  221.6680 C   0  0  0  0  0  0  0  0  0  0  0  0
  140.1020   74.3850  222.3000 N   0  0  0  0  0  0  0  0  0  0  0  0
  140.2580   75.6880  221.9930 C   0  0  0  0  0  0  0  0  0  0  0  0
  139.5380   76.6870  222.6310 C   0  0  0  0  0  0  0  0  0  0  0  0
  139.7250   78.0090  222.2890 C   0  0  0  0  0  0  0  0  0  0  0  0
  140.6420   78.3470  221.2950 C   0  0  0  0  0  0  0  0  0  0  0  0
  140.8580   79.6360  220.9270 F   0  0  0  0  0  0  0  0  0  0  0  0
  141.3570   77.3350  220.6630 C   0  0  0  0  0  0  0  0  0  0  0  0
  141.1600   75.9960  221.0170 C   0  0  0  0  0  0  0  0  0  0  0  0
  141.8790   74.9900  220.3810 C   0  0  0  0  0  0  0  0  0  0  0  0
  142.6830   75.3710  219.4980 O   0  0  0  0  0  0  0  0  0  0  0  0
  141.7080   73.6780  220.7060 N   0  0  0  0  0  0  0  0  0  0  0  0
  142.4740   72.6630  220.0220 C   0  0  0  0  0  0  0  0  0  0  0  0
  143.9140   72.9150  220.0090 C   0  0  0  0  0  0  0  0  0  0  0  0
  144.5410   73.3390  221.1900 C   0  0  0  0  0  0  0  0  0  0  0  0
  145.9060   73.5880  221.2290 C   0  0  0  0  0  0  0  0  0  0  0  0
  146.6930   73.4290  220.1170 C   0  0  0  0  0  0  0  0  0  0  0  0
  146.0850   73.0220  218.9890 N   0  0  0  0  0  0  0  0  0  0  0  0
  144.7480   72.7710  218.9240 C   0  0  0  0  0  0  0  0  0  0  0  0
  140.0540   71.1720  225.0690 C   0  0  0  0  0  0  0  0  0  0  0  0
  140.9315   70.0849  229.3415 H   0  0  0  0  0  0  0  0  0  0  0  0
  140.3974   68.8191  228.1843 H   0  0  0  0  0  0  0  0  0  0  0  0
  142.1063   69.3726  228.1843 H   0  0  0  0  0  0  0  0  0  0  0  0
  141.1340   72.2971  228.6622 H   0  0  0  0  0  0  0  0  0  0  0  0
  142.0636   72.3074  227.1252 H   0  0  0  0  0  0  0  0  0  0  0  0
  140.3231   72.7516  227.1252 H   0  0  0  0  0  0  0  0  0  0  0  0
  139.3739   68.4784  227.0251 H   0  0  0  0  0  0  0  0  0  0  0  0
  138.1732   67.8362  224.9392 H   0  0  0  0  0  0  0  0  0  0  0  0
  138.1945   69.3314  222.9756 H   0  0  0  0  0  0  0  0  0  0  0  0
  138.4902   72.2275  222.4517 H   0  0  0  0  0  0  0  0  0  0  0  0
  141.2284   71.2447  221.8082 H   0  0  0  0  0  0  0  0  0  0  0  0
  138.8131   76.4226  223.4149 H   0  0  0  0  0  0  0  0  0  0  0  0
  139.1514   78.7964  222.7998 H   0  0  0  0  0  0  0  0  0  0  0  0
  142.0839   77.5899  219.8777 H   0  0  0  0  0  0  0  0  0  0  0  0
  142.2957   71.6993  220.5215 H   0  0  0  0  0  0  0  0  0  0  0  0
  142.1405   72.6639  218.9738 H   0  0  0  0  0  0  0  0  0  0  0  0
  143.9404   73.4766  222.1012 H   0  0  0  0  0  0  0  0  0  0  0  0
  146.3662   73.9198  222.1714 H   0  0  0  0  0  0  0  0  0  0  0  0
  147.7748   73.6260  220.1468 H   0  0  0  0  0  0  0  0  0  0  0  0
  144.3181   72.4403  217.9670 H   0  0  0  0  0  0  0  0  0  0  0  0
  140.6008   72.1248  225.1258 H   0  0  0  0  0  0  0  0  0  0  0  0
  1  2  1  0
  2  3  1  0
  2  4  1  0
  4  5  2  0
  5  6  1  0
  6  7  2  0
  7  8  1  0
  8  9  1  0
  9 10  2  0
 10 11  1  0
 11 12  2  0
 12 13  1  0
 13 14  2  0
 14 15  1  0
 15 16  2  0
 16 17  1  0
 16 18  1  0
 18 19  2  0
 19 20  1  0
 20 21  2  0
 20 22  1  0
 22 23  1  0
 23 24  1  0
 24 25  2  0
 25 26  1  0
 26 27  2  0
 27 28  1  0
 28 29  2  0
  8 30  2  0
 30  4  1  0
 22 11  1  0
 29 24  1  0
 19 13  1  0
  1 31  1  0
  1 32  1  0
  1 33  1  0
  3 34  1  0
  3 35  1  0
  3 36  1  0
  5 37  1  0
  6 38  1  0
  7 39  1  0
  9 40  1  0
 10 41  1  0
 14 42  1  0
 15 43  1  0
 18 44  1  0
 23 45  1  0
 23 46  1  0
 25 47  1  0
 26 48  1  0
 27 49  1  0
 29 50  1  0
 30 51  1  0
M  END
>  <smiles>  (40) 
CN(C)c1cccc(/C=C/c2nc3ccc(F)cc3c(=O)n2Cc2cccnc2)c1

>  <score_type>  (40) 
oracle

>  <origin>  (40) 
autodockgpu

>  <m_score__min__energy>  (40) 
-8.6600000000000001

>  <m_primary>  (40) 
energy

>  <rmsd>  (40) 
5.987337825986926

>  <m_score__min__rmsd>  (40) 
5.987337825986926

>  <meeko>  (40) 
{"free_energy": -8.64, "intermolecular_energy": -10.43, "internal_energy": -1.08, "cluster_size": 30, "cluster_id": 1, "rank_in_cluster": 3}

>  <energy>  (40) 
-7.48

>  <cluster_rmsd>  (40) 
1.88

>  <cluster>  (40) 
2

$$$$

     RDKit          3D

 51 54  0  0  0  0  0  0  0  0999 V2000
  140.3250   69.3240  225.6610 C   0  0  0  0  0  0  0  0  0  0  0  0
  140.3700   70.7430  225.3690 N   0  0  0  0  0  0  0  0  0  0  0  0
  141.1530   71.6550  226.1820 C   0  0  0  0  0  0  0  0  0  0  0  0
  139.6320   71.2420  224.2670 C   0  0  0  0  0  0  0  0  0  0  0  0
  138.2740   71.0250  224.2370 C   0  0  0  0  0  0  0  0  0  0  0  0
  137.5640   71.5140  223.1620 C   0  0  0  0  0  0  0  0  0  0  0  0
  138.2140   72.2040  222.1420 C   0  0  0  0  0  0  0  0  0  0  0  0
  139.5730   72.4320  222.1520 C   0  0  0  0  0  0  0  0  0  0  0  0
  140.2830   73.1440  221.1120 C   0  0  0  0  0  0  0  0  0  0  0  0
  141.4440   73.7510  221.2820 C   0  0  0  0  0  0  0  0  0  0  0  0
  141.5670   75.2060  221.1190 C   0  0  0  0  0  0  0  0  0  0  0  0
  141.0530   75.9540  222.1160 N   0  0  0  0  0  0  0  0  0  0  0  0
  141.0840   77.3010  222.0670 C   0  0  0  0  0  0  0  0  0  0  0  0
  140.5600   78.0880  223.0820 C   0  0  0  0  0  0  0  0  0  0  0  0
  140.6100   79.4620  222.9950 C   0  0  0  0  0  0  0  0  0  0  0  0
  141.1880   80.0690  221.8820 C   0  0  0  0  0  0  0  0  0  0  0  0
  141.2580   81.4180  221.7560 F   0  0  0  0  0  0  0  0  0  0  0  0
  141.7080   79.2670  220.8710 C   0  0  0  0  0  0  0  0  0  0  0  0
  141.6530   77.8730  220.9680 C   0  0  0  0  0  0  0  0  0  0  0  0
  142.1770   77.0790  219.9530 C   0  0  0  0  0  0  0  0  0  0  0  0
  142.6790   77.6950  218.9830 O   0  0  0  0  0  0  0  0  0  0  0  0
  142.1380   75.7190  220.0210 N   0  0  0  0  0  0  0  0  0  0  0  0
  142.6920   74.9300  218.9470 C   0  0  0  0  0  0  0  0  0  0  0  0
  143.9250   74.2270  219.3010 C   0  0  0  0  0  0  0  0  0  0  0  0
  144.5760   74.5580  220.4990 C   0  0  0  0  0  0  0  0  0  0  0  0
  145.7470   73.9180  220.8800 C   0  0  0  0  0  0  0  0  0  0  0  0
  146.3110   72.9380  220.1030 C   0  0  0  0  0  0  0  0  0  0  0  0
  145.6800   72.6260  218.9570 N   0  0  0  0  0  0  0  0  0  0  0  0
  144.5310   73.2390  218.5600 C   0  0  0  0  0  0  0  0  0  0  0  0
  140.2630   71.9270  223.2490 C   0  0  0  0  0  0  0  0  0  0  0  0
  140.3202   69.1739  226.7507 H   0  0  0  0  0  0  0  0  0  0  0  0
  139.4126   68.8891  225.2269 H   0  0  0  0  0  0  0  0  0  0  0  0
  141.2080   68.8321  225.2269 H   0  0  0  0  0  0  0  0  0  0  0  0
  140.9724   71.4446  227.2465 H   0  0  0  0  0  0  0  0  0  0  0  0
  142.2215   71.5208  225.9579 H   0  0  0  0  0  0  0  0  0  0  0  0
  140.8586   72.6909  225.9579 H   0  0  0  0  0  0  0  0  0  0  0  0
  137.7699   70.4775  225.0470 H   0  0  0  0  0  0  0  0  0  0  0  0
  136.4764   71.3582  223.1093 H   0  0  0  0  0  0  0  0  0  0  0  0
  137.6203   72.5813  221.2964 H   0  0  0  0  0  0  0  0  0  0  0  0
  139.8254   73.1826  220.1124 H   0  0  0  0  0  0  0  0  0  0  0  0
  142.3314   73.1586  221.5494 H   0  0  0  0  0  0  0  0  0  0  0  0
  140.1018   77.6122  223.9616 H   0  0  0  0  0  0  0  0  0  0  0  0
  140.1936   80.0799  223.8042 H   0  0  0  0  0  0  0  0  0  0  0  0
  142.1667   79.7339  219.9869 H   0  0  0  0  0  0  0  0  0  0  0  0
  141.9429   74.1837  218.6439 H   0  0  0  0  0  0  0  0  0  0  0  0
  142.9452   75.6288  218.1361 H   0  0  0  0  0  0  0  0  0  0  0  0
  144.1509   75.3383  221.1474 H   0  0  0  0  0  0  0  0  0  0  0  0
  146.2332   74.2024  221.8249 H   0  0  0  0  0  0  0  0  0  0  0  0
  147.2388   72.4296  220.4042 H   0  0  0  0  0  0  0  0  0  0  0  0
  144.0693   72.9324  217.6098 H   0  0  0  0  0  0  0  0  0  0  0  0
  141.3509   72.0792  223.3071 H   0  0  0  0  0  0  0  0  0  0  0  0
  1  2  1  0
  2  3  1  0
  2  4  1  0
  4  5  2  0
  5  6  1  0
  6  7  2  0
  7  8  1  0
  8  9  1  0
  9 10  2  0
 10 11  1  0
 11 12  2  0
 12 13  1  0
 13 14  2  0
 14 15  1  0
 15 16  2  0
 16 17  1  0
 16 18  1  0
 18 19  2  0
 19 20  1  0
 20 21  2  0
 20 22  1  0
 22 23  1  0
 23 24  1  0
 24 25  2  0
 25 26  1  0
 26 27  2  0
 27 28  1  0
 28 29  2  0
  8 30  2  0
 30  4  1  0
 22 11  1  0
 29 24  1  0
 19 13  1  0
  1 31  1  0
  1 32  1  0
  1 33  1  0
  3 34  1  0
  3 35  1  0
  3 36  1  0
  5 37  1  0
  6 38  1  0
  7 39  1  0
  9 40  1  0
 10 41  1  0
 14 42  1  0
 15 43  1  0
 18 44  1  0
 23 45  1  0
 23 46  1  0
 25 47  1  0
 26 48  1  0
 27 49  1  0
 29 50  1  0
 30 51  1  0
M  END
>  <smiles>  (41) 
CN(C)c1cccc(/C=C/c2nc3ccc(F)cc3c(=O)n2Cc2cccnc2)c1

>  <score_type>  (41) 
oracle

>  <origin>  (41) 
autodockgpu

>  <m_score__min__energy>  (41) 
-8.6600000000000001

>  <m_primary>  (41) 
energy

>  <rmsd>  (41) 
5.197435522527735

>  <m_score__min__rmsd>  (41) 
5.197435522527735

>  <meeko>  (41) 
{"free_energy": -7.71, "intermolecular_energy": -9.5, "internal_energy": -1.18, "cluster_size": 30, "cluster_id": 1, "rank_in_cluster": 25}

>  <energy>  (41) 
-7.42

>  <cluster_rmsd>  (41) 
1.89

>  <cluster>  (41) 
2

$$$$

     RDKit          3D

 51 54  0  0  0  0  0  0  0  0999 V2000
  140.6830   71.6450  227.5260 C   0  0  0  0  0  0  0  0  0  0  0  0
  140.3510   70.4710  226.7450 N   0  0  0  0  0  0  0  0  0  0  0  0
  140.4500   69.1370  227.3120 C   0  0  0  0  0  0  0  0  0  0  0  0
  139.9230   70.6340  225.4040 C   0  0  0  0  0  0  0  0  0  0  0  0
  138.7950   69.9620  224.9920 C   0  0  0  0  0  0  0  0  0  0  0  0
  138.3850   70.1260  223.6870 C   0  0  0  0  0  0  0  0  0  0  0  0
  139.1000   70.9490  222.8210 C   0  0  0  0  0  0  0  0  0  0  0  0
  140.2320   71.6300  223.2130 C   0  0  0  0  0  0  0  0  0  0  0  0
  141.0010   72.4930  222.3420 C   0  0  0  0  0  0  0  0  0  0  0  0
  140.4900   73.1930  221.3450 C   0  0  0  0  0  0  0  0  0  0  0  0
  140.8840   74.5900  221.1240 C   0  0  0  0  0  0  0  0  0  0  0  0
  140.3440   75.4930  221.9670 N   0  0  0  0  0  0  0  0  0  0  0  0
  140.6100   76.8090  221.8460 C   0  0  0  0  0  0  0  0  0  0  0  0
  140.0630   77.7540  222.7030 C   0  0  0  0  0  0  0  0  0  0  0  0
  140.3590   79.0900  222.5480 C   0  0  0  0  0  0  0  0  0  0  0  0
  141.2130   79.5000  221.5250 C   0  0  0  0  0  0  0  0  0  0  0  0
  141.5320   80.8060  221.3370 F   0  0  0  0  0  0  0  0  0  0  0  0
  141.7540   78.5430  220.6730 C   0  0  0  0  0  0  0  0  0  0  0  0
  141.4470   77.1880  220.8390 C   0  0  0  0  0  0  0  0  0  0  0  0
  141.9940   76.2370  219.9830 C   0  0  0  0  0  0  0  0  0  0  0  0
  142.7510   76.6800  219.0880 O   0  0  0  0  0  0  0  0  0  0  0  0
  141.7130   74.9100  220.1210 N   0  0  0  0  0  0  0  0  0  0  0  0
  142.3000   73.9540  219.2130 C   0  0  0  0  0  0  0  0  0  0  0  0
  143.6800   73.5970  219.5370 C   0  0  0  0  0  0  0  0  0  0  0  0
  144.1580   73.8380  220.8340 C   0  0  0  0  0  0  0  0  0  0  0  0
  145.4600   73.5140  221.1910 C   0  0  0  0  0  0  0  0  0  0  0  0
  146.3280   72.9480  220.2920 C   0  0  0  0  0  0  0  0  0  0  0  0
  145.8620   72.7200  219.0520 N   0  0  0  0  0  0  0  0  0  0  0  0
  144.5900   73.0280  218.6760 C   0  0  0  0  0  0  0  0  0  0  0  0
  140.6220   71.4450  224.5350 C   0  0  0  0  0  0  0  0  0  0  0  0
  140.6149   71.4041  228.5971 H   0  0  0  0  0  0  0  0  0  0  0  0
  141.7074   71.9668  227.2870 H   0  0  0  0  0  0  0  0  0  0  0  0
  139.9789   72.4556  227.2870 H   0  0  0  0  0  0  0  0  0  0  0  0
  140.4450   69.2040  228.4099 H   0  0  0  0  0  0  0  0  0  0  0  0
  139.5943   68.5320  226.9777 H   0  0  0  0  0  0  0  0  0  0  0  0
  141.3856   68.6650  226.9777 H   0  0  0  0  0  0  0  0  0  0  0  0
  138.2375   69.3134  225.6838 H   0  0  0  0  0  0  0  0  0  0  0  0
  137.4867   69.6032  223.3268 H   0  0  0  0  0  0  0  0  0  0  0  0
  138.7480   71.0598  221.7848 H   0  0  0  0  0  0  0  0  0  0  0  0
  142.0833   72.5712  222.5222 H   0  0  0  0  0  0  0  0  0  0  0  0
  139.7590   72.7226  220.6709 H   0  0  0  0  0  0  0  0  0  0  0  0
  139.3889   77.4337  223.5111 H   0  0  0  0  0  0  0  0  0  0  0  0
  139.9219   79.8333  223.2310 H   0  0  0  0  0  0  0  0  0  0  0  0
  142.4288   78.8539  219.8619 H   0  0  0  0  0  0  0  0  0  0  0  0
  141.6915   73.0379  219.2342 H   0  0  0  0  0  0  0  0  0  0  0  0
  142.3181   74.4272  218.2201 H   0  0  0  0  0  0  0  0  0  0  0  0
  143.4897   74.2914  221.5808 H   0  0  0  0  0  0  0  0  0  0  0  0
  145.8029   73.7154  222.2166 H   0  0  0  0  0  0  0  0  0  0  0  0
  147.3601   72.6920  220.5736 H   0  0  0  0  0  0  0  0  0  0  0  0
  144.2777   72.8135  217.6433 H   0  0  0  0  0  0  0  0  0  0  0  0
  141.5202   71.9642  224.9005 H   0  0  0  0  0  0  0  0  0  0  0  0
  1  2  1  0
  2  3  1  0
  2  4  1  0
  4  5  2  0
  5  6  1  0
  6  7  2  0
  7  8  1  0
  8  9  1  0
  9 10  2  0
 10 11  1  0
 11 12  2  0
 12 13  1  0
 13 14  2  0
 14 15  1  0
 15 16  2  0
 16 17  1  0
 16 18  1  0
 18 19  2  0
 19 20  1  0
 20 21  2  0
 20 22  1  0
 22 23  1  0
 23 24  1  0
 24 25  2  0
 25 26  1  0
 26 27  2  0
 27 28  1  0
 28 29  2  0
  8 30  2  0
 30  4  1  0
 22 11  1  0
 29 24  1  0
 19 13  1  0
  1 31  1  0
  1 32  1  0
  1 33  1  0
  3 34  1  0
  3 35  1  0
  3 36  1  0
  5 37  1  0
  6 38  1  0
  7 39  1  0
  9 40  1  0
 10 41  1  0
 14 42  1  0
 15 43  1  0
 18 44  1  0
 23 45  1  0
 23 46  1  0
 25 47  1  0
 26 48  1  0
 27 49  1  0
 29 50  1  0
 30 51  1  0
M  END
>  <smiles>  (42) 
CN(C)c1cccc(/C=C/c2nc3ccc(F)cc3c(=O)n2Cc2cccnc2)c1

>  <score_type>  (42) 
oracle

>  <origin>  (42) 
autodockgpu

>  <m_score__min__energy>  (42) 
-8.6600000000000001

>  <m_primary>  (42) 
energy

>  <rmsd>  (42) 
5.380700309559017

>  <m_score__min__rmsd>  (42) 
5.380700309559017

>  <meeko>  (42) 
{"free_energy": -8.38, "intermolecular_energy": -10.17, "internal_energy": -1.24, "cluster_size": 30, "cluster_id": 1, "rank_in_cluster": 13}

>  <energy>  (42) 
-7.41

>  <cluster_rmsd>  (42) 
0.95

>  <cluster>  (42) 
2

$$$$

     RDKit          3D

 51 54  0  0  0  0  0  0  0  0999 V2000
  140.0200   70.1650  227.9560 C   0  0  0  0  0  0  0  0  0  0  0  0
  140.4780   71.1280  226.9760 N   0  0  0  0  0  0  0  0  0  0  0  0
  141.3120   72.2530  227.3590 C   0  0  0  0  0  0  0  0  0  0  0  0
  140.1010   70.9640  225.6200 C   0  0  0  0  0  0  0  0  0  0  0  0
  139.3190   69.8830  225.2850 C   0  0  0  0  0  0  0  0  0  0  0  0
  138.9570   69.7310  223.9650 C   0  0  0  0  0  0  0  0  0  0  0  0
  139.3770   70.6490  223.0070 C   0  0  0  0  0  0  0  0  0  0  0  0
  140.1610   71.7380  223.3210 C   0  0  0  0  0  0  0  0  0  0  0  0
  140.6170   72.7140  222.3540 C   0  0  0  0  0  0  0  0  0  0  0  0
  139.8180   73.4460  221.5990 C   0  0  0  0  0  0  0  0  0  0  0  0
  139.4970   74.8330  221.9620 C   0  0  0  0  0  0  0  0  0  0  0  0
  140.5470   75.6090  222.2990 N   0  0  0  0  0  0  0  0  0  0  0  0
  140.3760   76.8920  222.6760 C   0  0  0  0  0  0  0  0  0  0  0  0
  141.4430   77.7060  223.0270 C   0  0  0  0  0  0  0  0  0  0  0  0
  141.2270   79.0130  223.4070 C   0  0  0  0  0  0  0  0  0  0  0  0
  139.9310   79.5230  223.4400 C   0  0  0  0  0  0  0  0  0  0  0  0
  139.6740   80.8040  223.8080 F   0  0  0  0  0  0  0  0  0  0  0  0
  138.8710   78.6960  223.0860 C   0  0  0  0  0  0  0  0  0  0  0  0
  139.0990   77.3700  222.7020 C   0  0  0  0  0  0  0  0  0  0  0  0
  138.0330   76.5500  222.3480 C   0  0  0  0  0  0  0  0  0  0  0  0
  136.8980   77.0780  222.4040 O   0  0  0  0  0  0  0  0  0  0  0  0
  138.2260   75.2550  221.9690 N   0  0  0  0  0  0  0  0  0  0  0  0
  137.0940   74.4360  221.6100 C   0  0  0  0  0  0  0  0  0  0  0  0
  136.3740   73.8830  222.7570 C   0  0  0  0  0  0  0  0  0  0  0  0
  136.4760   72.5100  223.0260 C   0  0  0  0  0  0  0  0  0  0  0  0
  135.8130   71.9390  224.1040 C   0  0  0  0  0  0  0  0  0  0  0  0
  135.0350   72.6930  224.9460 C   0  0  0  0  0  0  0  0  0  0  0  0
  134.9430   74.0080  224.6810 N   0  0  0  0  0  0  0  0  0  0  0  0
  135.5830   74.5930  223.6300 C   0  0  0  0  0  0  0  0  0  0  0  0
  140.5110   71.8670  224.6610 C   0  0  0  0  0  0  0  0  0  0  0  0
  140.2055   70.5549  228.9677 H   0  0  0  0  0  0  0  0  0  0  0  0
  138.9423   69.9901  227.8223 H   0  0  0  0  0  0  0  0  0  0  0  0
  140.5644   69.2186  227.8223 H   0  0  0  0  0  0  0  0  0  0  0  0
  141.3597   72.3173  228.4561 H   0  0  0  0  0  0  0  0  0  0  0  0
  142.3256   72.1121  226.9555 H   0  0  0  0  0  0  0  0  0  0  0  0
  140.8826   73.1819  226.9555 H   0  0  0  0  0  0  0  0  0  0  0  0
  138.9926   69.1616  226.0486 H   0  0  0  0  0  0  0  0  0  0  0  0
  138.3311   68.8775  223.6655 H   0  0  0  0  0  0  0  0  0  0  0  0
  139.0720   70.4999  221.9607 H   0  0  0  0  0  0  0  0  0  0  0  0
  141.7019   72.8555  222.2404 H   0  0  0  0  0  0  0  0  0  0  0  0
  139.3867   73.0110  220.6853 H   0  0  0  0  0  0  0  0  0  0  0  0
  142.4674   77.3060  223.0019 H   0  0  0  0  0  0  0  0  0  0  0  0
  142.0775   79.6532  223.6841 H   0  0  0  0  0  0  0  0  0  0  0  0
  137.8434   79.0878  223.1080 H   0  0  0  0  0  0  0  0  0  0  0  0
  136.3937   75.0505  221.0252 H   0  0  0  0  0  0  0  0  0  0  0  0
  137.4866   73.5823  221.0381 H   0  0  0  0  0  0  0  0  0  0  0  0
  137.0916   71.8751  222.3719 H   0  0  0  0  0  0  0  0  0  0  0  0
  135.9136   70.8590  224.2870 H   0  0  0  0  0  0  0  0  0  0  0  0
  134.5096   72.2414  225.8004 H   0  0  0  0  0  0  0  0  0  0  0  0
  135.4624   75.6751  223.4736 H   0  0  0  0  0  0  0  0  0  0  0  0
  141.1365   72.7187  224.9667 H   0  0  0  0  0  0  0  0  0  0  0  0
  1  2  1  0
  2  3  1  0
  2  4  1  0
  4  5  2  0
  5  6  1  0
  6  7  2  0
  7  8  1  0
  8  9  1  0
  9 10  2  0
 10 11  1  0
 11 12  2  0
 12 13  1  0
 13 14  2  0
 14 15  1  0
 15 16  2  0
 16 17  1  0
 16 18  1  0
 18 19  2  0
 19 20  1  0
 20 21  2  0
 20 22  1  0
 22 23  1  0
 23 24  1  0
 24 25  2  0
 25 26  1  0
 26 27  2  0
 27 28  1  0
 28 29  2  0
  8 30  2  0
 30  4  1  0
 22 11  1  0
 29 24  1  0
 19 13  1  0
  1 31  1  0
  1 32  1  0
  1 33  1  0
  3 34  1  0
  3 35  1  0
  3 36  1  0
  5 37  1  0
  6 38  1  0
  7 39  1  0
  9 40  1  0
 10 41  1  0
 14 42  1  0
 15 43  1  0
 18 44  1  0
 23 45  1  0
 23 46  1  0
 25 47  1  0
 26 48  1  0
 27 49  1  0
 29 50  1  0
 30 51  1  0
M  END
>  <smiles>  (43) 
CN(C)c1cccc(/C=C/c2nc3ccc(F)cc3c(=O)n2Cc2cccnc2)c1

>  <score_type>  (43) 
oracle

>  <origin>  (43) 
autodockgpu

>  <m_score__min__energy>  (43) 
-8.6600000000000001

>  <m_primary>  (43) 
energy

>  <rmsd>  (43) 
6.406021284537153

>  <m_score__min__rmsd>  (43) 
6.406021284537153

>  <meeko>  (43) 
{"free_energy": -6.95, "intermolecular_energy": -8.74, "internal_energy": -1.77, "cluster_size": 1, "cluster_id": 6, "rank_in_cluster": 1}

>  <energy>  (43) 
-7.47

>  <cluster_rmsd>  (43) 
0.0

>  <cluster>  (43) 
3

$$$$

     RDKit          3D

 51 54  0  0  0  0  0  0  0  0999 V2000
  140.2230   69.3150  225.9450 C   0  0  0  0  0  0  0  0  0  0  0  0
  140.2840   70.7060  225.5450 N   0  0  0  0  0  0  0  0  0  0  0  0
  141.0700   71.6710  226.2940 C   0  0  0  0  0  0  0  0  0  0  0  0
  139.5610   71.1270  224.4020 C   0  0  0  0  0  0  0  0  0  0  0  0
  138.2550   70.7190  224.2670 C   0  0  0  0  0  0  0  0  0  0  0  0
  137.5590   71.1330  223.1520 C   0  0  0  0  0  0  0  0  0  0  0  0
  138.1720   71.9390  222.1960 C   0  0  0  0  0  0  0  0  0  0  0  0
  139.4790   72.3580  222.3110 C   0  0  0  0  0  0  0  0  0  0  0  0
  140.1510   73.1950  221.3400 C   0  0  0  0  0  0  0  0  0  0  0  0
  141.2980   73.8140  221.5540 C   0  0  0  0  0  0  0  0  0  0  0  0
  141.4460   75.2470  221.2710 C   0  0  0  0  0  0  0  0  0  0  0  0
  141.0070   76.0840  222.2330 N   0  0  0  0  0  0  0  0  0  0  0  0
  141.0670   77.4220  222.0760 C   0  0  0  0  0  0  0  0  0  0  0  0
  140.6190   78.2990  223.0530 C   0  0  0  0  0  0  0  0  0  0  0  0
  140.6970   79.6610  222.8560 C   0  0  0  0  0  0  0  0  0  0  0  0
  141.2270   80.1630  221.6700 C   0  0  0  0  0  0  0  0  0  0  0  0
  141.3230   81.4970  221.4350 F   0  0  0  0  0  0  0  0  0  0  0  0
  141.6720   79.2720  220.6990 C   0  0  0  0  0  0  0  0  0  0  0  0
  141.5890   77.8920  220.9070 C   0  0  0  0  0  0  0  0  0  0  0  0
  142.0370   77.0080  219.9310 C   0  0  0  0  0  0  0  0  0  0  0  0
  142.5000   77.5330  218.8920 O   0  0  0  0  0  0  0  0  0  0  0  0
  141.9690   75.6580  220.1070 N   0  0  0  0  0  0  0  0  0  0  0  0
  142.4440   74.7740  219.0710 C   0  0  0  0  0  0  0  0  0  0  0  0
  143.7390   74.1600  219.3620 C   0  0  0  0  0  0  0  0  0  0  0  0
  144.4430   74.5680  220.5050 C   0  0  0  0  0  0  0  0  0  0  0  0
  145.6750   74.0130  220.8250 C   0  0  0  0  0  0  0  0  0  0  0  0
  146.2490   73.0460  220.0390 C   0  0  0  0  0  0  0  0  0  0  0  0
  145.5670   72.6600  218.9460 N   0  0  0  0  0  0  0  0  0  0  0  0
  144.3580   73.1890  218.6100 C   0  0  0  0  0  0  0  0  0  0  0  0
  140.1570   71.9250  223.4470 C   0  0  0  0  0  0  0  0  0  0  0  0
  140.2201   69.2490  227.0430 H   0  0  0  0  0  0  0  0  0  0  0  0
  139.3040   68.8592  225.5479 H   0  0  0  0  0  0  0  0  0  0  0  0
  141.0986   68.7805  225.5479 H   0  0  0  0  0  0  0  0  0  0  0  0
  140.9307   71.5000  227.3717 H   0  0  0  0  0  0  0  0  0  0  0  0
  142.1336   71.5547  226.0388 H   0  0  0  0  0  0  0  0  0  0  0  0
  140.7409   72.6891  226.0388 H   0  0  0  0  0  0  0  0  0  0  0  0
  137.7797   70.0809  225.0266 H   0  0  0  0  0  0  0  0  0  0  0  0
  136.5119   70.8246  223.0161 H   0  0  0  0  0  0  0  0  0  0  0  0
  137.5908   72.2527  221.3163 H   0  0  0  0  0  0  0  0  0  0  0  0
  139.6741   73.3244  220.3572 H   0  0  0  0  0  0  0  0  0  0  0  0
  142.1542   73.2480  221.9497 H   0  0  0  0  0  0  0  0  0  0  0  0
  140.1991   77.9052  223.9903 H   0  0  0  0  0  0  0  0  0  0  0  0
  140.3408   80.3510  223.6351 H   0  0  0  0  0  0  0  0  0  0  0  0
  142.0932   79.6568  219.7585 H   0  0  0  0  0  0  0  0  0  0  0  0
  141.7037   73.9720  218.9340 H   0  0  0  0  0  0  0  0  0  0  0  0
  142.5773   75.3856  218.1665 H   0  0  0  0  0  0  0  0  0  0  0  0
  144.0117   75.3405  221.1586 H   0  0  0  0  0  0  0  0  0  0  0  0
  146.2019   74.3559  221.7277 H   0  0  0  0  0  0  0  0  0  0  0  0
  147.2247   72.6055  220.2918 H   0  0  0  0  0  0  0  0  0  0  0  0
  143.8566   72.8252  217.7010 H   0  0  0  0  0  0  0  0  0  0  0  0
  141.2045   72.2296  223.5883 H   0  0  0  0  0  0  0  0  0  0  0  0
  1  2  1  0
  2  3  1  0
  2  4  1  0
  4  5  2  0
  5  6  1  0
  6  7  2  0
  7  8  1  0
  8  9  1  0
  9 10  2  0
 10 11  1  0
 11 12  2  0
 12 13  1  0
 13 14  2  0
 14 15  1  0
 15 16  2  0
 16 17  1  0
 16 18  1  0
 18 19  2  0
 19 20  1  0
 20 21  2  0
 20 22  1  0
 22 23  1  0
 23 24  1  0
 24 25  2  0
 25 26  1  0
 26 27  2  0
 27 28  1  0
 28 29  2  0
  8 30  2  0
 30  4  1  0
 22 11  1  0
 29 24  1  0
 19 13  1  0
  1 31  1  0
  1 32  1  0
  1 33  1  0
  3 34  1  0
  3 35  1  0
  3 36  1  0
  5 37  1  0
  6 38  1  0
  7 39  1  0
  9 40  1  0
 10 41  1  0
 14 42  1  0
 15 43  1  0
 18 44  1  0
 23 45  1  0
 23 46  1  0
 25 47  1  0
 26 48  1  0
 27 49  1  0
 29 50  1  0
 30 51  1  0
M  END
>  <smiles>  (44) 
CN(C)c1cccc(/C=C/c2nc3ccc(F)cc3c(=O)n2Cc2cccnc2)c1

>  <score_type>  (44) 
oracle

>  <origin>  (44) 
autodockgpu

>  <m_score__min__energy>  (44) 
-8.6600000000000001

>  <m_primary>  (44) 
energy

>  <rmsd>  (44) 
5.097739289138545

>  <m_score__min__rmsd>  (44) 
5.097739289138545

>  <meeko>  (44) 
{"free_energy": -7.68, "intermolecular_energy": -9.47, "internal_energy": -1.18, "cluster_size": 30, "cluster_id": 1, "rank_in_cluster": 27}

>  <energy>  (44) 
-7.27

>  <cluster_rmsd>  (44) 
0.0

>  <cluster>  (44) 
4

$$$$

     RDKit          3D

 51 54  0  0  0  0  0  0  0  0999 V2000
  140.4010   67.5680  226.4570 C   0  0  0  0  0  0  0  0  0  0  0  0
  139.9770   68.9430  226.6300 N   0  0  0  0  0  0  0  0  0  0  0  0
  140.0580   69.5980  227.9240 C   0  0  0  0  0  0  0  0  0  0  0  0
  139.4760   69.6550  225.5130 C   0  0  0  0  0  0  0  0  0  0  0  0
  138.1800   69.4220  225.1170 C   0  0  0  0  0  0  0  0  0  0  0  0
  137.7000   70.1190  224.0290 C   0  0  0  0  0  0  0  0  0  0  0  0
  138.5130   71.0300  223.3600 C   0  0  0  0  0  0  0  0  0  0  0  0
  139.8140   71.2780  223.7400 C   0  0  0  0  0  0  0  0  0  0  0  0
  140.6890   72.2160  223.0700 C   0  0  0  0  0  0  0  0  0  0  0  0
  140.5050   72.6590  221.8400 C   0  0  0  0  0  0  0  0  0  0  0  0
  140.8450   74.0410  221.4760 C   0  0  0  0  0  0  0  0  0  0  0  0
  140.2600   75.0040  222.2180 N   0  0  0  0  0  0  0  0  0  0  0  0
  140.4750   76.3100  221.9630 C   0  0  0  0  0  0  0  0  0  0  0  0
  139.8820   77.3150  222.7130 C   0  0  0  0  0  0  0  0  0  0  0  0
  140.1260   78.6390  222.4220 C   0  0  0  0  0  0  0  0  0  0  0  0
  140.9730   78.9760  221.3680 C   0  0  0  0  0  0  0  0  0  0  0  0
  141.2420   80.2660  221.0460 F   0  0  0  0  0  0  0  0  0  0  0  0
  141.5610   77.9580  220.6230 C   0  0  0  0  0  0  0  0  0  0  0  0
  141.3070   76.6160  220.9270 C   0  0  0  0  0  0  0  0  0  0  0  0
  141.8990   75.6050  220.1780 C   0  0  0  0  0  0  0  0  0  0  0  0
  142.6470   75.9830  219.2450 O   0  0  0  0  0  0  0  0  0  0  0  0
  141.6710   74.2890  220.4500 N   0  0  0  0  0  0  0  0  0  0  0  0
  142.3040   73.2690  219.6500 C   0  0  0  0  0  0  0  0  0  0  0  0
  143.7650   73.2870  219.7130 C   0  0  0  0  0  0  0  0  0  0  0  0
  144.3890   73.7720  220.8720 C   0  0  0  0  0  0  0  0  0  0  0  0
  145.7730   73.8070  220.9800 C   0  0  0  0  0  0  0  0  0  0  0  0
  146.5810   73.3690  219.9620 C   0  0  0  0  0  0  0  0  0  0  0  0
  145.9750   72.9060  218.8550 N   0  0  0  0  0  0  0  0  0  0  0  0
  144.6200   72.8610  218.7230 C   0  0  0  0  0  0  0  0  0  0  0  0
  140.2710   70.5600  224.8400 C   0  0  0  0  0  0  0  0  0  0  0  0
  140.5448   67.1018  227.4429 H   0  0  0  0  0  0  0  0  0  0  0  0
  139.6318   67.0146  225.8984 H   0  0  0  0  0  0  0  0  0  0  0  0
  141.3483   67.5439  225.8984 H   0  0  0  0  0  0  0  0  0  0  0  0
  139.9651   68.8465  228.7218 H   0  0  0  0  0  0  0  0  0  0  0  0
  141.0265   70.1116  228.0150 H   0  0  0  0  0  0  0  0  0  0  0  0
  139.2438   70.3320  228.0150 H   0  0  0  0  0  0  0  0  0  0  0  0
  137.5451   68.7008  225.6526 H   0  0  0  0  0  0  0  0  0  0  0  0
  136.6676   69.9544  223.6870 H   0  0  0  0  0  0  0  0  0  0  0  0
  138.1013   71.5720  222.4958 H   0  0  0  0  0  0  0  0  0  0  0  0
  141.5659   72.5845  223.6225 H   0  0  0  0  0  0  0  0  0  0  0  0
  140.0912   71.9835  221.0768 H   0  0  0  0  0  0  0  0  0  0  0  0
  139.2125   77.0529  223.5455 H   0  0  0  0  0  0  0  0  0  0  0  0
  139.6523   79.4303  223.0216 H   0  0  0  0  0  0  0  0  0  0  0  0
  142.2311   78.2106  219.7881 H   0  0  0  0  0  0  0  0  0  0  0  0
  141.9544   72.2870  220.0013 H   0  0  0  0  0  0  0  0  0  0  0  0
  142.0274   73.4668  218.6039 H   0  0  0  0  0  0  0  0  0  0  0  0
  143.7719   74.1305  221.7090 H   0  0  0  0  0  0  0  0  0  0  0  0
  146.2312   74.1944  221.9020 H   0  0  0  0  0  0  0  0  0  0  0  0
  147.6773   73.3954  220.0477 H   0  0  0  0  0  0  0  0  0  0  0  0
  144.1927   72.4687  217.7884 H   0  0  0  0  0  0  0  0  0  0  0  0
  141.3030   70.7193  225.1858 H   0  0  0  0  0  0  0  0  0  0  0  0
  1  2  1  0
  2  3  1  0
  2  4  1  0
  4  5  2  0
  5  6  1  0
  6  7  2  0
  7  8  1  0
  8  9  1  0
  9 10  2  0
 10 11  1  0
 11 12  2  0
 12 13  1  0
 13 14  2  0
 14 15  1  0
 15 16  2  0
 16 17  1  0
 16 18  1  0
 18 19  2  0
 19 20  1  0
 20 21  2  0
 20 22  1  0
 22 23  1  0
 23 24  1  0
 24 25  2  0
 25 26  1  0
 26 27  2  0
 27 28  1  0
 28 29  2  0
  8 30  2  0
 30  4  1  0
 22 11  1  0
 29 24  1  0
 19 13  1  0
  1 31  1  0
  1 32  1  0
  1 33  1  0
  3 34  1  0
  3 35  1  0
  3 36  1  0
  5 37  1  0
  6 38  1  0
  7 39  1  0
  9 40  1  0
 10 41  1  0
 14 42  1  0
 15 43  1  0
 18 44  1  0
 23 45  1  0
 23 46  1  0
 25 47  1  0
 26 48  1  0
 27 49  1  0
 29 50  1  0
 30 51  1  0
M  END
>  <smiles>  (45) 
CN(C)c1cccc(/C=C/c2nc3ccc(F)cc3c(=O)n2Cc2cccnc2)c1

>  <score_type>  (45) 
oracle

>  <origin>  (45) 
autodockgpu

>  <m_score__min__energy>  (45) 
-8.6600000000000001

>  <m_primary>  (45) 
energy

>  <rmsd>  (45) 
5.613085876688754

>  <m_score__min__rmsd>  (45) 
5.613085876688754

>  <meeko>  (45) 
{"free_energy": -8.14, "intermolecular_energy": -9.93, "internal_energy": -1.11, "cluster_size": 30, "cluster_id": 1, "rank_in_cluster": 18}

>  <energy>  (45) 
-7.2

>  <cluster_rmsd>  (45) 
0.63

>  <cluster>  (45) 
4

$$$$

     RDKit          3D

 51 54  0  0  0  0  0  0  0  0999 V2000
  145.5100   73.1000  221.1710 C   0  0  0  0  0  0  0  0  0  0  0  0
  144.2280   73.5240  220.6440 N   0  0  0  0  0  0  0  0  0  0  0  0
  144.0400   74.8610  220.1080 C   0  0  0  0  0  0  0  0  0  0  0  0
  143.1430   72.6130  220.6560 C   0  0  0  0  0  0  0  0  0  0  0  0
  143.3240   71.3750  220.0860 C   0  0  0  0  0  0  0  0  0  0  0  0
  142.2630   70.4940  220.1010 C   0  0  0  0  0  0  0  0  0  0  0  0
  141.0510   70.8600  220.6790 C   0  0  0  0  0  0  0  0  0  0  0  0
  140.8490   72.0960  221.2550 C   0  0  0  0  0  0  0  0  0  0  0  0
  139.6040   72.5120  221.8640 C   0  0  0  0  0  0  0  0  0  0  0  0
  138.7370   71.6890  222.4270 C   0  0  0  0  0  0  0  0  0  0  0  0
  139.1130   70.8770  223.5910 C   0  0  0  0  0  0  0  0  0  0  0  0
  139.6760   71.5470  224.6170 N   0  0  0  0  0  0  0  0  0  0  0  0
  140.0870   70.9060  225.7300 C   0  0  0  0  0  0  0  0  0  0  0  0
  140.6690   71.5770  226.7950 C   0  0  0  0  0  0  0  0  0  0  0  0
  141.0750   70.8860  227.9160 C   0  0  0  0  0  0  0  0  0  0  0  0
  140.9030   69.5050  227.9830 C   0  0  0  0  0  0  0  0  0  0  0  0
  141.2890   68.7860  229.0670 F   0  0  0  0  0  0  0  0  0  0  0  0
  140.3190   68.8450  226.9070 C   0  0  0  0  0  0  0  0  0  0  0  0
  139.9090   69.5550  225.7740 C   0  0  0  0  0  0  0  0  0  0  0  0
  139.3240   68.8860  224.7030 C   0  0  0  0  0  0  0  0  0  0  0  0
  139.2040   67.6460  224.8350 O   0  0  0  0  0  0  0  0  0  0  0  0
  138.9150   69.5520  223.5860 N   0  0  0  0  0  0  0  0  0  0  0  0
  138.3130   68.8230  222.4960 C   0  0  0  0  0  0  0  0  0  0  0  0
  136.9210   68.4420  222.7340 C   0  0  0  0  0  0  0  0  0  0  0  0
  136.3220   67.4940  221.8910 C   0  0  0  0  0  0  0  0  0  0  0  0
  135.0040   67.0980  222.0780 C   0  0  0  0  0  0  0  0  0  0  0  0
  134.2390   67.6170  223.0920 C   0  0  0  0  0  0  0  0  0  0  0  0
  134.8210   68.5240  223.8950 N   0  0  0  0  0  0  0  0  0  0  0  0
  136.1110   68.9290  223.7330 C   0  0  0  0  0  0  0  0  0  0  0  0
  141.9360   72.9630  221.2240 C   0  0  0  0  0  0  0  0  0  0  0  0
  145.4763   73.1111  222.2704 H   0  0  0  0  0  0  0  0  0  0  0  0
  145.7313   72.0808  220.8213 H   0  0  0  0  0  0  0  0  0  0  0  0
  146.2953   73.7863  220.8213 H   0  0  0  0  0  0  0  0  0  0  0  0
  143.9393   75.5774  220.9366 H   0  0  0  0  0  0  0  0  0  0  0  0
  144.9086   75.1341  219.4908 H   0  0  0  0  0  0  0  0  0  0  0  0
  143.1298   74.8839  219.4908 H   0  0  0  0  0  0  0  0  0  0  0  0
  144.2861   71.0956  219.6317 H   0  0  0  0  0  0  0  0  0  0  0  0
  142.3754   69.4956  219.6532 H   0  0  0  0  0  0  0  0  0  0  0  0
  140.2231   70.1357  220.6761 H   0  0  0  0  0  0  0  0  0  0  0  0
  139.3632   73.5853  221.8578 H   0  0  0  0  0  0  0  0  0  0  0  0
  137.7189   71.6111  222.0177 H   0  0  0  0  0  0  0  0  0  0  0  0
  140.8074   72.6671  226.7446 H   0  0  0  0  0  0  0  0  0  0  0  0
  141.5348   71.4246  228.7577 H   0  0  0  0  0  0  0  0  0  0  0  0
  140.1783   67.7548  226.9475 H   0  0  0  0  0  0  0  0  0  0  0  0
  138.3502   69.4536  221.5955 H   0  0  0  0  0  0  0  0  0  0  0  0
  138.8842   67.8898  222.3825 H   0  0  0  0  0  0  0  0  0  0  0  0
  136.9062   67.0569  221.0678 H   0  0  0  0  0  0  0  0  0  0  0  0
  134.5642   66.3527  221.3990 H   0  0  0  0  0  0  0  0  0  0  0  0
  133.1950   67.3043  223.2411 H   0  0  0  0  0  0  0  0  0  0  0  0
  136.5215   69.6754  224.4289 H   0  0  0  0  0  0  0  0  0  0  0  0
  141.8292   73.9636  221.6684 H   0  0  0  0  0  0  0  0  0  0  0  0
  1  2  1  0
  2  3  1  0
  2  4  1  0
  4  5  2  0
  5  6  1  0
  6  7  2  0
  7  8  1  0
  8  9  1  0
  9 10  2  0
 10 11  1  0
 11 12  2  0
 12 13  1  0
 13 14  2  0
 14 15  1  0
 15 16  2  0
 16 17  1  0
 16 18  1  0
 18 19  2  0
 19 20  1  0
 20 21  2  0
 20 22  1  0
 22 23  1  0
 23 24  1  0
 24 25  2  0
 25 26  1  0
 26 27  2  0
 27 28  1  0
 28 29  2  0
  8 30  2  0
 30  4  1  0
 22 11  1  0
 29 24  1  0
 19 13  1  0
  1 31  1  0
  1 32  1  0
  1 33  1  0
  3 34  1  0
  3 35  1  0
  3 36  1  0
  5 37  1  0
  6 38  1  0
  7 39  1  0
  9 40  1  0
 10 41  1  0
 14 42  1  0
 15 43  1  0
 18 44  1  0
 23 45  1  0
 23 46  1  0
 25 47  1  0
 26 48  1  0
 27 49  1  0
 29 50  1  0
 30 51  1  0
M  END
>  <smiles>  (46) 
CN(C)c1cccc(/C=C/c2nc3ccc(F)cc3c(=O)n2Cc2cccnc2)c1

>  <score_type>  (46) 
oracle

>  <origin>  (46) 
autodockgpu

>  <m_score__min__energy>  (46) 
-8.6600000000000001

>  <m_primary>  (46) 
energy

>  <rmsd>  (46) 
11.473994666456292

>  <m_score__min__rmsd>  (46) 
11.473994666456292

>  <meeko>  (46) 
{"free_energy": -7.41, "intermolecular_energy": -9.2, "internal_energy": -1.4, "cluster_size": 12, "cluster_id": 2, "rank_in_cluster": 12}

>  <energy>  (46) 
-7.16

>  <cluster_rmsd>  (46) 
0.0

>  <cluster>  (46) 
5

$$$$

     RDKit          3D

 51 54  0  0  0  0  0  0  0  0999 V2000
  144.4140   74.4960  220.1090 C   0  0  0  0  0  0  0  0  0  0  0  0
  143.2660   75.3630  219.9380 N   0  0  0  0  0  0  0  0  0  0  0  0
  143.3280   76.5350  219.0820 C   0  0  0  0  0  0  0  0  0  0  0  0
  142.0630   75.0560  220.6200 C   0  0  0  0  0  0  0  0  0  0  0  0
  141.1600   76.0690  220.8430 C   0  0  0  0  0  0  0  0  0  0  0  0
  139.9930   75.7620  221.5070 C   0  0  0  0  0  0  0  0  0  0  0  0
  139.7460   74.4600  221.9360 C   0  0  0  0  0  0  0  0  0  0  0  0
  140.6370   73.4310  221.7230 C   0  0  0  0  0  0  0  0  0  0  0  0
  140.4160   72.0670  222.1530 C   0  0  0  0  0  0  0  0  0  0  0  0
  139.4000   71.6750  222.9000 C   0  0  0  0  0  0  0  0  0  0  0  0
  139.5900   70.7060  223.9870 C   0  0  0  0  0  0  0  0  0  0  0  0
  140.1920   71.1800  225.0970 N   0  0  0  0  0  0  0  0  0  0  0  0
  140.4440   70.3790  226.1520 C   0  0  0  0  0  0  0  0  0  0  0  0
  141.0630   70.8470  227.3020 C   0  0  0  0  0  0  0  0  0  0  0  0
  141.3040   69.9970  228.3590 C   0  0  0  0  0  0  0  0  0  0  0  0
  140.9270   68.6580  228.2760 C   0  0  0  0  0  0  0  0  0  0  0  0
  141.1450   67.7870  229.2930 F   0  0  0  0  0  0  0  0  0  0  0  0
  140.3080   68.2020  227.1170 C   0  0  0  0  0  0  0  0  0  0  0  0
  140.0670   69.0730  226.0490 C   0  0  0  0  0  0  0  0  0  0  0  0
  139.4470   68.6080  224.8930 C   0  0  0  0  0  0  0  0  0  0  0  0
  139.1380   67.3940  224.8910 O   0  0  0  0  0  0  0  0  0  0  0  0
  139.1990   69.4330  223.8370 N   0  0  0  0  0  0  0  0  0  0  0  0
  138.5540   68.9140  222.6560 C   0  0  0  0  0  0  0  0  0  0  0  0
  137.1530   68.5460  222.8580 C   0  0  0  0  0  0  0  0  0  0  0  0
  136.5150   67.7420  221.9010 C   0  0  0  0  0  0  0  0  0  0  0  0
  135.1880   67.3650  222.0500 C   0  0  0  0  0  0  0  0  0  0  0  0
  134.4490   67.7610  223.1360 C   0  0  0  0  0  0  0  0  0  0  0  0
  135.0670   68.5300  224.0480 N   0  0  0  0  0  0  0  0  0  0  0  0
  136.3680   68.9150  223.9260 C   0  0  0  0  0  0  0  0  0  0  0  0
  141.8060   73.7700  221.0510 C   0  0  0  0  0  0  0  0  0  0  0  0
  144.6069   74.3503  221.1821 H   0  0  0  0  0  0  0  0  0  0  0  0
  144.2121   73.5230  219.6373 H   0  0  0  0  0  0  0  0  0  0  0  0
  145.2947   74.9564  219.6373 H   0  0  0  0  0  0  0  0  0  0  0  0
  143.3759   77.4411  219.7038 H   0  0  0  0  0  0  0  0  0  0  0  0
  144.2244   76.4783  218.4470 H   0  0  0  0  0  0  0  0  0  0  0  0
  142.4306   76.5731  218.4470 H   0  0  0  0  0  0  0  0  0  0  0  0
  141.3638   77.0945  220.5011 H   0  0  0  0  0  0  0  0  0  0  0  0
  139.2508   76.5506  221.6999 H   0  0  0  0  0  0  0  0  0  0  0  0
  138.8052   74.2456  222.4641 H   0  0  0  0  0  0  0  0  0  0  0  0
  141.1435   71.3052  221.8362 H   0  0  0  0  0  0  0  0  0  0  0  0
  138.3962   72.0804  222.7051 H   0  0  0  0  0  0  0  0  0  0  0  0
  141.3632   71.9031  227.3702 H   0  0  0  0  0  0  0  0  0  0  0  0
  141.7939   70.3752  229.2684 H   0  0  0  0  0  0  0  0  0  0  0  0
  140.0053   67.1473  227.0394 H   0  0  0  0  0  0  0  0  0  0  0  0
  138.6002   69.6825  221.8703 H   0  0  0  0  0  0  0  0  0  0  0  0
  139.0887   67.9935  222.3791 H   0  0  0  0  0  0  0  0  0  0  0  0
  137.0767   67.4048  221.0174 H   0  0  0  0  0  0  0  0  0  0  0  0
  134.7182   66.7348  221.2805 H   0  0  0  0  0  0  0  0  0  0  0  0
  133.3971   67.4621  223.2548 H   0  0  0  0  0  0  0  0  0  0  0  0
  136.8083   69.5458  224.7123 H   0  0  0  0  0  0  0  0  0  0  0  0
  142.5524   72.9858  220.8559 H   0  0  0  0  0  0  0  0  0  0  0  0
  1  2  1  0
  2  3  1  0
  2  4  1  0
  4  5  2  0
  5  6  1  0
  6  7  2  0
  7  8  1  0
  8  9  1  0
  9 10  2  0
 10 11  1  0
 11 12  2  0
 12 13  1  0
 13 14  2  0
 14 15  1  0
 15 16  2  0
 16 17  1  0
 16 18  1  0
 18 19  2  0
 19 20  1  0
 20 21  2  0
 20 22  1  0
 22 23  1  0
 23 24  1  0
 24 25  2  0
 25 26  1  0
 26 27  2  0
 27 28  1  0
 28 29  2  0
  8 30  2  0
 30  4  1  0
 22 11  1  0
 29 24  1  0
 19 13  1  0
  1 31  1  0
  1 32  1  0
  1 33  1  0
  3 34  1  0
  3 35  1  0
  3 36  1  0
  5 37  1  0
  6 38  1  0
  7 39  1  0
  9 40  1  0
 10 41  1  0
 14 42  1  0
 15 43  1  0
 18 44  1  0
 23 45  1  0
 23 46  1  0
 25 47  1  0
 26 48  1  0
 27 49  1  0
 29 50  1  0
 30 51  1  0
M  END
>  <smiles>  (47) 
CN(C)c1cccc(/C=C/c2nc3ccc(F)cc3c(=O)n2Cc2cccnc2)c1

>  <score_type>  (47) 
oracle

>  <origin>  (47) 
autodockgpu

>  <m_score__min__energy>  (47) 
-8.6600000000000001

>  <m_primary>  (47) 
energy

>  <rmsd>  (47) 
11.76082358308627

>  <m_score__min__rmsd>  (47) 
11.76082358308627

>  <meeko>  (47) 
{"free_energy": -7.96, "intermolecular_energy": -9.75, "internal_energy": -1.06, "cluster_size": 12, "cluster_id": 2, "rank_in_cluster": 3}

>  <energy>  (47) 
-7.11

>  <cluster_rmsd>  (47) 
0.18

>  <cluster>  (47) 
5

$$$$

     RDKit          3D

 51 54  0  0  0  0  0  0  0  0999 V2000
  140.3720   69.2110  227.1470 C   0  0  0  0  0  0  0  0  0  0  0  0
  140.3730   70.5370  226.5630 N   0  0  0  0  0  0  0  0  0  0  0  0
  140.7690   71.6990  227.3370 C   0  0  0  0  0  0  0  0  0  0  0  0
  139.9800   70.6950  225.2110 C   0  0  0  0  0  0  0  0  0  0  0  0
  139.0680   69.8080  224.6870 C   0  0  0  0  0  0  0  0  0  0  0  0
  138.6910   69.9690  223.3720 C   0  0  0  0  0  0  0  0  0  0  0  0
  139.2240   71.0020  222.6060 C   0  0  0  0  0  0  0  0  0  0  0  0
  140.1390   71.9010  223.1110 C   0  0  0  0  0  0  0  0  0  0  0  0
  140.7150   72.9860  222.3460 C   0  0  0  0  0  0  0  0  0  0  0  0
  140.0120   73.9140  221.7220 C   0  0  0  0  0  0  0  0  0  0  0  0
  140.5490   75.2680  221.5330 C   0  0  0  0  0  0  0  0  0  0  0  0
  140.0550   76.2150  222.3570 N   0  0  0  0  0  0  0  0  0  0  0  0
  140.4520   77.5000  222.2620 C   0  0  0  0  0  0  0  0  0  0  0  0
  139.9560   78.4880  223.0990 C   0  0  0  0  0  0  0  0  0  0  0  0
  140.3860   79.7910  222.9720 C   0  0  0  0  0  0  0  0  0  0  0  0
  141.3240   80.1220  221.9960 C   0  0  0  0  0  0  0  0  0  0  0  0
  141.7760   81.3920  221.8360 F   0  0  0  0  0  0  0  0  0  0  0  0
  141.8140   79.1210  221.1630 C   0  0  0  0  0  0  0  0  0  0  0  0
  141.3710   77.8010  221.3010 C   0  0  0  0  0  0  0  0  0  0  0  0
  141.8660   76.8060  220.4640 C   0  0  0  0  0  0  0  0  0  0  0  0
  142.7050   77.1790  219.6110 O   0  0  0  0  0  0  0  0  0  0  0  0
  141.4540   75.5120  220.5750 N   0  0  0  0  0  0  0  0  0  0  0  0
  141.9900   74.5080  219.6880 C   0  0  0  0  0  0  0  0  0  0  0  0
  143.3190   74.0290  220.0690 C   0  0  0  0  0  0  0  0  0  0  0  0
  143.5530   72.6470  220.1230 C   0  0  0  0  0  0  0  0  0  0  0  0
  144.7980   72.1440  220.4770 C   0  0  0  0  0  0  0  0  0  0  0  0
  145.8440   72.9760  220.7850 C   0  0  0  0  0  0  0  0  0  0  0  0
  145.6110   74.2990  220.7300 N   0  0  0  0  0  0  0  0  0  0  0  0
  144.4000   74.8180  220.3870 C   0  0  0  0  0  0  0  0  0  0  0  0
  140.5010   71.7140  224.4410 C   0  0  0  0  0  0  0  0  0  0  0  0
  140.3721   69.2934  228.2439 H   0  0  0  0  0  0  0  0  0  0  0  0
  139.4734   68.6671  226.8202 H   0  0  0  0  0  0  0  0  0  0  0  0
  141.2697   68.6657  226.8202 H   0  0  0  0  0  0  0  0  0  0  0  0
  140.6906   71.4690  228.4098 H   0  0  0  0  0  0  0  0  0  0  0  0
  141.8084   71.9646  227.0939 H   0  0  0  0  0  0  0  0  0  0  0  0
  140.1081   72.5441  227.0939 H   0  0  0  0  0  0  0  0  0  0  0  0
  138.6524   68.9946  225.2999 H   0  0  0  0  0  0  0  0  0  0  0  0
  137.9635   69.2763  222.9238 H   0  0  0  0  0  0  0  0  0  0  0  0
  138.9031   71.1047  221.5589 H   0  0  0  0  0  0  0  0  0  0  0  0
  141.8116   73.0416  222.2797 H   0  0  0  0  0  0  0  0  0  0  0  0
  139.0104   73.6694  221.3386 H   0  0  0  0  0  0  0  0  0  0  0  0
  139.2144   78.2299  223.8694 H   0  0  0  0  0  0  0  0  0  0  0  0
  139.9892   80.5692  223.6405 H   0  0  0  0  0  0  0  0  0  0  0  0
  142.5557   79.3694  220.3896 H   0  0  0  0  0  0  0  0  0  0  0  0
  141.3018   73.6500  219.6799 H   0  0  0  0  0  0  0  0  0  0  0  0
  142.0913   74.9775  218.6984 H   0  0  0  0  0  0  0  0  0  0  0  0
  142.7369   71.9503  219.8810 H   0  0  0  0  0  0  0  0  0  0  0  0
  144.9486   71.0549  220.5111 H   0  0  0  0  0  0  0  0  0  0  0  0
  146.8306   72.5781  221.0649 H   0  0  0  0  0  0  0  0  0  0  0  0
  144.2813   75.9113  220.3632 H   0  0  0  0  0  0  0  0  0  0  0  0
  141.2285   72.4031  224.8948 H   0  0  0  0  0  0  0  0  0  0  0  0
  1  2  1  0
  2  3  1  0
  2  4  1  0
  4  5  2  0
  5  6  1  0
  6  7  2  0
  7  8  1  0
  8  9  1  0
  9 10  2  0
 10 11  1  0
 11 12  2  0
 12 13  1  0
 13 14  2  0
 14 15  1  0
 15 16  2  0
 16 17  1  0
 16 18  1  0
 18 19  2  0
 19 20  1  0
 20 21  2  0
 20 22  1  0
 22 23  1  0
 23 24  1  0
 24 25  2  0
 25 26  1  0
 26 27  2  0
 27 28  1  0
 28 29  2  0
  8 30  2  0
 30  4  1  0
 22 11  1  0
 29 24  1  0
 19 13  1  0
  1 31  1  0
  1 32  1  0
  1 33  1  0
  3 34  1  0
  3 35  1  0
  3 36  1  0
  5 37  1  0
  6 38  1  0
  7 39  1  0
  9 40  1  0
 10 41  1  0
 14 42  1  0
 15 43  1  0
 18 44  1  0
 23 45  1  0
 23 46  1  0
 25 47  1  0
 26 48  1  0
 27 49  1  0
 29 50  1  0
 30 51  1  0
M  END
>  <smiles>  (48) 
CN(C)c1cccc(/C=C/c2nc3ccc(F)cc3c(=O)n2Cc2cccnc2)c1

>  <score_type>  (48) 
oracle

>  <origin>  (48) 
autodockgpu

>  <m_score__min__energy>  (48) 
-8.6600000000000001

>  <m_primary>  (48) 
energy

>  <rmsd>  (48) 
5.008175568213299

>  <m_score__min__rmsd>  (48) 
5.008175568213299

>  <meeko>  (48) 
{"free_energy": -7.81, "intermolecular_energy": -9.6, "internal_energy": -1.19, "cluster_size": 30, "cluster_id": 1, "rank_in_cluster": 24}

>  <energy>  (48) 
-6.95

>  <cluster_rmsd>  (48) 
0.0

>  <cluster>  (48) 
6

$$$$

     RDKit          3D

 51 54  0  0  0  0  0  0  0  0999 V2000
  140.8130   69.3740  227.5080 C   0  0  0  0  0  0  0  0  0  0  0  0
  140.6870   70.6580  226.8470 N   0  0  0  0  0  0  0  0  0  0  0  0
  141.0680   71.8890  227.5160 C   0  0  0  0  0  0  0  0  0  0  0  0
  140.1830   70.7050  225.5240 C   0  0  0  0  0  0  0  0  0  0  0  0
  139.1830   69.8270  225.1740 C   0  0  0  0  0  0  0  0  0  0  0  0
  138.6980   69.8800  223.8850 C   0  0  0  0  0  0  0  0  0  0  0  0
  139.2130   70.7980  222.9740 C   0  0  0  0  0  0  0  0  0  0  0  0
  140.2140   71.6850  223.3040 C   0  0  0  0  0  0  0  0  0  0  0  0
  140.7740   72.6530  222.3850 C   0  0  0  0  0  0  0  0  0  0  0  0
  140.0690   73.5620  221.7370 C   0  0  0  0  0  0  0  0  0  0  0  0
  140.5930   74.9180  221.5290 C   0  0  0  0  0  0  0  0  0  0  0  0
  140.1130   75.8670  222.3580 N   0  0  0  0  0  0  0  0  0  0  0  0
  140.5010   77.1530  222.2480 C   0  0  0  0  0  0  0  0  0  0  0  0
  140.0180   78.1440  223.0910 C   0  0  0  0  0  0  0  0  0  0  0  0
  140.4380   79.4480  222.9460 C   0  0  0  0  0  0  0  0  0  0  0  0
  141.3530   79.7780  221.9480 C   0  0  0  0  0  0  0  0  0  0  0  0
  141.7940   81.0490  221.7710 F   0  0  0  0  0  0  0  0  0  0  0  0
  141.8290   78.7750  221.1100 C   0  0  0  0  0  0  0  0  0  0  0  0
  141.3960   77.4540  221.2640 C   0  0  0  0  0  0  0  0  0  0  0  0
  141.8780   76.4570  220.4220 C   0  0  0  0  0  0  0  0  0  0  0  0
  142.6960   76.8290  219.5490 O   0  0  0  0  0  0  0  0  0  0  0  0
  141.4750   75.1610  220.5500 N   0  0  0  0  0  0  0  0  0  0  0  0
  141.9970   74.1550  219.6560 C   0  0  0  0  0  0  0  0  0  0  0  0
  143.3580   73.7270  219.9760 C   0  0  0  0  0  0  0  0  0  0  0  0
  143.7100   72.3820  219.7850 C   0  0  0  0  0  0  0  0  0  0  0  0
  144.9900   71.9280  220.0720 C   0  0  0  0  0  0  0  0  0  0  0  0
  145.9580   72.7740  220.5510 C   0  0  0  0  0  0  0  0  0  0  0  0
  145.6130   74.0600  220.7300 N   0  0  0  0  0  0  0  0  0  0  0  0
  144.3650   74.5310  220.4580 C   0  0  0  0  0  0  0  0  0  0  0  0
  140.6840   71.6090  224.6110 C   0  0  0  0  0  0  0  0  0  0  0  0
  140.7987   69.5199  228.5982 H   0  0  0  0  0  0  0  0  0  0  0  0
  139.9741   68.7262  227.2137 H   0  0  0  0  0  0  0  0  0  0  0  0
  141.7618   68.9016  227.2137 H   0  0  0  0  0  0  0  0  0  0  0  0
  141.0229   71.7434  228.6054 H   0  0  0  0  0  0  0  0  0  0  0  0
  142.0928   72.1626  227.2247 H   0  0  0  0  0  0  0  0  0  0  0  0
  140.3769   72.6937  227.2247 H   0  0  0  0  0  0  0  0  0  0  0  0
  138.7828   69.1048  225.9008 H   0  0  0  0  0  0  0  0  0  0  0  0
  137.8982   69.1919  223.5738 H   0  0  0  0  0  0  0  0  0  0  0  0
  138.8054   70.8158  221.9525 H   0  0  0  0  0  0  0  0  0  0  0  0
  141.8605   72.6297  222.2150 H   0  0  0  0  0  0  0  0  0  0  0  0
  139.0744   73.2997  221.3471 H   0  0  0  0  0  0  0  0  0  0  0  0
  139.2956   77.8867  223.8796 H   0  0  0  0  0  0  0  0  0  0  0  0
  140.0513   80.2285  223.6178 H   0  0  0  0  0  0  0  0  0  0  0  0
  142.5523   79.0229  220.3192 H   0  0  0  0  0  0  0  0  0  0  0  0
  141.3377   73.2756  219.7013 H   0  0  0  0  0  0  0  0  0  0  0  0
  142.0314   74.6057  218.6532 H   0  0  0  0  0  0  0  0  0  0  0  0
  142.9590   71.6757  219.4014 H   0  0  0  0  0  0  0  0  0  0  0  0
  145.2334   70.8673  219.9120 H   0  0  0  0  0  0  0  0  0  0  0  0
  146.9725   72.4150  220.7786 H   0  0  0  0  0  0  0  0  0  0  0  0
  144.1534   75.5966  220.6304 H   0  0  0  0  0  0  0  0  0  0  0  0
  141.4839   72.2945  224.9276 H   0  0  0  0  0  0  0  0  0  0  0  0
  1  2  1  0
  2  3  1  0
  2  4  1  0
  4  5  2  0
  5  6  1  0
  6  7  2  0
  7  8  1  0
  8  9  1  0
  9 10  2  0
 10 11  1  0
 11 12  2  0
 12 13  1  0
 13 14  2  0
 14 15  1  0
 15 16  2  0
 16 17  1  0
 16 18  1  0
 18 19  2  0
 19 20  1  0
 20 21  2  0
 20 22  1  0
 22 23  1  0
 23 24  1  0
 24 25  2  0
 25 26  1  0
 26 27  2  0
 27 28  1  0
 28 29  2  0
  8 30  2  0
 30  4  1  0
 22 11  1  0
 29 24  1  0
 19 13  1  0
  1 31  1  0
  1 32  1  0
  1 33  1  0
  3 34  1  0
  3 35  1  0
  3 36  1  0
  5 37  1  0
  6 38  1  0
  7 39  1  0
  9 40  1  0
 10 41  1  0
 14 42  1  0
 15 43  1  0
 18 44  1  0
 23 45  1  0
 23 46  1  0
 25 47  1  0
 26 48  1  0
 27 49  1  0
 29 50  1  0
 30 51  1  0
M  END
>  <smiles>  (49) 
CN(C)c1cccc(/C=C/c2nc3ccc(F)cc3c(=O)n2Cc2cccnc2)c1

>  <score_type>  (49) 
oracle

>  <origin>  (49) 
autodockgpu

>  <m_score__min__energy>  (49) 
-8.6600000000000001

>  <m_primary>  (49) 
energy

>  <rmsd>  (49) 
5.186577447559975

>  <m_score__min__rmsd>  (49) 
5.186577447559975

>  <meeko>  (49) 
{"free_energy": -8.05, "intermolecular_energy": -9.84, "internal_energy": -1.15, "cluster_size": 30, "cluster_id": 1, "rank_in_cluster": 21}

>  <energy>  (49) 
-6.71

>  <cluster_rmsd>  (49) 
0.0

>  <cluster>  (49) 
7

$$$$

     RDKit          3D

 51 54  0  0  0  0  0  0  0  0999 V2000
  140.6890   69.5860  227.5030 C   0  0  0  0  0  0  0  0  0  0  0  0
  140.6480   70.8550  226.8050 N   0  0  0  0  0  0  0  0  0  0  0  0
  141.1010   72.0790  227.4420 C   0  0  0  0  0  0  0  0  0  0  0  0
  140.1550   70.8960  225.4770 C   0  0  0  0  0  0  0  0  0  0  0  0
  139.1490   70.0270  225.1270 C   0  0  0  0  0  0  0  0  0  0  0  0
  138.6750   70.0730  223.8330 C   0  0  0  0  0  0  0  0  0  0  0  0
  139.2090   70.9760  222.9180 C   0  0  0  0  0  0  0  0  0  0  0  0
  140.2180   71.8540  223.2490 C   0  0  0  0  0  0  0  0  0  0  0  0
  140.7980   72.8060  222.3260 C   0  0  0  0  0  0  0  0  0  0  0  0
  140.1080   73.7120  221.6570 C   0  0  0  0  0  0  0  0  0  0  0  0
  140.6210   75.0780  221.4850 C   0  0  0  0  0  0  0  0  0  0  0  0
  140.1180   76.0040  222.3270 N   0  0  0  0  0  0  0  0  0  0  0  0
  140.4940   77.2960  222.2490 C   0  0  0  0  0  0  0  0  0  0  0  0
  139.9870   78.2640  223.1050 C   0  0  0  0  0  0  0  0  0  0  0  0
  140.3950   79.5750  222.9940 C   0  0  0  0  0  0  0  0  0  0  0  0
  141.3220   79.9360  222.0180 C   0  0  0  0  0  0  0  0  0  0  0  0
  141.7520   81.2150  221.8740 F   0  0  0  0  0  0  0  0  0  0  0  0
  141.8220   78.9560  221.1670 C   0  0  0  0  0  0  0  0  0  0  0  0
  141.4010   77.6270  221.2860 C   0  0  0  0  0  0  0  0  0  0  0  0
  141.9060   76.6530  220.4320 C   0  0  0  0  0  0  0  0  0  0  0  0
  142.7340   77.0520  219.5790 O   0  0  0  0  0  0  0  0  0  0  0  0
  141.5150   75.3510  220.5250 N   0  0  0  0  0  0  0  0  0  0  0  0
  142.0620   74.3690  219.6200 C   0  0  0  0  0  0  0  0  0  0  0  0
  143.3860   73.8800  220.0040 C   0  0  0  0  0  0  0  0  0  0  0  0
  143.6360   72.5000  219.9710 C   0  0  0  0  0  0  0  0  0  0  0  0
  144.8770   71.9870  220.3240 C   0  0  0  0  0  0  0  0  0  0  0  0
  145.9030   72.8070  220.7170 C   0  0  0  0  0  0  0  0  0  0  0  0
  145.6550   74.1270  220.7460 N   0  0  0  0  0  0  0  0  0  0  0  0
  144.4480   74.6570  220.4050 C   0  0  0  0  0  0  0  0  0  0  0  0
  140.6760   71.7850  224.5600 C   0  0  0  0  0  0  0  0  0  0  0  0
  140.6832   69.7642  228.5885 H   0  0  0  0  0  0  0  0  0  0  0  0
  139.8098   68.9862  227.2252 H   0  0  0  0  0  0  0  0  0  0  0  0
  141.6051   69.0442  227.2252 H   0  0  0  0  0  0  0  0  0  0  0  0
  141.0575   71.9614  228.5348 H   0  0  0  0  0  0  0  0  0  0  0  0
  142.1366   72.2896  227.1368 H   0  0  0  0  0  0  0  0  0  0  0  0
  140.4520   72.9131  227.1368 H   0  0  0  0  0  0  0  0  0  0  0  0
  138.7346   69.3163  225.8572 H   0  0  0  0  0  0  0  0  0  0  0  0
  137.8695   69.3916  223.5216 H   0  0  0  0  0  0  0  0  0  0  0  0
  138.8107   70.9891  221.8927 H   0  0  0  0  0  0  0  0  0  0  0  0
  141.8866   72.7728  222.1713 H   0  0  0  0  0  0  0  0  0  0  0  0
  139.1349   73.4398  221.2222 H   0  0  0  0  0  0  0  0  0  0  0  0
  139.2551   77.9826  223.8765 H   0  0  0  0  0  0  0  0  0  0  0  0
  139.9891   80.3369  223.6757 H   0  0  0  0  0  0  0  0  0  0  0  0
  142.5551   79.2283  220.3934 H   0  0  0  0  0  0  0  0  0  0  0  0
  141.3739   73.5117  219.5824 H   0  0  0  0  0  0  0  0  0  0  0  0
  142.1755   74.8633  218.6439 H   0  0  0  0  0  0  0  0  0  0  0  0
  142.8353   71.8127  219.6602 H   0  0  0  0  0  0  0  0  0  0  0  0
  145.0404   70.8998  220.2876 H   0  0  0  0  0  0  0  0  0  0  0  0
  146.8867   72.4017  220.9965 H   0  0  0  0  0  0  0  0  0  0  0  0
  144.3171   75.7482  220.4520 H   0  0  0  0  0  0  0  0  0  0  0  0
  141.4820   72.4631  224.8770 H   0  0  0  0  0  0  0  0  0  0  0  0
  1  2  1  0
  2  3  1  0
  2  4  1  0
  4  5  2  0
  5  6  1  0
  6  7  2  0
  7  8  1  0
  8  9  1  0
  9 10  2  0
 10 11  1  0
 11 12  2  0
 12 13  1  0
 13 14  2  0
 14 15  1  0
 15 16  2  0
 16 17  1  0
 16 18  1  0
 18 19  2  0
 19 20  1  0
 20 21  2  0
 20 22  1  0
 22 23  1  0
 23 24  1  0
 24 25  2  0
 25 26  1  0
 26 27  2  0
 27 28  1  0
 28 29  2  0
  8 30  2  0
 30  4  1  0
 22 11  1  0
 29 24  1  0
 19 13  1  0
  1 31  1  0
  1 32  1  0
  1 33  1  0
  3 34  1  0
  3 35  1  0
  3 36  1  0
  5 37  1  0
  6 38  1  0
  7 39  1  0
  9 40  1  0
 10 41  1  0
 14 42  1  0
 15 43  1  0
 18 44  1  0
 23 45  1  0
 23 46  1  0
 25 47  1  0
 26 48  1  0
 27 49  1  0
 29 50  1  0
 30 51  1  0
M  END
>  <smiles>  (50) 
CN(C)c1cccc(/C=C/c2nc3ccc(F)cc3c(=O)n2Cc2cccnc2)c1

>  <score_type>  (50) 
oracle

>  <origin>  (50) 
autodockgpu

>  <m_score__min__energy>  (50) 
-8.6600000000000001

>  <m_primary>  (50) 
energy

>  <rmsd>  (50) 
5.122941882515898

>  <m_score__min__rmsd>  (50) 
5.122941882515898

>  <meeko>  (50) 
{"free_energy": -7.96, "intermolecular_energy": -9.75, "internal_energy": -1.21, "cluster_size": 30, "cluster_id": 1, "rank_in_cluster": 22}

>  <energy>  (50) 
-6.49

>  <cluster_rmsd>  (50) 
0.0

>  <cluster>  (50) 
8

$$$$
