
     RDKit          3D

 45 48  0  0  0  0  0  0  0  0999 V2000
  141.6600   81.2030  221.3270 O   0  0  0  0  0  0  0  0  0  0  0  0
  141.8270   80.4130  220.3800 C   0  0  0  0  0  0  0  0  0  0  0  0
  141.9120   80.9980  219.1090 C   0  0  0  0  0  0  0  0  0  0  0  0
  141.8100   82.3700  218.9610 C   0  0  0  0  0  0  0  0  0  0  0  0
  141.8920   82.9500  217.7020 C   0  0  0  0  0  0  0  0  0  0  0  0
  141.7870   84.3060  217.5940 F   0  0  0  0  0  0  0  0  0  0  0  0
  142.0800   82.1420  216.5950 C   0  0  0  0  0  0  0  0  0  0  0  0
  142.1860   80.7590  216.7210 C   0  0  0  0  0  0  0  0  0  0  0  0
  142.0990   80.2200  217.9850 C   0  0  0  0  0  0  0  0  0  0  0  0
  142.1930   78.8940  218.1850 N   0  0  0  0  0  0  0  0  0  0  0  0
  142.1110   78.3380  219.4190 C   0  0  0  0  0  0  0  0  0  0  0  0
  142.2550   76.8860  219.4770 C   0  0  0  0  0  0  0  0  0  0  0  0
  143.4280   76.3350  219.7100 C   0  0  0  0  0  0  0  0  0  0  0  0
  143.6260   74.9470  220.0860 C   0  0  0  0  0  0  0  0  0  0  0  0
  142.6140   74.0140  220.1430 C   0  0  0  0  0  0  0  0  0  0  0  0
  142.8630   72.7040  220.5090 C   0  0  0  0  0  0  0  0  0  0  0  0
  144.1300   72.2680  220.8350 C   0  0  0  0  0  0  0  0  0  0  0  0
  145.1590   73.1960  220.7820 C   0  0  0  0  0  0  0  0  0  0  0  0
  144.8940   74.4890  220.4180 C   0  0  0  0  0  0  0  0  0  0  0  0
  141.9280   79.0650  220.5350 N   0  0  0  0  0  0  0  0  0  0  0  0
  141.8070   78.4940  221.8560 C   0  0  0  0  0  0  0  0  0  0  0  0
  140.5760   77.7090  222.0770 C   0  0  0  0  0  0  0  0  0  0  0  0
  139.3230   78.2460  222.2490 C   0  0  0  0  0  0  0  0  0  0  0  0
  138.1880   77.4550  222.4490 C   0  0  0  0  0  0  0  0  0  0  0  0
  138.2760   76.0840  222.4840 C   0  0  0  0  0  0  0  0  0  0  0  0
  139.5240   75.5300  222.3120 C   0  0  0  0  0  0  0  0  0  0  0  0
  139.5970   74.1370  222.3510 O   0  0  0  0  0  0  0  0  0  0  0  0
  140.6420   76.3090  222.1150 C   0  0  0  0  0  0  0  0  0  0  0  0
  141.6630   83.0055  219.8467 H   0  0  0  0  0  0  0  0  0  0  0  0
  142.1470   82.6001  215.5972 H   0  0  0  0  0  0  0  0  0  0  0  0
  142.3344   80.1182  215.8393 H   0  0  0  0  0  0  0  0  0  0  0  0
  141.3739   76.2455  219.3244 H   0  0  0  0  0  0  0  0  0  0  0  0
  144.3202   76.9710  219.6129 H   0  0  0  0  0  0  0  0  0  0  0  0
  141.5868   74.3174  219.8922 H   0  0  0  0  0  0  0  0  0  0  0  0
  142.0271   71.9897  220.5410 H   0  0  0  0  0  0  0  0  0  0  0  0
  144.3172   71.2238  221.1260 H   0  0  0  0  0  0  0  0  0  0  0  0
  146.1867   72.8938  221.0320 H   0  0  0  0  0  0  0  0  0  0  0  0
  145.7302   75.2030  220.3869 H   0  0  0  0  0  0  0  0  0  0  0  0
  142.6700   77.8330  222.0242 H   0  0  0  0  0  0  0  0  0  0  0  0
  141.7672   79.3397  222.5583 H   0  0  0  0  0  0  0  0  0  0  0  0
  139.2087   79.3399  222.2285 H   0  0  0  0  0  0  0  0  0  0  0  0
  137.2084   77.9378  222.5805 H   0  0  0  0  0  0  0  0  0  0  0  0
  137.3868   75.4562  222.6427 H   0  0  0  0  0  0  0  0  0  0  0  0
  138.9480   73.6520  222.9240 H   0  0  0  0  0  0  0  0  0  0  0  0
  141.6174   75.8177  221.9833 H   0  0  0  0  0  0  0  0  0  0  0  0
  1  2  2  0
  2  3  1  0
  3  4  2  0
  4  5  1  0
  5  6  1  0
  5  7  2  0
  7  8  1  0
  8  9  2  0
  9 10  1  0
 10 11  2  0
 11 12  1  0
 12 13  2  0
 13 14  1  0
 14 15  2  0
 15 16  1  0
 16 17  2  0
 17 18  1  0
 18 19  2  0
 11 20  1  0
 20 21  1  0
 21 22  1  0
 22 23  2  0
 23 24  1  0
 24 25  2  0
 25 26  1  0
 26 27  1  0
 26 28  2  0
 20  2  1  0
 28 22  1  0
  9  3  1  0
 19 14  1  0
  4 29  1  0
  7 30  1  0
  8 31  1  0
 12 32  1  0
 13 33  1  0
 15 34  1  0
 16 35  1  0
 17 36  1  0
 18 37  1  0
 19 38  1  0
 21 39  1  0
 21 40  1  0
 23 41  1  0
 24 42  1  0
 25 43  1  0
 27 44  1  0
 28 45  1  0
M  END
>  <smiles>  (1) 
O=c1c2cc(F)ccc2nc(/C=C/c2ccccc2)n1Cc1cccc(O)c1

>  <score_type>  (1) 
oracle

>  <origin>  (1) 
autodockgpu

>  <m_score__min__energy>  (1) 
-8.6300000000000008

>  <m_primary>  (1) 
energy

>  <rmsd>  (1) 
5.114390899845824

>  <m_score__min__rmsd>  (1) 
5.114390899845824

>  <meeko>  (1) 
{"free_energy": -7.01, "intermolecular_energy": -8.8, "internal_energy": -1.22, "cluster_size": 3, "cluster_id": 3, "rank_in_cluster": 2}

>  <energy>  (1) 
-8.63

>  <cluster_rmsd>  (1) 
0.0

>  <cluster>  (1) 
1

$$$$

     RDKit          3D

 45 48  0  0  0  0  0  0  0  0999 V2000
  142.4120   76.4740  217.3730 O   0  0  0  0  0  0  0  0  0  0  0  0
  142.2620   76.1410  218.5620 C   0  0  0  0  0  0  0  0  0  0  0  0
  143.1370   75.1500  219.0300 C   0  0  0  0  0  0  0  0  0  0  0  0
  144.0900   74.6050  218.1900 C   0  0  0  0  0  0  0  0  0  0  0  0
  144.9570   73.6230  218.6520 C   0  0  0  0  0  0  0  0  0  0  0  0
  145.8840   73.1070  217.7950 F   0  0  0  0  0  0  0  0  0  0  0  0
  144.8580   73.1950  219.9650 C   0  0  0  0  0  0  0  0  0  0  0  0
  143.9060   73.7320  220.8270 C   0  0  0  0  0  0  0  0  0  0  0  0
  143.0640   74.7030  220.3330 C   0  0  0  0  0  0  0  0  0  0  0  0
  142.1210   75.2680  221.1080 N   0  0  0  0  0  0  0  0  0  0  0  0
  141.2800   76.2250  220.6460 C   0  0  0  0  0  0  0  0  0  0  0  0
  140.3250   76.7580  221.6120 C   0  0  0  0  0  0  0  0  0  0  0  0
  140.7360   77.2650  222.7560 C   0  0  0  0  0  0  0  0  0  0  0  0
  141.1750   78.6380  222.9380 C   0  0  0  0  0  0  0  0  0  0  0  0
  140.4050   79.6200  223.5200 C   0  0  0  0  0  0  0  0  0  0  0  0
  140.8770   80.9110  223.6660 C   0  0  0  0  0  0  0  0  0  0  0  0
  142.1350   81.2800  223.2370 C   0  0  0  0  0  0  0  0  0  0  0  0
  142.9220   80.3010  222.6490 C   0  0  0  0  0  0  0  0  0  0  0  0
  142.4380   79.0270  222.5120 C   0  0  0  0  0  0  0  0  0  0  0  0
  141.3210   76.6840  219.3830 N   0  0  0  0  0  0  0  0  0  0  0  0
  140.4170   77.6810  218.8590 C   0  0  0  0  0  0  0  0  0  0  0  0
  140.8660   79.0760  219.0430 C   0  0  0  0  0  0  0  0  0  0  0  0
  140.2930   79.9770  219.9080 C   0  0  0  0  0  0  0  0  0  0  0  0
  140.7630   81.2870  220.0480 C   0  0  0  0  0  0  0  0  0  0  0  0
  141.8330   81.7380  219.3140 C   0  0  0  0  0  0  0  0  0  0  0  0
  142.4190   80.8480  218.4430 C   0  0  0  0  0  0  0  0  0  0  0  0
  143.5050   81.3220  217.7060 O   0  0  0  0  0  0  0  0  0  0  0  0
  141.9570   79.5580  218.3060 C   0  0  0  0  0  0  0  0  0  0  0  0
  144.1623   74.9514  217.1485 H   0  0  0  0  0  0  0  0  0  0  0  0
  145.5433   72.4174  220.3333 H   0  0  0  0  0  0  0  0  0  0  0  0
  143.8288   73.3913  221.8701 H   0  0  0  0  0  0  0  0  0  0  0  0
  139.2495   76.7361  221.3821 H   0  0  0  0  0  0  0  0  0  0  0  0
  140.7477   76.6031  223.6345 H   0  0  0  0  0  0  0  0  0  0  0  0
  139.3941   79.3722  223.8759 H   0  0  0  0  0  0  0  0  0  0  0  0
  140.2308   81.6658  224.1379 H   0  0  0  0  0  0  0  0  0  0  0  0
  142.4999   82.3108  223.3566 H   0  0  0  0  0  0  0  0  0  0  0  0
  143.9333   80.5473  222.2932 H   0  0  0  0  0  0  0  0  0  0  0  0
  143.0839   78.2723  222.0396 H   0  0  0  0  0  0  0  0  0  0  0  0
  140.2938   77.4997  217.7811 H   0  0  0  0  0  0  0  0  0  0  0  0
  139.4788   77.5786  219.4240 H   0  0  0  0  0  0  0  0  0  0  0  0
  139.4323   79.6560  220.5131 H   0  0  0  0  0  0  0  0  0  0  0  0
  140.2680   81.9668  220.7571 H   0  0  0  0  0  0  0  0  0  0  0  0
  142.2059   82.7676  219.4181 H   0  0  0  0  0  0  0  0  0  0  0  0
  143.6910   80.9000  216.8280 H   0  0  0  0  0  0  0  0  0  0  0  0
  142.4596   78.8846  217.5961 H   0  0  0  0  0  0  0  0  0  0  0  0
  1  2  2  0
  2  3  1  0
  3  4  2  0
  4  5  1  0
  5  6  1  0
  5  7  2  0
  7  8  1  0
  8  9  2  0
  9 10  1  0
 10 11  2  0
 11 12  1  0
 12 13  2  0
 13 14  1  0
 14 15  2  0
 15 16  1  0
 16 17  2  0
 17 18  1  0
 18 19  2  0
 11 20  1  0
 20 21  1  0
 21 22  1  0
 22 23  2  0
 23 24  1  0
 24 25  2  0
 25 26  1  0
 26 27  1  0
 26 28  2  0
 20  2  1  0
 28 22  1  0
  9  3  1  0
 19 14  1  0
  4 29  1  0
  7 30  1  0
  8 31  1  0
 12 32  1  0
 13 33  1  0
 15 34  1  0
 16 35  1  0
 17 36  1  0
 18 37  1  0
 19 38  1  0
 21 39  1  0
 21 40  1  0
 23 41  1  0
 24 42  1  0
 25 43  1  0
 27 44  1  0
 28 45  1  0
M  END
>  <smiles>  (2) 
O=c1c2cc(F)ccc2nc(/C=C/c2ccccc2)n1Cc1cccc(O)c1

>  <score_type>  (2) 
oracle

>  <origin>  (2) 
autodockgpu

>  <m_score__min__energy>  (2) 
-8.6300000000000008

>  <m_primary>  (2) 
energy

>  <rmsd>  (2) 
4.2556152650454155

>  <m_score__min__rmsd>  (2) 
4.2556152650454155

>  <meeko>  (2) 
{"free_energy": -6.47, "intermolecular_energy": -8.26, "internal_energy": -1.94, "cluster_size": 5, "cluster_id": 8, "rank_in_cluster": 4}

>  <energy>  (2) 
-8.19

>  <cluster_rmsd>  (2) 
0.49

>  <cluster>  (2) 
1

$$$$

     RDKit          3D

 45 48  0  0  0  0  0  0  0  0999 V2000
  142.5620   75.0490  219.6770 O   0  0  0  0  0  0  0  0  0  0  0  0
  141.7460   74.6040  220.5050 C   0  0  0  0  0  0  0  0  0  0  0  0
  140.9120   75.5560  221.1070 C   0  0  0  0  0  0  0  0  0  0  0  0
  141.0220   76.8940  220.7740 C   0  0  0  0  0  0  0  0  0  0  0  0
  140.1960   77.8380  221.3710 C   0  0  0  0  0  0  0  0  0  0  0  0
  140.3330   79.1490  221.0180 F   0  0  0  0  0  0  0  0  0  0  0  0
  139.2590   77.4260  222.3020 C   0  0  0  0  0  0  0  0  0  0  0  0
  139.1310   76.0840  222.6520 C   0  0  0  0  0  0  0  0  0  0  0  0
  139.9680   75.1780  222.0390 C   0  0  0  0  0  0  0  0  0  0  0  0
  139.9010   73.8650  222.3250 N   0  0  0  0  0  0  0  0  0  0  0  0
  140.7120   72.9520  221.7370 C   0  0  0  0  0  0  0  0  0  0  0  0
  140.5060   71.5630  222.1330 C   0  0  0  0  0  0  0  0  0  0  0  0
  139.6130   71.2500  223.0490 C   0  0  0  0  0  0  0  0  0  0  0  0
  139.9210   70.9970  224.4460 C   0  0  0  0  0  0  0  0  0  0  0  0
  139.4420   69.9180  225.1560 C   0  0  0  0  0  0  0  0  0  0  0  0
  139.7690   69.7300  226.4850 C   0  0  0  0  0  0  0  0  0  0  0  0
  140.5870   70.6080  227.1660 C   0  0  0  0  0  0  0  0  0  0  0  0
  141.0770   71.6990  226.4630 C   0  0  0  0  0  0  0  0  0  0  0  0
  140.7420   71.8700  225.1470 C   0  0  0  0  0  0  0  0  0  0  0  0
  141.6440   73.2850  220.8250 N   0  0  0  0  0  0  0  0  0  0  0  0
  142.5400   72.3360  220.2070 C   0  0  0  0  0  0  0  0  0  0  0  0
  143.9560   72.7520  220.1840 C   0  0  0  0  0  0  0  0  0  0  0  0
  144.7180   73.0050  221.2980 C   0  0  0  0  0  0  0  0  0  0  0  0
  146.0600   73.3920  221.2190 C   0  0  0  0  0  0  0  0  0  0  0  0
  146.6850   73.5380  220.0040 C   0  0  0  0  0  0  0  0  0  0  0  0
  145.9360   73.2860  218.8770 C   0  0  0  0  0  0  0  0  0  0  0  0
  146.5850   73.4390  217.6520 O   0  0  0  0  0  0  0  0  0  0  0  0
  144.6150   72.9050  218.9560 C   0  0  0  0  0  0  0  0  0  0  0  0
  141.7685   77.2127  220.0316 H   0  0  0  0  0  0  0  0  0  0  0  0
  138.6031   78.1721  222.7744 H   0  0  0  0  0  0  0  0  0  0  0  0
  138.3863   75.7585  223.3932 H   0  0  0  0  0  0  0  0  0  0  0  0
  141.1030   70.7686  221.6614 H   0  0  0  0  0  0  0  0  0  0  0  0
  138.5616   71.1750  222.7346 H   0  0  0  0  0  0  0  0  0  0  0  0
  138.7858   69.1914  224.6546 H   0  0  0  0  0  0  0  0  0  0  0  0
  139.3655   68.8550  227.0157 H   0  0  0  0  0  0  0  0  0  0  0  0
  140.8406   70.4492  228.2245 H   0  0  0  0  0  0  0  0  0  0  0  0
  141.7341   72.4259  226.9628 H   0  0  0  0  0  0  0  0  0  0  0  0
  141.1446   72.7456  224.6166 H   0  0  0  0  0  0  0  0  0  0  0  0
  142.4700   71.3878  220.7602 H   0  0  0  0  0  0  0  0  0  0  0  0
  142.2242   72.2477  219.1570 H   0  0  0  0  0  0  0  0  0  0  0  0
  144.2555   72.8993  222.2904 H   0  0  0  0  0  0  0  0  0  0  0  0
  146.6238   73.5824  222.1441 H   0  0  0  0  0  0  0  0  0  0  0  0
  147.7395   73.8434  219.9349 H   0  0  0  0  0  0  0  0  0  0  0  0
  146.6370   74.3500  217.2630 H   0  0  0  0  0  0  0  0  0  0  0  0
  144.0592   72.7146  218.0260 H   0  0  0  0  0  0  0  0  0  0  0  0
  1  2  2  0
  2  3  1  0
  3  4  2  0
  4  5  1  0
  5  6  1  0
  5  7  2  0
  7  8  1  0
  8  9  2  0
  9 10  1  0
 10 11  2  0
 11 12  1  0
 12 13  2  0
 13 14  1  0
 14 15  2  0
 15 16  1  0
 16 17  2  0
 17 18  1  0
 18 19  2  0
 11 20  1  0
 20 21  1  0
 21 22  1  0
 22 23  2  0
 23 24  1  0
 24 25  2  0
 25 26  1  0
 26 27  1  0
 26 28  2  0
 20  2  1  0
 28 22  1  0
  9  3  1  0
 19 14  1  0
  4 29  1  0
  7 30  1  0
  8 31  1  0
 12 32  1  0
 13 33  1  0
 15 34  1  0
 16 35  1  0
 17 36  1  0
 18 37  1  0
 19 38  1  0
 21 39  1  0
 21 40  1  0
 23 41  1  0
 24 42  1  0
 25 43  1  0
 27 44  1  0
 28 45  1  0
M  END
>  <smiles>  (3) 
O=c1c2cc(F)ccc2nc(/C=C/c2ccccc2)n1Cc1cccc(O)c1

>  <score_type>  (3) 
oracle

>  <origin>  (3) 
autodockgpu

>  <m_score__min__energy>  (3) 
-8.6300000000000008

>  <m_primary>  (3) 
energy

>  <rmsd>  (3) 
8.048829182563502

>  <m_score__min__rmsd>  (3) 
8.048829182563502

>  <meeko>  (3) 
{"free_energy": -8.14, "intermolecular_energy": -9.93, "internal_energy": -1.02, "cluster_size": 13, "cluster_id": 1, "rank_in_cluster": 3}

>  <energy>  (3) 
-8.14

>  <cluster_rmsd>  (3) 
0.36

>  <cluster>  (3) 
1

$$$$

     RDKit          3D

 45 48  0  0  0  0  0  0  0  0999 V2000
  135.6200   71.5930  222.0880 O   0  0  0  0  0  0  0  0  0  0  0  0
  135.9800   70.9110  223.0650 C   0  0  0  0  0  0  0  0  0  0  0  0
  135.1690   71.0060  224.2040 C   0  0  0  0  0  0  0  0  0  0  0  0
  134.0490   71.8180  224.2010 C   0  0  0  0  0  0  0  0  0  0  0  0
  133.2450   71.9130  225.3290 C   0  0  0  0  0  0  0  0  0  0  0  0
  132.1480   72.7240  225.2900 F   0  0  0  0  0  0  0  0  0  0  0  0
  133.5750   71.1850  226.4590 C   0  0  0  0  0  0  0  0  0  0  0  0
  134.6980   70.3630  226.4840 C   0  0  0  0  0  0  0  0  0  0  0  0
  135.4710   70.2940  225.3470 C   0  0  0  0  0  0  0  0  0  0  0  0
  136.5690   69.5190  225.2960 N   0  0  0  0  0  0  0  0  0  0  0  0
  137.3470   69.4340  224.1890 C   0  0  0  0  0  0  0  0  0  0  0  0
  138.4920   68.5340  224.2800 C   0  0  0  0  0  0  0  0  0  0  0  0
  139.2370   68.5000  225.3650 C   0  0  0  0  0  0  0  0  0  0  0  0
  139.8640   69.6620  225.9700 C   0  0  0  0  0  0  0  0  0  0  0  0
  140.4850   70.6610  225.2540 C   0  0  0  0  0  0  0  0  0  0  0  0
  141.0660   71.7450  225.8870 C   0  0  0  0  0  0  0  0  0  0  0  0
  141.0540   71.8790  227.2590 C   0  0  0  0  0  0  0  0  0  0  0  0
  140.4320   70.8800  227.9940 C   0  0  0  0  0  0  0  0  0  0  0  0
  139.8630   69.8140  227.3500 C   0  0  0  0  0  0  0  0  0  0  0  0
  137.0840   70.1140  223.0590 N   0  0  0  0  0  0  0  0  0  0  0  0
  137.9130   70.0640  221.8780 C   0  0  0  0  0  0  0  0  0  0  0  0
  139.0240   71.0360  221.8640 C   0  0  0  0  0  0  0  0  0  0  0  0
  140.3390   70.7220  221.6170 C   0  0  0  0  0  0  0  0  0  0  0  0
  141.3520   71.6860  221.6110 C   0  0  0  0  0  0  0  0  0  0  0  0
  141.0750   73.0090  221.8550 C   0  0  0  0  0  0  0  0  0  0  0  0
  139.7620   73.3400  222.1030 C   0  0  0  0  0  0  0  0  0  0  0  0
  139.4960   74.6880  222.3490 O   0  0  0  0  0  0  0  0  0  0  0  0
  138.7640   72.3920  222.1090 C   0  0  0  0  0  0  0  0  0  0  0  0
  133.7935   72.3926  223.2984 H   0  0  0  0  0  0  0  0  0  0  0  0
  132.9385   71.2573  227.3532 H   0  0  0  0  0  0  0  0  0  0  0  0
  134.9595   69.7868  227.3838 H   0  0  0  0  0  0  0  0  0  0  0  0
  138.7355   67.8765  223.4324 H   0  0  0  0  0  0  0  0  0  0  0  0
  139.3955   67.5239  225.8467 H   0  0  0  0  0  0  0  0  0  0  0  0
  140.5197   70.5956  224.1565 H   0  0  0  0  0  0  0  0  0  0  0  0
  141.5514   72.5222  225.2784 H   0  0  0  0  0  0  0  0  0  0  0  0
  141.5198   72.7449  227.7522 H   0  0  0  0  0  0  0  0  0  0  0  0
  140.3961   70.9442  229.0915 H   0  0  0  0  0  0  0  0  0  0  0  0
  139.3790   69.0361  227.9588 H   0  0  0  0  0  0  0  0  0  0  0  0
  138.3406   69.0534  221.8018 H   0  0  0  0  0  0  0  0  0  0  0  0
  137.2622   70.3230  221.0298 H   0  0  0  0  0  0  0  0  0  0  0  0
  140.6045   69.6735  221.4166 H   0  0  0  0  0  0  0  0  0  0  0  0
  142.3886   71.3795  221.4073 H   0  0  0  0  0  0  0  0  0  0  0  0
  141.8681   73.7712  221.8524 H   0  0  0  0  0  0  0  0  0  0  0  0
  138.8660   74.9120  223.0820 H   0  0  0  0  0  0  0  0  0  0  0  0
  137.7302   72.7080  222.3123 H   0  0  0  0  0  0  0  0  0  0  0  0
  1  2  2  0
  2  3  1  0
  3  4  2  0
  4  5  1  0
  5  6  1  0
  5  7  2  0
  7  8  1  0
  8  9  2  0
  9 10  1  0
 10 11  2  0
 11 12  1  0
 12 13  2  0
 13 14  1  0
 14 15  2  0
 15 16  1  0
 16 17  2  0
 17 18  1  0
 18 19  2  0
 11 20  1  0
 20 21  1  0
 21 22  1  0
 22 23  2  0
 23 24  1  0
 24 25  2  0
 25 26  1  0
 26 27  1  0
 26 28  2  0
 20  2  1  0
 28 22  1  0
  9  3  1  0
 19 14  1  0
  4 29  1  0
  7 30  1  0
  8 31  1  0
 12 32  1  0
 13 33  1  0
 15 34  1  0
 16 35  1  0
 17 36  1  0
 18 37  1  0
 19 38  1  0
 21 39  1  0
 21 40  1  0
 23 41  1  0
 24 42  1  0
 25 43  1  0
 27 44  1  0
 28 45  1  0
M  END
>  <smiles>  (4) 
O=c1c2cc(F)ccc2nc(/C=C/c2ccccc2)n1Cc1cccc(O)c1

>  <score_type>  (4) 
oracle

>  <origin>  (4) 
autodockgpu

>  <m_score__min__energy>  (4) 
-8.6300000000000008

>  <m_primary>  (4) 
energy

>  <rmsd>  (4) 
10.288909604531575

>  <m_score__min__rmsd>  (4) 
10.288909604531575

>  <meeko>  (4) 
{"free_energy": -6.7, "intermolecular_energy": -8.49, "internal_energy": -1.77, "cluster_size": 6, "cluster_id": 5, "rank_in_cluster": 4}

>  <energy>  (4) 
-8.05

>  <cluster_rmsd>  (4) 
0.49

>  <cluster>  (4) 
1

$$$$

     RDKit          3D

 45 48  0  0  0  0  0  0  0  0999 V2000
  140.1290   71.8800  224.9220 O   0  0  0  0  0  0  0  0  0  0  0  0
  139.6150   70.7470  224.8870 C   0  0  0  0  0  0  0  0  0  0  0  0
  139.9310   69.9030  225.9600 C   0  0  0  0  0  0  0  0  0  0  0  0
  140.7670   70.3400  226.9720 C   0  0  0  0  0  0  0  0  0  0  0  0
  141.0820   69.5040  228.0350 C   0  0  0  0  0  0  0  0  0  0  0  0
  141.9090   69.9680  229.0150 F   0  0  0  0  0  0  0  0  0  0  0  0
  140.5490   68.2270  228.0740 C   0  0  0  0  0  0  0  0  0  0  0  0
  139.7060   67.7670  227.0650 C   0  0  0  0  0  0  0  0  0  0  0  0
  139.4170   68.6250  226.0270 C   0  0  0  0  0  0  0  0  0  0  0  0
  138.6090   68.2510  225.0190 N   0  0  0  0  0  0  0  0  0  0  0  0
  138.3090   69.0750  223.9860 C   0  0  0  0  0  0  0  0  0  0  0  0
  137.4000   68.5350  222.9790 C   0  0  0  0  0  0  0  0  0  0  0  0
  136.0960   68.6670  223.1090 C   0  0  0  0  0  0  0  0  0  0  0  0
  135.4470   69.4420  224.1520 C   0  0  0  0  0  0  0  0  0  0  0  0
  134.8880   68.8910  225.2840 C   0  0  0  0  0  0  0  0  0  0  0  0
  134.2830   69.6810  226.2440 C   0  0  0  0  0  0  0  0  0  0  0  0
  134.2070   71.0520  226.1180 C   0  0  0  0  0  0  0  0  0  0  0  0
  134.7670   71.6210  224.9830 C   0  0  0  0  0  0  0  0  0  0  0  0
  135.3620   70.8240  224.0430 C   0  0  0  0  0  0  0  0  0  0  0  0
  138.7920   70.3260  223.8870 N   0  0  0  0  0  0  0  0  0  0  0  0
  138.5110   71.2130  222.7820 C   0  0  0  0  0  0  0  0  0  0  0  0
  139.7010   71.8630  222.1970 C   0  0  0  0  0  0  0  0  0  0  0  0
  140.6830   71.2120  221.4910 C   0  0  0  0  0  0  0  0  0  0  0  0
  141.7880   71.8790  220.9520 C   0  0  0  0  0  0  0  0  0  0  0  0
  141.9430   73.2350  221.1090 C   0  0  0  0  0  0  0  0  0  0  0  0
  140.9670   73.9020  221.8130 C   0  0  0  0  0  0  0  0  0  0  0  0
  141.1400   75.2790  221.9630 O   0  0  0  0  0  0  0  0  0  0  0  0
  139.8790   73.2460  222.3420 C   0  0  0  0  0  0  0  0  0  0  0  0
  141.1851   71.3568  226.9343 H   0  0  0  0  0  0  0  0  0  0  0  0
  140.7955   67.5640  228.9164 H   0  0  0  0  0  0  0  0  0  0  0  0
  139.2847   66.7514  227.0962 H   0  0  0  0  0  0  0  0  0  0  0  0
  137.8089   68.0120  222.1019 H   0  0  0  0  0  0  0  0  0  0  0  0
  135.4541   68.1549  222.3771 H   0  0  0  0  0  0  0  0  0  0  0  0
  134.9236   67.8009  225.4270 H   0  0  0  0  0  0  0  0  0  0  0  0
  133.8497   69.2018  227.1343 H   0  0  0  0  0  0  0  0  0  0  0  0
  133.7214   71.6705  226.8872 H   0  0  0  0  0  0  0  0  0  0  0  0
  134.7327   72.7110  224.8391 H   0  0  0  0  0  0  0  0  0  0  0  0
  135.7962   71.3036  223.1534 H   0  0  0  0  0  0  0  0  0  0  0  0
  138.0152   70.6301  221.9918 H   0  0  0  0  0  0  0  0  0  0  0  0
  137.8805   72.0203  223.1830 H   0  0  0  0  0  0  0  0  0  0  0  0
  140.5972   70.1253  221.3439 H   0  0  0  0  0  0  0  0  0  0  0  0
  142.5449   71.3088  220.3935 H   0  0  0  0  0  0  0  0  0  0  0  0
  142.8108   73.7651  220.6896 H   0  0  0  0  0  0  0  0  0  0  0  0
  142.0520   75.6150  222.1610 H   0  0  0  0  0  0  0  0  0  0  0  0
  139.1254   73.8250  222.8960 H   0  0  0  0  0  0  0  0  0  0  0  0
  1  2  2  0
  2  3  1  0
  3  4  2  0
  4  5  1  0
  5  6  1  0
  5  7  2  0
  7  8  1  0
  8  9  2  0
  9 10  1  0
 10 11  2  0
 11 12  1  0
 12 13  2  0
 13 14  1  0
 14 15  2  0
 15 16  1  0
 16 17  2  0
 17 18  1  0
 18 19  2  0
 11 20  1  0
 20 21  1  0
 21 22  1  0
 22 23  2  0
 23 24  1  0
 24 25  2  0
 25 26  1  0
 26 27  1  0
 26 28  2  0
 20  2  1  0
 28 22  1  0
  9  3  1  0
 19 14  1  0
  4 29  1  0
  7 30  1  0
  8 31  1  0
 12 32  1  0
 13 33  1  0
 15 34  1  0
 16 35  1  0
 17 36  1  0
 18 37  1  0
 19 38  1  0
 21 39  1  0
 21 40  1  0
 23 41  1  0
 24 42  1  0
 25 43  1  0
 27 44  1  0
 28 45  1  0
M  END
>  <smiles>  (5) 
O=c1c2cc(F)ccc2nc(/C=C/c2ccccc2)n1Cc1cccc(O)c1

>  <score_type>  (5) 
oracle

>  <origin>  (5) 
autodockgpu

>  <m_score__min__energy>  (5) 
-8.6300000000000008

>  <m_primary>  (5) 
energy

>  <rmsd>  (5) 
10.155542395613583

>  <m_score__min__rmsd>  (5) 
10.155542395613583

>  <meeko>  (5) 
{"free_energy": -6.93, "intermolecular_energy": -8.72, "internal_energy": -1.44, "cluster_size": 8, "cluster_id": 7, "rank_in_cluster": 3}

>  <energy>  (5) 
-7.76

>  <cluster_rmsd>  (5) 
1.38

>  <cluster>  (5) 
1

$$$$

     RDKit          3D

 45 48  0  0  0  0  0  0  0  0999 V2000
  136.6620   70.1960  221.5900 O   0  0  0  0  0  0  0  0  0  0  0  0
  136.8680   69.8400  222.7650 C   0  0  0  0  0  0  0  0  0  0  0  0
  135.8400   70.1230  223.6750 C   0  0  0  0  0  0  0  0  0  0  0  0
  134.6870   70.7600  223.2530 C   0  0  0  0  0  0  0  0  0  0  0  0
  133.6680   71.0420  224.1530 C   0  0  0  0  0  0  0  0  0  0  0  0
  132.5450   71.6710  223.7010 F   0  0  0  0  0  0  0  0  0  0  0  0
  133.8170   70.6770  225.4800 C   0  0  0  0  0  0  0  0  0  0  0  0
  134.9690   70.0350  225.9260 C   0  0  0  0  0  0  0  0  0  0  0  0
  135.9580   69.7730  225.0040 C   0  0  0  0  0  0  0  0  0  0  0  0
  137.0970   69.1550  225.3610 N   0  0  0  0  0  0  0  0  0  0  0  0
  138.0860   68.8850  224.4740 C   0  0  0  0  0  0  0  0  0  0  0  0
  139.2530   68.1890  225.0070 C   0  0  0  0  0  0  0  0  0  0  0  0
  139.6860   68.4370  226.2250 C   0  0  0  0  0  0  0  0  0  0  0  0
  140.1600   69.7320  226.6830 C   0  0  0  0  0  0  0  0  0  0  0  0
  139.9550   70.2200  227.9540 C   0  0  0  0  0  0  0  0  0  0  0  0
  140.4310   71.4620  228.3310 C   0  0  0  0  0  0  0  0  0  0  0  0
  141.1300   72.2710  227.4600 C   0  0  0  0  0  0  0  0  0  0  0  0
  141.3450   71.7910  226.1760 C   0  0  0  0  0  0  0  0  0  0  0  0
  140.8660   70.5590  225.8190 C   0  0  0  0  0  0  0  0  0  0  0  0
  138.0060   69.2120  223.1720 N   0  0  0  0  0  0  0  0  0  0  0  0
  139.0560   68.9620  222.2130 C   0  0  0  0  0  0  0  0  0  0  0  0
  139.7700   70.1710  221.7540 C   0  0  0  0  0  0  0  0  0  0  0  0
  140.6610   70.2060  220.7090 C   0  0  0  0  0  0  0  0  0  0  0  0
  141.3070   71.3820  220.3120 C   0  0  0  0  0  0  0  0  0  0  0  0
  141.0760   72.5710  220.9600 C   0  0  0  0  0  0  0  0  0  0  0  0
  140.1850   72.5530  222.0090 C   0  0  0  0  0  0  0  0  0  0  0  0
  139.9610   73.7690  222.6560 O   0  0  0  0  0  0  0  0  0  0  0  0
  139.5490   71.3960  222.3990 C   0  0  0  0  0  0  0  0  0  0  0  0
  134.5765   71.0453  222.1964 H   0  0  0  0  0  0  0  0  0  0  0  0
  133.0107   70.8982  226.1949 H   0  0  0  0  0  0  0  0  0  0  0  0
  135.0856   69.7462  226.9810 H   0  0  0  0  0  0  0  0  0  0  0  0
  139.7765   67.4490  224.3838 H   0  0  0  0  0  0  0  0  0  0  0  0
  139.6893   67.6064  226.9462 H   0  0  0  0  0  0  0  0  0  0  0  0
  139.4019   69.6100  228.6834 H   0  0  0  0  0  0  0  0  0  0  0  0
  140.2467   71.8154  229.3562 H   0  0  0  0  0  0  0  0  0  0  0  0
  141.5025   73.2582  227.7710 H   0  0  0  0  0  0  0  0  0  0  0  0
  141.8993   72.3992  225.4461 H   0  0  0  0  0  0  0  0  0  0  0  0
  141.0501   70.2056  224.7937 H   0  0  0  0  0  0  0  0  0  0  0  0
  139.7894   68.2853  222.6758 H   0  0  0  0  0  0  0  0  0  0  0  0
  138.5710   68.5303  221.3251 H   0  0  0  0  0  0  0  0  0  0  0  0
  140.8746   69.2747  220.1639 H   0  0  0  0  0  0  0  0  0  0  0  0
  142.0112   71.3539  219.4674 H   0  0  0  0  0  0  0  0  0  0  0  0
  141.5818   73.4985  220.6535 H   0  0  0  0  0  0  0  0  0  0  0  0
  139.0650   73.9280  223.0510 H   0  0  0  0  0  0  0  0  0  0  0  0
  138.8451   71.4339  223.2435 H   0  0  0  0  0  0  0  0  0  0  0  0
  1  2  2  0
  2  3  1  0
  3  4  2  0
  4  5  1  0
  5  6  1  0
  5  7  2  0
  7  8  1  0
  8  9  2  0
  9 10  1  0
 10 11  2  0
 11 12  1  0
 12 13  2  0
 13 14  1  0
 14 15  2  0
 15 16  1  0
 16 17  2  0
 17 18  1  0
 18 19  2  0
 11 20  1  0
 20 21  1  0
 21 22  1  0
 22 23  2  0
 23 24  1  0
 24 25  2  0
 25 26  1  0
 26 27  1  0
 26 28  2  0
 20  2  1  0
 28 22  1  0
  9  3  1  0
 19 14  1  0
  4 29  1  0
  7 30  1  0
  8 31  1  0
 12 32  1  0
 13 33  1  0
 15 34  1  0
 16 35  1  0
 17 36  1  0
 18 37  1  0
 19 38  1  0
 21 39  1  0
 21 40  1  0
 23 41  1  0
 24 42  1  0
 25 43  1  0
 27 44  1  0
 28 45  1  0
M  END
>  <smiles>  (6) 
O=c1c2cc(F)ccc2nc(/C=C/c2ccccc2)n1Cc1cccc(O)c1

>  <score_type>  (6) 
oracle

>  <origin>  (6) 
autodockgpu

>  <m_score__min__energy>  (6) 
-8.6300000000000008

>  <m_primary>  (6) 
energy

>  <rmsd>  (6) 
10.544956175351507

>  <m_score__min__rmsd>  (6) 
10.544956175351507

>  <meeko>  (6) 
{"free_energy": -7.07, "intermolecular_energy": -8.86, "internal_energy": -1.52, "cluster_size": 6, "cluster_id": 5, "rank_in_cluster": 1}

>  <energy>  (6) 
-7.74

>  <cluster_rmsd>  (6) 
1.39

>  <cluster>  (6) 
1

$$$$

     RDKit          3D

 45 48  0  0  0  0  0  0  0  0999 V2000
  141.4740   71.1580  221.5010 O   0  0  0  0  0  0  0  0  0  0  0  0
  141.3530   72.3960  221.4570 C   0  0  0  0  0  0  0  0  0  0  0  0
  142.4050   73.0870  220.8410 C   0  0  0  0  0  0  0  0  0  0  0  0
  143.4900   72.3990  220.3290 C   0  0  0  0  0  0  0  0  0  0  0  0
  144.5340   73.0830  219.7200 C   0  0  0  0  0  0  0  0  0  0  0  0
  145.5890   72.3720  219.2260 F   0  0  0  0  0  0  0  0  0  0  0  0
  144.4770   74.4630  219.6270 C   0  0  0  0  0  0  0  0  0  0  0  0
  143.3940   75.1750  220.1360 C   0  0  0  0  0  0  0  0  0  0  0  0
  142.3790   74.4620  220.7330 C   0  0  0  0  0  0  0  0  0  0  0  0
  141.3000   75.0820  221.2450 N   0  0  0  0  0  0  0  0  0  0  0  0
  140.2870   74.4040  221.8390 C   0  0  0  0  0  0  0  0  0  0  0  0
  139.1750   75.2130  222.3260 C   0  0  0  0  0  0  0  0  0  0  0  0
  139.0380   76.4670  221.9470 C   0  0  0  0  0  0  0  0  0  0  0  0
  139.6900   77.5960  222.5860 C   0  0  0  0  0  0  0  0  0  0  0  0
  139.0180   78.6880  223.0910 C   0  0  0  0  0  0  0  0  0  0  0  0
  139.6940   79.7340  223.6890 C   0  0  0  0  0  0  0  0  0  0  0  0
  141.0680   79.7390  223.8110 C   0  0  0  0  0  0  0  0  0  0  0  0
  141.7580   78.6460  223.3080 C   0  0  0  0  0  0  0  0  0  0  0  0
  141.0720   77.6190  222.7180 C   0  0  0  0  0  0  0  0  0  0  0  0
  140.2800   73.0650  221.9620 N   0  0  0  0  0  0  0  0  0  0  0  0
  139.2280   72.3220  222.6160 C   0  0  0  0  0  0  0  0  0  0  0  0
  139.6810   71.4620  223.7270 C   0  0  0  0  0  0  0  0  0  0  0  0
  140.5400   71.8570  224.7250 C   0  0  0  0  0  0  0  0  0  0  0  0
  140.9330   71.0010  225.7590 C   0  0  0  0  0  0  0  0  0  0  0  0
  140.4720   69.7090  225.8240 C   0  0  0  0  0  0  0  0  0  0  0  0
  139.6090   69.2980  224.8330 C   0  0  0  0  0  0  0  0  0  0  0  0
  139.1500   67.9830  224.9140 O   0  0  0  0  0  0  0  0  0  0  0  0
  139.2220   70.1400  223.8150 C   0  0  0  0  0  0  0  0  0  0  0  0
  143.5263   71.3022  220.4047 H   0  0  0  0  0  0  0  0  0  0  0  0
  145.3016   75.0065  219.1426 H   0  0  0  0  0  0  0  0  0  0  0  0
  143.3509   76.2718  220.0634 H   0  0  0  0  0  0  0  0  0  0  0  0
  138.4427   74.7708  223.0175 H   0  0  0  0  0  0  0  0  0  0  0  0
  138.3843   76.6732  221.0867 H   0  0  0  0  0  0  0  0  0  0  0  0
  137.9212   78.7276  223.0165 H   0  0  0  0  0  0  0  0  0  0  0  0
  139.1200   80.5874  224.0791 H   0  0  0  0  0  0  0  0  0  0  0  0
  141.5960   80.5774  224.2888 H   0  0  0  0  0  0  0  0  0  0  0  0
  142.8546   78.6046  223.3831 H   0  0  0  0  0  0  0  0  0  0  0  0
  141.6464   76.7661  222.3274 H   0  0  0  0  0  0  0  0  0  0  0  0
  138.4973   73.0410  223.0149 H   0  0  0  0  0  0  0  0  0  0  0  0
  138.8024   71.6503  221.8559 H   0  0  0  0  0  0  0  0  0  0  0  0
  140.9328   72.8844  224.7098 H   0  0  0  0  0  0  0  0  0  0  0  0
  141.6228   71.3688  226.5329 H   0  0  0  0  0  0  0  0  0  0  0  0
  140.7793   69.0309  226.6338 H   0  0  0  0  0  0  0  0  0  0  0  0
  139.6260   67.2900  224.3870 H   0  0  0  0  0  0  0  0  0  0  0  0
  138.5309   69.7638  223.0463 H   0  0  0  0  0  0  0  0  0  0  0  0
  1  2  2  0
  2  3  1  0
  3  4  2  0
  4  5  1  0
  5  6  1  0
  5  7  2  0
  7  8  1  0
  8  9  2  0
  9 10  1  0
 10 11  2  0
 11 12  1  0
 12 13  2  0
 13 14  1  0
 14 15  2  0
 15 16  1  0
 16 17  2  0
 17 18  1  0
 18 19  2  0
 11 20  1  0
 20 21  1  0
 21 22  1  0
 22 23  2  0
 23 24  1  0
 24 25  2  0
 25 26  1  0
 26 27  1  0
 26 28  2  0
 20  2  1  0
 28 22  1  0
  9  3  1  0
 19 14  1  0
  4 29  1  0
  7 30  1  0
  8 31  1  0
 12 32  1  0
 13 33  1  0
 15 34  1  0
 16 35  1  0
 17 36  1  0
 18 37  1  0
 19 38  1  0
 21 39  1  0
 21 40  1  0
 23 41  1  0
 24 42  1  0
 25 43  1  0
 27 44  1  0
 28 45  1  0
M  END
>  <smiles>  (7) 
O=c1c2cc(F)ccc2nc(/C=C/c2ccccc2)n1Cc1cccc(O)c1

>  <score_type>  (7) 
oracle

>  <origin>  (7) 
autodockgpu

>  <m_score__min__energy>  (7) 
-8.6300000000000008

>  <m_primary>  (7) 
energy

>  <rmsd>  (7) 
8.890871555822455

>  <m_score__min__rmsd>  (7) 
8.890871555822455

>  <meeko>  (7) 
{"free_energy": -7.3, "intermolecular_energy": -9.09, "internal_energy": -1.1, "cluster_size": 7, "cluster_id": 2, "rank_in_cluster": 1}

>  <energy>  (7) 
-7.67

>  <cluster_rmsd>  (7) 
1.39

>  <cluster>  (7) 
1

$$$$

     RDKit          3D

 45 48  0  0  0  0  0  0  0  0999 V2000
  141.6270   81.2180  221.3200 O   0  0  0  0  0  0  0  0  0  0  0  0
  141.8180   80.4420  220.3660 C   0  0  0  0  0  0  0  0  0  0  0  0
  141.8970   81.0400  219.1020 C   0  0  0  0  0  0  0  0  0  0  0  0
  141.7650   82.4100  218.9660 C   0  0  0  0  0  0  0  0  0  0  0  0
  141.8420   83.0050  217.7130 C   0  0  0  0  0  0  0  0  0  0  0  0
  141.7070   84.3590  217.6170 F   0  0  0  0  0  0  0  0  0  0  0  0
  142.0560   82.2120  216.5990 C   0  0  0  0  0  0  0  0  0  0  0  0
  142.1910   80.8300  216.7130 C   0  0  0  0  0  0  0  0  0  0  0  0
  142.1080   80.2780  217.9720 C   0  0  0  0  0  0  0  0  0  0  0  0
  142.2320   78.9510  218.1590 N   0  0  0  0  0  0  0  0  0  0  0  0
  142.1540   78.3820  219.3870 C   0  0  0  0  0  0  0  0  0  0  0  0
  142.3300   76.9340  219.4330 C   0  0  0  0  0  0  0  0  0  0  0  0
  143.5050   76.4070  219.7090 C   0  0  0  0  0  0  0  0  0  0  0  0
  143.7170   75.0250  220.1010 C   0  0  0  0  0  0  0  0  0  0  0  0
  144.9420   74.5050  220.4570 C   0  0  0  0  0  0  0  0  0  0  0  0
  145.0810   73.1790  220.8220 C   0  0  0  0  0  0  0  0  0  0  0  0
  144.0080   72.3130  220.8470 C   0  0  0  0  0  0  0  0  0  0  0  0
  142.7680   72.8230  220.4910 C   0  0  0  0  0  0  0  0  0  0  0  0
  142.6480   74.1390  220.1320 C   0  0  0  0  0  0  0  0  0  0  0  0
  141.9480   79.0940  220.5090 N   0  0  0  0  0  0  0  0  0  0  0  0
  141.8320   78.5080  221.8240 C   0  0  0  0  0  0  0  0  0  0  0  0
  140.6010   77.7220  222.0400 C   0  0  0  0  0  0  0  0  0  0  0  0
  139.3450   78.2570  222.1930 C   0  0  0  0  0  0  0  0  0  0  0  0
  138.2090   77.4650  222.3910 C   0  0  0  0  0  0  0  0  0  0  0  0
  138.3010   76.0950  222.4420 C   0  0  0  0  0  0  0  0  0  0  0  0
  139.5530   75.5420  222.2890 C   0  0  0  0  0  0  0  0  0  0  0  0
  139.6290   74.1500  222.3430 O   0  0  0  0  0  0  0  0  0  0  0  0
  140.6700   76.3230  222.0940 C   0  0  0  0  0  0  0  0  0  0  0  0
  141.5978   83.0333  219.8568 H   0  0  0  0  0  0  0  0  0  0  0  0
  142.1206   82.6811  215.6062 H   0  0  0  0  0  0  0  0  0  0  0  0
  142.3584   80.2005  215.8266 H   0  0  0  0  0  0  0  0  0  0  0  0
  141.4716   76.2753  219.2349 H   0  0  0  0  0  0  0  0  0  0  0  0
  144.3877   77.0595  219.6376 H   0  0  0  0  0  0  0  0  0  0  0  0
  145.8272   75.1580  220.4507 H   0  0  0  0  0  0  0  0  0  0  0  0
  146.0767   72.8035  221.1007 H   0  0  0  0  0  0  0  0  0  0  0  0
  144.1306   71.2592  221.1378 H   0  0  0  0  0  0  0  0  0  0  0  0
  141.8821   72.1710  220.4971 H   0  0  0  0  0  0  0  0  0  0  0  0
  141.6522   74.5142  219.8534 H   0  0  0  0  0  0  0  0  0  0  0  0
  142.6950   77.8442  221.9812 H   0  0  0  0  0  0  0  0  0  0  0  0
  141.7964   79.3453  222.5365 H   0  0  0  0  0  0  0  0  0  0  0  0
  139.2280   79.3502  222.1585 H   0  0  0  0  0  0  0  0  0  0  0  0
  137.2269   77.9465  222.5077 H   0  0  0  0  0  0  0  0  0  0  0  0
  137.4120   75.4663  222.5985 H   0  0  0  0  0  0  0  0  0  0  0  0
  139.0600   73.6780  223.0050 H   0  0  0  0  0  0  0  0  0  0  0  0
  141.6480   75.8334  221.9768 H   0  0  0  0  0  0  0  0  0  0  0  0
  1  2  2  0
  2  3  1  0
  3  4  2  0
  4  5  1  0
  5  6  1  0
  5  7  2  0
  7  8  1  0
  8  9  2  0
  9 10  1  0
 10 11  2  0
 11 12  1  0
 12 13  2  0
 13 14  1  0
 14 15  2  0
 15 16  1  0
 16 17  2  0
 17 18  1  0
 18 19  2  0
 11 20  1  0
 20 21  1  0
 21 22  1  0
 22 23  2  0
 23 24  1  0
 24 25  2  0
 25 26  1  0
 26 27  1  0
 26 28  2  0
 20  2  1  0
 28 22  1  0
  9  3  1  0
 19 14  1  0
  4 29  1  0
  7 30  1  0
  8 31  1  0
 12 32  1  0
 13 33  1  0
 15 34  1  0
 16 35  1  0
 17 36  1  0
 18 37  1  0
 19 38  1  0
 21 39  1  0
 21 40  1  0
 23 41  1  0
 24 42  1  0
 25 43  1  0
 27 44  1  0
 28 45  1  0
M  END
>  <smiles>  (8) 
O=c1c2cc(F)ccc2nc(/C=C/c2ccccc2)n1Cc1cccc(O)c1

>  <score_type>  (8) 
oracle

>  <origin>  (8) 
autodockgpu

>  <m_score__min__energy>  (8) 
-8.6300000000000008

>  <m_primary>  (8) 
energy

>  <rmsd>  (8) 
5.131320925187231

>  <m_score__min__rmsd>  (8) 
5.131320925187231

>  <meeko>  (8) 
{"free_energy": -6.96, "intermolecular_energy": -8.75, "internal_energy": -1.27, "cluster_size": 3, "cluster_id": 3, "rank_in_cluster": 3}

>  <energy>  (8) 
-7.65

>  <cluster_rmsd>  (8) 
1.12

>  <cluster>  (8) 
1

$$$$

     RDKit          3D

 45 48  0  0  0  0  0  0  0  0999 V2000
  140.1620   71.8960  224.9970 O   0  0  0  0  0  0  0  0  0  0  0  0
  139.6610   70.7580  224.9450 C   0  0  0  0  0  0  0  0  0  0  0  0
  139.9820   69.9040  226.0090 C   0  0  0  0  0  0  0  0  0  0  0  0
  140.8090   70.3370  227.0300 C   0  0  0  0  0  0  0  0  0  0  0  0
  141.1290   69.4910  228.0830 C   0  0  0  0  0  0  0  0  0  0  0  0
  141.9470   69.9510  229.0730 F   0  0  0  0  0  0  0  0  0  0  0  0
  140.6100   68.2080  228.1030 C   0  0  0  0  0  0  0  0  0  0  0  0
  139.7760   67.7520  227.0860 C   0  0  0  0  0  0  0  0  0  0  0  0
  139.4820   68.6190  226.0580 C   0  0  0  0  0  0  0  0  0  0  0  0
  138.6820   68.2500  225.0410 N   0  0  0  0  0  0  0  0  0  0  0  0
  138.3770   69.0840  224.0170 C   0  0  0  0  0  0  0  0  0  0  0  0
  137.4780   68.5470  223.0000 C   0  0  0  0  0  0  0  0  0  0  0  0
  136.2140   68.9150  222.9570 C   0  0  0  0  0  0  0  0  0  0  0  0
  135.5370   69.6580  224.0050 C   0  0  0  0  0  0  0  0  0  0  0  0
  135.3930   71.0280  224.0050 C   0  0  0  0  0  0  0  0  0  0  0  0
  134.7370   71.6820  225.0320 C   0  0  0  0  0  0  0  0  0  0  0  0
  134.1980   71.0000  226.1020 C   0  0  0  0  0  0  0  0  0  0  0  0
  134.3350   69.6190  226.1150 C   0  0  0  0  0  0  0  0  0  0  0  0
  134.9880   68.9890  225.0900 C   0  0  0  0  0  0  0  0  0  0  0  0
  138.8470   70.3410  223.9370 N   0  0  0  0  0  0  0  0  0  0  0  0
  138.5610   71.2390  222.8420 C   0  0  0  0  0  0  0  0  0  0  0  0
  139.7520   71.8500  222.2200 C   0  0  0  0  0  0  0  0  0  0  0  0
  140.7020   71.1640  221.5030 C   0  0  0  0  0  0  0  0  0  0  0  0
  141.8110   71.7950  220.9290 C   0  0  0  0  0  0  0  0  0  0  0  0
  142.0020   73.1490  221.0600 C   0  0  0  0  0  0  0  0  0  0  0  0
  141.0580   73.8520  221.7750 C   0  0  0  0  0  0  0  0  0  0  0  0
  141.2670   75.2260  221.8980 O   0  0  0  0  0  0  0  0  0  0  0  0
  139.9670   73.2310  222.3390 C   0  0  0  0  0  0  0  0  0  0  0  0
  141.2158   71.3588  227.0072 H   0  0  0  0  0  0  0  0  0  0  0  0
  140.8611   67.5367  228.9375 H   0  0  0  0  0  0  0  0  0  0  0  0
  139.3652   66.7317  227.1033 H   0  0  0  0  0  0  0  0  0  0  0  0
  137.8603   67.8271  222.2614 H   0  0  0  0  0  0  0  0  0  0  0  0
  135.6309   68.6405  222.0656 H   0  0  0  0  0  0  0  0  0  0  0  0
  135.8081   71.6136  223.1715 H   0  0  0  0  0  0  0  0  0  0  0  0
  134.6426   72.7773  224.9940 H   0  0  0  0  0  0  0  0  0  0  0  0
  133.6792   71.5301  226.9143 H   0  0  0  0  0  0  0  0  0  0  0  0
  133.9197   69.0318  226.9473 H   0  0  0  0  0  0  0  0  0  0  0  0
  135.0827   67.8938  225.1284 H   0  0  0  0  0  0  0  0  0  0  0  0
  138.0212   70.6744  222.0675 H   0  0  0  0  0  0  0  0  0  0  0  0
  137.9711   72.0662  223.2637 H   0  0  0  0  0  0  0  0  0  0  0  0
  140.5864   70.0776  221.3753 H   0  0  0  0  0  0  0  0  0  0  0  0
  142.5415   71.1974  220.3639 H   0  0  0  0  0  0  0  0  0  0  0  0
  142.8726   73.6508  220.6125 H   0  0  0  0  0  0  0  0  0  0  0  0
  142.2010   75.5490  221.9890 H   0  0  0  0  0  0  0  0  0  0  0  0
  139.2407   73.8367  222.9008 H   0  0  0  0  0  0  0  0  0  0  0  0
  1  2  2  0
  2  3  1  0
  3  4  2  0
  4  5  1  0
  5  6  1  0
  5  7  2  0
  7  8  1  0
  8  9  2  0
  9 10  1  0
 10 11  2  0
 11 12  1  0
 12 13  2  0
 13 14  1  0
 14 15  2  0
 15 16  1  0
 16 17  2  0
 17 18  1  0
 18 19  2  0
 11 20  1  0
 20 21  1  0
 21 22  1  0
 22 23  2  0
 23 24  1  0
 24 25  2  0
 25 26  1  0
 26 27  1  0
 26 28  2  0
 20  2  1  0
 28 22  1  0
  9  3  1  0
 19 14  1  0
  4 29  1  0
  7 30  1  0
  8 31  1  0
 12 32  1  0
 13 33  1  0
 15 34  1  0
 16 35  1  0
 17 36  1  0
 18 37  1  0
 19 38  1  0
 21 39  1  0
 21 40  1  0
 23 41  1  0
 24 42  1  0
 25 43  1  0
 27 44  1  0
 28 45  1  0
M  END
>  <smiles>  (9) 
O=c1c2cc(F)ccc2nc(/C=C/c2ccccc2)n1Cc1cccc(O)c1

>  <score_type>  (9) 
oracle

>  <origin>  (9) 
autodockgpu

>  <m_score__min__energy>  (9) 
-8.6300000000000008

>  <m_primary>  (9) 
energy

>  <rmsd>  (9) 
10.182878061597407

>  <m_score__min__rmsd>  (9) 
10.182878061597407

>  <meeko>  (9) 
{"free_energy": -6.95, "intermolecular_energy": -8.74, "internal_energy": -1.46, "cluster_size": 8, "cluster_id": 7, "rank_in_cluster": 1}

>  <energy>  (9) 
-7.63

>  <cluster_rmsd>  (9) 
0.83

>  <cluster>  (9) 
1

$$$$

     RDKit          3D

 45 48  0  0  0  0  0  0  0  0999 V2000
  142.0530   74.7990  219.2490 O   0  0  0  0  0  0  0  0  0  0  0  0
  141.4010   74.4240  220.2410 C   0  0  0  0  0  0  0  0  0  0  0  0
  140.5610   75.3880  220.8150 C   0  0  0  0  0  0  0  0  0  0  0  0
  140.4910   76.6620  220.2830 C   0  0  0  0  0  0  0  0  0  0  0  0
  139.6600   77.6180  220.8520 C   0  0  0  0  0  0  0  0  0  0  0  0
  139.6170   78.8650  220.3010 F   0  0  0  0  0  0  0  0  0  0  0  0
  138.8980   77.2820  221.9580 C   0  0  0  0  0  0  0  0  0  0  0  0
  138.9540   76.0050  222.5090 C   0  0  0  0  0  0  0  0  0  0  0  0
  139.7900   75.0840  221.9180 C   0  0  0  0  0  0  0  0  0  0  0  0
  139.8940   73.8300  222.3940 N   0  0  0  0  0  0  0  0  0  0  0  0
  140.7090   72.9050  221.8310 C   0  0  0  0  0  0  0  0  0  0  0  0
  140.6970   71.5820  222.4470 C   0  0  0  0  0  0  0  0  0  0  0  0
  139.7980   71.2720  223.3580 C   0  0  0  0  0  0  0  0  0  0  0  0
  140.1060   70.9400  224.7380 C   0  0  0  0  0  0  0  0  0  0  0  0
  139.8260   69.7210  225.3160 C   0  0  0  0  0  0  0  0  0  0  0  0
  140.1430   69.4630  226.6370 C   0  0  0  0  0  0  0  0  0  0  0  0
  140.7520   70.4070  227.4380 C   0  0  0  0  0  0  0  0  0  0  0  0
  141.0400   71.6380  226.8690 C   0  0  0  0  0  0  0  0  0  0  0  0
  140.7180   71.8770  225.5600 C   0  0  0  0  0  0  0  0  0  0  0  0
  141.4750   73.1660  220.7570 N   0  0  0  0  0  0  0  0  0  0  0  0
  142.3740   72.2080  220.1570 C   0  0  0  0  0  0  0  0  0  0  0  0
  143.7870   72.6330  220.1130 C   0  0  0  0  0  0  0  0  0  0  0  0
  144.5750   72.8510  221.2170 C   0  0  0  0  0  0  0  0  0  0  0  0
  145.9130   73.2480  221.1180 C   0  0  0  0  0  0  0  0  0  0  0  0
  146.5060   73.4420  219.8940 C   0  0  0  0  0  0  0  0  0  0  0  0
  145.7290   73.2270  218.7780 C   0  0  0  0  0  0  0  0  0  0  0  0
  146.3470   73.4280  217.5420 O   0  0  0  0  0  0  0  0  0  0  0  0
  144.4130   72.8350  218.8750 C   0  0  0  0  0  0  0  0  0  0  0  0
  141.0979   76.9203  219.4027 H   0  0  0  0  0  0  0  0  0  0  0  0
  138.2371   78.0370  222.4089 H   0  0  0  0  0  0  0  0  0  0  0  0
  138.3495   75.7398  223.3889 H   0  0  0  0  0  0  0  0  0  0  0  0
  141.4472   70.8355  222.1470 H   0  0  0  0  0  0  0  0  0  0  0  0
  138.7412   71.2640  223.0528 H   0  0  0  0  0  0  0  0  0  0  0  0
  139.3409   68.9378  224.7149 H   0  0  0  0  0  0  0  0  0  0  0  0
  139.9028   68.4770  227.0613 H   0  0  0  0  0  0  0  0  0  0  0  0
  140.9995   70.1912  228.4878 H   0  0  0  0  0  0  0  0  0  0  0  0
  141.5265   72.4216  227.4684 H   0  0  0  0  0  0  0  0  0  0  0  0
  140.9568   72.8639  225.1369 H   0  0  0  0  0  0  0  0  0  0  0  0
  142.3148   71.2738  220.7347 H   0  0  0  0  0  0  0  0  0  0  0  0
  142.0516   72.0910  219.1118 H   0  0  0  0  0  0  0  0  0  0  0  0
  144.1377   72.7081  222.2162 H   0  0  0  0  0  0  0  0  0  0  0  0
  146.4995   73.4073  222.0349 H   0  0  0  0  0  0  0  0  0  0  0  0
  147.5569   73.7558  219.8093 H   0  0  0  0  0  0  0  0  0  0  0  0
  146.3560   74.3480  217.1710 H   0  0  0  0  0  0  0  0  0  0  0  0
  143.8349   72.6754  217.9529 H   0  0  0  0  0  0  0  0  0  0  0  0
  1  2  2  0
  2  3  1  0
  3  4  2  0
  4  5  1  0
  5  6  1  0
  5  7  2  0
  7  8  1  0
  8  9  2  0
  9 10  1  0
 10 11  2  0
 11 12  1  0
 12 13  2  0
 13 14  1  0
 14 15  2  0
 15 16  1  0
 16 17  2  0
 17 18  1  0
 18 19  2  0
 11 20  1  0
 20 21  1  0
 21 22  1  0
 22 23  2  0
 23 24  1  0
 24 25  2  0
 25 26  1  0
 26 27  1  0
 26 28  2  0
 20  2  1  0
 28 22  1  0
  9  3  1  0
 19 14  1  0
  4 29  1  0
  7 30  1  0
  8 31  1  0
 12 32  1  0
 13 33  1  0
 15 34  1  0
 16 35  1  0
 17 36  1  0
 18 37  1  0
 19 38  1  0
 21 39  1  0
 21 40  1  0
 23 41  1  0
 24 42  1  0
 25 43  1  0
 27 44  1  0
 28 45  1  0
M  END
>  <smiles>  (10) 
O=c1c2cc(F)ccc2nc(/C=C/c2ccccc2)n1Cc1cccc(O)c1

>  <score_type>  (10) 
oracle

>  <origin>  (10) 
autodockgpu

>  <m_score__min__energy>  (10) 
-8.6300000000000008

>  <m_primary>  (10) 
energy

>  <rmsd>  (10) 
8.043687190599947

>  <m_score__min__rmsd>  (10) 
8.043687190599947

>  <meeko>  (10) 
{"free_energy": -8.05, "intermolecular_energy": -9.84, "internal_energy": -1.03, "cluster_size": 13, "cluster_id": 1, "rank_in_cluster": 4}

>  <energy>  (10) 
-7.61

>  <cluster_rmsd>  (10) 
1.57

>  <cluster>  (10) 
1

$$$$

     RDKit          3D

 45 48  0  0  0  0  0  0  0  0999 V2000
  142.6910   75.3580  219.9850 O   0  0  0  0  0  0  0  0  0  0  0  0
  141.6920   74.9840  220.6250 C   0  0  0  0  0  0  0  0  0  0  0  0
  140.9900   75.9930  221.2990 C   0  0  0  0  0  0  0  0  0  0  0  0
  141.4150   77.3070  221.2310 C   0  0  0  0  0  0  0  0  0  0  0  0
  140.7210   78.3080  221.8990 C   0  0  0  0  0  0  0  0  0  0  0  0
  141.1700   79.5930  221.8090 F   0  0  0  0  0  0  0  0  0  0  0  0
  139.5960   77.9770  222.6330 C   0  0  0  0  0  0  0  0  0  0  0  0
  139.1500   76.6600  222.7150 C   0  0  0  0  0  0  0  0  0  0  0  0
  139.8650   75.6960  222.0400 C   0  0  0  0  0  0  0  0  0  0  0  0
  139.4930   74.4040  222.0710 N   0  0  0  0  0  0  0  0  0  0  0  0
  140.1780   73.4350  221.4160 C   0  0  0  0  0  0  0  0  0  0  0  0
  139.6390   72.0830  221.5260 C   0  0  0  0  0  0  0  0  0  0  0  0
  140.2870   71.1540  222.1980 C   0  0  0  0  0  0  0  0  0  0  0  0
  140.1570   70.9300  223.6270 C   0  0  0  0  0  0  0  0  0  0  0  0
  139.5210   69.8410  224.1800 C   0  0  0  0  0  0  0  0  0  0  0  0
  139.4290   69.6820  225.5510 C   0  0  0  0  0  0  0  0  0  0  0  0
  139.9650   70.6000  226.4290 C   0  0  0  0  0  0  0  0  0  0  0  0
  140.6100   71.7020  225.8860 C   0  0  0  0  0  0  0  0  0  0  0  0
  140.6910   71.8440  224.5260 C   0  0  0  0  0  0  0  0  0  0  0  0
  141.2790   73.6880  220.6860 N   0  0  0  0  0  0  0  0  0  0  0  0
  142.0440   72.6700  220.0030 C   0  0  0  0  0  0  0  0  0  0  0  0
  143.5070   72.8560  220.0650 C   0  0  0  0  0  0  0  0  0  0  0  0
  144.2490   72.8680  221.2210 C   0  0  0  0  0  0  0  0  0  0  0  0
  145.6370   73.0420  221.2210 C   0  0  0  0  0  0  0  0  0  0  0  0
  146.3300   73.2120  220.0470 C   0  0  0  0  0  0  0  0  0  0  0  0
  145.6020   73.2000  218.8790 C   0  0  0  0  0  0  0  0  0  0  0  0
  146.3210   73.3740  217.6960 O   0  0  0  0  0  0  0  0  0  0  0  0
  144.2360   73.0290  218.8790 C   0  0  0  0  0  0  0  0  0  0  0  0
  142.3094   77.5617  220.6435 H   0  0  0  0  0  0  0  0  0  0  0  0
  139.0438   78.7681  223.1614 H   0  0  0  0  0  0  0  0  0  0  0  0
  138.2558   76.3985  223.2999 H   0  0  0  0  0  0  0  0  0  0  0  0
  138.6818   71.8375  221.0427 H   0  0  0  0  0  0  0  0  0  0  0  0
  140.9743   70.5027  221.6382 H   0  0  0  0  0  0  0  0  0  0  0  0
  139.0773   69.0825  223.5183 H   0  0  0  0  0  0  0  0  0  0  0  0
  138.9131   68.7973  225.9525 H   0  0  0  0  0  0  0  0  0  0  0  0
  139.8844   70.4641  227.5176 H   0  0  0  0  0  0  0  0  0  0  0  0
  141.0556   72.4604  226.5466 H   0  0  0  0  0  0  0  0  0  0  0  0
  141.2064   72.7290  224.1246 H   0  0  0  0  0  0  0  0  0  0  0  0
  141.8023   71.6972  220.4561 H   0  0  0  0  0  0  0  0  0  0  0  0
  141.7665   72.7317  218.9404 H   0  0  0  0  0  0  0  0  0  0  0  0
  143.7322   72.7358  222.1830 H   0  0  0  0  0  0  0  0  0  0  0  0
  146.1823   73.0427  222.1763 H   0  0  0  0  0  0  0  0  0  0  0  0
  147.4211   73.3519  220.0407 H   0  0  0  0  0  0  0  0  0  0  0  0
  146.4280   74.2960  217.3470 H   0  0  0  0  0  0  0  0  0  0  0  0
  143.6993   73.0280  217.9188 H   0  0  0  0  0  0  0  0  0  0  0  0
  1  2  2  0
  2  3  1  0
  3  4  2  0
  4  5  1  0
  5  6  1  0
  5  7  2  0
  7  8  1  0
  8  9  2  0
  9 10  1  0
 10 11  2  0
 11 12  1  0
 12 13  2  0
 13 14  1  0
 14 15  2  0
 15 16  1  0
 16 17  2  0
 17 18  1  0
 18 19  2  0
 11 20  1  0
 20 21  1  0
 21 22  1  0
 22 23  2  0
 23 24  1  0
 24 25  2  0
 25 26  1  0
 26 27  1  0
 26 28  2  0
 20  2  1  0
 28 22  1  0
  9  3  1  0
 19 14  1  0
  4 29  1  0
  7 30  1  0
  8 31  1  0
 12 32  1  0
 13 33  1  0
 15 34  1  0
 16 35  1  0
 17 36  1  0
 18 37  1  0
 19 38  1  0
 21 39  1  0
 21 40  1  0
 23 41  1  0
 24 42  1  0
 25 43  1  0
 27 44  1  0
 28 45  1  0
M  END
>  <smiles>  (11) 
O=c1c2cc(F)ccc2nc(/C=C/c2ccccc2)n1Cc1cccc(O)c1

>  <score_type>  (11) 
oracle

>  <origin>  (11) 
autodockgpu

>  <m_score__min__energy>  (11) 
-8.6300000000000008

>  <m_primary>  (11) 
energy

>  <rmsd>  (11) 
7.977940294241766

>  <m_score__min__rmsd>  (11) 
7.977940294241766

>  <meeko>  (11) 
{"free_energy": -7.63, "intermolecular_energy": -9.42, "internal_energy": -1.02, "cluster_size": 13, "cluster_id": 1, "rank_in_cluster": 9}

>  <energy>  (11) 
-7.47

>  <cluster_rmsd>  (11) 
1.34

>  <cluster>  (11) 
1

$$$$

     RDKit          3D

 45 48  0  0  0  0  0  0  0  0999 V2000
  135.5850   71.4230  222.0630 O   0  0  0  0  0  0  0  0  0  0  0  0
  135.9710   70.7820  223.0570 C   0  0  0  0  0  0  0  0  0  0  0  0
  135.1470   70.8620  224.1880 C   0  0  0  0  0  0  0  0  0  0  0  0
  133.9890   71.6180  224.1590 C   0  0  0  0  0  0  0  0  0  0  0  0
  133.1730   71.6990  225.2800 C   0  0  0  0  0  0  0  0  0  0  0  0
  132.0390   72.4540  225.2150 F   0  0  0  0  0  0  0  0  0  0  0  0
  133.5290   71.0140  226.4280 C   0  0  0  0  0  0  0  0  0  0  0  0
  134.6910   70.2470  226.4790 C   0  0  0  0  0  0  0  0  0  0  0  0
  135.4750   70.1910  225.3480 C   0  0  0  0  0  0  0  0  0  0  0  0
  136.6090   69.4700  225.3220 N   0  0  0  0  0  0  0  0  0  0  0  0
  137.3990   69.3980  224.2230 C   0  0  0  0  0  0  0  0  0  0  0  0
  138.5860   68.5570  224.3400 C   0  0  0  0  0  0  0  0  0  0  0  0
  139.2860   68.5340  225.4550 C   0  0  0  0  0  0  0  0  0  0  0  0
  139.9030   69.7000  226.0640 C   0  0  0  0  0  0  0  0  0  0  0  0
  140.5080   70.7110  225.3510 C   0  0  0  0  0  0  0  0  0  0  0  0
  141.0780   71.7970  225.9880 C   0  0  0  0  0  0  0  0  0  0  0  0
  141.0720   71.9230  227.3610 C   0  0  0  0  0  0  0  0  0  0  0  0
  140.4660   70.9130  228.0920 C   0  0  0  0  0  0  0  0  0  0  0  0
  139.9060   69.8440  227.4460 C   0  0  0  0  0  0  0  0  0  0  0  0
  137.1120   70.0390  223.0760 N   0  0  0  0  0  0  0  0  0  0  0  0
  137.9510   70.0030  221.9010 C   0  0  0  0  0  0  0  0  0  0  0  0
  139.0250   71.0160  221.8810 C   0  0  0  0  0  0  0  0  0  0  0  0
  140.3510   70.7500  221.6420 C   0  0  0  0  0  0  0  0  0  0  0  0
  141.3280   71.7500  221.6290 C   0  0  0  0  0  0  0  0  0  0  0  0
  141.0000   73.0650  221.8590 C   0  0  0  0  0  0  0  0  0  0  0  0
  139.6750   73.3490  222.0980 C   0  0  0  0  0  0  0  0  0  0  0  0
  139.3580   74.6880  222.3290 O   0  0  0  0  0  0  0  0  0  0  0  0
  138.7130   72.3640  222.1110 C   0  0  0  0  0  0  0  0  0  0  0  0
  133.7125   72.1587  223.2419 H   0  0  0  0  0  0  0  0  0  0  0  0
  132.8832   71.0760  227.3163 H   0  0  0  0  0  0  0  0  0  0  0  0
  134.9731   69.7038  227.3929 H   0  0  0  0  0  0  0  0  0  0  0  0
  138.8991   67.9359  223.4878 H   0  0  0  0  0  0  0  0  0  0  0  0
  139.4124   67.5651  225.9603 H   0  0  0  0  0  0  0  0  0  0  0  0
  140.5382   70.6530  224.2529 H   0  0  0  0  0  0  0  0  0  0  0  0
  141.5504   72.5840  225.3818 H   0  0  0  0  0  0  0  0  0  0  0  0
  141.5303   72.7913  227.8571 H   0  0  0  0  0  0  0  0  0  0  0  0
  140.4352   70.9706  229.1901 H   0  0  0  0  0  0  0  0  0  0  0  0
  139.4335   69.0576  228.0529 H   0  0  0  0  0  0  0  0  0  0  0  0
  138.4167   69.0082  221.8423 H   0  0  0  0  0  0  0  0  0  0  0  0
  137.2974   70.2248  221.0445 H   0  0  0  0  0  0  0  0  0  0  0  0
  140.6561   69.7101  221.4535 H   0  0  0  0  0  0  0  0  0  0  0  0
  142.3760   71.4802  221.4316 H   0  0  0  0  0  0  0  0  0  0  0  0
  141.7640   73.8563  221.8523 H   0  0  0  0  0  0  0  0  0  0  0  0
  138.8210   74.9080  223.1340 H   0  0  0  0  0  0  0  0  0  0  0  0
  137.6673   72.6429  222.3079 H   0  0  0  0  0  0  0  0  0  0  0  0
  1  2  2  0
  2  3  1  0
  3  4  2  0
  4  5  1  0
  5  6  1  0
  5  7  2  0
  7  8  1  0
  8  9  2  0
  9 10  1  0
 10 11  2  0
 11 12  1  0
 12 13  2  0
 13 14  1  0
 14 15  2  0
 15 16  1  0
 16 17  2  0
 17 18  1  0
 18 19  2  0
 11 20  1  0
 20 21  1  0
 21 22  1  0
 22 23  2  0
 23 24  1  0
 24 25  2  0
 25 26  1  0
 26 27  1  0
 26 28  2  0
 20  2  1  0
 28 22  1  0
  9  3  1  0
 19 14  1  0
  4 29  1  0
  7 30  1  0
  8 31  1  0
 12 32  1  0
 13 33  1  0
 15 34  1  0
 16 35  1  0
 17 36  1  0
 18 37  1  0
 19 38  1  0
 21 39  1  0
 21 40  1  0
 23 41  1  0
 24 42  1  0
 25 43  1  0
 27 44  1  0
 28 45  1  0
M  END
>  <smiles>  (12) 
O=c1c2cc(F)ccc2nc(/C=C/c2ccccc2)n1Cc1cccc(O)c1

>  <score_type>  (12) 
oracle

>  <origin>  (12) 
autodockgpu

>  <m_score__min__energy>  (12) 
-8.6300000000000008

>  <m_primary>  (12) 
energy

>  <rmsd>  (12) 
10.317454310733769

>  <m_score__min__rmsd>  (12) 
10.317454310733769

>  <meeko>  (12) 
{"free_energy": -6.72, "intermolecular_energy": -8.51, "internal_energy": -1.73, "cluster_size": 6, "cluster_id": 5, "rank_in_cluster": 2}

>  <energy>  (12) 
-7.4

>  <cluster_rmsd>  (12) 
1.68

>  <cluster>  (12) 
1

$$$$

     RDKit          3D

 45 48  0  0  0  0  0  0  0  0999 V2000
  142.1090   74.1120  218.6260 O   0  0  0  0  0  0  0  0  0  0  0  0
  141.6640   74.0490  219.7870 C   0  0  0  0  0  0  0  0  0  0  0  0
  141.4410   75.2800  220.4180 C   0  0  0  0  0  0  0  0  0  0  0  0
  141.7120   76.4650  219.7590 C   0  0  0  0  0  0  0  0  0  0  0  0
  141.4920   77.6850  220.3850 C   0  0  0  0  0  0  0  0  0  0  0  0
  141.7710   78.8340  219.7040 F   0  0  0  0  0  0  0  0  0  0  0  0
  140.9960   77.7050  221.6770 C   0  0  0  0  0  0  0  0  0  0  0  0
  140.7160   76.5230  222.3590 C   0  0  0  0  0  0  0  0  0  0  0  0
  140.9470   75.3330  221.7060 C   0  0  0  0  0  0  0  0  0  0  0  0
  140.6990   74.1520  222.3000 N   0  0  0  0  0  0  0  0  0  0  0  0
  140.9180   72.9670  221.6800 C   0  0  0  0  0  0  0  0  0  0  0  0
  140.5780   71.7720  222.4460 C   0  0  0  0  0  0  0  0  0  0  0  0
  139.9280   71.8660  223.5880 C   0  0  0  0  0  0  0  0  0  0  0  0
  140.2110   71.0630  224.7640 C   0  0  0  0  0  0  0  0  0  0  0  0
  140.7860   71.5590  225.9140 C   0  0  0  0  0  0  0  0  0  0  0  0
  141.0310   70.7440  227.0030 C   0  0  0  0  0  0  0  0  0  0  0  0
  140.7150   69.4020  226.9960 C   0  0  0  0  0  0  0  0  0  0  0  0
  140.1340   68.8890  225.8460 C   0  0  0  0  0  0  0  0  0  0  0  0
  139.8990   69.7100  224.7750 C   0  0  0  0  0  0  0  0  0  0  0  0
  141.3990   72.8780  220.4270 N   0  0  0  0  0  0  0  0  0  0  0  0
  141.6690   71.6280  219.7560 C   0  0  0  0  0  0  0  0  0  0  0  0
  143.1020   71.3050  219.6090 C   0  0  0  0  0  0  0  0  0  0  0  0
  143.6130   70.0350  219.5010 C   0  0  0  0  0  0  0  0  0  0  0  0
  144.9820   69.7860  219.3580 C   0  0  0  0  0  0  0  0  0  0  0  0
  145.8900   70.8160  219.3190 C   0  0  0  0  0  0  0  0  0  0  0  0
  145.3940   72.0960  219.4250 C   0  0  0  0  0  0  0  0  0  0  0  0
  146.3280   73.1310  219.3840 O   0  0  0  0  0  0  0  0  0  0  0  0
  144.0460   72.3410  219.5660 C   0  0  0  0  0  0  0  0  0  0  0  0
  142.1046   76.4412  218.7317 H   0  0  0  0  0  0  0  0  0  0  0  0
  140.8199   78.6706  222.1737 H   0  0  0  0  0  0  0  0  0  0  0  0
  140.3230   76.5398  223.3862 H   0  0  0  0  0  0  0  0  0  0  0  0
  140.8679   70.7815  222.0654 H   0  0  0  0  0  0  0  0  0  0  0  0
  139.1148   72.6037  223.6552 H   0  0  0  0  0  0  0  0  0  0  0  0
  141.0552   72.6243  225.9662 H   0  0  0  0  0  0  0  0  0  0  0  0
  141.4919   71.1790  227.9021 H   0  0  0  0  0  0  0  0  0  0  0  0
  140.9159   68.7631  227.8686 H   0  0  0  0  0  0  0  0  0  0  0  0
  139.8623   67.8244  225.7940 H   0  0  0  0  0  0  0  0  0  0  0  0
  139.4387   69.2743  223.8759 H   0  0  0  0  0  0  0  0  0  0  0  0
  141.1927   70.8203  220.3311 H   0  0  0  0  0  0  0  0  0  0  0  0
  141.2666   71.7284  218.7372 H   0  0  0  0  0  0  0  0  0  0  0  0
  142.9197   69.1814  219.5280 H   0  0  0  0  0  0  0  0  0  0  0  0
  145.3373   68.7483  219.2754 H   0  0  0  0  0  0  0  0  0  0  0  0
  146.9678   70.6262  219.2078 H   0  0  0  0  0  0  0  0  0  0  0  0
  146.0270   74.0180  219.0570 H   0  0  0  0  0  0  0  0  0  0  0  0
  143.6992   73.3817  219.6474 H   0  0  0  0  0  0  0  0  0  0  0  0
  1  2  2  0
  2  3  1  0
  3  4  2  0
  4  5  1  0
  5  6  1  0
  5  7  2  0
  7  8  1  0
  8  9  2  0
  9 10  1  0
 10 11  2  0
 11 12  1  0
 12 13  2  0
 13 14  1  0
 14 15  2  0
 15 16  1  0
 16 17  2  0
 17 18  1  0
 18 19  2  0
 11 20  1  0
 20 21  1  0
 21 22  1  0
 22 23  2  0
 23 24  1  0
 24 25  2  0
 25 26  1  0
 26 27  1  0
 26 28  2  0
 20  2  1  0
 28 22  1  0
  9  3  1  0
 19 14  1  0
  4 29  1  0
  7 30  1  0
  8 31  1  0
 12 32  1  0
 13 33  1  0
 15 34  1  0
 16 35  1  0
 17 36  1  0
 18 37  1  0
 19 38  1  0
 21 39  1  0
 21 40  1  0
 23 41  1  0
 24 42  1  0
 25 43  1  0
 27 44  1  0
 28 45  1  0
M  END
>  <smiles>  (13) 
O=c1c2cc(F)ccc2nc(/C=C/c2ccccc2)n1Cc1cccc(O)c1

>  <score_type>  (13) 
oracle

>  <origin>  (13) 
autodockgpu

>  <m_score__min__energy>  (13) 
-8.6300000000000008

>  <m_primary>  (13) 
energy

>  <rmsd>  (13) 
9.028385367420327

>  <m_score__min__rmsd>  (13) 
9.028385367420327

>  <meeko>  (13) 
{"free_energy": -7.74, "intermolecular_energy": -9.53, "internal_energy": -0.73, "cluster_size": 13, "cluster_id": 1, "rank_in_cluster": 6}

>  <energy>  (13) 
-7.25

>  <cluster_rmsd>  (13) 
1.8

>  <cluster>  (13) 
1

$$$$

     RDKit          3D

 45 48  0  0  0  0  0  0  0  0999 V2000
  140.1450   71.8860  224.9780 O   0  0  0  0  0  0  0  0  0  0  0  0
  139.6220   70.7570  224.9330 C   0  0  0  0  0  0  0  0  0  0  0  0
  139.9280   69.9030  226.0000 C   0  0  0  0  0  0  0  0  0  0  0  0
  140.7630   70.3250  227.0190 C   0  0  0  0  0  0  0  0  0  0  0  0
  141.0670   69.4790  228.0770 C   0  0  0  0  0  0  0  0  0  0  0  0
  141.8940   69.9300  229.0640 F   0  0  0  0  0  0  0  0  0  0  0  0
  140.5250   68.2060  228.1040 C   0  0  0  0  0  0  0  0  0  0  0  0
  139.6820   67.7600  227.0890 C   0  0  0  0  0  0  0  0  0  0  0  0
  139.4040   68.6280  226.0560 C   0  0  0  0  0  0  0  0  0  0  0  0
  138.5970   68.2670  225.0420 N   0  0  0  0  0  0  0  0  0  0  0  0
  138.3070   69.1020  224.0140 C   0  0  0  0  0  0  0  0  0  0  0  0
  137.3990   68.5760  223.0000 C   0  0  0  0  0  0  0  0  0  0  0  0
  136.1000   68.7730  223.0930 C   0  0  0  0  0  0  0  0  0  0  0  0
  135.4570   69.5410  224.1440 C   0  0  0  0  0  0  0  0  0  0  0  0
  134.9180   68.9850  225.2830 C   0  0  0  0  0  0  0  0  0  0  0  0
  134.3170   69.7690  226.2510 C   0  0  0  0  0  0  0  0  0  0  0  0
  134.2270   71.1390  226.1260 C   0  0  0  0  0  0  0  0  0  0  0  0
  134.7660   71.7140  224.9840 C   0  0  0  0  0  0  0  0  0  0  0  0
  135.3570   70.9220  224.0360 C   0  0  0  0  0  0  0  0  0  0  0  0
  138.8010   70.3500  223.9260 N   0  0  0  0  0  0  0  0  0  0  0  0
  138.5310   71.2460  222.8270 C   0  0  0  0  0  0  0  0  0  0  0  0
  139.7320   71.8580  222.2230 C   0  0  0  0  0  0  0  0  0  0  0  0
  140.6930   71.1720  221.5210 C   0  0  0  0  0  0  0  0  0  0  0  0
  141.8100   71.8030  220.9640 C   0  0  0  0  0  0  0  0  0  0  0  0
  141.9990   73.1570  221.0970 C   0  0  0  0  0  0  0  0  0  0  0  0
  141.0440   73.8600  221.7960 C   0  0  0  0  0  0  0  0  0  0  0  0
  141.2500   75.2340  221.9210 O   0  0  0  0  0  0  0  0  0  0  0  0
  139.9440   73.2390  222.3440 C   0  0  0  0  0  0  0  0  0  0  0  0
  141.1894   71.3386  226.9908 H   0  0  0  0  0  0  0  0  0  0  0  0
  140.7642   67.5346  228.9418 H   0  0  0  0  0  0  0  0  0  0  0  0
  139.2522   66.7477  227.1115 H   0  0  0  0  0  0  0  0  0  0  0  0
  137.8037   68.0089  222.1488 H   0  0  0  0  0  0  0  0  0  0  0  0
  135.4577   68.3245  222.3208 H   0  0  0  0  0  0  0  0  0  0  0  0
  134.9665   67.8954  225.4257 H   0  0  0  0  0  0  0  0  0  0  0  0
  133.8988   69.2856  227.1463 H   0  0  0  0  0  0  0  0  0  0  0  0
  133.7463   71.7528  226.9020 H   0  0  0  0  0  0  0  0  0  0  0  0
  134.7187   72.8036  224.8405 H   0  0  0  0  0  0  0  0  0  0  0  0
  135.7750   71.4056  223.1408 H   0  0  0  0  0  0  0  0  0  0  0  0
  138.0039   70.6802  222.0446 H   0  0  0  0  0  0  0  0  0  0  0  0
  137.9334   72.0727  223.2385 H   0  0  0  0  0  0  0  0  0  0  0  0
  140.5798   70.0855  221.3921 H   0  0  0  0  0  0  0  0  0  0  0  0
  142.5491   71.2053  220.4105 H   0  0  0  0  0  0  0  0  0  0  0  0
  142.8766   73.6585  220.6631 H   0  0  0  0  0  0  0  0  0  0  0  0
  142.1840   75.5600  221.9940 H   0  0  0  0  0  0  0  0  0  0  0  0
  139.2087   73.8449  222.8937 H   0  0  0  0  0  0  0  0  0  0  0  0
  1  2  2  0
  2  3  1  0
  3  4  2  0
  4  5  1  0
  5  6  1  0
  5  7  2  0
  7  8  1  0
  8  9  2  0
  9 10  1  0
 10 11  2  0
 11 12  1  0
 12 13  2  0
 13 14  1  0
 14 15  2  0
 15 16  1  0
 16 17  2  0
 17 18  1  0
 18 19  2  0
 11 20  1  0
 20 21  1  0
 21 22  1  0
 22 23  2  0
 23 24  1  0
 24 25  2  0
 25 26  1  0
 26 27  1  0
 26 28  2  0
 20  2  1  0
 28 22  1  0
  9  3  1  0
 19 14  1  0
  4 29  1  0
  7 30  1  0
  8 31  1  0
 12 32  1  0
 13 33  1  0
 15 34  1  0
 16 35  1  0
 17 36  1  0
 18 37  1  0
 19 38  1  0
 21 39  1  0
 21 40  1  0
 23 41  1  0
 24 42  1  0
 25 43  1  0
 27 44  1  0
 28 45  1  0
M  END
>  <smiles>  (14) 
O=c1c2cc(F)ccc2nc(/C=C/c2ccccc2)n1Cc1cccc(O)c1

>  <score_type>  (14) 
oracle

>  <origin>  (14) 
autodockgpu

>  <m_score__min__energy>  (14) 
-8.6300000000000008

>  <m_primary>  (14) 
energy

>  <rmsd>  (14) 
10.179366300354006

>  <m_score__min__rmsd>  (14) 
10.179366300354006

>  <meeko>  (14) 
{"free_energy": -6.94, "intermolecular_energy": -8.73, "internal_energy": -1.47, "cluster_size": 8, "cluster_id": 7, "rank_in_cluster": 2}

>  <energy>  (14) 
-7.3

>  <cluster_rmsd>  (14) 
0.0

>  <cluster>  (14) 
2

$$$$

     RDKit          3D

 45 48  0  0  0  0  0  0  0  0999 V2000
  135.6080   71.5960  222.0870 O   0  0  0  0  0  0  0  0  0  0  0  0
  135.9670   70.9100  223.0610 C   0  0  0  0  0  0  0  0  0  0  0  0
  135.1570   71.0010  224.2000 C   0  0  0  0  0  0  0  0  0  0  0  0
  134.0390   71.8150  224.2010 C   0  0  0  0  0  0  0  0  0  0  0  0
  133.2350   71.9070  225.3300 C   0  0  0  0  0  0  0  0  0  0  0  0
  132.1400   72.7190  225.2950 F   0  0  0  0  0  0  0  0  0  0  0  0
  133.5640   71.1730  226.4570 C   0  0  0  0  0  0  0  0  0  0  0  0
  134.6850   70.3480  226.4780 C   0  0  0  0  0  0  0  0  0  0  0  0
  135.4580   70.2830  225.3390 C   0  0  0  0  0  0  0  0  0  0  0  0
  136.5540   69.5060  225.2850 N   0  0  0  0  0  0  0  0  0  0  0  0
  137.3320   69.4250  224.1770 C   0  0  0  0  0  0  0  0  0  0  0  0
  138.4750   68.5220  224.2630 C   0  0  0  0  0  0  0  0  0  0  0  0
  139.2250   68.4870  225.3450 C   0  0  0  0  0  0  0  0  0  0  0  0
  139.8590   69.6470  225.9460 C   0  0  0  0  0  0  0  0  0  0  0  0
  140.4790   70.6440  225.2250 C   0  0  0  0  0  0  0  0  0  0  0  0
  141.0660   71.7260  225.8540 C   0  0  0  0  0  0  0  0  0  0  0  0
  141.0630   71.8620  227.2260 C   0  0  0  0  0  0  0  0  0  0  0  0
  140.4420   70.8660  227.9650 C   0  0  0  0  0  0  0  0  0  0  0  0
  139.8650   69.8010  227.3260 C   0  0  0  0  0  0  0  0  0  0  0  0
  137.0690   70.1110  223.0510 N   0  0  0  0  0  0  0  0  0  0  0  0
  137.8980   70.0640  221.8690 C   0  0  0  0  0  0  0  0  0  0  0  0
  139.0100   71.0340  221.8580 C   0  0  0  0  0  0  0  0  0  0  0  0
  140.3240   70.7200  221.6090 C   0  0  0  0  0  0  0  0  0  0  0  0
  141.3400   71.6820  221.6060 C   0  0  0  0  0  0  0  0  0  0  0  0
  141.0640   73.0040  221.8570 C   0  0  0  0  0  0  0  0  0  0  0  0
  139.7520   73.3370  222.1070 C   0  0  0  0  0  0  0  0  0  0  0  0
  139.4890   74.6840  222.3590 O   0  0  0  0  0  0  0  0  0  0  0  0
  138.7530   72.3900  222.1090 C   0  0  0  0  0  0  0  0  0  0  0  0
  133.7845   72.3940  223.3010 H   0  0  0  0  0  0  0  0  0  0  0  0
  132.9281   71.2431  227.3518 H   0  0  0  0  0  0  0  0  0  0  0  0
  134.9454   69.7667  227.3748 H   0  0  0  0  0  0  0  0  0  0  0  0
  138.7128   67.8633  223.4148 H   0  0  0  0  0  0  0  0  0  0  0  0
  139.3822   67.5109  225.8272 H   0  0  0  0  0  0  0  0  0  0  0  0
  140.5075   70.5777  224.1274 H   0  0  0  0  0  0  0  0  0  0  0  0
  141.5498   72.5014  225.2418 H   0  0  0  0  0  0  0  0  0  0  0  0
  141.5348   72.7268  227.7155 H   0  0  0  0  0  0  0  0  0  0  0  0
  140.4130   70.9314  229.0627 H   0  0  0  0  0  0  0  0  0  0  0  0
  139.3805   69.0263  227.9385 H   0  0  0  0  0  0  0  0  0  0  0  0
  138.3241   69.0530  221.7891 H   0  0  0  0  0  0  0  0  0  0  0  0
  137.2473   70.3270  221.0220 H   0  0  0  0  0  0  0  0  0  0  0  0
  140.5876   69.6719  221.4041 H   0  0  0  0  0  0  0  0  0  0  0  0
  142.3759   71.3749  221.3994 H   0  0  0  0  0  0  0  0  0  0  0  0
  141.8584   73.7649  221.8582 H   0  0  0  0  0  0  0  0  0  0  0  0
  138.8740   74.9060  223.1060 H   0  0  0  0  0  0  0  0  0  0  0  0
  137.7198   72.7068  222.3140 H   0  0  0  0  0  0  0  0  0  0  0  0
  1  2  2  0
  2  3  1  0
  3  4  2  0
  4  5  1  0
  5  6  1  0
  5  7  2  0
  7  8  1  0
  8  9  2  0
  9 10  1  0
 10 11  2  0
 11 12  1  0
 12 13  2  0
 13 14  1  0
 14 15  2  0
 15 16  1  0
 16 17  2  0
 17 18  1  0
 18 19  2  0
 11 20  1  0
 20 21  1  0
 21 22  1  0
 22 23  2  0
 23 24  1  0
 24 25  2  0
 25 26  1  0
 26 27  1  0
 26 28  2  0
 20  2  1  0
 28 22  1  0
  9  3  1  0
 19 14  1  0
  4 29  1  0
  7 30  1  0
  8 31  1  0
 12 32  1  0
 13 33  1  0
 15 34  1  0
 16 35  1  0
 17 36  1  0
 18 37  1  0
 19 38  1  0
 21 39  1  0
 21 40  1  0
 23 41  1  0
 24 42  1  0
 25 43  1  0
 27 44  1  0
 28 45  1  0
M  END
>  <smiles>  (15) 
O=c1c2cc(F)ccc2nc(/C=C/c2ccccc2)n1Cc1cccc(O)c1

>  <score_type>  (15) 
oracle

>  <origin>  (15) 
autodockgpu

>  <m_score__min__energy>  (15) 
-8.6300000000000008

>  <m_primary>  (15) 
energy

>  <rmsd>  (15) 
10.294216125658856

>  <m_score__min__rmsd>  (15) 
10.294216125658856

>  <meeko>  (15) 
{"free_energy": -6.7, "intermolecular_energy": -8.49, "internal_energy": -1.78, "cluster_size": 6, "cluster_id": 5, "rank_in_cluster": 5}

>  <energy>  (15) 
-7.24

>  <cluster_rmsd>  (15) 
0.34

>  <cluster>  (15) 
2

$$$$

     RDKit          3D

 45 48  0  0  0  0  0  0  0  0999 V2000
  143.9060   76.7270  219.4730 O   0  0  0  0  0  0  0  0  0  0  0  0
  142.9330   76.2240  220.0630 C   0  0  0  0  0  0  0  0  0  0  0  0
  143.0130   74.8450  220.3010 C   0  0  0  0  0  0  0  0  0  0  0  0
  144.1210   74.1260  219.8890 C   0  0  0  0  0  0  0  0  0  0  0  0
  144.2000   72.7600  220.1240 C   0  0  0  0  0  0  0  0  0  0  0  0
  145.3080   72.0830  219.7040 F   0  0  0  0  0  0  0  0  0  0  0  0
  143.1600   72.1220  220.7770 C   0  0  0  0  0  0  0  0  0  0  0  0
  142.0350   72.8270  221.1990 C   0  0  0  0  0  0  0  0  0  0  0  0
  141.9920   74.1800  220.9490 C   0  0  0  0  0  0  0  0  0  0  0  0
  140.9390   74.9260  221.3290 N   0  0  0  0  0  0  0  0  0  0  0  0
  140.8710   76.2590  221.0950 C   0  0  0  0  0  0  0  0  0  0  0  0
  139.6760   76.9360  221.5870 C   0  0  0  0  0  0  0  0  0  0  0  0
  139.6950   77.5890  222.7300 C   0  0  0  0  0  0  0  0  0  0  0  0
  140.5430   78.7350  223.0090 C   0  0  0  0  0  0  0  0  0  0  0  0
  141.8180   78.6410  223.5230 C   0  0  0  0  0  0  0  0  0  0  0  0
  142.5780   79.7690  223.7690 C   0  0  0  0  0  0  0  0  0  0  0  0
  142.1020   81.0380  223.5140 C   0  0  0  0  0  0  0  0  0  0  0  0
  140.8200   81.1480  222.9960 C   0  0  0  0  0  0  0  0  0  0  0  0
  140.0810   80.0200  222.7590 C   0  0  0  0  0  0  0  0  0  0  0  0
  141.8470   76.9390  220.4660 N   0  0  0  0  0  0  0  0  0  0  0  0
  141.7850   78.3530  220.1780 C   0  0  0  0  0  0  0  0  0  0  0  0
  141.6830   78.6840  218.7430 C   0  0  0  0  0  0  0  0  0  0  0  0
  141.0410   77.9150  217.8030 C   0  0  0  0  0  0  0  0  0  0  0  0
  140.9700   78.2800  216.4540 C   0  0  0  0  0  0  0  0  0  0  0  0
  141.5490   79.4410  216.0030 C   0  0  0  0  0  0  0  0  0  0  0  0
  142.1960   80.2240  216.9320 C   0  0  0  0  0  0  0  0  0  0  0  0
  142.7790   81.3990  216.4570 O   0  0  0  0  0  0  0  0  0  0  0  0
  142.2650   79.8650  218.2590 C   0  0  0  0  0  0  0  0  0  0  0  0
  144.9446   74.6400  219.3719 H   0  0  0  0  0  0  0  0  0  0  0  0
  143.2227   71.0402  220.9660 H   0  0  0  0  0  0  0  0  0  0  0  0
  141.2074   72.3187  221.7155 H   0  0  0  0  0  0  0  0  0  0  0  0
  138.7487   76.9004  220.9963 H   0  0  0  0  0  0  0  0  0  0  0  0
  139.0225   77.2430  223.5287 H   0  0  0  0  0  0  0  0  0  0  0  0
  142.2393   77.6487  223.7419 H   0  0  0  0  0  0  0  0  0  0  0  0
  143.5915   79.6511  224.1799 H   0  0  0  0  0  0  0  0  0  0  0  0
  142.7156   81.9289  223.7138 H   0  0  0  0  0  0  0  0  0  0  0  0
  140.3978   82.1396  222.7760 H   0  0  0  0  0  0  0  0  0  0  0  0
  139.0673   80.1383  222.3487 H   0  0  0  0  0  0  0  0  0  0  0  0
  140.9045   78.7690  220.6895 H   0  0  0  0  0  0  0  0  0  0  0  0
  142.7331   78.7849  220.5309 H   0  0  0  0  0  0  0  0  0  0  0  0
  140.5646   76.9766  218.1229 H   0  0  0  0  0  0  0  0  0  0  0  0
  140.4422   77.6268  215.7435 H   0  0  0  0  0  0  0  0  0  0  0  0
  141.4978   79.7329  214.9437 H   0  0  0  0  0  0  0  0  0  0  0  0
  143.6480   81.3300  215.9840 H   0  0  0  0  0  0  0  0  0  0  0  0
  142.7934   80.5253  218.9624 H   0  0  0  0  0  0  0  0  0  0  0  0
  1  2  2  0
  2  3  1  0
  3  4  2  0
  4  5  1  0
  5  6  1  0
  5  7  2  0
  7  8  1  0
  8  9  2  0
  9 10  1  0
 10 11  2  0
 11 12  1  0
 12 13  2  0
 13 14  1  0
 14 15  2  0
 15 16  1  0
 16 17  2  0
 17 18  1  0
 18 19  2  0
 11 20  1  0
 20 21  1  0
 21 22  1  0
 22 23  2  0
 23 24  1  0
 24 25  2  0
 25 26  1  0
 26 27  1  0
 26 28  2  0
 20  2  1  0
 28 22  1  0
  9  3  1  0
 19 14  1  0
  4 29  1  0
  7 30  1  0
  8 31  1  0
 12 32  1  0
 13 33  1  0
 15 34  1  0
 16 35  1  0
 17 36  1  0
 18 37  1  0
 19 38  1  0
 21 39  1  0
 21 40  1  0
 23 41  1  0
 24 42  1  0
 25 43  1  0
 27 44  1  0
 28 45  1  0
M  END
>  <smiles>  (16) 
O=c1c2cc(F)ccc2nc(/C=C/c2ccccc2)n1Cc1cccc(O)c1

>  <score_type>  (16) 
oracle

>  <origin>  (16) 
autodockgpu

>  <m_score__min__energy>  (16) 
-8.6300000000000008

>  <m_primary>  (16) 
energy

>  <rmsd>  (16) 
4.790955083955541

>  <m_score__min__rmsd>  (16) 
4.790955083955541

>  <meeko>  (16) 
{"free_energy": -6.7, "intermolecular_energy": -8.49, "internal_energy": -1.45, "cluster_size": 5, "cluster_id": 8, "rank_in_cluster": 2}

>  <energy>  (16) 
-7.23

>  <cluster_rmsd>  (16) 
0.36

>  <cluster>  (16) 
2

$$$$

     RDKit          3D

 45 48  0  0  0  0  0  0  0  0999 V2000
  135.6570   71.4920  222.0360 O   0  0  0  0  0  0  0  0  0  0  0  0
  135.9980   70.8600  223.0530 C   0  0  0  0  0  0  0  0  0  0  0  0
  135.1660   71.0140  224.1700 C   0  0  0  0  0  0  0  0  0  0  0  0
  134.0490   71.8270  224.1060 C   0  0  0  0  0  0  0  0  0  0  0  0
  133.2250   71.9810  225.2130 C   0  0  0  0  0  0  0  0  0  0  0  0
  132.1320   72.7920  225.1130 F   0  0  0  0  0  0  0  0  0  0  0  0
  133.5310   71.3100  226.3840 C   0  0  0  0  0  0  0  0  0  0  0  0
  134.6510   70.4870  226.4710 C   0  0  0  0  0  0  0  0  0  0  0  0
  135.4440   70.3590  225.3520 C   0  0  0  0  0  0  0  0  0  0  0  0
  136.5400   69.5800  225.3610 N   0  0  0  0  0  0  0  0  0  0  0  0
  137.3380   69.4370  224.2750 C   0  0  0  0  0  0  0  0  0  0  0  0
  138.4780   68.5400  224.4310 C   0  0  0  0  0  0  0  0  0  0  0  0
  139.6870   69.0180  224.6460 C   0  0  0  0  0  0  0  0  0  0  0  0
  140.0400   69.8980  225.7460 C   0  0  0  0  0  0  0  0  0  0  0  0
  140.7460   71.0710  225.5960 C   0  0  0  0  0  0  0  0  0  0  0  0
  141.0530   71.8690  226.6820 C   0  0  0  0  0  0  0  0  0  0  0  0
  140.6730   71.5320  227.9640 C   0  0  0  0  0  0  0  0  0  0  0  0
  139.9610   70.3530  228.1310 C   0  0  0  0  0  0  0  0  0  0  0  0
  139.6650   69.5750  227.0430 C   0  0  0  0  0  0  0  0  0  0  0  0
  137.0980   70.0600  223.1070 N   0  0  0  0  0  0  0  0  0  0  0  0
  137.9490   69.9480  221.9450 C   0  0  0  0  0  0  0  0  0  0  0  0
  139.0460   70.9340  221.8890 C   0  0  0  0  0  0  0  0  0  0  0  0
  140.3190   70.6680  221.4450 C   0  0  0  0  0  0  0  0  0  0  0  0
  141.3210   71.6430  221.4070 C   0  0  0  0  0  0  0  0  0  0  0  0
  141.0730   72.9300  221.8190 C   0  0  0  0  0  0  0  0  0  0  0  0
  139.8020   73.2140  222.2650 C   0  0  0  0  0  0  0  0  0  0  0  0
  139.5680   74.5260  222.6800 O   0  0  0  0  0  0  0  0  0  0  0  0
  138.8160   72.2550  222.3020 C   0  0  0  0  0  0  0  0  0  0  0  0
  133.8115   72.3557  223.1711 H   0  0  0  0  0  0  0  0  0  0  0  0
  132.8782   71.4288  227.2613 H   0  0  0  0  0  0  0  0  0  0  0  0
  134.8945   69.9563  227.4032 H   0  0  0  0  0  0  0  0  0  0  0  0
  138.3265   67.4523  224.3684 H   0  0  0  0  0  0  0  0  0  0  0  0
  140.4837   68.7307  223.9440 H   0  0  0  0  0  0  0  0  0  0  0  0
  141.0722   71.3790  224.5916 H   0  0  0  0  0  0  0  0  0  0  0  0
  141.6165   72.7995  226.5190 H   0  0  0  0  0  0  0  0  0  0  0  0
  140.9248   72.1734  228.8215 H   0  0  0  0  0  0  0  0  0  0  0  0
  139.6349   70.0436  229.1349 H   0  0  0  0  0  0  0  0  0  0  0  0
  139.1003   68.6451  227.2057 H   0  0  0  0  0  0  0  0  0  0  0  0
  138.3921   68.9412  221.9401 H   0  0  0  0  0  0  0  0  0  0  0  0
  137.3101   70.1427  221.0710 H   0  0  0  0  0  0  0  0  0  0  0  0
  140.5591   69.6493  221.1065 H   0  0  0  0  0  0  0  0  0  0  0  0
  142.3234   71.3752  221.0415 H   0  0  0  0  0  0  0  0  0  0  0  0
  141.8571   73.7011  221.7935 H   0  0  0  0  0  0  0  0  0  0  0  0
  138.6280   74.8050  222.8300 H   0  0  0  0  0  0  0  0  0  0  0  0
  137.8161   72.5327  222.6668 H   0  0  0  0  0  0  0  0  0  0  0  0
  1  2  2  0
  2  3  1  0
  3  4  2  0
  4  5  1  0
  5  6  1  0
  5  7  2  0
  7  8  1  0
  8  9  2  0
  9 10  1  0
 10 11  2  0
 11 12  1  0
 12 13  2  0
 13 14  1  0
 14 15  2  0
 15 16  1  0
 16 17  2  0
 17 18  1  0
 18 19  2  0
 11 20  1  0
 20 21  1  0
 21 22  1  0
 22 23  2  0
 23 24  1  0
 24 25  2  0
 25 26  1  0
 26 27  1  0
 26 28  2  0
 20  2  1  0
 28 22  1  0
  9  3  1  0
 19 14  1  0
  4 29  1  0
  7 30  1  0
  8 31  1  0
 12 32  1  0
 13 33  1  0
 15 34  1  0
 16 35  1  0
 17 36  1  0
 18 37  1  0
 19 38  1  0
 21 39  1  0
 21 40  1  0
 23 41  1  0
 24 42  1  0
 25 43  1  0
 27 44  1  0
 28 45  1  0
M  END
>  <smiles>  (17) 
O=c1c2cc(F)ccc2nc(/C=C/c2ccccc2)n1Cc1cccc(O)c1

>  <score_type>  (17) 
oracle

>  <origin>  (17) 
autodockgpu

>  <m_score__min__energy>  (17) 
-8.6300000000000008

>  <m_primary>  (17) 
energy

>  <rmsd>  (17) 
10.327259108207564

>  <m_score__min__rmsd>  (17) 
10.327259108207564

>  <meeko>  (17) 
{"free_energy": -6.43, "intermolecular_energy": -8.22, "internal_energy": -1.73, "cluster_size": 6, "cluster_id": 5, "rank_in_cluster": 6}

>  <energy>  (17) 
-7.18

>  <cluster_rmsd>  (17) 
0.48

>  <cluster>  (17) 
2

$$$$

     RDKit          3D

 45 48  0  0  0  0  0  0  0  0999 V2000
  140.0930   71.8880  225.0160 O   0  0  0  0  0  0  0  0  0  0  0  0
  139.6360   70.7320  224.9450 C   0  0  0  0  0  0  0  0  0  0  0  0
  139.9830   69.8760  225.9990 C   0  0  0  0  0  0  0  0  0  0  0  0
  140.7860   70.3260  227.0310 C   0  0  0  0  0  0  0  0  0  0  0  0
  141.1320   69.4780  228.0750 C   0  0  0  0  0  0  0  0  0  0  0  0
  141.9250   69.9560  229.0770 F   0  0  0  0  0  0  0  0  0  0  0  0
  140.6630   68.1760  228.0740 C   0  0  0  0  0  0  0  0  0  0  0  0
  139.8540   67.7020  227.0440 C   0  0  0  0  0  0  0  0  0  0  0  0
  139.5330   68.5720  226.0260 C   0  0  0  0  0  0  0  0  0  0  0  0
  138.7540   68.1870  225.0000 N   0  0  0  0  0  0  0  0  0  0  0  0
  138.4240   69.0230  223.9850 C   0  0  0  0  0  0  0  0  0  0  0  0
  137.5530   68.4660  222.9550 C   0  0  0  0  0  0  0  0  0  0  0  0
  136.2490   68.6430  223.0070 C   0  0  0  0  0  0  0  0  0  0  0  0
  135.5660   69.4330  224.0160 C   0  0  0  0  0  0  0  0  0  0  0  0
  135.0110   68.9050  225.1610 C   0  0  0  0  0  0  0  0  0  0  0  0
  134.3720   69.7080  226.0870 C   0  0  0  0  0  0  0  0  0  0  0  0
  134.2560   71.0710  225.9120 C   0  0  0  0  0  0  0  0  0  0  0  0
  134.8110   71.6180  224.7640 C   0  0  0  0  0  0  0  0  0  0  0  0
  135.4400   70.8070  223.8580 C   0  0  0  0  0  0  0  0  0  0  0  0
  138.8460   70.2980  223.9250 N   0  0  0  0  0  0  0  0  0  0  0  0
  138.5320   71.1990  222.8410 C   0  0  0  0  0  0  0  0  0  0  0  0
  139.7040   71.8550  222.2270 C   0  0  0  0  0  0  0  0  0  0  0  0
  140.6900   71.2030  221.5270 C   0  0  0  0  0  0  0  0  0  0  0  0
  141.7780   71.8750  220.9600 C   0  0  0  0  0  0  0  0  0  0  0  0
  141.9110   73.2370  221.0810 C   0  0  0  0  0  0  0  0  0  0  0  0
  140.9310   73.9050  221.7790 C   0  0  0  0  0  0  0  0  0  0  0  0
  141.0810   75.2880  221.8930 O   0  0  0  0  0  0  0  0  0  0  0  0
  139.8600   73.2440  222.3360 C   0  0  0  0  0  0  0  0  0  0  0  0
  141.1532   71.3629  227.0250 H   0  0  0  0  0  0  0  0  0  0  0  0
  140.9339   67.5035  228.9013 H   0  0  0  0  0  0  0  0  0  0  0  0
  139.4835   66.6663  227.0438 H   0  0  0  0  0  0  0  0  0  0  0  0
  137.9908   67.8915  222.1254 H   0  0  0  0  0  0  0  0  0  0  0  0
  135.6351   68.1592  222.2330 H   0  0  0  0  0  0  0  0  0  0  0  0
  135.0777   67.8221  225.3421 H   0  0  0  0  0  0  0  0  0  0  0  0
  133.9438   69.2467  226.9892 H   0  0  0  0  0  0  0  0  0  0  0  0
  133.7431   71.7004  226.6541 H   0  0  0  0  0  0  0  0  0  0  0  0
  134.7458   72.7009  224.5823 H   0  0  0  0  0  0  0  0  0  0  0  0
  135.8687   71.2685  222.9562 H   0  0  0  0  0  0  0  0  0  0  0  0
  138.0107   70.6268  222.0595 H   0  0  0  0  0  0  0  0  0  0  0  0
  137.9158   72.0019  223.2719 H   0  0  0  0  0  0  0  0  0  0  0  0
  140.6214   70.1116  221.4079 H   0  0  0  0  0  0  0  0  0  0  0  0
  142.5392   71.3038  220.4085 H   0  0  0  0  0  0  0  0  0  0  0  0
  142.7648   73.7711  220.6386 H   0  0  0  0  0  0  0  0  0  0  0  0
  141.9730   75.6400  222.1460 H   0  0  0  0  0  0  0  0  0  0  0  0
  139.1026   73.8238  222.8839 H   0  0  0  0  0  0  0  0  0  0  0  0
  1  2  2  0
  2  3  1  0
  3  4  2  0
  4  5  1  0
  5  6  1  0
  5  7  2  0
  7  8  1  0
  8  9  2  0
  9 10  1  0
 10 11  2  0
 11 12  1  0
 12 13  2  0
 13 14  1  0
 14 15  2  0
 15 16  1  0
 16 17  2  0
 17 18  1  0
 18 19  2  0
 11 20  1  0
 20 21  1  0
 21 22  1  0
 22 23  2  0
 23 24  1  0
 24 25  2  0
 25 26  1  0
 26 27  1  0
 26 28  2  0
 20  2  1  0
 28 22  1  0
  9  3  1  0
 19 14  1  0
  4 29  1  0
  7 30  1  0
  8 31  1  0
 12 32  1  0
 13 33  1  0
 15 34  1  0
 16 35  1  0
 17 36  1  0
 18 37  1  0
 19 38  1  0
 21 39  1  0
 21 40  1  0
 23 41  1  0
 24 42  1  0
 25 43  1  0
 27 44  1  0
 28 45  1  0
M  END
>  <smiles>  (18) 
O=c1c2cc(F)ccc2nc(/C=C/c2ccccc2)n1Cc1cccc(O)c1

>  <score_type>  (18) 
oracle

>  <origin>  (18) 
autodockgpu

>  <m_score__min__energy>  (18) 
-8.6300000000000008

>  <m_primary>  (18) 
energy

>  <rmsd>  (18) 
10.170178875219028

>  <m_score__min__rmsd>  (18) 
10.170178875219028

>  <meeko>  (18) 
{"free_energy": -6.93, "intermolecular_energy": -8.72, "internal_energy": -1.49, "cluster_size": 8, "cluster_id": 7, "rank_in_cluster": 4}

>  <energy>  (18) 
-7.17

>  <cluster_rmsd>  (18) 
0.95

>  <cluster>  (18) 
2

$$$$

     RDKit          3D

 45 48  0  0  0  0  0  0  0  0999 V2000
  141.4950   71.1160  221.3620 O   0  0  0  0  0  0  0  0  0  0  0  0
  141.4820   72.3590  221.3060 C   0  0  0  0  0  0  0  0  0  0  0  0
  142.6270   72.9540  220.7590 C   0  0  0  0  0  0  0  0  0  0  0  0
  143.6820   72.1730  220.3220 C   0  0  0  0  0  0  0  0  0  0  0  0
  144.8170   72.7610  219.7810 C   0  0  0  0  0  0  0  0  0  0  0  0
  145.8380   71.9590  219.3610 F   0  0  0  0  0  0  0  0  0  0  0  0
  144.8830   74.1400  219.6800 C   0  0  0  0  0  0  0  0  0  0  0  0
  143.8330   74.9450  220.1140 C   0  0  0  0  0  0  0  0  0  0  0  0
  142.7240   74.3260  220.6450 C   0  0  0  0  0  0  0  0  0  0  0  0
  141.6710   75.0380  221.0830 N   0  0  0  0  0  0  0  0  0  0  0  0
  140.5670   74.4530  221.6100 C   0  0  0  0  0  0  0  0  0  0  0  0
  139.4980   75.3580  222.0200 C   0  0  0  0  0  0  0  0  0  0  0  0
  139.4640   76.6000  221.5860 C   0  0  0  0  0  0  0  0  0  0  0  0
  140.0410   77.7340  222.2880 C   0  0  0  0  0  0  0  0  0  0  0  0
  139.3110   78.6160  223.0540 C   0  0  0  0  0  0  0  0  0  0  0  0
  139.9170   79.6780  223.6990 C   0  0  0  0  0  0  0  0  0  0  0  0
  141.2740   79.9080  223.6090 C   0  0  0  0  0  0  0  0  0  0  0  0
  142.0210   79.0270  222.8410 C   0  0  0  0  0  0  0  0  0  0  0  0
  141.4050   77.9810  222.2080 C   0  0  0  0  0  0  0  0  0  0  0  0
  140.4390   73.1210  221.7370 N   0  0  0  0  0  0  0  0  0  0  0  0
  139.2870   72.4750  222.3230 C   0  0  0  0  0  0  0  0  0  0  0  0
  139.5960   71.5620  223.4400 C   0  0  0  0  0  0  0  0  0  0  0  0
  140.3700   71.8860  224.5280 C   0  0  0  0  0  0  0  0  0  0  0  0
  140.6270   70.9820  225.5640 C   0  0  0  0  0  0  0  0  0  0  0  0
  140.1090   69.7100  225.5390 C   0  0  0  0  0  0  0  0  0  0  0  0
  139.3300   69.3690  224.4570 C   0  0  0  0  0  0  0  0  0  0  0  0
  138.8110   68.0740  224.4470 O   0  0  0  0  0  0  0  0  0  0  0  0
  139.0770   70.2590  223.4370 C   0  0  0  0  0  0  0  0  0  0  0  0
  143.6209   71.0778  220.4039 H   0  0  0  0  0  0  0  0  0  0  0  0
  145.7805   74.6080  219.2494 H   0  0  0  0  0  0  0  0  0  0  0  0
  143.8879   76.0408  220.0350 H   0  0  0  0  0  0  0  0  0  0  0  0
  138.7116   74.9979  222.6996 H   0  0  0  0  0  0  0  0  0  0  0  0
  138.9642   76.7930  220.6253 H   0  0  0  0  0  0  0  0  0  0  0  0
  138.2250   78.4725  223.1544 H   0  0  0  0  0  0  0  0  0  0  0  0
  139.2988   80.3596  224.3017 H   0  0  0  0  0  0  0  0  0  0  0  0
  141.7454   80.7568  224.1260 H   0  0  0  0  0  0  0  0  0  0  0  0
  143.1072   79.1686  222.7407 H   0  0  0  0  0  0  0  0  0  0  0  0
  142.0232   77.3004  221.6042 H   0  0  0  0  0  0  0  0  0  0  0  0
  138.6086   73.2563  222.6963 H   0  0  0  0  0  0  0  0  0  0  0  0
  138.8396   71.8572  221.5304 H   0  0  0  0  0  0  0  0  0  0  0  0
  140.8042   72.8950  224.5866 H   0  0  0  0  0  0  0  0  0  0  0  0
  141.2538   71.2946  226.4121 H   0  0  0  0  0  0  0  0  0  0  0  0
  140.3085   68.9940  226.3499 H   0  0  0  0  0  0  0  0  0  0  0  0
  138.6720   67.6340  223.5680 H   0  0  0  0  0  0  0  0  0  0  0  0
  138.4482   69.9379  222.5935 H   0  0  0  0  0  0  0  0  0  0  0  0
  1  2  2  0
  2  3  1  0
  3  4  2  0
  4  5  1  0
  5  6  1  0
  5  7  2  0
  7  8  1  0
  8  9  2  0
  9 10  1  0
 10 11  2  0
 11 12  1  0
 12 13  2  0
 13 14  1  0
 14 15  2  0
 15 16  1  0
 16 17  2  0
 17 18  1  0
 18 19  2  0
 11 20  1  0
 20 21  1  0
 21 22  1  0
 22 23  2  0
 23 24  1  0
 24 25  2  0
 25 26  1  0
 26 27  1  0
 26 28  2  0
 20  2  1  0
 28 22  1  0
  9  3  1  0
 19 14  1  0
  4 29  1  0
  7 30  1  0
  8 31  1  0
 12 32  1  0
 13 33  1  0
 15 34  1  0
 16 35  1  0
 17 36  1  0
 18 37  1  0
 19 38  1  0
 21 39  1  0
 21 40  1  0
 23 41  1  0
 24 42  1  0
 25 43  1  0
 27 44  1  0
 28 45  1  0
M  END
>  <smiles>  (19) 
O=c1c2cc(F)ccc2nc(/C=C/c2ccccc2)n1Cc1cccc(O)c1

>  <score_type>  (19) 
oracle

>  <origin>  (19) 
autodockgpu

>  <m_score__min__energy>  (19) 
-8.6300000000000008

>  <m_primary>  (19) 
energy

>  <rmsd>  (19) 
8.85100317974809

>  <m_score__min__rmsd>  (19) 
8.85100317974809

>  <meeko>  (19) 
{"free_energy": -7.18, "intermolecular_energy": -8.97, "internal_energy": -1.11, "cluster_size": 7, "cluster_id": 2, "rank_in_cluster": 4}

>  <energy>  (19) 
-7.12

>  <cluster_rmsd>  (19) 
0.88

>  <cluster>  (19) 
2

$$$$

     RDKit          3D

 45 48  0  0  0  0  0  0  0  0999 V2000
  142.0580   74.9650  218.6420 O   0  0  0  0  0  0  0  0  0  0  0  0
  141.5500   74.6950  219.7460 C   0  0  0  0  0  0  0  0  0  0  0  0
  141.3360   75.7850  220.5990 C   0  0  0  0  0  0  0  0  0  0  0  0
  141.6830   77.0640  220.2020 C   0  0  0  0  0  0  0  0  0  0  0  0
  141.4720   78.1450  221.0480 C   0  0  0  0  0  0  0  0  0  0  0  0
  141.8260   79.3920  220.6220 F   0  0  0  0  0  0  0  0  0  0  0  0
  140.9090   77.9320  222.2940 C   0  0  0  0  0  0  0  0  0  0  0  0
  140.5530   76.6530  222.7140 C   0  0  0  0  0  0  0  0  0  0  0  0
  140.7780   75.6050  221.8480 C   0  0  0  0  0  0  0  0  0  0  0  0
  140.4580   74.3430  222.1840 N   0  0  0  0  0  0  0  0  0  0  0  0
  140.6680   73.2950  221.3510 C   0  0  0  0  0  0  0  0  0  0  0  0
  140.2480   71.9880  221.8480 C   0  0  0  0  0  0  0  0  0  0  0  0
  139.4140   71.8900  222.8620 C   0  0  0  0  0  0  0  0  0  0  0  0
  139.7560   71.3330  224.1590 C   0  0  0  0  0  0  0  0  0  0  0  0
  140.7270   71.8520  224.9870 C   0  0  0  0  0  0  0  0  0  0  0  0
  141.0100   71.2770  226.2120 C   0  0  0  0  0  0  0  0  0  0  0  0
  140.3380   70.1610  226.6650 C   0  0  0  0  0  0  0  0  0  0  0  0
  139.3570   69.6280  225.8420 C   0  0  0  0  0  0  0  0  0  0  0  0
  139.0910   70.2100  224.6320 C   0  0  0  0  0  0  0  0  0  0  0  0
  141.2110   73.4330  220.1280 N   0  0  0  0  0  0  0  0  0  0  0  0
  141.4730   72.3290  219.2350 C   0  0  0  0  0  0  0  0  0  0  0  0
  142.8530   71.8070  219.2900 C   0  0  0  0  0  0  0  0  0  0  0  0
  143.1930   70.5220  219.6360 C   0  0  0  0  0  0  0  0  0  0  0  0
  144.5190   70.0770  219.6660 C   0  0  0  0  0  0  0  0  0  0  0  0
  145.5560   70.9200  219.3470 C   0  0  0  0  0  0  0  0  0  0  0  0
  145.2320   72.2110  218.9960 C   0  0  0  0  0  0  0  0  0  0  0  0
  146.2970   73.0530  218.6740 O   0  0  0  0  0  0  0  0  0  0  0  0
  143.9270   72.6480  218.9660 C   0  0  0  0  0  0  0  0  0  0  0  0
  142.1290   77.2259  219.2096 H   0  0  0  0  0  0  0  0  0  0  0  0
  140.7398   78.7877  222.9642 H   0  0  0  0  0  0  0  0  0  0  0  0
  140.1065   76.4846  223.7051 H   0  0  0  0  0  0  0  0  0  0  0  0
  140.6327   71.0750  221.3700 H   0  0  0  0  0  0  0  0  0  0  0  0
  138.3867   72.2554  222.7168 H   0  0  0  0  0  0  0  0  0  0  0  0
  141.2886   72.7420  224.6670 H   0  0  0  0  0  0  0  0  0  0  0  0
  141.7932   71.7221  226.8432 H   0  0  0  0  0  0  0  0  0  0  0  0
  140.5711   69.7110  227.6413 H   0  0  0  0  0  0  0  0  0  0  0  0
  138.7935   68.7388  226.1612 H   0  0  0  0  0  0  0  0  0  0  0  0
  138.3084   69.7640  224.0006 H   0  0  0  0  0  0  0  0  0  0  0  0
  140.7859   71.5094  219.4921 H   0  0  0  0  0  0  0  0  0  0  0  0
  141.3255   72.7123  218.2145 H   0  0  0  0  0  0  0  0  0  0  0  0
  142.3920   69.8157  219.8996 H   0  0  0  0  0  0  0  0  0  0  0  0
  144.7347   69.0362  219.9493 H   0  0  0  0  0  0  0  0  0  0  0  0
  146.6011   70.5777  219.3711 H   0  0  0  0  0  0  0  0  0  0  0  0
  146.1250   74.0300  218.6440 H   0  0  0  0  0  0  0  0  0  0  0  0
  143.7204   73.6896  218.6789 H   0  0  0  0  0  0  0  0  0  0  0  0
  1  2  2  0
  2  3  1  0
  3  4  2  0
  4  5  1  0
  5  6  1  0
  5  7  2  0
  7  8  1  0
  8  9  2  0
  9 10  1  0
 10 11  2  0
 11 12  1  0
 12 13  2  0
 13 14  1  0
 14 15  2  0
 15 16  1  0
 16 17  2  0
 17 18  1  0
 18 19  2  0
 11 20  1  0
 20 21  1  0
 21 22  1  0
 22 23  2  0
 23 24  1  0
 24 25  2  0
 25 26  1  0
 26 27  1  0
 26 28  2  0
 20  2  1  0
 28 22  1  0
  9  3  1  0
 19 14  1  0
  4 29  1  0
  7 30  1  0
  8 31  1  0
 12 32  1  0
 13 33  1  0
 15 34  1  0
 16 35  1  0
 17 36  1  0
 18 37  1  0
 19 38  1  0
 21 39  1  0
 21 40  1  0
 23 41  1  0
 24 42  1  0
 25 43  1  0
 27 44  1  0
 28 45  1  0
M  END
>  <smiles>  (20) 
O=c1c2cc(F)ccc2nc(/C=C/c2ccccc2)n1Cc1cccc(O)c1

>  <score_type>  (20) 
oracle

>  <origin>  (20) 
autodockgpu

>  <m_score__min__energy>  (20) 
-8.6300000000000008

>  <m_primary>  (20) 
energy

>  <rmsd>  (20) 
8.776381673167483

>  <m_score__min__rmsd>  (20) 
8.776381673167483

>  <meeko>  (20) 
{"free_energy": -7.47, "intermolecular_energy": -9.26, "internal_energy": -1.02, "cluster_size": 13, "cluster_id": 1, "rank_in_cluster": 11}

>  <energy>  (20) 
-6.98

>  <cluster_rmsd>  (20) 
0.82

>  <cluster>  (20) 
2

$$$$

     RDKit          3D

 45 48  0  0  0  0  0  0  0  0999 V2000
  141.4490   71.0450  221.3210 O   0  0  0  0  0  0  0  0  0  0  0  0
  141.4410   72.2890  221.3020 C   0  0  0  0  0  0  0  0  0  0  0  0
  142.5810   72.8960  220.7580 C   0  0  0  0  0  0  0  0  0  0  0  0
  143.6260   72.1240  220.2840 C   0  0  0  0  0  0  0  0  0  0  0  0
  144.7570   72.7250  219.7460 C   0  0  0  0  0  0  0  0  0  0  0  0
  145.7680   71.9320  219.2870 F   0  0  0  0  0  0  0  0  0  0  0  0
  144.8280   74.1060  219.6860 C   0  0  0  0  0  0  0  0  0  0  0  0
  143.7870   74.9010  220.1580 C   0  0  0  0  0  0  0  0  0  0  0  0
  142.6820   74.2700  220.6850 C   0  0  0  0  0  0  0  0  0  0  0  0
  141.6380   74.9730  221.1590 N   0  0  0  0  0  0  0  0  0  0  0  0
  140.5390   74.3770  221.6830 C   0  0  0  0  0  0  0  0  0  0  0  0
  139.4790   75.2720  222.1340 C   0  0  0  0  0  0  0  0  0  0  0  0
  139.4150   76.5130  221.6990 C   0  0  0  0  0  0  0  0  0  0  0  0
  139.9420   77.6640  222.4110 C   0  0  0  0  0  0  0  0  0  0  0  0
  139.1570   78.6110  223.0290 C   0  0  0  0  0  0  0  0  0  0  0  0
  139.7170   79.6870  223.6930 C   0  0  0  0  0  0  0  0  0  0  0  0
  141.0830   79.8660  223.7680 C   0  0  0  0  0  0  0  0  0  0  0  0
  141.8860   78.9190  223.1500 C   0  0  0  0  0  0  0  0  0  0  0  0
  141.3140   77.8600  222.4970 C   0  0  0  0  0  0  0  0  0  0  0  0
  140.4070   73.0410  221.7710 N   0  0  0  0  0  0  0  0  0  0  0  0
  139.2600   72.3820  222.3520 C   0  0  0  0  0  0  0  0  0  0  0  0
  139.5690   71.5150  223.5060 C   0  0  0  0  0  0  0  0  0  0  0  0
  140.3270   71.8900  224.5880 C   0  0  0  0  0  0  0  0  0  0  0  0
  140.5840   71.0280  225.6600 C   0  0  0  0  0  0  0  0  0  0  0  0
  140.0820   69.7490  225.6770 C   0  0  0  0  0  0  0  0  0  0  0  0
  139.3180   69.3590  224.6010 C   0  0  0  0  0  0  0  0  0  0  0  0
  138.8160   68.0570  224.6340 O   0  0  0  0  0  0  0  0  0  0  0  0
  139.0650   70.2070  223.5470 C   0  0  0  0  0  0  0  0  0  0  0  0
  143.5612   71.0270  220.3333 H   0  0  0  0  0  0  0  0  0  0  0  0
  145.7219   74.5834  219.2582 H   0  0  0  0  0  0  0  0  0  0  0  0
  143.8452   75.9985  220.1115 H   0  0  0  0  0  0  0  0  0  0  0  0
  138.7245   74.9058  222.8457 H   0  0  0  0  0  0  0  0  0  0  0  0
  138.9284   76.6905  220.7286 H   0  0  0  0  0  0  0  0  0  0  0  0
  138.0622   78.5098  222.9940 H   0  0  0  0  0  0  0  0  0  0  0  0
  139.0546   80.4210  224.1751 H   0  0  0  0  0  0  0  0  0  0  0  0
  141.5183   80.7264  224.2974 H   0  0  0  0  0  0  0  0  0  0  0  0
  142.9810   79.0185  223.1844 H   0  0  0  0  0  0  0  0  0  0  0  0
  141.9763   77.1258  222.0151 H   0  0  0  0  0  0  0  0  0  0  0  0
  138.5515   73.1553  222.6838 H   0  0  0  0  0  0  0  0  0  0  0  0
  138.8481   71.7263  221.5707 H   0  0  0  0  0  0  0  0  0  0  0  0
  140.7479   72.9060  224.6130 H   0  0  0  0  0  0  0  0  0  0  0  0
  141.1976   71.3799  226.5024 H   0  0  0  0  0  0  0  0  0  0  0  0
  140.2824   69.0657  226.5154 H   0  0  0  0  0  0  0  0  0  0  0  0
  139.1740   67.4030  223.9800 H   0  0  0  0  0  0  0  0  0  0  0  0
  138.4480   69.8475  222.7103 H   0  0  0  0  0  0  0  0  0  0  0  0
  1  2  2  0
  2  3  1  0
  3  4  2  0
  4  5  1  0
  5  6  1  0
  5  7  2  0
  7  8  1  0
  8  9  2  0
  9 10  1  0
 10 11  2  0
 11 12  1  0
 12 13  2  0
 13 14  1  0
 14 15  2  0
 15 16  1  0
 16 17  2  0
 17 18  1  0
 18 19  2  0
 11 20  1  0
 20 21  1  0
 21 22  1  0
 22 23  2  0
 23 24  1  0
 24 25  2  0
 25 26  1  0
 26 27  1  0
 26 28  2  0
 20  2  1  0
 28 22  1  0
  9  3  1  0
 19 14  1  0
  4 29  1  0
  7 30  1  0
  8 31  1  0
 12 32  1  0
 13 33  1  0
 15 34  1  0
 16 35  1  0
 17 36  1  0
 18 37  1  0
 19 38  1  0
 21 39  1  0
 21 40  1  0
 23 41  1  0
 24 42  1  0
 25 43  1  0
 27 44  1  0
 28 45  1  0
M  END
>  <smiles>  (21) 
O=c1c2cc(F)ccc2nc(/C=C/c2ccccc2)n1Cc1cccc(O)c1

>  <score_type>  (21) 
oracle

>  <origin>  (21) 
autodockgpu

>  <m_score__min__energy>  (21) 
-8.6300000000000008

>  <m_primary>  (21) 
energy

>  <rmsd>  (21) 
8.880980646416264

>  <m_score__min__rmsd>  (21) 
8.880980646416264

>  <meeko>  (21) 
{"free_energy": -7.23, "intermolecular_energy": -9.02, "internal_energy": -1.12, "cluster_size": 7, "cluster_id": 2, "rank_in_cluster": 3}

>  <energy>  (21) 
-7.1

>  <cluster_rmsd>  (21) 
0.0

>  <cluster>  (21) 
3

$$$$

     RDKit          3D

 45 48  0  0  0  0  0  0  0  0999 V2000
  141.9900   74.2850  218.4640 O   0  0  0  0  0  0  0  0  0  0  0  0
  141.5950   74.1690  219.6390 C   0  0  0  0  0  0  0  0  0  0  0  0
  141.4000   75.3690  220.3350 C   0  0  0  0  0  0  0  0  0  0  0  0
  141.6440   76.5840  219.7200 C   0  0  0  0  0  0  0  0  0  0  0  0
  141.4520   77.7740  220.4100 C   0  0  0  0  0  0  0  0  0  0  0  0
  141.7030   78.9530  219.7710 F   0  0  0  0  0  0  0  0  0  0  0  0
  141.0110   77.7330  221.7210 C   0  0  0  0  0  0  0  0  0  0  0  0
  140.7590   76.5210  222.3590 C   0  0  0  0  0  0  0  0  0  0  0  0
  140.9610   75.3630  221.6430 C   0  0  0  0  0  0  0  0  0  0  0  0
  140.7370   74.1560  222.1930 N   0  0  0  0  0  0  0  0  0  0  0  0
  140.9290   73.0000  221.5110 C   0  0  0  0  0  0  0  0  0  0  0  0
  140.6210   71.7710  222.2340 C   0  0  0  0  0  0  0  0  0  0  0  0
  139.8530   71.7940  223.3040 C   0  0  0  0  0  0  0  0  0  0  0  0
  140.1890   71.1740  224.5730 C   0  0  0  0  0  0  0  0  0  0  0  0
  140.7630   71.8480  225.6290 C   0  0  0  0  0  0  0  0  0  0  0  0
  141.0610   71.2030  226.8150 C   0  0  0  0  0  0  0  0  0  0  0  0
  140.8030   69.8610  227.0010 C   0  0  0  0  0  0  0  0  0  0  0  0
  140.2250   69.1700  225.9460 C   0  0  0  0  0  0  0  0  0  0  0  0
  139.9370   69.8250  224.7780 C   0  0  0  0  0  0  0  0  0  0  0  0
  141.3560   72.9690  220.2360 N   0  0  0  0  0  0  0  0  0  0  0  0
  141.5960   71.7510  219.4970 C   0  0  0  0  0  0  0  0  0  0  0  0
  143.0160   71.3590  219.4030 C   0  0  0  0  0  0  0  0  0  0  0  0
  143.4790   70.0670  219.4720 C   0  0  0  0  0  0  0  0  0  0  0  0
  144.8380   69.7500  219.3720 C   0  0  0  0  0  0  0  0  0  0  0  0
  145.7840   70.7310  219.1980 C   0  0  0  0  0  0  0  0  0  0  0  0
  145.3360   72.0300  219.1260 C   0  0  0  0  0  0  0  0  0  0  0  0
  146.3090   73.0150  218.9490 O   0  0  0  0  0  0  0  0  0  0  0  0
  143.9990   72.3430  219.2240 C   0  0  0  0  0  0  0  0  0  0  0  0
  141.9926   76.6078  218.6770 H   0  0  0  0  0  0  0  0  0  0  0  0
  140.8568   78.6743  222.2689 H   0  0  0  0  0  0  0  0  0  0  0  0
  140.4098   76.4902  223.4016 H   0  0  0  0  0  0  0  0  0  0  0  0
  141.0346   70.8145  221.8818 H   0  0  0  0  0  0  0  0  0  0  0  0
  138.8896   72.3198  223.2309 H   0  0  0  0  0  0  0  0  0  0  0  0
  140.9884   72.9198  225.5264 H   0  0  0  0  0  0  0  0  0  0  0  0
  141.5175   71.7773  227.6347 H   0  0  0  0  0  0  0  0  0  0  0  0
  141.0460   69.3583  227.9487 H   0  0  0  0  0  0  0  0  0  0  0  0
  139.9985   68.0983  226.0472 H   0  0  0  0  0  0  0  0  0  0  0  0
  139.4812   69.2505  223.9581 H   0  0  0  0  0  0  0  0  0  0  0  0
  141.0471   70.9359  219.9913 H   0  0  0  0  0  0  0  0  0  0  0  0
  141.2555   71.9385  218.4679 H   0  0  0  0  0  0  0  0  0  0  0  0
  142.7540   69.2515  219.6111 H   0  0  0  0  0  0  0  0  0  0  0  0
  145.1542   68.6982  219.4337 H   0  0  0  0  0  0  0  0  0  0  0  0
  146.8540   70.4883  219.1196 H   0  0  0  0  0  0  0  0  0  0  0  0
  146.0070   73.9470  218.7990 H   0  0  0  0  0  0  0  0  0  0  0  0
  143.6923   73.3974  219.1599 H   0  0  0  0  0  0  0  0  0  0  0  0
  1  2  2  0
  2  3  1  0
  3  4  2  0
  4  5  1  0
  5  6  1  0
  5  7  2  0
  7  8  1  0
  8  9  2  0
  9 10  1  0
 10 11  2  0
 11 12  1  0
 12 13  2  0
 13 14  1  0
 14 15  2  0
 15 16  1  0
 16 17  2  0
 17 18  1  0
 18 19  2  0
 11 20  1  0
 20 21  1  0
 21 22  1  0
 22 23  2  0
 23 24  1  0
 24 25  2  0
 25 26  1  0
 26 27  1  0
 26 28  2  0
 20  2  1  0
 28 22  1  0
  9  3  1  0
 19 14  1  0
  4 29  1  0
  7 30  1  0
  8 31  1  0
 12 32  1  0
 13 33  1  0
 15 34  1  0
 16 35  1  0
 17 36  1  0
 18 37  1  0
 19 38  1  0
 21 39  1  0
 21 40  1  0
 23 41  1  0
 24 42  1  0
 25 43  1  0
 27 44  1  0
 28 45  1  0
M  END
>  <smiles>  (22) 
O=c1c2cc(F)ccc2nc(/C=C/c2ccccc2)n1Cc1cccc(O)c1

>  <score_type>  (22) 
oracle

>  <origin>  (22) 
autodockgpu

>  <m_score__min__energy>  (22) 
-8.6300000000000008

>  <m_primary>  (22) 
energy

>  <rmsd>  (22) 
9.014467558783887

>  <m_score__min__rmsd>  (22) 
9.014467558783887

>  <meeko>  (22) 
{"free_energy": -7.67, "intermolecular_energy": -9.46, "internal_energy": -0.88, "cluster_size": 13, "cluster_id": 1, "rank_in_cluster": 7}

>  <energy>  (22) 
-7.01

>  <cluster_rmsd>  (22) 
0.17

>  <cluster>  (22) 
3

$$$$

     RDKit          3D

 45 48  0  0  0  0  0  0  0  0999 V2000
  142.5000   75.8690  219.3970 O   0  0  0  0  0  0  0  0  0  0  0  0
  141.7010   75.5760  220.3060 C   0  0  0  0  0  0  0  0  0  0  0  0
  141.1270   76.6610  220.9820 C   0  0  0  0  0  0  0  0  0  0  0  0
  141.4540   77.9580  220.6310 C   0  0  0  0  0  0  0  0  0  0  0  0
  140.8860   79.0330  221.3020 C   0  0  0  0  0  0  0  0  0  0  0  0
  141.2330   80.2990  220.9280 F   0  0  0  0  0  0  0  0  0  0  0  0
  139.9860   78.7950  222.3250 C   0  0  0  0  0  0  0  0  0  0  0  0
  139.6430   77.4970  222.6950 C   0  0  0  0  0  0  0  0  0  0  0  0
  140.2270   76.4560  222.0070 C   0  0  0  0  0  0  0  0  0  0  0  0
  139.9420   75.1760  222.3070 N   0  0  0  0  0  0  0  0  0  0  0  0
  140.5030   74.1340  221.6470 C   0  0  0  0  0  0  0  0  0  0  0  0
  140.0780   72.8040  222.0710 C   0  0  0  0  0  0  0  0  0  0  0  0
  140.6710   72.1970  223.0780 C   0  0  0  0  0  0  0  0  0  0  0  0
  140.0220   71.2500  223.9670 C   0  0  0  0  0  0  0  0  0  0  0  0
  138.7620   70.7360  223.7550 C   0  0  0  0  0  0  0  0  0  0  0  0
  138.1950   69.8360  224.6390 C   0  0  0  0  0  0  0  0  0  0  0  0
  138.8580   69.4110  225.7710 C   0  0  0  0  0  0  0  0  0  0  0  0
  140.1280   69.9200  225.9970 C   0  0  0  0  0  0  0  0  0  0  0  0
  140.6740   70.8100  225.1120 C   0  0  0  0  0  0  0  0  0  0  0  0
  141.3840   74.2960  220.6440 N   0  0  0  0  0  0  0  0  0  0  0  0
  142.0180   73.2020  219.9450 C   0  0  0  0  0  0  0  0  0  0  0  0
  143.4910   73.1790  220.0450 C   0  0  0  0  0  0  0  0  0  0  0  0
  144.1950   73.0430  221.2170 C   0  0  0  0  0  0  0  0  0  0  0  0
  145.5930   73.0220  221.2540 C   0  0  0  0  0  0  0  0  0  0  0  0
  146.3350   73.1380  220.1030 C   0  0  0  0  0  0  0  0  0  0  0  0
  145.6440   73.2740  218.9210 C   0  0  0  0  0  0  0  0  0  0  0  0
  146.4120   73.3910  217.7620 O   0  0  0  0  0  0  0  0  0  0  0  0
  144.2680   73.2940  218.8840 C   0  0  0  0  0  0  0  0  0  0  0  0
  142.1688   78.1394  219.8148 H   0  0  0  0  0  0  0  0  0  0  0  0
  139.5333   79.6457  222.8555 H   0  0  0  0  0  0  0  0  0  0  0  0
  138.9289   77.3090  223.5103 H   0  0  0  0  0  0  0  0  0  0  0  0
  139.2530   72.3028  221.5435 H   0  0  0  0  0  0  0  0  0  0  0  0
  141.7323   72.4232  223.2583 H   0  0  0  0  0  0  0  0  0  0  0  0
  138.1954   71.0474  222.8651 H   0  0  0  0  0  0  0  0  0  0  0  0
  137.1864   69.4482  224.4332 H   0  0  0  0  0  0  0  0  0  0  0  0
  138.3971   68.6956  226.4680 H   0  0  0  0  0  0  0  0  0  0  0  0
  140.6958   69.6089  226.8863 H   0  0  0  0  0  0  0  0  0  0  0  0
  141.6826   71.1974  225.3184 H   0  0  0  0  0  0  0  0  0  0  0  0
  141.6313   72.2597  220.3603 H   0  0  0  0  0  0  0  0  0  0  0  0
  141.7803   73.3340  218.8791 H   0  0  0  0  0  0  0  0  0  0  0  0
  143.6386   72.9471  222.1611 H   0  0  0  0  0  0  0  0  0  0  0  0
  146.1070   72.9108  222.2201 H   0  0  0  0  0  0  0  0  0  0  0  0
  147.4347   73.1228  220.1258 H   0  0  0  0  0  0  0  0  0  0  0  0
  146.5200   74.2930  217.3630 H   0  0  0  0  0  0  0  0  0  0  0  0
  143.7626   73.4036  217.9132 H   0  0  0  0  0  0  0  0  0  0  0  0
  1  2  2  0
  2  3  1  0
  3  4  2  0
  4  5  1  0
  5  6  1  0
  5  7  2  0
  7  8  1  0
  8  9  2  0
  9 10  1  0
 10 11  2  0
 11 12  1  0
 12 13  2  0
 13 14  1  0
 14 15  2  0
 15 16  1  0
 16 17  2  0
 17 18  1  0
 18 19  2  0
 11 20  1  0
 20 21  1  0
 21 22  1  0
 22 23  2  0
 23 24  1  0
 24 25  2  0
 25 26  1  0
 26 27  1  0
 26 28  2  0
 20  2  1  0
 28 22  1  0
  9  3  1  0
 19 14  1  0
  4 29  1  0
  7 30  1  0
  8 31  1  0
 12 32  1  0
 13 33  1  0
 15 34  1  0
 16 35  1  0
 17 36  1  0
 18 37  1  0
 19 38  1  0
 21 39  1  0
 21 40  1  0
 23 41  1  0
 24 42  1  0
 25 43  1  0
 27 44  1  0
 28 45  1  0
M  END
>  <smiles>  (23) 
O=c1c2cc(F)ccc2nc(/C=C/c2ccccc2)n1Cc1cccc(O)c1

>  <score_type>  (23) 
oracle

>  <origin>  (23) 
autodockgpu

>  <m_score__min__energy>  (23) 
-8.6300000000000008

>  <m_primary>  (23) 
energy

>  <rmsd>  (23) 
7.876536566280078

>  <m_score__min__rmsd>  (23) 
7.876536566280078

>  <meeko>  (23) 
{"free_energy": -7.65, "intermolecular_energy": -9.44, "internal_energy": -1.02, "cluster_size": 13, "cluster_id": 1, "rank_in_cluster": 8}

>  <energy>  (23) 
-6.96

>  <cluster_rmsd>  (23) 
0.19

>  <cluster>  (23) 
3

$$$$

     RDKit          3D

 45 48  0  0  0  0  0  0  0  0999 V2000
  142.0530   74.2220  218.5150 O   0  0  0  0  0  0  0  0  0  0  0  0
  141.6320   74.1300  219.6820 C   0  0  0  0  0  0  0  0  0  0  0  0
  141.4410   75.3430  220.3560 C   0  0  0  0  0  0  0  0  0  0  0  0
  141.7170   76.5440  219.7290 C   0  0  0  0  0  0  0  0  0  0  0  0
  141.5300   77.7470  220.3970 C   0  0  0  0  0  0  0  0  0  0  0  0
  141.8130   78.9130  219.7470 F   0  0  0  0  0  0  0  0  0  0  0  0
  141.0620   77.7330  221.6990 C   0  0  0  0  0  0  0  0  0  0  0  0
  140.7780   76.5350  222.3500 C   0  0  0  0  0  0  0  0  0  0  0  0
  140.9760   75.3630  221.6550 C   0  0  0  0  0  0  0  0  0  0  0  0
  140.7220   74.1680  222.2180 N   0  0  0  0  0  0  0  0  0  0  0  0
  140.9090   73.0000  221.5570 C   0  0  0  0  0  0  0  0  0  0  0  0
  140.5670   71.7860  222.2920 C   0  0  0  0  0  0  0  0  0  0  0  0
  139.8550   71.8480  223.3980 C   0  0  0  0  0  0  0  0  0  0  0  0
  140.1900   71.1590  224.6320 C   0  0  0  0  0  0  0  0  0  0  0  0
  139.9990   69.8100  224.8360 C   0  0  0  0  0  0  0  0  0  0  0  0
  140.3370   69.2100  226.0350 C   0  0  0  0  0  0  0  0  0  0  0  0
  140.8790   69.9270  227.0820 C   0  0  0  0  0  0  0  0  0  0  0  0
  141.0770   71.2860  226.8900 C   0  0  0  0  0  0  0  0  0  0  0  0
  140.7350   71.8640  225.6970 C   0  0  0  0  0  0  0  0  0  0  0  0
  141.3610   72.9430  220.2920 N   0  0  0  0  0  0  0  0  0  0  0  0
  141.5970   71.7100  219.5760 C   0  0  0  0  0  0  0  0  0  0  0  0
  143.0190   71.3360  219.4480 C   0  0  0  0  0  0  0  0  0  0  0  0
  143.4970   70.0480  219.4740 C   0  0  0  0  0  0  0  0  0  0  0  0
  144.8570   69.7480  219.3420 C   0  0  0  0  0  0  0  0  0  0  0  0
  145.7900   70.7440  219.1800 C   0  0  0  0  0  0  0  0  0  0  0  0
  145.3270   72.0400  219.1510 C   0  0  0  0  0  0  0  0  0  0  0  0
  146.2870   73.0390  218.9850 O   0  0  0  0  0  0  0  0  0  0  0  0
  143.9890   72.3350  219.2800 C   0  0  0  0  0  0  0  0  0  0  0  0
  142.0875   76.5466  218.6933 H   0  0  0  0  0  0  0  0  0  0  0  0
  140.9116   78.6849  222.2293 H   0  0  0  0  0  0  0  0  0  0  0  0
  140.4076   76.5254  223.3857 H   0  0  0  0  0  0  0  0  0  0  0  0
  140.9076   70.8092  221.9181 H   0  0  0  0  0  0  0  0  0  0  0  0
  138.9437   72.4640  223.3866 H   0  0  0  0  0  0  0  0  0  0  0  0
  139.5691   69.1982  224.0292 H   0  0  0  0  0  0  0  0  0  0  0  0
  140.1690   68.1299  226.1578 H   0  0  0  0  0  0  0  0  0  0  0  0
  141.1437   69.4396  228.0319 H   0  0  0  0  0  0  0  0  0  0  0  0
  141.5083   71.8988  227.6952 H   0  0  0  0  0  0  0  0  0  0  0  0
  140.9008   72.9446  225.5756 H   0  0  0  0  0  0  0  0  0  0  0  0
  141.0757   70.8998  220.1069 H   0  0  0  0  0  0  0  0  0  0  0  0
  141.2228   71.8669  218.5536 H   0  0  0  0  0  0  0  0  0  0  0  0
  142.7830   69.2213  219.6036 H   0  0  0  0  0  0  0  0  0  0  0  0
  145.1848   68.6983  219.3683 H   0  0  0  0  0  0  0  0  0  0  0  0
  146.8611   70.5153  219.0778 H   0  0  0  0  0  0  0  0  0  0  0  0
  145.9730   73.9560  218.7710 H   0  0  0  0  0  0  0  0  0  0  0  0
  143.6703   73.3874  219.2504 H   0  0  0  0  0  0  0  0  0  0  0  0
  1  2  2  0
  2  3  1  0
  3  4  2  0
  4  5  1  0
  5  6  1  0
  5  7  2  0
  7  8  1  0
  8  9  2  0
  9 10  1  0
 10 11  2  0
 11 12  1  0
 12 13  2  0
 13 14  1  0
 14 15  2  0
 15 16  1  0
 16 17  2  0
 17 18  1  0
 18 19  2  0
 11 20  1  0
 20 21  1  0
 21 22  1  0
 22 23  2  0
 23 24  1  0
 24 25  2  0
 25 26  1  0
 26 27  1  0
 26 28  2  0
 20  2  1  0
 28 22  1  0
  9  3  1  0
 19 14  1  0
  4 29  1  0
  7 30  1  0
  8 31  1  0
 12 32  1  0
 13 33  1  0
 15 34  1  0
 16 35  1  0
 17 36  1  0
 18 37  1  0
 19 38  1  0
 21 39  1  0
 21 40  1  0
 23 41  1  0
 24 42  1  0
 25 43  1  0
 27 44  1  0
 28 45  1  0
M  END
>  <smiles>  (24) 
O=c1c2cc(F)ccc2nc(/C=C/c2ccccc2)n1Cc1cccc(O)c1

>  <score_type>  (24) 
oracle

>  <origin>  (24) 
autodockgpu

>  <m_score__min__energy>  (24) 
-8.6300000000000008

>  <m_primary>  (24) 
energy

>  <rmsd>  (24) 
9.02131770192911

>  <m_score__min__rmsd>  (24) 
9.02131770192911

>  <meeko>  (24) 
{"free_energy": -7.76, "intermolecular_energy": -9.55, "internal_energy": -0.8, "cluster_size": 13, "cluster_id": 1, "rank_in_cluster": 5}

>  <energy>  (24) 
-7.1

>  <cluster_rmsd>  (24) 
0.0

>  <cluster>  (24) 
4

$$$$

     RDKit          3D

 45 48  0  0  0  0  0  0  0  0999 V2000
  139.8950   74.8140  221.9780 O   0  0  0  0  0  0  0  0  0  0  0  0
  140.4620   75.6730  221.2790 C   0  0  0  0  0  0  0  0  0  0  0  0
  141.7320   75.3240  220.8000 C   0  0  0  0  0  0  0  0  0  0  0  0
  142.2840   74.0940  221.1090 C   0  0  0  0  0  0  0  0  0  0  0  0
  143.5430   73.7480  220.6350 C   0  0  0  0  0  0  0  0  0  0  0  0
  144.0550   72.5260  220.9610 F   0  0  0  0  0  0  0  0  0  0  0  0
  144.2410   74.6460  219.8480 C   0  0  0  0  0  0  0  0  0  0  0  0
  143.7040   75.8900  219.5250 C   0  0  0  0  0  0  0  0  0  0  0  0
  142.4540   76.1980  220.0130 C   0  0  0  0  0  0  0  0  0  0  0  0
  141.8710   77.3790  219.7410 N   0  0  0  0  0  0  0  0  0  0  0  0
  140.6410   77.7070  220.2080 C   0  0  0  0  0  0  0  0  0  0  0  0
  140.1330   79.0150  219.8090 C   0  0  0  0  0  0  0  0  0  0  0  0
  140.7940   80.1140  220.1080 C   0  0  0  0  0  0  0  0  0  0  0  0
  141.4550   80.3570  221.3780 C   0  0  0  0  0  0  0  0  0  0  0  0
  142.2940   79.4540  221.9940 C   0  0  0  0  0  0  0  0  0  0  0  0
  142.8960   79.7430  223.2040 C   0  0  0  0  0  0  0  0  0  0  0  0
  142.6880   80.9410  223.8540 C   0  0  0  0  0  0  0  0  0  0  0  0
  141.8460   81.8600  223.2460 C   0  0  0  0  0  0  0  0  0  0  0  0
  141.2580   81.5580  222.0470 C   0  0  0  0  0  0  0  0  0  0  0  0
  139.9110   76.8810  220.9780 N   0  0  0  0  0  0  0  0  0  0  0  0
  138.6120   77.2180  221.5140 C   0  0  0  0  0  0  0  0  0  0  0  0
  138.5960   78.4140  222.3790 C   0  0  0  0  0  0  0  0  0  0  0  0
  139.4610   78.6410  223.4220 C   0  0  0  0  0  0  0  0  0  0  0  0
  139.4040   79.7960  224.2070 C   0  0  0  0  0  0  0  0  0  0  0  0
  138.4660   80.7710  223.9670 C   0  0  0  0  0  0  0  0  0  0  0  0
  137.5920   80.5610  222.9250 C   0  0  0  0  0  0  0  0  0  0  0  0
  136.6460   81.5600  222.6940 O   0  0  0  0  0  0  0  0  0  0  0  0
  137.6480   79.4230  222.1510 C   0  0  0  0  0  0  0  0  0  0  0  0
  141.7220   73.3848  221.7345 H   0  0  0  0  0  0  0  0  0  0  0  0
  145.2375   74.3731  219.4706 H   0  0  0  0  0  0  0  0  0  0  0  0
  144.2609   76.6036  218.8999 H   0  0  0  0  0  0  0  0  0  0  0  0
  139.1870   79.0841  219.2520 H   0  0  0  0  0  0  0  0  0  0  0  0
  140.8493   80.9024  219.3429 H   0  0  0  0  0  0  0  0  0  0  0  0
  142.4885   78.4840  221.5132 H   0  0  0  0  0  0  0  0  0  0  0  0
  143.5605   78.9954  223.6618 H   0  0  0  0  0  0  0  0  0  0  0  0
  143.1713   81.1594  224.8177 H   0  0  0  0  0  0  0  0  0  0  0  0
  141.6508   82.8301  223.7263 H   0  0  0  0  0  0  0  0  0  0  0  0
  140.5943   82.3063  221.5893 H   0  0  0  0  0  0  0  0  0  0  0  0
  137.9283   77.3952  220.6707 H   0  0  0  0  0  0  0  0  0  0  0  0
  138.3064   76.3715  222.1465 H   0  0  0  0  0  0  0  0  0  0  0  0
  140.2275   77.8850  223.6478 H   0  0  0  0  0  0  0  0  0  0  0  0
  140.1217   79.9266  225.0303 H   0  0  0  0  0  0  0  0  0  0  0  0
  138.4158   81.6815  224.5822 H   0  0  0  0  0  0  0  0  0  0  0  0
  136.7520   82.1230  221.8840 H   0  0  0  0  0  0  0  0  0  0  0  0
  136.9274   79.3015  221.3289 H   0  0  0  0  0  0  0  0  0  0  0  0
  1  2  2  0
  2  3  1  0
  3  4  2  0
  4  5  1  0
  5  6  1  0
  5  7  2  0
  7  8  1  0
  8  9  2  0
  9 10  1  0
 10 11  2  0
 11 12  1  0
 12 13  2  0
 13 14  1  0
 14 15  2  0
 15 16  1  0
 16 17  2  0
 17 18  1  0
 18 19  2  0
 11 20  1  0
 20 21  1  0
 21 22  1  0
 22 23  2  0
 23 24  1  0
 24 25  2  0
 25 26  1  0
 26 27  1  0
 26 28  2  0
 20  2  1  0
 28 22  1  0
  9  3  1  0
 19 14  1  0
  4 29  1  0
  7 30  1  0
  8 31  1  0
 12 32  1  0
 13 33  1  0
 15 34  1  0
 16 35  1  0
 17 36  1  0
 18 37  1  0
 19 38  1  0
 21 39  1  0
 21 40  1  0
 23 41  1  0
 24 42  1  0
 25 43  1  0
 27 44  1  0
 28 45  1  0
M  END
>  <smiles>  (25) 
O=c1c2cc(F)ccc2nc(/C=C/c2ccccc2)n1Cc1cccc(O)c1

>  <score_type>  (25) 
oracle

>  <origin>  (25) 
autodockgpu

>  <m_score__min__energy>  (25) 
-8.6300000000000008

>  <m_primary>  (25) 
energy

>  <rmsd>  (25) 
3.868449633081507

>  <m_score__min__rmsd>  (25) 
3.868449633081507

>  <meeko>  (25) 
{"free_energy": -6.28, "intermolecular_energy": -8.07, "internal_energy": -1.89, "cluster_size": 2, "cluster_id": 9, "rank_in_cluster": 1}

>  <energy>  (25) 
-7.09

>  <cluster_rmsd>  (25) 
0.24

>  <cluster>  (25) 
4

$$$$

     RDKit          3D

 45 48  0  0  0  0  0  0  0  0999 V2000
  136.0150   72.8680  222.2920 O   0  0  0  0  0  0  0  0  0  0  0  0
  137.0410   72.2200  222.5710 C   0  0  0  0  0  0  0  0  0  0  0  0
  138.2560   72.8390  222.2490 C   0  0  0  0  0  0  0  0  0  0  0  0
  138.2710   74.0900  221.6600 C   0  0  0  0  0  0  0  0  0  0  0  0
  139.4760   74.7030  221.3410 C   0  0  0  0  0  0  0  0  0  0  0  0
  139.4520   75.9370  220.7600 F   0  0  0  0  0  0  0  0  0  0  0  0
  140.6640   74.0500  221.6200 C   0  0  0  0  0  0  0  0  0  0  0  0
  140.6710   72.7900  222.2130 C   0  0  0  0  0  0  0  0  0  0  0  0
  139.4570   72.2140  222.5140 C   0  0  0  0  0  0  0  0  0  0  0  0
  139.3870   71.0000  223.0890 N   0  0  0  0  0  0  0  0  0  0  0  0
  138.2050   70.4100  223.3970 C   0  0  0  0  0  0  0  0  0  0  0  0
  138.2910   69.1020  224.0380 C   0  0  0  0  0  0  0  0  0  0  0  0
  138.3080   68.9960  225.3500 C   0  0  0  0  0  0  0  0  0  0  0  0
  139.2550   69.6720  226.2190 C   0  0  0  0  0  0  0  0  0  0  0  0
  139.8720   70.8630  225.9040 C   0  0  0  0  0  0  0  0  0  0  0  0
  140.7670   71.4600  226.7730 C   0  0  0  0  0  0  0  0  0  0  0  0
  141.0860   70.8970  227.9910 C   0  0  0  0  0  0  0  0  0  0  0  0
  140.4710   69.6980  228.3210 C   0  0  0  0  0  0  0  0  0  0  0  0
  139.5880   69.1210  227.4490 C   0  0  0  0  0  0  0  0  0  0  0  0
  137.0160   70.9890  223.1520 N   0  0  0  0  0  0  0  0  0  0  0  0
  135.7450   70.3690  223.4420 C   0  0  0  0  0  0  0  0  0  0  0  0
  135.1360   70.7830  224.7210 C   0  0  0  0  0  0  0  0  0  0  0  0
  134.8560   69.9380  225.7670 C   0  0  0  0  0  0  0  0  0  0  0  0
  134.2820   70.3850  226.9620 C   0  0  0  0  0  0  0  0  0  0  0  0
  133.9680   71.7100  227.1450 C   0  0  0  0  0  0  0  0  0  0  0  0
  134.2430   72.5710  226.1060 C   0  0  0  0  0  0  0  0  0  0  0  0
  133.9170   73.9130  226.3080 O   0  0  0  0  0  0  0  0  0  0  0  0
  134.8080   72.1300  224.9310 C   0  0  0  0  0  0  0  0  0  0  0  0
  137.3226   74.6030  221.4427 H   0  0  0  0  0  0  0  0  0  0  0  0
  141.6191   74.5346  221.3690 H   0  0  0  0  0  0  0  0  0  0  0  0
  141.6157   72.2716  222.4338 H   0  0  0  0  0  0  0  0  0  0  0  0
  138.3422   68.1947  223.4182 H   0  0  0  0  0  0  0  0  0  0  0  0
  137.5521   68.3503  225.8210 H   0  0  0  0  0  0  0  0  0  0  0  0
  139.6483   71.3485  224.9426 H   0  0  0  0  0  0  0  0  0  0  0  0
  141.2380   72.4113  226.4845 H   0  0  0  0  0  0  0  0  0  0  0  0
  141.8002   71.3799  228.6742 H   0  0  0  0  0  0  0  0  0  0  0  0
  140.6928   69.2117  229.2824 H   0  0  0  0  0  0  0  0  0  0  0  0
  139.1170   68.1699  227.7381 H   0  0  0  0  0  0  0  0  0  0  0  0
  135.0464   70.6235  222.6313 H   0  0  0  0  0  0  0  0  0  0  0  0
  135.9369   69.2890  223.5238 H   0  0  0  0  0  0  0  0  0  0  0  0
  135.0921   68.8689  225.6611 H   0  0  0  0  0  0  0  0  0  0  0  0
  134.0789   69.6643  227.7678 H   0  0  0  0  0  0  0  0  0  0  0  0
  133.5161   72.0679  228.0818 H   0  0  0  0  0  0  0  0  0  0  0  0
  134.0550   74.5430  225.5540 H   0  0  0  0  0  0  0  0  0  0  0  0
  135.0087   72.8577  224.1309 H   0  0  0  0  0  0  0  0  0  0  0  0
  1  2  2  0
  2  3  1  0
  3  4  2  0
  4  5  1  0
  5  6  1  0
  5  7  2  0
  7  8  1  0
  8  9  2  0
  9 10  1  0
 10 11  2  0
 11 12  1  0
 12 13  2  0
 13 14  1  0
 14 15  2  0
 15 16  1  0
 16 17  2  0
 17 18  1  0
 18 19  2  0
 11 20  1  0
 20 21  1  0
 21 22  1  0
 22 23  2  0
 23 24  1  0
 24 25  2  0
 25 26  1  0
 26 27  1  0
 26 28  2  0
 20  2  1  0
 28 22  1  0
  9  3  1  0
 19 14  1  0
  4 29  1  0
  7 30  1  0
  8 31  1  0
 12 32  1  0
 13 33  1  0
 15 34  1  0
 16 35  1  0
 17 36  1  0
 18 37  1  0
 19 38  1  0
 21 39  1  0
 21 40  1  0
 23 41  1  0
 24 42  1  0
 25 43  1  0
 27 44  1  0
 28 45  1  0
M  END
>  <smiles>  (26) 
O=c1c2cc(F)ccc2nc(/C=C/c2ccccc2)n1Cc1cccc(O)c1

>  <score_type>  (26) 
oracle

>  <origin>  (26) 
autodockgpu

>  <m_score__min__energy>  (26) 
-8.6300000000000008

>  <m_primary>  (26) 
energy

>  <rmsd>  (26) 
9.886464256526379

>  <m_score__min__rmsd>  (26) 
9.886464256526379

>  <meeko>  (26) 
{"free_energy": -6.72, "intermolecular_energy": -8.51, "internal_energy": -1.36, "cluster_size": 4, "cluster_id": 4, "rank_in_cluster": 4}

>  <energy>  (26) 
-7.09

>  <cluster_rmsd>  (26) 
0.16

>  <cluster>  (26) 
4

$$$$

     RDKit          3D

 45 48  0  0  0  0  0  0  0  0999 V2000
  139.8330   74.7530  221.9620 O   0  0  0  0  0  0  0  0  0  0  0  0
  140.4260   75.6030  221.2720 C   0  0  0  0  0  0  0  0  0  0  0  0
  141.6940   75.2290  220.8070 C   0  0  0  0  0  0  0  0  0  0  0  0
  142.2160   73.9870  221.1170 C   0  0  0  0  0  0  0  0  0  0  0  0
  143.4720   73.6160  220.6560 C   0  0  0  0  0  0  0  0  0  0  0  0
  143.9550   72.3820  220.9820 F   0  0  0  0  0  0  0  0  0  0  0  0
  144.1990   74.5020  219.8800 C   0  0  0  0  0  0  0  0  0  0  0  0
  143.6920   75.7580  219.5570 C   0  0  0  0  0  0  0  0  0  0  0  0
  142.4430   76.0910  220.0320 C   0  0  0  0  0  0  0  0  0  0  0  0
  141.8880   77.2850  219.7580 N   0  0  0  0  0  0  0  0  0  0  0  0
  140.6610   77.6370  220.2130 C   0  0  0  0  0  0  0  0  0  0  0  0
  140.1850   78.9570  219.8140 C   0  0  0  0  0  0  0  0  0  0  0  0
  140.9150   80.0310  220.0340 C   0  0  0  0  0  0  0  0  0  0  0  0
  141.4900   80.3860  221.3200 C   0  0  0  0  0  0  0  0  0  0  0  0
  141.2720   81.5900  221.9530 C   0  0  0  0  0  0  0  0  0  0  0  0
  141.8480   81.8720  223.1780 C   0  0  0  0  0  0  0  0  0  0  0  0
  142.6650   80.9680  223.8240 C   0  0  0  0  0  0  0  0  0  0  0  0
  142.8920   79.7510  223.1990 C   0  0  0  0  0  0  0  0  0  0  0  0
  142.3140   79.4890  221.9860 C   0  0  0  0  0  0  0  0  0  0  0  0
  139.9040   76.8240  220.9710 N   0  0  0  0  0  0  0  0  0  0  0  0
  138.6070   77.1860  221.4930 C   0  0  0  0  0  0  0  0  0  0  0  0
  138.6040   78.3840  222.3560 C   0  0  0  0  0  0  0  0  0  0  0  0
  139.4960   78.6200  223.3740 C   0  0  0  0  0  0  0  0  0  0  0  0
  139.4520   79.7760  224.1590 C   0  0  0  0  0  0  0  0  0  0  0  0
  138.4990   80.7430  223.9440 C   0  0  0  0  0  0  0  0  0  0  0  0
  137.5980   80.5230  222.9270 C   0  0  0  0  0  0  0  0  0  0  0  0
  136.6380   81.5130  222.7220 O   0  0  0  0  0  0  0  0  0  0  0  0
  137.6430   79.3840  222.1540 C   0  0  0  0  0  0  0  0  0  0  0  0
  141.6321   73.2876  221.7334 H   0  0  0  0  0  0  0  0  0  0  0  0
  145.1936   74.2092  219.5124 H   0  0  0  0  0  0  0  0  0  0  0  0
  144.2711   76.4623  218.9416 H   0  0  0  0  0  0  0  0  0  0  0  0
  139.2053   79.0565  219.3238 H   0  0  0  0  0  0  0  0  0  0  0  0
  141.1022   80.7056  219.1856 H   0  0  0  0  0  0  0  0  0  0  0  0
  140.6271   82.3417  221.4745 H   0  0  0  0  0  0  0  0  0  0  0  0
  141.6489   82.8451  223.6507 H   0  0  0  0  0  0  0  0  0  0  0  0
  143.1192   81.2033  224.7978 H   0  0  0  0  0  0  0  0  0  0  0  0
  143.5353   78.9976  223.6771 H   0  0  0  0  0  0  0  0  0  0  0  0
  142.5131   78.5157  221.5138 H   0  0  0  0  0  0  0  0  0  0  0  0
  137.9352   77.3742  220.6425 H   0  0  0  0  0  0  0  0  0  0  0  0
  138.2797   76.3465  222.1240 H   0  0  0  0  0  0  0  0  0  0  0  0
  140.2747   77.8706  223.5792 H   0  0  0  0  0  0  0  0  0  0  0  0
  140.1917   79.9139  224.9614 H   0  0  0  0  0  0  0  0  0  0  0  0
  138.4581   81.6542  224.5588 H   0  0  0  0  0  0  0  0  0  0  0  0
  136.9370   82.3810  222.3460 H   0  0  0  0  0  0  0  0  0  0  0  0
  136.9009   79.2550  221.3524 H   0  0  0  0  0  0  0  0  0  0  0  0
  1  2  2  0
  2  3  1  0
  3  4  2  0
  4  5  1  0
  5  6  1  0
  5  7  2  0
  7  8  1  0
  8  9  2  0
  9 10  1  0
 10 11  2  0
 11 12  1  0
 12 13  2  0
 13 14  1  0
 14 15  2  0
 15 16  1  0
 16 17  2  0
 17 18  1  0
 18 19  2  0
 11 20  1  0
 20 21  1  0
 21 22  1  0
 22 23  2  0
 23 24  1  0
 24 25  2  0
 25 26  1  0
 26 27  1  0
 26 28  2  0
 20  2  1  0
 28 22  1  0
  9  3  1  0
 19 14  1  0
  4 29  1  0
  7 30  1  0
  8 31  1  0
 12 32  1  0
 13 33  1  0
 15 34  1  0
 16 35  1  0
 17 36  1  0
 18 37  1  0
 19 38  1  0
 21 39  1  0
 21 40  1  0
 23 41  1  0
 24 42  1  0
 25 43  1  0
 27 44  1  0
 28 45  1  0
M  END
>  <smiles>  (27) 
O=c1c2cc(F)ccc2nc(/C=C/c2ccccc2)n1Cc1cccc(O)c1

>  <score_type>  (27) 
oracle

>  <origin>  (27) 
autodockgpu

>  <m_score__min__energy>  (27) 
-8.6300000000000008

>  <m_primary>  (27) 
energy

>  <rmsd>  (27) 
3.880346439547567

>  <m_score__min__rmsd>  (27) 
3.880346439547567

>  <meeko>  (27) 
{"free_energy": -6.28, "intermolecular_energy": -8.07, "internal_energy": -1.91, "cluster_size": 2, "cluster_id": 9, "rank_in_cluster": 2}

>  <energy>  (27) 
-6.72

>  <cluster_rmsd>  (27) 
0.59

>  <cluster>  (27) 
4

$$$$

     RDKit          3D

 45 48  0  0  0  0  0  0  0  0999 V2000
  135.8100   72.8070  222.4120 O   0  0  0  0  0  0  0  0  0  0  0  0
  136.8570   72.1990  222.7010 C   0  0  0  0  0  0  0  0  0  0  0  0
  138.0500   72.8340  222.3300 C   0  0  0  0  0  0  0  0  0  0  0  0
  138.0210   74.0560  221.6830 C   0  0  0  0  0  0  0  0  0  0  0  0
  139.2030   74.6850  221.3140 C   0  0  0  0  0  0  0  0  0  0  0  0
  139.1360   75.8900  220.6770 F   0  0  0  0  0  0  0  0  0  0  0  0
  140.4130   74.0780  221.6010 C   0  0  0  0  0  0  0  0  0  0  0  0
  140.4640   72.8470  222.2500 C   0  0  0  0  0  0  0  0  0  0  0  0
  139.2720   72.2540  222.6010 C   0  0  0  0  0  0  0  0  0  0  0  0
  139.2440   71.0670  223.2320 N   0  0  0  0  0  0  0  0  0  0  0  0
  138.0850   70.4610  223.5880 C   0  0  0  0  0  0  0  0  0  0  0  0
  138.2170   69.1870  224.2870 C   0  0  0  0  0  0  0  0  0  0  0  0
  139.2810   68.9260  225.0170 C   0  0  0  0  0  0  0  0  0  0  0  0
  139.7990   69.7970  226.0570 C   0  0  0  0  0  0  0  0  0  0  0  0
  139.4960   69.6630  227.3940 C   0  0  0  0  0  0  0  0  0  0  0  0
  140.0210   70.5240  228.3400 C   0  0  0  0  0  0  0  0  0  0  0  0
  140.8680   71.5560  227.9950 C   0  0  0  0  0  0  0  0  0  0  0  0
  141.1830   71.7030  226.6520 C   0  0  0  0  0  0  0  0  0  0  0  0
  140.6540   70.8420  225.7290 C   0  0  0  0  0  0  0  0  0  0  0  0
  136.8760   70.9960  223.3390 N   0  0  0  0  0  0  0  0  0  0  0  0
  135.6270   70.3570  223.6810 C   0  0  0  0  0  0  0  0  0  0  0  0
  135.0500   70.7850  224.9710 C   0  0  0  0  0  0  0  0  0  0  0  0
  134.8810   69.9690  226.0630 C   0  0  0  0  0  0  0  0  0  0  0  0
  134.3330   70.4280  227.2660 C   0  0  0  0  0  0  0  0  0  0  0  0
  133.9330   71.7340  227.4090 C   0  0  0  0  0  0  0  0  0  0  0  0
  134.0970   72.5650  226.3240 C   0  0  0  0  0  0  0  0  0  0  0  0
  133.6860   73.8890  226.4870 O   0  0  0  0  0  0  0  0  0  0  0  0
  134.6370   72.1140  225.1410 C   0  0  0  0  0  0  0  0  0  0  0  0
  137.0554   74.5329  221.4592 H   0  0  0  0  0  0  0  0  0  0  0  0
  141.3501   74.5762  221.3117 H   0  0  0  0  0  0  0  0  0  0  0  0
  141.4261   72.3637  222.4751 H   0  0  0  0  0  0  0  0  0  0  0  0
  137.4179   68.4357  224.2030 H   0  0  0  0  0  0  0  0  0  0  0  0
  139.8144   67.9831  224.8260 H   0  0  0  0  0  0  0  0  0  0  0  0
  138.8228   68.8547  227.7156 H   0  0  0  0  0  0  0  0  0  0  0  0
  139.7554   70.3817  229.3979 H   0  0  0  0  0  0  0  0  0  0  0  0
  141.2782   72.2366  228.7556 H   0  0  0  0  0  0  0  0  0  0  0  0
  141.8569   72.5103  226.3294 H   0  0  0  0  0  0  0  0  0  0  0  0
  140.9199   70.9849  224.6712 H   0  0  0  0  0  0  0  0  0  0  0  0
  134.8984   70.5815  222.8880 H   0  0  0  0  0  0  0  0  0  0  0  0
  135.8429   69.2827  223.7774 H   0  0  0  0  0  0  0  0  0  0  0  0
  135.1879   68.9153  225.9891 H   0  0  0  0  0  0  0  0  0  0  0  0
  134.2209   69.7319  228.1103 H   0  0  0  0  0  0  0  0  0  0  0  0
  133.4997   72.1006  228.3512 H   0  0  0  0  0  0  0  0  0  0  0  0
  133.6090   74.4550  225.6760 H   0  0  0  0  0  0  0  0  0  0  0  0
  134.7479   72.8180  224.3031 H   0  0  0  0  0  0  0  0  0  0  0  0
  1  2  2  0
  2  3  1  0
  3  4  2  0
  4  5  1  0
  5  6  1  0
  5  7  2  0
  7  8  1  0
  8  9  2  0
  9 10  1  0
 10 11  2  0
 11 12  1  0
 12 13  2  0
 13 14  1  0
 14 15  2  0
 15 16  1  0
 16 17  2  0
 17 18  1  0
 18 19  2  0
 11 20  1  0
 20 21  1  0
 21 22  1  0
 22 23  2  0
 23 24  1  0
 24 25  2  0
 25 26  1  0
 26 27  1  0
 26 28  2  0
 20  2  1  0
 28 22  1  0
  9  3  1  0
 19 14  1  0
  4 29  1  0
  7 30  1  0
  8 31  1  0
 12 32  1  0
 13 33  1  0
 15 34  1  0
 16 35  1  0
 17 36  1  0
 18 37  1  0
 19 38  1  0
 21 39  1  0
 21 40  1  0
 23 41  1  0
 24 42  1  0
 25 43  1  0
 27 44  1  0
 28 45  1  0
M  END
>  <smiles>  (28) 
O=c1c2cc(F)ccc2nc(/C=C/c2ccccc2)n1Cc1cccc(O)c1

>  <score_type>  (28) 
oracle

>  <origin>  (28) 
autodockgpu

>  <m_score__min__energy>  (28) 
-8.6300000000000008

>  <m_primary>  (28) 
energy

>  <rmsd>  (28) 
9.977127393750019

>  <m_score__min__rmsd>  (28) 
9.977127393750019

>  <meeko>  (28) 
{"free_energy": -7.09, "intermolecular_energy": -8.88, "internal_energy": -1.41, "cluster_size": 4, "cluster_id": 4, "rank_in_cluster": 2}

>  <energy>  (28) 
-7.07

>  <cluster_rmsd>  (28) 
0.0

>  <cluster>  (28) 
5

$$$$

     RDKit          3D

 45 48  0  0  0  0  0  0  0  0999 V2000
  141.4580   71.0980  221.3720 O   0  0  0  0  0  0  0  0  0  0  0  0
  141.4360   72.3420  221.3370 C   0  0  0  0  0  0  0  0  0  0  0  0
  142.5710   72.9540  220.7880 C   0  0  0  0  0  0  0  0  0  0  0  0
  143.6270   72.1880  220.3280 C   0  0  0  0  0  0  0  0  0  0  0  0
  144.7520   72.7940  219.7850 C   0  0  0  0  0  0  0  0  0  0  0  0
  145.7740   72.0060  219.3400 F   0  0  0  0  0  0  0  0  0  0  0  0
  144.8080   74.1740  219.7060 C   0  0  0  0  0  0  0  0  0  0  0  0
  143.7570   74.9640  220.1640 C   0  0  0  0  0  0  0  0  0  0  0  0
  142.6580   74.3280  220.6970 C   0  0  0  0  0  0  0  0  0  0  0  0
  141.6040   75.0250  221.1570 N   0  0  0  0  0  0  0  0  0  0  0  0
  140.5100   74.4240  221.6860 C   0  0  0  0  0  0  0  0  0  0  0  0
  139.4380   75.3130  222.1220 C   0  0  0  0  0  0  0  0  0  0  0  0
  139.3910   76.5630  221.7090 C   0  0  0  0  0  0  0  0  0  0  0  0
  139.9980   77.6840  222.4050 C   0  0  0  0  0  0  0  0  0  0  0  0
  141.3560   77.9100  222.4630 C   0  0  0  0  0  0  0  0  0  0  0  0
  141.8750   78.9960  223.1430 C   0  0  0  0  0  0  0  0  0  0  0  0
  141.0660   79.9020  223.7950 C   0  0  0  0  0  0  0  0  0  0  0  0
  139.6960   79.6880  223.7450 C   0  0  0  0  0  0  0  0  0  0  0  0
  139.1990   78.6070  223.0670 C   0  0  0  0  0  0  0  0  0  0  0  0
  140.3930   73.0880  221.7910 N   0  0  0  0  0  0  0  0  0  0  0  0
  139.2510   72.4250  222.3780 C   0  0  0  0  0  0  0  0  0  0  0  0
  139.5730   71.5330  223.5100 C   0  0  0  0  0  0  0  0  0  0  0  0
  140.3500   71.8820  224.5870 C   0  0  0  0  0  0  0  0  0  0  0  0
  140.6190   70.9980  225.6370 C   0  0  0  0  0  0  0  0  0  0  0  0
  140.1100   69.7220  225.6370 C   0  0  0  0  0  0  0  0  0  0  0  0
  139.3280   69.3570  224.5650 C   0  0  0  0  0  0  0  0  0  0  0  0
  138.8190   68.0580  224.5800 O   0  0  0  0  0  0  0  0  0  0  0  0
  139.0630   70.2270  223.5320 C   0  0  0  0  0  0  0  0  0  0  0  0
  143.5751   71.0911  220.3929 H   0  0  0  0  0  0  0  0  0  0  0  0
  145.6978   74.6552  219.2740 H   0  0  0  0  0  0  0  0  0  0  0  0
  143.8030   76.0613  220.1021 H   0  0  0  0  0  0  0  0  0  0  0  0
  138.6609   74.9353  222.8028 H   0  0  0  0  0  0  0  0  0  0  0  0
  138.8547   76.7724  220.7717 H   0  0  0  0  0  0  0  0  0  0  0  0
  142.0407   77.2125  221.9583 H   0  0  0  0  0  0  0  0  0  0  0  0
  142.9651   79.1414  223.1645 H   0  0  0  0  0  0  0  0  0  0  0  0
  141.4904   80.7617  224.3343 H   0  0  0  0  0  0  0  0  0  0  0  0
  139.0105   80.3853  224.2489 H   0  0  0  0  0  0  0  0  0  0  0  0
  138.1088   78.4620  223.0456 H   0  0  0  0  0  0  0  0  0  0  0  0
  138.5534   73.1962  222.7365 H   0  0  0  0  0  0  0  0  0  0  0  0
  138.8220   71.7875  221.5909 H   0  0  0  0  0  0  0  0  0  0  0  0
  140.7770   72.8950  224.6255 H   0  0  0  0  0  0  0  0  0  0  0  0
  141.2481   71.3298  226.4761 H   0  0  0  0  0  0  0  0  0  0  0  0
  140.3187   69.0216  226.4591 H   0  0  0  0  0  0  0  0  0  0  0  0
  139.1980   67.4010  223.9400 H   0  0  0  0  0  0  0  0  0  0  0  0
  138.4316   69.8873  222.6978 H   0  0  0  0  0  0  0  0  0  0  0  0
  1  2  2  0
  2  3  1  0
  3  4  2  0
  4  5  1  0
  5  6  1  0
  5  7  2  0
  7  8  1  0
  8  9  2  0
  9 10  1  0
 10 11  2  0
 11 12  1  0
 12 13  2  0
 13 14  1  0
 14 15  2  0
 15 16  1  0
 16 17  2  0
 17 18  1  0
 18 19  2  0
 11 20  1  0
 20 21  1  0
 21 22  1  0
 22 23  2  0
 23 24  1  0
 24 25  2  0
 25 26  1  0
 26 27  1  0
 26 28  2  0
 20  2  1  0
 28 22  1  0
  9  3  1  0
 19 14  1  0
  4 29  1  0
  7 30  1  0
  8 31  1  0
 12 32  1  0
 13 33  1  0
 15 34  1  0
 16 35  1  0
 17 36  1  0
 18 37  1  0
 19 38  1  0
 21 39  1  0
 21 40  1  0
 23 41  1  0
 24 42  1  0
 25 43  1  0
 27 44  1  0
 28 45  1  0
M  END
>  <smiles>  (29) 
O=c1c2cc(F)ccc2nc(/C=C/c2ccccc2)n1Cc1cccc(O)c1

>  <score_type>  (29) 
oracle

>  <origin>  (29) 
autodockgpu

>  <m_score__min__energy>  (29) 
-8.6300000000000008

>  <m_primary>  (29) 
energy

>  <rmsd>  (29) 
8.868598641837437

>  <m_score__min__rmsd>  (29) 
8.868598641837437

>  <meeko>  (29) 
{"free_energy": -7.24, "intermolecular_energy": -9.03, "internal_energy": -1.12, "cluster_size": 7, "cluster_id": 2, "rank_in_cluster": 2}

>  <energy>  (29) 
-6.72

>  <cluster_rmsd>  (29) 
0.99

>  <cluster>  (29) 
5

$$$$

     RDKit          3D

 45 48  0  0  0  0  0  0  0  0999 V2000
  140.1510   71.8930  225.1950 O   0  0  0  0  0  0  0  0  0  0  0  0
  139.6970   70.7470  225.0240 C   0  0  0  0  0  0  0  0  0  0  0  0
  140.0450   69.8040  226.0010 C   0  0  0  0  0  0  0  0  0  0  0  0
  140.8440   70.1660  227.0700 C   0  0  0  0  0  0  0  0  0  0  0  0
  141.1900   69.2320  228.0380 C   0  0  0  0  0  0  0  0  0  0  0  0
  141.9810   69.6240  229.0780 F   0  0  0  0  0  0  0  0  0  0  0  0
  140.7250   67.9340  227.9240 C   0  0  0  0  0  0  0  0  0  0  0  0
  139.9180   67.5490  226.8560 C   0  0  0  0  0  0  0  0  0  0  0  0
  139.5970   68.5020  225.9160 C   0  0  0  0  0  0  0  0  0  0  0  0
  138.8210   68.2040  224.8580 N   0  0  0  0  0  0  0  0  0  0  0  0
  138.4900   69.1230  223.9190 C   0  0  0  0  0  0  0  0  0  0  0  0
  137.6230   68.6550  222.8420 C   0  0  0  0  0  0  0  0  0  0  0  0
  136.3130   68.7500  222.9440 C   0  0  0  0  0  0  0  0  0  0  0  0
  135.6200   69.5080  223.9710 C   0  0  0  0  0  0  0  0  0  0  0  0
  135.0750   68.9470  225.1050 C   0  0  0  0  0  0  0  0  0  0  0  0
  134.4260   69.7210  226.0480 C   0  0  0  0  0  0  0  0  0  0  0  0
  134.2900   71.0860  225.9030 C   0  0  0  0  0  0  0  0  0  0  0  0
  134.8340   71.6640  224.7660 C   0  0  0  0  0  0  0  0  0  0  0  0
  135.4730   70.8830  223.8410 C   0  0  0  0  0  0  0  0  0  0  0  0
  138.9090   70.4000  223.9690 N   0  0  0  0  0  0  0  0  0  0  0  0
  138.5950   71.3900  222.9660 C   0  0  0  0  0  0  0  0  0  0  0  0
  139.7690   71.9620  222.2770 C   0  0  0  0  0  0  0  0  0  0  0  0
  140.6980   71.2340  221.5740 C   0  0  0  0  0  0  0  0  0  0  0  0
  141.7910   71.8290  220.9350 C   0  0  0  0  0  0  0  0  0  0  0  0
  141.9870   73.1880  220.9830 C   0  0  0  0  0  0  0  0  0  0  0  0
  141.0650   73.9320  221.6830 C   0  0  0  0  0  0  0  0  0  0  0  0
  141.2790   75.3100  221.7230 O   0  0  0  0  0  0  0  0  0  0  0  0
  139.9890   73.3470  222.3120 C   0  0  0  0  0  0  0  0  0  0  0  0
  141.2080   71.2006  227.1543 H   0  0  0  0  0  0  0  0  0  0  0  0
  140.9973   67.1931  228.6901 H   0  0  0  0  0  0  0  0  0  0  0  0
  139.5490   66.5166  226.7666 H   0  0  0  0  0  0  0  0  0  0  0  0
  138.0681   68.2184  221.9357 H   0  0  0  0  0  0  0  0  0  0  0  0
  135.7017   68.2184  222.1999 H   0  0  0  0  0  0  0  0  0  0  0  0
  135.1581   67.8616  225.2629 H   0  0  0  0  0  0  0  0  0  0  0  0
  134.0055   69.2344  226.9404 H   0  0  0  0  0  0  0  0  0  0  0  0
  133.7704   71.6922  226.6596 H   0  0  0  0  0  0  0  0  0  0  0  0
  134.7521   72.7494  224.6074 H   0  0  0  0  0  0  0  0  0  0  0  0
  135.8920   71.3699  222.9480 H   0  0  0  0  0  0  0  0  0  0  0  0
  137.9493   70.9194  222.2100 H   0  0  0  0  0  0  0  0  0  0  0  0
  138.1068   72.2231  223.4929 H   0  0  0  0  0  0  0  0  0  0  0  0
  140.5779   70.1424  221.5112 H   0  0  0  0  0  0  0  0  0  0  0  0
  142.5052   71.1985  220.3851 H   0  0  0  0  0  0  0  0  0  0  0  0
  142.8448   73.6614  220.4829 H   0  0  0  0  0  0  0  0  0  0  0  0
  142.1950   75.6340  221.9230 H   0  0  0  0  0  0  0  0  0  0  0  0
  139.2798   73.9856  222.8590 H   0  0  0  0  0  0  0  0  0  0  0  0
  1  2  2  0
  2  3  1  0
  3  4  2  0
  4  5  1  0
  5  6  1  0
  5  7  2  0
  7  8  1  0
  8  9  2  0
  9 10  1  0
 10 11  2  0
 11 12  1  0
 12 13  2  0
 13 14  1  0
 14 15  2  0
 15 16  1  0
 16 17  2  0
 17 18  1  0
 18 19  2  0
 11 20  1  0
 20 21  1  0
 21 22  1  0
 22 23  2  0
 23 24  1  0
 24 25  2  0
 25 26  1  0
 26 27  1  0
 26 28  2  0
 20  2  1  0
 28 22  1  0
  9  3  1  0
 19 14  1  0
  4 29  1  0
  7 30  1  0
  8 31  1  0
 12 32  1  0
 13 33  1  0
 15 34  1  0
 16 35  1  0
 17 36  1  0
 18 37  1  0
 19 38  1  0
 21 39  1  0
 21 40  1  0
 23 41  1  0
 24 42  1  0
 25 43  1  0
 27 44  1  0
 28 45  1  0
M  END
>  <smiles>  (30) 
O=c1c2cc(F)ccc2nc(/C=C/c2ccccc2)n1Cc1cccc(O)c1

>  <score_type>  (30) 
oracle

>  <origin>  (30) 
autodockgpu

>  <m_score__min__energy>  (30) 
-8.6300000000000008

>  <m_primary>  (30) 
energy

>  <rmsd>  (30) 
10.131502772958369

>  <m_score__min__rmsd>  (30) 
10.131502772958369

>  <meeko>  (30) 
{"free_energy": -6.82, "intermolecular_energy": -8.61, "internal_energy": -1.53, "cluster_size": 8, "cluster_id": 7, "rank_in_cluster": 8}

>  <energy>  (30) 
-6.72

>  <cluster_rmsd>  (30) 
1.03

>  <cluster>  (30) 
5

$$$$

     RDKit          3D

 45 48  0  0  0  0  0  0  0  0999 V2000
  142.8640   74.7950  220.0930 O   0  0  0  0  0  0  0  0  0  0  0  0
  141.9190   74.4150  220.8080 C   0  0  0  0  0  0  0  0  0  0  0  0
  141.0150   75.4120  221.1990 C   0  0  0  0  0  0  0  0  0  0  0  0
  141.1990   76.7220  220.7950 C   0  0  0  0  0  0  0  0  0  0  0  0
  140.3040   77.7100  221.1830 C   0  0  0  0  0  0  0  0  0  0  0  0
  140.5170   78.9920  220.7670 F   0  0  0  0  0  0  0  0  0  0  0  0
  139.2220   77.3710  221.9780 C   0  0  0  0  0  0  0  0  0  0  0  0
  139.0190   76.0580  222.3950 C   0  0  0  0  0  0  0  0  0  0  0  0
  139.9270   75.1060  221.9910 C   0  0  0  0  0  0  0  0  0  0  0  0
  139.7940   73.8180  222.3530 N   0  0  0  0  0  0  0  0  0  0  0  0
  140.6740   72.8610  221.9690 C   0  0  0  0  0  0  0  0  0  0  0  0
  140.3840   71.5050  222.4240 C   0  0  0  0  0  0  0  0  0  0  0  0
  139.5750   71.2950  223.4410 C   0  0  0  0  0  0  0  0  0  0  0  0
  140.0110   70.9580  224.7850 C   0  0  0  0  0  0  0  0  0  0  0  0
  139.7740   69.7430  225.3890 C   0  0  0  0  0  0  0  0  0  0  0  0
  140.2150   69.4810  226.6730 C   0  0  0  0  0  0  0  0  0  0  0  0
  140.9090   70.4170  227.4100 C   0  0  0  0  0  0  0  0  0  0  0  0
  141.1560   71.6450  226.8140 C   0  0  0  0  0  0  0  0  0  0  0  0
  140.7120   71.8880  225.5420 C   0  0  0  0  0  0  0  0  0  0  0  0
  141.7450   73.1230  221.1990 N   0  0  0  0  0  0  0  0  0  0  0  0
  142.7130   72.1270  220.8010 C   0  0  0  0  0  0  0  0  0  0  0  0
  144.0770   72.6480  220.5840 C   0  0  0  0  0  0  0  0  0  0  0  0
  144.9440   73.0210  221.5830 C   0  0  0  0  0  0  0  0  0  0  0  0
  146.2300   73.5040  221.3200 C   0  0  0  0  0  0  0  0  0  0  0  0
  146.6910   73.6290  220.0320 C   0  0  0  0  0  0  0  0  0  0  0  0
  145.8350   73.2590  219.0190 C   0  0  0  0  0  0  0  0  0  0  0  0
  146.3190   73.3920  217.7170 O   0  0  0  0  0  0  0  0  0  0  0  0
  144.5700   72.7830  219.2780 C   0  0  0  0  0  0  0  0  0  0  0  0
  142.0601   76.9828  220.1621 H   0  0  0  0  0  0  0  0  0  0  0  0
  138.5109   78.1520  222.2852 H   0  0  0  0  0  0  0  0  0  0  0  0
  138.1598   75.7901  223.0275 H   0  0  0  0  0  0  0  0  0  0  0  0
  140.8467   70.6488  221.9113 H   0  0  0  0  0  0  0  0  0  0  0  0
  138.4933   71.3807  223.2604 H   0  0  0  0  0  0  0  0  0  0  0  0
  139.2231   68.9658  224.8390 H   0  0  0  0  0  0  0  0  0  0  0  0
  140.0061   68.4976  227.1193 H   0  0  0  0  0  0  0  0  0  0  0  0
  141.2536   70.1984  228.4315 H   0  0  0  0  0  0  0  0  0  0  0  0
  141.7079   72.4224  227.3627 H   0  0  0  0  0  0  0  0  0  0  0  0
  140.9214   72.8715  225.0960 H   0  0  0  0  0  0  0  0  0  0  0  0
  142.7598   71.3602  221.5883 H   0  0  0  0  0  0  0  0  0  0  0  0
  142.3728   71.7310  219.8328 H   0  0  0  0  0  0  0  0  0  0  0  0
  144.6141   72.9365  222.6289 H   0  0  0  0  0  0  0  0  0  0  0  0
  146.8830   73.7884  222.1583 H   0  0  0  0  0  0  0  0  0  0  0  0
  147.7012   74.0086  219.8190 H   0  0  0  0  0  0  0  0  0  0  0  0
  146.3370   74.3000  217.3180 H   0  0  0  0  0  0  0  0  0  0  0  0
  143.9248   72.4993  218.4335 H   0  0  0  0  0  0  0  0  0  0  0  0
  1  2  2  0
  2  3  1  0
  3  4  2  0
  4  5  1  0
  5  6  1  0
  5  7  2  0
  7  8  1  0
  8  9  2  0
  9 10  1  0
 10 11  2  0
 11 12  1  0
 12 13  2  0
 13 14  1  0
 14 15  2  0
 15 16  1  0
 16 17  2  0
 17 18  1  0
 18 19  2  0
 11 20  1  0
 20 21  1  0
 21 22  1  0
 22 23  2  0
 23 24  1  0
 24 25  2  0
 25 26  1  0
 26 27  1  0
 26 28  2  0
 20  2  1  0
 28 22  1  0
  9  3  1  0
 19 14  1  0
  4 29  1  0
  7 30  1  0
  8 31  1  0
 12 32  1  0
 13 33  1  0
 15 34  1  0
 16 35  1  0
 17 36  1  0
 18 37  1  0
 19 38  1  0
 21 39  1  0
 21 40  1  0
 23 41  1  0
 24 42  1  0
 25 43  1  0
 27 44  1  0
 28 45  1  0
M  END
>  <smiles>  (31) 
O=c1c2cc(F)ccc2nc(/C=C/c2ccccc2)n1Cc1cccc(O)c1

>  <score_type>  (31) 
oracle

>  <origin>  (31) 
autodockgpu

>  <m_score__min__energy>  (31) 
-8.6300000000000008

>  <m_primary>  (31) 
energy

>  <rmsd>  (31) 
8.040214007123593

>  <m_score__min__rmsd>  (31) 
8.040214007123593

>  <meeko>  (31) 
{"free_energy": -8.63, "intermolecular_energy": -10.42, "internal_energy": -0.59, "cluster_size": 13, "cluster_id": 1, "rank_in_cluster": 1}

>  <energy>  (31) 
-6.7

>  <cluster_rmsd>  (31) 
1.05

>  <cluster>  (31) 
5

$$$$

     RDKit          3D

 45 48  0  0  0  0  0  0  0  0999 V2000
  135.8010   72.7450  222.4320 O   0  0  0  0  0  0  0  0  0  0  0  0
  136.8600   72.1710  222.7450 C   0  0  0  0  0  0  0  0  0  0  0  0
  138.0400   72.8200  222.3590 C   0  0  0  0  0  0  0  0  0  0  0  0
  137.9880   74.0200  221.6740 C   0  0  0  0  0  0  0  0  0  0  0  0
  139.1570   74.6630  221.2900 C   0  0  0  0  0  0  0  0  0  0  0  0
  139.0670   75.8460  220.6160 F   0  0  0  0  0  0  0  0  0  0  0  0
  140.3790   74.0920  221.6020 C   0  0  0  0  0  0  0  0  0  0  0  0
  140.4540   72.8840  222.2910 C   0  0  0  0  0  0  0  0  0  0  0  0
  139.2730   72.2760  222.6540 C   0  0  0  0  0  0  0  0  0  0  0  0
  139.2680   71.1090  223.3230 N   0  0  0  0  0  0  0  0  0  0  0  0
  138.1200   70.4890  223.6920 C   0  0  0  0  0  0  0  0  0  0  0  0
  138.2760   69.2400  224.4320 C   0  0  0  0  0  0  0  0  0  0  0  0
  139.3400   69.0290  225.1790 C   0  0  0  0  0  0  0  0  0  0  0  0
  139.9110   70.0030  226.0930 C   0  0  0  0  0  0  0  0  0  0  0  0
  140.8160   70.9720  225.7180 C   0  0  0  0  0  0  0  0  0  0  0  0
  141.3250   71.8720  226.6350 C   0  0  0  0  0  0  0  0  0  0  0  0
  140.9570   71.8460  227.9640 C   0  0  0  0  0  0  0  0  0  0  0  0
  140.0460   70.8760  228.3560 C   0  0  0  0  0  0  0  0  0  0  0  0
  139.5520   69.9920  227.4340 C   0  0  0  0  0  0  0  0  0  0  0  0
  136.9020   70.9890  223.4210 N   0  0  0  0  0  0  0  0  0  0  0  0
  135.6650   70.3340  223.7770 C   0  0  0  0  0  0  0  0  0  0  0  0
  135.0710   70.7900  225.0490 C   0  0  0  0  0  0  0  0  0  0  0  0
  134.8720   69.9950  226.1520 C   0  0  0  0  0  0  0  0  0  0  0  0
  134.3100   70.4800  227.3370 C   0  0  0  0  0  0  0  0  0  0  0  0
  133.9250   71.7940  227.4520 C   0  0  0  0  0  0  0  0  0  0  0  0
  134.1190   72.6050  226.3570 C   0  0  0  0  0  0  0  0  0  0  0  0
  133.7220   73.9360  226.4900 O   0  0  0  0  0  0  0  0  0  0  0  0
  134.6730   72.1270  225.1910 C   0  0  0  0  0  0  0  0  0  0  0  0
  137.0133   74.4685  221.4315 H   0  0  0  0  0  0  0  0  0  0  0  0
  141.3064   74.6010  221.3006 H   0  0  0  0  0  0  0  0  0  0  0  0
  141.4253   72.4302  222.5373 H   0  0  0  0  0  0  0  0  0  0  0  0
  137.4964   68.4669  224.3649 H   0  0  0  0  0  0  0  0  0  0  0  0
  139.8303   68.0470  225.1057 H   0  0  0  0  0  0  0  0  0  0  0  0
  141.1396   71.0304  224.6683 H   0  0  0  0  0  0  0  0  0  0  0  0
  142.0447   72.6313  226.2950 H   0  0  0  0  0  0  0  0  0  0  0  0
  141.3699   72.5666  228.6853 H   0  0  0  0  0  0  0  0  0  0  0  0
  139.7211   70.8170  229.4053 H   0  0  0  0  0  0  0  0  0  0  0  0
  138.8324   69.2328  227.7741 H   0  0  0  0  0  0  0  0  0  0  0  0
  134.9365   70.5169  222.9733 H   0  0  0  0  0  0  0  0  0  0  0  0
  135.9039   69.2684  223.9093 H   0  0  0  0  0  0  0  0  0  0  0  0
  135.1661   68.9363  226.1008 H   0  0  0  0  0  0  0  0  0  0  0  0
  134.1740   69.7992  228.1902 H   0  0  0  0  0  0  0  0  0  0  0  0
  133.4803   72.1816  228.3804 H   0  0  0  0  0  0  0  0  0  0  0  0
  132.8100   74.1830  226.1890 H   0  0  0  0  0  0  0  0  0  0  0  0
  134.8077   72.8157  224.3439 H   0  0  0  0  0  0  0  0  0  0  0  0
  1  2  2  0
  2  3  1  0
  3  4  2  0
  4  5  1  0
  5  6  1  0
  5  7  2  0
  7  8  1  0
  8  9  2  0
  9 10  1  0
 10 11  2  0
 11 12  1  0
 12 13  2  0
 13 14  1  0
 14 15  2  0
 15 16  1  0
 16 17  2  0
 17 18  1  0
 18 19  2  0
 11 20  1  0
 20 21  1  0
 21 22  1  0
 22 23  2  0
 23 24  1  0
 24 25  2  0
 25 26  1  0
 26 27  1  0
 26 28  2  0
 20  2  1  0
 28 22  1  0
  9  3  1  0
 19 14  1  0
  4 29  1  0
  7 30  1  0
  8 31  1  0
 12 32  1  0
 13 33  1  0
 15 34  1  0
 16 35  1  0
 17 36  1  0
 18 37  1  0
 19 38  1  0
 21 39  1  0
 21 40  1  0
 23 41  1  0
 24 42  1  0
 25 43  1  0
 27 44  1  0
 28 45  1  0
M  END
>  <smiles>  (32) 
O=c1c2cc(F)ccc2nc(/C=C/c2ccccc2)n1Cc1cccc(O)c1

>  <score_type>  (32) 
oracle

>  <origin>  (32) 
autodockgpu

>  <m_score__min__energy>  (32) 
-8.6300000000000008

>  <m_primary>  (32) 
energy

>  <rmsd>  (32) 
9.97882190297396

>  <m_score__min__rmsd>  (32) 
9.97882190297396

>  <meeko>  (32) 
{"free_energy": -7.1, "intermolecular_energy": -8.89, "internal_energy": -1.39, "cluster_size": 4, "cluster_id": 4, "rank_in_cluster": 1}

>  <energy>  (32) 
-6.7

>  <cluster_rmsd>  (32) 
1.06

>  <cluster>  (32) 
5

$$$$

     RDKit          3D

 45 48  0  0  0  0  0  0  0  0999 V2000
  138.0370   76.7400  222.0340 O   0  0  0  0  0  0  0  0  0  0  0  0
  138.6830   77.6560  222.5740 C   0  0  0  0  0  0  0  0  0  0  0  0
  137.9220   78.7120  223.0940 C   0  0  0  0  0  0  0  0  0  0  0  0
  136.5430   78.6980  222.9910 C   0  0  0  0  0  0  0  0  0  0  0  0
  135.7870   79.7440  223.5050 C   0  0  0  0  0  0  0  0  0  0  0  0
  134.4290   79.6960  223.3850 F   0  0  0  0  0  0  0  0  0  0  0  0
  136.4290   80.8020  224.1250 C   0  0  0  0  0  0  0  0  0  0  0  0
  137.8160   80.8360  224.2390 C   0  0  0  0  0  0  0  0  0  0  0  0
  138.5310   79.7810  223.7170 C   0  0  0  0  0  0  0  0  0  0  0  0
  139.8730   79.7450  223.7920 N   0  0  0  0  0  0  0  0  0  0  0  0
  140.6010   78.7190  223.2860 C   0  0  0  0  0  0  0  0  0  0  0  0
  142.0470   78.8100  223.4640 C   0  0  0  0  0  0  0  0  0  0  0  0
  142.7380   79.7650  222.8770 C   0  0  0  0  0  0  0  0  0  0  0  0
  142.1820   80.7280  221.9430 C   0  0  0  0  0  0  0  0  0  0  0  0
  142.1750   80.5580  220.5760 C   0  0  0  0  0  0  0  0  0  0  0  0
  141.6310   81.5120  219.7360 C   0  0  0  0  0  0  0  0  0  0  0  0
  141.0720   82.6760  220.2200 C   0  0  0  0  0  0  0  0  0  0  0  0
  141.0710   82.8600  221.5950 C   0  0  0  0  0  0  0  0  0  0  0  0
  141.6150   81.9060  222.4120 C   0  0  0  0  0  0  0  0  0  0  0  0
  140.0410   77.6610  222.6720 N   0  0  0  0  0  0  0  0  0  0  0  0
  140.7950   76.5710  222.0990 C   0  0  0  0  0  0  0  0  0  0  0  0
  141.2820   76.8140  220.7270 C   0  0  0  0  0  0  0  0  0  0  0  0
  140.8350   77.8190  219.9020 C   0  0  0  0  0  0  0  0  0  0  0  0
  141.3360   78.0080  218.6100 C   0  0  0  0  0  0  0  0  0  0  0  0
  142.3110   77.1850  218.1000 C   0  0  0  0  0  0  0  0  0  0  0  0
  142.7700   76.1740  218.9130 C   0  0  0  0  0  0  0  0  0  0  0  0
  143.7600   75.3480  218.3800 O   0  0  0  0  0  0  0  0  0  0  0  0
  142.2780   75.9880  220.1850 C   0  0  0  0  0  0  0  0  0  0  0  0
  136.0410   77.8523  222.4984 H   0  0  0  0  0  0  0  0  0  0  0  0
  135.8327   81.6305  224.5349 H   0  0  0  0  0  0  0  0  0  0  0  0
  138.3246   81.6786  224.7303 H   0  0  0  0  0  0  0  0  0  0  0  0
  142.5650   78.0729  224.0952 H   0  0  0  0  0  0  0  0  0  0  0  0
  143.8105   79.8384  223.1103 H   0  0  0  0  0  0  0  0  0  0  0  0
  142.6109   79.6451  220.1441 H   0  0  0  0  0  0  0  0  0  0  0  0
  141.6445   81.3374  218.6500 H   0  0  0  0  0  0  0  0  0  0  0  0
  140.6437   83.4292  219.5423 H   0  0  0  0  0  0  0  0  0  0  0  0
  140.6335   83.7715  222.0282 H   0  0  0  0  0  0  0  0  0  0  0  0
  141.6025   82.0816  223.4978 H   0  0  0  0  0  0  0  0  0  0  0  0
  141.6659   76.3805  222.7433 H   0  0  0  0  0  0  0  0  0  0  0  0
  140.1072   75.7147  222.0381 H   0  0  0  0  0  0  0  0  0  0  0  0
  140.0542   78.4998  220.2720 H   0  0  0  0  0  0  0  0  0  0  0  0
  140.9431   78.8288  217.9920 H   0  0  0  0  0  0  0  0  0  0  0  0
  142.7081   77.3283  217.0842 H   0  0  0  0  0  0  0  0  0  0  0  0
  144.5160   75.7760  217.9010 H   0  0  0  0  0  0  0  0  0  0  0  0
  142.6785   75.1656  220.7959 H   0  0  0  0  0  0  0  0  0  0  0  0
  1  2  2  0
  2  3  1  0
  3  4  2  0
  4  5  1  0
  5  6  1  0
  5  7  2  0
  7  8  1  0
  8  9  2  0
  9 10  1  0
 10 11  2  0
 11 12  1  0
 12 13  2  0
 13 14  1  0
 14 15  2  0
 15 16  1  0
 16 17  2  0
 17 18  1  0
 18 19  2  0
 11 20  1  0
 20 21  1  0
 21 22  1  0
 22 23  2  0
 23 24  1  0
 24 25  2  0
 25 26  1  0
 26 27  1  0
 26 28  2  0
 20  2  1  0
 28 22  1  0
  9  3  1  0
 19 14  1  0
  4 29  1  0
  7 30  1  0
  8 31  1  0
 12 32  1  0
 13 33  1  0
 15 34  1  0
 16 35  1  0
 17 36  1  0
 18 37  1  0
 19 38  1  0
 21 39  1  0
 21 40  1  0
 23 41  1  0
 24 42  1  0
 25 43  1  0
 27 44  1  0
 28 45  1  0
M  END
>  <smiles>  (33) 
O=c1c2cc(F)ccc2nc(/C=C/c2ccccc2)n1Cc1cccc(O)c1

>  <score_type>  (33) 
oracle

>  <origin>  (33) 
autodockgpu

>  <m_score__min__energy>  (33) 
-8.6300000000000008

>  <m_primary>  (33) 
energy

>  <rmsd>  (33) 
6.172168188010364

>  <m_score__min__rmsd>  (33) 
6.172168188010364

>  <meeko>  (33) 
{"free_energy": -6.22, "intermolecular_energy": -8.01, "internal_energy": -1.9, "cluster_size": 1, "cluster_id": 10, "rank_in_cluster": 1}

>  <energy>  (33) 
-6.43

>  <cluster_rmsd>  (33) 
1.02

>  <cluster>  (33) 
5

$$$$

     RDKit          3D

 45 48  0  0  0  0  0  0  0  0999 V2000
  143.9120   76.6900  219.4800 O   0  0  0  0  0  0  0  0  0  0  0  0
  142.9370   76.1890  220.0690 C   0  0  0  0  0  0  0  0  0  0  0  0
  143.0170   74.8120  220.3150 C   0  0  0  0  0  0  0  0  0  0  0  0
  144.1260   74.0920  219.9110 C   0  0  0  0  0  0  0  0  0  0  0  0
  144.2060   72.7270  220.1530 C   0  0  0  0  0  0  0  0  0  0  0  0
  145.3160   72.0490  219.7400 F   0  0  0  0  0  0  0  0  0  0  0  0
  143.1640   72.0920  220.8060 C   0  0  0  0  0  0  0  0  0  0  0  0
  142.0380   72.7980  221.2210 C   0  0  0  0  0  0  0  0  0  0  0  0
  141.9940   74.1500  220.9630 C   0  0  0  0  0  0  0  0  0  0  0  0
  140.9400   74.8970  221.3360 N   0  0  0  0  0  0  0  0  0  0  0  0
  140.8720   76.2290  221.0940 C   0  0  0  0  0  0  0  0  0  0  0  0
  139.6750   76.9080  221.5790 C   0  0  0  0  0  0  0  0  0  0  0  0
  139.6910   77.5700  222.7170 C   0  0  0  0  0  0  0  0  0  0  0  0
  140.5390   78.7170  222.9900 C   0  0  0  0  0  0  0  0  0  0  0  0
  141.8100   78.6270  223.5140 C   0  0  0  0  0  0  0  0  0  0  0  0
  142.5700   79.7560  223.7530 C   0  0  0  0  0  0  0  0  0  0  0  0
  142.0980   81.0240  223.4820 C   0  0  0  0  0  0  0  0  0  0  0  0
  140.8200   81.1300  222.9540 C   0  0  0  0  0  0  0  0  0  0  0  0
  140.0810   80.0010  222.7240 C   0  0  0  0  0  0  0  0  0  0  0  0
  141.8490   76.9060  220.4640 N   0  0  0  0  0  0  0  0  0  0  0  0
  141.7870   78.3190  220.1680 C   0  0  0  0  0  0  0  0  0  0  0  0
  141.7240   78.6430  218.7290 C   0  0  0  0  0  0  0  0  0  0  0  0
  141.1490   77.8460  217.7700 C   0  0  0  0  0  0  0  0  0  0  0  0
  141.1120   78.2050  216.4180 C   0  0  0  0  0  0  0  0  0  0  0  0
  141.6580   79.3890  215.9840 C   0  0  0  0  0  0  0  0  0  0  0  0
  142.2380   80.2000  216.9330 C   0  0  0  0  0  0  0  0  0  0  0  0
  142.7880   81.3980  216.4760 O   0  0  0  0  0  0  0  0  0  0  0  0
  142.2740   79.8460  218.2630 C   0  0  0  0  0  0  0  0  0  0  0  0
  144.9509   74.6042  219.3941 H   0  0  0  0  0  0  0  0  0  0  0  0
  143.2265   71.0111  221.0005 H   0  0  0  0  0  0  0  0  0  0  0  0
  141.2098   72.2919  221.7385 H   0  0  0  0  0  0  0  0  0  0  0  0
  138.7487   76.8663  220.9871 H   0  0  0  0  0  0  0  0  0  0  0  0
  139.0154   77.2309  223.5161 H   0  0  0  0  0  0  0  0  0  0  0  0
  142.2281   77.6366  223.7468 H   0  0  0  0  0  0  0  0  0  0  0  0
  143.5807   79.6406  224.1715 H   0  0  0  0  0  0  0  0  0  0  0  0
  142.7115   81.9159  223.6771 H   0  0  0  0  0  0  0  0  0  0  0  0
  140.4009   82.1198  222.7204 H   0  0  0  0  0  0  0  0  0  0  0  0
  139.0701   80.1168  222.3061 H   0  0  0  0  0  0  0  0  0  0  0  0
  140.8899   78.7320  220.6523 H   0  0  0  0  0  0  0  0  0  0  0  0
  142.7221   78.7581  220.5459 H   0  0  0  0  0  0  0  0  0  0  0  0
  140.7006   76.8893  218.0761 H   0  0  0  0  0  0  0  0  0  0  0  0
  140.6384   77.5287  215.6911 H   0  0  0  0  0  0  0  0  0  0  0  0
  141.6326   79.6767  214.9226 H   0  0  0  0  0  0  0  0  0  0  0  0
  143.6520   81.3580  215.9910 H   0  0  0  0  0  0  0  0  0  0  0  0
  142.7493   80.5284  218.9830 H   0  0  0  0  0  0  0  0  0  0  0  0
  1  2  2  0
  2  3  1  0
  3  4  2  0
  4  5  1  0
  5  6  1  0
  5  7  2  0
  7  8  1  0
  8  9  2  0
  9 10  1  0
 10 11  2  0
 11 12  1  0
 12 13  2  0
 13 14  1  0
 14 15  2  0
 15 16  1  0
 16 17  2  0
 17 18  1  0
 18 19  2  0
 11 20  1  0
 20 21  1  0
 21 22  1  0
 22 23  2  0
 23 24  1  0
 24 25  2  0
 25 26  1  0
 26 27  1  0
 26 28  2  0
 20  2  1  0
 28 22  1  0
  9  3  1  0
 19 14  1  0
  4 29  1  0
  7 30  1  0
  8 31  1  0
 12 32  1  0
 13 33  1  0
 15 34  1  0
 16 35  1  0
 17 36  1  0
 18 37  1  0
 19 38  1  0
 21 39  1  0
 21 40  1  0
 23 41  1  0
 24 42  1  0
 25 43  1  0
 27 44  1  0
 28 45  1  0
M  END
>  <smiles>  (34) 
O=c1c2cc(F)ccc2nc(/C=C/c2ccccc2)n1Cc1cccc(O)c1

>  <score_type>  (34) 
oracle

>  <origin>  (34) 
autodockgpu

>  <m_score__min__energy>  (34) 
-8.6300000000000008

>  <m_primary>  (34) 
energy

>  <rmsd>  (34) 
4.844684059262866

>  <m_score__min__rmsd>  (34) 
4.844684059262866

>  <meeko>  (34) 
{"free_energy": -6.71, "intermolecular_energy": -8.5, "internal_energy": -1.44, "cluster_size": 5, "cluster_id": 8, "rank_in_cluster": 1}

>  <energy>  (34) 
-7.03

>  <cluster_rmsd>  (34) 
0.0

>  <cluster>  (34) 
6

$$$$

     RDKit          3D

 45 48  0  0  0  0  0  0  0  0999 V2000
  142.5330   75.2550  219.5790 O   0  0  0  0  0  0  0  0  0  0  0  0
  141.7290   74.8460  220.4360 C   0  0  0  0  0  0  0  0  0  0  0  0
  140.9620   75.8330  221.0700 C   0  0  0  0  0  0  0  0  0  0  0  0
  141.1210   77.1650  220.7370 C   0  0  0  0  0  0  0  0  0  0  0  0
  140.3620   78.1440  221.3650 C   0  0  0  0  0  0  0  0  0  0  0  0
  140.5460   79.4480  221.0100 F   0  0  0  0  0  0  0  0  0  0  0  0
  139.4420   77.7730  222.3300 C   0  0  0  0  0  0  0  0  0  0  0  0
  139.2670   76.4370  222.6820 C   0  0  0  0  0  0  0  0  0  0  0  0
  140.0370   75.4950  222.0370 C   0  0  0  0  0  0  0  0  0  0  0  0
  139.9210   74.1860  222.3220 N   0  0  0  0  0  0  0  0  0  0  0  0
  140.6670   73.2380  221.7030 C   0  0  0  0  0  0  0  0  0  0  0  0
  140.4120   71.8590  222.1040 C   0  0  0  0  0  0  0  0  0  0  0  0
  139.5610   71.5860  223.0710 C   0  0  0  0  0  0  0  0  0  0  0  0
  139.9380   71.0930  224.3850 C   0  0  0  0  0  0  0  0  0  0  0  0
  139.5850   69.8540  224.8720 C   0  0  0  0  0  0  0  0  0  0  0  0
  139.9730   69.4400  226.1320 C   0  0  0  0  0  0  0  0  0  0  0  0
  140.7290   70.2420  226.9620 C   0  0  0  0  0  0  0  0  0  0  0  0
  141.0920   71.4930  226.4840 C   0  0  0  0  0  0  0  0  0  0  0  0
  140.6980   71.8870  225.2340 C   0  0  0  0  0  0  0  0  0  0  0  0
  141.5780   73.5310  220.7580 N   0  0  0  0  0  0  0  0  0  0  0  0
  142.4060   72.5440  220.1050 C   0  0  0  0  0  0  0  0  0  0  0  0
  143.8490   72.8570  220.1000 C   0  0  0  0  0  0  0  0  0  0  0  0
  144.6180   73.0280  221.2260 C   0  0  0  0  0  0  0  0  0  0  0  0
  145.9850   73.3180  221.1650 C   0  0  0  0  0  0  0  0  0  0  0  0
  146.6290   73.4470  219.9580 C   0  0  0  0  0  0  0  0  0  0  0  0
  145.8720   73.2780  218.8200 C   0  0  0  0  0  0  0  0  0  0  0  0
  146.5410   73.4130  217.6030 O   0  0  0  0  0  0  0  0  0  0  0  0
  144.5270   72.9920  218.8810 C   0  0  0  0  0  0  0  0  0  0  0  0
  141.8542   77.4518  219.9688 H   0  0  0  0  0  0  0  0  0  0  0  0
  138.8387   78.5466  222.8275 H   0  0  0  0  0  0  0  0  0  0  0  0
  138.5370   76.1436  223.4507 H   0  0  0  0  0  0  0  0  0  0  0  0
  140.9364   71.0381  221.5930 H   0  0  0  0  0  0  0  0  0  0  0  0
  138.4908   71.7419  222.8703 H   0  0  0  0  0  0  0  0  0  0  0  0
  138.9821   69.1804  224.2453 H   0  0  0  0  0  0  0  0  0  0  0  0
  139.6705   68.4425  226.4833 H   0  0  0  0  0  0  0  0  0  0  0  0
  141.0321   69.9029  227.9636 H   0  0  0  0  0  0  0  0  0  0  0  0
  141.6958   72.1673  227.1091 H   0  0  0  0  0  0  0  0  0  0  0  0
  140.9991   72.8852  224.8833 H   0  0  0  0  0  0  0  0  0  0  0  0
  142.2654   71.5828  220.6211 H   0  0  0  0  0  0  0  0  0  0  0  0
  142.0891   72.5193  219.0519 H   0  0  0  0  0  0  0  0  0  0  0  0
  144.1405   72.9332  222.2124 H   0  0  0  0  0  0  0  0  0  0  0  0
  146.5536   73.4448  222.0981 H   0  0  0  0  0  0  0  0  0  0  0  0
  147.7036   73.6756  219.9031 H   0  0  0  0  0  0  0  0  0  0  0  0
  146.5850   74.3150  217.1930 H   0  0  0  0  0  0  0  0  0  0  0  0
  143.9665   72.8654  217.9430 H   0  0  0  0  0  0  0  0  0  0  0  0
  1  2  2  0
  2  3  1  0
  3  4  2  0
  4  5  1  0
  5  6  1  0
  5  7  2  0
  7  8  1  0
  8  9  2  0
  9 10  1  0
 10 11  2  0
 11 12  1  0
 12 13  2  0
 13 14  1  0
 14 15  2  0
 15 16  1  0
 16 17  2  0
 17 18  1  0
 18 19  2  0
 11 20  1  0
 20 21  1  0
 21 22  1  0
 22 23  2  0
 23 24  1  0
 24 25  2  0
 25 26  1  0
 26 27  1  0
 26 28  2  0
 20  2  1  0
 28 22  1  0
  9  3  1  0
 19 14  1  0
  4 29  1  0
  7 30  1  0
  8 31  1  0
 12 32  1  0
 13 33  1  0
 15 34  1  0
 16 35  1  0
 17 36  1  0
 18 37  1  0
 19 38  1  0
 21 39  1  0
 21 40  1  0
 23 41  1  0
 24 42  1  0
 25 43  1  0
 27 44  1  0
 28 45  1  0
M  END
>  <smiles>  (35) 
O=c1c2cc(F)ccc2nc(/C=C/c2ccccc2)n1Cc1cccc(O)c1

>  <score_type>  (35) 
oracle

>  <origin>  (35) 
autodockgpu

>  <m_score__min__energy>  (35) 
-8.6300000000000008

>  <m_primary>  (35) 
energy

>  <rmsd>  (35) 
8.008659007301475

>  <m_score__min__rmsd>  (35) 
8.008659007301475

>  <meeko>  (35) 
{"free_energy": -8.19, "intermolecular_energy": -9.98, "internal_energy": -1.02, "cluster_size": 13, "cluster_id": 1, "rank_in_cluster": 2}

>  <energy>  (35) 
-6.95

>  <cluster_rmsd>  (35) 
0.0

>  <cluster>  (35) 
7

$$$$

     RDKit          3D

 45 48  0  0  0  0  0  0  0  0999 V2000
  140.2880   71.9410  225.1480 O   0  0  0  0  0  0  0  0  0  0  0  0
  139.6920   70.8500  225.0870 C   0  0  0  0  0  0  0  0  0  0  0  0
  139.9880   69.9380  226.1100 C   0  0  0  0  0  0  0  0  0  0  0  0
  140.8920   70.2700  227.1030 C   0  0  0  0  0  0  0  0  0  0  0  0
  141.1860   69.3670  228.1160 C   0  0  0  0  0  0  0  0  0  0  0  0
  142.0830   69.7280  229.0800 F   0  0  0  0  0  0  0  0  0  0  0  0
  140.5650   68.1300  228.1240 C   0  0  0  0  0  0  0  0  0  0  0  0
  139.6530   67.7760  227.1330 C   0  0  0  0  0  0  0  0  0  0  0  0
  139.3860   68.6980  226.1450 C   0  0  0  0  0  0  0  0  0  0  0  0
  138.5150   68.4270  225.1570 N   0  0  0  0  0  0  0  0  0  0  0  0
  138.2350   69.3150  224.1720 C   0  0  0  0  0  0  0  0  0  0  0  0
  137.2520   68.8860  223.1830 C   0  0  0  0  0  0  0  0  0  0  0  0
  135.9680   68.8680  223.4750 C   0  0  0  0  0  0  0  0  0  0  0  0
  135.3320   69.7380  224.4480 C   0  0  0  0  0  0  0  0  0  0  0  0
  134.7900   69.2980  225.6350 C   0  0  0  0  0  0  0  0  0  0  0  0
  134.1970   70.1750  226.5240 C   0  0  0  0  0  0  0  0  0  0  0  0
  134.1170   71.5280  226.2680 C   0  0  0  0  0  0  0  0  0  0  0  0
  134.6590   71.9860  225.0760 C   0  0  0  0  0  0  0  0  0  0  0  0
  135.2420   71.1030  224.2080 C   0  0  0  0  0  0  0  0  0  0  0  0
  138.8040   70.5320  224.1060 N   0  0  0  0  0  0  0  0  0  0  0  0
  138.5450   71.4850  223.0510 C   0  0  0  0  0  0  0  0  0  0  0  0
  139.7490   71.9570  222.3390 C   0  0  0  0  0  0  0  0  0  0  0  0
  140.6650   71.1410  221.7200 C   0  0  0  0  0  0  0  0  0  0  0  0
  141.7880   71.6430  221.0530 C   0  0  0  0  0  0  0  0  0  0  0  0
  142.0290   72.9940  220.9890 C   0  0  0  0  0  0  0  0  0  0  0  0
  141.1210   73.8250  221.6040 C   0  0  0  0  0  0  0  0  0  0  0  0
  141.3800   75.1940  221.5290 O   0  0  0  0  0  0  0  0  0  0  0  0
  140.0150   73.3310  222.2590 C   0  0  0  0  0  0  0  0  0  0  0  0
  141.3809   71.2553  227.0901 H   0  0  0  0  0  0  0  0  0  0  0  0
  140.7958   67.4144  228.9269 H   0  0  0  0  0  0  0  0  0  0  0  0
  139.1616   66.7919  227.1389 H   0  0  0  0  0  0  0  0  0  0  0  0
  137.5869   68.5742  222.1827 H   0  0  0  0  0  0  0  0  0  0  0  0
  135.3329   68.1431  222.9447 H   0  0  0  0  0  0  0  0  0  0  0  0
  134.8297   68.2266  225.8809 H   0  0  0  0  0  0  0  0  0  0  0  0
  133.7771   69.7828  227.4620 H   0  0  0  0  0  0  0  0  0  0  0  0
  133.6418   72.2172  226.9815 H   0  0  0  0  0  0  0  0  0  0  0  0
  134.6202   73.0572  224.8289 H   0  0  0  0  0  0  0  0  0  0  0  0
  135.6618   71.4954  223.2700 H   0  0  0  0  0  0  0  0  0  0  0  0
  137.8764   71.0111  222.3173 H   0  0  0  0  0  0  0  0  0  0  0  0
  138.1010   72.3690  223.5320 H   0  0  0  0  0  0  0  0  0  0  0  0
  140.5097   70.0524  221.7499 H   0  0  0  0  0  0  0  0  0  0  0  0
  142.4890   70.9448  220.5722 H   0  0  0  0  0  0  0  0  0  0  0  0
  142.9110   73.3946  220.4679 H   0  0  0  0  0  0  0  0  0  0  0  0
  142.2390   75.5260  221.9000 H   0  0  0  0  0  0  0  0  0  0  0  0
  139.3182   74.0369  222.7345 H   0  0  0  0  0  0  0  0  0  0  0  0
  1  2  2  0
  2  3  1  0
  3  4  2  0
  4  5  1  0
  5  6  1  0
  5  7  2  0
  7  8  1  0
  8  9  2  0
  9 10  1  0
 10 11  2  0
 11 12  1  0
 12 13  2  0
 13 14  1  0
 14 15  2  0
 15 16  1  0
 16 17  2  0
 17 18  1  0
 18 19  2  0
 11 20  1  0
 20 21  1  0
 21 22  1  0
 22 23  2  0
 23 24  1  0
 24 25  2  0
 25 26  1  0
 26 27  1  0
 26 28  2  0
 20  2  1  0
 28 22  1  0
  9  3  1  0
 19 14  1  0
  4 29  1  0
  7 30  1  0
  8 31  1  0
 12 32  1  0
 13 33  1  0
 15 34  1  0
 16 35  1  0
 17 36  1  0
 18 37  1  0
 19 38  1  0
 21 39  1  0
 21 40  1  0
 23 41  1  0
 24 42  1  0
 25 43  1  0
 27 44  1  0
 28 45  1  0
M  END
>  <smiles>  (36) 
O=c1c2cc(F)ccc2nc(/C=C/c2ccccc2)n1Cc1cccc(O)c1

>  <score_type>  (36) 
oracle

>  <origin>  (36) 
autodockgpu

>  <m_score__min__energy>  (36) 
-8.6300000000000008

>  <m_primary>  (36) 
energy

>  <rmsd>  (36) 
10.174968880465787

>  <m_score__min__rmsd>  (36) 
10.174968880465787

>  <meeko>  (36) 
{"free_energy": -6.84, "intermolecular_energy": -8.63, "internal_energy": -1.46, "cluster_size": 8, "cluster_id": 7, "rank_in_cluster": 7}

>  <energy>  (36) 
-6.94

>  <cluster_rmsd>  (36) 
0.1

>  <cluster>  (36) 
7

$$$$

     RDKit          3D

 45 48  0  0  0  0  0  0  0  0999 V2000
  142.6020   76.7120  219.4140 O   0  0  0  0  0  0  0  0  0  0  0  0
  141.8140   76.3810  220.3190 C   0  0  0  0  0  0  0  0  0  0  0  0
  141.3930   77.4150  221.1650 C   0  0  0  0  0  0  0  0  0  0  0  0
  141.8470   78.7070  220.9730 C   0  0  0  0  0  0  0  0  0  0  0  0
  141.4310   79.7320  221.8120 C   0  0  0  0  0  0  0  0  0  0  0  0
  141.9000   80.9950  221.5930 F   0  0  0  0  0  0  0  0  0  0  0  0
  140.5530   79.4490  222.8440 C   0  0  0  0  0  0  0  0  0  0  0  0
  140.0830   78.1550  223.0560 C   0  0  0  0  0  0  0  0  0  0  0  0
  140.5190   77.1650  222.2030 C   0  0  0  0  0  0  0  0  0  0  0  0
  140.1060   75.8930  222.3450 N   0  0  0  0  0  0  0  0  0  0  0  0
  140.5200   74.9000  221.5200 C   0  0  0  0  0  0  0  0  0  0  0  0
  139.9670   73.5750  221.7860 C   0  0  0  0  0  0  0  0  0  0  0  0
  140.7020   72.6410  222.3530 C   0  0  0  0  0  0  0  0  0  0  0  0
  140.2480   71.7740  223.4260 C   0  0  0  0  0  0  0  0  0  0  0  0
  140.7090   71.8480  224.7220 C   0  0  0  0  0  0  0  0  0  0  0  0
  140.2380   70.9930  225.7010 C   0  0  0  0  0  0  0  0  0  0  0  0
  139.2900   70.0280  225.4320 C   0  0  0  0  0  0  0  0  0  0  0  0
  138.8160   69.9430  224.1310 C   0  0  0  0  0  0  0  0  0  0  0  0
  139.2940   70.7970  223.1740 C   0  0  0  0  0  0  0  0  0  0  0  0
  141.3710   75.1070  220.5000 N   0  0  0  0  0  0  0  0  0  0  0  0
  141.8500   74.0610  219.6260 C   0  0  0  0  0  0  0  0  0  0  0  0
  143.2820   73.7390  219.7790 C   0  0  0  0  0  0  0  0  0  0  0  0
  144.0610   74.1140  220.8480 C   0  0  0  0  0  0  0  0  0  0  0  0
  145.4150   73.7760  220.9450 C   0  0  0  0  0  0  0  0  0  0  0  0
  146.0360   73.0450  219.9620 C   0  0  0  0  0  0  0  0  0  0  0  0
  145.2690   72.6600  218.8850 C   0  0  0  0  0  0  0  0  0  0  0  0
  145.9150   71.9180  217.8960 O   0  0  0  0  0  0  0  0  0  0  0  0
  143.9370   72.9920  218.7900 C   0  0  0  0  0  0  0  0  0  0  0  0
  142.5430   78.9243  220.1494 H   0  0  0  0  0  0  0  0  0  0  0  0
  140.2206   80.2602  223.5084 H   0  0  0  0  0  0  0  0  0  0  0  0
  139.3866   77.9310  223.8775 H   0  0  0  0  0  0  0  0  0  0  0  0
  138.9253   73.3547  221.5098 H   0  0  0  0  0  0  0  0  0  0  0  0
  141.7314   72.5083  221.9886 H   0  0  0  0  0  0  0  0  0  0  0  0
  141.4664   72.6018  224.9829 H   0  0  0  0  0  0  0  0  0  0  0  0
  140.6308   71.0850  226.7244 H   0  0  0  0  0  0  0  0  0  0  0  0
  138.9239   69.3519  226.2187 H   0  0  0  0  0  0  0  0  0  0  0  0
  138.0574   69.1907  223.8689 H   0  0  0  0  0  0  0  0  0  0  0  0
  138.9014   70.7044  222.1506 H   0  0  0  0  0  0  0  0  0  0  0  0
  141.2697   73.1495  219.8320 H   0  0  0  0  0  0  0  0  0  0  0  0
  141.7223   74.4314  218.5981 H   0  0  0  0  0  0  0  0  0  0  0  0
  143.6026   74.7016  221.6570 H   0  0  0  0  0  0  0  0  0  0  0  0
  145.9920   74.1011  221.8233 H   0  0  0  0  0  0  0  0  0  0  0  0
  147.1009   72.7783  220.0320 H   0  0  0  0  0  0  0  0  0  0  0  0
  145.3610   71.5290  217.1690 H   0  0  0  0  0  0  0  0  0  0  0  0
  143.3676   72.6604  217.9092 H   0  0  0  0  0  0  0  0  0  0  0  0
  1  2  2  0
  2  3  1  0
  3  4  2  0
  4  5  1  0
  5  6  1  0
  5  7  2  0
  7  8  1  0
  8  9  2  0
  9 10  1  0
 10 11  2  0
 11 12  1  0
 12 13  2  0
 13 14  1  0
 14 15  2  0
 15 16  1  0
 16 17  2  0
 17 18  1  0
 18 19  2  0
 11 20  1  0
 20 21  1  0
 21 22  1  0
 22 23  2  0
 23 24  1  0
 24 25  2  0
 25 26  1  0
 26 27  1  0
 26 28  2  0
 20  2  1  0
 28 22  1  0
  9  3  1  0
 19 14  1  0
  4 29  1  0
  7 30  1  0
  8 31  1  0
 12 32  1  0
 13 33  1  0
 15 34  1  0
 16 35  1  0
 17 36  1  0
 18 37  1  0
 19 38  1  0
 21 39  1  0
 21 40  1  0
 23 41  1  0
 24 42  1  0
 25 43  1  0
 27 44  1  0
 28 45  1  0
M  END
>  <smiles>  (37) 
O=c1c2cc(F)ccc2nc(/C=C/c2ccccc2)n1Cc1cccc(O)c1

>  <score_type>  (37) 
oracle

>  <origin>  (37) 
autodockgpu

>  <m_score__min__energy>  (37) 
-8.6300000000000008

>  <m_primary>  (37) 
energy

>  <rmsd>  (37) 
7.765308324225052

>  <m_score__min__rmsd>  (37) 
7.765308324225052

>  <meeko>  (37) 
{"free_energy": -7.4, "intermolecular_energy": -9.19, "internal_energy": -1.06, "cluster_size": 13, "cluster_id": 1, "rank_in_cluster": 12}

>  <energy>  (37) 
-6.93

>  <cluster_rmsd>  (37) 
0.13

>  <cluster>  (37) 
7

$$$$

     RDKit          3D

 45 48  0  0  0  0  0  0  0  0999 V2000
  135.8250   72.7640  222.4100 O   0  0  0  0  0  0  0  0  0  0  0  0
  136.8670   72.1510  222.7060 C   0  0  0  0  0  0  0  0  0  0  0  0
  138.0650   72.7760  222.3340 C   0  0  0  0  0  0  0  0  0  0  0  0
  138.0460   73.9940  221.6810 C   0  0  0  0  0  0  0  0  0  0  0  0
  139.2330   74.6140  221.3120 C   0  0  0  0  0  0  0  0  0  0  0  0
  139.1760   75.8160  220.6690 F   0  0  0  0  0  0  0  0  0  0  0  0
  140.4380   74.0000  221.6050 C   0  0  0  0  0  0  0  0  0  0  0  0
  140.4800   72.7720  222.2620 C   0  0  0  0  0  0  0  0  0  0  0  0
  139.2820   72.1890  222.6120 C   0  0  0  0  0  0  0  0  0  0  0  0
  139.2450   71.0050  223.2500 N   0  0  0  0  0  0  0  0  0  0  0  0
  138.0800   70.4090  223.6060 C   0  0  0  0  0  0  0  0  0  0  0  0
  138.2020   69.1380  224.3120 C   0  0  0  0  0  0  0  0  0  0  0  0
  139.2520   68.8840  225.0650 C   0  0  0  0  0  0  0  0  0  0  0  0
  139.8110   69.8080  226.0370 C   0  0  0  0  0  0  0  0  0  0  0  0
  140.6800   70.8280  225.7170 C   0  0  0  0  0  0  0  0  0  0  0  0
  141.1800   71.6760  226.6870 C   0  0  0  0  0  0  0  0  0  0  0  0
  140.8370   71.5460  228.0160 C   0  0  0  0  0  0  0  0  0  0  0  0
  139.9630   70.5240  228.3530 C   0  0  0  0  0  0  0  0  0  0  0  0
  139.4770   69.6920  227.3800 C   0  0  0  0  0  0  0  0  0  0  0  0
  136.8760   70.9510  223.3500 N   0  0  0  0  0  0  0  0  0  0  0  0
  135.6220   70.3230  223.6920 C   0  0  0  0  0  0  0  0  0  0  0  0
  135.0440   70.7600  224.9780 C   0  0  0  0  0  0  0  0  0  0  0  0
  134.8690   69.9520  226.0750 C   0  0  0  0  0  0  0  0  0  0  0  0
  134.3210   70.4210  227.2730 C   0  0  0  0  0  0  0  0  0  0  0  0
  133.9270   71.7300  227.4090 C   0  0  0  0  0  0  0  0  0  0  0  0
  134.0970   72.5540  226.3190 C   0  0  0  0  0  0  0  0  0  0  0  0
  133.6920   73.8800  226.4730 O   0  0  0  0  0  0  0  0  0  0  0  0
  134.6370   72.0920  225.1400 C   0  0  0  0  0  0  0  0  0  0  0  0
  137.0841   74.4758  221.4519 H   0  0  0  0  0  0  0  0  0  0  0  0
  141.3790   74.4899  221.3142 H   0  0  0  0  0  0  0  0  0  0  0  0
  141.4383   72.2841  222.4936 H   0  0  0  0  0  0  0  0  0  0  0  0
  137.4078   68.3833  224.2141 H   0  0  0  0  0  0  0  0  0  0  0  0
  139.7396   67.9047  224.9502 H   0  0  0  0  0  0  0  0  0  0  0  0
  140.9818   70.9703  224.6688 H   0  0  0  0  0  0  0  0  0  0  0  0
  141.8718   72.4780  226.3900 H   0  0  0  0  0  0  0  0  0  0  0  0
  141.2412   72.2269  228.7795 H   0  0  0  0  0  0  0  0  0  0  0  0
  139.6602   70.3816  229.4009 H   0  0  0  0  0  0  0  0  0  0  0  0
  138.7858   68.8897  227.6778 H   0  0  0  0  0  0  0  0  0  0  0  0
  134.8972   70.5492  222.8961 H   0  0  0  0  0  0  0  0  0  0  0  0
  135.8306   69.2478  223.7945 H   0  0  0  0  0  0  0  0  0  0  0  0
  135.1713   68.8964  226.0086 H   0  0  0  0  0  0  0  0  0  0  0  0
  134.2034   69.7301  228.1208 H   0  0  0  0  0  0  0  0  0  0  0  0
  133.4942   72.1039  228.3486 H   0  0  0  0  0  0  0  0  0  0  0  0
  132.7450   74.1030  226.2790 H   0  0  0  0  0  0  0  0  0  0  0  0
  134.7529   72.7902  224.2979 H   0  0  0  0  0  0  0  0  0  0  0  0
  1  2  2  0
  2  3  1  0
  3  4  2  0
  4  5  1  0
  5  6  1  0
  5  7  2  0
  7  8  1  0
  8  9  2  0
  9 10  1  0
 10 11  2  0
 11 12  1  0
 12 13  2  0
 13 14  1  0
 14 15  2  0
 15 16  1  0
 16 17  2  0
 17 18  1  0
 18 19  2  0
 11 20  1  0
 20 21  1  0
 21 22  1  0
 22 23  2  0
 23 24  1  0
 24 25  2  0
 25 26  1  0
 26 27  1  0
 26 28  2  0
 20  2  1  0
 28 22  1  0
  9  3  1  0
 19 14  1  0
  4 29  1  0
  7 30  1  0
  8 31  1  0
 12 32  1  0
 13 33  1  0
 15 34  1  0
 16 35  1  0
 17 36  1  0
 18 37  1  0
 19 38  1  0
 21 39  1  0
 21 40  1  0
 23 41  1  0
 24 42  1  0
 25 43  1  0
 27 44  1  0
 28 45  1  0
M  END
>  <smiles>  (38) 
O=c1c2cc(F)ccc2nc(/C=C/c2ccccc2)n1Cc1cccc(O)c1

>  <score_type>  (38) 
oracle

>  <origin>  (38) 
autodockgpu

>  <m_score__min__energy>  (38) 
-8.6300000000000008

>  <m_primary>  (38) 
energy

>  <rmsd>  (38) 
9.999047088676328

>  <m_score__min__rmsd>  (38) 
9.999047088676328

>  <meeko>  (38) 
{"free_energy": -7.09, "intermolecular_energy": -8.88, "internal_energy": -1.4, "cluster_size": 4, "cluster_id": 4, "rank_in_cluster": 3}

>  <energy>  (38) 
-6.93

>  <cluster_rmsd>  (38) 
0.14

>  <cluster>  (38) 
7

$$$$

     RDKit          3D

 45 48  0  0  0  0  0  0  0  0999 V2000
  141.6360   70.9220  221.2000 O   0  0  0  0  0  0  0  0  0  0  0  0
  141.7020   72.1640  221.2020 C   0  0  0  0  0  0  0  0  0  0  0  0
  142.8990   72.7100  220.7170 C   0  0  0  0  0  0  0  0  0  0  0  0
  143.9170   71.8840  220.2760 C   0  0  0  0  0  0  0  0  0  0  0  0
  145.1030   72.4230  219.7960 C   0  0  0  0  0  0  0  0  0  0  0  0
  146.0850   71.5780  219.3690 F   0  0  0  0  0  0  0  0  0  0  0  0
  145.2570   73.7980  219.7620 C   0  0  0  0  0  0  0  0  0  0  0  0
  144.2460   74.6480  220.2020 C   0  0  0  0  0  0  0  0  0  0  0  0
  143.0840   74.0760  220.6710 C   0  0  0  0  0  0  0  0  0  0  0  0
  142.0630   74.8330  221.1110 N   0  0  0  0  0  0  0  0  0  0  0  0
  140.9090   74.2960  221.5770 C   0  0  0  0  0  0  0  0  0  0  0  0
  139.8840   75.2470  221.9980 C   0  0  0  0  0  0  0  0  0  0  0  0
  139.7970   76.4340  221.4350 C   0  0  0  0  0  0  0  0  0  0  0  0
  140.6270   77.5740  221.7840 C   0  0  0  0  0  0  0  0  0  0  0  0
  141.0390   78.5290  220.8810 C   0  0  0  0  0  0  0  0  0  0  0  0
  141.8300   79.5930  221.2730 C   0  0  0  0  0  0  0  0  0  0  0  0
  142.2460   79.7510  222.5780 C   0  0  0  0  0  0  0  0  0  0  0  0
  141.8390   78.7960  223.4980 C   0  0  0  0  0  0  0  0  0  0  0  0
  141.0550   77.7490  223.0930 C   0  0  0  0  0  0  0  0  0  0  0  0
  140.6950   72.9700  221.6380 N   0  0  0  0  0  0  0  0  0  0  0  0
  139.4870   72.3730  222.1580 C   0  0  0  0  0  0  0  0  0  0  0  0
  139.6850   71.5220  223.3480 C   0  0  0  0  0  0  0  0  0  0  0  0
  140.3540   71.9060  224.4850 C   0  0  0  0  0  0  0  0  0  0  0  0
  140.5080   71.0600  225.5880 C   0  0  0  0  0  0  0  0  0  0  0  0
  139.9890   69.7870  225.5830 C   0  0  0  0  0  0  0  0  0  0  0  0
  139.3140   69.3870  224.4520 C   0  0  0  0  0  0  0  0  0  0  0  0
  138.7940   68.0930  224.4640 O   0  0  0  0  0  0  0  0  0  0  0  0
  139.1630   70.2200  223.3670 C   0  0  0  0  0  0  0  0  0  0  0  0
  143.7860   70.7922  220.3058 H   0  0  0  0  0  0  0  0  0  0  0  0
  146.1953   74.2270  219.3804 H   0  0  0  0  0  0  0  0  0  0  0  0
  144.3710   75.7406  220.1760 H   0  0  0  0  0  0  0  0  0  0  0  0
  139.1773   74.9688  222.7937 H   0  0  0  0  0  0  0  0  0  0  0  0
  139.0435   76.5721  220.6456 H   0  0  0  0  0  0  0  0  0  0  0  0
  140.7329   78.4435  219.8279 H   0  0  0  0  0  0  0  0  0  0  0  0
  142.1365   80.3355  220.5215 H   0  0  0  0  0  0  0  0  0  0  0  0
  142.8761   80.6013  222.8779 H   0  0  0  0  0  0  0  0  0  0  0  0
  142.1456   78.8796  224.5511 H   0  0  0  0  0  0  0  0  0  0  0  0
  140.7479   77.0071  223.8448 H   0  0  0  0  0  0  0  0  0  0  0  0
  138.7924   73.1825  222.4268 H   0  0  0  0  0  0  0  0  0  0  0  0
  139.0981   71.7160  221.3661 H   0  0  0  0  0  0  0  0  0  0  0  0
  140.7848   72.9171  224.5294 H   0  0  0  0  0  0  0  0  0  0  0  0
  141.0530   71.4189  226.4735 H   0  0  0  0  0  0  0  0  0  0  0  0
  140.1081   69.1162  226.4466 H   0  0  0  0  0  0  0  0  0  0  0  0
  139.2550   67.4010  223.9220 H   0  0  0  0  0  0  0  0  0  0  0  0
  138.6154   69.8531  222.4864 H   0  0  0  0  0  0  0  0  0  0  0  0
  1  2  2  0
  2  3  1  0
  3  4  2  0
  4  5  1  0
  5  6  1  0
  5  7  2  0
  7  8  1  0
  8  9  2  0
  9 10  1  0
 10 11  2  0
 11 12  1  0
 12 13  2  0
 13 14  1  0
 14 15  2  0
 15 16  1  0
 16 17  2  0
 17 18  1  0
 18 19  2  0
 11 20  1  0
 20 21  1  0
 21 22  1  0
 22 23  2  0
 23 24  1  0
 24 25  2  0
 25 26  1  0
 26 27  1  0
 26 28  2  0
 20  2  1  0
 28 22  1  0
  9  3  1  0
 19 14  1  0
  4 29  1  0
  7 30  1  0
  8 31  1  0
 12 32  1  0
 13 33  1  0
 15 34  1  0
 16 35  1  0
 17 36  1  0
 18 37  1  0
 19 38  1  0
 21 39  1  0
 21 40  1  0
 23 41  1  0
 24 42  1  0
 25 43  1  0
 27 44  1  0
 28 45  1  0
M  END
>  <smiles>  (39) 
O=c1c2cc(F)ccc2nc(/C=C/c2ccccc2)n1Cc1cccc(O)c1

>  <score_type>  (39) 
oracle

>  <origin>  (39) 
autodockgpu

>  <m_score__min__energy>  (39) 
-8.6300000000000008

>  <m_primary>  (39) 
energy

>  <rmsd>  (39) 
8.92767523152929

>  <m_score__min__rmsd>  (39) 
8.92767523152929

>  <meeko>  (39) 
{"free_energy": -7.12, "intermolecular_energy": -8.91, "internal_energy": -1.18, "cluster_size": 7, "cluster_id": 2, "rank_in_cluster": 6}

>  <energy>  (39) 
-6.9

>  <cluster_rmsd>  (39) 
0.11

>  <cluster>  (39) 
7

$$$$

     RDKit          3D

 45 48  0  0  0  0  0  0  0  0999 V2000
  141.5310   71.0070  221.2210 O   0  0  0  0  0  0  0  0  0  0  0  0
  141.5420   72.2520  221.2340 C   0  0  0  0  0  0  0  0  0  0  0  0
  142.7070   72.8530  220.7390 C   0  0  0  0  0  0  0  0  0  0  0  0
  143.7540   72.0770  220.2760 C   0  0  0  0  0  0  0  0  0  0  0  0
  144.9090   72.6720  219.7860 C   0  0  0  0  0  0  0  0  0  0  0  0
  145.9210   71.8750  219.3370 F   0  0  0  0  0  0  0  0  0  0  0  0
  145.0020   74.0530  219.7630 C   0  0  0  0  0  0  0  0  0  0  0  0
  143.9600   74.8530  220.2250 C   0  0  0  0  0  0  0  0  0  0  0  0
  142.8310   74.2270  220.7040 C   0  0  0  0  0  0  0  0  0  0  0  0
  141.7840   74.9340  221.1640 N   0  0  0  0  0  0  0  0  0  0  0  0
  140.6620   74.3430  221.6410 C   0  0  0  0  0  0  0  0  0  0  0  0
  139.6020   75.2440  222.0840 C   0  0  0  0  0  0  0  0  0  0  0  0
  139.5010   76.4590  221.5870 C   0  0  0  0  0  0  0  0  0  0  0  0
  140.4310   77.5400  221.8600 C   0  0  0  0  0  0  0  0  0  0  0  0
  140.9390   77.8220  223.1090 C   0  0  0  0  0  0  0  0  0  0  0  0
  141.8230   78.8660  223.3070 C   0  0  0  0  0  0  0  0  0  0  0  0
  142.2380   79.6760  222.2700 C   0  0  0  0  0  0  0  0  0  0  0  0
  141.7360   79.4030  221.0060 C   0  0  0  0  0  0  0  0  0  0  0  0
  140.8620   78.3650  220.8290 C   0  0  0  0  0  0  0  0  0  0  0  0
  140.5070   73.0080  221.6910 N   0  0  0  0  0  0  0  0  0  0  0  0
  139.3330   72.3540  222.2220 C   0  0  0  0  0  0  0  0  0  0  0  0
  139.5870   71.4920  223.3940 C   0  0  0  0  0  0  0  0  0  0  0  0
  140.2950   71.8710  224.5080 C   0  0  0  0  0  0  0  0  0  0  0  0
  140.5010   71.0140  225.5950 C   0  0  0  0  0  0  0  0  0  0  0  0
  139.9970   69.7360  225.5950 C   0  0  0  0  0  0  0  0  0  0  0  0
  139.2840   69.3410  224.4860 C   0  0  0  0  0  0  0  0  0  0  0  0
  138.7800   68.0400  224.5020 O   0  0  0  0  0  0  0  0  0  0  0  0
  139.0810   70.1840  223.4170 C   0  0  0  0  0  0  0  0  0  0  0  0
  143.6712   70.9803  220.2961 H   0  0  0  0  0  0  0  0  0  0  0  0
  145.9149   74.5267  219.3730 H   0  0  0  0  0  0  0  0  0  0  0  0
  144.0364   75.9502  220.2078 H   0  0  0  0  0  0  0  0  0  0  0  0
  138.8800   74.9041  222.8411 H   0  0  0  0  0  0  0  0  0  0  0  0
  138.6532   76.6697  220.9186 H   0  0  0  0  0  0  0  0  0  0  0  0
  140.6349   77.2036  223.9664 H   0  0  0  0  0  0  0  0  0  0  0  0
  142.2066   79.0565  224.3202 H   0  0  0  0  0  0  0  0  0  0  0  0
  142.9397   80.5061  222.4390 H   0  0  0  0  0  0  0  0  0  0  0  0
  142.0399   80.0198  220.1474 H   0  0  0  0  0  0  0  0  0  0  0  0
  140.4801   78.1736  219.8153 H   0  0  0  0  0  0  0  0  0  0  0  0
  138.6116   73.1303  222.5169 H   0  0  0  0  0  0  0  0  0  0  0  0
  138.9561   71.6950  221.4259 H   0  0  0  0  0  0  0  0  0  0  0  0
  140.7160   72.8865  224.5474 H   0  0  0  0  0  0  0  0  0  0  0  0
  141.0756   71.3693  226.4631 H   0  0  0  0  0  0  0  0  0  0  0  0
  140.1566   69.0570  226.4456 H   0  0  0  0  0  0  0  0  0  0  0  0
  139.0790   67.4160  223.7910 H   0  0  0  0  0  0  0  0  0  0  0  0
  138.5040   69.8206  222.5539 H   0  0  0  0  0  0  0  0  0  0  0  0
  1  2  2  0
  2  3  1  0
  3  4  2  0
  4  5  1  0
  5  6  1  0
  5  7  2  0
  7  8  1  0
  8  9  2  0
  9 10  1  0
 10 11  2  0
 11 12  1  0
 12 13  2  0
 13 14  1  0
 14 15  2  0
 15 16  1  0
 16 17  2  0
 17 18  1  0
 18 19  2  0
 11 20  1  0
 20 21  1  0
 21 22  1  0
 22 23  2  0
 23 24  1  0
 24 25  2  0
 25 26  1  0
 26 27  1  0
 26 28  2  0
 20  2  1  0
 28 22  1  0
  9  3  1  0
 19 14  1  0
  4 29  1  0
  7 30  1  0
  8 31  1  0
 12 32  1  0
 13 33  1  0
 15 34  1  0
 16 35  1  0
 17 36  1  0
 18 37  1  0
 19 38  1  0
 21 39  1  0
 21 40  1  0
 23 41  1  0
 24 42  1  0
 25 43  1  0
 27 44  1  0
 28 45  1  0
M  END
>  <smiles>  (40) 
O=c1c2cc(F)ccc2nc(/C=C/c2ccccc2)n1Cc1cccc(O)c1

>  <score_type>  (40) 
oracle

>  <origin>  (40) 
autodockgpu

>  <m_score__min__energy>  (40) 
-8.6300000000000008

>  <m_primary>  (40) 
energy

>  <rmsd>  (40) 
8.906550295135265

>  <m_score__min__rmsd>  (40) 
8.906550295135265

>  <meeko>  (40) 
{"free_energy": -6.98, "intermolecular_energy": -8.77, "internal_energy": -1.23, "cluster_size": 7, "cluster_id": 2, "rank_in_cluster": 7}

>  <energy>  (40) 
-6.89

>  <cluster_rmsd>  (40) 
0.32

>  <cluster>  (40) 
7

$$$$

     RDKit          3D

 45 48  0  0  0  0  0  0  0  0999 V2000
  135.2410   71.3090  222.0600 O   0  0  0  0  0  0  0  0  0  0  0  0
  135.7380   70.7230  223.0390 C   0  0  0  0  0  0  0  0  0  0  0  0
  134.9700   70.7410  224.2120 C   0  0  0  0  0  0  0  0  0  0  0  0
  133.7450   71.3820  224.2370 C   0  0  0  0  0  0  0  0  0  0  0  0
  132.9850   71.4020  225.3990 C   0  0  0  0  0  0  0  0  0  0  0  0
  131.7810   72.0440  225.3870 F   0  0  0  0  0  0  0  0  0  0  0  0
  133.4640   70.7710  226.5330 C   0  0  0  0  0  0  0  0  0  0  0  0
  134.6950   70.1200  226.5300 C   0  0  0  0  0  0  0  0  0  0  0  0
  135.4210   70.1220  225.3590 C   0  0  0  0  0  0  0  0  0  0  0  0
  136.6170   69.5120  225.2800 N   0  0  0  0  0  0  0  0  0  0  0  0
  137.3510   69.4990  224.1410 C   0  0  0  0  0  0  0  0  0  0  0  0
  138.6180   68.7780  224.2040 C   0  0  0  0  0  0  0  0  0  0  0  0
  139.2620   68.6470  225.3460 C   0  0  0  0  0  0  0  0  0  0  0  0
  139.8630   69.7450  226.0830 C   0  0  0  0  0  0  0  0  0  0  0  0
  139.8440   69.8510  227.4560 C   0  0  0  0  0  0  0  0  0  0  0  0
  140.4340   70.9210  228.1020 C   0  0  0  0  0  0  0  0  0  0  0  0
  141.0660   71.9320  227.4090 C   0  0  0  0  0  0  0  0  0  0  0  0
  141.0930   71.8390  226.0250 C   0  0  0  0  0  0  0  0  0  0  0  0
  140.5040   70.7720  225.4020 C   0  0  0  0  0  0  0  0  0  0  0  0
  136.9440   70.0930  223.0050 N   0  0  0  0  0  0  0  0  0  0  0  0
  137.7220   70.1190  221.7880 C   0  0  0  0  0  0  0  0  0  0  0  0
  138.8780   71.0370  221.8160 C   0  0  0  0  0  0  0  0  0  0  0  0
  140.1830   70.6620  221.6070 C   0  0  0  0  0  0  0  0  0  0  0  0
  141.2410   71.5750  221.6390 C   0  0  0  0  0  0  0  0  0  0  0  0
  141.0200   72.9080  221.8860 C   0  0  0  0  0  0  0  0  0  0  0  0
  139.7180   73.3010  222.0970 C   0  0  0  0  0  0  0  0  0  0  0  0
  139.5100   74.6580  222.3470 O   0  0  0  0  0  0  0  0  0  0  0  0
  138.6760   72.4020  222.0650 C   0  0  0  0  0  0  0  0  0  0  0  0
  133.3701   71.8794  223.3303 H   0  0  0  0  0  0  0  0  0  0  0  0
  132.8618   70.7837  227.4535 H   0  0  0  0  0  0  0  0  0  0  0  0
  135.0754   69.6204  227.4332 H   0  0  0  0  0  0  0  0  0  0  0  0
  139.0401   68.3390  223.2880 H   0  0  0  0  0  0  0  0  0  0  0  0
  139.3506   67.6362  225.7707 H   0  0  0  0  0  0  0  0  0  0  0  0
  139.3494   69.0686  228.0503 H   0  0  0  0  0  0  0  0  0  0  0  0
  140.3984   70.9675  229.2004 H   0  0  0  0  0  0  0  0  0  0  0  0
  141.5309   72.7798  227.9335 H   0  0  0  0  0  0  0  0  0  0  0  0
  141.5867   72.6211  225.4296 H   0  0  0  0  0  0  0  0  0  0  0  0
  140.5402   70.7254  224.3036 H   0  0  0  0  0  0  0  0  0  0  0  0
  138.0961   69.1021  221.5984 H   0  0  0  0  0  0  0  0  0  0  0  0
  137.0513   70.4869  220.9975 H   0  0  0  0  0  0  0  0  0  0  0  0
  140.4037   69.6031  221.4069 H   0  0  0  0  0  0  0  0  0  0  0  0
  142.2673   71.2202  221.4635 H   0  0  0  0  0  0  0  0  0  0  0  0
  141.8487   73.6309  221.9140 H   0  0  0  0  0  0  0  0  0  0  0  0
  138.8860   74.9070  223.0770 H   0  0  0  0  0  0  0  0  0  0  0  0
  137.6528   72.7659  222.2403 H   0  0  0  0  0  0  0  0  0  0  0  0
  1  2  2  0
  2  3  1  0
  3  4  2  0
  4  5  1  0
  5  6  1  0
  5  7  2  0
  7  8  1  0
  8  9  2  0
  9 10  1  0
 10 11  2  0
 11 12  1  0
 12 13  2  0
 13 14  1  0
 14 15  2  0
 15 16  1  0
 16 17  2  0
 17 18  1  0
 18 19  2  0
 11 20  1  0
 20 21  1  0
 21 22  1  0
 22 23  2  0
 23 24  1  0
 24 25  2  0
 25 26  1  0
 26 27  1  0
 26 28  2  0
 20  2  1  0
 28 22  1  0
  9  3  1  0
 19 14  1  0
  4 29  1  0
  7 30  1  0
  8 31  1  0
 12 32  1  0
 13 33  1  0
 15 34  1  0
 16 35  1  0
 17 36  1  0
 18 37  1  0
 19 38  1  0
 21 39  1  0
 21 40  1  0
 23 41  1  0
 24 42  1  0
 25 43  1  0
 27 44  1  0
 28 45  1  0
M  END
>  <smiles>  (41) 
O=c1c2cc(F)ccc2nc(/C=C/c2ccccc2)n1Cc1cccc(O)c1

>  <score_type>  (41) 
oracle

>  <origin>  (41) 
autodockgpu

>  <m_score__min__energy>  (41) 
-8.6300000000000008

>  <m_primary>  (41) 
energy

>  <rmsd>  (41) 
10.407044709645634

>  <m_score__min__rmsd>  (41) 
10.407044709645634

>  <meeko>  (41) 
{"free_energy": -6.72, "intermolecular_energy": -8.51, "internal_energy": -1.69, "cluster_size": 6, "cluster_id": 5, "rank_in_cluster": 3}

>  <energy>  (41) 
-6.84

>  <cluster_rmsd>  (41) 
0.33

>  <cluster>  (41) 
7

$$$$

     RDKit          3D

 45 48  0  0  0  0  0  0  0  0999 V2000
  142.6980   76.8730  216.9330 O   0  0  0  0  0  0  0  0  0  0  0  0
  142.3440   77.2970  218.0490 C   0  0  0  0  0  0  0  0  0  0  0  0
  142.2580   78.6910  218.1690 C   0  0  0  0  0  0  0  0  0  0  0  0
  142.5550   79.5070  217.0920 C   0  0  0  0  0  0  0  0  0  0  0  0
  142.4700   80.8880  217.2100 C   0  0  0  0  0  0  0  0  0  0  0  0
  142.7710   81.6610  216.1270 F   0  0  0  0  0  0  0  0  0  0  0  0
  142.0820   81.4420  218.4180 C   0  0  0  0  0  0  0  0  0  0  0  0
  141.7780   80.6390  219.5140 C   0  0  0  0  0  0  0  0  0  0  0  0
  141.8740   79.2740  219.3590 C   0  0  0  0  0  0  0  0  0  0  0  0
  141.5950   78.4360  220.3730 N   0  0  0  0  0  0  0  0  0  0  0  0
  141.6810   77.0890  220.2470 C   0  0  0  0  0  0  0  0  0  0  0  0
  141.3240   76.3110  221.4290 C   0  0  0  0  0  0  0  0  0  0  0  0
  140.6830   76.8710  222.4340 C   0  0  0  0  0  0  0  0  0  0  0  0
  140.9290   78.2160  222.9220 C   0  0  0  0  0  0  0  0  0  0  0  0
  142.1540   78.6590  223.3700 C   0  0  0  0  0  0  0  0  0  0  0  0
  142.3280   79.9530  223.8240 C   0  0  0  0  0  0  0  0  0  0  0  0
  141.2900   80.8620  223.8510 C   0  0  0  0  0  0  0  0  0  0  0  0
  140.0510   80.4300  223.4020 C   0  0  0  0  0  0  0  0  0  0  0  0
  139.8970   79.1440  222.9560 C   0  0  0  0  0  0  0  0  0  0  0  0
  142.0520   76.4870  219.1030 N   0  0  0  0  0  0  0  0  0  0  0  0
  142.1810   75.0560  218.9520 C   0  0  0  0  0  0  0  0  0  0  0  0
  143.4880   74.5090  219.3680 C   0  0  0  0  0  0  0  0  0  0  0  0
  144.1830   74.9020  220.4860 C   0  0  0  0  0  0  0  0  0  0  0  0
  145.4180   74.3450  220.8360 C   0  0  0  0  0  0  0  0  0  0  0  0
  145.9980   73.3670  220.0660 C   0  0  0  0  0  0  0  0  0  0  0  0
  145.3140   72.9610  218.9430 C   0  0  0  0  0  0  0  0  0  0  0  0
  145.9170   71.9670  218.1720 O   0  0  0  0  0  0  0  0  0  0  0  0
  144.0990   73.5090  218.5980 C   0  0  0  0  0  0  0  0  0  0  0  0
  142.8607   79.0586  216.1352 H   0  0  0  0  0  0  0  0  0  0  0  0
  142.0127   82.5357  218.5135 H   0  0  0  0  0  0  0  0  0  0  0  0
  141.4709   81.0809  220.4734 H   0  0  0  0  0  0  0  0  0  0  0  0
  141.5931   75.2457  221.4811 H   0  0  0  0  0  0  0  0  0  0  0  0
  139.9065   76.2779  222.9393 H   0  0  0  0  0  0  0  0  0  0  0  0
  143.0109   77.9692  223.3664 H   0  0  0  0  0  0  0  0  0  0  0  0
  143.3224   80.2672  224.1738 H   0  0  0  0  0  0  0  0  0  0  0  0
  141.4395   81.8894  224.2146 H   0  0  0  0  0  0  0  0  0  0  0  0
  139.1934   81.1189  223.4040 H   0  0  0  0  0  0  0  0  0  0  0  0
  138.9026   78.8298  222.6061 H   0  0  0  0  0  0  0  0  0  0  0  0
  141.3992   74.5752  219.5584 H   0  0  0  0  0  0  0  0  0  0  0  0
  142.0834   74.8461  217.8766 H   0  0  0  0  0  0  0  0  0  0  0  0
  143.7528   75.6833  221.1297 H   0  0  0  0  0  0  0  0  0  0  0  0
  145.9326   74.6962  221.7426 H   0  0  0  0  0  0  0  0  0  0  0  0
  146.9691   72.9264  220.3357 H   0  0  0  0  0  0  0  0  0  0  0  0
  145.3300   71.3640  217.6460 H   0  0  0  0  0  0  0  0  0  0  0  0
  143.5917   73.1512  217.6899 H   0  0  0  0  0  0  0  0  0  0  0  0
  1  2  2  0
  2  3  1  0
  3  4  2  0
  4  5  1  0
  5  6  1  0
  5  7  2  0
  7  8  1  0
  8  9  2  0
  9 10  1  0
 10 11  2  0
 11 12  1  0
 12 13  2  0
 13 14  1  0
 14 15  2  0
 15 16  1  0
 16 17  2  0
 17 18  1  0
 18 19  2  0
 11 20  1  0
 20 21  1  0
 21 22  1  0
 22 23  2  0
 23 24  1  0
 24 25  2  0
 25 26  1  0
 26 27  1  0
 26 28  2  0
 20  2  1  0
 28 22  1  0
  9  3  1  0
 19 14  1  0
  4 29  1  0
  7 30  1  0
  8 31  1  0
 12 32  1  0
 13 33  1  0
 15 34  1  0
 16 35  1  0
 17 36  1  0
 18 37  1  0
 19 38  1  0
 21 39  1  0
 21 40  1  0
 23 41  1  0
 24 42  1  0
 25 43  1  0
 27 44  1  0
 28 45  1  0
M  END
>  <smiles>  (42) 
O=c1c2cc(F)ccc2nc(/C=C/c2ccccc2)n1Cc1cccc(O)c1

>  <score_type>  (42) 
oracle

>  <origin>  (42) 
autodockgpu

>  <m_score__min__energy>  (42) 
-8.6300000000000008

>  <m_primary>  (42) 
energy

>  <rmsd>  (42) 
7.5819506575369475

>  <m_score__min__rmsd>  (42) 
7.5819506575369475

>  <meeko>  (42) 
{"free_energy": -7.03, "intermolecular_energy": -8.82, "internal_energy": -1.13, "cluster_size": 1, "cluster_id": 6, "rank_in_cluster": 1}

>  <energy>  (42) 
-6.82

>  <cluster_rmsd>  (42) 
0.2

>  <cluster>  (42) 
7

$$$$

     RDKit          3D

 45 48  0  0  0  0  0  0  0  0999 V2000
  141.6150   71.0760  221.2760 O   0  0  0  0  0  0  0  0  0  0  0  0
  141.7330   72.3150  221.2450 C   0  0  0  0  0  0  0  0  0  0  0  0
  142.9510   72.7960  220.7480 C   0  0  0  0  0  0  0  0  0  0  0  0
  143.9340   71.9170  220.3300 C   0  0  0  0  0  0  0  0  0  0  0  0
  145.1420   72.3930  219.8380 C   0  0  0  0  0  0  0  0  0  0  0  0
  146.0880   71.4970  219.4340 F   0  0  0  0  0  0  0  0  0  0  0  0
  145.3540   73.7590  219.7670 C   0  0  0  0  0  0  0  0  0  0  0  0
  144.3780   74.6620  220.1820 C   0  0  0  0  0  0  0  0  0  0  0  0
  143.1930   74.1520  220.6650 C   0  0  0  0  0  0  0  0  0  0  0  0
  142.2050   74.9630  221.0830 N   0  0  0  0  0  0  0  0  0  0  0  0
  141.0290   74.4870  221.5620 C   0  0  0  0  0  0  0  0  0  0  0  0
  140.0450   75.4910  221.9550 C   0  0  0  0  0  0  0  0  0  0  0  0
  140.0500   76.6880  221.4070 C   0  0  0  0  0  0  0  0  0  0  0  0
  140.8370   77.8110  221.8870 C   0  0  0  0  0  0  0  0  0  0  0  0
  141.3770   78.7770  221.0670 C   0  0  0  0  0  0  0  0  0  0  0  0
  142.1180   79.8240  221.5830 C   0  0  0  0  0  0  0  0  0  0  0  0
  142.3550   79.9520  222.9350 C   0  0  0  0  0  0  0  0  0  0  0  0
  141.8170   78.9860  223.7730 C   0  0  0  0  0  0  0  0  0  0  0  0
  141.0860   77.9570  223.2450 C   0  0  0  0  0  0  0  0  0  0  0  0
  140.7600   73.1730  221.6580 N   0  0  0  0  0  0  0  0  0  0  0  0
  139.5280   72.6410  222.1920 C   0  0  0  0  0  0  0  0  0  0  0  0
  139.7030   71.6650  223.2850 C   0  0  0  0  0  0  0  0  0  0  0  0
  140.3990   71.9020  224.4460 C   0  0  0  0  0  0  0  0  0  0  0  0
  140.5290   70.9410  225.4540 C   0  0  0  0  0  0  0  0  0  0  0  0
  139.9580   69.6980  225.3260 C   0  0  0  0  0  0  0  0  0  0  0  0
  139.2570   69.4440  224.1690 C   0  0  0  0  0  0  0  0  0  0  0  0
  138.6840   68.1770  224.0540 O   0  0  0  0  0  0  0  0  0  0  0  0
  139.1280   70.3900  223.1770 C   0  0  0  0  0  0  0  0  0  0  0  0
  143.7573   70.8328  220.3878 H   0  0  0  0  0  0  0  0  0  0  0  0
  146.3098   74.1380  219.3761 H   0  0  0  0  0  0  0  0  0  0  0  0
  144.5480   75.7473  220.1259 H   0  0  0  0  0  0  0  0  0  0  0  0
  139.2911   75.2448  222.7173 H   0  0  0  0  0  0  0  0  0  0  0  0
  139.4140   76.8492  220.5241 H   0  0  0  0  0  0  0  0  0  0  0  0
  141.2156   78.7143  219.9807 H   0  0  0  0  0  0  0  0  0  0  0  0
  142.5303   80.5766  220.8948 H   0  0  0  0  0  0  0  0  0  0  0  0
  142.9480   80.7881  223.3341 H   0  0  0  0  0  0  0  0  0  0  0  0
  141.9778   79.0472  224.8595 H   0  0  0  0  0  0  0  0  0  0  0  0
  140.6734   77.2049  223.9335 H   0  0  0  0  0  0  0  0  0  0  0  0
  138.9290   73.4806  222.5744 H   0  0  0  0  0  0  0  0  0  0  0  0
  139.0382   72.1016  221.3679 H   0  0  0  0  0  0  0  0  0  0  0  0
  140.8719   72.8849  224.5880 H   0  0  0  0  0  0  0  0  0  0  0  0
  141.0975   71.1844  226.3637 H   0  0  0  0  0  0  0  0  0  0  0  0
  140.0568   68.9378  226.1149 H   0  0  0  0  0  0  0  0  0  0  0  0
  139.2100   67.4670  223.6040 H   0  0  0  0  0  0  0  0  0  0  0  0
  138.5563   70.1382  222.2716 H   0  0  0  0  0  0  0  0  0  0  0  0
  1  2  2  0
  2  3  1  0
  3  4  2  0
  4  5  1  0
  5  6  1  0
  5  7  2  0
  7  8  1  0
  8  9  2  0
  9 10  1  0
 10 11  2  0
 11 12  1  0
 12 13  2  0
 13 14  1  0
 14 15  2  0
 15 16  1  0
 16 17  2  0
 17 18  1  0
 18 19  2  0
 11 20  1  0
 20 21  1  0
 21 22  1  0
 22 23  2  0
 23 24  1  0
 24 25  2  0
 25 26  1  0
 26 27  1  0
 26 28  2  0
 20  2  1  0
 28 22  1  0
  9  3  1  0
 19 14  1  0
  4 29  1  0
  7 30  1  0
  8 31  1  0
 12 32  1  0
 13 33  1  0
 15 34  1  0
 16 35  1  0
 17 36  1  0
 18 37  1  0
 19 38  1  0
 21 39  1  0
 21 40  1  0
 23 41  1  0
 24 42  1  0
 25 43  1  0
 27 44  1  0
 28 45  1  0
M  END
>  <smiles>  (43) 
O=c1c2cc(F)ccc2nc(/C=C/c2ccccc2)n1Cc1cccc(O)c1

>  <score_type>  (43) 
oracle

>  <origin>  (43) 
autodockgpu

>  <m_score__min__energy>  (43) 
-8.6300000000000008

>  <m_primary>  (43) 
energy

>  <rmsd>  (43) 
8.865451156202393

>  <m_score__min__rmsd>  (43) 
8.865451156202393

>  <meeko>  (43) 
{"free_energy": -7.17, "intermolecular_energy": -8.96, "internal_energy": -1.11, "cluster_size": 7, "cluster_id": 2, "rank_in_cluster": 5}

>  <energy>  (43) 
-6.71

>  <cluster_rmsd>  (43) 
0.0

>  <cluster>  (43) 
8

$$$$

     RDKit          3D

 45 48  0  0  0  0  0  0  0  0999 V2000
  143.4580   77.0460  219.3400 O   0  0  0  0  0  0  0  0  0  0  0  0
  142.5970   76.3970  219.9610 C   0  0  0  0  0  0  0  0  0  0  0  0
  142.9150   75.0570  220.2190 C   0  0  0  0  0  0  0  0  0  0  0  0
  144.1190   74.5280  219.7920 C   0  0  0  0  0  0  0  0  0  0  0  0
  144.4340   73.2000  220.0460 C   0  0  0  0  0  0  0  0  0  0  0  0
  145.6320   72.7120  219.6090 F   0  0  0  0  0  0  0  0  0  0  0  0
  143.5310   72.4080  220.7340 C   0  0  0  0  0  0  0  0  0  0  0  0
  142.3130   72.9210  221.1730 C   0  0  0  0  0  0  0  0  0  0  0  0
  142.0360   74.2420  220.9020 C   0  0  0  0  0  0  0  0  0  0  0  0
  140.8800   74.8060  221.2970 N   0  0  0  0  0  0  0  0  0  0  0  0
  140.5820   76.1040  221.0430 C   0  0  0  0  0  0  0  0  0  0  0  0
  139.3000   76.5780  221.5540 C   0  0  0  0  0  0  0  0  0  0  0  0
  139.2320   77.2410  222.6890 C   0  0  0  0  0  0  0  0  0  0  0  0
  138.8040   78.6240  222.8110 C   0  0  0  0  0  0  0  0  0  0  0  0
  137.9460   79.2440  221.9300 C   0  0  0  0  0  0  0  0  0  0  0  0
  137.5750   80.5650  222.0980 C   0  0  0  0  0  0  0  0  0  0  0  0
  138.0410   81.3250  223.1500 C   0  0  0  0  0  0  0  0  0  0  0  0
  138.9040   80.7130  224.0470 C   0  0  0  0  0  0  0  0  0  0  0  0
  139.2620   79.4040  223.8640 C   0  0  0  0  0  0  0  0  0  0  0  0
  141.4140   76.9260  220.3790 N   0  0  0  0  0  0  0  0  0  0  0  0
  141.1070   78.3040  220.0700 C   0  0  0  0  0  0  0  0  0  0  0  0
  141.5150   79.2720  221.1070 C   0  0  0  0  0  0  0  0  0  0  0  0
  142.2050   78.9530  222.2520 C   0  0  0  0  0  0  0  0  0  0  0  0
  142.5710   79.9130  223.2000 C   0  0  0  0  0  0  0  0  0  0  0  0
  142.2520   81.2380  223.0270 C   0  0  0  0  0  0  0  0  0  0  0  0
  141.5620   81.5750  221.8850 C   0  0  0  0  0  0  0  0  0  0  0  0
  141.2450   82.9250  221.7250 O   0  0  0  0  0  0  0  0  0  0  0  0
  141.2010   80.6300  220.9520 C   0  0  0  0  0  0  0  0  0  0  0  0
  144.8323   75.1639  219.2472 H   0  0  0  0  0  0  0  0  0  0  0  0
  143.7796   71.3559  220.9373 H   0  0  0  0  0  0  0  0  0  0  0  0
  141.5953   72.2909  221.7188 H   0  0  0  0  0  0  0  0  0  0  0  0
  138.3803   76.3790  220.9844 H   0  0  0  0  0  0  0  0  0  0  0  0
  139.5192   76.7111  223.6092 H   0  0  0  0  0  0  0  0  0  0  0  0
  137.5480   78.6768  221.0757 H   0  0  0  0  0  0  0  0  0  0  0  0
  136.8880   81.0233  221.3713 H   0  0  0  0  0  0  0  0  0  0  0  0
  137.7400   82.3758  223.2731 H   0  0  0  0  0  0  0  0  0  0  0  0
  139.3000   81.2780  224.9037 H   0  0  0  0  0  0  0  0  0  0  0  0
  139.9494   78.9460  224.5904 H   0  0  0  0  0  0  0  0  0  0  0  0
  141.6199   78.5680  219.1334 H   0  0  0  0  0  0  0  0  0  0  0  0
  140.0115   78.3701  219.9956 H   0  0  0  0  0  0  0  0  0  0  0  0
  142.4796   77.9027  222.4292 H   0  0  0  0  0  0  0  0  0  0  0  0
  143.1234   79.6024  224.0991 H   0  0  0  0  0  0  0  0  0  0  0  0
  142.5362   81.9976  223.7701 H   0  0  0  0  0  0  0  0  0  0  0  0
  140.7880   83.2000  220.8890 H   0  0  0  0  0  0  0  0  0  0  0  0
  140.6486   80.9500  220.0562 H   0  0  0  0  0  0  0  0  0  0  0  0
  1  2  2  0
  2  3  1  0
  3  4  2  0
  4  5  1  0
  5  6  1  0
  5  7  2  0
  7  8  1  0
  8  9  2  0
  9 10  1  0
 10 11  2  0
 11 12  1  0
 12 13  2  0
 13 14  1  0
 14 15  2  0
 15 16  1  0
 16 17  2  0
 17 18  1  0
 18 19  2  0
 11 20  1  0
 20 21  1  0
 21 22  1  0
 22 23  2  0
 23 24  1  0
 24 25  2  0
 25 26  1  0
 26 27  1  0
 26 28  2  0
 20  2  1  0
 28 22  1  0
  9  3  1  0
 19 14  1  0
  4 29  1  0
  7 30  1  0
  8 31  1  0
 12 32  1  0
 13 33  1  0
 15 34  1  0
 16 35  1  0
 17 36  1  0
 18 37  1  0
 19 38  1  0
 21 39  1  0
 21 40  1  0
 23 41  1  0
 24 42  1  0
 25 43  1  0
 27 44  1  0
 28 45  1  0
M  END
>  <smiles>  (44) 
O=c1c2cc(F)ccc2nc(/C=C/c2ccccc2)n1Cc1cccc(O)c1

>  <score_type>  (44) 
oracle

>  <origin>  (44) 
autodockgpu

>  <m_score__min__energy>  (44) 
-8.6300000000000008

>  <m_primary>  (44) 
energy

>  <rmsd>  (44) 
4.084730748750709

>  <m_score__min__rmsd>  (44) 
4.084730748750709

>  <meeko>  (44) 
{"free_energy": -6.2, "intermolecular_energy": -7.99, "internal_energy": -1.95, "cluster_size": 5, "cluster_id": 8, "rank_in_cluster": 5}

>  <energy>  (44) 
-6.7

>  <cluster_rmsd>  (44) 
0.06

>  <cluster>  (44) 
8

$$$$

     RDKit          3D

 45 48  0  0  0  0  0  0  0  0999 V2000
  141.5870   81.2550  221.3230 O   0  0  0  0  0  0  0  0  0  0  0  0
  141.7980   80.4330  220.4130 C   0  0  0  0  0  0  0  0  0  0  0  0
  141.8910   80.9680  219.1210 C   0  0  0  0  0  0  0  0  0  0  0  0
  141.7480   82.3280  218.9140 C   0  0  0  0  0  0  0  0  0  0  0  0
  141.8390   82.8580  217.6340 C   0  0  0  0  0  0  0  0  0  0  0  0
  141.6930   84.2040  217.4670 F   0  0  0  0  0  0  0  0  0  0  0  0
  142.0750   82.0120  216.5640 C   0  0  0  0  0  0  0  0  0  0  0  0
  142.2210   80.6400  216.7500 C   0  0  0  0  0  0  0  0  0  0  0  0
  142.1250   80.1500  218.0340 C   0  0  0  0  0  0  0  0  0  0  0  0
  142.2570   78.8370  218.2910 N   0  0  0  0  0  0  0  0  0  0  0  0
  142.1660   78.3290  219.5440 C   0  0  0  0  0  0  0  0  0  0  0  0
  142.3540   76.8870  219.6660 C   0  0  0  0  0  0  0  0  0  0  0  0
  143.5630   76.3640  219.6740 C   0  0  0  0  0  0  0  0  0  0  0  0
  143.8680   75.0010  220.0720 C   0  0  0  0  0  0  0  0  0  0  0  0
  145.1150   74.5790  220.4770 C   0  0  0  0  0  0  0  0  0  0  0  0
  145.3450   73.2660  220.8440 C   0  0  0  0  0  0  0  0  0  0  0  0
  144.3440   72.3170  220.8220 C   0  0  0  0  0  0  0  0  0  0  0  0
  143.0830   72.7280  220.4160 C   0  0  0  0  0  0  0  0  0  0  0  0
  142.8730   74.0320  220.0560 C   0  0  0  0  0  0  0  0  0  0  0  0
  141.9380   79.0950  220.6260 N   0  0  0  0  0  0  0  0  0  0  0  0
  141.8080   78.5760  221.9670 C   0  0  0  0  0  0  0  0  0  0  0  0
  140.5780   77.7940  222.2070 C   0  0  0  0  0  0  0  0  0  0  0  0
  139.3450   78.3350  222.4770 C   0  0  0  0  0  0  0  0  0  0  0  0
  138.2090   77.5470  222.6910 C   0  0  0  0  0  0  0  0  0  0  0  0
  138.2790   76.1760  222.6420 C   0  0  0  0  0  0  0  0  0  0  0  0
  139.5070   75.6180  222.3710 C   0  0  0  0  0  0  0  0  0  0  0  0
  139.5610   74.2240  222.3240 O   0  0  0  0  0  0  0  0  0  0  0  0
  140.6250   76.3940  222.1600 C   0  0  0  0  0  0  0  0  0  0  0  0
  141.5609   82.9941  219.7691 H   0  0  0  0  0  0  0  0  0  0  0  0
  142.1484   82.4309  215.5495 H   0  0  0  0  0  0  0  0  0  0  0  0
  142.4071   79.9686  215.8988 H   0  0  0  0  0  0  0  0  0  0  0  0
  141.4764   76.2295  219.7522 H   0  0  0  0  0  0  0  0  0  0  0  0
  144.3996   77.0041  219.3572 H   0  0  0  0  0  0  0  0  0  0  0  0
  145.9443   75.3009  220.5091 H   0  0  0  0  0  0  0  0  0  0  0  0
  146.3552   72.9695  221.1627 H   0  0  0  0  0  0  0  0  0  0  0  0
  144.5383   71.2747  221.1151 H   0  0  0  0  0  0  0  0  0  0  0  0
  142.2528   72.0071  220.3833 H   0  0  0  0  0  0  0  0  0  0  0  0
  141.8627   74.3281  219.7372 H   0  0  0  0  0  0  0  0  0  0  0  0
  142.6725   77.9264  222.1688 H   0  0  0  0  0  0  0  0  0  0  0  0
  141.7584   79.4482  222.6355 H   0  0  0  0  0  0  0  0  0  0  0  0
  139.2468   79.4295  222.5269 H   0  0  0  0  0  0  0  0  0  0  0  0
  137.2448   78.0328  222.9017 H   0  0  0  0  0  0  0  0  0  0  0  0
  137.3904   75.5504  222.8123 H   0  0  0  0  0  0  0  0  0  0  0  0
  139.0950   73.7160  223.0380 H   0  0  0  0  0  0  0  0  0  0  0  0
  141.5846   75.8998  221.9480 H   0  0  0  0  0  0  0  0  0  0  0  0
  1  2  2  0
  2  3  1  0
  3  4  2  0
  4  5  1  0
  5  6  1  0
  5  7  2  0
  7  8  1  0
  8  9  2  0
  9 10  1  0
 10 11  2  0
 11 12  1  0
 12 13  2  0
 13 14  1  0
 14 15  2  0
 15 16  1  0
 16 17  2  0
 17 18  1  0
 18 19  2  0
 11 20  1  0
 20 21  1  0
 21 22  1  0
 22 23  2  0
 23 24  1  0
 24 25  2  0
 25 26  1  0
 26 27  1  0
 26 28  2  0
 20  2  1  0
 28 22  1  0
  9  3  1  0
 19 14  1  0
  4 29  1  0
  7 30  1  0
  8 31  1  0
 12 32  1  0
 13 33  1  0
 15 34  1  0
 16 35  1  0
 17 36  1  0
 18 37  1  0
 19 38  1  0
 21 39  1  0
 21 40  1  0
 23 41  1  0
 24 42  1  0
 25 43  1  0
 27 44  1  0
 28 45  1  0
M  END
>  <smiles>  (45) 
O=c1c2cc(F)ccc2nc(/C=C/c2ccccc2)n1Cc1cccc(O)c1

>  <score_type>  (45) 
oracle

>  <origin>  (45) 
autodockgpu

>  <m_score__min__energy>  (45) 
-8.6300000000000008

>  <m_primary>  (45) 
energy

>  <rmsd>  (45) 
5.047549499315516

>  <m_score__min__rmsd>  (45) 
5.047549499315516

>  <meeko>  (45) 
{"free_energy": -7.1, "intermolecular_energy": -8.89, "internal_energy": -1.13, "cluster_size": 3, "cluster_id": 3, "rank_in_cluster": 1}

>  <energy>  (45) 
-6.55

>  <cluster_rmsd>  (45) 
1.55

>  <cluster>  (45) 
8

$$$$

     RDKit          3D

 45 48  0  0  0  0  0  0  0  0999 V2000
  142.5930   76.6920  219.3610 O   0  0  0  0  0  0  0  0  0  0  0  0
  141.8210   76.3580  220.2790 C   0  0  0  0  0  0  0  0  0  0  0  0
  141.4310   77.3870  221.1480 C   0  0  0  0  0  0  0  0  0  0  0  0
  141.8980   78.6750  220.9620 C   0  0  0  0  0  0  0  0  0  0  0  0
  141.5130   79.6940  221.8230 C   0  0  0  0  0  0  0  0  0  0  0  0
  141.9930   80.9530  221.6090 F   0  0  0  0  0  0  0  0  0  0  0  0
  140.6540   79.4090  222.8700 C   0  0  0  0  0  0  0  0  0  0  0  0
  140.1730   78.1180  223.0760 C   0  0  0  0  0  0  0  0  0  0  0  0
  140.5770   77.1340  222.2020 C   0  0  0  0  0  0  0  0  0  0  0  0
  140.1520   75.8650  222.3360 N   0  0  0  0  0  0  0  0  0  0  0  0
  140.5340   74.8780  221.4900 C   0  0  0  0  0  0  0  0  0  0  0  0
  139.9710   73.5570  221.7520 C   0  0  0  0  0  0  0  0  0  0  0  0
  140.6790   72.6340  222.3700 C   0  0  0  0  0  0  0  0  0  0  0  0
  140.1560   71.7420  223.3900 C   0  0  0  0  0  0  0  0  0  0  0  0
  140.7500   71.5440  224.6170 C   0  0  0  0  0  0  0  0  0  0  0  0
  140.2040   70.6800  225.5480 C   0  0  0  0  0  0  0  0  0  0  0  0
  139.0450   69.9760  225.2980 C   0  0  0  0  0  0  0  0  0  0  0  0
  138.4360   70.1660  224.0660 C   0  0  0  0  0  0  0  0  0  0  0  0
  138.9900   71.0250  223.1560 C   0  0  0  0  0  0  0  0  0  0  0  0
  141.3660   75.0870  220.4540 N   0  0  0  0  0  0  0  0  0  0  0  0
  141.8120   74.0470  219.5570 C   0  0  0  0  0  0  0  0  0  0  0  0
  143.2070   73.6100  219.7670 C   0  0  0  0  0  0  0  0  0  0  0  0
  143.7030   73.1080  220.9460 C   0  0  0  0  0  0  0  0  0  0  0  0
  145.0340   72.7030  221.0880 C   0  0  0  0  0  0  0  0  0  0  0  0
  145.9180   72.7910  220.0400 C   0  0  0  0  0  0  0  0  0  0  0  0
  145.4360   73.2910  218.8520 C   0  0  0  0  0  0  0  0  0  0  0  0
  146.3470   73.3740  217.7970 O   0  0  0  0  0  0  0  0  0  0  0  0
  144.1260   73.6890  218.7110 C   0  0  0  0  0  0  0  0  0  0  0  0
  142.5791   78.8939  220.1264 H   0  0  0  0  0  0  0  0  0  0  0  0
  140.3458   80.2158  223.5512 H   0  0  0  0  0  0  0  0  0  0  0  0
  139.4924   77.8921  223.9101 H   0  0  0  0  0  0  0  0  0  0  0  0
  138.9441   73.3298  221.4298 H   0  0  0  0  0  0  0  0  0  0  0  0
  141.7391   72.5318  222.0947 H   0  0  0  0  0  0  0  0  0  0  0  0
  141.6769   72.0839  224.8608 H   0  0  0  0  0  0  0  0  0  0  0  0
  140.7090   70.5504  226.5166 H   0  0  0  0  0  0  0  0  0  0  0  0
  138.6199   69.2906  226.0461 H   0  0  0  0  0  0  0  0  0  0  0  0
  137.5090   69.6269  223.8209 H   0  0  0  0  0  0  0  0  0  0  0  0
  138.4847   71.1544  222.1875 H   0  0  0  0  0  0  0  0  0  0  0  0
  141.1555   73.1745  219.6900 H   0  0  0  0  0  0  0  0  0  0  0  0
  141.7674   74.4701  218.5426 H   0  0  0  0  0  0  0  0  0  0  0  0
  143.0281   73.0215  221.8103 H   0  0  0  0  0  0  0  0  0  0  0  0
  145.3788   72.3075  222.0548 H   0  0  0  0  0  0  0  0  0  0  0  0
  146.9664   72.4752  220.1460 H   0  0  0  0  0  0  0  0  0  0  0  0
  146.6190   74.2760  217.4870 H   0  0  0  0  0  0  0  0  0  0  0  0
  143.7897   74.0812  217.7399 H   0  0  0  0  0  0  0  0  0  0  0  0
  1  2  2  0
  2  3  1  0
  3  4  2  0
  4  5  1  0
  5  6  1  0
  5  7  2  0
  7  8  1  0
  8  9  2  0
  9 10  1  0
 10 11  2  0
 11 12  1  0
 12 13  2  0
 13 14  1  0
 14 15  2  0
 15 16  1  0
 16 17  2  0
 17 18  1  0
 18 19  2  0
 11 20  1  0
 20 21  1  0
 21 22  1  0
 22 23  2  0
 23 24  1  0
 24 25  2  0
 25 26  1  0
 26 27  1  0
 26 28  2  0
 20  2  1  0
 28 22  1  0
  9  3  1  0
 19 14  1  0
  4 29  1  0
  7 30  1  0
  8 31  1  0
 12 32  1  0
 13 33  1  0
 15 34  1  0
 16 35  1  0
 17 36  1  0
 18 37  1  0
 19 38  1  0
 21 39  1  0
 21 40  1  0
 23 41  1  0
 24 42  1  0
 25 43  1  0
 27 44  1  0
 28 45  1  0
M  END
>  <smiles>  (46) 
O=c1c2cc(F)ccc2nc(/C=C/c2ccccc2)n1Cc1cccc(O)c1

>  <score_type>  (46) 
oracle

>  <origin>  (46) 
autodockgpu

>  <m_score__min__energy>  (46) 
-8.6300000000000008

>  <m_primary>  (46) 
energy

>  <rmsd>  (46) 
7.823884417736166

>  <m_score__min__rmsd>  (46) 
7.823884417736166

>  <meeko>  (46) 
{"free_energy": -7.61, "intermolecular_energy": -9.4, "internal_energy": -1.11, "cluster_size": 13, "cluster_id": 1, "rank_in_cluster": 10}

>  <energy>  (46) 
-6.47

>  <cluster_rmsd>  (46) 
1.45

>  <cluster>  (46) 
8

$$$$

     RDKit          3D

 45 48  0  0  0  0  0  0  0  0999 V2000
  142.6530   76.9240  219.3880 O   0  0  0  0  0  0  0  0  0  0  0  0
  141.8750   76.5310  220.2760 C   0  0  0  0  0  0  0  0  0  0  0  0
  141.4270   77.5130  221.1700 C   0  0  0  0  0  0  0  0  0  0  0  0
  141.8490   78.8240  221.0400 C   0  0  0  0  0  0  0  0  0  0  0  0
  141.4070   79.7970  221.9260 C   0  0  0  0  0  0  0  0  0  0  0  0
  141.8440   81.0800  221.7670 F   0  0  0  0  0  0  0  0  0  0  0  0
  140.5370   79.4430  222.9430 C   0  0  0  0  0  0  0  0  0  0  0  0
  140.1010   78.1300  223.0920 C   0  0  0  0  0  0  0  0  0  0  0  0
  140.5610   77.1920  222.1950 C   0  0  0  0  0  0  0  0  0  0  0  0
  140.1810   75.9050  222.2760 N   0  0  0  0  0  0  0  0  0  0  0  0
  140.6190   74.9620  221.4050 C   0  0  0  0  0  0  0  0  0  0  0  0
  140.1000   73.6130  221.6080 C   0  0  0  0  0  0  0  0  0  0  0  0
  140.7660   72.7380  222.3330 C   0  0  0  0  0  0  0  0  0  0  0  0
  140.1580   71.8210  223.2810 C   0  0  0  0  0  0  0  0  0  0  0  0
  140.6900   71.5300  224.5180 C   0  0  0  0  0  0  0  0  0  0  0  0
  140.0650   70.6470  225.3790 C   0  0  0  0  0  0  0  0  0  0  0  0
  138.8850   70.0170  225.0460 C   0  0  0  0  0  0  0  0  0  0  0  0
  138.3370   70.3010  223.8030 C   0  0  0  0  0  0  0  0  0  0  0  0
  138.9700   71.1770  222.9630 C   0  0  0  0  0  0  0  0  0  0  0  0
  141.4640   75.2390  220.3970 N   0  0  0  0  0  0  0  0  0  0  0  0
  141.9680   74.2480  219.4750 C   0  0  0  0  0  0  0  0  0  0  0  0
  143.3500   73.8030  219.7450 C   0  0  0  0  0  0  0  0  0  0  0  0
  144.0780   74.1370  220.8610 C   0  0  0  0  0  0  0  0  0  0  0  0
  145.3840   73.6830  221.0700 C   0  0  0  0  0  0  0  0  0  0  0  0
  146.0070   72.8710  220.1530 C   0  0  0  0  0  0  0  0  0  0  0  0
  145.2910   72.5260  219.0290 C   0  0  0  0  0  0  0  0  0  0  0  0
  145.9390   71.7010  218.1090 O   0  0  0  0  0  0  0  0  0  0  0  0
  144.0060   72.9730  218.8240 C   0  0  0  0  0  0  0  0  0  0  0  0
  142.5397   79.0974  220.2287 H   0  0  0  0  0  0  0  0  0  0  0  0
  140.1844   80.2128  223.6452 H   0  0  0  0  0  0  0  0  0  0  0  0
  139.4104   77.8501  223.9011 H   0  0  0  0  0  0  0  0  0  0  0  0
  139.1423   73.3240  221.1506 H   0  0  0  0  0  0  0  0  0  0  0  0
  141.8586   72.6991  222.2120 H   0  0  0  0  0  0  0  0  0  0  0  0
  141.6306   72.0096  224.8268 H   0  0  0  0  0  0  0  0  0  0  0  0
  140.5226   70.4413  226.3579 H   0  0  0  0  0  0  0  0  0  0  0  0
  138.3965   69.3161  225.7389 H   0  0  0  0  0  0  0  0  0  0  0  0
  137.3959   69.8231  223.4934 H   0  0  0  0  0  0  0  0  0  0  0  0
  138.5129   71.3816  221.9836 H   0  0  0  0  0  0  0  0  0  0  0  0
  141.3090   73.3686  219.5227 H   0  0  0  0  0  0  0  0  0  0  0  0
  141.9820   74.7237  218.4833 H   0  0  0  0  0  0  0  0  0  0  0  0
  143.6160   74.7864  221.6192 H   0  0  0  0  0  0  0  0  0  0  0  0
  145.9210   73.9805  221.9827 H   0  0  0  0  0  0  0  0  0  0  0  0
  147.0347   72.5118  220.3105 H   0  0  0  0  0  0  0  0  0  0  0  0
  145.3800   71.1080  217.5420 H   0  0  0  0  0  0  0  0  0  0  0  0
  143.4763   72.6698  217.9088 H   0  0  0  0  0  0  0  0  0  0  0  0
  1  2  2  0
  2  3  1  0
  3  4  2  0
  4  5  1  0
  5  6  1  0
  5  7  2  0
  7  8  1  0
  8  9  2  0
  9 10  1  0
 10 11  2  0
 11 12  1  0
 12 13  2  0
 13 14  1  0
 14 15  2  0
 15 16  1  0
 16 17  2  0
 17 18  1  0
 18 19  2  0
 11 20  1  0
 20 21  1  0
 21 22  1  0
 22 23  2  0
 23 24  1  0
 24 25  2  0
 25 26  1  0
 26 27  1  0
 26 28  2  0
 20  2  1  0
 28 22  1  0
  9  3  1  0
 19 14  1  0
  4 29  1  0
  7 30  1  0
  8 31  1  0
 12 32  1  0
 13 33  1  0
 15 34  1  0
 16 35  1  0
 17 36  1  0
 18 37  1  0
 19 38  1  0
 21 39  1  0
 21 40  1  0
 23 41  1  0
 24 42  1  0
 25 43  1  0
 27 44  1  0
 28 45  1  0
M  END
>  <smiles>  (47) 
O=c1c2cc(F)ccc2nc(/C=C/c2ccccc2)n1Cc1cccc(O)c1

>  <score_type>  (47) 
oracle

>  <origin>  (47) 
autodockgpu

>  <m_score__min__energy>  (47) 
-8.6300000000000008

>  <m_primary>  (47) 
energy

>  <rmsd>  (47) 
7.790517101893545

>  <m_score__min__rmsd>  (47) 
7.790517101893545

>  <meeko>  (47) 
{"free_energy": -7.25, "intermolecular_energy": -9.04, "internal_energy": -1.09, "cluster_size": 13, "cluster_id": 1, "rank_in_cluster": 13}

>  <energy>  (47) 
-6.2

>  <cluster_rmsd>  (47) 
1.97

>  <cluster>  (47) 
8

$$$$

     RDKit          3D

 45 48  0  0  0  0  0  0  0  0999 V2000
  142.2950   76.5270  217.1820 O   0  0  0  0  0  0  0  0  0  0  0  0
  142.2390   76.1710  218.3730 C   0  0  0  0  0  0  0  0  0  0  0  0
  143.1560   75.1830  218.7560 C   0  0  0  0  0  0  0  0  0  0  0  0
  144.0480   74.6620  217.8370 C   0  0  0  0  0  0  0  0  0  0  0  0
  144.9570   73.6820  218.2150 C   0  0  0  0  0  0  0  0  0  0  0  0
  145.8220   73.1910  217.2810 F   0  0  0  0  0  0  0  0  0  0  0  0
  144.9620   73.2310  219.5230 C   0  0  0  0  0  0  0  0  0  0  0  0
  144.0720   73.7420  220.4650 C   0  0  0  0  0  0  0  0  0  0  0  0
  143.1860   74.7120  220.0530 C   0  0  0  0  0  0  0  0  0  0  0  0
  142.2980   75.2530  220.9060 N   0  0  0  0  0  0  0  0  0  0  0  0
  141.4160   76.2090  220.5260 C   0  0  0  0  0  0  0  0  0  0  0  0
  140.5310   76.7150  221.5710 C   0  0  0  0  0  0  0  0  0  0  0  0
  141.0220   77.1960  222.6940 C   0  0  0  0  0  0  0  0  0  0  0  0
  141.3340   78.5950  222.9240 C   0  0  0  0  0  0  0  0  0  0  0  0
  142.5860   79.1430  222.7500 C   0  0  0  0  0  0  0  0  0  0  0  0
  142.8230   80.4840  222.9850 C   0  0  0  0  0  0  0  0  0  0  0  0
  141.8240   81.3380  223.4040 C   0  0  0  0  0  0  0  0  0  0  0  0
  140.5580   80.8010  223.5830 C   0  0  0  0  0  0  0  0  0  0  0  0
  140.3420   79.4700  223.3460 C   0  0  0  0  0  0  0  0  0  0  0  0
  141.3570   76.6900  219.2720 N   0  0  0  0  0  0  0  0  0  0  0  0
  140.4070   77.6860  218.8350 C   0  0  0  0  0  0  0  0  0  0  0  0
  140.8550   79.0820  219.0090 C   0  0  0  0  0  0  0  0  0  0  0  0
  140.3450   79.9600  219.9350 C   0  0  0  0  0  0  0  0  0  0  0  0
  140.8110   81.2730  220.0610 C   0  0  0  0  0  0  0  0  0  0  0  0
  141.8140   81.7500  219.2520 C   0  0  0  0  0  0  0  0  0  0  0  0
  142.3360   80.8820  218.3200 C   0  0  0  0  0  0  0  0  0  0  0  0
  143.3540   81.3820  217.5070 O   0  0  0  0  0  0  0  0  0  0  0  0
  141.8780   79.5900  218.1960 C   0  0  0  0  0  0  0  0  0  0  0  0
  144.0378   75.0262  216.7991 H   0  0  0  0  0  0  0  0  0  0  0  0
  145.6814   72.4553  219.8244 H   0  0  0  0  0  0  0  0  0  0  0  0
  144.0769   73.3821  221.5045 H   0  0  0  0  0  0  0  0  0  0  0  0
  139.4418   76.6942  221.4185 H   0  0  0  0  0  0  0  0  0  0  0  0
  141.2088   76.4884  223.5152 H   0  0  0  0  0  0  0  0  0  0  0  0
  143.4140   78.4999  222.4172 H   0  0  0  0  0  0  0  0  0  0  0  0
  143.8373   80.8818  222.8336 H   0  0  0  0  0  0  0  0  0  0  0  0
  142.0239   82.4038  223.5890 H   0  0  0  0  0  0  0  0  0  0  0  0
  139.7289   81.4433  223.9148 H   0  0  0  0  0  0  0  0  0  0  0  0
  139.3277   79.0723  223.4981 H   0  0  0  0  0  0  0  0  0  0  0  0
  140.2047   77.5214  217.7664 H   0  0  0  0  0  0  0  0  0  0  0  0
  139.5151   77.5641  219.4672 H   0  0  0  0  0  0  0  0  0  0  0  0
  139.5402   79.6176  220.6021 H   0  0  0  0  0  0  0  0  0  0  0  0
  140.3673   81.9342  220.8199 H   0  0  0  0  0  0  0  0  0  0  0  0
  142.1840   82.7817  219.3452 H   0  0  0  0  0  0  0  0  0  0  0  0
  143.6700   80.8170  216.7560 H   0  0  0  0  0  0  0  0  0  0  0  0
  142.3287   78.9356  217.4353 H   0  0  0  0  0  0  0  0  0  0  0  0
  1  2  2  0
  2  3  1  0
  3  4  2  0
  4  5  1  0
  5  6  1  0
  5  7  2  0
  7  8  1  0
  8  9  2  0
  9 10  1  0
 10 11  2  0
 11 12  1  0
 12 13  2  0
 13 14  1  0
 14 15  2  0
 15 16  1  0
 16 17  2  0
 17 18  1  0
 18 19  2  0
 11 20  1  0
 20 21  1  0
 21 22  1  0
 22 23  2  0
 23 24  1  0
 24 25  2  0
 25 26  1  0
 26 27  1  0
 26 28  2  0
 20  2  1  0
 28 22  1  0
  9  3  1  0
 19 14  1  0
  4 29  1  0
  7 30  1  0
  8 31  1  0
 12 32  1  0
 13 33  1  0
 15 34  1  0
 16 35  1  0
 17 36  1  0
 18 37  1  0
 19 38  1  0
 21 39  1  0
 21 40  1  0
 23 41  1  0
 24 42  1  0
 25 43  1  0
 27 44  1  0
 28 45  1  0
M  END
>  <smiles>  (48) 
O=c1c2cc(F)ccc2nc(/C=C/c2ccccc2)n1Cc1cccc(O)c1

>  <score_type>  (48) 
oracle

>  <origin>  (48) 
autodockgpu

>  <m_score__min__energy>  (48) 
-8.6300000000000008

>  <m_primary>  (48) 
energy

>  <rmsd>  (48) 
4.261284483292593

>  <m_score__min__rmsd>  (48) 
4.261284483292593

>  <meeko>  (48) 
{"free_energy": -6.55, "intermolecular_energy": -8.34, "internal_energy": -1.84, "cluster_size": 5, "cluster_id": 8, "rank_in_cluster": 3}

>  <energy>  (48) 
-6.28

>  <cluster_rmsd>  (48) 
0.0

>  <cluster>  (48) 
9

$$$$

     RDKit          3D

 45 48  0  0  0  0  0  0  0  0999 V2000
  140.0830   71.8780  225.0680 O   0  0  0  0  0  0  0  0  0  0  0  0
  139.6170   70.7280  224.9690 C   0  0  0  0  0  0  0  0  0  0  0  0
  139.9540   69.8450  226.0040 C   0  0  0  0  0  0  0  0  0  0  0  0
  140.7570   70.2650  227.0490 C   0  0  0  0  0  0  0  0  0  0  0  0
  141.0930   69.3900  228.0740 C   0  0  0  0  0  0  0  0  0  0  0  0
  141.8870   69.8390  229.0890 F   0  0  0  0  0  0  0  0  0  0  0  0
  140.6140   68.0920  228.0420 C   0  0  0  0  0  0  0  0  0  0  0  0
  139.8050   67.6490  226.9990 C   0  0  0  0  0  0  0  0  0  0  0  0
  139.4940   68.5450  226.0000 C   0  0  0  0  0  0  0  0  0  0  0  0
  138.7160   68.1890  224.9620 N   0  0  0  0  0  0  0  0  0  0  0  0
  138.3950   69.0500  223.9670 C   0  0  0  0  0  0  0  0  0  0  0  0
  137.5230   68.5240  222.9210 C   0  0  0  0  0  0  0  0  0  0  0  0
  136.2220   68.7230  222.9660 C   0  0  0  0  0  0  0  0  0  0  0  0
  135.5400   69.4770  224.0030 C   0  0  0  0  0  0  0  0  0  0  0  0
  134.9870   68.9080  225.1290 C   0  0  0  0  0  0  0  0  0  0  0  0
  134.3490   69.6790  226.0830 C   0  0  0  0  0  0  0  0  0  0  0  0
  134.2320   71.0470  225.9570 C   0  0  0  0  0  0  0  0  0  0  0  0
  134.7850   71.6330  224.8280 C   0  0  0  0  0  0  0  0  0  0  0  0
  135.4130   70.8550  223.8930 C   0  0  0  0  0  0  0  0  0  0  0  0
  138.8260   70.3240  223.9370 N   0  0  0  0  0  0  0  0  0  0  0  0
  138.5230   71.2520  222.8730 C   0  0  0  0  0  0  0  0  0  0  0  0
  139.7050   71.8620  222.2340 C   0  0  0  0  0  0  0  0  0  0  0  0
  140.6540   71.1720  221.5190 C   0  0  0  0  0  0  0  0  0  0  0  0
  141.7540   71.8020  220.9280 C   0  0  0  0  0  0  0  0  0  0  0  0
  141.9380   73.1600  221.0380 C   0  0  0  0  0  0  0  0  0  0  0  0
  140.9950   73.8660  221.7490 C   0  0  0  0  0  0  0  0  0  0  0  0
  141.1950   75.2430  221.8520 O   0  0  0  0  0  0  0  0  0  0  0  0
  139.9120   73.2460  222.3310 C   0  0  0  0  0  0  0  0  0  0  0  0
  141.1320   71.2989  227.0684 H   0  0  0  0  0  0  0  0  0  0  0  0
  140.8769   67.3985  228.8544 H   0  0  0  0  0  0  0  0  0  0  0  0
  139.4263   66.6166  226.9735 H   0  0  0  0  0  0  0  0  0  0  0  0
  137.9575   67.9550  222.0859 H   0  0  0  0  0  0  0  0  0  0  0  0
  135.6095   68.2880  222.1625 H   0  0  0  0  0  0  0  0  0  0  0  0
  135.0543   67.8194  225.2719 H   0  0  0  0  0  0  0  0  0  0  0  0
  133.9220   69.1863  226.9690 H   0  0  0  0  0  0  0  0  0  0  0  0
  133.7203   71.6499  226.7217 H   0  0  0  0  0  0  0  0  0  0  0  0
  134.7190   72.7216  224.6842 H   0  0  0  0  0  0  0  0  0  0  0  0
  135.8398   71.3481  223.0072 H   0  0  0  0  0  0  0  0  0  0  0  0
  137.9546   70.7139  222.1001 H   0  0  0  0  0  0  0  0  0  0  0  0
  137.9561   72.0762  223.3305 H   0  0  0  0  0  0  0  0  0  0  0  0
  140.5445   70.0832  221.4072 H   0  0  0  0  0  0  0  0  0  0  0  0
  142.4840   71.2010  220.3659 H   0  0  0  0  0  0  0  0  0  0  0  0
  142.8023   73.6608  220.5772 H   0  0  0  0  0  0  0  0  0  0  0  0
  142.1290   75.5750  221.8970 H   0  0  0  0  0  0  0  0  0  0  0  0
  139.1862   73.8552  222.8896 H   0  0  0  0  0  0  0  0  0  0  0  0
  1  2  2  0
  2  3  1  0
  3  4  2  0
  4  5  1  0
  5  6  1  0
  5  7  2  0
  7  8  1  0
  8  9  2  0
  9 10  1  0
 10 11  2  0
 11 12  1  0
 12 13  2  0
 13 14  1  0
 14 15  2  0
 15 16  1  0
 16 17  2  0
 17 18  1  0
 18 19  2  0
 11 20  1  0
 20 21  1  0
 21 22  1  0
 22 23  2  0
 23 24  1  0
 24 25  2  0
 25 26  1  0
 26 27  1  0
 26 28  2  0
 20  2  1  0
 28 22  1  0
  9  3  1  0
 19 14  1  0
  4 29  1  0
  7 30  1  0
  8 31  1  0
 12 32  1  0
 13 33  1  0
 15 34  1  0
 16 35  1  0
 17 36  1  0
 18 37  1  0
 19 38  1  0
 21 39  1  0
 21 40  1  0
 23 41  1  0
 24 42  1  0
 25 43  1  0
 27 44  1  0
 28 45  1  0
M  END
>  <smiles>  (49) 
O=c1c2cc(F)ccc2nc(/C=C/c2ccccc2)n1Cc1cccc(O)c1

>  <score_type>  (49) 
oracle

>  <origin>  (49) 
autodockgpu

>  <m_score__min__energy>  (49) 
-8.6300000000000008

>  <m_primary>  (49) 
energy

>  <rmsd>  (49) 
10.181636124395183

>  <m_score__min__rmsd>  (49) 
10.181636124395183

>  <meeko>  (49) 
{"free_energy": -6.9, "intermolecular_energy": -8.69, "internal_energy": -1.51, "cluster_size": 8, "cluster_id": 7, "rank_in_cluster": 5}

>  <energy>  (49) 
-6.28

>  <cluster_rmsd>  (49) 
0.14

>  <cluster>  (49) 
9

$$$$

     RDKit          3D

 45 48  0  0  0  0  0  0  0  0999 V2000
  140.1870   71.8890  225.1080 O   0  0  0  0  0  0  0  0  0  0  0  0
  139.5990   70.7930  225.0710 C   0  0  0  0  0  0  0  0  0  0  0  0
  139.9010   69.9050  226.1120 C   0  0  0  0  0  0  0  0  0  0  0  0
  140.8030   70.2630  227.0980 C   0  0  0  0  0  0  0  0  0  0  0  0
  141.1040   69.3840  228.1300 C   0  0  0  0  0  0  0  0  0  0  0  0
  141.9980   69.7710  229.0850 F   0  0  0  0  0  0  0  0  0  0  0  0
  140.4910   68.1430  228.1640 C   0  0  0  0  0  0  0  0  0  0  0  0
  139.5810   67.7620  227.1810 C   0  0  0  0  0  0  0  0  0  0  0  0
  139.3080   68.6610  226.1740 C   0  0  0  0  0  0  0  0  0  0  0  0
  138.4390   68.3630  225.1920 N   0  0  0  0  0  0  0  0  0  0  0  0
  138.1520   69.2290  224.1890 C   0  0  0  0  0  0  0  0  0  0  0  0
  137.1720   68.7720  223.2090 C   0  0  0  0  0  0  0  0  0  0  0  0
  135.8810   68.8660  223.4540 C   0  0  0  0  0  0  0  0  0  0  0  0
  135.2870   69.8040  224.3900 C   0  0  0  0  0  0  0  0  0  0  0  0
  135.1800   71.1580  224.1590 C   0  0  0  0  0  0  0  0  0  0  0  0
  134.6040   72.0020  225.0900 C   0  0  0  0  0  0  0  0  0  0  0  0
  134.1100   71.5360  226.2900 C   0  0  0  0  0  0  0  0  0  0  0  0
  134.2110   70.1740  226.5360 C   0  0  0  0  0  0  0  0  0  0  0  0
  134.7850   69.3530  225.6040 C   0  0  0  0  0  0  0  0  0  0  0  0
  138.7120   70.4490  224.0960 N   0  0  0  0  0  0  0  0  0  0  0  0
  138.4460   71.3770  223.0220 C   0  0  0  0  0  0  0  0  0  0  0  0
  139.6520   71.9100  222.3580 C   0  0  0  0  0  0  0  0  0  0  0  0
  140.6030   71.1450  221.7260 C   0  0  0  0  0  0  0  0  0  0  0  0
  141.7250   71.7040  221.1060 C   0  0  0  0  0  0  0  0  0  0  0  0
  141.9300   73.0630  221.1020 C   0  0  0  0  0  0  0  0  0  0  0  0
  140.9860   73.8430  221.7290 C   0  0  0  0  0  0  0  0  0  0  0  0
  141.2090   75.2200  221.7160 O   0  0  0  0  0  0  0  0  0  0  0  0
  139.8810   73.2930  222.3390 C   0  0  0  0  0  0  0  0  0  0  0  0
  141.2852   71.2511  227.0642 H   0  0  0  0  0  0  0  0  0  0  0  0
  140.7268   67.4459  228.9816 H   0  0  0  0  0  0  0  0  0  0  0  0
  139.0960   66.7751  227.2080 H   0  0  0  0  0  0  0  0  0  0  0  0
  137.5150   68.3444  222.2553 H   0  0  0  0  0  0  0  0  0  0  0  0
  135.2063   68.1870  222.9120 H   0  0  0  0  0  0  0  0  0  0  0  0
  135.5604   71.5757  223.2151 H   0  0  0  0  0  0  0  0  0  0  0  0
  134.5378   73.0771  224.8669 H   0  0  0  0  0  0  0  0  0  0  0  0
  133.6538   72.2171  227.0235 H   0  0  0  0  0  0  0  0  0  0  0  0
  133.8301   69.7550  227.4790 H   0  0  0  0  0  0  0  0  0  0  0  0
  134.8525   68.2782  225.8282 H   0  0  0  0  0  0  0  0  0  0  0  0
  137.8374   70.8606  222.2651 H   0  0  0  0  0  0  0  0  0  0  0  0
  137.9324   72.2383  223.4740 H   0  0  0  0  0  0  0  0  0  0  0  0
  140.4769   70.0524  221.7071 H   0  0  0  0  0  0  0  0  0  0  0  0
  142.4554   71.0452  220.6135 H   0  0  0  0  0  0  0  0  0  0  0  0
  142.8117   73.5083  220.6179 H   0  0  0  0  0  0  0  0  0  0  0  0
  142.1140   75.5480  221.9570 H   0  0  0  0  0  0  0  0  0  0  0  0
  139.1548   73.9598  222.8269 H   0  0  0  0  0  0  0  0  0  0  0  0
  1  2  2  0
  2  3  1  0
  3  4  2  0
  4  5  1  0
  5  6  1  0
  5  7  2  0
  7  8  1  0
  8  9  2  0
  9 10  1  0
 10 11  2  0
 11 12  1  0
 12 13  2  0
 13 14  1  0
 14 15  2  0
 15 16  1  0
 16 17  2  0
 17 18  1  0
 18 19  2  0
 11 20  1  0
 20 21  1  0
 21 22  1  0
 22 23  2  0
 23 24  1  0
 24 25  2  0
 25 26  1  0
 26 27  1  0
 26 28  2  0
 20  2  1  0
 28 22  1  0
  9  3  1  0
 19 14  1  0
  4 29  1  0
  7 30  1  0
  8 31  1  0
 12 32  1  0
 13 33  1  0
 15 34  1  0
 16 35  1  0
 17 36  1  0
 18 37  1  0
 19 38  1  0
 21 39  1  0
 21 40  1  0
 23 41  1  0
 24 42  1  0
 25 43  1  0
 27 44  1  0
 28 45  1  0
M  END
>  <smiles>  (50) 
O=c1c2cc(F)ccc2nc(/C=C/c2ccccc2)n1Cc1cccc(O)c1

>  <score_type>  (50) 
oracle

>  <origin>  (50) 
autodockgpu

>  <m_score__min__energy>  (50) 
-8.6300000000000008

>  <m_primary>  (50) 
energy

>  <rmsd>  (50) 
10.203960670685339

>  <m_score__min__rmsd>  (50) 
10.203960670685339

>  <meeko>  (50) 
{"free_energy": -6.89, "intermolecular_energy": -8.68, "internal_energy": -1.45, "cluster_size": 8, "cluster_id": 7, "rank_in_cluster": 6}

>  <energy>  (50) 
-6.22

>  <cluster_rmsd>  (50) 
0.0

>  <cluster>  (50) 
10

$$$$
