
     RDKit          3D

 48 50  0  0  0  0  0  0  0  0999 V2000
  146.0080   73.2130  221.2180 C   0  0  0  0  0  0  0  0  0  0  0  0
  145.1510   74.2440  220.5720 C   0  0  0  0  0  0  0  0  0  0  0  0
  143.9160   73.7090  219.9630 C   0  0  0  0  0  0  0  0  0  0  0  0
  142.9000   73.0670  220.8150 C   0  0  2  0  0  0  0  0  0  0  0  0
  142.8330   71.5910  220.8860 C   0  0  0  0  0  0  0  0  0  0  0  0
  142.2160   71.1200  219.5870 C   0  0  1  0  0  0  0  0  0  0  0  0
  141.2750   70.0930  219.8270 O   0  0  0  0  0  0  0  0  0  0  0  0
  141.5090   72.3590  219.1160 C   0  0  0  0  0  0  0  0  0  0  0  0
  141.5900   73.3520  220.1720 N   0  0  0  0  0  0  0  0  0  0  0  0
  140.6660   74.3660  220.5360 C   0  0  0  0  0  0  0  0  0  0  0  0
  141.0020   75.5480  220.3720 O   0  0  0  0  0  0  0  0  0  0  0  0
  139.3610   73.9750  221.0850 C   0  0  0  0  0  0  0  0  0  0  0  0
  139.5180   73.2610  222.3280 N   0  0  0  0  0  0  0  0  0  0  0  0
  139.4990   71.8260  222.2560 C   0  0  0  0  0  0  0  0  0  0  0  0
  139.3460   71.2560  221.1300 O   0  0  0  0  0  0  0  0  0  0  0  0
  139.6540   71.0450  223.4820 C   0  0  0  0  0  0  0  0  0  0  0  0
  139.2170   69.7360  223.4880 C   0  0  0  0  0  0  0  0  0  0  0  0
  139.3170   68.9110  224.5900 C   0  0  0  0  0  0  0  0  0  0  0  0
  139.8900   69.4690  225.7250 C   0  0  0  0  0  0  0  0  0  0  0  0
  140.0260   68.7030  226.8770 C   0  0  0  0  0  0  0  0  0  0  0  0
  140.5970   69.2670  228.0020 C   0  0  0  0  0  0  0  0  0  0  0  0
  140.7080   68.4830  229.0990 F   0  0  0  0  0  0  0  0  0  0  0  0
  141.0370   70.5720  228.0080 C   0  0  0  0  0  0  0  0  0  0  0  0
  140.9010   71.3350  226.8590 C   0  0  0  0  0  0  0  0  0  0  0  0
  140.3310   70.7820  225.7290 C   0  0  0  0  0  0  0  0  0  0  0  0
  140.2040   71.5450  224.6040 N   0  0  0  0  0  0  0  0  0  0  0  0
  145.9314   73.3052  222.3115 H   0  0  0  0  0  0  0  0  0  0  0  0
  145.6723   72.2118  220.9100 H   0  0  0  0  0  0  0  0  0  0  0  0
  147.0537   73.3600  220.9100 H   0  0  0  0  0  0  0  0  0  0  0  0
  144.8671   74.9840  221.3347 H   0  0  0  0  0  0  0  0  0  0  0  0
  145.7433   74.6808  219.7545 H   0  0  0  0  0  0  0  0  0  0  0  0
  143.4210   74.5497  219.4549 H   0  0  0  0  0  0  0  0  0  0  0  0
  144.2786   72.8843  219.3317 H   0  0  0  0  0  0  0  0  0  0  0  0
  143.1460   73.4519  221.8157 H   0  0  0  0  0  0  0  0  0  0  0  0
  143.8432   71.1708  221.0000 H   0  0  0  0  0  0  0  0  0  0  0  0
  142.2352   71.2634  221.7493 H   0  0  0  0  0  0  0  0  0  0  0  0
  142.9449   70.7105  218.8721 H   0  0  0  0  0  0  0  0  0  0  0  0
  140.4040   70.4730  220.1400 H   0  0  0  0  0  0  0  0  0  0  0  0
  141.9937   72.7419  218.2058 H   0  0  0  0  0  0  0  0  0  0  0  0
  140.4577   72.1336  218.8839 H   0  0  0  0  0  0  0  0  0  0  0  0
  138.7596   74.8788  221.2625 H   0  0  0  0  0  0  0  0  0  0  0  0
  138.8593   73.3151  220.3619 H   0  0  0  0  0  0  0  0  0  0  0  0
  139.6450   73.7440  223.2600 H   0  0  0  0  0  0  0  0  0  0  0  0
  138.7671   69.3304  222.5698 H   0  0  0  0  0  0  0  0  0  0  0  0
  138.9626   67.8698  224.5702 H   0  0  0  0  0  0  0  0  0  0  0  0
  139.6825   67.6581  226.8930 H   0  0  0  0  0  0  0  0  0  0  0  0
  141.4904   71.0031  228.9128 H   0  0  0  0  0  0  0  0  0  0  0  0
  141.2465   72.3793  226.8470 H   0  0  0  0  0  0  0  0  0  0  0  0
  1  2  1  0
  2  3  1  0
  3  4  1  0
  4  5  1  0
  5  6  1  0
  6  7  1  0
  6  8  1  0
  8  9  1  0
  9 10  1  0
 10 11  2  0
 10 12  1  0
 12 13  1  0
 13 14  1  0
 14 15  2  0
 14 16  1  0
 16 17  2  0
 17 18  1  0
 18 19  2  0
 19 20  1  0
 20 21  2  0
 21 22  1  0
 21 23  1  0
 23 24  2  0
 24 25  1  0
 25 26  2  0
  9  4  1  0
 26 16  1  0
 25 19  1  0
  1 27  1  0
  1 28  1  0
  1 29  1  0
  2 30  1  0
  2 31  1  0
  3 32  1  0
  3 33  1  0
  4 34  1  1
  5 35  1  0
  5 36  1  0
  6 37  1  6
  7 38  1  0
  8 39  1  0
  8 40  1  0
 12 41  1  0
 12 42  1  0
 13 43  1  0
 17 44  1  0
 18 45  1  0
 20 46  1  0
 23 47  1  0
 24 48  1  0
M  END
>  <smiles>  (1) 
CCC[C@@H]1C[C@@H](O)CN1C(=O)CNC(=O)c1ccc2cc(F)ccc2n1

>  <score_type>  (1) 
oracle

>  <origin>  (1) 
autodockgpu

>  <m_score__min__energy>  (1) 
-7.4800000000000004

>  <m_primary>  (1) 
energy

>  <rmsd>  (1) 
2.964427399574548

>  <m_score__min__rmsd>  (1) 
2.964427399574548

>  <meeko>  (1) 
{"free_energy": -5.97, "intermolecular_energy": -8.06, "internal_energy": -2.41, "cluster_size": 23, "cluster_id": 1, "rank_in_cluster": 21}

>  <energy>  (1) 
-7.48

>  <cluster_rmsd>  (1) 
0.0

>  <cluster>  (1) 
1

$$$$

     RDKit          3D

 48 50  0  0  0  0  0  0  0  0999 V2000
  146.3840   73.3370  221.7990 C   0  0  0  0  0  0  0  0  0  0  0  0
  145.8720   73.3330  220.4020 C   0  0  0  0  0  0  0  0  0  0  0  0
  144.4880   73.8300  220.2640 C   0  0  0  0  0  0  0  0  0  0  0  0
  143.3720   73.0530  220.8320 C   0  0  2  0  0  0  0  0  0  0  0  0
  143.2360   71.6190  220.4950 C   0  0  0  0  0  0  0  0  0  0  0  0
  142.7180   71.5530  219.0740 C   0  0  1  0  0  0  0  0  0  0  0  0
  141.7150   70.5640  218.9560 O   0  0  0  0  0  0  0  0  0  0  0  0
  142.1100   72.9170  218.9060 C   0  0  0  0  0  0  0  0  0  0  0  0
  142.1390   73.5850  220.1950 N   0  0  0  0  0  0  0  0  0  0  0  0
  141.2300   74.5230  220.7500 C   0  0  0  0  0  0  0  0  0  0  0  0
  141.6390   75.6740  220.9660 O   0  0  0  0  0  0  0  0  0  0  0  0
  139.8560   74.0950  221.0430 C   0  0  0  0  0  0  0  0  0  0  0  0
  139.7970   73.3660  222.2860 N   0  0  0  0  0  0  0  0  0  0  0  0
  140.0360   71.9510  222.2160 C   0  0  0  0  0  0  0  0  0  0  0  0
  140.2820   71.4100  221.0930 O   0  0  0  0  0  0  0  0  0  0  0  0
  139.9910   71.1550  223.4420 C   0  0  0  0  0  0  0  0  0  0  0  0
  139.4100   69.9050  223.3950 C   0  0  0  0  0  0  0  0  0  0  0  0
  139.3150   69.0730  224.4920 C   0  0  0  0  0  0  0  0  0  0  0  0
  139.8440   69.5600  225.6800 C   0  0  0  0  0  0  0  0  0  0  0  0
  139.7880   68.7820  226.8300 C   0  0  0  0  0  0  0  0  0  0  0  0
  140.3180   69.2760  228.0080 C   0  0  0  0  0  0  0  0  0  0  0  0
  140.2390   68.4830  229.1010 F   0  0  0  0  0  0  0  0  0  0  0  0
  140.9000   70.5220  228.0670 C   0  0  0  0  0  0  0  0  0  0  0  0
  140.9560   71.2970  226.9200 C   0  0  0  0  0  0  0  0  0  0  0  0
  140.4300   70.8140  225.7380 C   0  0  0  0  0  0  0  0  0  0  0  0
  140.4920   71.5880  224.6150 N   0  0  0  0  0  0  0  0  0  0  0  0
  145.5365   73.3304  222.5002 H   0  0  0  0  0  0  0  0  0  0  0  0
  147.0041   72.4437  221.9648 H   0  0  0  0  0  0  0  0  0  0  0  0
  146.9900   74.2399  221.9648 H   0  0  0  0  0  0  0  0  0  0  0  0
  146.5297   73.9692  219.7915 H   0  0  0  0  0  0  0  0  0  0  0  0
  145.8663   72.2843  220.0700 H   0  0  0  0  0  0  0  0  0  0  0  0
  144.4575   74.8232  220.7357 H   0  0  0  0  0  0  0  0  0  0  0  0
  144.3065   73.7832  219.1801 H   0  0  0  0  0  0  0  0  0  0  0  0
  143.5427   73.1405  221.9151 H   0  0  0  0  0  0  0  0  0  0  0  0
  144.2130   71.1186  220.5659 H   0  0  0  0  0  0  0  0  0  0  0  0
  142.5500   71.1127  221.1900 H   0  0  0  0  0  0  0  0  0  0  0  0
  143.4894   71.3016  218.3312 H   0  0  0  0  0  0  0  0  0  0  0  0
  140.9420   70.7650  219.5580 H   0  0  0  0  0  0  0  0  0  0  0  0
  142.6902   73.4962  218.1726 H   0  0  0  0  0  0  0  0  0  0  0  0
  141.0748   72.8312  218.5442 H   0  0  0  0  0  0  0  0  0  0  0  0
  139.2102   74.9825  221.1152 H   0  0  0  0  0  0  0  0  0  0  0  0
  139.5136   73.4350  220.2324 H   0  0  0  0  0  0  0  0  0  0  0  0
  139.5920   73.8240  223.2160 H   0  0  0  0  0  0  0  0  0  0  0  0
  139.0022   69.5538  222.4357 H   0  0  0  0  0  0  0  0  0  0  0  0
  138.8465   68.0798  224.4288 H   0  0  0  0  0  0  0  0  0  0  0  0
  139.3269   67.7836  226.8037 H   0  0  0  0  0  0  0  0  0  0  0  0
  141.3157   70.8979  229.0135 H   0  0  0  0  0  0  0  0  0  0  0  0
  141.4183   72.2946  226.9507 H   0  0  0  0  0  0  0  0  0  0  0  0
  1  2  1  0
  2  3  1  0
  3  4  1  0
  4  5  1  0
  5  6  1  0
  6  7  1  0
  6  8  1  0
  8  9  1  0
  9 10  1  0
 10 11  2  0
 10 12  1  0
 12 13  1  0
 13 14  1  0
 14 15  2  0
 14 16  1  0
 16 17  2  0
 17 18  1  0
 18 19  2  0
 19 20  1  0
 20 21  2  0
 21 22  1  0
 21 23  1  0
 23 24  2  0
 24 25  1  0
 25 26  2  0
  9  4  1  0
 26 16  1  0
 25 19  1  0
  1 27  1  0
  1 28  1  0
  1 29  1  0
  2 30  1  0
  2 31  1  0
  3 32  1  0
  3 33  1  0
  4 34  1  1
  5 35  1  0
  5 36  1  0
  6 37  1  6
  7 38  1  0
  8 39  1  0
  8 40  1  0
 12 41  1  0
 12 42  1  0
 13 43  1  0
 17 44  1  0
 18 45  1  0
 20 46  1  0
 23 47  1  0
 24 48  1  0
M  END
>  <smiles>  (2) 
CCC[C@@H]1C[C@@H](O)CN1C(=O)CNC(=O)c1ccc2cc(F)ccc2n1

>  <score_type>  (2) 
oracle

>  <origin>  (2) 
autodockgpu

>  <m_score__min__energy>  (2) 
-7.4800000000000004

>  <m_primary>  (2) 
energy

>  <rmsd>  (2) 
3.2187735478193393

>  <m_score__min__rmsd>  (2) 
3.2187735478193393

>  <meeko>  (2) 
{"free_energy": -6.48, "intermolecular_energy": -8.57, "internal_energy": -2.21, "cluster_size": 23, "cluster_id": 1, "rank_in_cluster": 14}

>  <energy>  (2) 
-7.47

>  <cluster_rmsd>  (2) 
0.15

>  <cluster>  (2) 
1

$$$$

     RDKit          3D

 48 50  0  0  0  0  0  0  0  0999 V2000
  143.2660   76.7610  217.0760 C   0  0  0  0  0  0  0  0  0  0  0  0
  142.9360   77.3090  218.4200 C   0  0  0  0  0  0  0  0  0  0  0  0
  141.9000   76.5460  219.1450 C   0  0  0  0  0  0  0  0  0  0  0  0
  142.2740   75.7440  220.3240 C   0  0  2  0  0  0  0  0  0  0  0  0
  143.4510   74.8510  220.2560 C   0  0  0  0  0  0  0  0  0  0  0  0
  143.0430   73.6560  219.4210 C   0  0  1  0  0  0  0  0  0  0  0  0
  143.5240   72.4590  220.0000 O   0  0  0  0  0  0  0  0  0  0  0  0
  141.5450   73.7060  219.5260 C   0  0  0  0  0  0  0  0  0  0  0  0
  141.1950   74.7350  220.4890 N   0  0  0  0  0  0  0  0  0  0  0  0
  140.1000   74.7990  221.3890 C   0  0  0  0  0  0  0  0  0  0  0  0
  140.0980   75.6980  222.2420 O   0  0  0  0  0  0  0  0  0  0  0  0
  139.0230   73.8070  221.2710 C   0  0  0  0  0  0  0  0  0  0  0  0
  138.9680   72.9650  222.4410 N   0  0  0  0  0  0  0  0  0  0  0  0
  140.0540   72.0410  222.6220 C   0  0  0  0  0  0  0  0  0  0  0  0
  140.9940   72.0000  221.7670 O   0  0  0  0  0  0  0  0  0  0  0  0
  140.0570   71.1590  223.7890 C   0  0  0  0  0  0  0  0  0  0  0  0
  139.5180   69.8950  223.6600 C   0  0  0  0  0  0  0  0  0  0  0  0
  139.4710   68.9850  224.6970 C   0  0  0  0  0  0  0  0  0  0  0  0
  140.0040   69.4050  225.9080 C   0  0  0  0  0  0  0  0  0  0  0  0
  139.9940   68.5460  227.0010 C   0  0  0  0  0  0  0  0  0  0  0  0
  140.5260   68.9740  228.2030 C   0  0  0  0  0  0  0  0  0  0  0  0
  140.4940   68.1040  229.2380 F   0  0  0  0  0  0  0  0  0  0  0  0
  141.0670   70.2330  228.3430 C   0  0  0  0  0  0  0  0  0  0  0  0
  141.0760   71.0890  227.2530 C   0  0  0  0  0  0  0  0  0  0  0  0
  140.5470   70.6720  226.0470 C   0  0  0  0  0  0  0  0  0  0  0  0
  140.5630   71.5250  224.9810 N   0  0  0  0  0  0  0  0  0  0  0  0
  143.8304   75.8238  217.1906 H   0  0  0  0  0  0  0  0  0  0  0  0
  142.3364   76.5638  216.5221 H   0  0  0  0  0  0  0  0  0  0  0  0
  143.8752   77.4904  216.5221 H   0  0  0  0  0  0  0  0  0  0  0  0
  143.8531   77.3095  219.0275 H   0  0  0  0  0  0  0  0  0  0  0  0
  142.5317   78.3194  218.2598 H   0  0  0  0  0  0  0  0  0  0  0  0
  141.1448   77.2723  219.4799 H   0  0  0  0  0  0  0  0  0  0  0  0
  141.5792   75.7904  218.4128 H   0  0  0  0  0  0  0  0  0  0  0  0
  142.4651   76.5120  221.0880 H   0  0  0  0  0  0  0  0  0  0  0  0
  144.2960   75.3730  219.7833 H   0  0  0  0  0  0  0  0  0  0  0  0
  143.7705   74.5403  221.2617 H   0  0  0  0  0  0  0  0  0  0  0  0
  143.4298   73.6798  218.3915 H   0  0  0  0  0  0  0  0  0  0  0  0
  142.8530   72.0750  220.6350 H   0  0  0  0  0  0  0  0  0  0  0  0
  141.1103   73.9496  218.5453 H   0  0  0  0  0  0  0  0  0  0  0  0
  141.1527   72.7309  219.8503 H   0  0  0  0  0  0  0  0  0  0  0  0
  138.0621   74.3304  221.1585 H   0  0  0  0  0  0  0  0  0  0  0  0
  139.2217   73.1754  220.3926 H   0  0  0  0  0  0  0  0  0  0  0  0
  138.1820   73.0050  223.1460 H   0  0  0  0  0  0  0  0  0  0  0  0
  139.1061   69.5985  222.6841 H   0  0  0  0  0  0  0  0  0  0  0  0
  139.0354   67.9828  224.5707 H   0  0  0  0  0  0  0  0  0  0  0  0
  139.5672   67.5362  226.9103 H   0  0  0  0  0  0  0  0  0  0  0  0
  141.4865   70.5549  229.3076 H   0  0  0  0  0  0  0  0  0  0  0  0
  141.5034   72.0981  227.3480 H   0  0  0  0  0  0  0  0  0  0  0  0
  1  2  1  0
  2  3  1  0
  3  4  1  0
  4  5  1  0
  5  6  1  0
  6  7  1  0
  6  8  1  0
  8  9  1  0
  9 10  1  0
 10 11  2  0
 10 12  1  0
 12 13  1  0
 13 14  1  0
 14 15  2  0
 14 16  1  0
 16 17  2  0
 17 18  1  0
 18 19  2  0
 19 20  1  0
 20 21  2  0
 21 22  1  0
 21 23  1  0
 23 24  2  0
 24 25  1  0
 25 26  2  0
  9  4  1  0
 26 16  1  0
 25 19  1  0
  1 27  1  0
  1 28  1  0
  1 29  1  0
  2 30  1  0
  2 31  1  0
  3 32  1  0
  3 33  1  0
  4 34  1  1
  5 35  1  0
  5 36  1  0
  6 37  1  6
  7 38  1  0
  8 39  1  0
  8 40  1  0
 12 41  1  0
 12 42  1  0
 13 43  1  0
 17 44  1  0
 18 45  1  0
 20 46  1  0
 23 47  1  0
 24 48  1  0
M  END
>  <smiles>  (3) 
CCC[C@@H]1C[C@@H](O)CN1C(=O)CNC(=O)c1ccc2cc(F)ccc2n1

>  <score_type>  (3) 
oracle

>  <origin>  (3) 
autodockgpu

>  <m_score__min__energy>  (3) 
-7.4800000000000004

>  <m_primary>  (3) 
energy

>  <rmsd>  (3) 
1.8060968183190436

>  <m_score__min__rmsd>  (3) 
1.8060968183190436

>  <meeko>  (3) 
{"free_energy": -6.23, "intermolecular_energy": -8.32, "internal_energy": -1.84, "cluster_size": 23, "cluster_id": 1, "rank_in_cluster": 19}

>  <energy>  (3) 
-7.44

>  <cluster_rmsd>  (3) 
0.25

>  <cluster>  (3) 
1

$$$$

     RDKit          3D

 48 50  0  0  0  0  0  0  0  0999 V2000
  146.3320   73.3590  221.4760 C   0  0  0  0  0  0  0  0  0  0  0  0
  145.8460   73.4350  220.0720 C   0  0  0  0  0  0  0  0  0  0  0  0
  144.3940   73.6760  219.9480 C   0  0  0  0  0  0  0  0  0  0  0  0
  143.4440   72.7930  220.6470 C   0  0  2  0  0  0  0  0  0  0  0  0
  143.3860   71.3570  220.2940 C   0  0  0  0  0  0  0  0  0  0  0  0
  142.6760   71.2660  218.9600 C   0  0  1  0  0  0  0  0  0  0  0  0
  141.7570   70.1920  218.9590 O   0  0  0  0  0  0  0  0  0  0  0  0
  141.9340   72.5710  218.9180 C   0  0  0  0  0  0  0  0  0  0  0  0
  142.0900   73.2200  220.2070 N   0  0  0  0  0  0  0  0  0  0  0  0
  141.1930   74.0640  220.9120 C   0  0  0  0  0  0  0  0  0  0  0  0
  141.5650   75.2170  221.1800 O   0  0  0  0  0  0  0  0  0  0  0  0
  139.8740   73.5420  221.2910 C   0  0  0  0  0  0  0  0  0  0  0  0
  139.8940   73.0160  222.6330 N   0  0  0  0  0  0  0  0  0  0  0  0
  140.4030   71.6820  222.7960 C   0  0  0  0  0  0  0  0  0  0  0  0
  140.8030   71.0340  221.7790 O   0  0  0  0  0  0  0  0  0  0  0  0
  140.4490   71.0920  224.1330 C   0  0  0  0  0  0  0  0  0  0  0  0
  140.9390   71.8550  225.1730 C   0  0  0  0  0  0  0  0  0  0  0  0
  141.0260   71.3960  226.4720 C   0  0  0  0  0  0  0  0  0  0  0  0
  140.5890   70.0970  226.6950 C   0  0  0  0  0  0  0  0  0  0  0  0
  140.6440   69.5600  227.9760 C   0  0  0  0  0  0  0  0  0  0  0  0
  140.2060   68.2660  228.1880 C   0  0  0  0  0  0  0  0  0  0  0  0
  140.2800   67.7870  229.4510 F   0  0  0  0  0  0  0  0  0  0  0  0
  139.7160   67.4950  227.1580 C   0  0  0  0  0  0  0  0  0  0  0  0
  139.6610   68.0300  225.8800 C   0  0  0  0  0  0  0  0  0  0  0  0
  140.0950   69.3220  225.6570 C   0  0  0  0  0  0  0  0  0  0  0  0
  140.0360   69.8370  224.3940 N   0  0  0  0  0  0  0  0  0  0  0  0
  145.4848   73.4915  222.1650 H   0  0  0  0  0  0  0  0  0  0  0  0
  146.7965   72.3773  221.6506 H   0  0  0  0  0  0  0  0  0  0  0  0
  147.0740   74.1520  221.6506 H   0  0  0  0  0  0  0  0  0  0  0  0
  146.3766   74.2555  219.5668 H   0  0  0  0  0  0  0  0  0  0  0  0
  146.0447   72.4547  219.6143 H   0  0  0  0  0  0  0  0  0  0  0  0
  144.2080   74.6969  220.3130 H   0  0  0  0  0  0  0  0  0  0  0  0
  144.1920   73.4783  218.8849 H   0  0  0  0  0  0  0  0  0  0  0  0
  143.7616   72.8801  221.6965 H   0  0  0  0  0  0  0  0  0  0  0  0
  144.4028   70.9455  220.2113 H   0  0  0  0  0  0  0  0  0  0  0  0
  142.8544   70.7807  221.0656 H   0  0  0  0  0  0  0  0  0  0  0  0
  143.3509   71.0968  218.1080 H   0  0  0  0  0  0  0  0  0  0  0  0
  141.2040   70.1940  219.7920 H   0  0  0  0  0  0  0  0  0  0  0  0
  142.3496   73.2109  218.1256 H   0  0  0  0  0  0  0  0  0  0  0  0
  140.8689   72.3972  218.7052 H   0  0  0  0  0  0  0  0  0  0  0  0
  139.1352   74.3550  221.2340 H   0  0  0  0  0  0  0  0  0  0  0  0
  139.6061   72.7295  220.5995 H   0  0  0  0  0  0  0  0  0  0  0  0
  139.5580   73.5620  223.4740 H   0  0  0  0  0  0  0  0  0  0  0  0
  141.2768   72.8792  224.9564 H   0  0  0  0  0  0  0  0  0  0  0  0
  141.4194   72.0241  227.2848 H   0  0  0  0  0  0  0  0  0  0  0  0
  141.0323   70.1589  228.8130 H   0  0  0  0  0  0  0  0  0  0  0  0
  139.3724   66.4672  227.3466 H   0  0  0  0  0  0  0  0  0  0  0  0
  139.2727   67.4270  225.0460 H   0  0  0  0  0  0  0  0  0  0  0  0
  1  2  1  0
  2  3  1  0
  3  4  1  0
  4  5  1  0
  5  6  1  0
  6  7  1  0
  6  8  1  0
  8  9  1  0
  9 10  1  0
 10 11  2  0
 10 12  1  0
 12 13  1  0
 13 14  1  0
 14 15  2  0
 14 16  1  0
 16 17  2  0
 17 18  1  0
 18 19  2  0
 19 20  1  0
 20 21  2  0
 21 22  1  0
 21 23  1  0
 23 24  2  0
 24 25  1  0
 25 26  2  0
  9  4  1  0
 26 16  1  0
 25 19  1  0
  1 27  1  0
  1 28  1  0
  1 29  1  0
  2 30  1  0
  2 31  1  0
  3 32  1  0
  3 33  1  0
  4 34  1  1
  5 35  1  0
  5 36  1  0
  6 37  1  6
  7 38  1  0
  8 39  1  0
  8 40  1  0
 12 41  1  0
 12 42  1  0
 13 43  1  0
 17 44  1  0
 18 45  1  0
 20 46  1  0
 23 47  1  0
 24 48  1  0
M  END
>  <smiles>  (4) 
CCC[C@@H]1C[C@@H](O)CN1C(=O)CNC(=O)c1ccc2cc(F)ccc2n1

>  <score_type>  (4) 
oracle

>  <origin>  (4) 
autodockgpu

>  <m_score__min__energy>  (4) 
-7.4800000000000004

>  <m_primary>  (4) 
energy

>  <rmsd>  (4) 
3.9246300007655157

>  <m_score__min__rmsd>  (4) 
3.9246300007655157

>  <meeko>  (4) 
{"free_energy": -6.26, "intermolecular_energy": -8.35, "internal_energy": -1.98, "cluster_size": 23, "cluster_id": 1, "rank_in_cluster": 18}

>  <energy>  (4) 
-7.39

>  <cluster_rmsd>  (4) 
0.35

>  <cluster>  (4) 
1

$$$$

     RDKit          3D

 48 50  0  0  0  0  0  0  0  0999 V2000
  145.9310   73.7210  220.9290 C   0  0  0  0  0  0  0  0  0  0  0  0
  144.4840   73.7660  220.5850 C   0  0  0  0  0  0  0  0  0  0  0  0
  144.0200   75.0820  220.1010 C   0  0  0  0  0  0  0  0  0  0  0  0
  142.7040   75.1980  219.4470 C   0  0  2  0  0  0  0  0  0  0  0  0
  142.5650   76.0220  218.2260 C   0  0  0  0  0  0  0  0  0  0  0  0
  142.6070   77.4680  218.6700 C   0  0  1  0  0  0  0  0  0  0  0  0
  141.6290   78.2260  217.9850 O   0  0  0  0  0  0  0  0  0  0  0  0
  142.2380   77.3540  220.1220 C   0  0  0  0  0  0  0  0  0  0  0  0
  141.8520   75.9790  220.3810 N   0  0  0  0  0  0  0  0  0  0  0  0
  140.8960   75.4620  221.2950 C   0  0  0  0  0  0  0  0  0  0  0  0
  140.5790   76.1650  222.2660 O   0  0  0  0  0  0  0  0  0  0  0  0
  140.3280   74.1290  221.0540 C   0  0  0  0  0  0  0  0  0  0  0  0
  140.0700   73.4460  222.2970 N   0  0  0  0  0  0  0  0  0  0  0  0
  140.5320   72.0890  222.3960 C   0  0  0  0  0  0  0  0  0  0  0  0
  141.1320   71.5560  221.4110 O   0  0  0  0  0  0  0  0  0  0  0  0
  140.3010   71.3420  223.6320 C   0  0  0  0  0  0  0  0  0  0  0  0
  139.6490   70.1280  223.5560 C   0  0  0  0  0  0  0  0  0  0  0  0
  139.3810   69.3430  224.6590 C   0  0  0  0  0  0  0  0  0  0  0  0
  139.8070   69.8400  225.8840 C   0  0  0  0  0  0  0  0  0  0  0  0
  139.5750   69.1080  227.0430 C   0  0  0  0  0  0  0  0  0  0  0  0
  140.0020   69.6110  228.2580 C   0  0  0  0  0  0  0  0  0  0  0  0
  139.7530   68.8640  229.3580 F   0  0  0  0  0  0  0  0  0  0  0  0
  140.6530   70.8210  228.3460 C   0  0  0  0  0  0  0  0  0  0  0  0
  140.8850   71.5500  227.1910 C   0  0  0  0  0  0  0  0  0  0  0  0
  140.4620   71.0570  225.9710 C   0  0  0  0  0  0  0  0  0  0  0  0
  140.6960   71.7850  224.8400 N   0  0  0  0  0  0  0  0  0  0  0  0
  146.0479   73.7174  222.0228 H   0  0  0  0  0  0  0  0  0  0  0  0
  146.3795   72.8085  220.5093 H   0  0  0  0  0  0  0  0  0  0  0  0
  146.4353   74.6039  220.5093 H   0  0  0  0  0  0  0  0  0  0  0  0
  144.2926   73.0214  219.7982 H   0  0  0  0  0  0  0  0  0  0  0  0
  143.9308   73.5559  221.5123 H   0  0  0  0  0  0  0  0  0  0  0  0
  144.0038   75.7543  220.9715 H   0  0  0  0  0  0  0  0  0  0  0  0
  144.7284   75.3222  219.2945 H   0  0  0  0  0  0  0  0  0  0  0  0
  142.4696   74.1544  219.1903 H   0  0  0  0  0  0  0  0  0  0  0  0
  143.3930   75.8143  217.5322 H   0  0  0  0  0  0  0  0  0  0  0  0
  141.6249   75.7964  217.7014 H   0  0  0  0  0  0  0  0  0  0  0  0
  143.5710   77.9631  218.4815 H   0  0  0  0  0  0  0  0  0  0  0  0
  142.0560   78.8650  217.3450 H   0  0  0  0  0  0  0  0  0  0  0  0
  143.1010   77.6236  220.7486 H   0  0  0  0  0  0  0  0  0  0  0  0
  141.4073   78.0349  220.3594 H   0  0  0  0  0  0  0  0  0  0  0  0
  139.3843   74.2349  220.4989 H   0  0  0  0  0  0  0  0  0  0  0  0
  141.0521   73.5389  220.4731 H   0  0  0  0  0  0  0  0  0  0  0  0
  139.5700   73.8970  223.1120 H   0  0  0  0  0  0  0  0  0  0  0  0
  139.3271   69.7683  222.5676 H   0  0  0  0  0  0  0  0  0  0  0  0
  138.8595   68.3783  224.5728 H   0  0  0  0  0  0  0  0  0  0  0  0
  139.0571   68.1388  226.9938 H   0  0  0  0  0  0  0  0  0  0  0  0
  140.9851   71.2044  229.3221 H   0  0  0  0  0  0  0  0  0  0  0  0
  141.4043   72.5182  227.2447 H   0  0  0  0  0  0  0  0  0  0  0  0
  1  2  1  0
  2  3  1  0
  3  4  1  0
  4  5  1  0
  5  6  1  0
  6  7  1  0
  6  8  1  0
  8  9  1  0
  9 10  1  0
 10 11  2  0
 10 12  1  0
 12 13  1  0
 13 14  1  0
 14 15  2  0
 14 16  1  0
 16 17  2  0
 17 18  1  0
 18 19  2  0
 19 20  1  0
 20 21  2  0
 21 22  1  0
 21 23  1  0
 23 24  2  0
 24 25  1  0
 25 26  2  0
  9  4  1  0
 26 16  1  0
 25 19  1  0
  1 27  1  0
  1 28  1  0
  1 29  1  0
  2 30  1  0
  2 31  1  0
  3 32  1  0
  3 33  1  0
  4 34  1  6
  5 35  1  0
  5 36  1  0
  6 37  1  1
  7 38  1  0
  8 39  1  0
  8 40  1  0
 12 41  1  0
 12 42  1  0
 13 43  1  0
 17 44  1  0
 18 45  1  0
 20 46  1  0
 23 47  1  0
 24 48  1  0
M  END
>  <smiles>  (5) 
CCC[C@@H]1C[C@@H](O)CN1C(=O)CNC(=O)c1ccc2cc(F)ccc2n1

>  <score_type>  (5) 
oracle

>  <origin>  (5) 
autodockgpu

>  <m_score__min__energy>  (5) 
-7.4800000000000004

>  <m_primary>  (5) 
energy

>  <rmsd>  (5) 
2.8899348150619764

>  <m_score__min__rmsd>  (5) 
2.8899348150619764

>  <meeko>  (5) 
{"free_energy": -7.09, "intermolecular_energy": -9.17, "internal_energy": -1.31, "cluster_size": 18, "cluster_id": 3, "rank_in_cluster": 11}

>  <energy>  (5) 
-7.34

>  <cluster_rmsd>  (5) 
0.38

>  <cluster>  (5) 
1

$$$$

     RDKit          3D

 48 50  0  0  0  0  0  0  0  0999 V2000
  140.9620   77.8580  222.5490 C   0  0  0  0  0  0  0  0  0  0  0  0
  140.5470   76.7810  221.6090 C   0  0  0  0  0  0  0  0  0  0  0  0
  141.2020   76.8490  220.2860 C   0  0  0  0  0  0  0  0  0  0  0  0
  142.5290   76.2370  220.0960 C   0  0  2  0  0  0  0  0  0  0  0  0
  143.4390   76.7750  219.0610 C   0  0  0  0  0  0  0  0  0  0  0  0
  142.9000   76.3140  217.7240 C   0  0  1  0  0  0  0  0  0  0  0  0
  143.9530   75.8850  216.8850 O   0  0  0  0  0  0  0  0  0  0  0  0
  142.0550   75.1380  218.1230 C   0  0  0  0  0  0  0  0  0  0  0  0
  142.2760   74.8830  219.5350 N   0  0  0  0  0  0  0  0  0  0  0  0
  142.2640   73.6560  220.2480 C   0  0  0  0  0  0  0  0  0  0  0  0
  143.2360   73.3910  220.9710 O   0  0  0  0  0  0  0  0  0  0  0  0
  141.1100   72.7590  220.1010 C   0  0  0  0  0  0  0  0  0  0  0  0
  140.9950   71.8780  221.2370 N   0  0  0  0  0  0  0  0  0  0  0  0
  140.2990   72.3920  222.3840 C   0  0  0  0  0  0  0  0  0  0  0  0
  139.8260   73.5710  222.3550 O   0  0  0  0  0  0  0  0  0  0  0  0
  140.1480   71.5470  223.5680 C   0  0  0  0  0  0  0  0  0  0  0  0
  139.4390   70.3690  223.4500 C   0  0  0  0  0  0  0  0  0  0  0  0
  139.2380   69.5000  224.5030 C   0  0  0  0  0  0  0  0  0  0  0  0
  139.7930   69.8700  225.7210 C   0  0  0  0  0  0  0  0  0  0  0  0
  139.6340   69.0480  226.8300 C   0  0  0  0  0  0  0  0  0  0  0  0
  140.1900   69.4260  228.0380 C   0  0  0  0  0  0  0  0  0  0  0  0
  140.0090   68.5950  229.0900 F   0  0  0  0  0  0  0  0  0  0  0  0
  140.8990   70.6000  228.1680 C   0  0  0  0  0  0  0  0  0  0  0  0
  141.0570   71.4190  227.0610 C   0  0  0  0  0  0  0  0  0  0  0  0
  140.5060   71.0520  225.8490 C   0  0  0  0  0  0  0  0  0  0  0  0
  140.6690   71.8680  224.7670 N   0  0  0  0  0  0  0  0  0  0  0  0
  140.8287   77.5122  223.5847 H   0  0  0  0  0  0  0  0  0  0  0  0
  142.0201   78.1059  222.3785 H   0  0  0  0  0  0  0  0  0  0  0  0
  140.3439   78.7518  222.3785 H   0  0  0  0  0  0  0  0  0  0  0  0
  140.7914   75.8107  222.0659 H   0  0  0  0  0  0  0  0  0  0  0  0
  139.4684   76.9096  221.4358 H   0  0  0  0  0  0  0  0  0  0  0  0
  140.5223   76.3662  219.5684 H   0  0  0  0  0  0  0  0  0  0  0  0
  141.3937   77.9236  220.1500 H   0  0  0  0  0  0  0  0  0  0  0  0
  143.0018   76.3734  221.0798 H   0  0  0  0  0  0  0  0  0  0  0  0
  143.4548   77.8740  219.1046 H   0  0  0  0  0  0  0  0  0  0  0  0
  144.4682   76.4191  219.2161 H   0  0  0  0  0  0  0  0  0  0  0  0
  142.3612   77.0959  217.1687 H   0  0  0  0  0  0  0  0  0  0  0  0
  144.8360   75.9720  217.3470 H   0  0  0  0  0  0  0  0  0  0  0  0
  140.9932   75.3648  217.9467 H   0  0  0  0  0  0  0  0  0  0  0  0
  142.3274   74.2535  217.5285 H   0  0  0  0  0  0  0  0  0  0  0  0
  140.1936   73.3618  220.0185 H   0  0  0  0  0  0  0  0  0  0  0  0
  141.2517   72.1494  219.1964 H   0  0  0  0  0  0  0  0  0  0  0  0
  141.3910   70.8980  221.2520 H   0  0  0  0  0  0  0  0  0  0  0  0
  139.0135   70.1102  222.4692 H   0  0  0  0  0  0  0  0  0  0  0  0
  138.6696   68.5658  224.3841 H   0  0  0  0  0  0  0  0  0  0  0  0
  139.0716   68.1063  226.7476 H   0  0  0  0  0  0  0  0  0  0  0  0
  141.3340   70.8837  229.1377 H   0  0  0  0  0  0  0  0  0  0  0  0
  141.6204   72.3598  227.1477 H   0  0  0  0  0  0  0  0  0  0  0  0
  1  2  1  0
  2  3  1  0
  3  4  1  0
  4  5  1  0
  5  6  1  0
  6  7  1  0
  6  8  1  0
  8  9  1  0
  9 10  1  0
 10 11  2  0
 10 12  1  0
 12 13  1  0
 13 14  1  0
 14 15  2  0
 14 16  1  0
 16 17  2  0
 17 18  1  0
 18 19  2  0
 19 20  1  0
 20 21  2  0
 21 22  1  0
 21 23  1  0
 23 24  2  0
 24 25  1  0
 25 26  2  0
  9  4  1  0
 26 16  1  0
 25 19  1  0
  1 27  1  0
  1 28  1  0
  1 29  1  0
  2 30  1  0
  2 31  1  0
  3 32  1  0
  3 33  1  0
  4 34  1  1
  5 35  1  0
  5 36  1  0
  6 37  1  6
  7 38  1  0
  8 39  1  0
  8 40  1  0
 12 41  1  0
 12 42  1  0
 13 43  1  0
 17 44  1  0
 18 45  1  0
 20 46  1  0
 23 47  1  0
 24 48  1  0
M  END
>  <smiles>  (6) 
CCC[C@@H]1C[C@@H](O)CN1C(=O)CNC(=O)c1ccc2cc(F)ccc2n1

>  <score_type>  (6) 
oracle

>  <origin>  (6) 
autodockgpu

>  <m_score__min__energy>  (6) 
-7.4800000000000004

>  <m_primary>  (6) 
energy

>  <rmsd>  (6) 
2.602033581712804

>  <m_score__min__rmsd>  (6) 
2.602033581712804

>  <meeko>  (6) 
{"free_energy": -6.73, "intermolecular_energy": -8.81, "internal_energy": -1.23, "cluster_size": 23, "cluster_id": 1, "rank_in_cluster": 10}

>  <energy>  (6) 
-7.3

>  <cluster_rmsd>  (6) 
0.47

>  <cluster>  (6) 
1

$$$$

     RDKit          3D

 48 50  0  0  0  0  0  0  0  0999 V2000
  145.9900   73.4020  221.2290 C   0  0  0  0  0  0  0  0  0  0  0  0
  144.6420   73.3920  220.5990 C   0  0  0  0  0  0  0  0  0  0  0  0
  144.0440   74.7320  220.4320 C   0  0  0  0  0  0  0  0  0  0  0  0
  142.7880   74.8820  219.6750 C   0  0  2  0  0  0  0  0  0  0  0  0
  142.8060   75.5610  218.3610 C   0  0  0  0  0  0  0  0  0  0  0  0
  142.9580   77.0410  218.6370 C   0  0  1  0  0  0  0  0  0  0  0  0
  142.1020   77.7940  217.8000 O   0  0  0  0  0  0  0  0  0  0  0  0
  142.4910   77.1370  220.0620 C   0  0  0  0  0  0  0  0  0  0  0  0
  141.9590   75.8430  220.4490 N   0  0  0  0  0  0  0  0  0  0  0  0
  140.9030   75.5280  221.3440 C   0  0  0  0  0  0  0  0  0  0  0  0
  140.7480   76.2480  222.3410 O   0  0  0  0  0  0  0  0  0  0  0  0
  140.0460   74.3710  221.0530 C   0  0  0  0  0  0  0  0  0  0  0  0
  139.8020   73.5980  222.2460 N   0  0  0  0  0  0  0  0  0  0  0  0
  140.5250   72.3640  222.3750 C   0  0  0  0  0  0  0  0  0  0  0  0
  141.3300   72.0090  221.4580 O   0  0  0  0  0  0  0  0  0  0  0  0
  140.3220   71.5340  223.5620 C   0  0  0  0  0  0  0  0  0  0  0  0
  139.6510   70.3370  223.4220 C   0  0  0  0  0  0  0  0  0  0  0  0
  139.4060   69.4800  224.4750 C   0  0  0  0  0  0  0  0  0  0  0  0
  139.8760   69.8830  225.7180 C   0  0  0  0  0  0  0  0  0  0  0  0
  139.6700   69.0750  226.8300 C   0  0  0  0  0  0  0  0  0  0  0  0
  140.1410   69.4850  228.0620 C   0  0  0  0  0  0  0  0  0  0  0  0
  139.9160   68.6660  229.1150 F   0  0  0  0  0  0  0  0  0  0  0  0
  140.8130   70.6780  228.2150 C   0  0  0  0  0  0  0  0  0  0  0  0
  141.0190   71.4840  227.1060 C   0  0  0  0  0  0  0  0  0  0  0  0
  140.5510   71.0840  225.8690 C   0  0  0  0  0  0  0  0  0  0  0  0
  140.7610   71.8870  224.7850 N   0  0  0  0  0  0  0  0  0  0  0  0
  145.8831   73.4012  222.3238 H   0  0  0  0  0  0  0  0  0  0  0  0
  146.5484   72.5080  220.9145 H   0  0  0  0  0  0  0  0  0  0  0  0
  146.5351   74.3042  220.9145 H   0  0  0  0  0  0  0  0  0  0  0  0
  144.7282   72.9261  219.6063 H   0  0  0  0  0  0  0  0  0  0  0  0
  143.9801   72.8316  221.2756 H   0  0  0  0  0  0  0  0  0  0  0  0
  143.8568   75.1259  221.4419 H   0  0  0  0  0  0  0  0  0  0  0  0
  144.7808   75.2662  219.8142 H   0  0  0  0  0  0  0  0  0  0  0  0
  142.4698   73.8400  219.5236 H   0  0  0  0  0  0  0  0  0  0  0  0
  143.6525   75.1990  217.7590 H   0  0  0  0  0  0  0  0  0  0  0  0
  141.8834   75.3567  217.7980 H   0  0  0  0  0  0  0  0  0  0  0  0
  143.9748   77.4229  218.4628 H   0  0  0  0  0  0  0  0  0  0  0  0
  142.6270   78.4150  217.2190 H   0  0  0  0  0  0  0  0  0  0  0  0
  143.3357   77.4033  220.7143 H   0  0  0  0  0  0  0  0  0  0  0  0
  141.7167   77.9123  220.1585 H   0  0  0  0  0  0  0  0  0  0  0  0
  139.0855   74.7262  220.6514 H   0  0  0  0  0  0  0  0  0  0  0  0
  140.5568   73.7313  220.3182 H   0  0  0  0  0  0  0  0  0  0  0  0
  139.1300   73.9010  223.0050 H   0  0  0  0  0  0  0  0  0  0  0  0
  139.2937   70.0517  222.4215 H   0  0  0  0  0  0  0  0  0  0  0  0
  138.8683   68.5303  224.3376 H   0  0  0  0  0  0  0  0  0  0  0  0
  139.1369   68.1180  226.7298 H   0  0  0  0  0  0  0  0  0  0  0  0
  141.1813   70.9870  229.2044 H   0  0  0  0  0  0  0  0  0  0  0  0
  141.5537   72.4396  227.2106 H   0  0  0  0  0  0  0  0  0  0  0  0
  1  2  1  0
  2  3  1  0
  3  4  1  0
  4  5  1  0
  5  6  1  0
  6  7  1  0
  6  8  1  0
  8  9  1  0
  9 10  1  0
 10 11  2  0
 10 12  1  0
 12 13  1  0
 13 14  1  0
 14 15  2  0
 14 16  1  0
 16 17  2  0
 17 18  1  0
 18 19  2  0
 19 20  1  0
 20 21  2  0
 21 22  1  0
 21 23  1  0
 23 24  2  0
 24 25  1  0
 25 26  2  0
  9  4  1  0
 26 16  1  0
 25 19  1  0
  1 27  1  0
  1 28  1  0
  1 29  1  0
  2 30  1  0
  2 31  1  0
  3 32  1  0
  3 33  1  0
  4 34  1  6
  5 35  1  0
  5 36  1  0
  6 37  1  1
  7 38  1  0
  8 39  1  0
  8 40  1  0
 12 41  1  0
 12 42  1  0
 13 43  1  0
 17 44  1  0
 18 45  1  0
 20 46  1  0
 23 47  1  0
 24 48  1  0
M  END
>  <smiles>  (7) 
CCC[C@@H]1C[C@@H](O)CN1C(=O)CNC(=O)c1ccc2cc(F)ccc2n1

>  <score_type>  (7) 
oracle

>  <origin>  (7) 
autodockgpu

>  <m_score__min__energy>  (7) 
-7.4800000000000004

>  <m_primary>  (7) 
energy

>  <rmsd>  (7) 
2.9969454142033785

>  <m_score__min__rmsd>  (7) 
2.9969454142033785

>  <meeko>  (7) 
{"free_energy": -7.3, "intermolecular_energy": -9.38, "internal_energy": -1.26, "cluster_size": 18, "cluster_id": 3, "rank_in_cluster": 1}

>  <energy>  (7) 
-7.29

>  <cluster_rmsd>  (7) 
1.71

>  <cluster>  (7) 
1

$$$$

     RDKit          3D

 48 50  0  0  0  0  0  0  0  0999 V2000
  145.7850   73.6930  220.8800 C   0  0  0  0  0  0  0  0  0  0  0  0
  144.3400   73.7660  220.5330 C   0  0  0  0  0  0  0  0  0  0  0  0
  143.9230   75.0560  219.9460 C   0  0  0  0  0  0  0  0  0  0  0  0
  142.5670   75.2020  219.3900 C   0  0  2  0  0  0  0  0  0  0  0  0
  142.3610   76.0150  218.1700 C   0  0  0  0  0  0  0  0  0  0  0  0
  142.4770   77.4650  218.5890 C   0  0  1  0  0  0  0  0  0  0  0  0
  141.4730   78.2430  217.9680 O   0  0  0  0  0  0  0  0  0  0  0  0
  142.2140   77.3800  220.0660 C   0  0  0  0  0  0  0  0  0  0  0  0
  141.8090   76.0200  220.3730 N   0  0  0  0  0  0  0  0  0  0  0  0
  140.9100   75.5430  221.3630 C   0  0  0  0  0  0  0  0  0  0  0  0
  140.8510   76.1530  222.4400 O   0  0  0  0  0  0  0  0  0  0  0  0
  140.0930   74.3580  221.0700 C   0  0  0  0  0  0  0  0  0  0  0  0
  139.8550   73.5880  222.2660 N   0  0  0  0  0  0  0  0  0  0  0  0
  140.5420   72.3310  222.3720 C   0  0  0  0  0  0  0  0  0  0  0  0
  141.3110   71.9540  221.4320 O   0  0  0  0  0  0  0  0  0  0  0  0
  140.3430   71.5030  223.5610 C   0  0  0  0  0  0  0  0  0  0  0  0
  139.6790   70.3010  223.4230 C   0  0  0  0  0  0  0  0  0  0  0  0
  139.4390   69.4450  224.4780 C   0  0  0  0  0  0  0  0  0  0  0  0
  139.9060   69.8540  225.7200 C   0  0  0  0  0  0  0  0  0  0  0  0
  139.7040   69.0480  226.8340 C   0  0  0  0  0  0  0  0  0  0  0  0
  140.1730   69.4640  228.0660 C   0  0  0  0  0  0  0  0  0  0  0  0
  139.9520   68.6460  229.1200 F   0  0  0  0  0  0  0  0  0  0  0  0
  140.8370   70.6610  228.2150 C   0  0  0  0  0  0  0  0  0  0  0  0
  141.0390   71.4650  227.1050 C   0  0  0  0  0  0  0  0  0  0  0  0
  140.5740   71.0590  225.8690 C   0  0  0  0  0  0  0  0  0  0  0  0
  140.7800   71.8610  224.7830 N   0  0  0  0  0  0  0  0  0  0  0  0
  145.8995   73.6872  221.9740 H   0  0  0  0  0  0  0  0  0  0  0  0
  146.2166   72.7719  220.4613 H   0  0  0  0  0  0  0  0  0  0  0  0
  146.3072   74.5659  220.4613 H   0  0  0  0  0  0  0  0  0  0  0  0
  144.1186   72.9692  219.8076 H   0  0  0  0  0  0  0  0  0  0  0  0
  143.7825   73.6519  221.4744 H   0  0  0  0  0  0  0  0  0  0  0  0
  144.0267   75.8141  220.7363 H   0  0  0  0  0  0  0  0  0  0  0  0
  144.5729   75.1574  219.0643 H   0  0  0  0  0  0  0  0  0  0  0  0
  142.2847   74.1625  219.1669 H   0  0  0  0  0  0  0  0  0  0  0  0
  143.1289   75.7745  217.4200 H   0  0  0  0  0  0  0  0  0  0  0  0
  141.3785   75.8106  217.7195 H   0  0  0  0  0  0  0  0  0  0  0  0
  143.4381   77.9288  218.3223 H   0  0  0  0  0  0  0  0  0  0  0  0
  140.7110   77.6690  217.6680 H   0  0  0  0  0  0  0  0  0  0  0  0
  143.1286   77.6317  220.6229 H   0  0  0  0  0  0  0  0  0  0  0  0
  141.4231   78.0881  220.3543 H   0  0  0  0  0  0  0  0  0  0  0  0
  139.1282   74.6804  220.6514 H   0  0  0  0  0  0  0  0  0  0  0  0
  140.6339   73.7281  220.3485 H   0  0  0  0  0  0  0  0  0  0  0  0
  139.2140   73.9090  223.0430 H   0  0  0  0  0  0  0  0  0  0  0  0
  139.3238   70.0113  222.4230 H   0  0  0  0  0  0  0  0  0  0  0  0
  138.9073   68.4916  224.3428 H   0  0  0  0  0  0  0  0  0  0  0  0
  139.1759   68.0880  226.7363 H   0  0  0  0  0  0  0  0  0  0  0  0
  141.2028   70.9752  229.2037 H   0  0  0  0  0  0  0  0  0  0  0  0
  141.5681   72.4239  227.2075 H   0  0  0  0  0  0  0  0  0  0  0  0
  1  2  1  0
  2  3  1  0
  3  4  1  0
  4  5  1  0
  5  6  1  0
  6  7  1  0
  6  8  1  0
  8  9  1  0
  9 10  1  0
 10 11  2  0
 10 12  1  0
 12 13  1  0
 13 14  1  0
 14 15  2  0
 14 16  1  0
 16 17  2  0
 17 18  1  0
 18 19  2  0
 19 20  1  0
 20 21  2  0
 21 22  1  0
 21 23  1  0
 23 24  2  0
 24 25  1  0
 25 26  2  0
  9  4  1  0
 26 16  1  0
 25 19  1  0
  1 27  1  0
  1 28  1  0
  1 29  1  0
  2 30  1  0
  2 31  1  0
  3 32  1  0
  3 33  1  0
  4 34  1  6
  5 35  1  0
  5 36  1  0
  6 37  1  1
  7 38  1  0
  8 39  1  0
  8 40  1  0
 12 41  1  0
 12 42  1  0
 13 43  1  0
 17 44  1  0
 18 45  1  0
 20 46  1  0
 23 47  1  0
 24 48  1  0
M  END
>  <smiles>  (8) 
CCC[C@@H]1C[C@@H](O)CN1C(=O)CNC(=O)c1ccc2cc(F)ccc2n1

>  <score_type>  (8) 
oracle

>  <origin>  (8) 
autodockgpu

>  <m_score__min__energy>  (8) 
-7.4800000000000004

>  <m_primary>  (8) 
energy

>  <rmsd>  (8) 
2.842694741769254

>  <m_score__min__rmsd>  (8) 
2.842694741769254

>  <meeko>  (8) 
{"free_energy": -7.04, "intermolecular_energy": -9.12, "internal_energy": -1.27, "cluster_size": 18, "cluster_id": 3, "rank_in_cluster": 12}

>  <energy>  (8) 
-7.24

>  <cluster_rmsd>  (8) 
0.49

>  <cluster>  (8) 
1

$$$$

     RDKit          3D

 48 50  0  0  0  0  0  0  0  0999 V2000
  145.9480   73.0770  220.9250 C   0  0  0  0  0  0  0  0  0  0  0  0
  144.9870   74.1680  220.6060 C   0  0  0  0  0  0  0  0  0  0  0  0
  143.7270   73.7020  219.9900 C   0  0  0  0  0  0  0  0  0  0  0  0
  142.6900   73.0780  220.8310 C   0  0  2  0  0  0  0  0  0  0  0  0
  142.6170   71.6030  220.9240 C   0  0  0  0  0  0  0  0  0  0  0  0
  142.0260   71.1130  219.6200 C   0  0  1  0  0  0  0  0  0  0  0  0
  141.0760   70.0930  219.8570 O   0  0  0  0  0  0  0  0  0  0  0  0
  141.3340   72.3470  219.1140 C   0  0  0  0  0  0  0  0  0  0  0  0
  141.3960   73.3570  220.1550 N   0  0  0  0  0  0  0  0  0  0  0  0
  140.4680   74.3790  220.4830 C   0  0  0  0  0  0  0  0  0  0  0  0
  140.7790   75.5520  220.2300 O   0  0  0  0  0  0  0  0  0  0  0  0
  139.1890   74.0070  221.1030 C   0  0  0  0  0  0  0  0  0  0  0  0
  139.4030   73.2980  222.3400 N   0  0  0  0  0  0  0  0  0  0  0  0
  139.3640   71.8630  222.2770 C   0  0  0  0  0  0  0  0  0  0  0  0
  139.1470   71.2890  221.1640 O   0  0  0  0  0  0  0  0  0  0  0  0
  139.5740   71.0870  223.4980 C   0  0  0  0  0  0  0  0  0  0  0  0
  139.1930   69.7600  223.5090 C   0  0  0  0  0  0  0  0  0  0  0  0
  139.3470   68.9380  224.6070 C   0  0  0  0  0  0  0  0  0  0  0  0
  139.9160   69.5180  225.7330 C   0  0  0  0  0  0  0  0  0  0  0  0
  140.1050   68.7560  226.8800 C   0  0  0  0  0  0  0  0  0  0  0  0
  140.6720   69.3410  227.9960 C   0  0  0  0  0  0  0  0  0  0  0  0
  140.8350   68.5610  229.0890 F   0  0  0  0  0  0  0  0  0  0  0  0
  141.0570   70.6640  227.9970 C   0  0  0  0  0  0  0  0  0  0  0  0
  140.8690   71.4230  226.8540 C   0  0  0  0  0  0  0  0  0  0  0  0
  140.3020   70.8480  225.7330 C   0  0  0  0  0  0  0  0  0  0  0  0
  140.1230   71.6070  224.6120 N   0  0  0  0  0  0  0  0  0  0  0  0
  146.0378   72.9750  222.0166 H   0  0  0  0  0  0  0  0  0  0  0  0
  145.5842   72.1312  220.4971 H   0  0  0  0  0  0  0  0  0  0  0  0
  146.9322   73.3185  220.4971 H   0  0  0  0  0  0  0  0  0  0  0  0
  144.7407   74.6952  221.5395 H   0  0  0  0  0  0  0  0  0  0  0  0
  145.4792   74.8181  219.8677 H   0  0  0  0  0  0  0  0  0  0  0  0
  143.2643   74.5767  219.5095 H   0  0  0  0  0  0  0  0  0  0  0  0
  144.0514   72.8818  219.3327 H   0  0  0  0  0  0  0  0  0  0  0  0
  142.9146   73.4785  221.8306 H   0  0  0  0  0  0  0  0  0  0  0  0
  143.6233   71.1820  221.0659 H   0  0  0  0  0  0  0  0  0  0  0  0
  142.0002   71.2909  221.7796 H   0  0  0  0  0  0  0  0  0  0  0  0
  142.7680   70.6893  218.9273 H   0  0  0  0  0  0  0  0  0  0  0  0
  140.2310   70.4730  220.2340 H   0  0  0  0  0  0  0  0  0  0  0  0
  141.8396   72.7133  218.2084 H   0  0  0  0  0  0  0  0  0  0  0  0
  140.2870   72.1214  218.8634 H   0  0  0  0  0  0  0  0  0  0  0  0
  138.6088   74.9191  221.3066 H   0  0  0  0  0  0  0  0  0  0  0  0
  138.6417   73.3494  220.4115 H   0  0  0  0  0  0  0  0  0  0  0  0
  139.5830   73.7840  223.2620 H   0  0  0  0  0  0  0  0  0  0  0  0
  138.7446   69.3371  222.5979 H   0  0  0  0  0  0  0  0  0  0  0  0
  139.0365   67.8829  224.5910 H   0  0  0  0  0  0  0  0  0  0  0  0
  139.8061   67.6976  226.8991 H   0  0  0  0  0  0  0  0  0  0  0  0
  141.5082   71.1118  228.8947 H   0  0  0  0  0  0  0  0  0  0  0  0
  141.1703   72.4808  226.8387 H   0  0  0  0  0  0  0  0  0  0  0  0
  1  2  1  0
  2  3  1  0
  3  4  1  0
  4  5  1  0
  5  6  1  0
  6  7  1  0
  6  8  1  0
  8  9  1  0
  9 10  1  0
 10 11  2  0
 10 12  1  0
 12 13  1  0
 13 14  1  0
 14 15  2  0
 14 16  1  0
 16 17  2  0
 17 18  1  0
 18 19  2  0
 19 20  1  0
 20 21  2  0
 21 22  1  0
 21 23  1  0
 23 24  2  0
 24 25  1  0
 25 26  2  0
  9  4  1  0
 26 16  1  0
 25 19  1  0
  1 27  1  0
  1 28  1  0
  1 29  1  0
  2 30  1  0
  2 31  1  0
  3 32  1  0
  3 33  1  0
  4 34  1  1
  5 35  1  0
  5 36  1  0
  6 37  1  6
  7 38  1  0
  8 39  1  0
  8 40  1  0
 12 41  1  0
 12 42  1  0
 13 43  1  0
 17 44  1  0
 18 45  1  0
 20 46  1  0
 23 47  1  0
 24 48  1  0
M  END
>  <smiles>  (9) 
CCC[C@@H]1C[C@@H](O)CN1C(=O)CNC(=O)c1ccc2cc(F)ccc2n1

>  <score_type>  (9) 
oracle

>  <origin>  (9) 
autodockgpu

>  <m_score__min__energy>  (9) 
-7.4800000000000004

>  <m_primary>  (9) 
energy

>  <rmsd>  (9) 
2.9130552318219545

>  <m_score__min__rmsd>  (9) 
2.9130552318219545

>  <meeko>  (9) 
{"free_energy": -5.86, "intermolecular_energy": -7.95, "internal_energy": -2.46, "cluster_size": 23, "cluster_id": 1, "rank_in_cluster": 22}

>  <energy>  (9) 
-7.16

>  <cluster_rmsd>  (9) 
1.73

>  <cluster>  (9) 
1

$$$$

     RDKit          3D

 48 50  0  0  0  0  0  0  0  0999 V2000
  141.9310   77.2290  220.0680 C   0  0  0  0  0  0  0  0  0  0  0  0
  143.2320   76.6380  219.6540 C   0  0  0  0  0  0  0  0  0  0  0  0
  143.1350   75.2480  219.1620 C   0  0  0  0  0  0  0  0  0  0  0  0
  143.3790   74.1270  220.0870 C   0  0  2  0  0  0  0  0  0  0  0  0
  144.7410   73.9040  220.6200 C   0  0  0  0  0  0  0  0  0  0  0  0
  145.5570   73.3090  219.4920 C   0  0  1  0  0  0  0  0  0  0  0  0
  146.3690   72.2540  219.9680 O   0  0  0  0  0  0  0  0  0  0  0  0
  144.4840   72.7600  218.5940 C   0  0  0  0  0  0  0  0  0  0  0  0
  143.2120   72.8900  219.2810 N   0  0  0  0  0  0  0  0  0  0  0  0
  142.0630   72.0590  219.2260 C   0  0  0  0  0  0  0  0  0  0  0  0
  142.1180   71.0320  218.5330 O   0  0  0  0  0  0  0  0  0  0  0  0
  140.8670   72.4460  219.9860 C   0  0  0  0  0  0  0  0  0  0  0  0
  140.7140   71.6220  221.1590 N   0  0  0  0  0  0  0  0  0  0  0  0
  140.3040   72.2860  222.3660 C   0  0  0  0  0  0  0  0  0  0  0  0
  140.1000   73.5400  222.3540 O   0  0  0  0  0  0  0  0  0  0  0  0
  140.1310   71.5050  223.5900 C   0  0  0  0  0  0  0  0  0  0  0  0
  139.3720   70.3540  223.5350 C   0  0  0  0  0  0  0  0  0  0  0  0
  139.1450   69.5440  224.6290 C   0  0  0  0  0  0  0  0  0  0  0  0
  139.7290   69.9470  225.8230 C   0  0  0  0  0  0  0  0  0  0  0  0
  139.5480   69.1860  226.9710 C   0  0  0  0  0  0  0  0  0  0  0  0
  140.1330   69.5950  228.1550 C   0  0  0  0  0  0  0  0  0  0  0  0
  139.9290   68.8230  229.2460 F   0  0  0  0  0  0  0  0  0  0  0  0
  140.8930   70.7420  228.2220 C   0  0  0  0  0  0  0  0  0  0  0  0
  141.0730   71.5010  227.0770 C   0  0  0  0  0  0  0  0  0  0  0  0
  140.4930   71.1010  225.8890 C   0  0  0  0  0  0  0  0  0  0  0  0
  140.6790   71.8580  224.7680 N   0  0  0  0  0  0  0  0  0  0  0  0
  141.8731   77.2553  221.1662 H   0  0  0  0  0  0  0  0  0  0  0  0
  141.8504   78.2521  219.6720 H   0  0  0  0  0  0  0  0  0  0  0  0
  141.1075   76.6166  219.6720 H   0  0  0  0  0  0  0  0  0  0  0  0
  143.6537   77.2600  218.8507 H   0  0  0  0  0  0  0  0  0  0  0  0
  143.8682   76.6128  220.5510 H   0  0  0  0  0  0  0  0  0  0  0  0
  142.1163   75.1198  218.7672 H   0  0  0  0  0  0  0  0  0  0  0  0
  143.9646   75.1723  218.4436 H   0  0  0  0  0  0  0  0  0  0  0  0
  142.7106   74.3585  220.9294 H   0  0  0  0  0  0  0  0  0  0  0  0
  145.1820   74.8580  220.9448 H   0  0  0  0  0  0  0  0  0  0  0  0
  144.7203   73.2322  221.4908 H   0  0  0  0  0  0  0  0  0  0  0  0
  146.2352   74.0271  219.0080 H   0  0  0  0  0  0  0  0  0  0  0  0
  146.0170   71.8950  220.8320 H   0  0  0  0  0  0  0  0  0  0  0  0
  144.4590   73.3279  217.6523 H   0  0  0  0  0  0  0  0  0  0  0  0
  144.6853   71.7041  218.3606 H   0  0  0  0  0  0  0  0  0  0  0  0
  140.9609   73.4977  220.2944 H   0  0  0  0  0  0  0  0  0  0  0  0
  139.9839   72.3113  219.3442 H   0  0  0  0  0  0  0  0  0  0  0  0
  140.8850   70.5790  221.1600 H   0  0  0  0  0  0  0  0  0  0  0  0
  138.9256   70.0678  222.5712 H   0  0  0  0  0  0  0  0  0  0  0  0
  138.5359   68.6307  224.5593 H   0  0  0  0  0  0  0  0  0  0  0  0
  138.9449   68.2666  226.9383 H   0  0  0  0  0  0  0  0  0  0  0  0
  141.3513   71.0515  229.1729 H   0  0  0  0  0  0  0  0  0  0  0  0
  141.6764   72.4200  227.1139 H   0  0  0  0  0  0  0  0  0  0  0  0
  1  2  1  0
  2  3  1  0
  3  4  1  0
  4  5  1  0
  5  6  1  0
  6  7  1  0
  6  8  1  0
  8  9  1  0
  9 10  1  0
 10 11  2  0
 10 12  1  0
 12 13  1  0
 13 14  1  0
 14 15  2  0
 14 16  1  0
 16 17  2  0
 17 18  1  0
 18 19  2  0
 19 20  1  0
 20 21  2  0
 21 22  1  0
 21 23  1  0
 23 24  2  0
 24 25  1  0
 25 26  2  0
  9  4  1  0
 26 16  1  0
 25 19  1  0
  1 27  1  0
  1 28  1  0
  1 29  1  0
  2 30  1  0
  2 31  1  0
  3 32  1  0
  3 33  1  0
  4 34  1  1
  5 35  1  0
  5 36  1  0
  6 37  1  6
  7 38  1  0
  8 39  1  0
  8 40  1  0
 12 41  1  0
 12 42  1  0
 13 43  1  0
 17 44  1  0
 18 45  1  0
 20 46  1  0
 23 47  1  0
 24 48  1  0
M  END
>  <smiles>  (10) 
CCC[C@@H]1C[C@@H](O)CN1C(=O)CNC(=O)c1ccc2cc(F)ccc2n1

>  <score_type>  (10) 
oracle

>  <origin>  (10) 
autodockgpu

>  <m_score__min__energy>  (10) 
-7.4800000000000004

>  <m_primary>  (10) 
energy

>  <rmsd>  (10) 
3.1695159432575504

>  <m_score__min__rmsd>  (10) 
3.1695159432575504

>  <meeko>  (10) 
{"free_energy": -7.24, "intermolecular_energy": -9.32, "internal_energy": -1.13, "cluster_size": 23, "cluster_id": 1, "rank_in_cluster": 8}

>  <energy>  (10) 
-6.73

>  <cluster_rmsd>  (10) 
1.94

>  <cluster>  (10) 
1

$$$$

     RDKit          3D

 48 50  0  0  0  0  0  0  0  0999 V2000
  137.5460   79.3540  223.0620 C   0  0  0  0  0  0  0  0  0  0  0  0
  137.5060   78.0090  222.4250 C   0  0  0  0  0  0  0  0  0  0  0  0
  138.7470   77.6420  221.7130 C   0  0  0  0  0  0  0  0  0  0  0  0
  139.9380   77.2380  222.4800 C   0  0  2  0  0  0  0  0  0  0  0  0
  140.7920   78.2750  223.1020 C   0  0  0  0  0  0  0  0  0  0  0  0
  141.5820   78.9170  221.9810 C   0  0  1  0  0  0  0  0  0  0  0  0
  142.9260   79.1150  222.3720 O   0  0  0  0  0  0  0  0  0  0  0  0
  141.5120   77.8620  220.9130 C   0  0  0  0  0  0  0  0  0  0  0  0
  140.8930   76.6810  221.4870 N   0  0  0  0  0  0  0  0  0  0  0  0
  141.1180   75.3090  221.1990 C   0  0  0  0  0  0  0  0  0  0  0  0
  142.2890   74.9240  221.0700 O   0  0  0  0  0  0  0  0  0  0  0  0
  139.9620   74.4110  221.0680 C   0  0  0  0  0  0  0  0  0  0  0  0
  139.7690   73.6420  222.2730 N   0  0  0  0  0  0  0  0  0  0  0  0
  140.3900   72.3470  222.3190 C   0  0  0  0  0  0  0  0  0  0  0  0
  141.0660   71.9390  221.3230 O   0  0  0  0  0  0  0  0  0  0  0  0
  140.2320   71.5180  223.5130 C   0  0  0  0  0  0  0  0  0  0  0  0
  139.5610   70.3180  223.3970 C   0  0  0  0  0  0  0  0  0  0  0  0
  139.3570   69.4600  224.4590 C   0  0  0  0  0  0  0  0  0  0  0  0
  139.8680   69.8670  225.6840 C   0  0  0  0  0  0  0  0  0  0  0  0
  139.7030   69.0590  226.8030 C   0  0  0  0  0  0  0  0  0  0  0  0
  140.2160   69.4730  228.0180 C   0  0  0  0  0  0  0  0  0  0  0  0
  140.0300   68.6540  229.0790 F   0  0  0  0  0  0  0  0  0  0  0  0
  140.8860   70.6690  228.1460 C   0  0  0  0  0  0  0  0  0  0  0  0
  141.0500   71.4750  227.0310 C   0  0  0  0  0  0  0  0  0  0  0  0
  140.5430   71.0710  225.8110 C   0  0  0  0  0  0  0  0  0  0  0  0
  140.7110   71.8740  224.7190 N   0  0  0  0  0  0  0  0  0  0  0  0
  137.5427   79.2417  224.1562 H   0  0  0  0  0  0  0  0  0  0  0  0
  138.4602   79.8803  222.7502 H   0  0  0  0  0  0  0  0  0  0  0  0
  136.6647   79.9337  222.7502 H   0  0  0  0  0  0  0  0  0  0  0  0
  137.3237   77.2603  223.2100 H   0  0  0  0  0  0  0  0  0  0  0  0
  136.7049   78.0384  221.6718 H   0  0  0  0  0  0  0  0  0  0  0  0
  138.4964   76.8025  221.0479 H   0  0  0  0  0  0  0  0  0  0  0  0
  139.0569   78.5843  221.2376 H   0  0  0  0  0  0  0  0  0  0  0  0
  139.5108   76.6144  223.2791 H   0  0  0  0  0  0  0  0  0  0  0  0
  140.1681   79.0280  223.6058 H   0  0  0  0  0  0  0  0  0  0  0  0
  141.4610   77.8364  223.8571 H   0  0  0  0  0  0  0  0  0  0  0  0
  141.1999   79.9021  221.6750 H   0  0  0  0  0  0  0  0  0  0  0  0
  143.5300   78.4570  221.9210 H   0  0  0  0  0  0  0  0  0  0  0  0
  140.9089   78.2260  220.0681 H   0  0  0  0  0  0  0  0  0  0  0  0
  142.5210   77.6235  220.5455 H   0  0  0  0  0  0  0  0  0  0  0  0
  139.0602   75.0105  220.8749 H   0  0  0  0  0  0  0  0  0  0  0  0
  140.1479   73.7178  220.2344 H   0  0  0  0  0  0  0  0  0  0  0  0
  139.2050   73.9890  223.0970 H   0  0  0  0  0  0  0  0  0  0  0  0
  139.1694   70.0309  222.4099 H   0  0  0  0  0  0  0  0  0  0  0  0
  138.8197   68.5074  224.3413 H   0  0  0  0  0  0  0  0  0  0  0  0
  139.1698   68.1002  226.7225 H   0  0  0  0  0  0  0  0  0  0  0  0
  141.2863   70.9809  229.1219 H   0  0  0  0  0  0  0  0  0  0  0  0
  141.5823   72.4338  227.1169 H   0  0  0  0  0  0  0  0  0  0  0  0
  1  2  1  0
  2  3  1  0
  3  4  1  0
  4  5  1  0
  5  6  1  0
  6  7  1  0
  6  8  1  0
  8  9  1  0
  9 10  1  0
 10 11  2  0
 10 12  1  0
 12 13  1  0
 13 14  1  0
 14 15  2  0
 14 16  1  0
 16 17  2  0
 17 18  1  0
 18 19  2  0
 19 20  1  0
 20 21  2  0
 21 22  1  0
 21 23  1  0
 23 24  2  0
 24 25  1  0
 25 26  2  0
  9  4  1  0
 26 16  1  0
 25 19  1  0
  1 27  1  0
  1 28  1  0
  1 29  1  0
  2 30  1  0
  2 31  1  0
  3 32  1  0
  3 33  1  0
  4 34  1  1
  5 35  1  0
  5 36  1  0
  6 37  1  6
  7 38  1  0
  8 39  1  0
  8 40  1  0
 12 41  1  0
 12 42  1  0
 13 43  1  0
 17 44  1  0
 18 45  1  0
 20 46  1  0
 23 47  1  0
 24 48  1  0
M  END
>  <smiles>  (11) 
CCC[C@@H]1C[C@@H](O)CN1C(=O)CNC(=O)c1ccc2cc(F)ccc2n1

>  <score_type>  (11) 
oracle

>  <origin>  (11) 
autodockgpu

>  <m_score__min__energy>  (11) 
-7.4800000000000004

>  <m_primary>  (11) 
energy

>  <rmsd>  (11) 
3.044154197126566

>  <m_score__min__rmsd>  (11) 
3.044154197126566

>  <meeko>  (11) 
{"free_energy": -7.23, "intermolecular_energy": -9.32, "internal_energy": -1.09, "cluster_size": 4, "cluster_id": 4, "rank_in_cluster": 2}

>  <energy>  (11) 
-6.6

>  <cluster_rmsd>  (11) 
1.92

>  <cluster>  (11) 
1

$$$$

     RDKit          3D

 48 50  0  0  0  0  0  0  0  0999 V2000
  142.5360   80.3630  223.8510 C   0  0  0  0  0  0  0  0  0  0  0  0
  142.3450   79.5790  222.6010 C   0  0  0  0  0  0  0  0  0  0  0  0
  141.3650   78.4800  222.7200 C   0  0  0  0  0  0  0  0  0  0  0  0
  140.6010   78.0500  221.5360 C   0  0  2  0  0  0  0  0  0  0  0  0
  139.3620   78.7690  221.1660 C   0  0  0  0  0  0  0  0  0  0  0  0
  138.3000   78.3440  222.1570 C   0  0  1  0  0  0  0  0  0  0  0  0
  137.0720   78.1080  221.4970 O   0  0  0  0  0  0  0  0  0  0  0  0
  138.8590   77.0470  222.6690 C   0  0  0  0  0  0  0  0  0  0  0  0
  140.0330   76.7200  221.8790 N   0  0  0  0  0  0  0  0  0  0  0  0
  140.5470   75.4520  221.5010 C   0  0  0  0  0  0  0  0  0  0  0  0
  141.7770   75.3140  221.4450 O   0  0  0  0  0  0  0  0  0  0  0  0
  139.6060   74.3650  221.1960 C   0  0  0  0  0  0  0  0  0  0  0  0
  139.4050   73.5210  222.3470 N   0  0  0  0  0  0  0  0  0  0  0  0
  140.3830   72.4920  222.5720 C   0  0  0  0  0  0  0  0  0  0  0  0
  141.3600   72.3680  221.7690 O   0  0  0  0  0  0  0  0  0  0  0  0
  140.2350   71.6020  223.7230 C   0  0  0  0  0  0  0  0  0  0  0  0
  139.5910   70.3940  223.5430 C   0  0  0  0  0  0  0  0  0  0  0  0
  139.3990   69.4820  224.5610 C   0  0  0  0  0  0  0  0  0  0  0  0
  139.8930   69.8390  225.8080 C   0  0  0  0  0  0  0  0  0  0  0  0
  139.7400   68.9730  226.8850 C   0  0  0  0  0  0  0  0  0  0  0  0
  140.2350   69.3380  228.1230 C   0  0  0  0  0  0  0  0  0  0  0  0
  140.0610   68.4640  229.1410 F   0  0  0  0  0  0  0  0  0  0  0  0
  140.8790   70.5400  228.3140 C   0  0  0  0  0  0  0  0  0  0  0  0
  141.0330   71.4030  227.2400 C   0  0  0  0  0  0  0  0  0  0  0  0
  140.5410   71.0490  225.9990 C   0  0  0  0  0  0  0  0  0  0  0  0
  140.6990   71.9080  224.9490 N   0  0  0  0  0  0  0  0  0  0  0  0
  142.3768   79.7097  224.7215 H   0  0  0  0  0  0  0  0  0  0  0  0
  143.5588   80.7669  223.8778 H   0  0  0  0  0  0  0  0  0  0  0  0
  141.8136   81.1921  223.8778 H   0  0  0  0  0  0  0  0  0  0  0  0
  142.0006   80.2647  221.8128 H   0  0  0  0  0  0  0  0  0  0  0  0
  143.3144   79.1145  222.3676 H   0  0  0  0  0  0  0  0  0  0  0  0
  141.9163   77.5991  223.0807 H   0  0  0  0  0  0  0  0  0  0  0  0
  140.5936   78.8965  223.3844 H   0  0  0  0  0  0  0  0  0  0  0  0
  141.3295   78.1716  220.7208 H   0  0  0  0  0  0  0  0  0  0  0  0
  139.5223   79.8557  221.2249 H   0  0  0  0  0  0  0  0  0  0  0  0
  139.0594   78.5313  220.1355 H   0  0  0  0  0  0  0  0  0  0  0  0
  138.0950   79.0924  222.9367 H   0  0  0  0  0  0  0  0  0  0  0  0
  137.1890   78.1320  220.5040 H   0  0  0  0  0  0  0  0  0  0  0  0
  139.1393   77.1535  223.7274 H   0  0  0  0  0  0  0  0  0  0  0  0
  138.1077   76.2479  222.5849 H   0  0  0  0  0  0  0  0  0  0  0  0
  138.6410   74.7981  220.8940 H   0  0  0  0  0  0  0  0  0  0  0  0
  140.0250   73.7554  220.3819 H   0  0  0  0  0  0  0  0  0  0  0  0
  138.5890   73.6310  223.0100 H   0  0  0  0  0  0  0  0  0  0  0  0
  139.2128   70.1466  222.5401 H   0  0  0  0  0  0  0  0  0  0  0  0
  138.8830   68.5251  224.3933 H   0  0  0  0  0  0  0  0  0  0  0  0
  139.2302   68.0072  226.7532 H   0  0  0  0  0  0  0  0  0  0  0  0
  141.2666   70.8122  229.3068 H   0  0  0  0  0  0  0  0  0  0  0  0
  141.5455   72.3668  227.3758 H   0  0  0  0  0  0  0  0  0  0  0  0
  1  2  1  0
  2  3  1  0
  3  4  1  0
  4  5  1  0
  5  6  1  0
  6  7  1  0
  6  8  1  0
  8  9  1  0
  9 10  1  0
 10 11  2  0
 10 12  1  0
 12 13  1  0
 13 14  1  0
 14 15  2  0
 14 16  1  0
 16 17  2  0
 17 18  1  0
 18 19  2  0
 19 20  1  0
 20 21  2  0
 21 22  1  0
 21 23  1  0
 23 24  2  0
 24 25  1  0
 25 26  2  0
  9  4  1  0
 26 16  1  0
 25 19  1  0
  1 27  1  0
  1 28  1  0
  1 29  1  0
  2 30  1  0
  2 31  1  0
  3 32  1  0
  3 33  1  0
  4 34  1  6
  5 35  1  0
  5 36  1  0
  6 37  1  1
  7 38  1  0
  8 39  1  0
  8 40  1  0
 12 41  1  0
 12 42  1  0
 13 43  1  0
 17 44  1  0
 18 45  1  0
 20 46  1  0
 23 47  1  0
 24 48  1  0
M  END
>  <smiles>  (12) 
CCC[C@@H]1C[C@@H](O)CN1C(=O)CNC(=O)c1ccc2cc(F)ccc2n1

>  <score_type>  (12) 
oracle

>  <origin>  (12) 
autodockgpu

>  <m_score__min__energy>  (12) 
-7.4800000000000004

>  <m_primary>  (12) 
energy

>  <rmsd>  (12) 
3.205548242105342

>  <m_score__min__rmsd>  (12) 
3.205548242105342

>  <meeko>  (12) 
{"free_energy": -7.12, "intermolecular_energy": -9.21, "internal_energy": -1.0, "cluster_size": 4, "cluster_id": 4, "rank_in_cluster": 3}

>  <energy>  (12) 
-6.59

>  <cluster_rmsd>  (12) 
1.49

>  <cluster>  (12) 
1

$$$$

     RDKit          3D

 48 50  0  0  0  0  0  0  0  0999 V2000
  143.6480   67.8390  219.1770 C   0  0  0  0  0  0  0  0  0  0  0  0
  144.4520   68.9780  219.6970 C   0  0  0  0  0  0  0  0  0  0  0  0
  143.6670   70.2030  219.9550 C   0  0  0  0  0  0  0  0  0  0  0  0
  143.8510   71.3830  219.0920 C   0  0  2  0  0  0  0  0  0  0  0  0
  145.2070   71.7340  218.6150 C   0  0  0  0  0  0  0  0  0  0  0  0
  145.9430   72.3300  219.7950 C   0  0  1  0  0  0  0  0  0  0  0  0
  146.6860   73.4650  219.3950 O   0  0  0  0  0  0  0  0  0  0  0  0
  144.8080   72.7520  220.6840 C   0  0  0  0  0  0  0  0  0  0  0  0
  143.5690   72.5630  219.9510 N   0  0  0  0  0  0  0  0  0  0  0  0
  142.3590   73.3030  220.0100 C   0  0  0  0  0  0  0  0  0  0  0  0
  142.4330   74.5360  220.1210 O   0  0  0  0  0  0  0  0  0  0  0  0
  141.0800   72.5830  219.9350 C   0  0  0  0  0  0  0  0  0  0  0  0
  140.9050   71.7250  221.0810 N   0  0  0  0  0  0  0  0  0  0  0  0
  140.4930   72.3560  222.3030 C   0  0  0  0  0  0  0  0  0  0  0  0
  140.3040   73.6130  222.3290 O   0  0  0  0  0  0  0  0  0  0  0  0
  140.2980   71.5400  223.5010 C   0  0  0  0  0  0  0  0  0  0  0  0
  139.6080   70.3510  223.3820 C   0  0  0  0  0  0  0  0  0  0  0  0
  139.3690   69.5060  224.4470 C   0  0  0  0  0  0  0  0  0  0  0  0
  139.8650   69.9140  225.6780 C   0  0  0  0  0  0  0  0  0  0  0  0
  139.6650   69.1180  226.8000 C   0  0  0  0  0  0  0  0  0  0  0  0
  140.1620   69.5330  228.0220 C   0  0  0  0  0  0  0  0  0  0  0  0
  139.9430   68.7260  229.0850 F   0  0  0  0  0  0  0  0  0  0  0  0
  140.8520   70.7180  228.1530 C   0  0  0  0  0  0  0  0  0  0  0  0
  141.0500   71.5110  227.0340 C   0  0  0  0  0  0  0  0  0  0  0  0
  140.5580   71.1070  225.8080 C   0  0  0  0  0  0  0  0  0  0  0  0
  140.7610   71.8970  224.7140 N   0  0  0  0  0  0  0  0  0  0  0  0
  143.2409   67.2622  220.0206 H   0  0  0  0  0  0  0  0  0  0  0  0
  142.8206   68.2243  218.5630 H   0  0  0  0  0  0  0  0  0  0  0  0
  144.2881   67.1884  218.5630 H   0  0  0  0  0  0  0  0  0  0  0  0
  144.9241   68.6654  220.6400 H   0  0  0  0  0  0  0  0  0  0  0  0
  145.1859   69.2301  218.9173 H   0  0  0  0  0  0  0  0  0  0  0  0
  142.6057   69.9217  219.8887 H   0  0  0  0  0  0  0  0  0  0  0  0
  144.0355   70.5419  220.9344 H   0  0  0  0  0  0  0  0  0  0  0  0
  143.2262   71.1441  218.2187 H   0  0  0  0  0  0  0  0  0  0  0  0
  145.7284   70.8333  218.2588 H   0  0  0  0  0  0  0  0  0  0  0  0
  145.1597   72.4460  217.7779 H   0  0  0  0  0  0  0  0  0  0  0  0
  146.6594   71.6407  220.2658 H   0  0  0  0  0  0  0  0  0  0  0  0
  146.0940   74.2660  219.3040 H   0  0  0  0  0  0  0  0  0  0  0  0
  144.7997   72.1369  221.5959 H   0  0  0  0  0  0  0  0  0  0  0  0
  144.9225   73.8066  220.9749 H   0  0  0  0  0  0  0  0  0  0  0  0
  140.2573   73.3125  219.9022 H   0  0  0  0  0  0  0  0  0  0  0  0
  141.0788   71.9618  219.0272 H   0  0  0  0  0  0  0  0  0  0  0  0
  141.0640   70.6800  221.0500 H   0  0  0  0  0  0  0  0  0  0  0  0
  139.2300   70.0625  222.3901 H   0  0  0  0  0  0  0  0  0  0  0  0
  138.8166   68.5623  224.3272 H   0  0  0  0  0  0  0  0  0  0  0  0
  139.1170   68.1678  226.7167 H   0  0  0  0  0  0  0  0  0  0  0  0
  141.2408   71.0308  229.1333 H   0  0  0  0  0  0  0  0  0  0  0  0
  141.5981   72.4607  227.1218 H   0  0  0  0  0  0  0  0  0  0  0  0
  1  2  1  0
  2  3  1  0
  3  4  1  0
  4  5  1  0
  5  6  1  0
  6  7  1  0
  6  8  1  0
  8  9  1  0
  9 10  1  0
 10 11  2  0
 10 12  1  0
 12 13  1  0
 13 14  1  0
 14 15  2  0
 14 16  1  0
 16 17  2  0
 17 18  1  0
 18 19  2  0
 19 20  1  0
 20 21  2  0
 21 22  1  0
 21 23  1  0
 23 24  2  0
 24 25  1  0
 25 26  2  0
  9  4  1  0
 26 16  1  0
 25 19  1  0
  1 27  1  0
  1 28  1  0
  1 29  1  0
  2 30  1  0
  2 31  1  0
  3 32  1  0
  3 33  1  0
  4 34  1  6
  5 35  1  0
  5 36  1  0
  6 37  1  1
  7 38  1  0
  8 39  1  0
  8 40  1  0
 12 41  1  0
 12 42  1  0
 13 43  1  0
 17 44  1  0
 18 45  1  0
 20 46  1  0
 23 47  1  0
 24 48  1  0
M  END
>  <smiles>  (13) 
CCC[C@@H]1C[C@@H](O)CN1C(=O)CNC(=O)c1ccc2cc(F)ccc2n1

>  <score_type>  (13) 
oracle

>  <origin>  (13) 
autodockgpu

>  <m_score__min__energy>  (13) 
-7.4800000000000004

>  <m_primary>  (13) 
energy

>  <rmsd>  (13) 
4.6079873975362915

>  <m_score__min__rmsd>  (13) 
4.6079873975362915

>  <meeko>  (13) 
{"free_energy": -7.16, "intermolecular_energy": -9.25, "internal_energy": -1.2, "cluster_size": 23, "cluster_id": 1, "rank_in_cluster": 9}

>  <energy>  (13) 
-6.56

>  <cluster_rmsd>  (13) 
1.48

>  <cluster>  (13) 
1

$$$$

     RDKit          3D

 48 50  0  0  0  0  0  0  0  0999 V2000
  146.2240   73.4010  221.2380 C   0  0  0  0  0  0  0  0  0  0  0  0
  145.1480   73.6630  220.2440 C   0  0  0  0  0  0  0  0  0  0  0  0
  143.8730   74.1130  220.8390 C   0  0  0  0  0  0  0  0  0  0  0  0
  142.7000   74.3320  219.9750 C   0  0  2  0  0  0  0  0  0  0  0  0
  142.8920   74.8460  218.6000 C   0  0  0  0  0  0  0  0  0  0  0  0
  143.2240   76.3170  218.7290 C   0  0  1  0  0  0  0  0  0  0  0  0
  142.5320   77.0700  217.7520 O   0  0  0  0  0  0  0  0  0  0  0  0
  142.6840   76.6360  220.0940 C   0  0  0  0  0  0  0  0  0  0  0  0
  141.9590   75.4730  220.5740 N   0  0  0  0  0  0  0  0  0  0  0  0
  140.8160   75.3990  221.4120 C   0  0  0  0  0  0  0  0  0  0  0  0
  140.7200   76.2150  222.3410 O   0  0  0  0  0  0  0  0  0  0  0  0
  139.8030   74.3690  221.1450 C   0  0  0  0  0  0  0  0  0  0  0  0
  139.5770   73.5540  222.3130 N   0  0  0  0  0  0  0  0  0  0  0  0
  140.4350   72.4140  222.4810 C   0  0  0  0  0  0  0  0  0  0  0  0
  141.3350   72.1720  221.6160 O   0  0  0  0  0  0  0  0  0  0  0  0
  140.2570   71.5480  223.6450 C   0  0  0  0  0  0  0  0  0  0  0  0
  139.6050   70.3430  223.4770 C   0  0  0  0  0  0  0  0  0  0  0  0
  139.3850   69.4520  224.5070 C   0  0  0  0  0  0  0  0  0  0  0  0
  139.8590   69.8280  225.7570 C   0  0  0  0  0  0  0  0  0  0  0  0
  139.6770   68.9850  226.8470 C   0  0  0  0  0  0  0  0  0  0  0  0
  140.1530   69.3690  228.0870 C   0  0  0  0  0  0  0  0  0  0  0  0
  139.9510   68.5160  229.1180 F   0  0  0  0  0  0  0  0  0  0  0  0
  140.8050   70.5680  228.2670 C   0  0  0  0  0  0  0  0  0  0  0  0
  140.9870   71.4090  227.1800 C   0  0  0  0  0  0  0  0  0  0  0  0
  140.5150   71.0360  225.9370 C   0  0  0  0  0  0  0  0  0  0  0  0
  140.7010   71.8730  224.8740 N   0  0  0  0  0  0  0  0  0  0  0  0
  145.8160   73.5003  222.2547 H   0  0  0  0  0  0  0  0  0  0  0  0
  146.6132   72.3819  221.0970 H   0  0  0  0  0  0  0  0  0  0  0  0
  147.0381   74.1271  221.0970 H   0  0  0  0  0  0  0  0  0  0  0  0
  145.4998   74.4419  219.5515 H   0  0  0  0  0  0  0  0  0  0  0  0
  144.9426   72.7071  219.7399 H   0  0  0  0  0  0  0  0  0  0  0  0
  143.5839   73.3562  221.5831 H   0  0  0  0  0  0  0  0  0  0  0  0
  144.1070   75.1208  221.2125 H   0  0  0  0  0  0  0  0  0  0  0  0
  142.2557   73.3277  219.9120 H   0  0  0  0  0  0  0  0  0  0  0  0
  143.7183   74.3125  218.1076 H   0  0  0  0  0  0  0  0  0  0  0  0
  141.9882   74.6959  217.9913 H   0  0  0  0  0  0  0  0  0  0  0  0
  144.2921   76.5442  218.5963 H   0  0  0  0  0  0  0  0  0  0  0  0
  143.1370   77.7410  217.3240 H   0  0  0  0  0  0  0  0  0  0  0  0
  143.5133   76.8674  220.7786 H   0  0  0  0  0  0  0  0  0  0  0  0
  142.0164   77.5089  220.0459 H   0  0  0  0  0  0  0  0  0  0  0  0
  138.8598   74.8573  220.8586 H   0  0  0  0  0  0  0  0  0  0  0  0
  140.1644   73.7236  220.3309 H   0  0  0  0  0  0  0  0  0  0  0  0
  138.8270   73.7630  223.0280 H   0  0  0  0  0  0  0  0  0  0  0  0
  139.2429   70.0802  222.4721 H   0  0  0  0  0  0  0  0  0  0  0  0
  138.8632   68.4969  224.3471 H   0  0  0  0  0  0  0  0  0  0  0  0
  139.1595   68.0221  226.7243 H   0  0  0  0  0  0  0  0  0  0  0  0
  141.1771   70.8554  229.2615 H   0  0  0  0  0  0  0  0  0  0  0  0
  141.5059   72.3706  227.3073 H   0  0  0  0  0  0  0  0  0  0  0  0
  1  2  1  0
  2  3  1  0
  3  4  1  0
  4  5  1  0
  5  6  1  0
  6  7  1  0
  6  8  1  0
  8  9  1  0
  9 10  1  0
 10 11  2  0
 10 12  1  0
 12 13  1  0
 13 14  1  0
 14 15  2  0
 14 16  1  0
 16 17  2  0
 17 18  1  0
 18 19  2  0
 19 20  1  0
 20 21  2  0
 21 22  1  0
 21 23  1  0
 23 24  2  0
 24 25  1  0
 25 26  2  0
  9  4  1  0
 26 16  1  0
 25 19  1  0
  1 27  1  0
  1 28  1  0
  1 29  1  0
  2 30  1  0
  2 31  1  0
  3 32  1  0
  3 33  1  0
  4 34  1  6
  5 35  1  0
  5 36  1  0
  6 37  1  1
  7 38  1  0
  8 39  1  0
  8 40  1  0
 12 41  1  0
 12 42  1  0
 13 43  1  0
 17 44  1  0
 18 45  1  0
 20 46  1  0
 23 47  1  0
 24 48  1  0
M  END
>  <smiles>  (14) 
CCC[C@@H]1C[C@@H](O)CN1C(=O)CNC(=O)c1ccc2cc(F)ccc2n1

>  <score_type>  (14) 
oracle

>  <origin>  (14) 
autodockgpu

>  <m_score__min__energy>  (14) 
-7.4800000000000004

>  <m_primary>  (14) 
energy

>  <rmsd>  (14) 
3.098166591340956

>  <m_score__min__rmsd>  (14) 
3.098166591340956

>  <meeko>  (14) 
{"free_energy": -7.28, "intermolecular_energy": -9.36, "internal_energy": -1.24, "cluster_size": 18, "cluster_id": 3, "rank_in_cluster": 2}

>  <energy>  (14) 
-6.48

>  <cluster_rmsd>  (14) 
1.49

>  <cluster>  (14) 
1

$$$$

     RDKit          3D

 48 50  0  0  0  0  0  0  0  0999 V2000
  141.4190   76.0150  220.9150 C   0  0  0  0  0  0  0  0  0  0  0  0
  142.3990   76.4930  219.9030 C   0  0  0  0  0  0  0  0  0  0  0  0
  143.4290   75.4970  219.5420 C   0  0  0  0  0  0  0  0  0  0  0  0
  143.5640   74.2640  220.3370 C   0  0  2  0  0  0  0  0  0  0  0  0
  144.8970   73.8570  220.8340 C   0  0  0  0  0  0  0  0  0  0  0  0
  145.6580   73.3160  219.6430 C   0  0  1  0  0  0  0  0  0  0  0  0
  146.3660   72.1450  219.9960 O   0  0  0  0  0  0  0  0  0  0  0  0
  144.5440   72.9720  218.6960 C   0  0  0  0  0  0  0  0  0  0  0  0
  143.2860   73.1440  219.4010 N   0  0  0  0  0  0  0  0  0  0  0  0
  142.0640   72.4340  219.2610 C   0  0  0  0  0  0  0  0  0  0  0  0
  142.0040   71.5380  218.4070 O   0  0  0  0  0  0  0  0  0  0  0  0
  140.9330   72.7890  220.1280 C   0  0  0  0  0  0  0  0  0  0  0  0
  140.8410   71.8860  221.2490 N   0  0  0  0  0  0  0  0  0  0  0  0
  140.2690   72.4130  222.4580 C   0  0  0  0  0  0  0  0  0  0  0  0
  139.8790   73.6230  222.4930 O   0  0  0  0  0  0  0  0  0  0  0  0
  140.1480   71.5480  223.6300 C   0  0  0  0  0  0  0  0  0  0  0  0
  139.4360   70.3720  223.5100 C   0  0  0  0  0  0  0  0  0  0  0  0
  139.2610   69.4840  224.5520 C   0  0  0  0  0  0  0  0  0  0  0  0
  139.8470   69.8330  225.7610 C   0  0  0  0  0  0  0  0  0  0  0  0
  139.7160   68.9910  226.8600 C   0  0  0  0  0  0  0  0  0  0  0  0
  140.3030   69.3480  228.0590 C   0  0  0  0  0  0  0  0  0  0  0  0
  140.1480   68.4980  229.1000 F   0  0  0  0  0  0  0  0  0  0  0  0
  141.0160   70.5180  228.1910 C   0  0  0  0  0  0  0  0  0  0  0  0
  141.1460   71.3570  227.0960 C   0  0  0  0  0  0  0  0  0  0  0  0
  140.5640   71.0120  225.8920 C   0  0  0  0  0  0  0  0  0  0  0  0
  140.7000   71.8470  224.8210 N   0  0  0  0  0  0  0  0  0  0  0  0
  141.8116   76.2065  221.9246 H   0  0  0  0  0  0  0  0  0  0  0  0
  140.4667   76.5498  220.7844 H   0  0  0  0  0  0  0  0  0  0  0  0
  141.2541   74.9353  220.7844 H   0  0  0  0  0  0  0  0  0  0  0  0
  141.8481   76.7661  218.9909 H   0  0  0  0  0  0  0  0  0  0  0  0
  142.9275   77.3467  220.3523 H   0  0  0  0  0  0  0  0  0  0  0  0
  143.2243   75.1877  218.5064 H   0  0  0  0  0  0  0  0  0  0  0  0
  144.3743   76.0272  219.7301 H   0  0  0  0  0  0  0  0  0  0  0  0
  142.9170   74.4636  221.2040 H   0  0  0  0  0  0  0  0  0  0  0  0
  145.4242   74.7239  221.2589 H   0  0  0  0  0  0  0  0  0  0  0  0
  144.8096   73.0984  221.6258 H   0  0  0  0  0  0  0  0  0  0  0  0
  146.4021   74.0167  219.2364 H   0  0  0  0  0  0  0  0  0  0  0  0
  146.0490   71.7870  220.8750 H   0  0  0  0  0  0  0  0  0  0  0  0
  144.5768   73.6401  217.8227 H   0  0  0  0  0  0  0  0  0  0  0  0
  144.6470   71.9343  218.3460 H   0  0  0  0  0  0  0  0  0  0  0  0
  141.0735   73.8140  220.5017 H   0  0  0  0  0  0  0  0  0  0  0  0
  140.0048   72.7177  219.5420 H   0  0  0  0  0  0  0  0  0  0  0  0
  141.1670   70.8810  221.2120 H   0  0  0  0  0  0  0  0  0  0  0  0
  138.9858   70.1304  222.5359 H   0  0  0  0  0  0  0  0  0  0  0  0
  138.6893   68.5521  224.4312 H   0  0  0  0  0  0  0  0  0  0  0  0
  139.1512   68.0509  226.7758 H   0  0  0  0  0  0  0  0  0  0  0  0
  141.4769   70.7836  229.1538 H   0  0  0  0  0  0  0  0  0  0  0  0
  141.7117   72.2961  227.1855 H   0  0  0  0  0  0  0  0  0  0  0  0
  1  2  1  0
  2  3  1  0
  3  4  1  0
  4  5  1  0
  5  6  1  0
  6  7  1  0
  6  8  1  0
  8  9  1  0
  9 10  1  0
 10 11  2  0
 10 12  1  0
 12 13  1  0
 13 14  1  0
 14 15  2  0
 14 16  1  0
 16 17  2  0
 17 18  1  0
 18 19  2  0
 19 20  1  0
 20 21  2  0
 21 22  1  0
 21 23  1  0
 23 24  2  0
 24 25  1  0
 25 26  2  0
  9  4  1  0
 26 16  1  0
 25 19  1  0
  1 27  1  0
  1 28  1  0
  1 29  1  0
  2 30  1  0
  2 31  1  0
  3 32  1  0
  3 33  1  0
  4 34  1  1
  5 35  1  0
  5 36  1  0
  6 37  1  6
  7 38  1  0
  8 39  1  0
  8 40  1  0
 12 41  1  0
 12 42  1  0
 13 43  1  0
 17 44  1  0
 18 45  1  0
 20 46  1  0
 23 47  1  0
 24 48  1  0
M  END
>  <smiles>  (15) 
CCC[C@@H]1C[C@@H](O)CN1C(=O)CNC(=O)c1ccc2cc(F)ccc2n1

>  <score_type>  (15) 
oracle

>  <origin>  (15) 
autodockgpu

>  <m_score__min__energy>  (15) 
-7.4800000000000004

>  <m_primary>  (15) 
energy

>  <rmsd>  (15) 
3.116638799457176

>  <m_score__min__rmsd>  (15) 
3.116638799457176

>  <meeko>  (15) 
{"free_energy": -7.39, "intermolecular_energy": -9.48, "internal_energy": -1.23, "cluster_size": 23, "cluster_id": 1, "rank_in_cluster": 4}

>  <energy>  (15) 
-6.44

>  <cluster_rmsd>  (15) 
1.45

>  <cluster>  (15) 
1

$$$$

     RDKit          3D

 48 50  0  0  0  0  0  0  0  0999 V2000
  146.3120   73.6510  220.8810 C   0  0  0  0  0  0  0  0  0  0  0  0
  145.0360   73.4400  220.1450 C   0  0  0  0  0  0  0  0  0  0  0  0
  143.8990   74.2230  220.6700 C   0  0  0  0  0  0  0  0  0  0  0  0
  142.7320   74.4840  219.8090 C   0  0  2  0  0  0  0  0  0  0  0  0
  142.9310   75.0770  218.4690 C   0  0  0  0  0  0  0  0  0  0  0  0
  143.2510   76.5410  218.6830 C   0  0  1  0  0  0  0  0  0  0  0  0
  142.5620   77.3430  217.7460 O   0  0  0  0  0  0  0  0  0  0  0  0
  142.6980   76.7770  220.0600 C   0  0  0  0  0  0  0  0  0  0  0  0
  141.9780   75.5830  220.4670 N   0  0  0  0  0  0  0  0  0  0  0  0
  140.8290   75.4540  221.2900 C   0  0  0  0  0  0  0  0  0  0  0  0
  140.6550   76.2930  222.1860 O   0  0  0  0  0  0  0  0  0  0  0  0
  139.9010   74.3410  221.0470 C   0  0  0  0  0  0  0  0  0  0  0  0
  139.7000   73.5670  222.2460 N   0  0  0  0  0  0  0  0  0  0  0  0
  140.4310   72.3340  222.3480 C   0  0  0  0  0  0  0  0  0  0  0  0
  141.2040   71.9810  221.4030 O   0  0  0  0  0  0  0  0  0  0  0  0
  140.2710   71.5020  223.5410 C   0  0  0  0  0  0  0  0  0  0  0  0
  139.6370   70.2830  223.4130 C   0  0  0  0  0  0  0  0  0  0  0  0
  139.4350   69.4220  224.4720 C   0  0  0  0  0  0  0  0  0  0  0  0
  139.9080   69.8450  225.7070 C   0  0  0  0  0  0  0  0  0  0  0  0
  139.7430   69.0340  226.8240 C   0  0  0  0  0  0  0  0  0  0  0  0
  140.2170   69.4650  228.0490 C   0  0  0  0  0  0  0  0  0  0  0  0
  140.0320   68.6420  229.1070 F   0  0  0  0  0  0  0  0  0  0  0  0
  140.8500   70.6790  228.1890 C   0  0  0  0  0  0  0  0  0  0  0  0
  141.0150   71.4870  227.0750 C   0  0  0  0  0  0  0  0  0  0  0  0
  140.5450   71.0680  225.8460 C   0  0  0  0  0  0  0  0  0  0  0  0
  140.7140   71.8730  224.7560 N   0  0  0  0  0  0  0  0  0  0  0  0
  146.1203   73.6193  221.9637 H   0  0  0  0  0  0  0  0  0  0  0  0
  147.0260   72.8587  220.6117 H   0  0  0  0  0  0  0  0  0  0  0  0
  146.7329   74.6309  220.6117 H   0  0  0  0  0  0  0  0  0  0  0  0
  145.1933   73.7222  219.0935 H   0  0  0  0  0  0  0  0  0  0  0  0
  144.7724   72.3789  220.2660 H   0  0  0  0  0  0  0  0  0  0  0  0
  143.5275   73.6899  221.5576 H   0  0  0  0  0  0  0  0  0  0  0  0
  144.3287   75.2231  220.8286 H   0  0  0  0  0  0  0  0  0  0  0  0
  142.2959   73.4820  219.6833 H   0  0  0  0  0  0  0  0  0  0  0  0
  143.7652   74.5782  217.9540 H   0  0  0  0  0  0  0  0  0  0  0  0
  142.0326   74.9559  217.8459 H   0  0  0  0  0  0  0  0  0  0  0  0
  144.3181   76.7834  218.5712 H   0  0  0  0  0  0  0  0  0  0  0  0
  143.1740   78.0180  217.3350 H   0  0  0  0  0  0  0  0  0  0  0  0
  143.5203   76.9746  220.7634 H   0  0  0  0  0  0  0  0  0  0  0  0
  142.0239   77.6463  220.0565 H   0  0  0  0  0  0  0  0  0  0  0  0
  138.9339   74.7450  220.7129 H   0  0  0  0  0  0  0  0  0  0  0  0
  140.3319   73.6867  220.2748 H   0  0  0  0  0  0  0  0  0  0  0  0
  139.0550   73.8670  223.0280 H   0  0  0  0  0  0  0  0  0  0  0  0
  139.2751   69.9832  222.4184 H   0  0  0  0  0  0  0  0  0  0  0  0
  138.9275   68.4544  224.3450 H   0  0  0  0  0  0  0  0  0  0  0  0
  139.2406   68.0596  226.7340 H   0  0  0  0  0  0  0  0  0  0  0  0
  141.2203   71.0039  229.1725 H   0  0  0  0  0  0  0  0  0  0  0  0
  141.5193   72.4600  227.1697 H   0  0  0  0  0  0  0  0  0  0  0  0
  1  2  1  0
  2  3  1  0
  3  4  1  0
  4  5  1  0
  5  6  1  0
  6  7  1  0
  6  8  1  0
  8  9  1  0
  9 10  1  0
 10 11  2  0
 10 12  1  0
 12 13  1  0
 13 14  1  0
 14 15  2  0
 14 16  1  0
 16 17  2  0
 17 18  1  0
 18 19  2  0
 19 20  1  0
 20 21  2  0
 21 22  1  0
 21 23  1  0
 23 24  2  0
 24 25  1  0
 25 26  2  0
  9  4  1  0
 26 16  1  0
 25 19  1  0
  1 27  1  0
  1 28  1  0
  1 29  1  0
  2 30  1  0
  2 31  1  0
  3 32  1  0
  3 33  1  0
  4 34  1  6
  5 35  1  0
  5 36  1  0
  6 37  1  1
  7 38  1  0
  8 39  1  0
  8 40  1  0
 12 41  1  0
 12 42  1  0
 13 43  1  0
 17 44  1  0
 18 45  1  0
 20 46  1  0
 23 47  1  0
 24 48  1  0
M  END
>  <smiles>  (16) 
CCC[C@@H]1C[C@@H](O)CN1C(=O)CNC(=O)c1ccc2cc(F)ccc2n1

>  <score_type>  (16) 
oracle

>  <origin>  (16) 
autodockgpu

>  <m_score__min__energy>  (16) 
-7.4800000000000004

>  <m_primary>  (16) 
energy

>  <rmsd>  (16) 
3.039450041268012

>  <m_score__min__rmsd>  (16) 
3.039450041268012

>  <meeko>  (16) 
{"free_energy": -7.2, "intermolecular_energy": -9.29, "internal_energy": -1.25, "cluster_size": 18, "cluster_id": 3, "rank_in_cluster": 5}

>  <energy>  (16) 
-6.34

>  <cluster_rmsd>  (16) 
1.52

>  <cluster>  (16) 
1

$$$$

     RDKit          3D

 48 50  0  0  0  0  0  0  0  0999 V2000
  146.2920   73.3930  221.8870 C   0  0  0  0  0  0  0  0  0  0  0  0
  146.0820   73.7570  220.4600 C   0  0  0  0  0  0  0  0  0  0  0  0
  144.6630   73.9210  220.0810 C   0  0  0  0  0  0  0  0  0  0  0  0
  143.6380   73.0640  220.7000 C   0  0  2  0  0  0  0  0  0  0  0  0
  143.5540   71.6360  220.3210 C   0  0  0  0  0  0  0  0  0  0  0  0
  142.9340   71.5880  218.9410 C   0  0  1  0  0  0  0  0  0  0  0  0
  141.9810   70.5480  218.8600 O   0  0  0  0  0  0  0  0  0  0  0  0
  142.2430   72.9200  218.8680 C   0  0  0  0  0  0  0  0  0  0  0  0
  142.3330   73.5450  220.1760 N   0  0  0  0  0  0  0  0  0  0  0  0
  141.4200   74.4120  220.8320 C   0  0  0  0  0  0  0  0  0  0  0  0
  141.8380   75.5100  221.2270 O   0  0  0  0  0  0  0  0  0  0  0  0
  140.0290   73.9750  221.0110 C   0  0  0  0  0  0  0  0  0  0  0  0
  139.8640   73.2830  222.2660 N   0  0  0  0  0  0  0  0  0  0  0  0
  140.2490   71.8990  222.2950 C   0  0  0  0  0  0  0  0  0  0  0  0
  140.7060   71.3520  221.2430 O   0  0  0  0  0  0  0  0  0  0  0  0
  140.1070   71.1420  223.5380 C   0  0  0  0  0  0  0  0  0  0  0  0
  139.4660   69.9200  223.4960 C   0  0  0  0  0  0  0  0  0  0  0  0
  139.2790   69.1260  224.6080 C   0  0  0  0  0  0  0  0  0  0  0  0
  139.7760   69.6200  225.8070 C   0  0  0  0  0  0  0  0  0  0  0  0
  139.6280   68.8790  226.9730 C   0  0  0  0  0  0  0  0  0  0  0  0
  140.1260   69.3800  228.1620 C   0  0  0  0  0  0  0  0  0  0  0  0
  139.9570   68.6240  229.2710 F   0  0  0  0  0  0  0  0  0  0  0  0
  140.7670   70.5970  228.2160 C   0  0  0  0  0  0  0  0  0  0  0  0
  140.9150   71.3360  227.0530 C   0  0  0  0  0  0  0  0  0  0  0  0
  140.4210   70.8450  225.8600 C   0  0  0  0  0  0  0  0  0  0  0  0
  140.5740   71.5830  224.7210 N   0  0  0  0  0  0  0  0  0  0  0  0
  145.8466   74.1650  222.5317 H   0  0  0  0  0  0  0  0  0  0  0  0
  145.8144   72.4236  222.0922 H   0  0  0  0  0  0  0  0  0  0  0  0
  147.3703   73.3212  222.0922 H   0  0  0  0  0  0  0  0  0  0  0  0
  146.6033   74.7059  220.2654 H   0  0  0  0  0  0  0  0  0  0  0  0
  146.4763   72.9242  219.8592 H   0  0  0  0  0  0  0  0  0  0  0  0
  144.3898   74.9615  220.3108 H   0  0  0  0  0  0  0  0  0  0  0  0
  144.6442   73.6190  219.0234 H   0  0  0  0  0  0  0  0  0  0  0  0
  143.8862   73.1257  221.7699 H   0  0  0  0  0  0  0  0  0  0  0  0
  144.5590   71.1894  220.3008 H   0  0  0  0  0  0  0  0  0  0  0  0
  142.9510   71.0691  221.0456 H   0  0  0  0  0  0  0  0  0  0  0  0
  143.6595   71.4056  218.1345 H   0  0  0  0  0  0  0  0  0  0  0  0
  141.3360   70.5940  219.6240 H   0  0  0  0  0  0  0  0  0  0  0  0
  142.7348   73.5549  218.1163 H   0  0  0  0  0  0  0  0  0  0  0  0
  141.1898   72.7886  218.5791 H   0  0  0  0  0  0  0  0  0  0  0  0
  139.3701   74.8557  220.9961 H   0  0  0  0  0  0  0  0  0  0  0  0
  139.7690   73.2866  220.1934 H   0  0  0  0  0  0  0  0  0  0  0  0
  139.4840   73.7460  223.1360 H   0  0  0  0  0  0  0  0  0  0  0  0
  139.0857   69.5620  222.5279 H   0  0  0  0  0  0  0  0  0  0  0  0
  138.7648   68.1554  224.5486 H   0  0  0  0  0  0  0  0  0  0  0  0
  139.1198   67.9037  226.9506 H   0  0  0  0  0  0  0  0  0  0  0  0
  141.1572   70.9785  229.1711 H   0  0  0  0  0  0  0  0  0  0  0  0
  141.4243   72.3106  227.0798 H   0  0  0  0  0  0  0  0  0  0  0  0
  1  2  1  0
  2  3  1  0
  3  4  1  0
  4  5  1  0
  5  6  1  0
  6  7  1  0
  6  8  1  0
  8  9  1  0
  9 10  1  0
 10 11  2  0
 10 12  1  0
 12 13  1  0
 13 14  1  0
 14 15  2  0
 14 16  1  0
 16 17  2  0
 17 18  1  0
 18 19  2  0
 19 20  1  0
 20 21  2  0
 21 22  1  0
 21 23  1  0
 23 24  2  0
 24 25  1  0
 25 26  2  0
  9  4  1  0
 26 16  1  0
 25 19  1  0
  1 27  1  0
  1 28  1  0
  1 29  1  0
  2 30  1  0
  2 31  1  0
  3 32  1  0
  3 33  1  0
  4 34  1  1
  5 35  1  0
  5 36  1  0
  6 37  1  6
  7 38  1  0
  8 39  1  0
  8 40  1  0
 12 41  1  0
 12 42  1  0
 13 43  1  0
 17 44  1  0
 18 45  1  0
 20 46  1  0
 23 47  1  0
 24 48  1  0
M  END
>  <smiles>  (17) 
CCC[C@@H]1C[C@@H](O)CN1C(=O)CNC(=O)c1ccc2cc(F)ccc2n1

>  <score_type>  (17) 
oracle

>  <origin>  (17) 
autodockgpu

>  <m_score__min__energy>  (17) 
-7.4800000000000004

>  <m_primary>  (17) 
energy

>  <rmsd>  (17) 
3.278159054749583

>  <m_score__min__rmsd>  (17) 
3.278159054749583

>  <meeko>  (17) 
{"free_energy": -6.56, "intermolecular_energy": -8.65, "internal_energy": -2.13, "cluster_size": 23, "cluster_id": 1, "rank_in_cluster": 13}

>  <energy>  (17) 
-6.33

>  <cluster_rmsd>  (17) 
1.5

>  <cluster>  (17) 
1

$$$$

     RDKit          3D

 48 50  0  0  0  0  0  0  0  0999 V2000
  145.9740   73.3960  221.2100 C   0  0  0  0  0  0  0  0  0  0  0  0
  144.5600   73.4610  220.7500 C   0  0  0  0  0  0  0  0  0  0  0  0
  144.1880   74.7450  220.1230 C   0  0  0  0  0  0  0  0  0  0  0  0
  142.8760   74.8850  219.4650 C   0  0  2  0  0  0  0  0  0  0  0  0
  142.7800   75.5950  218.1710 C   0  0  0  0  0  0  0  0  0  0  0  0
  142.9210   77.0710  218.4730 C   0  0  1  0  0  0  0  0  0  0  0  0
  141.9890   77.8230  217.7220 O   0  0  0  0  0  0  0  0  0  0  0  0
  142.5600   77.1220  219.9300 C   0  0  0  0  0  0  0  0  0  0  0  0
  142.0860   75.8070  220.3230 N   0  0  0  0  0  0  0  0  0  0  0  0
  141.1080   75.4450  221.2850 C   0  0  0  0  0  0  0  0  0  0  0  0
  140.9890   76.1580  222.2930 O   0  0  0  0  0  0  0  0  0  0  0  0
  140.2840   74.2530  221.0490 C   0  0  0  0  0  0  0  0  0  0  0  0
  140.0270   73.5510  222.2820 N   0  0  0  0  0  0  0  0  0  0  0  0
  140.5250   72.2070  222.3760 C   0  0  0  0  0  0  0  0  0  0  0  0
  141.1540   71.7000  221.3950 O   0  0  0  0  0  0  0  0  0  0  0  0
  140.2970   71.4420  223.6020 C   0  0  0  0  0  0  0  0  0  0  0  0
  139.6460   70.2290  223.5100 C   0  0  0  0  0  0  0  0  0  0  0  0
  139.3810   69.4290  224.6030 C   0  0  0  0  0  0  0  0  0  0  0  0
  139.8090   69.9080  225.8340 C   0  0  0  0  0  0  0  0  0  0  0  0
  139.5790   69.1600  226.9830 C   0  0  0  0  0  0  0  0  0  0  0  0
  140.0090   69.6460  228.2030 C   0  0  0  0  0  0  0  0  0  0  0  0
  139.7630   68.8840  229.2940 F   0  0  0  0  0  0  0  0  0  0  0  0
  140.6600   70.8550  228.3080 C   0  0  0  0  0  0  0  0  0  0  0  0
  140.8890   71.6000  227.1620 C   0  0  0  0  0  0  0  0  0  0  0  0
  140.4630   71.1250  225.9370 C   0  0  0  0  0  0  0  0  0  0  0  0
  140.6950   71.8690  224.8150 N   0  0  0  0  0  0  0  0  0  0  0  0
  146.0021   73.3947  222.3096 H   0  0  0  0  0  0  0  0  0  0  0  0
  146.4412   72.4754  220.8302 H   0  0  0  0  0  0  0  0  0  0  0  0
  146.5237   74.2698  220.8302 H   0  0  0  0  0  0  0  0  0  0  0  0
  144.3986   72.6583  220.0154 H   0  0  0  0  0  0  0  0  0  0  0  0
  143.9301   73.3510  221.6451 H   0  0  0  0  0  0  0  0  0  0  0  0
  144.2318   75.5097  220.9125 H   0  0  0  0  0  0  0  0  0  0  0  0
  144.9022   74.8399  219.2918 H   0  0  0  0  0  0  0  0  0  0  0  0
  142.5707   73.8396  219.3105 H   0  0  0  0  0  0  0  0  0  0  0  0
  143.5860   75.2671  217.4980 H   0  0  0  0  0  0  0  0  0  0  0  0
  141.8221   75.3828  217.6735 H   0  0  0  0  0  0  0  0  0  0  0  0
  143.9136   77.4804  218.2339 H   0  0  0  0  0  0  0  0  0  0  0  0
  142.4490   78.5380  217.1940 H   0  0  0  0  0  0  0  0  0  0  0  0
  143.4453   77.3923  220.5243 H   0  0  0  0  0  0  0  0  0  0  0  0
  141.7785   77.8765  220.1030 H   0  0  0  0  0  0  0  0  0  0  0  0
  139.3263   74.5600  220.6033 H   0  0  0  0  0  0  0  0  0  0  0  0
  140.8270   73.5802  220.3689 H   0  0  0  0  0  0  0  0  0  0  0  0
  139.5020   73.9810  223.0940 H   0  0  0  0  0  0  0  0  0  0  0  0
  139.3225   69.8827  222.5173 H   0  0  0  0  0  0  0  0  0  0  0  0
  138.8597   68.4654  224.5044 H   0  0  0  0  0  0  0  0  0  0  0  0
  139.0604   68.1919  226.9217 H   0  0  0  0  0  0  0  0  0  0  0  0
  140.9939   71.2246  229.2888 H   0  0  0  0  0  0  0  0  0  0  0  0
  141.4088   72.5672  227.2279 H   0  0  0  0  0  0  0  0  0  0  0  0
  1  2  1  0
  2  3  1  0
  3  4  1  0
  4  5  1  0
  5  6  1  0
  6  7  1  0
  6  8  1  0
  8  9  1  0
  9 10  1  0
 10 11  2  0
 10 12  1  0
 12 13  1  0
 13 14  1  0
 14 15  2  0
 14 16  1  0
 16 17  2  0
 17 18  1  0
 18 19  2  0
 19 20  1  0
 20 21  2  0
 21 22  1  0
 21 23  1  0
 23 24  2  0
 24 25  1  0
 25 26  2  0
  9  4  1  0
 26 16  1  0
 25 19  1  0
  1 27  1  0
  1 28  1  0
  1 29  1  0
  2 30  1  0
  2 31  1  0
  3 32  1  0
  3 33  1  0
  4 34  1  6
  5 35  1  0
  5 36  1  0
  6 37  1  1
  7 38  1  0
  8 39  1  0
  8 40  1  0
 12 41  1  0
 12 42  1  0
 13 43  1  0
 17 44  1  0
 18 45  1  0
 20 46  1  0
 23 47  1  0
 24 48  1  0
M  END
>  <smiles>  (18) 
CCC[C@@H]1C[C@@H](O)CN1C(=O)CNC(=O)c1ccc2cc(F)ccc2n1

>  <score_type>  (18) 
oracle

>  <origin>  (18) 
autodockgpu

>  <m_score__min__energy>  (18) 
-7.4800000000000004

>  <m_primary>  (18) 
energy

>  <rmsd>  (18) 
3.0182855952708914

>  <m_score__min__rmsd>  (18) 
3.0182855952708914

>  <meeko>  (18) 
{"free_energy": -7.2, "intermolecular_energy": -9.28, "internal_energy": -1.29, "cluster_size": 18, "cluster_id": 3, "rank_in_cluster": 6}

>  <energy>  (18) 
-6.26

>  <cluster_rmsd>  (18) 
1.63

>  <cluster>  (18) 
1

$$$$

     RDKit          3D

 48 50  0  0  0  0  0  0  0  0999 V2000
  137.2420   76.2210  222.9220 C   0  0  0  0  0  0  0  0  0  0  0  0
  137.2860   77.2780  221.8760 C   0  0  0  0  0  0  0  0  0  0  0  0
  138.6330   77.8370  221.6380 C   0  0  0  0  0  0  0  0  0  0  0  0
  139.7610   77.4080  222.4830 C   0  0  2  0  0  0  0  0  0  0  0  0
  140.6450   78.4270  223.0920 C   0  0  0  0  0  0  0  0  0  0  0  0
  141.5230   78.9610  221.9810 C   0  0  1  0  0  0  0  0  0  0  0  0
  142.8570   79.1040  222.4270 O   0  0  0  0  0  0  0  0  0  0  0  0
  141.4400   77.8570  220.9660 C   0  0  0  0  0  0  0  0  0  0  0  0
  140.7270   76.7450  221.5680 N   0  0  0  0  0  0  0  0  0  0  0  0
  140.8830   75.3490  221.3620 C   0  0  0  0  0  0  0  0  0  0  0  0
  142.0330   74.8870  221.3410 O   0  0  0  0  0  0  0  0  0  0  0  0
  139.6850   74.5180  221.1850 C   0  0  0  0  0  0  0  0  0  0  0  0
  139.4700   73.6720  222.3330 N   0  0  0  0  0  0  0  0  0  0  0  0
  140.3340   72.5320  222.4660 C   0  0  0  0  0  0  0  0  0  0  0  0
  141.2290   72.3170  221.5900 O   0  0  0  0  0  0  0  0  0  0  0  0
  140.1680   71.6360  223.6090 C   0  0  0  0  0  0  0  0  0  0  0  0
  139.4530   70.4690  223.4320 C   0  0  0  0  0  0  0  0  0  0  0  0
  139.2370   69.5540  224.4430 C   0  0  0  0  0  0  0  0  0  0  0  0
  139.7840   69.8650  225.6810 C   0  0  0  0  0  0  0  0  0  0  0  0
  139.6100   68.9950  226.7500 C   0  0  0  0  0  0  0  0  0  0  0  0
  140.1580   69.3140  227.9790 C   0  0  0  0  0  0  0  0  0  0  0  0
  139.9630   68.4370  228.9900 F   0  0  0  0  0  0  0  0  0  0  0  0
  140.8730   70.4760  228.1670 C   0  0  0  0  0  0  0  0  0  0  0  0
  141.0460   71.3440  227.1010 C   0  0  0  0  0  0  0  0  0  0  0  0
  140.5030   71.0350  225.8690 C   0  0  0  0  0  0  0  0  0  0  0  0
  140.6800   71.8980  224.8260 N   0  0  0  0  0  0  0  0  0  0  0  0
  137.2615   76.6890  223.9173 H   0  0  0  0  0  0  0  0  0  0  0  0
  136.3186   75.6336  222.8111 H   0  0  0  0  0  0  0  0  0  0  0  0
  138.1134   75.5589  222.8111 H   0  0  0  0  0  0  0  0  0  0  0  0
  136.9199   76.8459  220.9330 H   0  0  0  0  0  0  0  0  0  0  0  0
  136.6584   78.1064  222.2363 H   0  0  0  0  0  0  0  0  0  0  0  0
  138.9011   77.5921  220.5996 H   0  0  0  0  0  0  0  0  0  0  0  0
  138.5162   78.9019  221.8879 H   0  0  0  0  0  0  0  0  0  0  0  0
  139.2609   76.8536  223.2908 H   0  0  0  0  0  0  0  0  0  0  0  0
  140.0440   79.2405  223.5245 H   0  0  0  0  0  0  0  0  0  0  0  0
  141.2508   77.9927  223.9009 H   0  0  0  0  0  0  0  0  0  0  0  0
  141.2147   79.9484  221.6070 H   0  0  0  0  0  0  0  0  0  0  0  0
  143.4780   78.5390  221.8830 H   0  0  0  0  0  0  0  0  0  0  0  0
  140.8987   78.2090  220.0754 H   0  0  0  0  0  0  0  0  0  0  0  0
  142.4490   77.5428  220.6606 H   0  0  0  0  0  0  0  0  0  0  0  0
  138.8104   75.1714  221.0505 H   0  0  0  0  0  0  0  0  0  0  0  0
  139.8281   73.8798  220.3006 H   0  0  0  0  0  0  0  0  0  0  0  0
  138.7230   73.8590  223.0570 H   0  0  0  0  0  0  0  0  0  0  0  0
  139.0348   70.2575  222.4368 H   0  0  0  0  0  0  0  0  0  0  0  0
  138.6636   68.6301  224.2771 H   0  0  0  0  0  0  0  0  0  0  0  0
  139.0421   68.0619  226.6202 H   0  0  0  0  0  0  0  0  0  0  0  0
  141.3018   70.7122  229.1521 H   0  0  0  0  0  0  0  0  0  0  0  0
  141.6140   72.2764  227.2353 H   0  0  0  0  0  0  0  0  0  0  0  0
  1  2  1  0
  2  3  1  0
  3  4  1  0
  4  5  1  0
  5  6  1  0
  6  7  1  0
  6  8  1  0
  8  9  1  0
  9 10  1  0
 10 11  2  0
 10 12  1  0
 12 13  1  0
 13 14  1  0
 14 15  2  0
 14 16  1  0
 16 17  2  0
 17 18  1  0
 18 19  2  0
 19 20  1  0
 20 21  2  0
 21 22  1  0
 21 23  1  0
 23 24  2  0
 24 25  1  0
 25 26  2  0
  9  4  1  0
 26 16  1  0
 25 19  1  0
  1 27  1  0
  1 28  1  0
  1 29  1  0
  2 30  1  0
  2 31  1  0
  3 32  1  0
  3 33  1  0
  4 34  1  1
  5 35  1  0
  5 36  1  0
  6 37  1  6
  7 38  1  0
  8 39  1  0
  8 40  1  0
 12 41  1  0
 12 42  1  0
 13 43  1  0
 17 44  1  0
 18 45  1  0
 20 46  1  0
 23 47  1  0
 24 48  1  0
M  END
>  <smiles>  (19) 
CCC[C@@H]1C[C@@H](O)CN1C(=O)CNC(=O)c1ccc2cc(F)ccc2n1

>  <score_type>  (19) 
oracle

>  <origin>  (19) 
autodockgpu

>  <m_score__min__energy>  (19) 
-7.4800000000000004

>  <m_primary>  (19) 
energy

>  <rmsd>  (19) 
2.8643290162697066

>  <m_score__min__rmsd>  (19) 
2.8643290162697066

>  <meeko>  (19) 
{"free_energy": -7.23, "intermolecular_energy": -9.32, "internal_energy": -1.15, "cluster_size": 4, "cluster_id": 4, "rank_in_cluster": 1}

>  <energy>  (19) 
-6.23

>  <cluster_rmsd>  (19) 
1.63

>  <cluster>  (19) 
1

$$$$

     RDKit          3D

 48 50  0  0  0  0  0  0  0  0999 V2000
  144.9550   68.2160  219.7020 C   0  0  0  0  0  0  0  0  0  0  0  0
  143.6400   68.8910  219.5280 C   0  0  0  0  0  0  0  0  0  0  0  0
  143.5880   70.2620  220.0740 C   0  0  0  0  0  0  0  0  0  0  0  0
  143.8090   71.4130  219.1810 C   0  0  2  0  0  0  0  0  0  0  0  0
  145.1750   71.7070  218.6940 C   0  0  0  0  0  0  0  0  0  0  0  0
  145.9310   72.3110  219.8580 C   0  0  1  0  0  0  0  0  0  0  0  0
  146.7100   73.4100  219.4280 O   0  0  0  0  0  0  0  0  0  0  0  0
  144.8110   72.7930  220.7350 C   0  0  0  0  0  0  0  0  0  0  0  0
  143.5650   72.6240  220.0070 N   0  0  0  0  0  0  0  0  0  0  0  0
  142.3800   73.4030  220.0460 C   0  0  0  0  0  0  0  0  0  0  0  0
  142.4930   74.6380  220.0660 O   0  0  0  0  0  0  0  0  0  0  0  0
  141.0790   72.7200  220.0590 C   0  0  0  0  0  0  0  0  0  0  0  0
  140.9740   71.8360  221.1930 N   0  0  0  0  0  0  0  0  0  0  0  0
  140.3980   72.3850  222.3890 C   0  0  0  0  0  0  0  0  0  0  0  0
  140.0150   73.5970  222.4030 O   0  0  0  0  0  0  0  0  0  0  0  0
  140.2630   71.5390  223.5740 C   0  0  0  0  0  0  0  0  0  0  0  0
  139.6490   70.3100  223.4400 C   0  0  0  0  0  0  0  0  0  0  0  0
  139.4710   69.4350  224.4920 C   0  0  0  0  0  0  0  0  0  0  0  0
  139.9490   69.8530  225.7270 C   0  0  0  0  0  0  0  0  0  0  0  0
  139.8080   69.0280  226.8360 C   0  0  0  0  0  0  0  0  0  0  0  0
  140.2870   69.4530  228.0610 C   0  0  0  0  0  0  0  0  0  0  0  0
  140.1260   68.6170  229.1120 F   0  0  0  0  0  0  0  0  0  0  0  0
  140.9020   70.6760  228.2080 C   0  0  0  0  0  0  0  0  0  0  0  0
  141.0420   71.4990  227.1010 C   0  0  0  0  0  0  0  0  0  0  0  0
  140.5670   71.0840  225.8720 C   0  0  0  0  0  0  0  0  0  0  0  0
  140.7120   71.9040  224.7900 N   0  0  0  0  0  0  0  0  0  0  0  0
  145.1711   68.1051  220.7748 H   0  0  0  0  0  0  0  0  0  0  0  0
  144.9228   67.2230  219.2299 H   0  0  0  0  0  0  0  0  0  0  0  0
  145.7430   68.8211  219.2299 H   0  0  0  0  0  0  0  0  0  0  0  0
  143.4163   68.9392  218.4521 H   0  0  0  0  0  0  0  0  0  0  0  0
  142.9029   68.2982  220.0896 H   0  0  0  0  0  0  0  0  0  0  0  0
  142.5901   70.3905  220.5187 H   0  0  0  0  0  0  0  0  0  0  0  0
  144.4500   70.2985  220.7564 H   0  0  0  0  0  0  0  0  0  0  0  0
  143.1756   71.1712  218.3148 H   0  0  0  0  0  0  0  0  0  0  0  0
  145.6668   70.7807  218.3622 H   0  0  0  0  0  0  0  0  0  0  0  0
  145.1499   72.3970  217.8377 H   0  0  0  0  0  0  0  0  0  0  0  0
  146.6252   71.6119  220.3472 H   0  0  0  0  0  0  0  0  0  0  0  0
  146.1400   74.2220  219.2970 H   0  0  0  0  0  0  0  0  0  0  0  0
  144.7837   72.2034  221.6633 H   0  0  0  0  0  0  0  0  0  0  0  0
  144.9596   73.8509  220.9971 H   0  0  0  0  0  0  0  0  0  0  0  0
  140.2779   73.4719  220.1130 H   0  0  0  0  0  0  0  0  0  0  0  0
  140.9852   72.1245  219.1389 H   0  0  0  0  0  0  0  0  0  0  0  0
  141.2950   70.8280  221.1730 H   0  0  0  0  0  0  0  0  0  0  0  0
  139.2837   70.0136  222.4457 H   0  0  0  0  0  0  0  0  0  0  0  0
  138.9779   68.4606  224.3597 H   0  0  0  0  0  0  0  0  0  0  0  0
  139.3202   68.0467  226.7402 H   0  0  0  0  0  0  0  0  0  0  0  0
  141.2775   70.9961  229.1911 H   0  0  0  0  0  0  0  0  0  0  0  0
  141.5300   72.4797  227.2011 H   0  0  0  0  0  0  0  0  0  0  0  0
  1  2  1  0
  2  3  1  0
  3  4  1  0
  4  5  1  0
  5  6  1  0
  6  7  1  0
  6  8  1  0
  8  9  1  0
  9 10  1  0
 10 11  2  0
 10 12  1  0
 12 13  1  0
 13 14  1  0
 14 15  2  0
 14 16  1  0
 16 17  2  0
 17 18  1  0
 18 19  2  0
 19 20  1  0
 20 21  2  0
 21 22  1  0
 21 23  1  0
 23 24  2  0
 24 25  1  0
 25 26  2  0
  9  4  1  0
 26 16  1  0
 25 19  1  0
  1 27  1  0
  1 28  1  0
  1 29  1  0
  2 30  1  0
  2 31  1  0
  3 32  1  0
  3 33  1  0
  4 34  1  6
  5 35  1  0
  5 36  1  0
  6 37  1  1
  7 38  1  0
  8 39  1  0
  8 40  1  0
 12 41  1  0
 12 42  1  0
 13 43  1  0
 17 44  1  0
 18 45  1  0
 20 46  1  0
 23 47  1  0
 24 48  1  0
M  END
>  <smiles>  (20) 
CCC[C@@H]1C[C@@H](O)CN1C(=O)CNC(=O)c1ccc2cc(F)ccc2n1

>  <score_type>  (20) 
oracle

>  <origin>  (20) 
autodockgpu

>  <m_score__min__energy>  (20) 
-7.4800000000000004

>  <m_primary>  (20) 
energy

>  <rmsd>  (20) 
4.499372459137861

>  <m_score__min__rmsd>  (20) 
4.499372459137861

>  <meeko>  (20) 
{"free_energy": -7.29, "intermolecular_energy": -9.38, "internal_energy": -1.23, "cluster_size": 23, "cluster_id": 1, "rank_in_cluster": 7}

>  <energy>  (20) 
-6.23

>  <cluster_rmsd>  (20) 
1.96

>  <cluster>  (20) 
1

$$$$

     RDKit          3D

 48 50  0  0  0  0  0  0  0  0999 V2000
  141.4280   75.9900  220.9700 C   0  0  0  0  0  0  0  0  0  0  0  0
  142.2940   76.4120  219.8360 C   0  0  0  0  0  0  0  0  0  0  0  0
  143.4020   75.4800  219.5440 C   0  0  0  0  0  0  0  0  0  0  0  0
  143.5090   74.2140  220.2910 C   0  0  2  0  0  0  0  0  0  0  0  0
  144.8220   73.7930  220.8300 C   0  0  0  0  0  0  0  0  0  0  0  0
  145.6400   73.3080  219.6530 C   0  0  1  0  0  0  0  0  0  0  0  0
  146.3390   72.1260  219.9870 O   0  0  0  0  0  0  0  0  0  0  0  0
  144.5720   72.9990  218.6430 C   0  0  0  0  0  0  0  0  0  0  0  0
  143.2820   73.1330  219.2960 N   0  0  0  0  0  0  0  0  0  0  0  0
  142.0730   72.4250  219.0710 C   0  0  0  0  0  0  0  0  0  0  0  0
  142.0660   71.5460  218.1970 O   0  0  0  0  0  0  0  0  0  0  0  0
  140.8920   72.7590  219.8780 C   0  0  0  0  0  0  0  0  0  0  0  0
  140.7620   71.8600  220.9980 N   0  0  0  0  0  0  0  0  0  0  0  0
  140.4220   72.4500  222.2630 C   0  0  0  0  0  0  0  0  0  0  0  0
  140.2540   73.7070  222.3450 O   0  0  0  0  0  0  0  0  0  0  0  0
  140.2750   71.5910  223.4380 C   0  0  0  0  0  0  0  0  0  0  0  0
  139.6510   70.3700  223.2870 C   0  0  0  0  0  0  0  0  0  0  0  0
  139.4620   69.4840  224.3290 C   0  0  0  0  0  0  0  0  0  0  0  0
  139.9390   69.8850  225.5700 C   0  0  0  0  0  0  0  0  0  0  0  0
  139.7870   69.0480  226.6700 C   0  0  0  0  0  0  0  0  0  0  0  0
  140.2640   69.4560  227.9020 C   0  0  0  0  0  0  0  0  0  0  0  0
  140.0930   68.6090  228.9430 F   0  0  0  0  0  0  0  0  0  0  0  0
  140.8880   70.6730  228.0640 C   0  0  0  0  0  0  0  0  0  0  0  0
  141.0400   71.5060  226.9670 C   0  0  0  0  0  0  0  0  0  0  0  0
  140.5660   71.1090  225.7320 C   0  0  0  0  0  0  0  0  0  0  0  0
  140.7220   71.9390  224.6590 N   0  0  0  0  0  0  0  0  0  0  0  0
  141.9251   76.2322  221.9209 H   0  0  0  0  0  0  0  0  0  0  0  0
  140.4659   76.5203  220.9137 H   0  0  0  0  0  0  0  0  0  0  0  0
  141.2528   74.9055  220.9137 H   0  0  0  0  0  0  0  0  0  0  0  0
  141.6675   76.4967  218.9358 H   0  0  0  0  0  0  0  0  0  0  0  0
  142.7525   77.3689  220.1261 H   0  0  0  0  0  0  0  0  0  0  0  0
  143.3242   75.2161  218.4790 H   0  0  0  0  0  0  0  0  0  0  0  0
  144.2956   76.0388  219.8589 H   0  0  0  0  0  0  0  0  0  0  0  0
  142.8215   74.3725  221.1349 H   0  0  0  0  0  0  0  0  0  0  0  0
  145.3231   74.6437  221.3151 H   0  0  0  0  0  0  0  0  0  0  0  0
  144.7046   73.0004  221.5836 H   0  0  0  0  0  0  0  0  0  0  0  0
  146.3968   74.0294  219.3113 H   0  0  0  0  0  0  0  0  0  0  0  0
  146.1000   71.8180  220.9080 H   0  0  0  0  0  0  0  0  0  0  0  0
  144.6391   73.7043  217.8016 H   0  0  0  0  0  0  0  0  0  0  0  0
  144.6985   71.9777  218.2546 H   0  0  0  0  0  0  0  0  0  0  0  0
  140.9913   73.7885  220.2524 H   0  0  0  0  0  0  0  0  0  0  0  0
  139.9967   72.6642  219.2460 H   0  0  0  0  0  0  0  0  0  0  0  0
  140.9030   70.8150  220.9210 H   0  0  0  0  0  0  0  0  0  0  0  0
  139.2863   70.0886  222.2881 H   0  0  0  0  0  0  0  0  0  0  0  0
  138.9618   68.5151  224.1842 H   0  0  0  0  0  0  0  0  0  0  0  0
  139.2924   68.0715  226.5612 H   0  0  0  0  0  0  0  0  0  0  0  0
  141.2612   70.9801  229.0521 H   0  0  0  0  0  0  0  0  0  0  0  0
  141.5369   72.4809  227.0796 H   0  0  0  0  0  0  0  0  0  0  0  0
  1  2  1  0
  2  3  1  0
  3  4  1  0
  4  5  1  0
  5  6  1  0
  6  7  1  0
  6  8  1  0
  8  9  1  0
  9 10  1  0
 10 11  2  0
 10 12  1  0
 12 13  1  0
 13 14  1  0
 14 15  2  0
 14 16  1  0
 16 17  2  0
 17 18  1  0
 18 19  2  0
 19 20  1  0
 20 21  2  0
 21 22  1  0
 21 23  1  0
 23 24  2  0
 24 25  1  0
 25 26  2  0
  9  4  1  0
 26 16  1  0
 25 19  1  0
  1 27  1  0
  1 28  1  0
  1 29  1  0
  2 30  1  0
  2 31  1  0
  3 32  1  0
  3 33  1  0
  4 34  1  1
  5 35  1  0
  5 36  1  0
  6 37  1  6
  7 38  1  0
  8 39  1  0
  8 40  1  0
 12 41  1  0
 12 42  1  0
 13 43  1  0
 17 44  1  0
 18 45  1  0
 20 46  1  0
 23 47  1  0
 24 48  1  0
M  END
>  <smiles>  (21) 
CCC[C@@H]1C[C@@H](O)CN1C(=O)CNC(=O)c1ccc2cc(F)ccc2n1

>  <score_type>  (21) 
oracle

>  <origin>  (21) 
autodockgpu

>  <m_score__min__energy>  (21) 
-7.4800000000000004

>  <m_primary>  (21) 
energy

>  <rmsd>  (21) 
3.1355604193972324

>  <m_score__min__rmsd>  (21) 
3.1355604193972324

>  <meeko>  (21) 
{"free_energy": -7.34, "intermolecular_energy": -9.43, "internal_energy": -1.26, "cluster_size": 23, "cluster_id": 1, "rank_in_cluster": 5}

>  <energy>  (21) 
-5.97

>  <cluster_rmsd>  (21) 
1.58

>  <cluster>  (21) 
1

$$$$

     RDKit          3D

 48 50  0  0  0  0  0  0  0  0999 V2000
  141.7690   78.9270  223.2400 C   0  0  0  0  0  0  0  0  0  0  0  0
  141.9100   79.6900  221.9700 C   0  0  0  0  0  0  0  0  0  0  0  0
  141.4280   78.9680  220.7750 C   0  0  0  0  0  0  0  0  0  0  0  0
  141.9520   77.6250  220.4710 C   0  0  2  0  0  0  0  0  0  0  0  0
  142.5500   77.3580  219.1450 C   0  0  0  0  0  0  0  0  0  0  0  0
  141.4030   77.2650  218.1610 C   0  0  1  0  0  0  0  0  0  0  0  0
  141.6030   76.1900  217.2650 O   0  0  0  0  0  0  0  0  0  0  0  0
  140.2440   76.9630  219.0680 C   0  0  0  0  0  0  0  0  0  0  0  0
  140.7670   76.7300  220.4030 N   0  0  0  0  0  0  0  0  0  0  0  0
  140.2920   75.8670  221.4250 C   0  0  0  0  0  0  0  0  0  0  0  0
  140.0340   76.3610  222.5320 O   0  0  0  0  0  0  0  0  0  0  0  0
  140.1270   74.4380  221.1290 C   0  0  0  0  0  0  0  0  0  0  0  0
  139.9570   73.6770  222.3420 N   0  0  0  0  0  0  0  0  0  0  0  0
  140.3880   72.3070  222.3110 C   0  0  0  0  0  0  0  0  0  0  0  0
  140.8880   71.8300  221.2440 O   0  0  0  0  0  0  0  0  0  0  0  0
  140.2430   71.4820  223.5100 C   0  0  0  0  0  0  0  0  0  0  0  0
  139.6340   70.2500  223.3920 C   0  0  0  0  0  0  0  0  0  0  0  0
  139.4470   69.3930  224.4580 C   0  0  0  0  0  0  0  0  0  0  0  0
  139.9100   69.8360  225.6900 C   0  0  0  0  0  0  0  0  0  0  0  0
  139.7600   69.0310  226.8130 C   0  0  0  0  0  0  0  0  0  0  0  0
  140.2240   69.4810  228.0350 C   0  0  0  0  0  0  0  0  0  0  0  0
  140.0550   68.6640  229.1000 F   0  0  0  0  0  0  0  0  0  0  0  0
  140.8330   70.7090  228.1650 C   0  0  0  0  0  0  0  0  0  0  0  0
  140.9830   71.5110  227.0450 C   0  0  0  0  0  0  0  0  0  0  0  0
  140.5230   71.0720  225.8190 C   0  0  0  0  0  0  0  0  0  0  0  0
  140.6770   71.8720  224.7230 N   0  0  0  0  0  0  0  0  0  0  0  0
  141.8951   79.6093  224.0936 H   0  0  0  0  0  0  0  0  0  0  0  0
  140.7707   78.4671  223.2826 H   0  0  0  0  0  0  0  0  0  0  0  0
  142.5370   78.1407  223.2826 H   0  0  0  0  0  0  0  0  0  0  0  0
  141.3372   80.6245  222.0632 H   0  0  0  0  0  0  0  0  0  0  0  0
  142.9862   79.8637  221.8226 H   0  0  0  0  0  0  0  0  0  0  0  0
  140.3377   78.8681  220.8812 H   0  0  0  0  0  0  0  0  0  0  0  0
  141.7973   79.5813  219.9398 H   0  0  0  0  0  0  0  0  0  0  0  0
  142.7305   77.4909  221.2365 H   0  0  0  0  0  0  0  0  0  0  0  0
  143.2265   78.1780  218.8622 H   0  0  0  0  0  0  0  0  0  0  0  0
  143.1380   76.4284  219.1562 H   0  0  0  0  0  0  0  0  0  0  0  0
  141.2755   78.1649  217.5413 H   0  0  0  0  0  0  0  0  0  0  0  0
  142.2570   75.5310  217.6370 H   0  0  0  0  0  0  0  0  0  0  0  0
  139.5496   77.8160  219.0828 H   0  0  0  0  0  0  0  0  0  0  0  0
  139.7003   76.0760  218.7106 H   0  0  0  0  0  0  0  0  0  0  0  0
  139.2408   74.3023  220.4917 H   0  0  0  0  0  0  0  0  0  0  0  0
  141.0300   74.0796  220.6132 H   0  0  0  0  0  0  0  0  0  0  0  0
  139.5400   74.0820  223.2260 H   0  0  0  0  0  0  0  0  0  0  0  0
  139.2798   69.9348  222.3994 H   0  0  0  0  0  0  0  0  0  0  0  0
  138.9589   68.4145  224.3383 H   0  0  0  0  0  0  0  0  0  0  0  0
  139.2771   68.0461  226.7303 H   0  0  0  0  0  0  0  0  0  0  0  0
  141.1960   71.0493  229.1460 H   0  0  0  0  0  0  0  0  0  0  0  0
  141.4672   72.4948  227.1322 H   0  0  0  0  0  0  0  0  0  0  0  0
  1  2  1  0
  2  3  1  0
  3  4  1  0
  4  5  1  0
  5  6  1  0
  6  7  1  0
  6  8  1  0
  8  9  1  0
  9 10  1  0
 10 11  2  0
 10 12  1  0
 12 13  1  0
 13 14  1  0
 14 15  2  0
 14 16  1  0
 16 17  2  0
 17 18  1  0
 18 19  2  0
 19 20  1  0
 20 21  2  0
 21 22  1  0
 21 23  1  0
 23 24  2  0
 24 25  1  0
 25 26  2  0
  9  4  1  0
 26 16  1  0
 25 19  1  0
  1 27  1  0
  1 28  1  0
  1 29  1  0
  2 30  1  0
  2 31  1  0
  3 32  1  0
  3 33  1  0
  4 34  1  1
  5 35  1  0
  5 36  1  0
  6 37  1  6
  7 38  1  0
  8 39  1  0
  8 40  1  0
 12 41  1  0
 12 42  1  0
 13 43  1  0
 17 44  1  0
 18 45  1  0
 20 46  1  0
 23 47  1  0
 24 48  1  0
M  END
>  <smiles>  (22) 
CCC[C@@H]1C[C@@H](O)CN1C(=O)CNC(=O)c1ccc2cc(F)ccc2n1

>  <score_type>  (22) 
oracle

>  <origin>  (22) 
autodockgpu

>  <m_score__min__energy>  (22) 
-7.4800000000000004

>  <m_primary>  (22) 
energy

>  <rmsd>  (22) 
2.5965452107761524

>  <m_score__min__rmsd>  (22) 
2.5965452107761524

>  <meeko>  (22) 
{"free_energy": -6.54, "intermolecular_energy": -8.62, "internal_energy": -1.4, "cluster_size": 18, "cluster_id": 3, "rank_in_cluster": 18}

>  <energy>  (22) 
-5.86

>  <cluster_rmsd>  (22) 
1.61

>  <cluster>  (22) 
1

$$$$

     RDKit          3D

 48 50  0  0  0  0  0  0  0  0999 V2000
  142.1750   77.6260  219.2500 C   0  0  0  0  0  0  0  0  0  0  0  0
  142.2570   76.3960  220.0840 C   0  0  0  0  0  0  0  0  0  0  0  0
  143.3720   75.4960  219.7230 C   0  0  0  0  0  0  0  0  0  0  0  0
  143.5490   74.2250  220.4480 C   0  0  2  0  0  0  0  0  0  0  0  0
  144.9010   73.8190  220.8890 C   0  0  0  0  0  0  0  0  0  0  0  0
  145.6410   73.3560  219.6520 C   0  0  1  0  0  0  0  0  0  0  0  0
  146.3790   72.1810  219.9250 O   0  0  0  0  0  0  0  0  0  0  0  0
  144.5080   73.0400  218.7170 C   0  0  0  0  0  0  0  0  0  0  0  0
  143.2660   73.1500  219.4620 N   0  0  0  0  0  0  0  0  0  0  0  0
  142.0540   72.4260  219.3160 C   0  0  0  0  0  0  0  0  0  0  0  0
  142.0120   71.5250  218.4650 O   0  0  0  0  0  0  0  0  0  0  0  0
  140.9120   72.7710  220.1720 C   0  0  0  0  0  0  0  0  0  0  0  0
  140.8180   71.8690  221.2930 N   0  0  0  0  0  0  0  0  0  0  0  0
  140.2930   72.4120  222.5160 C   0  0  0  0  0  0  0  0  0  0  0  0
  139.9430   73.6330  222.5620 O   0  0  0  0  0  0  0  0  0  0  0  0
  140.1720   71.5480  223.6900 C   0  0  0  0  0  0  0  0  0  0  0  0
  139.5160   70.3420  223.5550 C   0  0  0  0  0  0  0  0  0  0  0  0
  139.3470   69.4520  224.5960 C   0  0  0  0  0  0  0  0  0  0  0  0
  139.8790   69.8330  225.8210 C   0  0  0  0  0  0  0  0  0  0  0  0
  139.7500   68.9920  226.9200 C   0  0  0  0  0  0  0  0  0  0  0  0
  140.2830   69.3790  228.1360 C   0  0  0  0  0  0  0  0  0  0  0  0
  140.1320   68.5280  229.1770 F   0  0  0  0  0  0  0  0  0  0  0  0
  140.9400   70.5800  228.2820 C   0  0  0  0  0  0  0  0  0  0  0  0
  141.0680   71.4180  227.1860 C   0  0  0  0  0  0  0  0  0  0  0  0
  140.5400   71.0420  225.9670 C   0  0  0  0  0  0  0  0  0  0  0  0
  140.6730   71.8770  224.8950 N   0  0  0  0  0  0  0  0  0  0  0  0
  142.1161   78.5089  219.9035 H   0  0  0  0  0  0  0  0  0  0  0  0
  143.0703   77.6988  218.6150 H   0  0  0  0  0  0  0  0  0  0  0  0
  141.2780   77.5794  218.6150 H   0  0  0  0  0  0  0  0  0  0  0  0
  142.3831   76.6983  221.1341 H   0  0  0  0  0  0  0  0  0  0  0  0
  141.3272   75.8338  219.9127 H   0  0  0  0  0  0  0  0  0  0  0  0
  143.2455   75.2420  218.6602 H   0  0  0  0  0  0  0  0  0  0  0  0
  144.2667   76.0740  219.9976 H   0  0  0  0  0  0  0  0  0  0  0  0
  142.9209   74.3661  221.3400 H   0  0  0  0  0  0  0  0  0  0  0  0
  145.4231   74.6726  221.3459 H   0  0  0  0  0  0  0  0  0  0  0  0
  144.8481   73.0184  221.6415 H   0  0  0  0  0  0  0  0  0  0  0  0
  146.3617   74.0911  219.2643 H   0  0  0  0  0  0  0  0  0  0  0  0
  146.2080   71.8610  220.8570 H   0  0  0  0  0  0  0  0  0  0  0  0
  144.5052   73.7533  217.8796 H   0  0  0  0  0  0  0  0  0  0  0  0
  144.6206   72.0241  218.3105 H   0  0  0  0  0  0  0  0  0  0  0  0
  141.0392   73.7978  220.5456 H   0  0  0  0  0  0  0  0  0  0  0  0
  139.9901   72.6899  219.5775 H   0  0  0  0  0  0  0  0  0  0  0  0
  141.1110   70.8550  221.2460 H   0  0  0  0  0  0  0  0  0  0  0  0
  139.1074   70.0766  222.5688 H   0  0  0  0  0  0  0  0  0  0  0  0
  138.8208   68.4952  224.4631 H   0  0  0  0  0  0  0  0  0  0  0  0
  139.2290   68.0280  226.8235 H   0  0  0  0  0  0  0  0  0  0  0  0
  141.3583   70.8708  229.2569 H   0  0  0  0  0  0  0  0  0  0  0  0
  141.5894   72.3813  227.2870 H   0  0  0  0  0  0  0  0  0  0  0  0
  1  2  1  0
  2  3  1  0
  3  4  1  0
  4  5  1  0
  5  6  1  0
  6  7  1  0
  6  8  1  0
  8  9  1  0
  9 10  1  0
 10 11  2  0
 10 12  1  0
 12 13  1  0
 13 14  1  0
 14 15  2  0
 14 16  1  0
 16 17  2  0
 17 18  1  0
 18 19  2  0
 19 20  1  0
 20 21  2  0
 21 22  1  0
 21 23  1  0
 23 24  2  0
 24 25  1  0
 25 26  2  0
  9  4  1  0
 26 16  1  0
 25 19  1  0
  1 27  1  0
  1 28  1  0
  1 29  1  0
  2 30  1  0
  2 31  1  0
  3 32  1  0
  3 33  1  0
  4 34  1  1
  5 35  1  0
  5 36  1  0
  6 37  1  6
  7 38  1  0
  8 39  1  0
  8 40  1  0
 12 41  1  0
 12 42  1  0
 13 43  1  0
 17 44  1  0
 18 45  1  0
 20 46  1  0
 23 47  1  0
 24 48  1  0
M  END
>  <smiles>  (23) 
CCC[C@@H]1C[C@@H](O)CN1C(=O)CNC(=O)c1ccc2cc(F)ccc2n1

>  <score_type>  (23) 
oracle

>  <origin>  (23) 
autodockgpu

>  <m_score__min__energy>  (23) 
-7.4800000000000004

>  <m_primary>  (23) 
energy

>  <rmsd>  (23) 
3.164888801033707

>  <m_score__min__rmsd>  (23) 
3.164888801033707

>  <meeko>  (23) 
{"free_energy": -7.44, "intermolecular_energy": -9.53, "internal_energy": -1.12, "cluster_size": 23, "cluster_id": 1, "rank_in_cluster": 3}

>  <energy>  (23) 
-5.43

>  <cluster_rmsd>  (23) 
1.74

>  <cluster>  (23) 
1

$$$$

     RDKit          3D

 48 50  0  0  0  0  0  0  0  0999 V2000
  146.1090   73.3080  221.1150 C   0  0  0  0  0  0  0  0  0  0  0  0
  144.9960   73.4530  220.1380 C   0  0  0  0  0  0  0  0  0  0  0  0
  144.0410   74.5320  220.4650 C   0  0  0  0  0  0  0  0  0  0  0  0
  142.8340   74.7140  219.6400 C   0  0  2  0  0  0  0  0  0  0  0  0
  142.9430   75.3800  218.3230 C   0  0  0  0  0  0  0  0  0  0  0  0
  143.1270   76.8570  218.5960 C   0  0  1  0  0  0  0  0  0  0  0  0
  142.3420   77.6280  217.7090 O   0  0  0  0  0  0  0  0  0  0  0  0
  142.5870   76.9810  219.9930 C   0  0  0  0  0  0  0  0  0  0  0  0
  141.9940   75.7070  220.3600 N   0  0  0  0  0  0  0  0  0  0  0  0
  140.8830   75.4330  221.1990 C   0  0  0  0  0  0  0  0  0  0  0  0
  140.6070   76.2520  222.0880 O   0  0  0  0  0  0  0  0  0  0  0  0
  140.1130   74.2010  220.9800 C   0  0  0  0  0  0  0  0  0  0  0  0
  139.9130   73.4910  222.2190 N   0  0  0  0  0  0  0  0  0  0  0  0
  140.4370   72.1550  222.2890 C   0  0  0  0  0  0  0  0  0  0  0  0
  141.0390   71.6630  221.2830 O   0  0  0  0  0  0  0  0  0  0  0  0
  140.2680   71.3820  223.5190 C   0  0  0  0  0  0  0  0  0  0  0  0
  139.6510   70.1500  223.4420 C   0  0  0  0  0  0  0  0  0  0  0  0
  139.4410   69.3400  224.5400 C   0  0  0  0  0  0  0  0  0  0  0  0
  139.8890   69.8300  225.7590 C   0  0  0  0  0  0  0  0  0  0  0  0
  139.7160   69.0740  226.9130 C   0  0  0  0  0  0  0  0  0  0  0  0
  140.1650   69.5710  228.1220 C   0  0  0  0  0  0  0  0  0  0  0  0
  139.9730   68.8000  229.2170 F   0  0  0  0  0  0  0  0  0  0  0  0
  140.7820   70.7980  228.2110 C   0  0  0  0  0  0  0  0  0  0  0  0
  140.9550   71.5520  227.0610 C   0  0  0  0  0  0  0  0  0  0  0  0
  140.5100   71.0660  225.8470 C   0  0  0  0  0  0  0  0  0  0  0  0
  140.6870   71.8180  224.7210 N   0  0  0  0  0  0  0  0  0  0  0  0
  145.7080   73.3602  222.1380 H   0  0  0  0  0  0  0  0  0  0  0  0
  146.6048   72.3377  220.9646 H   0  0  0  0  0  0  0  0  0  0  0  0
  146.8369   74.1189  220.9646 H   0  0  0  0  0  0  0  0  0  0  0  0
  145.4298   73.6639  219.1494 H   0  0  0  0  0  0  0  0  0  0  0  0
  144.4291   72.5106  220.1618 H   0  0  0  0  0  0  0  0  0  0  0  0
  143.6992   74.3539  221.4953 H   0  0  0  0  0  0  0  0  0  0  0  0
  144.6185   75.4497  220.2796 H   0  0  0  0  0  0  0  0  0  0  0  0
  142.4933   73.6805  219.4796 H   0  0  0  0  0  0  0  0  0  0  0  0
  143.8082   74.9862  217.7696 H   0  0  0  0  0  0  0  0  0  0  0  0
  142.0456   75.1994  217.7130 H   0  0  0  0  0  0  0  0  0  0  0  0
  144.1634   77.2050  218.4744 H   0  0  0  0  0  0  0  0  0  0  0  0
  142.8970   78.3230  217.2510 H   0  0  0  0  0  0  0  0  0  0  0  0
  143.4032   77.2268  220.6882 H   0  0  0  0  0  0  0  0  0  0  0  0
  141.8338   77.7811  220.0418 H   0  0  0  0  0  0  0  0  0  0  0  0
  139.1336   74.4600  220.5514 H   0  0  0  0  0  0  0  0  0  0  0  0
  140.6753   73.5534  220.2912 H   0  0  0  0  0  0  0  0  0  0  0  0
  139.4110   73.9080  223.0510 H   0  0  0  0  0  0  0  0  0  0  0  0
  139.3099   69.7962  222.4579 H   0  0  0  0  0  0  0  0  0  0  0  0
  138.9464   68.3612  224.4537 H   0  0  0  0  0  0  0  0  0  0  0  0
  139.2266   68.0901  226.8642 H   0  0  0  0  0  0  0  0  0  0  0  0
  141.1334   71.1755  229.1826 H   0  0  0  0  0  0  0  0  0  0  0  0
  141.4455   72.5351  227.1149 H   0  0  0  0  0  0  0  0  0  0  0  0
  1  2  1  0
  2  3  1  0
  3  4  1  0
  4  5  1  0
  5  6  1  0
  6  7  1  0
  6  8  1  0
  8  9  1  0
  9 10  1  0
 10 11  2  0
 10 12  1  0
 12 13  1  0
 13 14  1  0
 14 15  2  0
 14 16  1  0
 16 17  2  0
 17 18  1  0
 18 19  2  0
 19 20  1  0
 20 21  2  0
 21 22  1  0
 21 23  1  0
 23 24  2  0
 24 25  1  0
 25 26  2  0
  9  4  1  0
 26 16  1  0
 25 19  1  0
  1 27  1  0
  1 28  1  0
  1 29  1  0
  2 30  1  0
  2 31  1  0
  3 32  1  0
  3 33  1  0
  4 34  1  6
  5 35  1  0
  5 36  1  0
  6 37  1  1
  7 38  1  0
  8 39  1  0
  8 40  1  0
 12 41  1  0
 12 42  1  0
 13 43  1  0
 17 44  1  0
 18 45  1  0
 20 46  1  0
 23 47  1  0
 24 48  1  0
M  END
>  <smiles>  (24) 
CCC[C@@H]1C[C@@H](O)CN1C(=O)CNC(=O)c1ccc2cc(F)ccc2n1

>  <score_type>  (24) 
oracle

>  <origin>  (24) 
autodockgpu

>  <m_score__min__energy>  (24) 
-7.4800000000000004

>  <m_primary>  (24) 
energy

>  <rmsd>  (24) 
3.0136782575417373

>  <m_score__min__rmsd>  (24) 
3.0136782575417373

>  <meeko>  (24) 
{"free_energy": -7.21, "intermolecular_energy": -9.3, "internal_energy": -1.25, "cluster_size": 18, "cluster_id": 3, "rank_in_cluster": 4}

>  <energy>  (24) 
-7.38

>  <cluster_rmsd>  (24) 
0.0

>  <cluster>  (24) 
2

$$$$

     RDKit          3D

 48 50  0  0  0  0  0  0  0  0999 V2000
  141.1050   71.8800  228.3390 C   0  0  0  0  0  0  0  0  0  0  0  0
  141.4660   72.0580  226.9060 C   0  0  0  0  0  0  0  0  0  0  0  0
  140.9450   71.0010  226.0160 C   0  0  0  0  0  0  0  0  0  0  0  0
  139.5870   70.4690  226.2300 C   0  0  2  0  0  0  0  0  0  0  0  0
  139.3780   69.3670  227.1940 C   0  0  0  0  0  0  0  0  0  0  0  0
  139.8980   68.1080  226.5350 C   0  0  1  0  0  0  0  0  0  0  0  0
  139.0160   67.0270  226.7620 O   0  0  0  0  0  0  0  0  0  0  0  0
  139.8720   68.4890  225.0820 C   0  0  0  0  0  0  0  0  0  0  0  0
  139.2160   69.7790  224.9670 N   0  0  0  0  0  0  0  0  0  0  0  0
  138.4080   70.2950  223.9200 C   0  0  0  0  0  0  0  0  0  0  0  0
  137.1960   70.4420  224.1370 O   0  0  0  0  0  0  0  0  0  0  0  0
  139.0360   70.6330  222.6360 C   0  0  0  0  0  0  0  0  0  0  0  0
  139.2980   72.0480  222.5470 N   0  0  0  0  0  0  0  0  0  0  0  0
  140.3360   72.4560  221.6410 C   0  0  0  0  0  0  0  0  0  0  0  0
  140.9680   71.5790  220.9730 O   0  0  0  0  0  0  0  0  0  0  0  0
  140.6490   73.8780  221.5050 C   0  0  0  0  0  0  0  0  0  0  0  0
  141.6850   74.2470  220.6710 C   0  0  0  0  0  0  0  0  0  0  0  0
  142.0630   75.5590  220.4690 C   0  0  0  0  0  0  0  0  0  0  0  0
  141.3370   76.5200  221.1610 C   0  0  0  0  0  0  0  0  0  0  0  0
  141.6560   77.8650  221.0120 C   0  0  0  0  0  0  0  0  0  0  0  0
  140.9290   78.8140  221.7050 C   0  0  0  0  0  0  0  0  0  0  0  0
  141.2760   80.1100  221.5300 F   0  0  0  0  0  0  0  0  0  0  0  0
  139.8930   78.4580  222.5410 C   0  0  0  0  0  0  0  0  0  0  0  0
  139.5750   77.1170  222.6890 C   0  0  0  0  0  0  0  0  0  0  0  0
  140.2960   76.1600  222.0010 C   0  0  0  0  0  0  0  0  0  0  0  0
  139.9720   74.8430  222.1560 N   0  0  0  0  0  0  0  0  0  0  0  0
  141.9116   72.2777  228.9725 H   0  0  0  0  0  0  0  0  0  0  0  0
  140.1711   72.4209  228.5518 H   0  0  0  0  0  0  0  0  0  0  0  0
  140.9655   70.8098  228.5518 H   0  0  0  0  0  0  0  0  0  0  0  0
  141.0646   73.0242  226.5663 H   0  0  0  0  0  0  0  0  0  0  0  0
  142.5633   72.0089  226.8474 H   0  0  0  0  0  0  0  0  0  0  0  0
  140.9721   71.4037  224.9927 H   0  0  0  0  0  0  0  0  0  0  0  0
  141.5943   70.1402  226.2338 H   0  0  0  0  0  0  0  0  0  0  0  0
  139.0355   71.3513  226.5869 H   0  0  0  0  0  0  0  0  0  0  0  0
  139.9328   69.5656  228.1228 H   0  0  0  0  0  0  0  0  0  0  0  0
  138.3142   69.2663  227.4552 H   0  0  0  0  0  0  0  0  0  0  0  0
  140.8826   67.7872  226.9060 H   0  0  0  0  0  0  0  0  0  0  0  0
  139.4940   66.2590  227.1900 H   0  0  0  0  0  0  0  0  0  0  0  0
  140.8997   68.5573  224.6958 H   0  0  0  0  0  0  0  0  0  0  0  0
  139.3287   67.7312  224.4984 H   0  0  0  0  0  0  0  0  0  0  0  0
  139.9852   70.0847  222.5441 H   0  0  0  0  0  0  0  0  0  0  0  0
  138.3490   70.3515  221.8244 H   0  0  0  0  0  0  0  0  0  0  0  0
  138.7670   72.7710  223.1060 H   0  0  0  0  0  0  0  0  0  0  0  0
  142.2366   73.4564  220.1412 H   0  0  0  0  0  0  0  0  0  0  0  0
  142.8921   75.8283  219.7981 H   0  0  0  0  0  0  0  0  0  0  0  0
  142.4789   78.1706  220.3491 H   0  0  0  0  0  0  0  0  0  0  0  0
  139.3256   79.2282  223.0840 H   0  0  0  0  0  0  0  0  0  0  0  0
  138.7509   76.8155  223.3523 H   0  0  0  0  0  0  0  0  0  0  0  0
  1  2  1  0
  2  3  1  0
  3  4  1  0
  4  5  1  0
  5  6  1  0
  6  7  1  0
  6  8  1  0
  8  9  1  0
  9 10  1  0
 10 11  2  0
 10 12  1  0
 12 13  1  0
 13 14  1  0
 14 15  2  0
 14 16  1  0
 16 17  2  0
 17 18  1  0
 18 19  2  0
 19 20  1  0
 20 21  2  0
 21 22  1  0
 21 23  1  0
 23 24  2  0
 24 25  1  0
 25 26  2  0
  9  4  1  0
 26 16  1  0
 25 19  1  0
  1 27  1  0
  1 28  1  0
  1 29  1  0
  2 30  1  0
  2 31  1  0
  3 32  1  0
  3 33  1  0
  4 34  1  1
  5 35  1  0
  5 36  1  0
  6 37  1  1
  7 38  1  0
  8 39  1  0
  8 40  1  0
 12 41  1  0
 12 42  1  0
 13 43  1  0
 17 44  1  0
 18 45  1  0
 20 46  1  0
 23 47  1  0
 24 48  1  0
M  END
>  <smiles>  (25) 
CCC[C@@H]1C[C@@H](O)CN1C(=O)CNC(=O)c1ccc2cc(F)ccc2n1

>  <score_type>  (25) 
oracle

>  <origin>  (25) 
autodockgpu

>  <m_score__min__energy>  (25) 
-7.4800000000000004

>  <m_primary>  (25) 
energy

>  <rmsd>  (25) 
8.320256636068763

>  <m_score__min__rmsd>  (25) 
8.320256636068763

>  <meeko>  (25) 
{"free_energy": -7.38, "intermolecular_energy": -9.47, "internal_energy": -1.32, "cluster_size": 2, "cluster_id": 2, "rank_in_cluster": 1}

>  <energy>  (25) 
-7.02

>  <cluster_rmsd>  (25) 
1.03

>  <cluster>  (25) 
2

$$$$

     RDKit          3D

 48 50  0  0  0  0  0  0  0  0999 V2000
  142.9740   80.6270  223.8850 C   0  0  0  0  0  0  0  0  0  0  0  0
  141.9440   80.5600  222.8130 C   0  0  0  0  0  0  0  0  0  0  0  0
  140.7280   79.8110  223.1890 C   0  0  0  0  0  0  0  0  0  0  0  0
  140.5870   78.4000  222.7900 C   0  0  2  0  0  0  0  0  0  0  0  0
  141.4490   77.8540  221.7190 C   0  0  0  0  0  0  0  0  0  0  0  0
  140.9200   78.4030  220.4110 C   0  0  1  0  0  0  0  0  0  0  0  0
  140.9010   77.3950  219.4200 O   0  0  0  0  0  0  0  0  0  0  0  0
  139.5130   78.7770  220.7830 C   0  0  0  0  0  0  0  0  0  0  0  0
  139.2600   78.2940  222.1290 N   0  0  0  0  0  0  0  0  0  0  0  0
  138.0530   77.8250  222.7120 C   0  0  0  0  0  0  0  0  0  0  0  0
  137.2830   78.6590  223.2110 O   0  0  0  0  0  0  0  0  0  0  0  0
  137.7700   76.3840  222.6990 C   0  0  0  0  0  0  0  0  0  0  0  0
  138.9900   75.6200  222.6050 N   0  0  0  0  0  0  0  0  0  0  0  0
  139.4170   75.2450  221.2850 C   0  0  0  0  0  0  0  0  0  0  0  0
  138.7210   75.5900  220.2790 O   0  0  0  0  0  0  0  0  0  0  0  0
  140.6460   74.4700  221.1230 C   0  0  0  0  0  0  0  0  0  0  0  0
  140.5970   73.1070  221.3310 C   0  0  0  0  0  0  0  0  0  0  0  0
  141.6970   72.2830  221.2040 C   0  0  0  0  0  0  0  0  0  0  0  0
  142.8890   72.9000  220.8480 C   0  0  0  0  0  0  0  0  0  0  0  0
  144.0420   72.1390  220.6990 C   0  0  0  0  0  0  0  0  0  0  0  0
  145.2240   72.7620  220.3450 C   0  0  0  0  0  0  0  0  0  0  0  0
  146.3210   71.9810  220.2130 F   0  0  0  0  0  0  0  0  0  0  0  0
  145.2850   74.1220  220.1340 C   0  0  0  0  0  0  0  0  0  0  0  0
  144.1350   74.8810  220.2820 C   0  0  0  0  0  0  0  0  0  0  0  0
  142.9480   74.2680  220.6360 C   0  0  0  0  0  0  0  0  0  0  0  0
  141.8220   75.0270  220.7790 N   0  0  0  0  0  0  0  0  0  0  0  0
  142.4823   80.5950  224.8685 H   0  0  0  0  0  0  0  0  0  0  0  0
  143.6588   79.7715  223.7895 H   0  0  0  0  0  0  0  0  0  0  0  0
  143.5422   81.5640  223.7895 H   0  0  0  0  0  0  0  0  0  0  0  0
  141.6498   81.5874  222.5524 H   0  0  0  0  0  0  0  0  0  0  0  0
  142.3997   80.0207  221.9695 H   0  0  0  0  0  0  0  0  0  0  0  0
  140.6621   79.8402  224.2866 H   0  0  0  0  0  0  0  0  0  0  0  0
  139.9308   80.3174  222.6250 H   0  0  0  0  0  0  0  0  0  0  0  0
  140.8099   77.8622  223.7233 H   0  0  0  0  0  0  0  0  0  0  0  0
  142.4904   78.1740  221.8707 H   0  0  0  0  0  0  0  0  0  0  0  0
  141.4333   76.7541  221.7212 H   0  0  0  0  0  0  0  0  0  0  0  0
  141.5198   79.2289  220.0009 H   0  0  0  0  0  0  0  0  0  0  0  0
  140.6130   76.5180  219.8070 H   0  0  0  0  0  0  0  0  0  0  0  0
  139.3967   79.8704  220.7510 H   0  0  0  0  0  0  0  0  0  0  0  0
  138.7993   78.3286  220.0762 H   0  0  0  0  0  0  0  0  0  0  0  0
  137.2453   76.1118  223.6267 H   0  0  0  0  0  0  0  0  0  0  0  0
  137.1450   76.1568  221.8228 H   0  0  0  0  0  0  0  0  0  0  0  0
  139.5620   75.3380  223.4480 H   0  0  0  0  0  0  0  0  0  0  0  0
  139.6343   72.6549  221.6117 H   0  0  0  0  0  0  0  0  0  0  0  0
  141.6330   71.1983  221.3752 H   0  0  0  0  0  0  0  0  0  0  0  0
  144.0144   71.0514  220.8612 H   0  0  0  0  0  0  0  0  0  0  0  0
  146.2348   74.5996  219.8515 H   0  0  0  0  0  0  0  0  0  0  0  0
  144.1668   75.9683  220.1182 H   0  0  0  0  0  0  0  0  0  0  0  0
  1  2  1  0
  2  3  1  0
  3  4  1  0
  4  5  1  0
  5  6  1  0
  6  7  1  0
  6  8  1  0
  8  9  1  0
  9 10  1  0
 10 11  2  0
 10 12  1  0
 12 13  1  0
 13 14  1  0
 14 15  2  0
 14 16  1  0
 16 17  2  0
 17 18  1  0
 18 19  2  0
 19 20  1  0
 20 21  2  0
 21 22  1  0
 21 23  1  0
 23 24  2  0
 24 25  1  0
 25 26  2  0
  9  4  1  0
 26 16  1  0
 25 19  1  0
  1 27  1  0
  1 28  1  0
  1 29  1  0
  2 30  1  0
  2 31  1  0
  3 32  1  0
  3 33  1  0
  4 34  1  1
  5 35  1  0
  5 36  1  0
  6 37  1  6
  7 38  1  0
  8 39  1  0
  8 40  1  0
 12 41  1  0
 12 42  1  0
 13 43  1  0
 17 44  1  0
 18 45  1  0
 20 46  1  0
 23 47  1  0
 24 48  1  0
M  END
>  <smiles>  (26) 
CCC[C@@H]1C[C@@H](O)CN1C(=O)CNC(=O)c1ccc2cc(F)ccc2n1

>  <score_type>  (26) 
oracle

>  <origin>  (26) 
autodockgpu

>  <m_score__min__energy>  (26) 
-7.4800000000000004

>  <m_primary>  (26) 
energy

>  <rmsd>  (26) 
6.212322001373024

>  <m_score__min__rmsd>  (26) 
6.212322001373024

>  <meeko>  (26) 
{"free_energy": -5.16, "intermolecular_energy": -7.24, "internal_energy": -2.96, "cluster_size": 2, "cluster_id": 6, "rank_in_cluster": 1}

>  <energy>  (26) 
-7.3

>  <cluster_rmsd>  (26) 
0.0

>  <cluster>  (26) 
3

$$$$

     RDKit          3D

 48 50  0  0  0  0  0  0  0  0999 V2000
  146.3260   73.4320  221.6160 C   0  0  0  0  0  0  0  0  0  0  0  0
  145.7120   73.6020  220.2710 C   0  0  0  0  0  0  0  0  0  0  0  0
  144.3460   74.1630  220.2980 C   0  0  0  0  0  0  0  0  0  0  0  0
  143.2420   73.3720  220.8700 C   0  0  2  0  0  0  0  0  0  0  0  0
  143.1910   71.9120  220.6330 C   0  0  0  0  0  0  0  0  0  0  0  0
  142.7470   71.7190  219.1990 C   0  0  1  0  0  0  0  0  0  0  0  0
  141.8000   70.6740  219.1090 O   0  0  0  0  0  0  0  0  0  0  0  0
  142.0830   73.0340  218.9040 C   0  0  0  0  0  0  0  0  0  0  0  0
  142.0180   73.7930  220.1400 N   0  0  0  0  0  0  0  0  0  0  0  0
  141.0390   74.7200  220.5840 C   0  0  0  0  0  0  0  0  0  0  0  0
  141.3590   75.9160  220.6560 O   0  0  0  0  0  0  0  0  0  0  0  0
  139.7000   74.2290  220.9340 C   0  0  0  0  0  0  0  0  0  0  0  0
  139.7250   73.5130  222.1860 N   0  0  0  0  0  0  0  0  0  0  0  0
  139.9390   72.0940  222.1130 C   0  0  0  0  0  0  0  0  0  0  0  0
  140.0930   71.5390  220.9810 O   0  0  0  0  0  0  0  0  0  0  0  0
  139.9760   71.3110  223.3480 C   0  0  0  0  0  0  0  0  0  0  0  0
  139.5000   70.0160  223.3210 C   0  0  0  0  0  0  0  0  0  0  0  0
  139.4890   69.1920  224.4270 C   0  0  0  0  0  0  0  0  0  0  0  0
  139.9900   69.7340  225.6030 C   0  0  0  0  0  0  0  0  0  0  0  0
  140.0140   68.9670  226.7620 C   0  0  0  0  0  0  0  0  0  0  0  0
  140.5150   69.5160  227.9270 C   0  0  0  0  0  0  0  0  0  0  0  0
  140.5160   68.7320  229.0300 F   0  0  0  0  0  0  0  0  0  0  0  0
  140.9920   70.8070  227.9670 C   0  0  0  0  0  0  0  0  0  0  0  0
  140.9690   71.5720  226.8110 C   0  0  0  0  0  0  0  0  0  0  0  0
  140.4700   71.0330  225.6410 C   0  0  0  0  0  0  0  0  0  0  0  0
  140.4530   71.7970  224.5090 N   0  0  0  0  0  0  0  0  0  0  0  0
  145.5740   73.6402  222.3913 H   0  0  0  0  0  0  0  0  0  0  0  0
  146.6893   72.3995  221.7254 H   0  0  0  0  0  0  0  0  0  0  0  0
  147.1686   74.1307  221.7254 H   0  0  0  0  0  0  0  0  0  0  0  0
  146.3509   74.2768  219.6824 H   0  0  0  0  0  0  0  0  0  0  0  0
  145.6337   72.5978  219.8289 H   0  0  0  0  0  0  0  0  0  0  0  0
  144.3975   75.1000  220.8719 H   0  0  0  0  0  0  0  0  0  0  0  0
  144.0803   74.2403  219.2334 H   0  0  0  0  0  0  0  0  0  0  0  0
  143.3553   73.5450  221.9504 H   0  0  0  0  0  0  0  0  0  0  0  0
  144.1861   71.4684  220.7846 H   0  0  0  0  0  0  0  0  0  0  0  0
  142.4966   71.4220  221.3314 H   0  0  0  0  0  0  0  0  0  0  0  0
  143.5650   71.4559  218.5122 H   0  0  0  0  0  0  0  0  0  0  0  0
  140.9700   70.8980  219.6210 H   0  0  0  0  0  0  0  0  0  0  0  0
  142.6692   73.5884  218.1563 H   0  0  0  0  0  0  0  0  0  0  0  0
  141.0716   72.8693  218.5040 H   0  0  0  0  0  0  0  0  0  0  0  0
  139.0144   75.0846  221.0221 H   0  0  0  0  0  0  0  0  0  0  0  0
  139.3596   73.5435  220.1440 H   0  0  0  0  0  0  0  0  0  0  0  0
  139.5970   73.9830  223.1240 H   0  0  0  0  0  0  0  0  0  0  0  0
  139.1103   69.6216  222.3709 H   0  0  0  0  0  0  0  0  0  0  0  0
  139.1046   68.1624  224.3800 H   0  0  0  0  0  0  0  0  0  0  0  0
  139.6380   67.9333  226.7519 H   0  0  0  0  0  0  0  0  0  0  0  0
  141.3864   71.2262  228.9044 H   0  0  0  0  0  0  0  0  0  0  0  0
  141.3469   72.6049  226.8254 H   0  0  0  0  0  0  0  0  0  0  0  0
  1  2  1  0
  2  3  1  0
  3  4  1  0
  4  5  1  0
  5  6  1  0
  6  7  1  0
  6  8  1  0
  8  9  1  0
  9 10  1  0
 10 11  2  0
 10 12  1  0
 12 13  1  0
 13 14  1  0
 14 15  2  0
 14 16  1  0
 16 17  2  0
 17 18  1  0
 18 19  2  0
 19 20  1  0
 20 21  2  0
 21 22  1  0
 21 23  1  0
 23 24  2  0
 24 25  1  0
 25 26  2  0
  9  4  1  0
 26 16  1  0
 25 19  1  0
  1 27  1  0
  1 28  1  0
  1 29  1  0
  2 30  1  0
  2 31  1  0
  3 32  1  0
  3 33  1  0
  4 34  1  1
  5 35  1  0
  5 36  1  0
  6 37  1  6
  7 38  1  0
  8 39  1  0
  8 40  1  0
 12 41  1  0
 12 42  1  0
 13 43  1  0
 17 44  1  0
 18 45  1  0
 20 46  1  0
 23 47  1  0
 24 48  1  0
M  END
>  <smiles>  (27) 
CCC[C@@H]1C[C@@H](O)CN1C(=O)CNC(=O)c1ccc2cc(F)ccc2n1

>  <score_type>  (27) 
oracle

>  <origin>  (27) 
autodockgpu

>  <m_score__min__energy>  (27) 
-7.4800000000000004

>  <m_primary>  (27) 
energy

>  <rmsd>  (27) 
3.0928693495845194

>  <m_score__min__rmsd>  (27) 
3.0928693495845194

>  <meeko>  (27) 
{"free_energy": -6.33, "intermolecular_energy": -8.42, "internal_energy": -2.29, "cluster_size": 23, "cluster_id": 1, "rank_in_cluster": 17}

>  <energy>  (27) 
-7.28

>  <cluster_rmsd>  (27) 
0.42

>  <cluster>  (27) 
3

$$$$

     RDKit          3D

 48 50  0  0  0  0  0  0  0  0999 V2000
  142.5570   78.7840  217.9470 C   0  0  0  0  0  0  0  0  0  0  0  0
  142.5660   77.5280  218.7450 C   0  0  0  0  0  0  0  0  0  0  0  0
  141.5920   77.5120  219.8550 C   0  0  0  0  0  0  0  0  0  0  0  0
  140.6760   76.3680  220.0070 C   0  0  2  0  0  0  0  0  0  0  0  0
  139.3660   76.5640  220.6650 C   0  0  0  0  0  0  0  0  0  0  0  0
  139.6390   76.6970  222.1480 C   0  0  1  0  0  0  0  0  0  0  0  0
  138.6870   75.9660  222.8960 O   0  0  0  0  0  0  0  0  0  0  0  0
  140.9890   76.0490  222.2700 C   0  0  0  0  0  0  0  0  0  0  0  0
  141.3210   75.4560  220.9870 N   0  0  0  0  0  0  0  0  0  0  0  0
  142.0750   74.2890  220.6960 C   0  0  0  0  0  0  0  0  0  0  0  0
  143.3110   74.3620  220.7600 O   0  0  0  0  0  0  0  0  0  0  0  0
  141.3660   73.0550  220.3350 C   0  0  0  0  0  0  0  0  0  0  0  0
  141.3090   72.1470  221.4540 N   0  0  0  0  0  0  0  0  0  0  0  0
  140.3400   72.4400  222.4740 C   0  0  0  0  0  0  0  0  0  0  0  0
  139.5920   73.4600  222.3550 O   0  0  0  0  0  0  0  0  0  0  0  0
  140.2330   71.5570  223.6350 C   0  0  0  0  0  0  0  0  0  0  0  0
  139.6150   70.3330  223.4770 C   0  0  0  0  0  0  0  0  0  0  0  0
  139.4610   69.4260  224.5050 C   0  0  0  0  0  0  0  0  0  0  0  0
  139.9680   69.8060  225.7410 C   0  0  0  0  0  0  0  0  0  0  0  0
  139.8530   68.9470  226.8270 C   0  0  0  0  0  0  0  0  0  0  0  0
  140.3600   69.3340  228.0540 C   0  0  0  0  0  0  0  0  0  0  0  0
  140.2240   68.4650  229.0820 F   0  0  0  0  0  0  0  0  0  0  0  0
  140.9790   70.5520  228.2230 C   0  0  0  0  0  0  0  0  0  0  0  0
  141.0940   71.4090  227.1400 C   0  0  0  0  0  0  0  0  0  0  0  0
  140.5900   71.0320  225.9100 C   0  0  0  0  0  0  0  0  0  0  0  0
  140.7100   71.8850  224.8500 N   0  0  0  0  0  0  0  0  0  0  0  0
  142.5508   79.6496  218.6257 H   0  0  0  0  0  0  0  0  0  0  0  0
  143.4549   78.8218  217.3127 H   0  0  0  0  0  0  0  0  0  0  0  0
  141.6587   78.8090  217.3127 H   0  0  0  0  0  0  0  0  0  0  0  0
  142.3361   76.6892  218.0715 H   0  0  0  0  0  0  0  0  0  0  0  0
  143.5650   77.4473  219.1983 H   0  0  0  0  0  0  0  0  0  0  0  0
  142.1705   77.5833  220.7879 H   0  0  0  0  0  0  0  0  0  0  0  0
  140.9189   78.3487  219.6167 H   0  0  0  0  0  0  0  0  0  0  0  0
  140.4992   76.0609  218.9656 H   0  0  0  0  0  0  0  0  0  0  0  0
  138.8838   77.4768  220.2850 H   0  0  0  0  0  0  0  0  0  0  0  0
  138.6909   75.7197  220.4614 H   0  0  0  0  0  0  0  0  0  0  0  0
  139.5940   77.7322  222.5173 H   0  0  0  0  0  0  0  0  0  0  0  0
  139.0160   75.0410  223.0850 H   0  0  0  0  0  0  0  0  0  0  0  0
  141.7425   76.8043  222.5381 H   0  0  0  0  0  0  0  0  0  0  0  0
  140.9726   75.2777  223.0541 H   0  0  0  0  0  0  0  0  0  0  0  0
  140.3416   73.3065  220.0230 H   0  0  0  0  0  0  0  0  0  0  0  0
  141.9092   72.5656  219.5132 H   0  0  0  0  0  0  0  0  0  0  0  0
  141.9350   71.3000  221.5450 H   0  0  0  0  0  0  0  0  0  0  0  0
  139.2263   70.0677  222.4828 H   0  0  0  0  0  0  0  0  0  0  0  0
  138.9644   68.4561  224.3543 H   0  0  0  0  0  0  0  0  0  0  0  0
  139.3635   67.9687  226.7119 H   0  0  0  0  0  0  0  0  0  0  0  0
  141.3778   70.8417  229.2064 H   0  0  0  0  0  0  0  0  0  0  0  0
  141.5849   72.3861  227.2592 H   0  0  0  0  0  0  0  0  0  0  0  0
  1  2  1  0
  2  3  1  0
  3  4  1  0
  4  5  1  0
  5  6  1  0
  6  7  1  0
  6  8  1  0
  8  9  1  0
  9 10  1  0
 10 11  2  0
 10 12  1  0
 12 13  1  0
 13 14  1  0
 14 15  2  0
 14 16  1  0
 16 17  2  0
 17 18  1  0
 18 19  2  0
 19 20  1  0
 20 21  2  0
 21 22  1  0
 21 23  1  0
 23 24  2  0
 24 25  1  0
 25 26  2  0
  9  4  1  0
 26 16  1  0
 25 19  1  0
  1 27  1  0
  1 28  1  0
  1 29  1  0
  2 30  1  0
  2 31  1  0
  3 32  1  0
  3 33  1  0
  4 34  1  6
  5 35  1  0
  5 36  1  0
  6 37  1  1
  7 38  1  0
  8 39  1  0
  8 40  1  0
 12 41  1  0
 12 42  1  0
 13 43  1  0
 17 44  1  0
 18 45  1  0
 20 46  1  0
 23 47  1  0
 24 48  1  0
M  END
>  <smiles>  (28) 
CCC[C@@H]1C[C@@H](O)CN1C(=O)CNC(=O)c1ccc2cc(F)ccc2n1

>  <score_type>  (28) 
oracle

>  <origin>  (28) 
autodockgpu

>  <m_score__min__energy>  (28) 
-7.4800000000000004

>  <m_primary>  (28) 
energy

>  <rmsd>  (28) 
2.5326182830191892

>  <m_score__min__rmsd>  (28) 
2.5326182830191892

>  <meeko>  (28) 
{"free_energy": -6.6, "intermolecular_energy": -8.69, "internal_energy": -1.93, "cluster_size": 23, "cluster_id": 1, "rank_in_cluster": 11}

>  <energy>  (28) 
-7.25

>  <cluster_rmsd>  (28) 
0.19

>  <cluster>  (28) 
3

$$$$

     RDKit          3D

 48 50  0  0  0  0  0  0  0  0999 V2000
  146.0400   73.3900  221.2580 C   0  0  0  0  0  0  0  0  0  0  0  0
  144.6870   73.3180  220.6430 C   0  0  0  0  0  0  0  0  0  0  0  0
  144.0370   74.6320  220.4590 C   0  0  0  0  0  0  0  0  0  0  0  0
  142.7780   74.7240  219.6990 C   0  0  2  0  0  0  0  0  0  0  0  0
  142.7790   75.3500  218.3580 C   0  0  0  0  0  0  0  0  0  0  0  0
  142.8990   76.8430  218.5740 C   0  0  1  0  0  0  0  0  0  0  0  0
  142.0260   77.5420  217.7100 O   0  0  0  0  0  0  0  0  0  0  0  0
  142.4320   76.9860  219.9950 C   0  0  0  0  0  0  0  0  0  0  0  0
  141.9290   75.6970  220.4350 N   0  0  0  0  0  0  0  0  0  0  0  0
  140.8810   75.3940  221.3440 C   0  0  0  0  0  0  0  0  0  0  0  0
  140.7690   76.0970  222.3600 O   0  0  0  0  0  0  0  0  0  0  0  0
  139.9810   74.2730  221.0450 C   0  0  0  0  0  0  0  0  0  0  0  0
  139.7230   73.4900  222.2290 N   0  0  0  0  0  0  0  0  0  0  0  0
  140.5870   72.3660  222.4610 C   0  0  0  0  0  0  0  0  0  0  0  0
  141.5200   72.1100  221.6360 O   0  0  0  0  0  0  0  0  0  0  0  0
  140.3770   71.5330  223.6440 C   0  0  0  0  0  0  0  0  0  0  0  0
  139.7010   70.3390  223.4970 C   0  0  0  0  0  0  0  0  0  0  0  0
  139.4490   69.4780  224.5460 C   0  0  0  0  0  0  0  0  0  0  0  0
  139.9180   69.8750  225.7920 C   0  0  0  0  0  0  0  0  0  0  0  0
  139.7050   69.0630  226.9000 C   0  0  0  0  0  0  0  0  0  0  0  0
  140.1750   69.4670  228.1360 C   0  0  0  0  0  0  0  0  0  0  0  0
  139.9430   68.6450  229.1840 F   0  0  0  0  0  0  0  0  0  0  0  0
  140.8510   70.6560  228.2940 C   0  0  0  0  0  0  0  0  0  0  0  0
  141.0640   71.4650  227.1890 C   0  0  0  0  0  0  0  0  0  0  0  0
  140.5980   71.0720  225.9500 C   0  0  0  0  0  0  0  0  0  0  0  0
  140.8140   71.8780  224.8690 N   0  0  0  0  0  0  0  0  0  0  0  0
  145.9454   73.3850  222.3539 H   0  0  0  0  0  0  0  0  0  0  0  0
  146.6352   72.5223  220.9374 H   0  0  0  0  0  0  0  0  0  0  0  0
  146.5397   74.3160  220.9374 H   0  0  0  0  0  0  0  0  0  0  0  0
  144.7806   72.8380  219.6577 H   0  0  0  0  0  0  0  0  0  0  0  0
  144.0536   72.7453  221.3364 H   0  0  0  0  0  0  0  0  0  0  0  0
  143.8328   75.0303  221.4638 H   0  0  0  0  0  0  0  0  0  0  0  0
  144.7535   75.1869  219.8355 H   0  0  0  0  0  0  0  0  0  0  0  0
  142.4832   73.6698  219.5902 H   0  0  0  0  0  0  0  0  0  0  0  0
  143.6322   74.9826  217.7689 H   0  0  0  0  0  0  0  0  0  0  0  0
  141.8602   75.1031  217.8059 H   0  0  0  0  0  0  0  0  0  0  0  0
  143.9069   77.2398  218.3824 H   0  0  0  0  0  0  0  0  0  0  0  0
  141.6640   76.9360  217.0020 H   0  0  0  0  0  0  0  0  0  0  0  0
  143.2716   77.2968  220.6341 H   0  0  0  0  0  0  0  0  0  0  0  0
  141.6410   77.7474  220.0620 H   0  0  0  0  0  0  0  0  0  0  0  0
  139.0293   74.6680  220.6600 H   0  0  0  0  0  0  0  0  0  0  0  0
  140.4608   73.6276  220.2945 H   0  0  0  0  0  0  0  0  0  0  0  0
  138.9450   73.7110  222.9090 H   0  0  0  0  0  0  0  0  0  0  0  0
  139.3454   70.0596  222.4943 H   0  0  0  0  0  0  0  0  0  0  0  0
  138.9075   68.5312  224.4035 H   0  0  0  0  0  0  0  0  0  0  0  0
  139.1680   68.1088  226.7945 H   0  0  0  0  0  0  0  0  0  0  0  0
  141.2177   70.9602  229.2855 H   0  0  0  0  0  0  0  0  0  0  0  0
  141.6029   72.4177  227.2987 H   0  0  0  0  0  0  0  0  0  0  0  0
  1  2  1  0
  2  3  1  0
  3  4  1  0
  4  5  1  0
  5  6  1  0
  6  7  1  0
  6  8  1  0
  8  9  1  0
  9 10  1  0
 10 11  2  0
 10 12  1  0
 12 13  1  0
 13 14  1  0
 14 15  2  0
 14 16  1  0
 16 17  2  0
 17 18  1  0
 18 19  2  0
 19 20  1  0
 20 21  2  0
 21 22  1  0
 21 23  1  0
 23 24  2  0
 24 25  1  0
 25 26  2  0
  9  4  1  0
 26 16  1  0
 25 19  1  0
  1 27  1  0
  1 28  1  0
  1 29  1  0
  2 30  1  0
  2 31  1  0
  3 32  1  0
  3 33  1  0
  4 34  1  6
  5 35  1  0
  5 36  1  0
  6 37  1  1
  7 38  1  0
  8 39  1  0
  8 40  1  0
 12 41  1  0
 12 42  1  0
 13 43  1  0
 17 44  1  0
 18 45  1  0
 20 46  1  0
 23 47  1  0
 24 48  1  0
M  END
>  <smiles>  (29) 
CCC[C@@H]1C[C@@H](O)CN1C(=O)CNC(=O)c1ccc2cc(F)ccc2n1

>  <score_type>  (29) 
oracle

>  <origin>  (29) 
autodockgpu

>  <m_score__min__energy>  (29) 
-7.4800000000000004

>  <m_primary>  (29) 
energy

>  <rmsd>  (29) 
3.0067798512678072

>  <m_score__min__rmsd>  (29) 
3.0067798512678072

>  <meeko>  (29) 
{"free_energy": -7.19, "intermolecular_energy": -9.28, "internal_energy": -1.26, "cluster_size": 18, "cluster_id": 3, "rank_in_cluster": 7}

>  <energy>  (29) 
-7.21

>  <cluster_rmsd>  (29) 
0.24

>  <cluster>  (29) 
3

$$$$

     RDKit          3D

 48 50  0  0  0  0  0  0  0  0999 V2000
  140.9810   71.8000  228.1320 C   0  0  0  0  0  0  0  0  0  0  0  0
  141.4280   71.9390  226.7200 C   0  0  0  0  0  0  0  0  0  0  0  0
  140.9070   70.8940  225.8150 C   0  0  0  0  0  0  0  0  0  0  0  0
  139.5260   70.4060  225.9810 C   0  0  2  0  0  0  0  0  0  0  0  0
  139.2380   69.3560  226.9820 C   0  0  0  0  0  0  0  0  0  0  0  0
  139.7580   68.0540  226.4090 C   0  0  1  0  0  0  0  0  0  0  0  0
  138.8360   67.0070  226.6390 O   0  0  0  0  0  0  0  0  0  0  0  0
  139.8170   68.3680  224.9410 C   0  0  0  0  0  0  0  0  0  0  0  0
  139.2030   69.6670  224.7330 N   0  0  0  0  0  0  0  0  0  0  0  0
  138.4640   70.1530  223.6230 C   0  0  0  0  0  0  0  0  0  0  0  0
  137.2510   69.9000  223.5730 O   0  0  0  0  0  0  0  0  0  0  0  0
  139.1610   70.9290  222.5890 C   0  0  0  0  0  0  0  0  0  0  0  0
  138.8660   72.3350  222.7140 N   0  0  0  0  0  0  0  0  0  0  0  0
  139.7820   73.2460  222.0850 C   0  0  0  0  0  0  0  0  0  0  0  0
  140.7920   72.7910  221.4610 O   0  0  0  0  0  0  0  0  0  0  0  0
  139.5380   74.6850  222.1760 C   0  0  0  0  0  0  0  0  0  0  0  0
  138.2370   75.1380  222.1020 C   0  0  0  0  0  0  0  0  0  0  0  0
  137.8960   76.4740  222.1770 C   0  0  0  0  0  0  0  0  0  0  0  0
  138.9470   77.3680  222.3340 C   0  0  0  0  0  0  0  0  0  0  0  0
  138.6860   78.7300  222.4190 C   0  0  0  0  0  0  0  0  0  0  0  0
  139.7390   79.6130  222.5750 C   0  0  0  0  0  0  0  0  0  0  0  0
  139.4370   80.9290  222.6510 F   0  0  0  0  0  0  0  0  0  0  0  0
  141.0410   79.1720  222.6510 C   0  0  0  0  0  0  0  0  0  0  0  0
  141.3010   77.8130  222.5670 C   0  0  0  0  0  0  0  0  0  0  0  0
  140.2570   76.9230  222.4100 C   0  0  0  0  0  0  0  0  0  0  0  0
  140.5260   75.5870  222.3290 N   0  0  0  0  0  0  0  0  0  0  0  0
  141.8108   72.0581  228.8064 H   0  0  0  0  0  0  0  0  0  0  0  0
  140.1341   72.4772  228.3169 H   0  0  0  0  0  0  0  0  0  0  0  0
  140.6675   70.7620  228.3169 H   0  0  0  0  0  0  0  0  0  0  0  0
  141.0923   72.9177  226.3465 H   0  0  0  0  0  0  0  0  0  0  0  0
  142.5233   71.8374  226.7234 H   0  0  0  0  0  0  0  0  0  0  0  0
  140.9843   71.2906  224.7919 H   0  0  0  0  0  0  0  0  0  0  0  0
  141.5205   70.0144  226.0596 H   0  0  0  0  0  0  0  0  0  0  0  0
  138.9803   71.3171  226.2677 H   0  0  0  0  0  0  0  0  0  0  0  0
  139.7492   69.5845  227.9288 H   0  0  0  0  0  0  0  0  0  0  0  0
  138.1598   69.2937  227.1910 H   0  0  0  0  0  0  0  0  0  0  0  0
  140.7133   67.7261  226.8447 H   0  0  0  0  0  0  0  0  0  0  0  0
  139.1170   66.4490  227.4190 H   0  0  0  0  0  0  0  0  0  0  0  0
  140.8647   68.3929  224.6068 H   0  0  0  0  0  0  0  0  0  0  0  0
  139.2839   67.5976  224.3646 H   0  0  0  0  0  0  0  0  0  0  0  0
  140.2454   70.7778  222.6950 H   0  0  0  0  0  0  0  0  0  0  0  0
  138.8196   70.5848  221.6016 H   0  0  0  0  0  0  0  0  0  0  0  0
  138.0240   72.7060  223.2350 H   0  0  0  0  0  0  0  0  0  0  0  0
  137.4320   74.3988  221.9772 H   0  0  0  0  0  0  0  0  0  0  0  0
  136.8507   76.8111  222.1158 H   0  0  0  0  0  0  0  0  0  0  0  0
  137.6524   79.1022  222.3628 H   0  0  0  0  0  0  0  0  0  0  0  0
  141.8652   79.8896  222.7769 H   0  0  0  0  0  0  0  0  0  0  0  0
  142.3359   77.4447  222.6252 H   0  0  0  0  0  0  0  0  0  0  0  0
  1  2  1  0
  2  3  1  0
  3  4  1  0
  4  5  1  0
  5  6  1  0
  6  7  1  0
  6  8  1  0
  8  9  1  0
  9 10  1  0
 10 11  2  0
 10 12  1  0
 12 13  1  0
 13 14  1  0
 14 15  2  0
 14 16  1  0
 16 17  2  0
 17 18  1  0
 18 19  2  0
 19 20  1  0
 20 21  2  0
 21 22  1  0
 21 23  1  0
 23 24  2  0
 24 25  1  0
 25 26  2  0
  9  4  1  0
 26 16  1  0
 25 19  1  0
  1 27  1  0
  1 28  1  0
  1 29  1  0
  2 30  1  0
  2 31  1  0
  3 32  1  0
  3 33  1  0
  4 34  1  1
  5 35  1  0
  5 36  1  0
  6 37  1  1
  7 38  1  0
  8 39  1  0
  8 40  1  0
 12 41  1  0
 12 42  1  0
 13 43  1  0
 17 44  1  0
 18 45  1  0
 20 46  1  0
 23 47  1  0
 24 48  1  0
M  END
>  <smiles>  (30) 
CCC[C@@H]1C[C@@H](O)CN1C(=O)CNC(=O)c1ccc2cc(F)ccc2n1

>  <score_type>  (30) 
oracle

>  <origin>  (30) 
autodockgpu

>  <m_score__min__energy>  (30) 
-7.4800000000000004

>  <m_primary>  (30) 
energy

>  <rmsd>  (30) 
8.35213201018035

>  <m_score__min__rmsd>  (30) 
8.35213201018035

>  <meeko>  (30) 
{"free_energy": -7.02, "intermolecular_energy": -9.11, "internal_energy": -1.08, "cluster_size": 2, "cluster_id": 2, "rank_in_cluster": 2}

>  <energy>  (30) 
-7.2

>  <cluster_rmsd>  (30) 
0.33

>  <cluster>  (30) 
3

$$$$

     RDKit          3D

 48 50  0  0  0  0  0  0  0  0999 V2000
  141.8420   79.4260  221.7970 C   0  0  0  0  0  0  0  0  0  0  0  0
  141.5140   79.0090  220.4060 C   0  0  0  0  0  0  0  0  0  0  0  0
  141.8720   77.6110  220.0940 C   0  0  0  0  0  0  0  0  0  0  0  0
  140.8260   76.5730  220.0860 C   0  0  2  0  0  0  0  0  0  0  0  0
  139.5050   76.8630  220.6860 C   0  0  0  0  0  0  0  0  0  0  0  0
  139.6930   76.8320  222.1880 C   0  0  1  0  0  0  0  0  0  0  0  0
  138.6190   76.1560  222.8100 O   0  0  0  0  0  0  0  0  0  0  0  0
  140.9520   76.0230  222.3230 C   0  0  0  0  0  0  0  0  0  0  0  0
  141.2990   75.5090  221.0100 N   0  0  0  0  0  0  0  0  0  0  0  0
  141.9360   74.2920  220.6520 C   0  0  0  0  0  0  0  0  0  0  0  0
  143.1760   74.2660  220.6340 O   0  0  0  0  0  0  0  0  0  0  0  0
  141.1070   73.1260  220.3210 C   0  0  0  0  0  0  0  0  0  0  0  0
  141.1020   72.1740  221.4050 N   0  0  0  0  0  0  0  0  0  0  0  0
  140.2640   72.4820  222.5310 C   0  0  0  0  0  0  0  0  0  0  0  0
  139.5800   73.5530  222.5300 O   0  0  0  0  0  0  0  0  0  0  0  0
  140.2150   71.5570  223.6620 C   0  0  0  0  0  0  0  0  0  0  0  0
  139.6870   70.2980  223.4600 C   0  0  0  0  0  0  0  0  0  0  0  0
  139.5940   69.3480  224.4580 C   0  0  0  0  0  0  0  0  0  0  0  0
  140.0670   69.7230  225.7080 C   0  0  0  0  0  0  0  0  0  0  0  0
  140.0090   68.8230  226.7660 C   0  0  0  0  0  0  0  0  0  0  0  0
  140.4810   69.2050  228.0070 C   0  0  0  0  0  0  0  0  0  0  0  0
  140.4030   68.2960  229.0060 F   0  0  0  0  0  0  0  0  0  0  0  0
  141.0100   70.4590  228.2210 C   0  0  0  0  0  0  0  0  0  0  0  0
  141.0680   71.3560  227.1660 C   0  0  0  0  0  0  0  0  0  0  0  0
  140.5990   70.9850  225.9210 C   0  0  0  0  0  0  0  0  0  0  0  0
  140.6620   71.8780  224.8910 N   0  0  0  0  0  0  0  0  0  0  0  0
  141.3237   78.7671  222.5092 H   0  0  0  0  0  0  0  0  0  0  0  0
  142.9283   79.3543  221.9548 H   0  0  0  0  0  0  0  0  0  0  0  0
  141.5164   80.4648  221.9548 H   0  0  0  0  0  0  0  0  0  0  0  0
  140.4310   79.1297  220.2558 H   0  0  0  0  0  0  0  0  0  0  0  0
  142.1103   79.6456  219.7358 H   0  0  0  0  0  0  0  0  0  0  0  0
  142.3257   77.6141  219.0919 H   0  0  0  0  0  0  0  0  0  0  0  0
  142.5165   77.3181  220.9359 H   0  0  0  0  0  0  0  0  0  0  0  0
  140.6854   76.3810  219.0120 H   0  0  0  0  0  0  0  0  0  0  0  0
  139.1541   77.8559  220.3683 H   0  0  0  0  0  0  0  0  0  0  0  0
  138.7545   76.1252  220.3659 H   0  0  0  0  0  0  0  0  0  0  0  0
  139.7392   77.8290  222.6504 H   0  0  0  0  0  0  0  0  0  0  0  0
  138.9020   75.2490  223.1250 H   0  0  0  0  0  0  0  0  0  0  0  0
  141.7656   76.6592  222.7016 H   0  0  0  0  0  0  0  0  0  0  0  0
  140.7991   75.1938  223.0294 H   0  0  0  0  0  0  0  0  0  0  0  0
  140.0764   73.4594  220.1296 H   0  0  0  0  0  0  0  0  0  0  0  0
  141.5253   72.6394  219.4276 H   0  0  0  0  0  0  0  0  0  0  0  0
  141.6750   71.2860  221.3970 H   0  0  0  0  0  0  0  0  0  0  0  0
  139.3225   70.0386  222.4551 H   0  0  0  0  0  0  0  0  0  0  0  0
  139.1691   68.3504  224.2728 H   0  0  0  0  0  0  0  0  0  0  0  0
  139.5913   67.8164  226.6165 H   0  0  0  0  0  0  0  0  0  0  0  0
  141.3815   70.7446  229.2162 H   0  0  0  0  0  0  0  0  0  0  0  0
  141.4867   72.3615  227.3200 H   0  0  0  0  0  0  0  0  0  0  0  0
  1  2  1  0
  2  3  1  0
  3  4  1  0
  4  5  1  0
  5  6  1  0
  6  7  1  0
  6  8  1  0
  8  9  1  0
  9 10  1  0
 10 11  2  0
 10 12  1  0
 12 13  1  0
 13 14  1  0
 14 15  2  0
 14 16  1  0
 16 17  2  0
 17 18  1  0
 18 19  2  0
 19 20  1  0
 20 21  2  0
 21 22  1  0
 21 23  1  0
 23 24  2  0
 24 25  1  0
 25 26  2  0
  9  4  1  0
 26 16  1  0
 25 19  1  0
  1 27  1  0
  1 28  1  0
  1 29  1  0
  2 30  1  0
  2 31  1  0
  3 32  1  0
  3 33  1  0
  4 34  1  6
  5 35  1  0
  5 36  1  0
  6 37  1  1
  7 38  1  0
  8 39  1  0
  8 40  1  0
 12 41  1  0
 12 42  1  0
 13 43  1  0
 17 44  1  0
 18 45  1  0
 20 46  1  0
 23 47  1  0
 24 48  1  0
M  END
>  <smiles>  (31) 
CCC[C@@H]1C[C@@H](O)CN1C(=O)CNC(=O)c1ccc2cc(F)ccc2n1

>  <score_type>  (31) 
oracle

>  <origin>  (31) 
autodockgpu

>  <m_score__min__energy>  (31) 
-7.4800000000000004

>  <m_primary>  (31) 
energy

>  <rmsd>  (31) 
2.7323000161489626

>  <m_score__min__rmsd>  (31) 
2.7323000161489626

>  <meeko>  (31) 
{"free_energy": -6.71, "intermolecular_energy": -8.79, "internal_energy": -1.87, "cluster_size": 18, "cluster_id": 3, "rank_in_cluster": 16}

>  <energy>  (31) 
-7.2

>  <cluster_rmsd>  (31) 
0.22

>  <cluster>  (31) 
3

$$$$

     RDKit          3D

 48 50  0  0  0  0  0  0  0  0999 V2000
  145.9570   73.3990  221.0620 C   0  0  0  0  0  0  0  0  0  0  0  0
  144.8420   73.5760  220.0930 C   0  0  0  0  0  0  0  0  0  0  0  0
  143.7250   74.3990  220.6010 C   0  0  0  0  0  0  0  0  0  0  0  0
  142.4890   74.5230  219.8080 C   0  0  2  0  0  0  0  0  0  0  0  0
  142.5100   75.2790  218.5370 C   0  0  0  0  0  0  0  0  0  0  0  0
  142.5650   76.7460  218.9050 C   0  0  1  0  0  0  0  0  0  0  0  0
  141.6940   77.4980  218.0820 O   0  0  0  0  0  0  0  0  0  0  0  0
  142.0450   76.7290  220.3140 C   0  0  0  0  0  0  0  0  0  0  0  0
  141.5780   75.3860  220.6050 N   0  0  0  0  0  0  0  0  0  0  0  0
  140.5140   74.9570  221.4410 C   0  0  0  0  0  0  0  0  0  0  0  0
  140.0730   75.7560  222.2810 O   0  0  0  0  0  0  0  0  0  0  0  0
  139.9830   73.5980  221.2760 C   0  0  0  0  0  0  0  0  0  0  0  0
  139.9630   72.8960  222.5360 N   0  0  0  0  0  0  0  0  0  0  0  0
  139.9850   71.4610  222.4760 C   0  0  0  0  0  0  0  0  0  0  0  0
  140.0180   70.8790  221.3460 O   0  0  0  0  0  0  0  0  0  0  0  0
  139.9670   70.6910  223.7190 C   0  0  0  0  0  0  0  0  0  0  0  0
  139.3780   69.4430  223.7130 C   0  0  0  0  0  0  0  0  0  0  0  0
  139.3080   68.6340  224.8290 C   0  0  0  0  0  0  0  0  0  0  0  0
  139.8690   69.1440  225.9930 C   0  0  0  0  0  0  0  0  0  0  0  0
  139.8390   68.3900  227.1600 C   0  0  0  0  0  0  0  0  0  0  0  0
  140.4000   68.9060  228.3140 C   0  0  0  0  0  0  0  0  0  0  0  0
  140.3460   68.1370  229.4250 F   0  0  0  0  0  0  0  0  0  0  0  0
  140.9900   70.1500  228.3320 C   0  0  0  0  0  0  0  0  0  0  0  0
  141.0210   70.9010  227.1680 C   0  0  0  0  0  0  0  0  0  0  0  0
  140.4620   70.3960  226.0100 C   0  0  0  0  0  0  0  0  0  0  0  0
  140.4990   71.1450  224.8690 N   0  0  0  0  0  0  0  0  0  0  0  0
  145.5647   73.4613  222.0878 H   0  0  0  0  0  0  0  0  0  0  0  0
  146.4245   72.4154  220.9073 H   0  0  0  0  0  0  0  0  0  0  0  0
  146.7062   74.1895  220.9073 H   0  0  0  0  0  0  0  0  0  0  0  0
  145.2431   74.0583  219.1894 H   0  0  0  0  0  0  0  0  0  0  0  0
  144.4328   72.5744  219.8945 H   0  0  0  0  0  0  0  0  0  0  0  0
  143.4374   73.9791  221.5762 H   0  0  0  0  0  0  0  0  0  0  0  0
  144.1359   75.4194  220.5955 H   0  0  0  0  0  0  0  0  0  0  0  0
  142.2394   73.4753  219.5846 H   0  0  0  0  0  0  0  0  0  0  0  0
  143.3958   75.0028  217.9461 H   0  0  0  0  0  0  0  0  0  0  0  0
  141.6206   75.0564  217.9293 H   0  0  0  0  0  0  0  0  0  0  0  0
  143.5628   77.1949  218.7918 H   0  0  0  0  0  0  0  0  0  0  0  0
  141.6930   78.4610  218.3500 H   0  0  0  0  0  0  0  0  0  0  0  0
  142.8497   77.0036  221.0119 H   0  0  0  0  0  0  0  0  0  0  0  0
  141.2231   77.4514  220.4261 H   0  0  0  0  0  0  0  0  0  0  0  0
  138.9582   73.6574  220.8807 H   0  0  0  0  0  0  0  0  0  0  0  0
  140.6330   73.0493  220.5786 H   0  0  0  0  0  0  0  0  0  0  0  0
  139.9360   73.3870  223.4710 H   0  0  0  0  0  0  0  0  0  0  0  0
  138.9428   69.0748  222.7722 H   0  0  0  0  0  0  0  0  0  0  0  0
  138.8347   67.6415  224.7985 H   0  0  0  0  0  0  0  0  0  0  0  0
  139.3739   67.3932  227.1658 H   0  0  0  0  0  0  0  0  0  0  0  0
  141.4316   70.5430  229.2597 H   0  0  0  0  0  0  0  0  0  0  0  0
  141.4893   71.8963  227.1660 H   0  0  0  0  0  0  0  0  0  0  0  0
  1  2  1  0
  2  3  1  0
  3  4  1  0
  4  5  1  0
  5  6  1  0
  6  7  1  0
  6  8  1  0
  8  9  1  0
  9 10  1  0
 10 11  2  0
 10 12  1  0
 12 13  1  0
 13 14  1  0
 14 15  2  0
 14 16  1  0
 16 17  2  0
 17 18  1  0
 18 19  2  0
 19 20  1  0
 20 21  2  0
 21 22  1  0
 21 23  1  0
 23 24  2  0
 24 25  1  0
 25 26  2  0
  9  4  1  0
 26 16  1  0
 25 19  1  0
  1 27  1  0
  1 28  1  0
  1 29  1  0
  2 30  1  0
  2 31  1  0
  3 32  1  0
  3 33  1  0
  4 34  1  6
  5 35  1  0
  5 36  1  0
  6 37  1  1
  7 38  1  0
  8 39  1  0
  8 40  1  0
 12 41  1  0
 12 42  1  0
 13 43  1  0
 17 44  1  0
 18 45  1  0
 20 46  1  0
 23 47  1  0
 24 48  1  0
M  END
>  <smiles>  (32) 
CCC[C@@H]1C[C@@H](O)CN1C(=O)CNC(=O)c1ccc2cc(F)ccc2n1

>  <score_type>  (32) 
oracle

>  <origin>  (32) 
autodockgpu

>  <m_score__min__energy>  (32) 
-7.4800000000000004

>  <m_primary>  (32) 
energy

>  <rmsd>  (32) 
2.8462137981694444

>  <m_score__min__rmsd>  (32) 
2.8462137981694444

>  <meeko>  (32) 
{"free_energy": -6.77, "intermolecular_energy": -8.86, "internal_energy": -1.29, "cluster_size": 18, "cluster_id": 3, "rank_in_cluster": 15}

>  <energy>  (32) 
-7.19

>  <cluster_rmsd>  (32) 
0.37

>  <cluster>  (32) 
3

$$$$

     RDKit          3D

 48 50  0  0  0  0  0  0  0  0999 V2000
  146.3170   73.4270  221.5870 C   0  0  0  0  0  0  0  0  0  0  0  0
  145.5190   73.4480  220.3320 C   0  0  0  0  0  0  0  0  0  0  0  0
  144.2000   74.0990  220.4660 C   0  0  0  0  0  0  0  0  0  0  0  0
  143.0250   73.2990  220.8550 C   0  0  2  0  0  0  0  0  0  0  0  0
  142.9120   71.8970  220.3950 C   0  0  0  0  0  0  0  0  0  0  0  0
  142.5410   71.9500  218.9280 C   0  0  1  0  0  0  0  0  0  0  0  0
  141.5470   70.9890  218.6320 O   0  0  0  0  0  0  0  0  0  0  0  0
  141.9650   73.3330  218.8070 C   0  0  0  0  0  0  0  0  0  0  0  0
  141.8680   73.8980  220.1400 N   0  0  0  0  0  0  0  0  0  0  0  0
  140.9160   74.8060  220.6730 C   0  0  0  0  0  0  0  0  0  0  0  0
  141.2500   75.9920  220.8040 O   0  0  0  0  0  0  0  0  0  0  0  0
  139.5850   74.3050  221.0430 C   0  0  0  0  0  0  0  0  0  0  0  0
  139.6360   73.5750  222.2850 N   0  0  0  0  0  0  0  0  0  0  0  0
  139.8500   72.1580  222.1930 C   0  0  0  0  0  0  0  0  0  0  0  0
  139.9800   71.6150  221.0510 O   0  0  0  0  0  0  0  0  0  0  0  0
  139.9120   71.3610  223.4180 C   0  0  0  0  0  0  0  0  0  0  0  0
  139.4650   70.0560  223.3790 C   0  0  0  0  0  0  0  0  0  0  0  0
  139.4800   69.2180  224.4750 C   0  0  0  0  0  0  0  0  0  0  0  0
  139.9770   69.7580  225.6540 C   0  0  0  0  0  0  0  0  0  0  0  0
  140.0250   68.9790  226.8040 C   0  0  0  0  0  0  0  0  0  0  0  0
  140.5210   69.5250  227.9730 C   0  0  0  0  0  0  0  0  0  0  0  0
  140.5470   68.7290  229.0660 F   0  0  0  0  0  0  0  0  0  0  0  0
  140.9690   70.8260  228.0240 C   0  0  0  0  0  0  0  0  0  0  0  0
  140.9210   71.6040  226.8780 C   0  0  0  0  0  0  0  0  0  0  0  0
  140.4280   71.0680  225.7040 C   0  0  0  0  0  0  0  0  0  0  0  0
  140.3860   71.8440  224.5820 N   0  0  0  0  0  0  0  0  0  0  0  0
  145.6390   73.4448  222.4530 H   0  0  0  0  0  0  0  0  0  0  0  0
  146.9275   72.5125  221.6181 H   0  0  0  0  0  0  0  0  0  0  0  0
  146.9747   74.3082  221.6181 H   0  0  0  0  0  0  0  0  0  0  0  0
  146.0945   73.9883  219.5659 H   0  0  0  0  0  0  0  0  0  0  0  0
  145.3286   72.3993  220.0600 H   0  0  0  0  0  0  0  0  0  0  0  0
  144.3107   74.8907  221.2216 H   0  0  0  0  0  0  0  0  0  0  0  0
  143.9654   74.4142  219.4386 H   0  0  0  0  0  0  0  0  0  0  0  0
  143.0849   73.3006  221.9534 H   0  0  0  0  0  0  0  0  0  0  0  0
  143.8724   71.3767  220.5248 H   0  0  0  0  0  0  0  0  0  0  0  0
  142.1548   71.3495  220.9755 H   0  0  0  0  0  0  0  0  0  0  0  0
  143.3819   71.7446  218.2492 H   0  0  0  0  0  0  0  0  0  0  0  0
  140.7620   71.0880  219.2430 H   0  0  0  0  0  0  0  0  0  0  0  0
  142.6221   73.9576  218.1840 H   0  0  0  0  0  0  0  0  0  0  0  0
  140.9715   73.2927  218.3365 H   0  0  0  0  0  0  0  0  0  0  0  0
  138.8979   75.1568  221.1541 H   0  0  0  0  0  0  0  0  0  0  0  0
  139.2327   73.6271  220.2516 H   0  0  0  0  0  0  0  0  0  0  0  0
  139.5270   74.0350  223.2310 H   0  0  0  0  0  0  0  0  0  0  0  0
  139.0775   69.6644  222.4269 H   0  0  0  0  0  0  0  0  0  0  0  0
  139.1186   68.1806  224.4181 H   0  0  0  0  0  0  0  0  0  0  0  0
  139.6715   67.9375  226.7841 H   0  0  0  0  0  0  0  0  0  0  0  0
  141.3605   71.2431  228.9635 H   0  0  0  0  0  0  0  0  0  0  0  0
  141.2745   72.6454  226.9032 H   0  0  0  0  0  0  0  0  0  0  0  0
  1  2  1  0
  2  3  1  0
  3  4  1  0
  4  5  1  0
  5  6  1  0
  6  7  1  0
  6  8  1  0
  8  9  1  0
  9 10  1  0
 10 11  2  0
 10 12  1  0
 12 13  1  0
 13 14  1  0
 14 15  2  0
 14 16  1  0
 16 17  2  0
 17 18  1  0
 18 19  2  0
 19 20  1  0
 20 21  2  0
 21 22  1  0
 21 23  1  0
 23 24  2  0
 24 25  1  0
 25 26  2  0
  9  4  1  0
 26 16  1  0
 25 19  1  0
  1 27  1  0
  1 28  1  0
  1 29  1  0
  2 30  1  0
  2 31  1  0
  3 32  1  0
  3 33  1  0
  4 34  1  1
  5 35  1  0
  5 36  1  0
  6 37  1  6
  7 38  1  0
  8 39  1  0
  8 40  1  0
 12 41  1  0
 12 42  1  0
 13 43  1  0
 17 44  1  0
 18 45  1  0
 20 46  1  0
 23 47  1  0
 24 48  1  0
M  END
>  <smiles>  (33) 
CCC[C@@H]1C[C@@H](O)CN1C(=O)CNC(=O)c1ccc2cc(F)ccc2n1

>  <score_type>  (33) 
oracle

>  <origin>  (33) 
autodockgpu

>  <m_score__min__energy>  (33) 
-7.4800000000000004

>  <m_primary>  (33) 
energy

>  <rmsd>  (33) 
3.0472330307536892

>  <m_score__min__rmsd>  (33) 
3.0472330307536892

>  <meeko>  (33) 
{"free_energy": -6.34, "intermolecular_energy": -8.43, "internal_energy": -2.25, "cluster_size": 23, "cluster_id": 1, "rank_in_cluster": 16}

>  <energy>  (33) 
-7.18

>  <cluster_rmsd>  (33) 
0.42

>  <cluster>  (33) 
3

$$$$

     RDKit          3D

 48 50  0  0  0  0  0  0  0  0999 V2000
  137.1610   75.9900  222.7760 C   0  0  0  0  0  0  0  0  0  0  0  0
  137.4570   76.6970  221.5010 C   0  0  0  0  0  0  0  0  0  0  0  0
  138.6360   77.5860  221.5630 C   0  0  0  0  0  0  0  0  0  0  0  0
  139.8010   77.1980  222.3770 C   0  0  2  0  0  0  0  0  0  0  0  0
  140.5830   78.2420  223.0760 C   0  0  0  0  0  0  0  0  0  0  0  0
  141.4030   78.9520  222.0210 C   0  0  1  0  0  0  0  0  0  0  0  0
  142.7180   79.1850  222.4870 O   0  0  0  0  0  0  0  0  0  0  0  0
  141.4270   77.9350  220.9150 C   0  0  0  0  0  0  0  0  0  0  0  0
  140.8260   76.7120  221.4160 N   0  0  0  0  0  0  0  0  0  0  0  0
  141.1160   75.3610  221.0930 C   0  0  0  0  0  0  0  0  0  0  0  0
  142.3000   75.0490  220.8970 O   0  0  0  0  0  0  0  0  0  0  0  0
  140.0120   74.3960  221.0070 C   0  0  0  0  0  0  0  0  0  0  0  0
  139.8750   73.6590  222.2390 N   0  0  0  0  0  0  0  0  0  0  0  0
  140.2990   72.2860  222.2190 C   0  0  0  0  0  0  0  0  0  0  0  0
  140.7640   71.7870  221.1470 O   0  0  0  0  0  0  0  0  0  0  0  0
  140.1870   71.4840  223.4370 C   0  0  0  0  0  0  0  0  0  0  0  0
  139.5610   70.2560  223.3610 C   0  0  0  0  0  0  0  0  0  0  0  0
  139.4020   69.4210  224.4480 C   0  0  0  0  0  0  0  0  0  0  0  0
  139.9120   69.8790  225.6550 C   0  0  0  0  0  0  0  0  0  0  0  0
  139.7920   69.0960  226.7970 C   0  0  0  0  0  0  0  0  0  0  0  0
  140.3030   69.5610  227.9940 C   0  0  0  0  0  0  0  0  0  0  0  0
  140.1620   68.7640  229.0790 F   0  0  0  0  0  0  0  0  0  0  0  0
  140.9300   70.7840  228.0820 C   0  0  0  0  0  0  0  0  0  0  0  0
  141.0500   71.5650  226.9430 C   0  0  0  0  0  0  0  0  0  0  0  0
  140.5430   71.1100  225.7420 C   0  0  0  0  0  0  0  0  0  0  0  0
  140.6670   71.8890  224.6270 N   0  0  0  0  0  0  0  0  0  0  0  0
  137.4313   76.6356  223.6246 H   0  0  0  0  0  0  0  0  0  0  0  0
  136.0879   75.7527  222.8231 H   0  0  0  0  0  0  0  0  0  0  0  0
  137.7449   75.0589  222.8231 H   0  0  0  0  0  0  0  0  0  0  0  0
  137.6343   75.9422  220.7207 H   0  0  0  0  0  0  0  0  0  0  0  0
  136.5888   77.3367  221.2843 H   0  0  0  0  0  0  0  0  0  0  0  0
  138.9955   77.7114  220.5310 H   0  0  0  0  0  0  0  0  0  0  0  0
  138.2541   78.4824  222.0735 H   0  0  0  0  0  0  0  0  0  0  0  0
  139.3576   76.5315  223.1314 H   0  0  0  0  0  0  0  0  0  0  0  0
  139.9066   78.9534  223.5725 H   0  0  0  0  0  0  0  0  0  0  0  0
  141.2298   77.8005  223.8485 H   0  0  0  0  0  0  0  0  0  0  0  0
  140.9993   79.9331  221.7304 H   0  0  0  0  0  0  0  0  0  0  0  0
  143.3260   79.4300  221.7320 H   0  0  0  0  0  0  0  0  0  0  0  0
  140.8532   78.3070  220.0534 H   0  0  0  0  0  0  0  0  0  0  0  0
  142.4614   77.7473  220.5912 H   0  0  0  0  0  0  0  0  0  0  0  0
  139.0758   74.9370  220.8051 H   0  0  0  0  0  0  0  0  0  0  0  0
  140.2285   73.6860  220.1952 H   0  0  0  0  0  0  0  0  0  0  0  0
  139.4870   74.0820  223.1270 H   0  0  0  0  0  0  0  0  0  0  0  0
  139.1700   69.9272  222.3868 H   0  0  0  0  0  0  0  0  0  0  0  0
  138.8990   68.4465  224.3627 H   0  0  0  0  0  0  0  0  0  0  0  0
  139.2952   68.1158  226.7486 H   0  0  0  0  0  0  0  0  0  0  0  0
  141.3305   71.1367  229.0439 H   0  0  0  0  0  0  0  0  0  0  0  0
  141.5478   72.5445  226.9958 H   0  0  0  0  0  0  0  0  0  0  0  0
  1  2  1  0
  2  3  1  0
  3  4  1  0
  4  5  1  0
  5  6  1  0
  6  7  1  0
  6  8  1  0
  8  9  1  0
  9 10  1  0
 10 11  2  0
 10 12  1  0
 12 13  1  0
 13 14  1  0
 14 15  2  0
 14 16  1  0
 16 17  2  0
 17 18  1  0
 18 19  2  0
 19 20  1  0
 20 21  2  0
 21 22  1  0
 21 23  1  0
 23 24  2  0
 24 25  1  0
 25 26  2  0
  9  4  1  0
 26 16  1  0
 25 19  1  0
  1 27  1  0
  1 28  1  0
  1 29  1  0
  2 30  1  0
  2 31  1  0
  3 32  1  0
  3 33  1  0
  4 34  1  1
  5 35  1  0
  5 36  1  0
  6 37  1  6
  7 38  1  0
  8 39  1  0
  8 40  1  0
 12 41  1  0
 12 42  1  0
 13 43  1  0
 17 44  1  0
 18 45  1  0
 20 46  1  0
 23 47  1  0
 24 48  1  0
M  END
>  <smiles>  (34) 
CCC[C@@H]1C[C@@H](O)CN1C(=O)CNC(=O)c1ccc2cc(F)ccc2n1

>  <score_type>  (34) 
oracle

>  <origin>  (34) 
autodockgpu

>  <m_score__min__energy>  (34) 
-7.4800000000000004

>  <m_primary>  (34) 
energy

>  <rmsd>  (34) 
2.797764132149131

>  <m_score__min__rmsd>  (34) 
2.797764132149131

>  <meeko>  (34) 
{"free_energy": -7.02, "intermolecular_energy": -9.1, "internal_energy": -1.24, "cluster_size": 18, "cluster_id": 3, "rank_in_cluster": 13}

>  <energy>  (34) 
-7.14

>  <cluster_rmsd>  (34) 
0.39

>  <cluster>  (34) 
3

$$$$

     RDKit          3D

 48 50  0  0  0  0  0  0  0  0999 V2000
  142.5900   77.3600  217.9350 C   0  0  0  0  0  0  0  0  0  0  0  0
  142.8690   76.8680  219.3110 C   0  0  0  0  0  0  0  0  0  0  0  0
  143.6600   75.6210  219.3580 C   0  0  0  0  0  0  0  0  0  0  0  0
  143.4780   74.6820  220.4790 C   0  0  2  0  0  0  0  0  0  0  0  0
  144.1980   73.3900  220.4730 C   0  0  0  0  0  0  0  0  0  0  0  0
  143.4990   72.5070  219.4620 C   0  0  1  0  0  0  0  0  0  0  0  0
  143.3590   71.1920  219.9620 O   0  0  0  0  0  0  0  0  0  0  0  0
  142.1500   73.1610  219.3640 C   0  0  0  0  0  0  0  0  0  0  0  0
  142.0770   74.1960  220.3800 N   0  0  0  0  0  0  0  0  0  0  0  0
  140.9600   74.6600  221.1220 C   0  0  0  0  0  0  0  0  0  0  0  0
  141.0860   75.7100  221.7710 O   0  0  0  0  0  0  0  0  0  0  0  0
  139.7120   73.8860  221.0900 C   0  0  0  0  0  0  0  0  0  0  0  0
  139.5330   73.1480  222.3160 N   0  0  0  0  0  0  0  0  0  0  0  0
  140.3240   71.9590  222.4750 C   0  0  0  0  0  0  0  0  0  0  0  0
  141.1280   71.6110  221.5540 O   0  0  0  0  0  0  0  0  0  0  0  0
  140.1880   71.1660  223.6960 C   0  0  0  0  0  0  0  0  0  0  0  0
  139.5280   69.9560  223.6260 C   0  0  0  0  0  0  0  0  0  0  0  0
  139.3440   69.1300  224.7160 C   0  0  0  0  0  0  0  0  0  0  0  0
  139.8670   69.5800  225.9220 C   0  0  0  0  0  0  0  0  0  0  0  0
  139.7240   68.8050  227.0670 C   0  0  0  0  0  0  0  0  0  0  0  0
  140.2470   69.2610  228.2630 C   0  0  0  0  0  0  0  0  0  0  0  0
  140.0830   68.4740  229.3500 F   0  0  0  0  0  0  0  0  0  0  0  0
  140.9080   70.4660  228.3450 C   0  0  0  0  0  0  0  0  0  0  0  0
  141.0510   71.2380  227.2030 C   0  0  0  0  0  0  0  0  0  0  0  0
  140.5320   70.7930  226.0030 C   0  0  0  0  0  0  0  0  0  0  0  0
  140.6790   71.5630  224.8850 N   0  0  0  0  0  0  0  0  0  0  0  0
  142.0481   78.3157  217.9902 H   0  0  0  0  0  0  0  0  0  0  0  0
  143.5391   77.5071  217.3987 H   0  0  0  0  0  0  0  0  0  0  0  0
  141.9765   76.6210  217.3987 H   0  0  0  0  0  0  0  0  0  0  0  0
  143.4238   77.6493  219.8512 H   0  0  0  0  0  0  0  0  0  0  0  0
  141.8952   76.6429  219.7704 H   0  0  0  0  0  0  0  0  0  0  0  0
  143.4336   75.0649  218.4363 H   0  0  0  0  0  0  0  0  0  0  0  0
  144.6924   75.9777  219.4881 H   0  0  0  0  0  0  0  0  0  0  0  0
  143.8236   75.2678  221.3435 H   0  0  0  0  0  0  0  0  0  0  0  0
  145.2477   73.5424  220.1816 H   0  0  0  0  0  0  0  0  0  0  0  0
  144.1920   72.9292  221.4718 H   0  0  0  0  0  0  0  0  0  0  0  0
  144.0343   72.4183  218.5051 H   0  0  0  0  0  0  0  0  0  0  0  0
  142.5480   71.1150  220.5430 H   0  0  0  0  0  0  0  0  0  0  0  0
  142.0234   73.6076  218.3667 H   0  0  0  0  0  0  0  0  0  0  0  0
  141.3536   72.4181  219.5181 H   0  0  0  0  0  0  0  0  0  0  0  0
  138.8645   74.5745  220.9570 H   0  0  0  0  0  0  0  0  0  0  0  0
  139.7621   73.1726  220.2542 H   0  0  0  0  0  0  0  0  0  0  0  0
  138.8610   73.4440  223.0770 H   0  0  0  0  0  0  0  0  0  0  0  0
  139.1287   69.6340  222.6529 H   0  0  0  0  0  0  0  0  0  0  0  0
  138.8134   68.1699  224.6347 H   0  0  0  0  0  0  0  0  0  0  0  0
  139.2001   67.8388  227.0221 H   0  0  0  0  0  0  0  0  0  0  0  0
  141.3177   70.8118  229.3055 H   0  0  0  0  0  0  0  0  0  0  0  0
  141.5767   72.2030  227.2522 H   0  0  0  0  0  0  0  0  0  0  0  0
  1  2  1  0
  2  3  1  0
  3  4  1  0
  4  5  1  0
  5  6  1  0
  6  7  1  0
  6  8  1  0
  8  9  1  0
  9 10  1  0
 10 11  2  0
 10 12  1  0
 12 13  1  0
 13 14  1  0
 14 15  2  0
 14 16  1  0
 16 17  2  0
 17 18  1  0
 18 19  2  0
 19 20  1  0
 20 21  2  0
 21 22  1  0
 21 23  1  0
 23 24  2  0
 24 25  1  0
 25 26  2  0
  9  4  1  0
 26 16  1  0
 25 19  1  0
  1 27  1  0
  1 28  1  0
  1 29  1  0
  2 30  1  0
  2 31  1  0
  3 32  1  0
  3 33  1  0
  4 34  1  1
  5 35  1  0
  5 36  1  0
  6 37  1  6
  7 38  1  0
  8 39  1  0
  8 40  1  0
 12 41  1  0
 12 42  1  0
 13 43  1  0
 17 44  1  0
 18 45  1  0
 20 46  1  0
 23 47  1  0
 24 48  1  0
M  END
>  <smiles>  (35) 
CCC[C@@H]1C[C@@H](O)CN1C(=O)CNC(=O)c1ccc2cc(F)ccc2n1

>  <score_type>  (35) 
oracle

>  <origin>  (35) 
autodockgpu

>  <m_score__min__energy>  (35) 
-7.4800000000000004

>  <m_primary>  (35) 
energy

>  <rmsd>  (35) 
2.3720911590257114

>  <m_score__min__rmsd>  (35) 
2.3720911590257114

>  <meeko>  (35) 
{"free_energy": -6.44, "intermolecular_energy": -8.52, "internal_energy": -2.0, "cluster_size": 23, "cluster_id": 1, "rank_in_cluster": 15}

>  <energy>  (35) 
-7.09

>  <cluster_rmsd>  (35) 
0.41

>  <cluster>  (35) 
3

$$$$

     RDKit          3D

 48 50  0  0  0  0  0  0  0  0999 V2000
  141.8260   77.8170  219.6860 C   0  0  0  0  0  0  0  0  0  0  0  0
  142.9010   77.3600  218.7640 C   0  0  0  0  0  0  0  0  0  0  0  0
  143.1520   75.9050  218.8030 C   0  0  0  0  0  0  0  0  0  0  0  0
  143.3580   75.2340  220.0990 C   0  0  2  0  0  0  0  0  0  0  0  0
  144.3750   74.1650  220.2140 C   0  0  0  0  0  0  0  0  0  0  0  0
  143.7990   72.9410  219.5340 C   0  0  1  0  0  0  0  0  0  0  0  0
  144.0610   71.7800  220.2970 O   0  0  0  0  0  0  0  0  0  0  0  0
  142.3270   73.2430  219.5560 C   0  0  0  0  0  0  0  0  0  0  0  0
  142.1250   74.4420  220.3490 N   0  0  0  0  0  0  0  0  0  0  0  0
  141.0320   74.8090  221.1760 C   0  0  0  0  0  0  0  0  0  0  0  0
  141.1690   75.7880  221.9240 O   0  0  0  0  0  0  0  0  0  0  0  0
  139.7940   74.0220  221.1100 C   0  0  0  0  0  0  0  0  0  0  0  0
  139.5980   73.2670  222.3230 N   0  0  0  0  0  0  0  0  0  0  0  0
  140.4030   72.0880  222.4860 C   0  0  0  0  0  0  0  0  0  0  0  0
  141.2330   71.7630  221.5800 O   0  0  0  0  0  0  0  0  0  0  0  0
  140.2520   71.2790  223.6950 C   0  0  0  0  0  0  0  0  0  0  0  0
  139.5930   70.0710  223.6010 C   0  0  0  0  0  0  0  0  0  0  0  0
  139.3960   69.2310  224.6780 C   0  0  0  0  0  0  0  0  0  0  0  0
  139.9030   69.6640  225.8960 C   0  0  0  0  0  0  0  0  0  0  0  0
  139.7460   68.8750  227.0290 C   0  0  0  0  0  0  0  0  0  0  0  0
  140.2540   69.3150  228.2370 C   0  0  0  0  0  0  0  0  0  0  0  0
  140.0760   68.5140  229.3120 F   0  0  0  0  0  0  0  0  0  0  0  0
  140.9140   70.5200  228.3430 C   0  0  0  0  0  0  0  0  0  0  0  0
  141.0710   71.3060  227.2130 C   0  0  0  0  0  0  0  0  0  0  0  0
  140.5670   70.8760  226.0010 C   0  0  0  0  0  0  0  0  0  0  0  0
  140.7280   71.6610  224.8950 N   0  0  0  0  0  0  0  0  0  0  0  0
  142.1525   77.6782  220.7272 H   0  0  0  0  0  0  0  0  0  0  0  0
  141.6168   78.8819  219.5061 H   0  0  0  0  0  0  0  0  0  0  0  0
  140.9141   77.2287  219.5061 H   0  0  0  0  0  0  0  0  0  0  0  0
  142.6150   77.6336  217.7377 H   0  0  0  0  0  0  0  0  0  0  0  0
  143.8293   77.8505  219.0920 H   0  0  0  0  0  0  0  0  0  0  0  0
  142.2878   75.4193  218.3261 H   0  0  0  0  0  0  0  0  0  0  0  0
  144.1258   75.7996  218.3023 H   0  0  0  0  0  0  0  0  0  0  0  0
  143.6510   76.0652  220.7573 H   0  0  0  0  0  0  0  0  0  0  0  0
  145.3062   74.4725  219.7157 H   0  0  0  0  0  0  0  0  0  0  0  0
  144.6127   73.9570  221.2677 H   0  0  0  0  0  0  0  0  0  0  0  0
  144.2121   72.7531  218.5320 H   0  0  0  0  0  0  0  0  0  0  0  0
  143.2740   71.5400  220.8660 H   0  0  0  0  0  0  0  0  0  0  0  0
  141.9649   73.4086  218.5306 H   0  0  0  0  0  0  0  0  0  0  0  0
  141.7712   72.3996  219.9916 H   0  0  0  0  0  0  0  0  0  0  0  0
  138.9418   74.7028  220.9680 H   0  0  0  0  0  0  0  0  0  0  0  0
  139.8693   73.3191  220.2672 H   0  0  0  0  0  0  0  0  0  0  0  0
  138.9050   73.5440  223.0710 H   0  0  0  0  0  0  0  0  0  0  0  0
  139.2053   69.7619  222.6191 H   0  0  0  0  0  0  0  0  0  0  0  0
  138.8668   68.2719  224.5772 H   0  0  0  0  0  0  0  0  0  0  0  0
  139.2226   67.9096  226.9653 H   0  0  0  0  0  0  0  0  0  0  0  0
  141.3113   70.8537  229.3129 H   0  0  0  0  0  0  0  0  0  0  0  0
  141.5958   72.2703  227.2808 H   0  0  0  0  0  0  0  0  0  0  0  0
  1  2  1  0
  2  3  1  0
  3  4  1  0
  4  5  1  0
  5  6  1  0
  6  7  1  0
  6  8  1  0
  8  9  1  0
  9 10  1  0
 10 11  2  0
 10 12  1  0
 12 13  1  0
 13 14  1  0
 14 15  2  0
 14 16  1  0
 16 17  2  0
 17 18  1  0
 18 19  2  0
 19 20  1  0
 20 21  2  0
 21 22  1  0
 21 23  1  0
 23 24  2  0
 24 25  1  0
 25 26  2  0
  9  4  1  0
 26 16  1  0
 25 19  1  0
  1 27  1  0
  1 28  1  0
  1 29  1  0
  2 30  1  0
  2 31  1  0
  3 32  1  0
  3 33  1  0
  4 34  1  1
  5 35  1  0
  5 36  1  0
  6 37  1  6
  7 38  1  0
  8 39  1  0
  8 40  1  0
 12 41  1  0
 12 42  1  0
 13 43  1  0
 17 44  1  0
 18 45  1  0
 20 46  1  0
 23 47  1  0
 24 48  1  0
M  END
>  <smiles>  (36) 
CCC[C@@H]1C[C@@H](O)CN1C(=O)CNC(=O)c1ccc2cc(F)ccc2n1

>  <score_type>  (36) 
oracle

>  <origin>  (36) 
autodockgpu

>  <m_score__min__energy>  (36) 
-7.4800000000000004

>  <m_primary>  (36) 
energy

>  <rmsd>  (36) 
2.2325188051091223

>  <m_score__min__rmsd>  (36) 
2.2325188051091223

>  <meeko>  (36) 
{"free_energy": -6.59, "intermolecular_energy": -8.68, "internal_energy": -1.87, "cluster_size": 23, "cluster_id": 1, "rank_in_cluster": 12}

>  <energy>  (36) 
-7.09

>  <cluster_rmsd>  (36) 
0.37

>  <cluster>  (36) 
3

$$$$

     RDKit          3D

 48 50  0  0  0  0  0  0  0  0999 V2000
  140.7170   71.4980  227.7480 C   0  0  0  0  0  0  0  0  0  0  0  0
  141.3840   71.8170  226.4560 C   0  0  0  0  0  0  0  0  0  0  0  0
  140.8910   71.0260  225.3100 C   0  0  0  0  0  0  0  0  0  0  0  0
  139.4630   71.0730  224.9490 C   0  0  2  0  0  0  0  0  0  0  0  0
  138.6020   69.9020  225.2250 C   0  0  0  0  0  0  0  0  0  0  0  0
  138.9520   68.8510  224.1930 C   0  0  1  0  0  0  0  0  0  0  0  0
  137.7820   68.2330  223.6970 O   0  0  0  0  0  0  0  0  0  0  0  0
  139.5870   69.6810  223.1130 C   0  0  0  0  0  0  0  0  0  0  0  0
  139.4190   71.0800  223.4640 N   0  0  0  0  0  0  0  0  0  0  0  0
  139.2490   72.2110  222.6230 C   0  0  0  0  0  0  0  0  0  0  0  0
  140.2140   72.9730  222.4670 O   0  0  0  0  0  0  0  0  0  0  0  0
  137.9470   72.4280  221.9770 C   0  0  0  0  0  0  0  0  0  0  0  0
  137.0110   73.0280  222.8950 N   0  0  0  0  0  0  0  0  0  0  0  0
  136.1370   72.1330  223.6020 C   0  0  0  0  0  0  0  0  0  0  0  0
  136.2190   70.8820  223.3960 O   0  0  0  0  0  0  0  0  0  0  0  0
  135.1640   72.6800  224.5480 C   0  0  0  0  0  0  0  0  0  0  0  0
  134.3050   71.8080  225.1860 C   0  0  0  0  0  0  0  0  0  0  0  0
  133.3520   72.2180  226.0960 C   0  0  0  0  0  0  0  0  0  0  0  0
  133.2900   73.5820  226.3500 C   0  0  0  0  0  0  0  0  0  0  0  0
  132.3560   74.0740  227.2540 C   0  0  0  0  0  0  0  0  0  0  0  0
  132.3020   75.4330  227.4990 C   0  0  0  0  0  0  0  0  0  0  0  0
  131.3770   75.8660  228.3860 F   0  0  0  0  0  0  0  0  0  0  0  0
  133.1540   76.3120  226.8680 C   0  0  0  0  0  0  0  0  0  0  0  0
  134.0850   75.8210  225.9670 C   0  0  0  0  0  0  0  0  0  0  0  0
  134.1480   74.4650  225.7140 C   0  0  0  0  0  0  0  0  0  0  0  0
  135.0700   73.9940  224.8240 N   0  0  0  0  0  0  0  0  0  0  0  0
  141.3647   71.8078  228.5813 H   0  0  0  0  0  0  0  0  0  0  0  0
  139.7592   72.0355  227.8087 H   0  0  0  0  0  0  0  0  0  0  0  0
  140.5342   70.4150  227.8087 H   0  0  0  0  0  0  0  0  0  0  0  0
  141.2196   72.8823  226.2364 H   0  0  0  0  0  0  0  0  0  0  0  0
  142.4482   71.5672  226.5788 H   0  0  0  0  0  0  0  0  0  0  0  0
  141.4543   71.3602  224.4262 H   0  0  0  0  0  0  0  0  0  0  0  0
  141.0381   69.9856  225.6355 H   0  0  0  0  0  0  0  0  0  0  0  0
  139.0916   71.9237  225.5392 H   0  0  0  0  0  0  0  0  0  0  0  0
  138.7968   69.5186  226.2375 H   0  0  0  0  0  0  0  0  0  0  0  0
  137.5372   70.1721  225.1689 H   0  0  0  0  0  0  0  0  0  0  0  0
  139.5885   68.0420  224.5809 H   0  0  0  0  0  0  0  0  0  0  0  0
  137.0910   68.9150  223.4590 H   0  0  0  0  0  0  0  0  0  0  0  0
  140.6579   69.4409  223.0389 H   0  0  0  0  0  0  0  0  0  0  0  0
  139.1138   69.4714  222.1424 H   0  0  0  0  0  0  0  0  0  0  0  0
  138.0807   73.0944  221.1121 H   0  0  0  0  0  0  0  0  0  0  0  0
  137.5482   71.4550  221.6543 H   0  0  0  0  0  0  0  0  0  0  0  0
  136.9490   74.0700  223.0600 H   0  0  0  0  0  0  0  0  0  0  0  0
  134.3839   70.7348  224.9581 H   0  0  0  0  0  0  0  0  0  0  0  0
  132.6787   71.5039  226.5927 H   0  0  0  0  0  0  0  0  0  0  0  0
  131.6668   73.3887  227.7692 H   0  0  0  0  0  0  0  0  0  0  0  0
  133.0961   77.3905  227.0767 H   0  0  0  0  0  0  0  0  0  0  0  0
  134.7725   76.5099  225.4543 H   0  0  0  0  0  0  0  0  0  0  0  0
  1  2  1  0
  2  3  1  0
  3  4  1  0
  4  5  1  0
  5  6  1  0
  6  7  1  0
  6  8  1  0
  8  9  1  0
  9 10  1  0
 10 11  2  0
 10 12  1  0
 12 13  1  0
 13 14  1  0
 14 15  2  0
 14 16  1  0
 16 17  2  0
 17 18  1  0
 18 19  2  0
 19 20  1  0
 20 21  2  0
 21 22  1  0
 21 23  1  0
 23 24  2  0
 24 25  1  0
 25 26  2  0
  9  4  1  0
 26 16  1  0
 25 19  1  0
  1 27  1  0
  1 28  1  0
  1 29  1  0
  2 30  1  0
  2 31  1  0
  3 32  1  0
  3 33  1  0
  4 34  1  1
  5 35  1  0
  5 36  1  0
  6 37  1  1
  7 38  1  0
  8 39  1  0
  8 40  1  0
 12 41  1  0
 12 42  1  0
 13 43  1  0
 17 44  1  0
 18 45  1  0
 20 46  1  0
 23 47  1  0
 24 48  1  0
M  END
>  <smiles>  (37) 
CCC[C@@H]1C[C@@H](O)CN1C(=O)CNC(=O)c1ccc2cc(F)ccc2n1

>  <score_type>  (37) 
oracle

>  <origin>  (37) 
autodockgpu

>  <m_score__min__energy>  (37) 
-7.4800000000000004

>  <m_primary>  (37) 
energy

>  <rmsd>  (37) 
7.4820236407968075

>  <m_score__min__rmsd>  (37) 
7.4820236407968075

>  <meeko>  (37) 
{"free_energy": -5.76, "intermolecular_energy": -7.85, "internal_energy": -2.34, "cluster_size": 1, "cluster_id": 5, "rank_in_cluster": 1}

>  <energy>  (37) 
-7.04

>  <cluster_rmsd>  (37) 
0.51

>  <cluster>  (37) 
3

$$$$

     RDKit          3D

 48 50  0  0  0  0  0  0  0  0999 V2000
  141.5610   79.0890  223.7730 C   0  0  0  0  0  0  0  0  0  0  0  0
  142.1970   79.4370  222.4740 C   0  0  0  0  0  0  0  0  0  0  0  0
  141.4810   78.9150  221.2920 C   0  0  0  0  0  0  0  0  0  0  0  0
  141.8230   77.5850  220.7590 C   0  0  2  0  0  0  0  0  0  0  0  0
  142.4120   77.4700  219.4060 C   0  0  0  0  0  0  0  0  0  0  0  0
  141.2880   77.7100  218.4200 C   0  0  1  0  0  0  0  0  0  0  0  0
  141.3610   76.7890  217.3500 O   0  0  0  0  0  0  0  0  0  0  0  0
  140.0760   77.4210  219.2600 C   0  0  0  0  0  0  0  0  0  0  0  0
  140.5280   76.8900  220.5340 N   0  0  0  0  0  0  0  0  0  0  0  0
  139.9130   75.9390  221.3890 C   0  0  0  0  0  0  0  0  0  0  0  0
  139.2280   76.3590  222.3330 O   0  0  0  0  0  0  0  0  0  0  0  0
  140.1120   74.5080  221.1210 C   0  0  0  0  0  0  0  0  0  0  0  0
  139.9030   73.7270  222.3150 N   0  0  0  0  0  0  0  0  0  0  0  0
  140.4490   72.3980  222.3210 C   0  0  0  0  0  0  0  0  0  0  0  0
  141.0770   71.9730  221.3010 O   0  0  0  0  0  0  0  0  0  0  0  0
  140.2710   71.5550  223.5020 C   0  0  0  0  0  0  0  0  0  0  0  0
  139.6290   70.3420  223.3550 C   0  0  0  0  0  0  0  0  0  0  0  0
  139.4090   69.4710  224.4030 C   0  0  0  0  0  0  0  0  0  0  0  0
  139.8750   69.8770  225.6470 C   0  0  0  0  0  0  0  0  0  0  0  0
  139.6930   69.0550  226.7530 C   0  0  0  0  0  0  0  0  0  0  0  0
  140.1590   69.4680  227.9870 C   0  0  0  0  0  0  0  0  0  0  0  0
  139.9580   68.6360  229.0350 F   0  0  0  0  0  0  0  0  0  0  0  0
  140.8020   70.6760  228.1460 C   0  0  0  0  0  0  0  0  0  0  0  0
  140.9830   71.4950  227.0430 C   0  0  0  0  0  0  0  0  0  0  0  0
  140.5210   71.0920  225.8050 C   0  0  0  0  0  0  0  0  0  0  0  0
  140.7060   71.9080  224.7260 N   0  0  0  0  0  0  0  0  0  0  0  0
  142.1987   79.4379  224.5986 H   0  0  0  0  0  0  0  0  0  0  0  0
  140.5759   79.5738  223.8405 H   0  0  0  0  0  0  0  0  0  0  0  0
  141.4381   77.9980  223.8405 H   0  0  0  0  0  0  0  0  0  0  0  0
  142.2419   80.5332  222.3942 H   0  0  0  0  0  0  0  0  0  0  0  0
  143.1927   78.9694  222.4734 H   0  0  0  0  0  0  0  0  0  0  0  0
  140.4125   78.8891  221.5523 H   0  0  0  0  0  0  0  0  0  0  0  0
  141.7849   79.5993  220.4862 H   0  0  0  0  0  0  0  0  0  0  0  0
  142.5559   77.2132  221.4902 H   0  0  0  0  0  0  0  0  0  0  0  0
  143.2019   78.2236  219.2711 H   0  0  0  0  0  0  0  0  0  0  0  0
  142.8659   76.4794  219.2550 H   0  0  0  0  0  0  0  0  0  0  0  0
  141.3007   78.7122  217.9668 H   0  0  0  0  0  0  0  0  0  0  0  0
  141.7930   77.2040  216.5500 H   0  0  0  0  0  0  0  0  0  0  0  0
  139.5056   78.3473  219.4231 H   0  0  0  0  0  0  0  0  0  0  0  0
  139.4246   76.6940  218.7529 H   0  0  0  0  0  0  0  0  0  0  0  0
  139.3987   74.1836  220.3490 H   0  0  0  0  0  0  0  0  0  0  0  0
  141.1458   74.3552  220.7775 H   0  0  0  0  0  0  0  0  0  0  0  0
  139.3790   74.0890  223.1590 H   0  0  0  0  0  0  0  0  0  0  0  0
  139.2753   70.0554  222.3536 H   0  0  0  0  0  0  0  0  0  0  0  0
  138.8937   68.5096  224.2610 H   0  0  0  0  0  0  0  0  0  0  0  0
  139.1834   68.0859  226.6473 H   0  0  0  0  0  0  0  0  0  0  0  0
  141.1671   70.9865  229.1361 H   0  0  0  0  0  0  0  0  0  0  0  0
  141.4931   72.4633  227.1529 H   0  0  0  0  0  0  0  0  0  0  0  0
  1  2  1  0
  2  3  1  0
  3  4  1  0
  4  5  1  0
  5  6  1  0
  6  7  1  0
  6  8  1  0
  8  9  1  0
  9 10  1  0
 10 11  2  0
 10 12  1  0
 12 13  1  0
 13 14  1  0
 14 15  2  0
 14 16  1  0
 16 17  2  0
 17 18  1  0
 18 19  2  0
 19 20  1  0
 20 21  2  0
 21 22  1  0
 21 23  1  0
 23 24  2  0
 24 25  1  0
 25 26  2  0
  9  4  1  0
 26 16  1  0
 25 19  1  0
  1 27  1  0
  1 28  1  0
  1 29  1  0
  2 30  1  0
  2 31  1  0
  3 32  1  0
  3 33  1  0
  4 34  1  1
  5 35  1  0
  5 36  1  0
  6 37  1  6
  7 38  1  0
  8 39  1  0
  8 40  1  0
 12 41  1  0
 12 42  1  0
 13 43  1  0
 17 44  1  0
 18 45  1  0
 20 46  1  0
 23 47  1  0
 24 48  1  0
M  END
>  <smiles>  (38) 
CCC[C@@H]1C[C@@H](O)CN1C(=O)CNC(=O)c1ccc2cc(F)ccc2n1

>  <score_type>  (38) 
oracle

>  <origin>  (38) 
autodockgpu

>  <m_score__min__energy>  (38) 
-7.4800000000000004

>  <m_primary>  (38) 
energy

>  <rmsd>  (38) 
2.7818034334350275

>  <m_score__min__rmsd>  (38) 
2.7818034334350275

>  <meeko>  (38) 
{"free_energy": -6.63, "intermolecular_energy": -8.72, "internal_energy": -1.36, "cluster_size": 18, "cluster_id": 3, "rank_in_cluster": 17}

>  <energy>  (38) 
-7.02

>  <cluster_rmsd>  (38) 
1.95

>  <cluster>  (38) 
3

$$$$

     RDKit          3D

 48 50  0  0  0  0  0  0  0  0999 V2000
  142.9990   80.4840  222.8590 C   0  0  0  0  0  0  0  0  0  0  0  0
  142.0210   80.0810  223.9050 C   0  0  0  0  0  0  0  0  0  0  0  0
  140.7120   79.6480  223.3750 C   0  0  0  0  0  0  0  0  0  0  0  0
  140.5360   78.2620  222.9060 C   0  0  2  0  0  0  0  0  0  0  0  0
  141.4240   77.7300  221.8500 C   0  0  0  0  0  0  0  0  0  0  0  0
  140.9740   78.3560  220.5470 C   0  0  1  0  0  0  0  0  0  0  0  0
  140.9620   77.3930  219.5120 O   0  0  0  0  0  0  0  0  0  0  0  0
  139.5670   78.7690  220.8750 C   0  0  0  0  0  0  0  0  0  0  0  0
  139.2360   78.2380  222.1850 N   0  0  0  0  0  0  0  0  0  0  0  0
  137.9880   77.7920  222.6940 C   0  0  0  0  0  0  0  0  0  0  0  0
  137.1850   78.6450  223.1000 O   0  0  0  0  0  0  0  0  0  0  0  0
  137.7040   76.3510  222.7180 C   0  0  0  0  0  0  0  0  0  0  0  0
  138.9210   75.5840  222.6200 N   0  0  0  0  0  0  0  0  0  0  0  0
  139.3580   75.2320  221.2980 C   0  0  0  0  0  0  0  0  0  0  0  0
  138.6730   75.5990  220.2910 O   0  0  0  0  0  0  0  0  0  0  0  0
  140.5850   74.4550  221.1320 C   0  0  0  0  0  0  0  0  0  0  0  0
  140.5320   73.0900  221.3310 C   0  0  0  0  0  0  0  0  0  0  0  0
  141.6300   72.2640  221.1990 C   0  0  0  0  0  0  0  0  0  0  0  0
  142.8240   72.8800  220.8490 C   0  0  0  0  0  0  0  0  0  0  0  0
  143.9760   72.1170  220.6970 C   0  0  0  0  0  0  0  0  0  0  0  0
  145.1600   72.7390  220.3480 C   0  0  0  0  0  0  0  0  0  0  0  0
  146.2540   71.9560  220.2130 F   0  0  0  0  0  0  0  0  0  0  0  0
  145.2240   74.1000  220.1470 C   0  0  0  0  0  0  0  0  0  0  0  0
  144.0760   74.8610  220.2980 C   0  0  0  0  0  0  0  0  0  0  0  0
  142.8880   74.2500  220.6470 C   0  0  0  0  0  0  0  0  0  0  0  0
  141.7630   75.0110  220.7920 N   0  0  0  0  0  0  0  0  0  0  0  0
  143.9143   80.8612  223.3386 H   0  0  0  0  0  0  0  0  0  0  0  0
  143.2451   79.6140  222.2325 H   0  0  0  0  0  0  0  0  0  0  0  0
  142.5608   81.2748  222.2325 H   0  0  0  0  0  0  0  0  0  0  0  0
  142.4534   79.2482  224.4791 H   0  0  0  0  0  0  0  0  0  0  0  0
  141.8332   80.9718  224.5224 H   0  0  0  0  0  0  0  0  0  0  0  0
  139.9746   79.8100  224.1750 H   0  0  0  0  0  0  0  0  0  0  0  0
  140.5969   80.2450  222.4583 H   0  0  0  0  0  0  0  0  0  0  0  0
  140.6966   77.6748  223.8222 H   0  0  0  0  0  0  0  0  0  0  0  0
  142.4688   78.0023  222.0605 H   0  0  0  0  0  0  0  0  0  0  0  0
  141.3680   76.6325  221.8018 H   0  0  0  0  0  0  0  0  0  0  0  0
  141.6212   79.1752  220.2004 H   0  0  0  0  0  0  0  0  0  0  0  0
  140.5600   76.5330  219.8270 H   0  0  0  0  0  0  0  0  0  0  0  0
  139.4938   79.8665  220.8879 H   0  0  0  0  0  0  0  0  0  0  0  0
  138.8692   78.3807  220.1185 H   0  0  0  0  0  0  0  0  0  0  0  0
  137.1953   76.1000  223.6605 H   0  0  0  0  0  0  0  0  0  0  0  0
  137.0639   76.1050  221.8579 H   0  0  0  0  0  0  0  0  0  0  0  0
  139.4840   75.2830  223.4630 H   0  0  0  0  0  0  0  0  0  0  0  0
  139.5679   72.6386  221.6082 H   0  0  0  0  0  0  0  0  0  0  0  0
  141.5628   71.1782  221.3620 H   0  0  0  0  0  0  0  0  0  0  0  0
  143.9456   71.0285  220.8530 H   0  0  0  0  0  0  0  0  0  0  0  0
  146.1755   74.5773  219.8698 H   0  0  0  0  0  0  0  0  0  0  0  0
  144.1110   75.9491  220.1403 H   0  0  0  0  0  0  0  0  0  0  0  0
  1  2  1  0
  2  3  1  0
  3  4  1  0
  4  5  1  0
  5  6  1  0
  6  7  1  0
  6  8  1  0
  8  9  1  0
  9 10  1  0
 10 11  2  0
 10 12  1  0
 12 13  1  0
 13 14  1  0
 14 15  2  0
 14 16  1  0
 16 17  2  0
 17 18  1  0
 18 19  2  0
 19 20  1  0
 20 21  2  0
 21 22  1  0
 21 23  1  0
 23 24  2  0
 24 25  1  0
 25 26  2  0
  9  4  1  0
 26 16  1  0
 25 19  1  0
  1 27  1  0
  1 28  1  0
  1 29  1  0
  2 30  1  0
  2 31  1  0
  3 32  1  0
  3 33  1  0
  4 34  1  1
  5 35  1  0
  5 36  1  0
  6 37  1  6
  7 38  1  0
  8 39  1  0
  8 40  1  0
 12 41  1  0
 12 42  1  0
 13 43  1  0
 17 44  1  0
 18 45  1  0
 20 46  1  0
 23 47  1  0
 24 48  1  0
M  END
>  <smiles>  (39) 
CCC[C@@H]1C[C@@H](O)CN1C(=O)CNC(=O)c1ccc2cc(F)ccc2n1

>  <score_type>  (39) 
oracle

>  <origin>  (39) 
autodockgpu

>  <m_score__min__energy>  (39) 
-7.4800000000000004

>  <m_primary>  (39) 
energy

>  <rmsd>  (39) 
6.193639970502379

>  <m_score__min__rmsd>  (39) 
6.193639970502379

>  <meeko>  (39) 
{"free_energy": -5.12, "intermolecular_energy": -7.21, "internal_energy": -2.96, "cluster_size": 2, "cluster_id": 6, "rank_in_cluster": 2}

>  <energy>  (39) 
-6.82

>  <cluster_rmsd>  (39) 
1.48

>  <cluster>  (39) 
3

$$$$

     RDKit          3D

 48 50  0  0  0  0  0  0  0  0999 V2000
  146.1560   73.3720  221.3820 C   0  0  0  0  0  0  0  0  0  0  0  0
  144.8000   73.2690  220.7770 C   0  0  0  0  0  0  0  0  0  0  0  0
  144.1830   74.5710  220.4530 C   0  0  0  0  0  0  0  0  0  0  0  0
  142.9170   74.6130  219.6990 C   0  0  2  0  0  0  0  0  0  0  0  0
  142.9070   75.1460  218.3190 C   0  0  0  0  0  0  0  0  0  0  0  0
  143.0290   76.6500  218.4320 C   0  0  1  0  0  0  0  0  0  0  0  0
  142.1490   77.2900  217.5300 O   0  0  0  0  0  0  0  0  0  0  0  0
  142.5740   76.8890  219.8440 C   0  0  0  0  0  0  0  0  0  0  0  0
  142.0740   75.6330  220.3740 N   0  0  0  0  0  0  0  0  0  0  0  0
  141.0350   75.3940  221.3110 C   0  0  0  0  0  0  0  0  0  0  0  0
  140.9560   76.1400  222.2980 O   0  0  0  0  0  0  0  0  0  0  0  0
  140.1030   74.2840  221.0720 C   0  0  0  0  0  0  0  0  0  0  0  0
  139.8740   73.5340  222.2820 N   0  0  0  0  0  0  0  0  0  0  0  0
  140.5220   72.2550  222.3810 C   0  0  0  0  0  0  0  0  0  0  0  0
  141.2500   71.8440  221.4250 O   0  0  0  0  0  0  0  0  0  0  0  0
  140.3290   71.4460  223.5840 C   0  0  0  0  0  0  0  0  0  0  0  0
  139.6850   70.2320  223.4650 C   0  0  0  0  0  0  0  0  0  0  0  0
  139.4530   69.3910  224.5350 C   0  0  0  0  0  0  0  0  0  0  0  0
  139.9060   69.8300  225.7710 C   0  0  0  0  0  0  0  0  0  0  0  0
  139.7110   69.0410  226.8980 C   0  0  0  0  0  0  0  0  0  0  0  0
  140.1660   69.4870  228.1250 C   0  0  0  0  0  0  0  0  0  0  0  0
  139.9520   68.6850  229.1930 F   0  0  0  0  0  0  0  0  0  0  0  0
  140.8100   70.6970  228.2560 C   0  0  0  0  0  0  0  0  0  0  0  0
  141.0050   71.4840  227.1320 C   0  0  0  0  0  0  0  0  0  0  0  0
  140.5540   71.0480  225.9020 C   0  0  0  0  0  0  0  0  0  0  0  0
  140.7530   71.8330  224.8020 N   0  0  0  0  0  0  0  0  0  0  0  0
  146.0697   73.3654  222.4786 H   0  0  0  0  0  0  0  0  0  0  0  0
  146.7683   72.5178  221.0573 H   0  0  0  0  0  0  0  0  0  0  0  0
  146.6322   74.3089  221.0573 H   0  0  0  0  0  0  0  0  0  0  0  0
  144.8796   72.6841  219.8488 H   0  0  0  0  0  0  0  0  0  0  0  0
  144.1538   72.7901  221.5274 H   0  0  0  0  0  0  0  0  0  0  0  0
  144.0020   75.0846  221.4087 H   0  0  0  0  0  0  0  0  0  0  0  0
  144.9061   75.0322  219.7643 H   0  0  0  0  0  0  0  0  0  0  0  0
  142.6211   73.5541  219.6646 H   0  0  0  0  0  0  0  0  0  0  0  0
  143.7553   74.7387  217.7493 H   0  0  0  0  0  0  0  0  0  0  0  0
  141.9837   74.8627  217.7925 H   0  0  0  0  0  0  0  0  0  0  0  0
  144.0352   77.0321  218.2052 H   0  0  0  0  0  0  0  0  0  0  0  0
  141.2450   77.4150  217.9400 H   0  0  0  0  0  0  0  0  0  0  0  0
  143.4191   77.2412  220.4537 H   0  0  0  0  0  0  0  0  0  0  0  0
  141.7840   77.6541  219.8661 H   0  0  0  0  0  0  0  0  0  0  0  0
  139.1454   74.6889  220.7127 H   0  0  0  0  0  0  0  0  0  0  0  0
  140.5426   73.6120  220.3202 H   0  0  0  0  0  0  0  0  0  0  0  0
  139.2670   73.8840  223.0730 H   0  0  0  0  0  0  0  0  0  0  0  0
  139.3394   69.9186  222.4688 H   0  0  0  0  0  0  0  0  0  0  0  0
  138.9378   68.4266  224.4145 H   0  0  0  0  0  0  0  0  0  0  0  0
  139.1995   68.0707  226.8147 H   0  0  0  0  0  0  0  0  0  0  0  0
  141.1653   71.0348  229.2407 H   0  0  0  0  0  0  0  0  0  0  0  0
  141.5177   72.4533  227.2196 H   0  0  0  0  0  0  0  0  0  0  0  0
  1  2  1  0
  2  3  1  0
  3  4  1  0
  4  5  1  0
  5  6  1  0
  6  7  1  0
  6  8  1  0
  8  9  1  0
  9 10  1  0
 10 11  2  0
 10 12  1  0
 12 13  1  0
 13 14  1  0
 14 15  2  0
 14 16  1  0
 16 17  2  0
 17 18  1  0
 18 19  2  0
 19 20  1  0
 20 21  2  0
 21 22  1  0
 21 23  1  0
 23 24  2  0
 24 25  1  0
 25 26  2  0
  9  4  1  0
 26 16  1  0
 25 19  1  0
  1 27  1  0
  1 28  1  0
  1 29  1  0
  2 30  1  0
  2 31  1  0
  3 32  1  0
  3 33  1  0
  4 34  1  6
  5 35  1  0
  5 36  1  0
  6 37  1  1
  7 38  1  0
  8 39  1  0
  8 40  1  0
 12 41  1  0
 12 42  1  0
 13 43  1  0
 17 44  1  0
 18 45  1  0
 20 46  1  0
 23 47  1  0
 24 48  1  0
M  END
>  <smiles>  (40) 
CCC[C@@H]1C[C@@H](O)CN1C(=O)CNC(=O)c1ccc2cc(F)ccc2n1

>  <score_type>  (40) 
oracle

>  <origin>  (40) 
autodockgpu

>  <m_score__min__energy>  (40) 
-7.4800000000000004

>  <m_primary>  (40) 
energy

>  <rmsd>  (40) 
3.0624977663160227

>  <m_score__min__rmsd>  (40) 
3.0624977663160227

>  <meeko>  (40) 
{"free_energy": -7.18, "intermolecular_energy": -9.27, "internal_energy": -1.29, "cluster_size": 18, "cluster_id": 3, "rank_in_cluster": 8}

>  <energy>  (40) 
-6.77

>  <cluster_rmsd>  (40) 
0.8

>  <cluster>  (40) 
3

$$$$

     RDKit          3D

 48 50  0  0  0  0  0  0  0  0999 V2000
  137.7020   80.9790  224.7440 C   0  0  0  0  0  0  0  0  0  0  0  0
  137.9080   81.3950  223.3300 C   0  0  0  0  0  0  0  0  0  0  0  0
  139.0590   80.7430  222.6710 C   0  0  0  0  0  0  0  0  0  0  0  0
  139.8630   79.7560  223.4130 C   0  0  2  0  0  0  0  0  0  0  0  0
  141.2670   80.0710  223.7600 C   0  0  0  0  0  0  0  0  0  0  0  0
  142.0690   79.9460  222.4830 C   0  0  1  0  0  0  0  0  0  0  0  0
  143.2940   79.2840  222.7290 O   0  0  0  0  0  0  0  0  0  0  0  0
  141.1790   79.0740  221.6440 C   0  0  0  0  0  0  0  0  0  0  0  0
  140.0790   78.6210  222.4780 N   0  0  0  0  0  0  0  0  0  0  0  0
  139.3580   77.3990  222.4420 C   0  0  0  0  0  0  0  0  0  0  0  0
  138.2710   77.3460  223.0350 O   0  0  0  0  0  0  0  0  0  0  0  0
  139.9250   76.2600  221.7090 C   0  0  0  0  0  0  0  0  0  0  0  0
  139.5980   75.0150  222.3590 N   0  0  0  0  0  0  0  0  0  0  0  0
  140.3330   73.8540  221.9380 C   0  0  0  0  0  0  0  0  0  0  0  0
  141.2180   73.9650  221.0330 O   0  0  0  0  0  0  0  0  0  0  0  0
  140.0480   72.5610  222.5600 C   0  0  0  0  0  0  0  0  0  0  0  0
  139.4100   71.5960  221.8080 C   0  0  0  0  0  0  0  0  0  0  0  0
  139.0950   70.3440  222.2960 C   0  0  0  0  0  0  0  0  0  0  0  0
  139.4570   70.0880  223.6120 C   0  0  0  0  0  0  0  0  0  0  0  0
  139.1740   68.8500  224.1780 C   0  0  0  0  0  0  0  0  0  0  0  0
  139.5380   68.6060  225.4890 C   0  0  0  0  0  0  0  0  0  0  0  0
  139.2420   67.3870  225.9960 F   0  0  0  0  0  0  0  0  0  0  0  0
  140.1750   69.5620  226.2480 C   0  0  0  0  0  0  0  0  0  0  0  0
  140.4570   70.7960  225.6840 C   0  0  0  0  0  0  0  0  0  0  0  0
  140.0980   71.0510  224.3750 C   0  0  0  0  0  0  0  0  0  0  0  0
  140.3810   72.2710  223.8320 N   0  0  0  0  0  0  0  0  0  0  0  0
  138.0885   81.7595  225.4159 H   0  0  0  0  0  0  0  0  0  0  0  0
  136.6277   80.8336  224.9306 H   0  0  0  0  0  0  0  0  0  0  0  0
  138.2375   80.0364  224.9306 H   0  0  0  0  0  0  0  0  0  0  0  0
  136.9992   81.1484  222.7614 H   0  0  0  0  0  0  0  0  0  0  0  0
  138.1202   82.4742  223.3445 H   0  0  0  0  0  0  0  0  0  0  0  0
  138.6678   80.2304  221.7799 H   0  0  0  0  0  0  0  0  0  0  0  0
  139.7621   81.5725  222.5046 H   0  0  0  0  0  0  0  0  0  0  0  0
  139.2936   79.6324  224.3460 H   0  0  0  0  0  0  0  0  0  0  0  0
  141.3394   81.0953  224.1544 H   0  0  0  0  0  0  0  0  0  0  0  0
  141.6462   79.3875  224.5339 H   0  0  0  0  0  0  0  0  0  0  0  0
  142.3252   80.9121  222.0236 H   0  0  0  0  0  0  0  0  0  0  0  0
  143.5100   78.6460  221.9900 H   0  0  0  0  0  0  0  0  0  0  0  0
  140.7888   79.6494  220.7915 H   0  0  0  0  0  0  0  0  0  0  0  0
  141.7434   78.2135  221.2554 H   0  0  0  0  0  0  0  0  0  0  0  0
  139.5177   76.2506  220.6872 H   0  0  0  0  0  0  0  0  0  0  0  0
  141.0195   76.3671  221.6855 H   0  0  0  0  0  0  0  0  0  0  0  0
  138.8600   74.9310  223.1110 H   0  0  0  0  0  0  0  0  0  0  0  0
  139.1393   71.8361  220.7692 H   0  0  0  0  0  0  0  0  0  0  0  0
  138.5855   69.5908  221.6770 H   0  0  0  0  0  0  0  0  0  0  0  0
  138.6657   68.0727  223.5886 H   0  0  0  0  0  0  0  0  0  0  0  0
  140.4567   69.3488  227.2897 H   0  0  0  0  0  0  0  0  0  0  0  0
  140.9654   71.5703  226.2773 H   0  0  0  0  0  0  0  0  0  0  0  0
  1  2  1  0
  2  3  1  0
  3  4  1  0
  4  5  1  0
  5  6  1  0
  6  7  1  0
  6  8  1  0
  8  9  1  0
  9 10  1  0
 10 11  2  0
 10 12  1  0
 12 13  1  0
 13 14  1  0
 14 15  2  0
 14 16  1  0
 16 17  2  0
 17 18  1  0
 18 19  2  0
 19 20  1  0
 20 21  2  0
 21 22  1  0
 21 23  1  0
 23 24  2  0
 24 25  1  0
 25 26  2  0
  9  4  1  0
 26 16  1  0
 25 19  1  0
  1 27  1  0
  1 28  1  0
  1 29  1  0
  2 30  1  0
  2 31  1  0
  3 32  1  0
  3 33  1  0
  4 34  1  1
  5 35  1  0
  5 36  1  0
  6 37  1  6
  7 38  1  0
  8 39  1  0
  8 40  1  0
 12 41  1  0
 12 42  1  0
 13 43  1  0
 17 44  1  0
 18 45  1  0
 20 46  1  0
 23 47  1  0
 24 48  1  0
M  END
>  <smiles>  (41) 
CCC[C@@H]1C[C@@H](O)CN1C(=O)CNC(=O)c1ccc2cc(F)ccc2n1

>  <score_type>  (41) 
oracle

>  <origin>  (41) 
autodockgpu

>  <m_score__min__energy>  (41) 
-7.4800000000000004

>  <m_primary>  (41) 
energy

>  <rmsd>  (41) 
4.358483462622617

>  <m_score__min__rmsd>  (41) 
4.358483462622617

>  <meeko>  (41) 
{"free_energy": -6.69, "intermolecular_energy": -8.78, "internal_energy": -1.26, "cluster_size": 4, "cluster_id": 4, "rank_in_cluster": 4}

>  <energy>  (41) 
-6.71

>  <cluster_rmsd>  (41) 
1.65

>  <cluster>  (41) 
3

$$$$

     RDKit          3D

 48 50  0  0  0  0  0  0  0  0999 V2000
  142.4670   77.4090  218.7310 C   0  0  0  0  0  0  0  0  0  0  0  0
  142.4060   76.1520  219.5260 C   0  0  0  0  0  0  0  0  0  0  0  0
  143.7180   75.5090  219.7410 C   0  0  0  0  0  0  0  0  0  0  0  0
  143.7910   74.2100  220.4320 C   0  0  2  0  0  0  0  0  0  0  0  0
  145.1090   73.6700  220.8360 C   0  0  0  0  0  0  0  0  0  0  0  0
  145.7800   73.1730  219.5730 C   0  0  1  0  0  0  0  0  0  0  0  0
  146.4120   71.9290  219.8030 O   0  0  0  0  0  0  0  0  0  0  0  0
  144.6060   72.9860  218.6540 C   0  0  0  0  0  0  0  0  0  0  0  0
  143.3940   73.1900  219.4270 N   0  0  0  0  0  0  0  0  0  0  0  0
  142.1180   72.5830  219.2880 C   0  0  0  0  0  0  0  0  0  0  0  0
  141.9590   71.7600  218.3750 O   0  0  0  0  0  0  0  0  0  0  0  0
  141.0490   72.9520  220.2260 C   0  0  0  0  0  0  0  0  0  0  0  0
  140.9790   72.0160  221.3210 N   0  0  0  0  0  0  0  0  0  0  0  0
  140.3670   72.4840  222.5330 C   0  0  0  0  0  0  0  0  0  0  0  0
  139.9240   73.6740  222.5940 O   0  0  0  0  0  0  0  0  0  0  0  0
  140.2650   71.5820  223.6800 C   0  0  0  0  0  0  0  0  0  0  0  0
  139.6490   70.3600  223.5040 C   0  0  0  0  0  0  0  0  0  0  0  0
  139.5010   69.4360  224.5170 C   0  0  0  0  0  0  0  0  0  0  0  0
  140.0110   69.7960  225.7570 C   0  0  0  0  0  0  0  0  0  0  0  0
  139.9010   68.9190  226.8300 C   0  0  0  0  0  0  0  0  0  0  0  0
  140.4120   69.2870  228.0600 C   0  0  0  0  0  0  0  0  0  0  0  0
  140.2810   68.4010  229.0750 F   0  0  0  0  0  0  0  0  0  0  0  0
  141.0290   70.5030  228.2480 C   0  0  0  0  0  0  0  0  0  0  0  0
  141.1390   71.3780  227.1790 C   0  0  0  0  0  0  0  0  0  0  0  0
  140.6320   71.0210  225.9440 C   0  0  0  0  0  0  0  0  0  0  0  0
  140.7460   71.8910  224.8990 N   0  0  0  0  0  0  0  0  0  0  0  0
  142.5089   78.2719  219.4120 H   0  0  0  0  0  0  0  0  0  0  0  0
  143.3657   77.3985  218.0968 H   0  0  0  0  0  0  0  0  0  0  0  0
  141.5715   77.4855  218.0968 H   0  0  0  0  0  0  0  0  0  0  0  0
  141.9710   76.3859  220.5089 H   0  0  0  0  0  0  0  0  0  0  0  0
  141.7959   75.4416  218.9489 H   0  0  0  0  0  0  0  0  0  0  0  0
  144.1703   75.3678  218.7483 H   0  0  0  0  0  0  0  0  0  0  0  0
  144.2287   76.1953  220.4324 H   0  0  0  0  0  0  0  0  0  0  0  0
  143.1946   74.3862  221.3394 H   0  0  0  0  0  0  0  0  0  0  0  0
  145.7159   74.4601  221.3022 H   0  0  0  0  0  0  0  0  0  0  0  0
  144.9965   72.8588  221.5703 H   0  0  0  0  0  0  0  0  0  0  0  0
  146.5576   73.8489  219.1878 H   0  0  0  0  0  0  0  0  0  0  0  0
  146.2730   71.6270  220.7470 H   0  0  0  0  0  0  0  0  0  0  0  0
  144.6535   73.7178  217.8342 H   0  0  0  0  0  0  0  0  0  0  0  0
  144.6172   71.9750  218.2207 H   0  0  0  0  0  0  0  0  0  0  0  0
  141.2504   73.9575  220.6241 H   0  0  0  0  0  0  0  0  0  0  0  0
  140.0893   72.9365  219.6887 H   0  0  0  0  0  0  0  0  0  0  0  0
  141.3500   71.0270  221.2610 H   0  0  0  0  0  0  0  0  0  0  0  0
  139.2568   70.1106  222.5070 H   0  0  0  0  0  0  0  0  0  0  0  0
  139.0063   68.4675  224.3517 H   0  0  0  0  0  0  0  0  0  0  0  0
  139.4122   67.9420  226.7012 H   0  0  0  0  0  0  0  0  0  0  0  0
  141.4300   70.7769  229.2350 H   0  0  0  0  0  0  0  0  0  0  0  0
  141.6285   72.3539  227.3131 H   0  0  0  0  0  0  0  0  0  0  0  0
  1  2  1  0
  2  3  1  0
  3  4  1  0
  4  5  1  0
  5  6  1  0
  6  7  1  0
  6  8  1  0
  8  9  1  0
  9 10  1  0
 10 11  2  0
 10 12  1  0
 12 13  1  0
 13 14  1  0
 14 15  2  0
 14 16  1  0
 16 17  2  0
 17 18  1  0
 18 19  2  0
 19 20  1  0
 20 21  2  0
 21 22  1  0
 21 23  1  0
 23 24  2  0
 24 25  1  0
 25 26  2  0
  9  4  1  0
 26 16  1  0
 25 19  1  0
  1 27  1  0
  1 28  1  0
  1 29  1  0
  2 30  1  0
  2 31  1  0
  3 32  1  0
  3 33  1  0
  4 34  1  1
  5 35  1  0
  5 36  1  0
  6 37  1  6
  7 38  1  0
  8 39  1  0
  8 40  1  0
 12 41  1  0
 12 42  1  0
 13 43  1  0
 17 44  1  0
 18 45  1  0
 20 46  1  0
 23 47  1  0
 24 48  1  0
M  END
>  <smiles>  (42) 
CCC[C@@H]1C[C@@H](O)CN1C(=O)CNC(=O)c1ccc2cc(F)ccc2n1

>  <score_type>  (42) 
oracle

>  <origin>  (42) 
autodockgpu

>  <m_score__min__energy>  (42) 
-7.4800000000000004

>  <m_primary>  (42) 
energy

>  <rmsd>  (42) 
3.1985187329504288

>  <m_score__min__rmsd>  (42) 
3.1985187329504288

>  <meeko>  (42) 
{"free_energy": -7.47, "intermolecular_energy": -9.56, "internal_energy": -1.11, "cluster_size": 23, "cluster_id": 1, "rank_in_cluster": 2}

>  <energy>  (42) 
-6.63

>  <cluster_rmsd>  (42) 
1.44

>  <cluster>  (42) 
3

$$$$

     RDKit          3D

 48 50  0  0  0  0  0  0  0  0999 V2000
  143.2900   76.6860  218.6180 C   0  0  0  0  0  0  0  0  0  0  0  0
  142.0220   77.4460  218.4510 C   0  0  0  0  0  0  0  0  0  0  0  0
  141.1570   77.4490  219.6480 C   0  0  0  0  0  0  0  0  0  0  0  0
  140.3780   76.2450  219.9910 C   0  0  2  0  0  0  0  0  0  0  0  0
  139.1100   76.3850  220.7400 C   0  0  0  0  0  0  0  0  0  0  0  0
  139.4840   76.6980  222.1730 C   0  0  1  0  0  0  0  0  0  0  0  0
  138.6750   75.9640  223.0700 O   0  0  0  0  0  0  0  0  0  0  0  0
  140.9000   76.1980  222.2380 C   0  0  0  0  0  0  0  0  0  0  0  0
  141.1890   75.5070  220.9940 N   0  0  0  0  0  0  0  0  0  0  0  0
  142.0340   74.3930  220.7510 C   0  0  0  0  0  0  0  0  0  0  0  0
  143.2580   74.5520  220.8680 O   0  0  0  0  0  0  0  0  0  0  0  0
  141.4280   73.1080  220.3760 C   0  0  0  0  0  0  0  0  0  0  0  0
  141.3290   72.2330  221.5180 N   0  0  0  0  0  0  0  0  0  0  0  0
  140.2710   72.5060  222.4510 C   0  0  0  0  0  0  0  0  0  0  0  0
  139.4850   73.4830  222.2410 O   0  0  0  0  0  0  0  0  0  0  0  0
  140.1170   71.6550  223.6300 C   0  0  0  0  0  0  0  0  0  0  0  0
  139.2830   70.5590  223.5460 C   0  0  0  0  0  0  0  0  0  0  0  0
  139.0670   69.6910  224.5970 C   0  0  0  0  0  0  0  0  0  0  0  0
  139.7430   69.9740  225.7760 C   0  0  0  0  0  0  0  0  0  0  0  0
  139.5790   69.1470  226.8810 C   0  0  0  0  0  0  0  0  0  0  0  0
  140.2560   69.4370  228.0510 C   0  0  0  0  0  0  0  0  0  0  0  0
  140.0640   68.6050  229.1000 F   0  0  0  0  0  0  0  0  0  0  0  0
  141.0910   70.5280  228.1460 C   0  0  0  0  0  0  0  0  0  0  0  0
  141.2550   71.3520  227.0450 C   0  0  0  0  0  0  0  0  0  0  0  0
  140.5830   71.0720  225.8710 C   0  0  0  0  0  0  0  0  0  0  0  0
  140.7530   71.8920  224.7920 N   0  0  0  0  0  0  0  0  0  0  0  0
  143.5027   76.5585  219.6897 H   0  0  0  0  0  0  0  0  0  0  0  0
  143.1907   75.6984  218.1439 H   0  0  0  0  0  0  0  0  0  0  0  0
  144.1142   77.2391  218.1439 H   0  0  0  0  0  0  0  0  0  0  0  0
  142.2740   78.4880  218.2047 H   0  0  0  0  0  0  0  0  0  0  0  0
  141.4555   76.9449  217.6523 H   0  0  0  0  0  0  0  0  0  0  0  0
  141.8059   77.6649  220.5096 H   0  0  0  0  0  0  0  0  0  0  0  0
  140.3840   78.1922  219.4027 H   0  0  0  0  0  0  0  0  0  0  0  0
  140.1524   75.8139  219.0045 H   0  0  0  0  0  0  0  0  0  0  0  0
  138.5085   77.2035  220.3177 H   0  0  0  0  0  0  0  0  0  0  0  0
  138.5107   75.4646  220.6793 H   0  0  0  0  0  0  0  0  0  0  0  0
  139.3613   77.7575  222.4420 H   0  0  0  0  0  0  0  0  0  0  0  0
  138.9330   74.9980  223.0750 H   0  0  0  0  0  0  0  0  0  0  0  0
  141.5899   77.0456  222.3633 H   0  0  0  0  0  0  0  0  0  0  0  0
  141.0259   75.5164  223.0921 H   0  0  0  0  0  0  0  0  0  0  0  0
  140.4208   73.2889  219.9725 H   0  0  0  0  0  0  0  0  0  0  0  0
  142.0645   72.6269  219.6188 H   0  0  0  0  0  0  0  0  0  0  0  0
  141.9870   71.4230  221.6850 H   0  0  0  0  0  0  0  0  0  0  0  0
  138.7649   70.3677  222.5947 H   0  0  0  0  0  0  0  0  0  0  0  0
  138.3968   68.8236  224.5056 H   0  0  0  0  0  0  0  0  0  0  0  0
  138.9170   68.2703  226.8251 H   0  0  0  0  0  0  0  0  0  0  0  0
  141.6215   70.7425  229.0854 H   0  0  0  0  0  0  0  0  0  0  0  0
  141.9187   72.2272  227.1052 H   0  0  0  0  0  0  0  0  0  0  0  0
  1  2  1  0
  2  3  1  0
  3  4  1  0
  4  5  1  0
  5  6  1  0
  6  7  1  0
  6  8  1  0
  8  9  1  0
  9 10  1  0
 10 11  2  0
 10 12  1  0
 12 13  1  0
 13 14  1  0
 14 15  2  0
 14 16  1  0
 16 17  2  0
 17 18  1  0
 18 19  2  0
 19 20  1  0
 20 21  2  0
 21 22  1  0
 21 23  1  0
 23 24  2  0
 24 25  1  0
 25 26  2  0
  9  4  1  0
 26 16  1  0
 25 19  1  0
  1 27  1  0
  1 28  1  0
  1 29  1  0
  2 30  1  0
  2 31  1  0
  3 32  1  0
  3 33  1  0
  4 34  1  6
  5 35  1  0
  5 36  1  0
  6 37  1  1
  7 38  1  0
  8 39  1  0
  8 40  1  0
 12 41  1  0
 12 42  1  0
 13 43  1  0
 17 44  1  0
 18 45  1  0
 20 46  1  0
 23 47  1  0
 24 48  1  0
M  END
>  <smiles>  (43) 
CCC[C@@H]1C[C@@H](O)CN1C(=O)CNC(=O)c1ccc2cc(F)ccc2n1

>  <score_type>  (43) 
oracle

>  <origin>  (43) 
autodockgpu

>  <m_score__min__energy>  (43) 
-7.4800000000000004

>  <m_primary>  (43) 
energy

>  <rmsd>  (43) 
2.5163157597400363

>  <m_score__min__rmsd>  (43) 
2.5163157597400363

>  <meeko>  (43) 
{"free_energy": -6.23, "intermolecular_energy": -8.32, "internal_energy": -2.06, "cluster_size": 23, "cluster_id": 1, "rank_in_cluster": 20}

>  <energy>  (43) 
-6.54

>  <cluster_rmsd>  (43) 
1.4

>  <cluster>  (43) 
3

$$$$

     RDKit          3D

 48 50  0  0  0  0  0  0  0  0999 V2000
  141.1840   76.0500  220.8060 C   0  0  0  0  0  0  0  0  0  0  0  0
  142.4240   76.4530  220.0890 C   0  0  0  0  0  0  0  0  0  0  0  0
  143.1740   75.3260  219.4990 C   0  0  0  0  0  0  0  0  0  0  0  0
  143.3990   74.1040  220.2910 C   0  0  2  0  0  0  0  0  0  0  0  0
  144.7550   73.8050  220.8030 C   0  0  0  0  0  0  0  0  0  0  0  0
  145.5730   73.3340  219.6190 C   0  0  1  0  0  0  0  0  0  0  0  0
  146.3700   72.2220  219.9760 O   0  0  0  0  0  0  0  0  0  0  0  0
  144.5010   72.9040  218.6580 C   0  0  0  0  0  0  0  0  0  0  0  0
  143.2250   72.9690  219.3480 N   0  0  0  0  0  0  0  0  0  0  0  0
  142.0670   72.1630  219.1900 C   0  0  0  0  0  0  0  0  0  0  0  0
  142.1400   71.1770  218.4410 O   0  0  0  0  0  0  0  0  0  0  0  0
  140.8440   72.5260  219.9170 C   0  0  0  0  0  0  0  0  0  0  0  0
  140.6620   71.6840  221.0740 N   0  0  0  0  0  0  0  0  0  0  0  0
  140.3910   72.3480  222.3190 C   0  0  0  0  0  0  0  0  0  0  0  0
  140.3240   73.6170  222.3530 O   0  0  0  0  0  0  0  0  0  0  0  0
  140.1970   71.5500  223.5290 C   0  0  0  0  0  0  0  0  0  0  0  0
  139.4590   70.3870  223.4400 C   0  0  0  0  0  0  0  0  0  0  0  0
  139.2170   69.5620  224.5190 C   0  0  0  0  0  0  0  0  0  0  0  0
  139.7610   69.9610  225.7320 C   0  0  0  0  0  0  0  0  0  0  0  0
  139.5620   69.1830  226.8670 C   0  0  0  0  0  0  0  0  0  0  0  0
  140.1070   69.5880  228.0700 C   0  0  0  0  0  0  0  0  0  0  0  0
  139.8860   68.8000  229.1470 F   0  0  0  0  0  0  0  0  0  0  0  0
  140.8450   70.7470  228.1710 C   0  0  0  0  0  0  0  0  0  0  0  0
  141.0440   71.5220  227.0400 C   0  0  0  0  0  0  0  0  0  0  0  0
  140.5030   71.1260  225.8320 C   0  0  0  0  0  0  0  0  0  0  0  0
  140.7060   71.8990  224.7250 N   0  0  0  0  0  0  0  0  0  0  0  0
  141.3537   76.1052  221.8914 H   0  0  0  0  0  0  0  0  0  0  0  0
  140.3632   76.7276  220.5283 H   0  0  0  0  0  0  0  0  0  0  0  0
  140.9184   75.0193  220.5283 H   0  0  0  0  0  0  0  0  0  0  0  0
  142.1457   77.1439  219.2796 H   0  0  0  0  0  0  0  0  0  0  0  0
  143.0851   76.9169  220.8358 H   0  0  0  0  0  0  0  0  0  0  0  0
  142.6317   75.0224  218.5914 H   0  0  0  0  0  0  0  0  0  0  0  0
  144.1866   75.7344  219.3654 H   0  0  0  0  0  0  0  0  0  0  0  0
  142.7268   74.2460  221.1501 H   0  0  0  0  0  0  0  0  0  0  0  0
  145.2041   74.7100  221.2381 H   0  0  0  0  0  0  0  0  0  0  0  0
  144.7204   73.0377  221.5904 H   0  0  0  0  0  0  0  0  0  0  0  0
  146.2624   74.0950  219.2245 H   0  0  0  0  0  0  0  0  0  0  0  0
  146.0930   71.8550  220.8650 H   0  0  0  0  0  0  0  0  0  0  0  0
  144.4890   73.5763  217.7875 H   0  0  0  0  0  0  0  0  0  0  0  0
  144.6927   71.8795  218.3064 H   0  0  0  0  0  0  0  0  0  0  0  0
  140.9166   73.5742  220.2426 H   0  0  0  0  0  0  0  0  0  0  0  0
  139.9834   72.3902  219.2455 H   0  0  0  0  0  0  0  0  0  0  0  0
  140.7200   70.6290  221.0360 H   0  0  0  0  0  0  0  0  0  0  0  0
  139.0437   70.1043  222.4614 H   0  0  0  0  0  0  0  0  0  0  0  0
  138.6258   68.6393  224.4233 H   0  0  0  0  0  0  0  0  0  0  0  0
  138.9762   68.2539  226.8076 H   0  0  0  0  0  0  0  0  0  0  0  0
  141.2710   71.0533  229.1378 H   0  0  0  0  0  0  0  0  0  0  0  0
  141.6311   72.4500  227.1036 H   0  0  0  0  0  0  0  0  0  0  0  0
  1  2  1  0
  2  3  1  0
  3  4  1  0
  4  5  1  0
  5  6  1  0
  6  7  1  0
  6  8  1  0
  8  9  1  0
  9 10  1  0
 10 11  2  0
 10 12  1  0
 12 13  1  0
 13 14  1  0
 14 15  2  0
 14 16  1  0
 16 17  2  0
 17 18  1  0
 18 19  2  0
 19 20  1  0
 20 21  2  0
 21 22  1  0
 21 23  1  0
 23 24  2  0
 24 25  1  0
 25 26  2  0
  9  4  1  0
 26 16  1  0
 25 19  1  0
  1 27  1  0
  1 28  1  0
  1 29  1  0
  2 30  1  0
  2 31  1  0
  3 32  1  0
  3 33  1  0
  4 34  1  1
  5 35  1  0
  5 36  1  0
  6 37  1  6
  7 38  1  0
  8 39  1  0
  8 40  1  0
 12 41  1  0
 12 42  1  0
 13 43  1  0
 17 44  1  0
 18 45  1  0
 20 46  1  0
 23 47  1  0
 24 48  1  0
M  END
>  <smiles>  (44) 
CCC[C@@H]1C[C@@H](O)CN1C(=O)CNC(=O)c1ccc2cc(F)ccc2n1

>  <score_type>  (44) 
oracle

>  <origin>  (44) 
autodockgpu

>  <m_score__min__energy>  (44) 
-7.4800000000000004

>  <m_primary>  (44) 
energy

>  <rmsd>  (44) 
3.1444844821412823

>  <m_score__min__rmsd>  (44) 
3.1444844821412823

>  <meeko>  (44) 
{"free_energy": -7.3, "intermolecular_energy": -9.39, "internal_energy": -1.29, "cluster_size": 23, "cluster_id": 1, "rank_in_cluster": 6}

>  <energy>  (44) 
-7.23

>  <cluster_rmsd>  (44) 
0.0

>  <cluster>  (44) 
4

$$$$

     RDKit          3D

 48 50  0  0  0  0  0  0  0  0999 V2000
  145.9630   73.3120  221.1210 C   0  0  0  0  0  0  0  0  0  0  0  0
  144.6340   73.2760  220.4520 C   0  0  0  0  0  0  0  0  0  0  0  0
  143.9140   74.5650  220.4700 C   0  0  0  0  0  0  0  0  0  0  0  0
  142.6740   74.7210  219.6880 C   0  0  2  0  0  0  0  0  0  0  0  0
  142.7270   75.3660  218.3570 C   0  0  0  0  0  0  0  0  0  0  0  0
  142.9040   76.8490  218.5990 C   0  0  1  0  0  0  0  0  0  0  0  0
  142.0770   77.5970  217.7300 O   0  0  0  0  0  0  0  0  0  0  0  0
  142.4150   76.9900  220.0130 C   0  0  0  0  0  0  0  0  0  0  0  0
  141.8510   75.7160  220.4230 N   0  0  0  0  0  0  0  0  0  0  0  0
  140.7750   75.4440  221.3080 C   0  0  0  0  0  0  0  0  0  0  0  0
  140.6070   76.2030  222.2730 O   0  0  0  0  0  0  0  0  0  0  0  0
  139.9130   74.2850  221.0430 C   0  0  0  0  0  0  0  0  0  0  0  0
  139.7030   73.5140  222.2440 N   0  0  0  0  0  0  0  0  0  0  0  0
  140.4670   72.3040  222.3760 C   0  0  0  0  0  0  0  0  0  0  0  0
  141.2740   71.9670  221.4540 O   0  0  0  0  0  0  0  0  0  0  0  0
  140.3000   71.4780  223.5710 C   0  0  0  0  0  0  0  0  0  0  0  0
  139.6820   70.2510  223.4420 C   0  0  0  0  0  0  0  0  0  0  0  0
  139.4750   69.3940  224.5040 C   0  0  0  0  0  0  0  0  0  0  0  0
  139.9270   69.8300  225.7420 C   0  0  0  0  0  0  0  0  0  0  0  0
  139.7560   69.0240  226.8620 C   0  0  0  0  0  0  0  0  0  0  0  0
  140.2080   69.4660  228.0910 C   0  0  0  0  0  0  0  0  0  0  0  0
  140.0190   68.6480  229.1510 F   0  0  0  0  0  0  0  0  0  0  0  0
  140.8270   70.6890  228.2310 C   0  0  0  0  0  0  0  0  0  0  0  0
  140.9970   71.4920  227.1150 C   0  0  0  0  0  0  0  0  0  0  0  0
  140.5480   71.0600  225.8820 C   0  0  0  0  0  0  0  0  0  0  0  0
  140.7230   71.8610  224.7900 N   0  0  0  0  0  0  0  0  0  0  0  0
  145.8244   73.3082  222.2122 H   0  0  0  0  0  0  0  0  0  0  0  0
  146.5477   72.4294  220.8226 H   0  0  0  0  0  0  0  0  0  0  0  0
  146.4991   74.2250  220.8226 H   0  0  0  0  0  0  0  0  0  0  0  0
  144.7832   72.9784  219.4036 H   0  0  0  0  0  0  0  0  0  0  0  0
  144.0159   72.5600  221.0135 H   0  0  0  0  0  0  0  0  0  0  0  0
  143.6573   74.7721  221.5194 H   0  0  0  0  0  0  0  0  0  0  0  0
  144.6147   75.2562  219.9788 H   0  0  0  0  0  0  0  0  0  0  0  0
  142.3382   73.6817  219.5572 H   0  0  0  0  0  0  0  0  0  0  0  0
  143.5758   74.9724  217.7785 H   0  0  0  0  0  0  0  0  0  0  0  0
  141.8100   75.1655  217.7834 H   0  0  0  0  0  0  0  0  0  0  0  0
  143.9311   77.2061  218.4328 H   0  0  0  0  0  0  0  0  0  0  0  0
  141.1110   77.4600  217.9500 H   0  0  0  0  0  0  0  0  0  0  0  0
  143.2537   77.2565  220.6730 H   0  0  0  0  0  0  0  0  0  0  0  0
  141.6546   77.7823  220.0767 H   0  0  0  0  0  0  0  0  0  0  0  0
  138.9413   74.6375  220.6669 H   0  0  0  0  0  0  0  0  0  0  0  0
  140.4050   73.6447  220.2960 H   0  0  0  0  0  0  0  0  0  0  0  0
  139.0290   73.8020  223.0060 H   0  0  0  0  0  0  0  0  0  0  0  0
  139.3376   69.9408  222.4444 H   0  0  0  0  0  0  0  0  0  0  0  0
  138.9797   68.4201  224.3765 H   0  0  0  0  0  0  0  0  0  0  0  0
  139.2655   68.0436  226.7707 H   0  0  0  0  0  0  0  0  0  0  0  0
  141.1819   71.0237  229.2169 H   0  0  0  0  0  0  0  0  0  0  0  0
  141.4884   72.4715  227.2104 H   0  0  0  0  0  0  0  0  0  0  0  0
  1  2  1  0
  2  3  1  0
  3  4  1  0
  4  5  1  0
  5  6  1  0
  6  7  1  0
  6  8  1  0
  8  9  1  0
  9 10  1  0
 10 11  2  0
 10 12  1  0
 12 13  1  0
 13 14  1  0
 14 15  2  0
 14 16  1  0
 16 17  2  0
 17 18  1  0
 18 19  2  0
 19 20  1  0
 20 21  2  0
 21 22  1  0
 21 23  1  0
 23 24  2  0
 24 25  1  0
 25 26  2  0
  9  4  1  0
 26 16  1  0
 25 19  1  0
  1 27  1  0
  1 28  1  0
  1 29  1  0
  2 30  1  0
  2 31  1  0
  3 32  1  0
  3 33  1  0
  4 34  1  6
  5 35  1  0
  5 36  1  0
  6 37  1  1
  7 38  1  0
  8 39  1  0
  8 40  1  0
 12 41  1  0
 12 42  1  0
 13 43  1  0
 17 44  1  0
 18 45  1  0
 20 46  1  0
 23 47  1  0
 24 48  1  0
M  END
>  <smiles>  (45) 
CCC[C@@H]1C[C@@H](O)CN1C(=O)CNC(=O)c1ccc2cc(F)ccc2n1

>  <score_type>  (45) 
oracle

>  <origin>  (45) 
autodockgpu

>  <m_score__min__energy>  (45) 
-7.4800000000000004

>  <m_primary>  (45) 
energy

>  <rmsd>  (45) 
2.9512562699038476

>  <m_score__min__rmsd>  (45) 
2.9512562699038476

>  <meeko>  (45) 
{"free_energy": -7.14, "intermolecular_energy": -9.23, "internal_energy": -1.29, "cluster_size": 18, "cluster_id": 3, "rank_in_cluster": 9}

>  <energy>  (45) 
-7.23

>  <cluster_rmsd>  (45) 
0.53

>  <cluster>  (45) 
4

$$$$

     RDKit          3D

 48 50  0  0  0  0  0  0  0  0999 V2000
  146.0410   73.3290  221.2580 C   0  0  0  0  0  0  0  0  0  0  0  0
  144.6760   73.2890  220.6660 C   0  0  0  0  0  0  0  0  0  0  0  0
  144.0720   74.6190  220.4480 C   0  0  0  0  0  0  0  0  0  0  0  0
  142.8200   74.7370  219.6800 C   0  0  2  0  0  0  0  0  0  0  0  0
  142.8310   75.4180  218.3670 C   0  0  0  0  0  0  0  0  0  0  0  0
  142.9400   76.9010  218.6470 C   0  0  1  0  0  0  0  0  0  0  0  0
  142.0710   77.6320  217.8040 O   0  0  0  0  0  0  0  0  0  0  0  0
  142.4580   76.9820  220.0680 C   0  0  0  0  0  0  0  0  0  0  0  0
  141.9580   75.6730  220.4480 N   0  0  0  0  0  0  0  0  0  0  0  0
  140.9030   75.3270  221.3330 C   0  0  0  0  0  0  0  0  0  0  0  0
  140.6600   76.0920  222.2780 O   0  0  0  0  0  0  0  0  0  0  0  0
  140.1510   74.0890  221.0930 C   0  0  0  0  0  0  0  0  0  0  0  0
  139.9520   73.3610  222.3220 N   0  0  0  0  0  0  0  0  0  0  0  0
  140.4240   72.0040  222.3520 C   0  0  0  0  0  0  0  0  0  0  0  0
  140.9820   71.5100  221.3220 O   0  0  0  0  0  0  0  0  0  0  0  0
  140.2530   71.2120  223.5690 C   0  0  0  0  0  0  0  0  0  0  0  0
  139.6060   69.9960  223.4790 C   0  0  0  0  0  0  0  0  0  0  0  0
  139.3930   69.1710  224.5640 C   0  0  0  0  0  0  0  0  0  0  0  0
  139.8680   69.6280  225.7860 C   0  0  0  0  0  0  0  0  0  0  0  0
  139.6920   68.8540  226.9280 C   0  0  0  0  0  0  0  0  0  0  0  0
  140.1690   69.3170  228.1400 C   0  0  0  0  0  0  0  0  0  0  0  0
  139.9740   68.5310  229.2230 F   0  0  0  0  0  0  0  0  0  0  0  0
  140.8160   70.5290  228.2420 C   0  0  0  0  0  0  0  0  0  0  0  0
  140.9910   71.3000  227.1040 C   0  0  0  0  0  0  0  0  0  0  0  0
  140.5180   70.8470  225.8880 C   0  0  0  0  0  0  0  0  0  0  0  0
  140.6980   71.6160  224.7740 N   0  0  0  0  0  0  0  0  0  0  0  0
  145.9649   73.3268  222.3554 H   0  0  0  0  0  0  0  0  0  0  0  0
  146.6097   72.4471  220.9281 H   0  0  0  0  0  0  0  0  0  0  0  0
  146.5571   74.2427  220.9281 H   0  0  0  0  0  0  0  0  0  0  0  0
  144.7356   72.7739  219.6959 H   0  0  0  0  0  0  0  0  0  0  0  0
  144.0333   72.7642  221.3881 H   0  0  0  0  0  0  0  0  0  0  0  0
  143.8775   75.0475  221.4423 H   0  0  0  0  0  0  0  0  0  0  0  0
  144.8096   75.1337  219.8147 H   0  0  0  0  0  0  0  0  0  0  0  0
  142.5319   73.6869  219.5238 H   0  0  0  0  0  0  0  0  0  0  0  0
  143.6923   75.0803  217.7720 H   0  0  0  0  0  0  0  0  0  0  0  0
  141.9196   75.1894  217.7952 H   0  0  0  0  0  0  0  0  0  0  0  0
  143.9476   77.3105  218.4824 H   0  0  0  0  0  0  0  0  0  0  0  0
  141.3650   78.0980  218.3370 H   0  0  0  0  0  0  0  0  0  0  0  0
  143.2893   77.2701  220.7282 H   0  0  0  0  0  0  0  0  0  0  0  0
  141.6622   77.7360  220.1589 H   0  0  0  0  0  0  0  0  0  0  0  0
  139.1712   74.3408  220.6609 H   0  0  0  0  0  0  0  0  0  0  0  0
  140.7259   73.4575  220.3997 H   0  0  0  0  0  0  0  0  0  0  0  0
  139.4870   73.7790  223.1740 H   0  0  0  0  0  0  0  0  0  0  0  0
  139.2424   69.6687  222.4938 H   0  0  0  0  0  0  0  0  0  0  0  0
  138.8758   68.2051  224.4664 H   0  0  0  0  0  0  0  0  0  0  0  0
  139.1784   67.8832  226.8674 H   0  0  0  0  0  0  0  0  0  0  0  0
  141.1892   70.8805  229.2152 H   0  0  0  0  0  0  0  0  0  0  0  0
  141.5052   72.2702  227.1689 H   0  0  0  0  0  0  0  0  0  0  0  0
  1  2  1  0
  2  3  1  0
  3  4  1  0
  4  5  1  0
  5  6  1  0
  6  7  1  0
  6  8  1  0
  8  9  1  0
  9 10  1  0
 10 11  2  0
 10 12  1  0
 12 13  1  0
 13 14  1  0
 14 15  2  0
 14 16  1  0
 16 17  2  0
 17 18  1  0
 18 19  2  0
 19 20  1  0
 20 21  2  0
 21 22  1  0
 21 23  1  0
 23 24  2  0
 24 25  1  0
 25 26  2  0
  9  4  1  0
 26 16  1  0
 25 19  1  0
  1 27  1  0
  1 28  1  0
  1 29  1  0
  2 30  1  0
  2 31  1  0
  3 32  1  0
  3 33  1  0
  4 34  1  6
  5 35  1  0
  5 36  1  0
  6 37  1  1
  7 38  1  0
  8 39  1  0
  8 40  1  0
 12 41  1  0
 12 42  1  0
 13 43  1  0
 17 44  1  0
 18 45  1  0
 20 46  1  0
 23 47  1  0
 24 48  1  0
M  END
>  <smiles>  (46) 
CCC[C@@H]1C[C@@H](O)CN1C(=O)CNC(=O)c1ccc2cc(F)ccc2n1

>  <score_type>  (46) 
oracle

>  <origin>  (46) 
autodockgpu

>  <m_score__min__energy>  (46) 
-7.4800000000000004

>  <m_primary>  (46) 
energy

>  <rmsd>  (46) 
2.9800766476058214

>  <m_score__min__rmsd>  (46) 
2.9800766476058214

>  <meeko>  (46) 
{"free_energy": -7.09, "intermolecular_energy": -9.18, "internal_energy": -1.31, "cluster_size": 18, "cluster_id": 3, "rank_in_cluster": 10}

>  <energy>  (46) 
-7.12

>  <cluster_rmsd>  (46) 
1.65

>  <cluster>  (46) 
4

$$$$

     RDKit          3D

 48 50  0  0  0  0  0  0  0  0999 V2000
  142.4740   77.4320  218.9370 C   0  0  0  0  0  0  0  0  0  0  0  0
  142.4330   76.2160  219.7940 C   0  0  0  0  0  0  0  0  0  0  0  0
  143.6880   75.4370  219.7980 C   0  0  0  0  0  0  0  0  0  0  0  0
  143.7200   74.1070  220.4320 C   0  0  2  0  0  0  0  0  0  0  0  0
  145.0170   73.5290  220.8500 C   0  0  0  0  0  0  0  0  0  0  0  0
  145.7190   73.0780  219.5870 C   0  0  1  0  0  0  0  0  0  0  0  0
  146.3250   71.8160  219.7790 O   0  0  0  0  0  0  0  0  0  0  0  0
  144.5720   72.9520  218.6260 C   0  0  0  0  0  0  0  0  0  0  0  0
  143.3390   73.1400  219.3690 N   0  0  0  0  0  0  0  0  0  0  0  0
  142.0590   72.5610  219.1650 C   0  0  0  0  0  0  0  0  0  0  0  0
  141.9220   71.7680  218.2220 O   0  0  0  0  0  0  0  0  0  0  0  0
  140.9620   72.9210  220.0730 C   0  0  0  0  0  0  0  0  0  0  0  0
  140.8830   71.9950  221.1760 N   0  0  0  0  0  0  0  0  0  0  0  0
  140.3050   72.4920  222.3950 C   0  0  0  0  0  0  0  0  0  0  0  0
  139.8990   73.6950  222.4530 O   0  0  0  0  0  0  0  0  0  0  0  0
  140.1960   71.6030  223.5510 C   0  0  0  0  0  0  0  0  0  0  0  0
  139.5550   70.3910  223.3910 C   0  0  0  0  0  0  0  0  0  0  0  0
  139.3970   69.4780  224.4140 C   0  0  0  0  0  0  0  0  0  0  0  0
  139.9250   69.8400  225.6460 C   0  0  0  0  0  0  0  0  0  0  0  0
  139.8070   68.9750  226.7280 C   0  0  0  0  0  0  0  0  0  0  0  0
  140.3350   69.3440  227.9510 C   0  0  0  0  0  0  0  0  0  0  0  0
  140.1960   68.4700  228.9740 F   0  0  0  0  0  0  0  0  0  0  0  0
  140.9770   70.5500  228.1220 C   0  0  0  0  0  0  0  0  0  0  0  0
  141.0940   71.4130  227.0440 C   0  0  0  0  0  0  0  0  0  0  0  0
  140.5700   71.0540  225.8170 C   0  0  0  0  0  0  0  0  0  0  0  0
  140.6930   71.9130  224.7620 N   0  0  0  0  0  0  0  0  0  0  0  0
  142.5042   78.3285  219.5737 H   0  0  0  0  0  0  0  0  0  0  0  0
  143.3717   77.4029  218.3019 H   0  0  0  0  0  0  0  0  0  0  0  0
  141.5764   77.4634  218.3019 H   0  0  0  0  0  0  0  0  0  0  0  0
  142.2173   76.5284  220.8264 H   0  0  0  0  0  0  0  0  0  0  0  0
  141.6547   75.5604  219.3764 H   0  0  0  0  0  0  0  0  0  0  0  0
  143.9794   75.2963  218.7467 H   0  0  0  0  0  0  0  0  0  0  0  0
  144.3601   76.0375  220.4286 H   0  0  0  0  0  0  0  0  0  0  0  0
  143.0986   74.2508  221.3282 H   0  0  0  0  0  0  0  0  0  0  0  0
  145.6207   74.2880  221.3690 H   0  0  0  0  0  0  0  0  0  0  0  0
  144.8704   72.6877  221.5433 H   0  0  0  0  0  0  0  0  0  0  0  0
  146.5183   73.7576  219.2565 H   0  0  0  0  0  0  0  0  0  0  0  0
  146.1980   71.4980  220.7190 H   0  0  0  0  0  0  0  0  0  0  0  0
  144.6560   73.7194  217.8424 H   0  0  0  0  0  0  0  0  0  0  0  0
  144.5820   71.9613  218.1482 H   0  0  0  0  0  0  0  0  0  0  0  0
  141.1363   73.9340  220.4648 H   0  0  0  0  0  0  0  0  0  0  0  0
  140.0156   72.8834  219.5136 H   0  0  0  0  0  0  0  0  0  0  0  0
  141.2230   70.9960  221.1190 H   0  0  0  0  0  0  0  0  0  0  0  0
  139.1502   70.1405  222.3994 H   0  0  0  0  0  0  0  0  0  0  0  0
  138.8820   68.5180  224.2618 H   0  0  0  0  0  0  0  0  0  0  0  0
  139.2985   68.0065  226.6120 H   0  0  0  0  0  0  0  0  0  0  0  0
  141.3922   70.8252  229.1028 H   0  0  0  0  0  0  0  0  0  0  0  0
  141.6025   72.3809  227.1649 H   0  0  0  0  0  0  0  0  0  0  0  0
  1  2  1  0
  2  3  1  0
  3  4  1  0
  4  5  1  0
  5  6  1  0
  6  7  1  0
  6  8  1  0
  8  9  1  0
  9 10  1  0
 10 11  2  0
 10 12  1  0
 12 13  1  0
 13 14  1  0
 14 15  2  0
 14 16  1  0
 16 17  2  0
 17 18  1  0
 18 19  2  0
 19 20  1  0
 20 21  2  0
 21 22  1  0
 21 23  1  0
 23 24  2  0
 24 25  1  0
 25 26  2  0
  9  4  1  0
 26 16  1  0
 25 19  1  0
  1 27  1  0
  1 28  1  0
  1 29  1  0
  2 30  1  0
  2 31  1  0
  3 32  1  0
  3 33  1  0
  4 34  1  1
  5 35  1  0
  5 36  1  0
  6 37  1  6
  7 38  1  0
  8 39  1  0
  8 40  1  0
 12 41  1  0
 12 42  1  0
 13 43  1  0
 17 44  1  0
 18 45  1  0
 20 46  1  0
 23 47  1  0
 24 48  1  0
M  END
>  <smiles>  (47) 
CCC[C@@H]1C[C@@H](O)CN1C(=O)CNC(=O)c1ccc2cc(F)ccc2n1

>  <score_type>  (47) 
oracle

>  <origin>  (47) 
autodockgpu

>  <m_score__min__energy>  (47) 
-7.4800000000000004

>  <m_primary>  (47) 
energy

>  <rmsd>  (47) 
3.2170533973802145

>  <m_score__min__rmsd>  (47) 
3.2170533973802145

>  <meeko>  (47) 
{"free_energy": -7.48, "intermolecular_energy": -9.56, "internal_energy": -1.13, "cluster_size": 23, "cluster_id": 1, "rank_in_cluster": 1}

>  <energy>  (47) 
-6.69

>  <cluster_rmsd>  (47) 
1.97

>  <cluster>  (47) 
4

$$$$

     RDKit          3D

 48 50  0  0  0  0  0  0  0  0999 V2000
  142.7190   80.0470  223.0350 C   0  0  0  0  0  0  0  0  0  0  0  0
  141.5390   79.1890  222.7440 C   0  0  0  0  0  0  0  0  0  0  0  0
  141.3600   78.8730  221.3120 C   0  0  0  0  0  0  0  0  0  0  0  0
  141.7230   77.5370  220.8070 C   0  0  2  0  0  0  0  0  0  0  0  0
  142.2460   77.3940  219.4310 C   0  0  0  0  0  0  0  0  0  0  0  0
  141.0660   77.5600  218.4970 C   0  0  1  0  0  0  0  0  0  0  0  0
  141.1170   76.6050  217.4570 O   0  0  0  0  0  0  0  0  0  0  0  0
  139.9090   77.2600  219.4080 C   0  0  0  0  0  0  0  0  0  0  0  0
  140.4440   76.7910  220.6740 N   0  0  0  0  0  0  0  0  0  0  0  0
  139.9080   75.8500  221.5920 C   0  0  0  0  0  0  0  0  0  0  0  0
  139.5240   76.2650  222.6960 O   0  0  0  0  0  0  0  0  0  0  0  0
  139.8310   74.4370  221.1990 C   0  0  0  0  0  0  0  0  0  0  0  0
  139.5940   73.5960  222.3450 N   0  0  0  0  0  0  0  0  0  0  0  0
  140.4890   72.4870  222.5290 C   0  0  0  0  0  0  0  0  0  0  0  0
  141.4300   72.2950  221.6960 O   0  0  0  0  0  0  0  0  0  0  0  0
  140.3020   71.5960  223.6740 C   0  0  0  0  0  0  0  0  0  0  0  0
  139.6290   70.4070  223.4790 C   0  0  0  0  0  0  0  0  0  0  0  0
  139.3990   69.4950  224.4890 C   0  0  0  0  0  0  0  0  0  0  0  0
  139.8850   69.8340  225.7450 C   0  0  0  0  0  0  0  0  0  0  0  0
  139.6930   68.9680  226.8150 C   0  0  0  0  0  0  0  0  0  0  0  0
  140.1810   69.3130  228.0620 C   0  0  0  0  0  0  0  0  0  0  0  0
  139.9700   68.4400  229.0730 F   0  0  0  0  0  0  0  0  0  0  0  0
  140.8540   70.4970  228.2680 C   0  0  0  0  0  0  0  0  0  0  0  0
  141.0450   71.3600  227.2000 C   0  0  0  0  0  0  0  0  0  0  0  0
  140.5620   71.0250  225.9500 C   0  0  0  0  0  0  0  0  0  0  0  0
  140.7570   71.8840  224.9070 N   0  0  0  0  0  0  0  0  0  0  0  0
  142.8457   80.1392  224.1238 H   0  0  0  0  0  0  0  0  0  0  0  0
  143.6201   79.5917  222.5982 H   0  0  0  0  0  0  0  0  0  0  0  0
  142.5637   81.0445  222.5982 H   0  0  0  0  0  0  0  0  0  0  0  0
  141.6555   78.2436  223.2942 H   0  0  0  0  0  0  0  0  0  0  0  0
  140.6500   79.7565  223.0566 H   0  0  0  0  0  0  0  0  0  0  0  0
  140.2942   79.0213  221.0837 H   0  0  0  0  0  0  0  0  0  0  0  0
  142.0782   79.5392  220.8116 H   0  0  0  0  0  0  0  0  0  0  0  0
  142.5055   77.2169  221.5107 H   0  0  0  0  0  0  0  0  0  0  0  0
  143.0005   78.1688  219.2299 H   0  0  0  0  0  0  0  0  0  0  0  0
  142.7268   76.4147  219.2905 H   0  0  0  0  0  0  0  0  0  0  0  0
  141.0204   78.5453  218.0100 H   0  0  0  0  0  0  0  0  0  0  0  0
  141.3890   77.0300  216.5940 H   0  0  0  0  0  0  0  0  0  0  0  0
  139.3145   78.1714  219.5688 H   0  0  0  0  0  0  0  0  0  0  0  0
  139.2592   76.4935  218.9605 H   0  0  0  0  0  0  0  0  0  0  0  0
  139.0078   74.3074  220.4809 H   0  0  0  0  0  0  0  0  0  0  0  0
  140.7888   74.1468  220.7425 H   0  0  0  0  0  0  0  0  0  0  0  0
  138.8090   73.7630  223.0330 H   0  0  0  0  0  0  0  0  0  0  0  0
  139.2580   70.1750  222.4698 H   0  0  0  0  0  0  0  0  0  0  0  0
  138.8610   68.5526  224.3093 H   0  0  0  0  0  0  0  0  0  0  0  0
  139.1581   68.0176  226.6713 H   0  0  0  0  0  0  0  0  0  0  0  0
  141.2351   70.7545  229.2672 H   0  0  0  0  0  0  0  0  0  0  0  0
  141.5801   72.3096  227.3477 H   0  0  0  0  0  0  0  0  0  0  0  0
  1  2  1  0
  2  3  1  0
  3  4  1  0
  4  5  1  0
  5  6  1  0
  6  7  1  0
  6  8  1  0
  8  9  1  0
  9 10  1  0
 10 11  2  0
 10 12  1  0
 12 13  1  0
 13 14  1  0
 14 15  2  0
 14 16  1  0
 16 17  2  0
 17 18  1  0
 18 19  2  0
 19 20  1  0
 20 21  2  0
 21 22  1  0
 21 23  1  0
 23 24  2  0
 24 25  1  0
 25 26  2  0
  9  4  1  0
 26 16  1  0
 25 19  1  0
  1 27  1  0
  1 28  1  0
  1 29  1  0
  2 30  1  0
  2 31  1  0
  3 32  1  0
  3 33  1  0
  4 34  1  1
  5 35  1  0
  5 36  1  0
  6 37  1  6
  7 38  1  0
  8 39  1  0
  8 40  1  0
 12 41  1  0
 12 42  1  0
 13 43  1  0
 17 44  1  0
 18 45  1  0
 20 46  1  0
 23 47  1  0
 24 48  1  0
M  END
>  <smiles>  (48) 
CCC[C@@H]1C[C@@H](O)CN1C(=O)CNC(=O)c1ccc2cc(F)ccc2n1

>  <score_type>  (48) 
oracle

>  <origin>  (48) 
autodockgpu

>  <m_score__min__energy>  (48) 
-7.4800000000000004

>  <m_primary>  (48) 
energy

>  <rmsd>  (48) 
2.7197069695657508

>  <m_score__min__rmsd>  (48) 
2.7197069695657508

>  <meeko>  (48) 
{"free_energy": -6.82, "intermolecular_energy": -8.91, "internal_energy": -1.14, "cluster_size": 18, "cluster_id": 3, "rank_in_cluster": 14}

>  <energy>  (48) 
-5.76

>  <cluster_rmsd>  (48) 
0.0

>  <cluster>  (48) 
5

$$$$

     RDKit          3D

 48 50  0  0  0  0  0  0  0  0999 V2000
  145.5390   73.3900  220.8150 C   0  0  0  0  0  0  0  0  0  0  0  0
  144.5240   74.4130  220.4450 C   0  0  0  0  0  0  0  0  0  0  0  0
  143.2640   73.8500  219.9190 C   0  0  0  0  0  0  0  0  0  0  0  0
  142.2520   73.3240  220.8520 C   0  0  2  0  0  0  0  0  0  0  0  0
  142.2990   71.9010  221.2530 C   0  0  0  0  0  0  0  0  0  0  0  0
  141.7990   71.0990  220.0700 C   0  0  1  0  0  0  0  0  0  0  0  0
  140.9290   70.0710  220.4980 O   0  0  0  0  0  0  0  0  0  0  0  0
  141.0250   72.1340  219.3030 C   0  0  0  0  0  0  0  0  0  0  0  0
  140.9650   73.3400  220.1100 N   0  0  0  0  0  0  0  0  0  0  0  0
  139.9430   74.3220  220.1980 C   0  0  0  0  0  0  0  0  0  0  0  0
  140.0760   75.3630  219.5380 O   0  0  0  0  0  0  0  0  0  0  0  0
  138.7820   74.0640  221.0590 C   0  0  0  0  0  0  0  0  0  0  0  0
  139.1780   73.3870  222.2690 N   0  0  0  0  0  0  0  0  0  0  0  0
  139.0350   71.9570  222.2850 C   0  0  0  0  0  0  0  0  0  0  0  0
  138.5750   71.3600  221.2620 O   0  0  0  0  0  0  0  0  0  0  0  0
  139.4190   71.2120  223.4830 C   0  0  0  0  0  0  0  0  0  0  0  0
  139.2410   69.8440  223.4930 C   0  0  0  0  0  0  0  0  0  0  0  0
  139.5710   69.0460  224.5700 C   0  0  0  0  0  0  0  0  0  0  0  0
  140.1040   69.6960  225.6750 C   0  0  0  0  0  0  0  0  0  0  0  0
  140.4620   68.9630  226.8010 C   0  0  0  0  0  0  0  0  0  0  0  0
  140.9920   69.6180  227.8960 C   0  0  0  0  0  0  0  0  0  0  0  0
  141.3240   68.8640  228.9680 F   0  0  0  0  0  0  0  0  0  0  0  0
  141.1740   70.9830  227.8980 C   0  0  0  0  0  0  0  0  0  0  0  0
  140.8180   71.7140  226.7760 C   0  0  0  0  0  0  0  0  0  0  0  0
  140.2870   71.0690  225.6750 C   0  0  0  0  0  0  0  0  0  0  0  0
  139.9400   71.8010  224.5760 N   0  0  0  0  0  0  0  0  0  0  0  0
  145.6075   73.3210  221.9107 H   0  0  0  0  0  0  0  0  0  0  0  0
  145.2424   72.4138  220.4039 H   0  0  0  0  0  0  0  0  0  0  0  0
  146.5175   73.6789  220.4039 H   0  0  0  0  0  0  0  0  0  0  0  0
  144.2896   75.0067  221.3408 H   0  0  0  0  0  0  0  0  0  0  0  0
  144.9628   75.0174  219.6374 H   0  0  0  0  0  0  0  0  0  0  0  0
  142.7775   74.6467  219.3371 H   0  0  0  0  0  0  0  0  0  0  0  0
  143.5936   72.9561  219.3692 H   0  0  0  0  0  0  0  0  0  0  0  0
  142.4057   73.9425  221.7486 H   0  0  0  0  0  0  0  0  0  0  0  0
  143.3310   71.6104  221.4991 H   0  0  0  0  0  0  0  0  0  0  0  0
  141.6796   71.7202  222.1439 H   0  0  0  0  0  0  0  0  0  0  0  0
  142.5991   70.6083  219.4964 H   0  0  0  0  0  0  0  0  0  0  0  0
  139.9780   70.3820  220.4930 H   0  0  0  0  0  0  0  0  0  0  0  0
  141.5307   72.3476  218.3498 H   0  0  0  0  0  0  0  0  0  0  0  0
  140.0103   71.7689  219.0862 H   0  0  0  0  0  0  0  0  0  0  0  0
  138.3081   75.0216  221.3209 H   0  0  0  0  0  0  0  0  0  0  0  0
  138.0755   73.4219  220.5126 H   0  0  0  0  0  0  0  0  0  0  0  0
  139.5590   73.8910  223.1160 H   0  0  0  0  0  0  0  0  0  0  0  0
  138.8151   69.3655  222.5987 H   0  0  0  0  0  0  0  0  0  0  0  0
  139.4202   67.9565  224.5537 H   0  0  0  0  0  0  0  0  0  0  0  0
  140.3245   67.8718  226.8198 H   0  0  0  0  0  0  0  0  0  0  0  0
  141.5969   71.4869  228.7796 H   0  0  0  0  0  0  0  0  0  0  0  0
  140.9576   72.8050  226.7616 H   0  0  0  0  0  0  0  0  0  0  0  0
  1  2  1  0
  2  3  1  0
  3  4  1  0
  4  5  1  0
  5  6  1  0
  6  7  1  0
  6  8  1  0
  8  9  1  0
  9 10  1  0
 10 11  2  0
 10 12  1  0
 12 13  1  0
 13 14  1  0
 14 15  2  0
 14 16  1  0
 16 17  2  0
 17 18  1  0
 18 19  2  0
 19 20  1  0
 20 21  2  0
 21 22  1  0
 21 23  1  0
 23 24  2  0
 24 25  1  0
 25 26  2  0
  9  4  1  0
 26 16  1  0
 25 19  1  0
  1 27  1  0
  1 28  1  0
  1 29  1  0
  2 30  1  0
  2 31  1  0
  3 32  1  0
  3 33  1  0
  4 34  1  1
  5 35  1  0
  5 36  1  0
  6 37  1  6
  7 38  1  0
  8 39  1  0
  8 40  1  0
 12 41  1  0
 12 42  1  0
 13 43  1  0
 17 44  1  0
 18 45  1  0
 20 46  1  0
 23 47  1  0
 24 48  1  0
M  END
>  <smiles>  (49) 
CCC[C@@H]1C[C@@H](O)CN1C(=O)CNC(=O)c1ccc2cc(F)ccc2n1

>  <score_type>  (49) 
oracle

>  <origin>  (49) 
autodockgpu

>  <m_score__min__energy>  (49) 
-7.4800000000000004

>  <m_primary>  (49) 
energy

>  <rmsd>  (49) 
2.754760360391235

>  <m_score__min__rmsd>  (49) 
2.754760360391235

>  <meeko>  (49) 
{"free_energy": -5.43, "intermolecular_energy": -7.52, "internal_energy": -2.61, "cluster_size": 23, "cluster_id": 1, "rank_in_cluster": 23}

>  <energy>  (49) 
-5.16

>  <cluster_rmsd>  (49) 
0.0

>  <cluster>  (49) 
6

$$$$

     RDKit          3D

 48 50  0  0  0  0  0  0  0  0999 V2000
  146.1820   73.4870  221.1290 C   0  0  0  0  0  0  0  0  0  0  0  0
  144.9940   73.5320  220.2340 C   0  0  0  0  0  0  0  0  0  0  0  0
  144.1490   74.7300  220.4120 C   0  0  0  0  0  0  0  0  0  0  0  0
  142.8890   74.8540  219.6570 C   0  0  2  0  0  0  0  0  0  0  0  0
  142.8890   75.5350  218.3440 C   0  0  0  0  0  0  0  0  0  0  0  0
  143.0100   77.0180  218.6220 C   0  0  1  0  0  0  0  0  0  0  0  0
  142.1370   77.7530  217.7880 O   0  0  0  0  0  0  0  0  0  0  0  0
  142.5440   77.1020  220.0480 C   0  0  0  0  0  0  0  0  0  0  0  0
  142.0400   75.7960  220.4340 N   0  0  0  0  0  0  0  0  0  0  0  0
  140.9940   75.4560  221.3310 C   0  0  0  0  0  0  0  0  0  0  0  0
  140.7970   76.1970  222.3060 O   0  0  0  0  0  0  0  0  0  0  0  0
  140.1930   74.2530  221.0670 C   0  0  0  0  0  0  0  0  0  0  0  0
  139.9210   73.5380  222.2890 N   0  0  0  0  0  0  0  0  0  0  0  0
  140.5270   72.2420  222.4270 C   0  0  0  0  0  0  0  0  0  0  0  0
  141.2580   71.7880  221.4920 O   0  0  0  0  0  0  0  0  0  0  0  0
  140.2890   71.4660  223.6440 C   0  0  0  0  0  0  0  0  0  0  0  0
  139.6160   70.2660  223.5390 C   0  0  0  0  0  0  0  0  0  0  0  0
  139.3410   69.4560  224.6220 C   0  0  0  0  0  0  0  0  0  0  0  0
  139.7810   69.9130  225.8570 C   0  0  0  0  0  0  0  0  0  0  0  0
  139.5420   69.1540  226.9980 C   0  0  0  0  0  0  0  0  0  0  0  0
  139.9840   69.6170  228.2230 C   0  0  0  0  0  0  0  0  0  0  0  0
  139.7280   68.8450  229.3040 F   0  0  0  0  0  0  0  0  0  0  0  0
  140.6570   70.8130  228.3400 C   0  0  0  0  0  0  0  0  0  0  0  0
  140.8940   71.5680  227.2030 C   0  0  0  0  0  0  0  0  0  0  0  0
  140.4570   71.1160  225.9740 C   0  0  0  0  0  0  0  0  0  0  0  0
  140.6980   71.8700  224.8610 N   0  0  0  0  0  0  0  0  0  0  0  0
  145.8514   73.4995  222.1781 H   0  0  0  0  0  0  0  0  0  0  0  0
  146.7524   72.5666  220.9353 H   0  0  0  0  0  0  0  0  0  0  0  0
  146.8204   74.3616  220.9353 H   0  0  0  0  0  0  0  0  0  0  0  0
  145.3457   73.5092  219.1920 H   0  0  0  0  0  0  0  0  0  0  0  0
  144.3703   72.6633  220.4914 H   0  0  0  0  0  0  0  0  0  0  0  0
  143.8875   74.7802  221.4793 H   0  0  0  0  0  0  0  0  0  0  0  0
  144.7701   75.5436  220.0090 H   0  0  0  0  0  0  0  0  0  0  0  0
  142.5941   73.8053  219.5044 H   0  0  0  0  0  0  0  0  0  0  0  0
  143.7415   75.1921  217.7393 H   0  0  0  0  0  0  0  0  0  0  0  0
  141.9695   75.3118  217.7830 H   0  0  0  0  0  0  0  0  0  0  0  0
  144.0180   77.4220  218.4466 H   0  0  0  0  0  0  0  0  0  0  0  0
  142.6440   78.4100  217.2300 H   0  0  0  0  0  0  0  0  0  0  0  0
  143.3843   77.3850  220.6991 H   0  0  0  0  0  0  0  0  0  0  0  0
  141.7538   77.8608  220.1473 H   0  0  0  0  0  0  0  0  0  0  0  0
  139.2405   74.5491  220.6033 H   0  0  0  0  0  0  0  0  0  0  0  0
  140.7599   73.5941  220.3929 H   0  0  0  0  0  0  0  0  0  0  0  0
  139.3110   73.9230  223.0620 H   0  0  0  0  0  0  0  0  0  0  0  0
  139.2823   69.9389  222.5432 H   0  0  0  0  0  0  0  0  0  0  0  0
  138.8037   68.5024  224.5129 H   0  0  0  0  0  0  0  0  0  0  0  0
  139.0070   68.1956  226.9261 H   0  0  0  0  0  0  0  0  0  0  0  0
  141.0019   71.1642  229.3237 H   0  0  0  0  0  0  0  0  0  0  0  0
  141.4294   72.5259  227.2793 H   0  0  0  0  0  0  0  0  0  0  0  0
  1  2  1  0
  2  3  1  0
  3  4  1  0
  4  5  1  0
  5  6  1  0
  6  7  1  0
  6  8  1  0
  8  9  1  0
  9 10  1  0
 10 11  2  0
 10 12  1  0
 12 13  1  0
 13 14  1  0
 14 15  2  0
 14 16  1  0
 16 17  2  0
 17 18  1  0
 18 19  2  0
 19 20  1  0
 20 21  2  0
 21 22  1  0
 21 23  1  0
 23 24  2  0
 24 25  1  0
 25 26  2  0
  9  4  1  0
 26 16  1  0
 25 19  1  0
  1 27  1  0
  1 28  1  0
  1 29  1  0
  2 30  1  0
  2 31  1  0
  3 32  1  0
  3 33  1  0
  4 34  1  6
  5 35  1  0
  5 36  1  0
  6 37  1  1
  7 38  1  0
  8 39  1  0
  8 40  1  0
 12 41  1  0
 12 42  1  0
 13 43  1  0
 17 44  1  0
 18 45  1  0
 20 46  1  0
 23 47  1  0
 24 48  1  0
M  END
>  <smiles>  (50) 
CCC[C@@H]1C[C@@H](O)CN1C(=O)CNC(=O)c1ccc2cc(F)ccc2n1

>  <score_type>  (50) 
oracle

>  <origin>  (50) 
autodockgpu

>  <m_score__min__energy>  (50) 
-7.4800000000000004

>  <m_primary>  (50) 
energy

>  <rmsd>  (50) 
3.0378309012879017

>  <m_score__min__rmsd>  (50) 
3.0378309012879017

>  <meeko>  (50) 
{"free_energy": -7.25, "intermolecular_energy": -9.34, "internal_energy": -1.22, "cluster_size": 18, "cluster_id": 3, "rank_in_cluster": 3}

>  <energy>  (50) 
-5.12

>  <cluster_rmsd>  (50) 
0.3

>  <cluster>  (50) 
6

$$$$
