
     RDKit          3D

 59 63  0  0  0  0  0  0  0  0999 V2000
  142.0900   81.4500  223.3780 C   0  0  0  0  0  0  0  0  0  0  0  0
  142.6290   80.2320  223.7310 C   0  0  0  0  0  0  0  0  0  0  0  0
  141.9290   79.1060  223.3990 C   0  0  0  0  0  0  0  0  0  0  0  0
  140.7200   79.1610  222.7320 C   0  0  0  0  0  0  0  0  0  0  0  0
  140.0330   77.8840  222.4160 C   0  0  0  0  0  0  0  0  0  0  0  0
  141.0210   76.7180  222.3260 C   0  0  0  0  0  0  0  0  0  0  0  0
  140.4040   75.6820  221.4890 N   0  0  0  0  0  0  0  0  0  0  0  0
  140.9040   74.3620  221.4860 C   0  0  0  0  0  0  0  0  0  0  0  0
  141.9000   73.9460  220.6590 N   0  0  0  0  0  0  0  0  0  0  0  0
  142.3290   72.6660  220.7120 C   0  0  0  0  0  0  0  0  0  0  0  0
  143.3720   72.2820  219.8270 N   0  0  0  0  0  0  0  0  0  0  0  0
  143.8800   73.2030  218.8480 C   0  0  0  0  0  0  0  0  0  0  0  0
  145.3670   73.3500  219.0950 C   0  0  0  0  0  0  0  0  0  0  0  0
  145.9910   72.1220  219.2820 O   0  0  0  0  0  0  0  0  0  0  0  0
  145.1890   71.0330  218.9630 C   0  0  0  0  0  0  0  0  0  0  0  0
  143.9640   70.9560  219.8720 C   0  0  0  0  0  0  0  0  0  0  0  0
  141.7550   71.8510  221.5810 N   0  0  0  0  0  0  0  0  0  0  0  0
  140.7620   72.2150  222.4250 C   0  0  0  0  0  0  0  0  0  0  0  0
  140.1700   71.3060  223.3460 N   0  0  0  0  0  0  0  0  0  0  0  0
  139.4280   70.1510  222.8260 C   0  0  0  0  0  0  0  0  0  0  0  0
  138.4540   69.7680  223.9450 C   0  0  0  0  0  0  0  0  0  0  0  0
  139.3280   69.3120  225.0640 C   0  0  0  0  0  0  0  0  0  0  0  0
  139.2090   68.0720  225.6520 C   0  0  0  0  0  0  0  0  0  0  0  0
  140.0820   67.7620  226.6880 C   0  0  0  0  0  0  0  0  0  0  0  0
  141.0260   68.6840  227.0950 C   0  0  0  0  0  0  0  0  0  0  0  0
  141.1570   69.9270  226.5160 C   0  0  0  0  0  0  0  0  0  0  0  0
  140.2900   70.2340  225.4870 C   0  0  0  0  0  0  0  0  0  0  0  0
  140.3070   71.5300  224.7680 C   0  0  0  0  0  0  0  0  0  0  0  0
  140.3460   73.4930  222.3600 N   0  0  0  0  0  0  0  0  0  0  0  0
  140.2180   80.4000  222.3990 C   0  0  0  0  0  0  0  0  0  0  0  0
  140.8960   81.5690  222.7170 C   0  0  0  0  0  0  0  0  0  0  0  0
  142.6417   82.3654  223.6379 H   0  0  0  0  0  0  0  0  0  0  0  0
  143.5902   80.1680  224.2621 H   0  0  0  0  0  0  0  0  0  0  0  0
  142.3417   78.1235  223.6718 H   0  0  0  0  0  0  0  0  0  0  0  0
  139.2986   77.6690  223.2062 H   0  0  0  0  0  0  0  0  0  0  0  0
  139.5396   77.9922  221.4389 H   0  0  0  0  0  0  0  0  0  0  0  0
  141.9627   77.0578  221.8703 H   0  0  0  0  0  0  0  0  0  0  0  0
  141.2477   76.3235  223.3275 H   0  0  0  0  0  0  0  0  0  0  0  0
  139.5840   75.8800  220.8730 H   0  0  0  0  0  0  0  0  0  0  0  0
  143.7038   72.8109  217.8355 H   0  0  0  0  0  0  0  0  0  0  0  0
  143.3740   74.1763  218.9302 H   0  0  0  0  0  0  0  0  0  0  0  0
  145.8226   73.8507  218.2280 H   0  0  0  0  0  0  0  0  0  0  0  0
  145.5006   73.9406  220.0134 H   0  0  0  0  0  0  0  0  0  0  0  0
  144.8545   71.1287  217.9195 H   0  0  0  0  0  0  0  0  0  0  0  0
  145.7804   70.1159  219.1016 H   0  0  0  0  0  0  0  0  0  0  0  0
  143.2536   70.2036  219.4989 H   0  0  0  0  0  0  0  0  0  0  0  0
  144.2309   70.6596  220.8971 H   0  0  0  0  0  0  0  0  0  0  0  0
  138.8792   70.4236  221.9125 H   0  0  0  0  0  0  0  0  0  0  0  0
  140.0951   69.3189  222.5566 H   0  0  0  0  0  0  0  0  0  0  0  0
  137.8528   70.6369  224.2510 H   0  0  0  0  0  0  0  0  0  0  0  0
  137.7405   68.9923  223.6300 H   0  0  0  0  0  0  0  0  0  0  0  0
  138.4494   67.3521  225.3133 H   0  0  0  0  0  0  0  0  0  0  0  0
  140.0210   66.7820  227.1839 H   0  0  0  0  0  0  0  0  0  0  0  0
  141.7036   68.4138  227.9183 H   0  0  0  0  0  0  0  0  0  0  0  0
  141.9186   70.6430  226.8585 H   0  0  0  0  0  0  0  0  0  0  0  0
  139.4726   72.1539  225.1210 H   0  0  0  0  0  0  0  0  0  0  0  0
  141.2617   72.0402  224.9638 H   0  0  0  0  0  0  0  0  0  0  0  0
  139.2567   80.4646  221.8683 H   0  0  0  0  0  0  0  0  0  0  0  0
  140.4892   82.5550  222.4480 H   0  0  0  0  0  0  0  0  0  0  0  0
  1  2  2  0
  2  3  1  0
  3  4  2  0
  4  5  1  0
  5  6  1  0
  6  7  1  0
  7  8  1  0
  8  9  2  0
  9 10  1  0
 10 11  1  0
 11 12  1  0
 12 13  1  0
 13 14  1  0
 14 15  1  0
 15 16  1  0
 10 17  2  0
 17 18  1  0
 18 19  1  0
 19 20  1  0
 20 21  1  0
 21 22  1  0
 22 23  2  0
 23 24  1  0
 24 25  2  0
 25 26  1  0
 26 27  2  0
 27 28  1  0
 18 29  2  0
  4 30  1  0
 30 31  2  0
 31  1  1  0
 29  8  1  0
 16 11  1  0
 28 19  1  0
 27 22  1  0
  1 32  1  0
  2 33  1  0
  3 34  1  0
  5 35  1  0
  5 36  1  0
  6 37  1  0
  6 38  1  0
  7 39  1  0
 12 40  1  0
 12 41  1  0
 13 42  1  0
 13 43  1  0
 15 44  1  0
 15 45  1  0
 16 46  1  0
 16 47  1  0
 20 48  1  0
 20 49  1  0
 21 50  1  0
 21 51  1  0
 23 52  1  0
 24 53  1  0
 25 54  1  0
 26 55  1  0
 28 56  1  0
 28 57  1  0
 30 58  1  0
 31 59  1  0
M  END
>  <smiles>  (1) 
c1ccc(CCNc2nc(N3CCOCC3)nc(N3CCc4ccccc4C3)n2)cc1

>  <score_type>  (1) 
oracle

>  <origin>  (1) 
autodockgpu

>  <m_score__min__energy>  (1) 
-10.06

>  <m_primary>  (1) 
energy

>  <rmsd>  (1) 
3.775051944122679

>  <m_score__min__rmsd>  (1) 
3.775051944122679

>  <meeko>  (1) 
{"free_energy": -9.49, "intermolecular_energy": -11.28, "internal_energy": -0.76, "cluster_size": 49, "cluster_id": 1, "rank_in_cluster": 44}

>  <energy>  (1) 
-10.06

>  <cluster_rmsd>  (1) 
0.0

>  <cluster>  (1) 
1

$$$$

     RDKit          3D

 59 63  0  0  0  0  0  0  0  0999 V2000
  141.0470   70.9430  228.1150 C   0  0  0  0  0  0  0  0  0  0  0  0
  140.5320   69.7260  227.7230 C   0  0  0  0  0  0  0  0  0  0  0  0
  140.1710   69.5800  226.4140 C   0  0  0  0  0  0  0  0  0  0  0  0
  140.3080   70.6010  225.4930 C   0  0  0  0  0  0  0  0  0  0  0  0
  139.8880   70.3490  224.0930 C   0  0  0  0  0  0  0  0  0  0  0  0
  139.0310   71.4940  223.5460 C   0  0  0  0  0  0  0  0  0  0  0  0
  139.4310   71.7160  222.1510 N   0  0  0  0  0  0  0  0  0  0  0  0
  140.4160   72.6730  221.8250 C   0  0  0  0  0  0  0  0  0  0  0  0
  141.6570   72.3410  221.3790 N   0  0  0  0  0  0  0  0  0  0  0  0
  142.5500   73.3120  221.0870 C   0  0  0  0  0  0  0  0  0  0  0  0
  143.8330   72.9120  220.6240 N   0  0  0  0  0  0  0  0  0  0  0  0
  144.0470   71.5870  220.1100 C   0  0  0  0  0  0  0  0  0  0  0  0
  144.5770   71.7300  218.6990 C   0  0  0  0  0  0  0  0  0  0  0  0
  145.5880   72.6800  218.6130 O   0  0  0  0  0  0  0  0  0  0  0  0
  146.0610   73.1060  219.8480 C   0  0  0  0  0  0  0  0  0  0  0  0
  144.9710   73.8140  220.6490 C   0  0  0  0  0  0  0  0  0  0  0  0
  142.1780   74.5700  221.2480 N   0  0  0  0  0  0  0  0  0  0  0  0
  140.9570   74.9530  221.6890 C   0  0  0  0  0  0  0  0  0  0  0  0
  140.5970   76.3210  221.8490 N   0  0  0  0  0  0  0  0  0  0  0  0
  139.3660   76.6500  222.5760 C   0  0  0  0  0  0  0  0  0  0  0  0
  138.9550   78.0310  222.0600 C   0  0  0  0  0  0  0  0  0  0  0  0
  140.0420   78.9430  222.5200 C   0  0  0  0  0  0  0  0  0  0  0  0
  139.8080   80.0640  223.2860 C   0  0  0  0  0  0  0  0  0  0  0  0
  140.9040   80.8360  223.6520 C   0  0  0  0  0  0  0  0  0  0  0  0
  142.1730   80.4700  223.2490 C   0  0  0  0  0  0  0  0  0  0  0  0
  142.4220   79.3520  222.4830 C   0  0  0  0  0  0  0  0  0  0  0  0
  141.3340   78.5860  222.1190 C   0  0  0  0  0  0  0  0  0  0  0  0
  141.4410   77.3570  221.2980 C   0  0  0  0  0  0  0  0  0  0  0  0
  140.0800   73.9750  221.9760 N   0  0  0  0  0  0  0  0  0  0  0  0
  140.8270   71.8010  225.9290 C   0  0  0  0  0  0  0  0  0  0  0  0
  141.2070   71.9930  227.2500 C   0  0  0  0  0  0  0  0  0  0  0  0
  141.3418   71.0766  229.1663 H   0  0  0  0  0  0  0  0  0  0  0  0
  140.4157   68.9002  228.4403 H   0  0  0  0  0  0  0  0  0  0  0  0
  139.7570   68.6167  226.0814 H   0  0  0  0  0  0  0  0  0  0  0  0
  140.7849   70.2430  223.4650 H   0  0  0  0  0  0  0  0  0  0  0  0
  139.2847   69.4294  224.0754 H   0  0  0  0  0  0  0  0  0  0  0  0
  137.9662   71.2219  223.5928 H   0  0  0  0  0  0  0  0  0  0  0  0
  139.1780   72.4071  224.1415 H   0  0  0  0  0  0  0  0  0  0  0  0
  139.0090   71.1810  221.3600 H   0  0  0  0  0  0  0  0  0  0  0  0
  144.7794   71.0549  220.7348 H   0  0  0  0  0  0  0  0  0  0  0  0
  143.1098   71.0112  220.1168 H   0  0  0  0  0  0  0  0  0  0  0  0
  144.9743   70.7587  218.3694 H   0  0  0  0  0  0  0  0  0  0  0  0
  143.7467   72.0606  218.0576 H   0  0  0  0  0  0  0  0  0  0  0  0
  146.4129   72.2328  220.4169 H   0  0  0  0  0  0  0  0  0  0  0  0
  146.8821   73.8178  219.6770 H   0  0  0  0  0  0  0  0  0  0  0  0
  145.3032   73.9872  221.6832 H   0  0  0  0  0  0  0  0  0  0  0  0
  144.7242   74.7989  220.2259 H   0  0  0  0  0  0  0  0  0  0  0  0
  138.5817   75.9089  222.3625 H   0  0  0  0  0  0  0  0  0  0  0  0
  139.5172   76.6454  223.6656 H   0  0  0  0  0  0  0  0  0  0  0  0
  138.8868   78.0309  220.9621 H   0  0  0  0  0  0  0  0  0  0  0  0
  137.9667   78.3385  222.4325 H   0  0  0  0  0  0  0  0  0  0  0  0
  138.7892   80.3384  223.5970 H   0  0  0  0  0  0  0  0  0  0  0  0
  140.7606   81.7393  224.2632 H   0  0  0  0  0  0  0  0  0  0  0  0
  143.0228   81.0988  223.5529 H   0  0  0  0  0  0  0  0  0  0  0  0
  143.4431   79.0823  222.1754 H   0  0  0  0  0  0  0  0  0  0  0  0
  141.1225   77.5775  220.2685 H   0  0  0  0  0  0  0  0  0  0  0  0
  142.4853   77.0113  221.2988 H   0  0  0  0  0  0  0  0  0  0  0  0
  140.9429   72.6272  225.2121 H   0  0  0  0  0  0  0  0  0  0  0  0
  141.6216   72.9535  227.5900 H   0  0  0  0  0  0  0  0  0  0  0  0
  1  2  2  0
  2  3  1  0
  3  4  2  0
  4  5  1  0
  5  6  1  0
  6  7  1  0
  7  8  1  0
  8  9  2  0
  9 10  1  0
 10 11  1  0
 11 12  1  0
 12 13  1  0
 13 14  1  0
 14 15  1  0
 15 16  1  0
 10 17  2  0
 17 18  1  0
 18 19  1  0
 19 20  1  0
 20 21  1  0
 21 22  1  0
 22 23  2  0
 23 24  1  0
 24 25  2  0
 25 26  1  0
 26 27  2  0
 27 28  1  0
 18 29  2  0
  4 30  1  0
 30 31  2  0
 31  1  1  0
 29  8  1  0
 16 11  1  0
 28 19  1  0
 27 22  1  0
  1 32  1  0
  2 33  1  0
  3 34  1  0
  5 35  1  0
  5 36  1  0
  6 37  1  0
  6 38  1  0
  7 39  1  0
 12 40  1  0
 12 41  1  0
 13 42  1  0
 13 43  1  0
 15 44  1  0
 15 45  1  0
 16 46  1  0
 16 47  1  0
 20 48  1  0
 20 49  1  0
 21 50  1  0
 21 51  1  0
 23 52  1  0
 24 53  1  0
 25 54  1  0
 26 55  1  0
 28 56  1  0
 28 57  1  0
 30 58  1  0
 31 59  1  0
M  END
>  <smiles>  (2) 
c1ccc(CCNc2nc(N3CCOCC3)nc(N3CCc4ccccc4C3)n2)cc1

>  <score_type>  (2) 
oracle

>  <origin>  (2) 
autodockgpu

>  <m_score__min__energy>  (2) 
-10.06

>  <m_primary>  (2) 
energy

>  <rmsd>  (2) 
10.050313593303299

>  <m_score__min__rmsd>  (2) 
10.050313593303299

>  <meeko>  (2) 
{"free_energy": -9.86, "intermolecular_energy": -11.65, "internal_energy": -0.99, "cluster_size": 49, "cluster_id": 1, "rank_in_cluster": 22}

>  <energy>  (2) 
-10.06

>  <cluster_rmsd>  (2) 
0.55

>  <cluster>  (2) 
1

$$$$

     RDKit          3D

 59 63  0  0  0  0  0  0  0  0999 V2000
  139.9720   70.2630  228.1110 C   0  0  0  0  0  0  0  0  0  0  0  0
  139.5690   69.4700  227.0570 C   0  0  0  0  0  0  0  0  0  0  0  0
  139.8340   69.9100  225.7920 C   0  0  0  0  0  0  0  0  0  0  0  0
  140.4850   71.1040  225.5490 C   0  0  0  0  0  0  0  0  0  0  0  0
  140.7280   71.4990  224.1390 C   0  0  0  0  0  0  0  0  0  0  0  0
  139.4820   71.2970  223.2730 C   0  0  0  0  0  0  0  0  0  0  0  0
  139.1190   72.6040  222.7110 N   0  0  0  0  0  0  0  0  0  0  0  0
  140.0970   73.4340  222.1220 C   0  0  0  0  0  0  0  0  0  0  0  0
  141.1470   72.9520  221.4060 N   0  0  0  0  0  0  0  0  0  0  0  0
  142.0460   73.8080  220.8700 C   0  0  0  0  0  0  0  0  0  0  0  0
  143.1250   73.2540  220.1300 N   0  0  0  0  0  0  0  0  0  0  0  0
  144.1190   74.1030  219.5340 C   0  0  0  0  0  0  0  0  0  0  0  0
  145.4640   73.6820  220.0880 C   0  0  0  0  0  0  0  0  0  0  0  0
  145.6300   72.3030  220.0700 O   0  0  0  0  0  0  0  0  0  0  0  0
  144.6580   71.6320  219.3360 C   0  0  0  0  0  0  0  0  0  0  0  0
  143.2700   71.8190  219.9460 C   0  0  0  0  0  0  0  0  0  0  0  0
  141.8680   75.1030  221.0660 N   0  0  0  0  0  0  0  0  0  0  0  0
  140.8410   75.6330  221.7710 C   0  0  0  0  0  0  0  0  0  0  0  0
  140.6860   77.0350  221.9590 N   0  0  0  0  0  0  0  0  0  0  0  0
  139.5010   77.5290  222.6690 C   0  0  0  0  0  0  0  0  0  0  0  0
  139.3150   78.9680  222.1800 C   0  0  0  0  0  0  0  0  0  0  0  0
  140.5150   79.6950  222.6860 C   0  0  0  0  0  0  0  0  0  0  0  0
  140.4330   80.8210  223.4760 C   0  0  0  0  0  0  0  0  0  0  0  0
  141.6230   81.4100  223.8860 C   0  0  0  0  0  0  0  0  0  0  0  0
  142.8320   80.8670  223.5000 C   0  0  0  0  0  0  0  0  0  0  0  0
  142.9290   79.7420  222.7100 C   0  0  0  0  0  0  0  0  0  0  0  0
  141.7480   79.1560  222.3040 C   0  0  0  0  0  0  0  0  0  0  0  0
  141.6900   77.9440  221.4530 C   0  0  0  0  0  0  0  0  0  0  0  0
  139.9550   74.7680  222.2980 N   0  0  0  0  0  0  0  0  0  0  0  0
  140.8700   71.8650  226.6310 C   0  0  0  0  0  0  0  0  0  0  0  0
  140.6200   71.4570  227.9340 C   0  0  0  0  0  0  0  0  0  0  0  0
  139.7645   69.9227  229.1362 H   0  0  0  0  0  0  0  0  0  0  0  0
  139.0514   68.5149  227.2298 H   0  0  0  0  0  0  0  0  0  0  0  0
  139.5186   69.2931  224.9377 H   0  0  0  0  0  0  0  0  0  0  0  0
  141.0141   72.5608  224.1102 H   0  0  0  0  0  0  0  0  0  0  0  0
  141.5316   70.8639  223.7380 H   0  0  0  0  0  0  0  0  0  0  0  0
  139.6995   70.5866  222.4618 H   0  0  0  0  0  0  0  0  0  0  0  0
  138.6548   70.8898  223.8730 H   0  0  0  0  0  0  0  0  0  0  0  0
  138.1380   72.9620  222.7260 H   0  0  0  0  0  0  0  0  0  0  0  0
  144.1087   73.9840  218.4405 H   0  0  0  0  0  0  0  0  0  0  0  0
  143.9169   75.1594  219.7647 H   0  0  0  0  0  0  0  0  0  0  0  0
  146.2572   74.1423  219.4806 H   0  0  0  0  0  0  0  0  0  0  0  0
  145.5175   74.0152  221.1350 H   0  0  0  0  0  0  0  0  0  0  0  0
  144.6526   72.0230  218.3079 H   0  0  0  0  0  0  0  0  0  0  0  0
  144.8978   70.5585  219.3444 H   0  0  0  0  0  0  0  0  0  0  0  0
  142.4948   71.4370  219.2654 H   0  0  0  0  0  0  0  0  0  0  0  0
  143.1594   71.2697  220.8926 H   0  0  0  0  0  0  0  0  0  0  0  0
  138.6197   76.9195  222.4204 H   0  0  0  0  0  0  0  0  0  0  0  0
  139.6230   77.4770  223.7610 H   0  0  0  0  0  0  0  0  0  0  0  0
  139.2746   79.0027  221.0813 H   0  0  0  0  0  0  0  0  0  0  0  0
  138.3753   79.4127  222.5395 H   0  0  0  0  0  0  0  0  0  0  0  0
  139.4595   81.2391  223.7718 H   0  0  0  0  0  0  0  0  0  0  0  0
  141.6015   82.3096  224.5186 H   0  0  0  0  0  0  0  0  0  0  0  0
  143.7588   81.3537  223.8379 H   0  0  0  0  0  0  0  0  0  0  0  0
  143.9054   79.3294  222.4161 H   0  0  0  0  0  0  0  0  0  0  0  0
  141.4341   78.2334  220.4231 H   0  0  0  0  0  0  0  0  0  0  0  0
  142.6701   77.4449  221.4664 H   0  0  0  0  0  0  0  0  0  0  0  0
  141.3884   72.8196  226.4580 H   0  0  0  0  0  0  0  0  0  0  0  0
  140.9308   72.0699  228.7930 H   0  0  0  0  0  0  0  0  0  0  0  0
  1  2  2  0
  2  3  1  0
  3  4  2  0
  4  5  1  0
  5  6  1  0
  6  7  1  0
  7  8  1  0
  8  9  2  0
  9 10  1  0
 10 11  1  0
 11 12  1  0
 12 13  1  0
 13 14  1  0
 14 15  1  0
 15 16  1  0
 10 17  2  0
 17 18  1  0
 18 19  1  0
 19 20  1  0
 20 21  1  0
 21 22  1  0
 22 23  2  0
 23 24  1  0
 24 25  2  0
 25 26  1  0
 26 27  2  0
 27 28  1  0
 18 29  2  0
  4 30  1  0
 30 31  2  0
 31  1  1  0
 29  8  1  0
 16 11  1  0
 28 19  1  0
 27 22  1  0
  1 32  1  0
  2 33  1  0
  3 34  1  0
  5 35  1  0
  5 36  1  0
  6 37  1  0
  6 38  1  0
  7 39  1  0
 12 40  1  0
 12 41  1  0
 13 42  1  0
 13 43  1  0
 15 44  1  0
 15 45  1  0
 16 46  1  0
 16 47  1  0
 20 48  1  0
 20 49  1  0
 21 50  1  0
 21 51  1  0
 23 52  1  0
 24 53  1  0
 25 54  1  0
 26 55  1  0
 28 56  1  0
 28 57  1  0
 30 58  1  0
 31 59  1  0
M  END
>  <smiles>  (3) 
c1ccc(CCNc2nc(N3CCOCC3)nc(N3CCc4ccccc4C3)n2)cc1

>  <score_type>  (3) 
oracle

>  <origin>  (3) 
autodockgpu

>  <m_score__min__energy>  (3) 
-10.06

>  <m_primary>  (3) 
energy

>  <rmsd>  (3) 
10.606164629122114

>  <m_score__min__rmsd>  (3) 
10.606164629122114

>  <meeko>  (3) 
{"free_energy": -10.06, "intermolecular_energy": -11.85, "internal_energy": -0.97, "cluster_size": 49, "cluster_id": 1, "rank_in_cluster": 2}

>  <energy>  (3) 
-10.05

>  <cluster_rmsd>  (3) 
0.76

>  <cluster>  (3) 
1

$$$$

     RDKit          3D

 59 63  0  0  0  0  0  0  0  0999 V2000
  140.0030   69.6040  228.3220 C   0  0  0  0  0  0  0  0  0  0  0  0
  140.3590   70.9340  228.2490 C   0  0  0  0  0  0  0  0  0  0  0  0
  140.6920   71.4370  227.0230 C   0  0  0  0  0  0  0  0  0  0  0  0
  140.6790   70.6600  225.8800 C   0  0  0  0  0  0  0  0  0  0  0  0
  141.0570   71.2940  224.5930 C   0  0  0  0  0  0  0  0  0  0  0  0
  140.0350   70.9920  223.4930 C   0  0  0  0  0  0  0  0  0  0  0  0
  139.5920   72.2780  222.9390 N   0  0  0  0  0  0  0  0  0  0  0  0
  140.4810   73.0930  222.2060 C   0  0  0  0  0  0  0  0  0  0  0  0
  141.5110   72.5960  221.4710 N   0  0  0  0  0  0  0  0  0  0  0  0
  142.3230   73.4380  220.7940 C   0  0  0  0  0  0  0  0  0  0  0  0
  143.3850   72.8680  220.0410 N   0  0  0  0  0  0  0  0  0  0  0  0
  144.2910   73.7030  219.3010 C   0  0  0  0  0  0  0  0  0  0  0  0
  145.6890   73.4070  219.8020 C   0  0  0  0  0  0  0  0  0  0  0  0
  145.9310   72.0430  219.9060 O   0  0  0  0  0  0  0  0  0  0  0  0
  144.9560   71.2560  219.3060 C   0  0  0  0  0  0  0  0  0  0  0  0
  143.5990   71.4320  219.9860 C   0  0  0  0  0  0  0  0  0  0  0  0
  142.0830   74.7360  220.8740 N   0  0  0  0  0  0  0  0  0  0  0  0
  141.0730   75.2810  221.5920 C   0  0  0  0  0  0  0  0  0  0  0  0
  140.8490   76.6850  221.6520 N   0  0  0  0  0  0  0  0  0  0  0  0
  141.0820   77.3870  222.9190 C   0  0  0  0  0  0  0  0  0  0  0  0
  140.2090   78.6430  222.8440 C   0  0  0  0  0  0  0  0  0  0  0  0
  140.8000   79.4460  221.7350 C   0  0  0  0  0  0  0  0  0  0  0  0
  141.2260   80.7470  221.8940 C   0  0  0  0  0  0  0  0  0  0  0  0
  141.7590   81.3910  220.7830 C   0  0  0  0  0  0  0  0  0  0  0  0
  141.8450   80.7290  219.5760 C   0  0  0  0  0  0  0  0  0  0  0  0
  141.4230   79.4290  219.4020 C   0  0  0  0  0  0  0  0  0  0  0  0
  140.8950   78.7890  220.5040 C   0  0  0  0  0  0  0  0  0  0  0  0
  140.3980   77.3920  220.4740 C   0  0  0  0  0  0  0  0  0  0  0  0
  140.2740   74.4290  222.2600 N   0  0  0  0  0  0  0  0  0  0  0  0
  140.3170   69.3360  226.0000 C   0  0  0  0  0  0  0  0  0  0  0  0
  139.9720   68.7840  227.2260 C   0  0  0  0  0  0  0  0  0  0  0  0
  139.7325   69.1840  229.3020 H   0  0  0  0  0  0  0  0  0  0  0  0
  140.3744   71.5687  229.1473 H   0  0  0  0  0  0  0  0  0  0  0  0
  140.9800   72.4956  226.9430 H   0  0  0  0  0  0  0  0  0  0  0  0
  141.1164   72.3831  224.7356 H   0  0  0  0  0  0  0  0  0  0  0  0
  142.0291   70.8846  224.2807 H   0  0  0  0  0  0  0  0  0  0  0  0
  140.5008   70.3833  222.7040 H   0  0  0  0  0  0  0  0  0  0  0  0
  139.1814   70.4301  223.9000 H   0  0  0  0  0  0  0  0  0  0  0  0
  138.6170   72.6300  223.0640 H   0  0  0  0  0  0  0  0  0  0  0  0
  144.2202   73.4757  218.2271 H   0  0  0  0  0  0  0  0  0  0  0  0
  144.0441   74.7656  219.4421 H   0  0  0  0  0  0  0  0  0  0  0  0
  146.4162   73.8435  219.1015 H   0  0  0  0  0  0  0  0  0  0  0  0
  145.7879   73.8452  220.8061 H   0  0  0  0  0  0  0  0  0  0  0  0
  144.8657   71.5431  218.2480 H   0  0  0  0  0  0  0  0  0  0  0  0
  145.2560   70.2020  219.4010 H   0  0  0  0  0  0  0  0  0  0  0  0
  142.8067   70.9460  219.3978 H   0  0  0  0  0  0  0  0  0  0  0  0
  143.5773   70.9741  220.9859 H   0  0  0  0  0  0  0  0  0  0  0  0
  140.7819   76.7581  223.7701 H   0  0  0  0  0  0  0  0  0  0  0  0
  142.1444   77.6310  223.0663 H   0  0  0  0  0  0  0  0  0  0  0  0
  139.1656   78.3778  222.6182 H   0  0  0  0  0  0  0  0  0  0  0  0
  140.1902   79.1954  223.7950 H   0  0  0  0  0  0  0  0  0  0  0  0
  141.1471   81.2576  222.8651 H   0  0  0  0  0  0  0  0  0  0  0  0
  142.1124   82.4293  220.8667 H   0  0  0  0  0  0  0  0  0  0  0  0
  142.2697   81.2631  218.7133 H   0  0  0  0  0  0  0  0  0  0  0  0
  141.5035   78.9241  218.4280 H   0  0  0  0  0  0  0  0  0  0  0  0
  139.2983   77.3963  220.4496 H   0  0  0  0  0  0  0  0  0  0  0  0
  140.7872   76.8878  219.5772 H   0  0  0  0  0  0  0  0  0  0  0  0
  140.3010   68.7007  225.1021 H   0  0  0  0  0  0  0  0  0  0  0  0
  139.6841   67.7260  227.3138 H   0  0  0  0  0  0  0  0  0  0  0  0
  1  2  2  0
  2  3  1  0
  3  4  2  0
  4  5  1  0
  5  6  1  0
  6  7  1  0
  7  8  1  0
  8  9  2  0
  9 10  1  0
 10 11  1  0
 11 12  1  0
 12 13  1  0
 13 14  1  0
 14 15  1  0
 15 16  1  0
 10 17  2  0
 17 18  1  0
 18 19  1  0
 19 20  1  0
 20 21  1  0
 21 22  1  0
 22 23  2  0
 23 24  1  0
 24 25  2  0
 25 26  1  0
 26 27  2  0
 27 28  1  0
 18 29  2  0
  4 30  1  0
 30 31  2  0
 31  1  1  0
 29  8  1  0
 16 11  1  0
 28 19  1  0
 27 22  1  0
  1 32  1  0
  2 33  1  0
  3 34  1  0
  5 35  1  0
  5 36  1  0
  6 37  1  0
  6 38  1  0
  7 39  1  0
 12 40  1  0
 12 41  1  0
 13 42  1  0
 13 43  1  0
 15 44  1  0
 15 45  1  0
 16 46  1  0
 16 47  1  0
 20 48  1  0
 20 49  1  0
 21 50  1  0
 21 51  1  0
 23 52  1  0
 24 53  1  0
 25 54  1  0
 26 55  1  0
 28 56  1  0
 28 57  1  0
 30 58  1  0
 31 59  1  0
M  END
>  <smiles>  (4) 
c1ccc(CCNc2nc(N3CCOCC3)nc(N3CCc4ccccc4C3)n2)cc1

>  <score_type>  (4) 
oracle

>  <origin>  (4) 
autodockgpu

>  <m_score__min__energy>  (4) 
-10.06

>  <m_primary>  (4) 
energy

>  <rmsd>  (4) 
10.549928671090388

>  <m_score__min__rmsd>  (4) 
10.549928671090388

>  <meeko>  (4) 
{"free_energy": -9.1, "intermolecular_energy": -10.89, "internal_energy": -0.91, "cluster_size": 49, "cluster_id": 1, "rank_in_cluster": 48}

>  <energy>  (4) 
-10.03

>  <cluster_rmsd>  (4) 
0.81

>  <cluster>  (4) 
1

$$$$

     RDKit          3D

 59 63  0  0  0  0  0  0  0  0999 V2000
  140.9510   70.1840  228.1250 C   0  0  0  0  0  0  0  0  0  0  0  0
  140.6810   69.3440  227.0650 C   0  0  0  0  0  0  0  0  0  0  0  0
  140.6050   69.8970  225.8190 C   0  0  0  0  0  0  0  0  0  0  0  0
  140.7890   71.2490  225.6000 C   0  0  0  0  0  0  0  0  0  0  0  0
  140.6860   71.7590  224.2100 C   0  0  0  0  0  0  0  0  0  0  0  0
  139.4790   71.1630  223.4790 C   0  0  0  0  0  0  0  0  0  0  0  0
  139.2940   71.9280  222.2390 N   0  0  0  0  0  0  0  0  0  0  0  0
  140.2650   72.8600  221.8140 C   0  0  0  0  0  0  0  0  0  0  0  0
  141.4300   72.4990  221.2150 N   0  0  0  0  0  0  0  0  0  0  0  0
  142.3140   73.4470  220.8340 C   0  0  0  0  0  0  0  0  0  0  0  0
  143.5170   73.0170  220.2120 N   0  0  0  0  0  0  0  0  0  0  0  0
  144.4790   73.9720  219.7340 C   0  0  0  0  0  0  0  0  0  0  0  0
  145.7920   73.6770  220.4300 C   0  0  0  0  0  0  0  0  0  0  0  0
  146.0970   72.3220  220.4200 O   0  0  0  0  0  0  0  0  0  0  0  0
  145.2840   71.5710  219.5800 C   0  0  0  0  0  0  0  0  0  0  0  0
  143.8260   71.6080  220.0350 C   0  0  0  0  0  0  0  0  0  0  0  0
  142.0070   74.7130  221.0600 N   0  0  0  0  0  0  0  0  0  0  0  0
  140.8620   75.1250  221.6520 C   0  0  0  0  0  0  0  0  0  0  0  0
  140.5700   76.4990  221.8790 N   0  0  0  0  0  0  0  0  0  0  0  0
  139.3840   76.8520  222.6680 C   0  0  0  0  0  0  0  0  0  0  0  0
  139.0160   78.2700  222.2210 C   0  0  0  0  0  0  0  0  0  0  0  0
  140.1600   79.1140  222.6710 C   0  0  0  0  0  0  0  0  0  0  0  0
  140.0070   80.2130  223.4870 C   0  0  0  0  0  0  0  0  0  0  0  0
  141.1500   80.9220  223.8380 C   0  0  0  0  0  0  0  0  0  0  0  0
  142.3840   80.5170  223.3690 C   0  0  0  0  0  0  0  0  0  0  0  0
  142.5530   79.4210  222.5520 C   0  0  0  0  0  0  0  0  0  0  0  0
  141.4180   78.7170  222.2050 C   0  0  0  0  0  0  0  0  0  0  0  0
  141.4380   77.5190  221.3330 C   0  0  0  0  0  0  0  0  0  0  0  0
  139.9930   74.1680  222.0260 N   0  0  0  0  0  0  0  0  0  0  0  0
  141.0560   72.0520  226.6880 C   0  0  0  0  0  0  0  0  0  0  0  0
  141.1420   71.5320  227.9720 C   0  0  0  0  0  0  0  0  0  0  0  0
  141.0157   69.7538  229.1353 H   0  0  0  0  0  0  0  0  0  0  0  0
  140.5319   68.2650  227.2182 H   0  0  0  0  0  0  0  0  0  0  0  0
  140.3900   69.2441  224.9602 H   0  0  0  0  0  0  0  0  0  0  0  0
  140.5815   72.8537  224.2382 H   0  0  0  0  0  0  0  0  0  0  0  0
  141.5966   71.4653  223.6673 H   0  0  0  0  0  0  0  0  0  0  0  0
  139.6670   70.1051  223.2435 H   0  0  0  0  0  0  0  0  0  0  0  0
  138.5781   71.2190  224.1076 H   0  0  0  0  0  0  0  0  0  0  0  0
  138.4500   71.8110  221.6360 H   0  0  0  0  0  0  0  0  0  0  0  0
  144.5995   73.8720  218.6452 H   0  0  0  0  0  0  0  0  0  0  0  0
  144.1473   74.9988  219.9478 H   0  0  0  0  0  0  0  0  0  0  0  0
  146.5961   74.2251  219.9171 H   0  0  0  0  0  0  0  0  0  0  0  0
  145.6977   73.9947  221.4789 H   0  0  0  0  0  0  0  0  0  0  0  0
  145.3509   71.9774  218.5600 H   0  0  0  0  0  0  0  0  0  0  0  0
  145.6287   70.5268  219.6078 H   0  0  0  0  0  0  0  0  0  0  0  0
  143.1721   71.1629  219.2706 H   0  0  0  0  0  0  0  0  0  0  0  0
  143.6696   71.0337  220.9601 H   0  0  0  0  0  0  0  0  0  0  0  0
  138.5593   76.1548  222.4589 H   0  0  0  0  0  0  0  0  0  0  0  0
  139.5769   76.7975  223.7496 H   0  0  0  0  0  0  0  0  0  0  0  0
  138.9056   78.3163  221.1275 H   0  0  0  0  0  0  0  0  0  0  0  0
  138.0577   78.6057  222.6440 H   0  0  0  0  0  0  0  0  0  0  0  0
  139.0143   80.5192  223.8486 H   0  0  0  0  0  0  0  0  0  0  0  0
  141.0715   81.8052  224.4890 H   0  0  0  0  0  0  0  0  0  0  0  0
  143.2725   81.0960  223.6611 H   0  0  0  0  0  0  0  0  0  0  0  0
  143.5481   79.1204  222.1923 H   0  0  0  0  0  0  0  0  0  0  0  0
  141.0894   77.7943  220.3267 H   0  0  0  0  0  0  0  0  0  0  0  0
  142.4649   77.1289  221.2766 H   0  0  0  0  0  0  0  0  0  0  0  0
  141.2045   73.1311  226.5350 H   0  0  0  0  0  0  0  0  0  0  0  0
  141.3558   72.1789  228.8356 H   0  0  0  0  0  0  0  0  0  0  0  0
  1  2  2  0
  2  3  1  0
  3  4  2  0
  4  5  1  0
  5  6  1  0
  6  7  1  0
  7  8  1  0
  8  9  2  0
  9 10  1  0
 10 11  1  0
 11 12  1  0
 12 13  1  0
 13 14  1  0
 14 15  1  0
 15 16  1  0
 10 17  2  0
 17 18  1  0
 18 19  1  0
 19 20  1  0
 20 21  1  0
 21 22  1  0
 22 23  2  0
 23 24  1  0
 24 25  2  0
 25 26  1  0
 26 27  2  0
 27 28  1  0
 18 29  2  0
  4 30  1  0
 30 31  2  0
 31  1  1  0
 29  8  1  0
 16 11  1  0
 28 19  1  0
 27 22  1  0
  1 32  1  0
  2 33  1  0
  3 34  1  0
  5 35  1  0
  5 36  1  0
  6 37  1  0
  6 38  1  0
  7 39  1  0
 12 40  1  0
 12 41  1  0
 13 42  1  0
 13 43  1  0
 15 44  1  0
 15 45  1  0
 16 46  1  0
 16 47  1  0
 20 48  1  0
 20 49  1  0
 21 50  1  0
 21 51  1  0
 23 52  1  0
 24 53  1  0
 25 54  1  0
 26 55  1  0
 28 56  1  0
 28 57  1  0
 30 58  1  0
 31 59  1  0
M  END
>  <smiles>  (5) 
c1ccc(CCNc2nc(N3CCOCC3)nc(N3CCc4ccccc4C3)n2)cc1

>  <score_type>  (5) 
oracle

>  <origin>  (5) 
autodockgpu

>  <m_score__min__energy>  (5) 
-10.06

>  <m_primary>  (5) 
energy

>  <rmsd>  (5) 
10.136753814094321

>  <m_score__min__rmsd>  (5) 
10.136753814094321

>  <meeko>  (5) 
{"free_energy": -9.9, "intermolecular_energy": -11.69, "internal_energy": -1.01, "cluster_size": 49, "cluster_id": 1, "rank_in_cluster": 19}

>  <energy>  (5) 
-10.02

>  <cluster_rmsd>  (5) 
0.53

>  <cluster>  (5) 
1

$$$$

     RDKit          3D

 59 63  0  0  0  0  0  0  0  0999 V2000
  141.8580   81.6520  222.5600 C   0  0  0  0  0  0  0  0  0  0  0  0
  141.3340   80.9820  221.4750 C   0  0  0  0  0  0  0  0  0  0  0  0
  141.0930   79.6440  221.6080 C   0  0  0  0  0  0  0  0  0  0  0  0
  141.3560   78.9620  222.7810 C   0  0  0  0  0  0  0  0  0  0  0  0
  141.0620   77.5080  222.8310 C   0  0  0  0  0  0  0  0  0  0  0  0
  140.9400   76.9090  221.4270 C   0  0  0  0  0  0  0  0  0  0  0  0
  140.1270   75.6900  221.5380 N   0  0  0  0  0  0  0  0  0  0  0  0
  140.7340   74.4160  221.5510 C   0  0  0  0  0  0  0  0  0  0  0  0
  141.8020   74.0940  220.7740 N   0  0  0  0  0  0  0  0  0  0  0  0
  142.3320   72.8520  220.8390 C   0  0  0  0  0  0  0  0  0  0  0  0
  143.4470   72.5660  220.0060 N   0  0  0  0  0  0  0  0  0  0  0  0
  144.2570   73.6270  219.4740 C   0  0  0  0  0  0  0  0  0  0  0  0
  145.6800   73.3820  219.9320 C   0  0  0  0  0  0  0  0  0  0  0  0
  146.0670   72.0590  219.7570 O   0  0  0  0  0  0  0  0  0  0  0  0
  145.1810   71.3150  218.9870 C   0  0  0  0  0  0  0  0  0  0  0  0
  143.8140   71.2030  219.6610 C   0  0  0  0  0  0  0  0  0  0  0  0
  141.7830   71.9820  221.6690 N   0  0  0  0  0  0  0  0  0  0  0  0
  140.7200   72.2530  222.4630 C   0  0  0  0  0  0  0  0  0  0  0  0
  140.1580   71.2870  223.3440 N   0  0  0  0  0  0  0  0  0  0  0  0
  139.5430   70.0810  222.7760 C   0  0  0  0  0  0  0  0  0  0  0  0
  138.5480   69.6050  223.8370 C   0  0  0  0  0  0  0  0  0  0  0  0
  139.3960   69.2090  224.9980 C   0  0  0  0  0  0  0  0  0  0  0  0
  139.3490   67.9560  225.5690 C   0  0  0  0  0  0  0  0  0  0  0  0
  140.1900   67.7070  226.6480 C   0  0  0  0  0  0  0  0  0  0  0  0
  141.0310   68.6990  227.1120 C   0  0  0  0  0  0  0  0  0  0  0  0
  141.0880   69.9550  226.5510 C   0  0  0  0  0  0  0  0  0  0  0  0
  140.2550   70.2030  225.4800 C   0  0  0  0  0  0  0  0  0  0  0  0
  140.2010   71.5040  224.7720 C   0  0  0  0  0  0  0  0  0  0  0  0
  140.2040   73.4930  222.3860 N   0  0  0  0  0  0  0  0  0  0  0  0
  141.8800   79.6700  223.8400 C   0  0  0  0  0  0  0  0  0  0  0  0
  142.1400   81.0310  223.7480 C   0  0  0  0  0  0  0  0  0  0  0  0
  142.0579   82.7298  222.4679 H   0  0  0  0  0  0  0  0  0  0  0  0
  141.1171   81.5075  220.5333 H   0  0  0  0  0  0  0  0  0  0  0  0
  140.6759   79.0911  220.7534 H   0  0  0  0  0  0  0  0  0  0  0  0
  141.8754   76.9976  223.3674 H   0  0  0  0  0  0  0  0  0  0  0  0
  140.1017   77.3688  223.3491 H   0  0  0  0  0  0  0  0  0  0  0  0
  140.4503   77.6274  220.7531 H   0  0  0  0  0  0  0  0  0  0  0  0
  141.9337   76.6768  221.0163 H   0  0  0  0  0  0  0  0  0  0  0  0
  139.0860   75.7220  221.6110 H   0  0  0  0  0  0  0  0  0  0  0  0
  144.2093   73.6219  218.3750 H   0  0  0  0  0  0  0  0  0  0  0  0
  143.8978   74.6050  219.8269 H   0  0  0  0  0  0  0  0  0  0  0  0
  146.3551   74.0283  219.3520 H   0  0  0  0  0  0  0  0  0  0  0  0
  145.7330   73.6101  221.0068 H   0  0  0  0  0  0  0  0  0  0  0  0
  145.0589   71.8040  218.0093 H   0  0  0  0  0  0  0  0  0  0  0  0
  145.5923   70.3017  218.8683 H   0  0  0  0  0  0  0  0  0  0  0  0
  143.0773   70.7684  218.9694 H   0  0  0  0  0  0  0  0  0  0  0  0
  143.8435   70.5487  220.5448 H   0  0  0  0  0  0  0  0  0  0  0  0
  139.0221   70.3186  221.8367 H   0  0  0  0  0  0  0  0  0  0  0  0
  140.2905   69.3105  222.5360 H   0  0  0  0  0  0  0  0  0  0  0  0
  137.8610   70.4172  224.1171 H   0  0  0  0  0  0  0  0  0  0  0  0
  137.9199   68.7765  223.4777 H   0  0  0  0  0  0  0  0  0  0  0  0
  138.6703   67.1802  225.1850 H   0  0  0  0  0  0  0  0  0  0  0  0
  140.1853   66.7193  227.1322 H   0  0  0  0  0  0  0  0  0  0  0  0
  141.6846   68.4758  227.9681 H   0  0  0  0  0  0  0  0  0  0  0  0
  141.7682   70.7270  226.9399 H   0  0  0  0  0  0  0  0  0  0  0  0
  139.2999   72.0520  225.0847 H   0  0  0  0  0  0  0  0  0  0  0  0
  141.0983   72.0891  225.0219 H   0  0  0  0  0  0  0  0  0  0  0  0
  142.0978   79.1445  224.7815 H   0  0  0  0  0  0  0  0  0  0  0  0
  142.5573   81.5902  224.5984 H   0  0  0  0  0  0  0  0  0  0  0  0
  1  2  2  0
  2  3  1  0
  3  4  2  0
  4  5  1  0
  5  6  1  0
  6  7  1  0
  7  8  1  0
  8  9  2  0
  9 10  1  0
 10 11  1  0
 11 12  1  0
 12 13  1  0
 13 14  1  0
 14 15  1  0
 15 16  1  0
 10 17  2  0
 17 18  1  0
 18 19  1  0
 19 20  1  0
 20 21  1  0
 21 22  1  0
 22 23  2  0
 23 24  1  0
 24 25  2  0
 25 26  1  0
 26 27  2  0
 27 28  1  0
 18 29  2  0
  4 30  1  0
 30 31  2  0
 31  1  1  0
 29  8  1  0
 16 11  1  0
 28 19  1  0
 27 22  1  0
  1 32  1  0
  2 33  1  0
  3 34  1  0
  5 35  1  0
  5 36  1  0
  6 37  1  0
  6 38  1  0
  7 39  1  0
 12 40  1  0
 12 41  1  0
 13 42  1  0
 13 43  1  0
 15 44  1  0
 15 45  1  0
 16 46  1  0
 16 47  1  0
 20 48  1  0
 20 49  1  0
 21 50  1  0
 21 51  1  0
 23 52  1  0
 24 53  1  0
 25 54  1  0
 26 55  1  0
 28 56  1  0
 28 57  1  0
 30 58  1  0
 31 59  1  0
M  END
>  <smiles>  (6) 
c1ccc(CCNc2nc(N3CCOCC3)nc(N3CCc4ccccc4C3)n2)cc1

>  <score_type>  (6) 
oracle

>  <origin>  (6) 
autodockgpu

>  <m_score__min__energy>  (6) 
-10.06

>  <m_primary>  (6) 
energy

>  <rmsd>  (6) 
3.7997295183036153

>  <m_score__min__rmsd>  (6) 
3.7997295183036153

>  <meeko>  (6) 
{"free_energy": -9.61, "intermolecular_energy": -11.4, "internal_energy": -0.82, "cluster_size": 49, "cluster_id": 1, "rank_in_cluster": 40}

>  <energy>  (6) 
-10.01

>  <cluster_rmsd>  (6) 
0.83

>  <cluster>  (6) 
1

$$$$

     RDKit          3D

 59 63  0  0  0  0  0  0  0  0999 V2000
  140.5430   70.2390  228.3100 C   0  0  0  0  0  0  0  0  0  0  0  0
  141.0820   71.4750  228.0240 C   0  0  0  0  0  0  0  0  0  0  0  0
  141.0510   71.8970  226.7250 C   0  0  0  0  0  0  0  0  0  0  0  0
  140.5010   71.1300  225.7150 C   0  0  0  0  0  0  0  0  0  0  0  0
  140.5140   71.6730  224.3330 C   0  0  0  0  0  0  0  0  0  0  0  0
  139.6980   70.7990  223.3760 C   0  0  0  0  0  0  0  0  0  0  0  0
  139.6650   71.4810  222.0770 N   0  0  0  0  0  0  0  0  0  0  0  0
  140.6080   72.4840  221.7630 C   0  0  0  0  0  0  0  0  0  0  0  0
  141.8660   72.2100  221.3270 N   0  0  0  0  0  0  0  0  0  0  0  0
  142.7160   73.2220  221.0460 C   0  0  0  0  0  0  0  0  0  0  0  0
  144.0200   72.8830  220.5940 N   0  0  0  0  0  0  0  0  0  0  0  0
  144.2560   71.6560  219.8850 C   0  0  0  0  0  0  0  0  0  0  0  0
  144.8640   72.0170  218.5460 C   0  0  0  0  0  0  0  0  0  0  0  0
  145.8830   72.9530  218.6690 O   0  0  0  0  0  0  0  0  0  0  0  0
  146.2900   73.1680  219.9800 C   0  0  0  0  0  0  0  0  0  0  0  0
  145.1610   73.7530  220.8260 C   0  0  0  0  0  0  0  0  0  0  0  0
  142.2850   74.4620  221.2060 N   0  0  0  0  0  0  0  0  0  0  0  0
  141.0440   74.7870  221.6370 C   0  0  0  0  0  0  0  0  0  0  0  0
  140.6190   76.1360  221.7970 N   0  0  0  0  0  0  0  0  0  0  0  0
  139.3400   76.4020  222.4650 C   0  0  0  0  0  0  0  0  0  0  0  0
  138.8990   77.7740  221.9470 C   0  0  0  0  0  0  0  0  0  0  0  0
  139.9220   78.7220  222.4740 C   0  0  0  0  0  0  0  0  0  0  0  0
  139.6030   79.8210  223.2420 C   0  0  0  0  0  0  0  0  0  0  0  0
  140.6470   80.6310  223.6740 C   0  0  0  0  0  0  0  0  0  0  0  0
  141.9480   80.3230  223.3310 C   0  0  0  0  0  0  0  0  0  0  0  0
  142.2820   79.2290  222.5640 C   0  0  0  0  0  0  0  0  0  0  0  0
  141.2470   78.4240  222.1350 C   0  0  0  0  0  0  0  0  0  0  0  0
  141.4460   77.2140  221.3030 C   0  0  0  0  0  0  0  0  0  0  0  0
  140.2100   73.7680  221.9130 N   0  0  0  0  0  0  0  0  0  0  0  0
  139.9740   69.9010  226.0460 C   0  0  0  0  0  0  0  0  0  0  0  0
  139.9860   69.4330  227.3530 C   0  0  0  0  0  0  0  0  0  0  0  0
  140.5610   69.8849  229.3513 H   0  0  0  0  0  0  0  0  0  0  0  0
  141.5221   72.1003  228.8148 H   0  0  0  0  0  0  0  0  0  0  0  0
  141.4777   72.8794  226.4746 H   0  0  0  0  0  0  0  0  0  0  0  0
  140.0862   72.6863  224.3436 H   0  0  0  0  0  0  0  0  0  0  0  0
  141.5556   71.6899  223.9798 H   0  0  0  0  0  0  0  0  0  0  0  0
  140.1731   69.8125  223.2705 H   0  0  0  0  0  0  0  0  0  0  0  0
  138.6787   70.6491  223.7614 H   0  0  0  0  0  0  0  0  0  0  0  0
  138.9540   71.2520  221.3480 H   0  0  0  0  0  0  0  0  0  0  0  0
  144.9503   71.0203  220.4541 H   0  0  0  0  0  0  0  0  0  0  0  0
  143.3170   71.0996  219.7481 H   0  0  0  0  0  0  0  0  0  0  0  0
  145.2733   71.1058  218.0853 H   0  0  0  0  0  0  0  0  0  0  0  0
  144.0723   72.4588  217.9231 H   0  0  0  0  0  0  0  0  0  0  0  0
  146.6058   72.2098  220.4182 H   0  0  0  0  0  0  0  0  0  0  0  0
  147.1228   73.8866  219.9702 H   0  0  0  0  0  0  0  0  0  0  0  0
  145.4367   73.7517  221.8909 H   0  0  0  0  0  0  0  0  0  0  0  0
  144.9435   74.7968  220.5556 H   0  0  0  0  0  0  0  0  0  0  0  0
  138.5990   75.6329  222.2013 H   0  0  0  0  0  0  0  0  0  0  0  0
  139.4353   76.3856  223.5607 H   0  0  0  0  0  0  0  0  0  0  0  0
  138.8866   77.7881  220.8472 H   0  0  0  0  0  0  0  0  0  0  0  0
  137.8813   78.0353  222.2727 H   0  0  0  0  0  0  0  0  0  0  0  0
  138.5593   80.0492  223.5039 H   0  0  0  0  0  0  0  0  0  0  0  0
  140.4361   81.5179  224.2895 H   0  0  0  0  0  0  0  0  0  0  0  0
  142.7546   80.9811  223.6863 H   0  0  0  0  0  0  0  0  0  0  0  0
  143.3277   79.0069  222.3049 H   0  0  0  0  0  0  0  0  0  0  0  0
  141.1701   77.4377  220.2619 H   0  0  0  0  0  0  0  0  0  0  0  0
  142.5024   76.9113  221.3508 H   0  0  0  0  0  0  0  0  0  0  0  0
  139.5331   69.2755  225.2558 H   0  0  0  0  0  0  0  0  0  0  0  0
  139.5635   68.4506  227.6106 H   0  0  0  0  0  0  0  0  0  0  0  0
  1  2  2  0
  2  3  1  0
  3  4  2  0
  4  5  1  0
  5  6  1  0
  6  7  1  0
  7  8  1  0
  8  9  2  0
  9 10  1  0
 10 11  1  0
 11 12  1  0
 12 13  1  0
 13 14  1  0
 14 15  1  0
 15 16  1  0
 10 17  2  0
 17 18  1  0
 18 19  1  0
 19 20  1  0
 20 21  1  0
 21 22  1  0
 22 23  2  0
 23 24  1  0
 24 25  2  0
 25 26  1  0
 26 27  2  0
 27 28  1  0
 18 29  2  0
  4 30  1  0
 30 31  2  0
 31  1  1  0
 29  8  1  0
 16 11  1  0
 28 19  1  0
 27 22  1  0
  1 32  1  0
  2 33  1  0
  3 34  1  0
  5 35  1  0
  5 36  1  0
  6 37  1  0
  6 38  1  0
  7 39  1  0
 12 40  1  0
 12 41  1  0
 13 42  1  0
 13 43  1  0
 15 44  1  0
 15 45  1  0
 16 46  1  0
 16 47  1  0
 20 48  1  0
 20 49  1  0
 21 50  1  0
 21 51  1  0
 23 52  1  0
 24 53  1  0
 25 54  1  0
 26 55  1  0
 28 56  1  0
 28 57  1  0
 30 58  1  0
 31 59  1  0
M  END
>  <smiles>  (7) 
c1ccc(CCNc2nc(N3CCOCC3)nc(N3CCc4ccccc4C3)n2)cc1

>  <score_type>  (7) 
oracle

>  <origin>  (7) 
autodockgpu

>  <m_score__min__energy>  (7) 
-10.06

>  <m_primary>  (7) 
energy

>  <rmsd>  (7) 
9.895509187420805

>  <m_score__min__rmsd>  (7) 
9.895509187420805

>  <meeko>  (7) 
{"free_energy": -9.92, "intermolecular_energy": -11.71, "internal_energy": -0.99, "cluster_size": 49, "cluster_id": 1, "rank_in_cluster": 18}

>  <energy>  (7) 
-10.01

>  <cluster_rmsd>  (7) 
0.25

>  <cluster>  (7) 
1

$$$$

     RDKit          3D

 59 63  0  0  0  0  0  0  0  0999 V2000
  140.5130   70.1650  228.3380 C   0  0  0  0  0  0  0  0  0  0  0  0
  140.1040   69.3680  227.2900 C   0  0  0  0  0  0  0  0  0  0  0  0
  140.1840   69.8860  226.0290 C   0  0  0  0  0  0  0  0  0  0  0  0
  140.6570   71.1610  225.7840 C   0  0  0  0  0  0  0  0  0  0  0  0
  140.7060   71.6370  224.3800 C   0  0  0  0  0  0  0  0  0  0  0  0
  139.4540   71.2240  223.6000 C   0  0  0  0  0  0  0  0  0  0  0  0
  139.6800   71.5690  222.1910 N   0  0  0  0  0  0  0  0  0  0  0  0
  140.6200   72.5580  221.8310 C   0  0  0  0  0  0  0  0  0  0  0  0
  141.8690   72.2680  221.3790 N   0  0  0  0  0  0  0  0  0  0  0  0
  142.7170   73.2680  221.0530 C   0  0  0  0  0  0  0  0  0  0  0  0
  144.0110   72.9110  220.5870 N   0  0  0  0  0  0  0  0  0  0  0  0
  144.2120   71.7060  219.8300 C   0  0  0  0  0  0  0  0  0  0  0  0
  144.8290   72.1020  218.5050 C   0  0  0  0  0  0  0  0  0  0  0  0
  145.8740   73.0040  218.6630 O   0  0  0  0  0  0  0  0  0  0  0  0
  146.2870   73.1560  219.9810 C   0  0  0  0  0  0  0  0  0  0  0  0
  145.1750   73.7390  220.8500 C   0  0  0  0  0  0  0  0  0  0  0  0
  142.2940   74.5130  221.1860 N   0  0  0  0  0  0  0  0  0  0  0  0
  141.0620   74.8550  221.6310 C   0  0  0  0  0  0  0  0  0  0  0  0
  140.6450   76.2100  221.7600 N   0  0  0  0  0  0  0  0  0  0  0  0
  139.3820   76.5010  222.4490 C   0  0  0  0  0  0  0  0  0  0  0  0
  138.9340   77.8590  221.9000 C   0  0  0  0  0  0  0  0  0  0  0  0
  139.9720   78.8180  222.3770 C   0  0  0  0  0  0  0  0  0  0  0  0
  139.6740   79.9400  223.1190 C   0  0  0  0  0  0  0  0  0  0  0  0
  140.7290   80.7580  223.5040 C   0  0  0  0  0  0  0  0  0  0  0  0
  142.0210   80.4360  223.1410 C   0  0  0  0  0  0  0  0  0  0  0  0
  142.3340   79.3180  222.3990 C   0  0  0  0  0  0  0  0  0  0  0  0
  141.2870   78.5050  222.0170 C   0  0  0  0  0  0  0  0  0  0  0  0
  141.4650   77.2700  221.2170 C   0  0  0  0  0  0  0  0  0  0  0  0
  140.2300   73.8480  221.9520 N   0  0  0  0  0  0  0  0  0  0  0  0
  141.0540   71.9230  226.8620 C   0  0  0  0  0  0  0  0  0  0  0  0
  140.9890   71.4360  228.1610 C   0  0  0  0  0  0  0  0  0  0  0  0
  140.4543   69.7623  229.3599 H   0  0  0  0  0  0  0  0  0  0  0  0
  139.7261   68.3496  227.4637 H   0  0  0  0  0  0  0  0  0  0  0  0
  139.8608   69.2670  225.1791 H   0  0  0  0  0  0  0  0  0  0  0  0
  140.7821   72.7344  224.3777 H   0  0  0  0  0  0  0  0  0  0  0  0
  141.5806   71.1812  223.8928 H   0  0  0  0  0  0  0  0  0  0  0  0
  139.2891   70.1410  223.7000 H   0  0  0  0  0  0  0  0  0  0  0  0
  138.5656   71.7431  223.9890 H   0  0  0  0  0  0  0  0  0  0  0  0
  139.1610   71.1010  221.4140 H   0  0  0  0  0  0  0  0  0  0  0  0
  144.8886   71.0294  220.3727 H   0  0  0  0  0  0  0  0  0  0  0  0
  143.2577   71.1818  219.6732 H   0  0  0  0  0  0  0  0  0  0  0  0
  145.2125   71.1985  218.0084 H   0  0  0  0  0  0  0  0  0  0  0  0
  144.0496   72.5895  217.9010 H   0  0  0  0  0  0  0  0  0  0  0  0
  146.5756   72.1729  220.3812 H   0  0  0  0  0  0  0  0  0  0  0  0
  147.1399   73.8505  219.9985 H   0  0  0  0  0  0  0  0  0  0  0  0
  145.4509   73.6896  221.9137 H   0  0  0  0  0  0  0  0  0  0  0  0
  144.9863   74.7979  220.6197 H   0  0  0  0  0  0  0  0  0  0  0  0
  138.6326   75.7274  222.2255 H   0  0  0  0  0  0  0  0  0  0  0  0
  139.5022   76.5168  223.5423 H   0  0  0  0  0  0  0  0  0  0  0  0
  138.8978   77.8408  220.8007 H   0  0  0  0  0  0  0  0  0  0  0  0
  137.9244   78.1339  222.2393 H   0  0  0  0  0  0  0  0  0  0  0  0
  138.6370   80.1798  223.3969 H   0  0  0  0  0  0  0  0  0  0  0  0
  140.5344   81.6628  224.0985 H   0  0  0  0  0  0  0  0  0  0  0  0
  142.8373   81.1016  223.4582 H   0  0  0  0  0  0  0  0  0  0  0  0
  143.3729   79.0840  222.1234 H   0  0  0  0  0  0  0  0  0  0  0  0
  141.1681   77.4639  220.1757 H   0  0  0  0  0  0  0  0  0  0  0  0
  142.5213   76.9649  221.2516 H   0  0  0  0  0  0  0  0  0  0  0  0
  141.4315   72.9416  226.6891 H   0  0  0  0  0  0  0  0  0  0  0  0
  141.3084   72.0494  229.0164 H   0  0  0  0  0  0  0  0  0  0  0  0
  1  2  2  0
  2  3  1  0
  3  4  2  0
  4  5  1  0
  5  6  1  0
  6  7  1  0
  7  8  1  0
  8  9  2  0
  9 10  1  0
 10 11  1  0
 11 12  1  0
 12 13  1  0
 13 14  1  0
 14 15  1  0
 15 16  1  0
 10 17  2  0
 17 18  1  0
 18 19  1  0
 19 20  1  0
 20 21  1  0
 21 22  1  0
 22 23  2  0
 23 24  1  0
 24 25  2  0
 25 26  1  0
 26 27  2  0
 27 28  1  0
 18 29  2  0
  4 30  1  0
 30 31  2  0
 31  1  1  0
 29  8  1  0
 16 11  1  0
 28 19  1  0
 27 22  1  0
  1 32  1  0
  2 33  1  0
  3 34  1  0
  5 35  1  0
  5 36  1  0
  6 37  1  0
  6 38  1  0
  7 39  1  0
 12 40  1  0
 12 41  1  0
 13 42  1  0
 13 43  1  0
 15 44  1  0
 15 45  1  0
 16 46  1  0
 16 47  1  0
 20 48  1  0
 20 49  1  0
 21 50  1  0
 21 51  1  0
 23 52  1  0
 24 53  1  0
 25 54  1  0
 26 55  1  0
 28 56  1  0
 28 57  1  0
 30 58  1  0
 31 59  1  0
M  END
>  <smiles>  (8) 
c1ccc(CCNc2nc(N3CCOCC3)nc(N3CCc4ccccc4C3)n2)cc1

>  <score_type>  (8) 
oracle

>  <origin>  (8) 
autodockgpu

>  <m_score__min__energy>  (8) 
-10.06

>  <m_primary>  (8) 
energy

>  <rmsd>  (8) 
10.002696436360061

>  <m_score__min__rmsd>  (8) 
10.002696436360061

>  <meeko>  (8) 
{"free_energy": -9.99, "intermolecular_energy": -11.78, "internal_energy": -0.99, "cluster_size": 49, "cluster_id": 1, "rank_in_cluster": 12}

>  <energy>  (8) 
-10.0

>  <cluster_rmsd>  (8) 
0.8

>  <cluster>  (8) 
1

$$$$

     RDKit          3D

 59 63  0  0  0  0  0  0  0  0999 V2000
  140.6930   68.5770  227.8940 C   0  0  0  0  0  0  0  0  0  0  0  0
  140.1740   67.7700  226.9040 C   0  0  0  0  0  0  0  0  0  0  0  0
  139.7590   68.3690  225.7490 C   0  0  0  0  0  0  0  0  0  0  0  0
  139.8460   69.7340  225.5530 C   0  0  0  0  0  0  0  0  0  0  0  0
  139.3680   70.2930  224.2650 C   0  0  0  0  0  0  0  0  0  0  0  0
  140.0250   71.6410  223.9560 C   0  0  0  0  0  0  0  0  0  0  0  0
  140.5160   71.5850  222.5730 N   0  0  0  0  0  0  0  0  0  0  0  0
  141.0800   72.7240  221.9600 C   0  0  0  0  0  0  0  0  0  0  0  0
  142.2070   72.6770  221.2000 N   0  0  0  0  0  0  0  0  0  0  0  0
  142.6910   73.8090  220.6440 C   0  0  0  0  0  0  0  0  0  0  0  0
  143.8710   73.7070  219.8590 N   0  0  0  0  0  0  0  0  0  0  0  0
  145.1510   74.0630  220.4070 C   0  0  0  0  0  0  0  0  0  0  0  0
  146.0480   72.8480  220.2890 C   0  0  0  0  0  0  0  0  0  0  0  0
  145.9710   72.2610  219.0320 O   0  0  0  0  0  0  0  0  0  0  0  0
  145.3000   73.0350  218.0930 C   0  0  0  0  0  0  0  0  0  0  0  0
  143.8370   73.2410  218.4830 C   0  0  0  0  0  0  0  0  0  0  0  0
  142.0410   74.9400  220.8620 N   0  0  0  0  0  0  0  0  0  0  0  0
  140.9170   75.0400  221.6100 C   0  0  0  0  0  0  0  0  0  0  0  0
  140.2470   76.2770  221.8210 N   0  0  0  0  0  0  0  0  0  0  0  0
  138.9120   76.2670  222.4290 C   0  0  0  0  0  0  0  0  0  0  0  0
  138.2530   77.5680  221.9650 C   0  0  0  0  0  0  0  0  0  0  0  0
  139.0610   78.6480  222.6010 C   0  0  0  0  0  0  0  0  0  0  0  0
  138.5130   79.6190  223.4100 C   0  0  0  0  0  0  0  0  0  0  0  0
  139.3710   80.5730  223.9450 C   0  0  0  0  0  0  0  0  0  0  0  0
  140.7200   80.5260  223.6600 C   0  0  0  0  0  0  0  0  0  0  0  0
  141.2820   79.5620  222.8530 C   0  0  0  0  0  0  0  0  0  0  0  0
  140.4320   78.6140  222.3220 C   0  0  0  0  0  0  0  0  0  0  0  0
  140.8860   77.5160  221.4360 C   0  0  0  0  0  0  0  0  0  0  0  0
  140.4480   73.9040  222.1570 N   0  0  0  0  0  0  0  0  0  0  0  0
  140.3700   70.5020  226.5700 C   0  0  0  0  0  0  0  0  0  0  0  0
  140.8050   69.9360  227.7610 C   0  0  0  0  0  0  0  0  0  0  0  0
  141.0316   68.1099  228.8306 H   0  0  0  0  0  0  0  0  0  0  0  0
  140.0968   66.6811  227.0398 H   0  0  0  0  0  0  0  0  0  0  0  0
  139.3410   67.7431  224.9468 H   0  0  0  0  0  0  0  0  0  0  0  0
  139.6085   69.5855  223.4578 H   0  0  0  0  0  0  0  0  0  0  0  0
  138.2818   70.4494  224.3403 H   0  0  0  0  0  0  0  0  0  0  0  0
  139.2880   72.4509  224.0606 H   0  0  0  0  0  0  0  0  0  0  0  0
  140.8523   71.8382  224.6536 H   0  0  0  0  0  0  0  0  0  0  0  0
  140.4660   70.7130  222.0010 H   0  0  0  0  0  0  0  0  0  0  0  0
  145.5808   74.9039  219.8429 H   0  0  0  0  0  0  0  0  0  0  0  0
  145.0513   74.3716  221.4581 H   0  0  0  0  0  0  0  0  0  0  0  0
  147.0878   73.1557  220.4736 H   0  0  0  0  0  0  0  0  0  0  0  0
  145.7133   72.1069  221.0298 H   0  0  0  0  0  0  0  0  0  0  0  0
  145.7924   74.0159  218.0200 H   0  0  0  0  0  0  0  0  0  0  0  0
  145.3301   72.5102  217.1267 H   0  0  0  0  0  0  0  0  0  0  0  0
  143.3667   73.9932  217.8326 H   0  0  0  0  0  0  0  0  0  0  0  0
  143.2493   72.3173  218.3764 H   0  0  0  0  0  0  0  0  0  0  0  0
  138.3358   75.3969  222.0814 H   0  0  0  0  0  0  0  0  0  0  0  0
  138.9591   76.1971  223.5258 H   0  0  0  0  0  0  0  0  0  0  0  0
  138.2882   77.6514  220.8687 H   0  0  0  0  0  0  0  0  0  0  0  0
  137.1911   77.6209  222.2472 H   0  0  0  0  0  0  0  0  0  0  0  0
  137.4344   79.6388  223.6251 H   0  0  0  0  0  0  0  0  0  0  0  0
  138.9741   81.3659  224.5960 H   0  0  0  0  0  0  0  0  0  0  0  0
  141.3762   81.2931  224.0970 H   0  0  0  0  0  0  0  0  0  0  0  0
  142.3613   79.5485  222.6411 H   0  0  0  0  0  0  0  0  0  0  0  0
  140.6221   77.7544  220.3951 H   0  0  0  0  0  0  0  0  0  0  0  0
  141.9766   77.4046  221.5268 H   0  0  0  0  0  0  0  0  0  0  0  0
  140.4456   71.5911  226.4350 H   0  0  0  0  0  0  0  0  0  0  0  0
  141.2239   70.5556  228.5676 H   0  0  0  0  0  0  0  0  0  0  0  0
  1  2  2  0
  2  3  1  0
  3  4  2  0
  4  5  1  0
  5  6  1  0
  6  7  1  0
  7  8  1  0
  8  9  2  0
  9 10  1  0
 10 11  1  0
 11 12  1  0
 12 13  1  0
 13 14  1  0
 14 15  1  0
 15 16  1  0
 10 17  2  0
 17 18  1  0
 18 19  1  0
 19 20  1  0
 20 21  1  0
 21 22  1  0
 22 23  2  0
 23 24  1  0
 24 25  2  0
 25 26  1  0
 26 27  2  0
 27 28  1  0
 18 29  2  0
  4 30  1  0
 30 31  2  0
 31  1  1  0
 29  8  1  0
 16 11  1  0
 28 19  1  0
 27 22  1  0
  1 32  1  0
  2 33  1  0
  3 34  1  0
  5 35  1  0
  5 36  1  0
  6 37  1  0
  6 38  1  0
  7 39  1  0
 12 40  1  0
 12 41  1  0
 13 42  1  0
 13 43  1  0
 15 44  1  0
 15 45  1  0
 16 46  1  0
 16 47  1  0
 20 48  1  0
 20 49  1  0
 21 50  1  0
 21 51  1  0
 23 52  1  0
 24 53  1  0
 25 54  1  0
 26 55  1  0
 28 56  1  0
 28 57  1  0
 30 58  1  0
 31 59  1  0
M  END
>  <smiles>  (9) 
c1ccc(CCNc2nc(N3CCOCC3)nc(N3CCc4ccccc4C3)n2)cc1

>  <score_type>  (9) 
oracle

>  <origin>  (9) 
autodockgpu

>  <m_score__min__energy>  (9) 
-10.06

>  <m_primary>  (9) 
energy

>  <rmsd>  (9) 
9.862251489484004

>  <m_score__min__rmsd>  (9) 
9.862251489484004

>  <meeko>  (9) 
{"free_energy": -9.61, "intermolecular_energy": -11.4, "internal_energy": -0.79, "cluster_size": 49, "cluster_id": 1, "rank_in_cluster": 41}

>  <energy>  (9) 
-10.0

>  <cluster_rmsd>  (9) 
0.66

>  <cluster>  (9) 
1

$$$$

     RDKit          3D

 59 63  0  0  0  0  0  0  0  0999 V2000
  140.3630   68.1680  227.8110 C   0  0  0  0  0  0  0  0  0  0  0  0
  140.6640   69.4110  228.3250 C   0  0  0  0  0  0  0  0  0  0  0  0
  140.7220   70.4620  227.4550 C   0  0  0  0  0  0  0  0  0  0  0  0
  140.4890   70.3120  226.1010 C   0  0  0  0  0  0  0  0  0  0  0  0
  140.5760   71.5130  225.2340 C   0  0  0  0  0  0  0  0  0  0  0  0
  139.5550   71.4610  224.0940 C   0  0  0  0  0  0  0  0  0  0  0  0
  140.2920   71.1870  222.8540 N   0  0  0  0  0  0  0  0  0  0  0  0
  140.9050   72.2330  222.1320 C   0  0  0  0  0  0  0  0  0  0  0  0
  141.9490   72.0370  221.2830 N   0  0  0  0  0  0  0  0  0  0  0  0
  142.4870   73.0870  220.6240 C   0  0  0  0  0  0  0  0  0  0  0  0
  143.5760   72.8290  219.7490 N   0  0  0  0  0  0  0  0  0  0  0  0
  144.5080   73.8700  219.4100 C   0  0  0  0  0  0  0  0  0  0  0  0
  145.8870   73.3890  219.8110 C   0  0  0  0  0  0  0  0  0  0  0  0
  146.1270   72.0830  219.4010 O   0  0  0  0  0  0  0  0  0  0  0  0
  145.1750   71.5920  218.5150 C   0  0  0  0  0  0  0  0  0  0  0  0
  143.7940   71.5170  219.1640 C   0  0  0  0  0  0  0  0  0  0  0  0
  141.9700   74.2860  220.8330 N   0  0  0  0  0  0  0  0  0  0  0  0
  140.9330   74.5340  221.6670 C   0  0  0  0  0  0  0  0  0  0  0  0
  140.4060   75.8410  221.8640 N   0  0  0  0  0  0  0  0  0  0  0  0
  139.1210   75.9910  222.5560 C   0  0  0  0  0  0  0  0  0  0  0  0
  138.5650   77.3340  222.0760 C   0  0  0  0  0  0  0  0  0  0  0  0
  139.5190   78.3490  222.6100 C   0  0  0  0  0  0  0  0  0  0  0  0
  139.1260   79.4010  223.4080 C   0  0  0  0  0  0  0  0  0  0  0  0
  140.1090   80.2820  223.8450 C   0  0  0  0  0  0  0  0  0  0  0  0
  141.4250   80.0860  223.4770 C   0  0  0  0  0  0  0  0  0  0  0  0
  141.8320   79.0380  222.6800 C   0  0  0  0  0  0  0  0  0  0  0  0
  140.8570   78.1640  222.2470 C   0  0  0  0  0  0  0  0  0  0  0  0
  141.1380   76.9920  221.3840 C   0  0  0  0  0  0  0  0  0  0  0  0
  140.4090   73.4780  222.3150 N   0  0  0  0  0  0  0  0  0  0  0  0
  140.1920   69.0520  225.6310 C   0  0  0  0  0  0  0  0  0  0  0  0
  140.1230   67.9550  226.4800 C   0  0  0  0  0  0  0  0  0  0  0  0
  140.3135   67.3112  228.4991 H   0  0  0  0  0  0  0  0  0  0  0  0
  140.8512   69.5517  229.3998 H   0  0  0  0  0  0  0  0  0  0  0  0
  140.9623   71.4620  227.8452 H   0  0  0  0  0  0  0  0  0  0  0  0
  140.3846   72.4081  225.8440 H   0  0  0  0  0  0  0  0  0  0  0  0
  141.5830   71.5461  224.7925 H   0  0  0  0  0  0  0  0  0  0  0  0
  138.8237   70.6608  224.2809 H   0  0  0  0  0  0  0  0  0  0  0  0
  139.0097   72.4133  224.0184 H   0  0  0  0  0  0  0  0  0  0  0  0
  140.3880   70.2220  222.4680 H   0  0  0  0  0  0  0  0  0  0  0  0
  144.4773   74.0648  218.3278 H   0  0  0  0  0  0  0  0  0  0  0  0
  144.2546   74.8044  219.9323 H   0  0  0  0  0  0  0  0  0  0  0  0
  146.6392   74.0480  219.3529 H   0  0  0  0  0  0  0  0  0  0  0  0
  145.9477   73.4149  220.9090 H   0  0  0  0  0  0  0  0  0  0  0  0
  145.1236   72.2572  217.6405 H   0  0  0  0  0  0  0  0  0  0  0  0
  145.4722   70.5759  218.2163 H   0  0  0  0  0  0  0  0  0  0  0  0
  143.0244   71.2986  218.4090 H   0  0  0  0  0  0  0  0  0  0  0  0
  143.7364   70.7167  219.9165 H   0  0  0  0  0  0  0  0  0  0  0  0
  138.4387   75.1716  222.2857 H   0  0  0  0  0  0  0  0  0  0  0  0
  139.2352   75.9590  223.6496 H   0  0  0  0  0  0  0  0  0  0  0  0
  138.5337   77.3709  220.9771 H   0  0  0  0  0  0  0  0  0  0  0  0
  137.5353   77.5068  222.4221 H   0  0  0  0  0  0  0  0  0  0  0  0
  138.0717   79.5392  223.6896 H   0  0  0  0  0  0  0  0  0  0  0  0
  139.8380   81.1353  224.4841 H   0  0  0  0  0  0  0  0  0  0  0  0
  142.1826   80.7981  223.8360 H   0  0  0  0  0  0  0  0  0  0  0  0
  142.8878   78.9045  222.4015 H   0  0  0  0  0  0  0  0  0  0  0  0
  140.8294   77.2163  220.3523 H   0  0  0  0  0  0  0  0  0  0  0  0
  142.2156   76.7728  221.4103 H   0  0  0  0  0  0  0  0  0  0  0  0
  140.0047   68.9109  224.5563 H   0  0  0  0  0  0  0  0  0  0  0  0
  139.8843   66.9518  226.0971 H   0  0  0  0  0  0  0  0  0  0  0  0
  1  2  2  0
  2  3  1  0
  3  4  2  0
  4  5  1  0
  5  6  1  0
  6  7  1  0
  7  8  1  0
  8  9  2  0
  9 10  1  0
 10 11  1  0
 11 12  1  0
 12 13  1  0
 13 14  1  0
 14 15  1  0
 15 16  1  0
 10 17  2  0
 17 18  1  0
 18 19  1  0
 19 20  1  0
 20 21  1  0
 21 22  1  0
 22 23  2  0
 23 24  1  0
 24 25  2  0
 25 26  1  0
 26 27  2  0
 27 28  1  0
 18 29  2  0
  4 30  1  0
 30 31  2  0
 31  1  1  0
 29  8  1  0
 16 11  1  0
 28 19  1  0
 27 22  1  0
  1 32  1  0
  2 33  1  0
  3 34  1  0
  5 35  1  0
  5 36  1  0
  6 37  1  0
  6 38  1  0
  7 39  1  0
 12 40  1  0
 12 41  1  0
 13 42  1  0
 13 43  1  0
 15 44  1  0
 15 45  1  0
 16 46  1  0
 16 47  1  0
 20 48  1  0
 20 49  1  0
 21 50  1  0
 21 51  1  0
 23 52  1  0
 24 53  1  0
 25 54  1  0
 26 55  1  0
 28 56  1  0
 28 57  1  0
 30 58  1  0
 31 59  1  0
M  END
>  <smiles>  (10) 
c1ccc(CCNc2nc(N3CCOCC3)nc(N3CCc4ccccc4C3)n2)cc1

>  <score_type>  (10) 
oracle

>  <origin>  (10) 
autodockgpu

>  <m_score__min__energy>  (10) 
-10.06

>  <m_primary>  (10) 
energy

>  <rmsd>  (10) 
9.566558598963418

>  <m_score__min__rmsd>  (10) 
9.566558598963418

>  <meeko>  (10) 
{"free_energy": -9.66, "intermolecular_energy": -11.45, "internal_energy": -0.91, "cluster_size": 49, "cluster_id": 1, "rank_in_cluster": 36}

>  <energy>  (10) 
-9.99

>  <cluster_rmsd>  (10) 
0.82

>  <cluster>  (10) 
1

$$$$

     RDKit          3D

 59 63  0  0  0  0  0  0  0  0999 V2000
  141.3520   80.9800  223.8490 C   0  0  0  0  0  0  0  0  0  0  0  0
  140.1740   80.3460  223.5160 C   0  0  0  0  0  0  0  0  0  0  0  0
  140.2520   79.2170  222.7520 C   0  0  0  0  0  0  0  0  0  0  0  0
  141.4600   78.7060  222.3150 C   0  0  0  0  0  0  0  0  0  0  0  0
  141.4450   77.4740  221.4870 C   0  0  0  0  0  0  0  0  0  0  0  0
  140.0160   77.0330  221.1570 C   0  0  0  0  0  0  0  0  0  0  0  0
  139.6910   75.9020  222.0360 N   0  0  0  0  0  0  0  0  0  0  0  0
  140.3930   74.6830  221.9340 C   0  0  0  0  0  0  0  0  0  0  0  0
  141.4770   74.5150  221.1310 N   0  0  0  0  0  0  0  0  0  0  0  0
  142.1010   73.3160  221.0840 C   0  0  0  0  0  0  0  0  0  0  0  0
  143.2290   73.1930  220.2290 N   0  0  0  0  0  0  0  0  0  0  0  0
  144.1620   74.2770  220.0820 C   0  0  0  0  0  0  0  0  0  0  0  0
  145.5290   73.7530  220.4700 C   0  0  0  0  0  0  0  0  0  0  0  0
  145.8010   72.5200  219.8890 O   0  0  0  0  0  0  0  0  0  0  0  0
  144.8940   72.1540  218.9030 C   0  0  0  0  0  0  0  0  0  0  0  0
  143.4880   71.9780  219.4740 C   0  0  0  0  0  0  0  0  0  0  0  0
  141.6260   72.3360  221.8320 N   0  0  0  0  0  0  0  0  0  0  0  0
  140.5520   72.4510  222.6470 C   0  0  0  0  0  0  0  0  0  0  0  0
  140.0720   71.3690  223.4370 N   0  0  0  0  0  0  0  0  0  0  0  0
  139.6050   70.1510  222.7640 C   0  0  0  0  0  0  0  0  0  0  0  0
  138.6360   69.4970  223.7530 C   0  0  0  0  0  0  0  0  0  0  0  0
  139.4890   69.1070  224.9130 C   0  0  0  0  0  0  0  0  0  0  0  0
  139.5600   67.8180  225.3930 C   0  0  0  0  0  0  0  0  0  0  0  0
  140.3920   67.5790  226.4810 C   0  0  0  0  0  0  0  0  0  0  0  0
  141.1090   68.6160  227.0430 C   0  0  0  0  0  0  0  0  0  0  0  0
  141.0470   69.9100  226.5740 C   0  0  0  0  0  0  0  0  0  0  0  0
  140.2230   70.1470  225.4940 C   0  0  0  0  0  0  0  0  0  0  0  0
  140.0510   71.4840  224.8780 C   0  0  0  0  0  0  0  0  0  0  0  0
  139.9420   73.6500  222.6820 N   0  0  0  0  0  0  0  0  0  0  0  0
  142.6120   79.3720  222.6700 C   0  0  0  0  0  0  0  0  0  0  0  0
  142.5790   80.5230  223.4450 C   0  0  0  0  0  0  0  0  0  0  0  0
  141.3050   81.8905  224.4645 H   0  0  0  0  0  0  0  0  0  0  0  0
  139.2031   80.7368  223.8547 H   0  0  0  0  0  0  0  0  0  0  0  0
  139.3231   78.6969  222.4751 H   0  0  0  0  0  0  0  0  0  0  0  0
  141.9842   77.6684  220.5482 H   0  0  0  0  0  0  0  0  0  0  0  0
  141.9296   76.6693  222.0594 H   0  0  0  0  0  0  0  0  0  0  0  0
  139.3158   77.8621  221.3367 H   0  0  0  0  0  0  0  0  0  0  0  0
  139.9346   76.7392  220.1001 H   0  0  0  0  0  0  0  0  0  0  0  0
  138.9390   75.9590  222.7580 H   0  0  0  0  0  0  0  0  0  0  0  0
  144.1745   74.6235  219.0381 H   0  0  0  0  0  0  0  0  0  0  0  0
  143.8755   75.1256  220.7205 H   0  0  0  0  0  0  0  0  0  0  0  0
  146.2916   74.4751  220.1428 H   0  0  0  0  0  0  0  0  0  0  0  0
  145.5444   73.6233  221.5622 H   0  0  0  0  0  0  0  0  0  0  0  0
  144.8707   72.9366  218.1303 H   0  0  0  0  0  0  0  0  0  0  0  0
  145.2165   71.1926  218.4767 H   0  0  0  0  0  0  0  0  0  0  0  0
  142.7537   71.8638  218.6630 H   0  0  0  0  0  0  0  0  0  0  0  0
  143.4088   71.0785  220.1022 H   0  0  0  0  0  0  0  0  0  0  0  0
  139.0886   70.4018  221.8257 H   0  0  0  0  0  0  0  0  0  0  0  0
  140.4366   69.4821  222.4975 H   0  0  0  0  0  0  0  0  0  0  0  0
  137.8590   70.2104  224.0648 H   0  0  0  0  0  0  0  0  0  0  0  0
  138.1095   68.6366  223.3143 H   0  0  0  0  0  0  0  0  0  0  0  0
  138.9788   67.0060  224.9317 H   0  0  0  0  0  0  0  0  0  0  0  0
  140.4789   66.5632  226.8941 H   0  0  0  0  0  0  0  0  0  0  0  0
  141.7589   68.3996  227.9037 H   0  0  0  0  0  0  0  0  0  0  0  0
  141.6291   70.7184  227.0405 H   0  0  0  0  0  0  0  0  0  0  0  0
  139.0882   71.9107  225.1957 H   0  0  0  0  0  0  0  0  0  0  0  0
  140.8732   72.1396  225.2007 H   0  0  0  0  0  0  0  0  0  0  0  0
  143.5829   78.9819  222.3307 H   0  0  0  0  0  0  0  0  0  0  0  0
  143.5038   81.0489  223.7246 H   0  0  0  0  0  0  0  0  0  0  0  0
  1  2  2  0
  2  3  1  0
  3  4  2  0
  4  5  1  0
  5  6  1  0
  6  7  1  0
  7  8  1  0
  8  9  2  0
  9 10  1  0
 10 11  1  0
 11 12  1  0
 12 13  1  0
 13 14  1  0
 14 15  1  0
 15 16  1  0
 10 17  2  0
 17 18  1  0
 18 19  1  0
 19 20  1  0
 20 21  1  0
 21 22  1  0
 22 23  2  0
 23 24  1  0
 24 25  2  0
 25 26  1  0
 26 27  2  0
 27 28  1  0
 18 29  2  0
  4 30  1  0
 30 31  2  0
 31  1  1  0
 29  8  1  0
 16 11  1  0
 28 19  1  0
 27 22  1  0
  1 32  1  0
  2 33  1  0
  3 34  1  0
  5 35  1  0
  5 36  1  0
  6 37  1  0
  6 38  1  0
  7 39  1  0
 12 40  1  0
 12 41  1  0
 13 42  1  0
 13 43  1  0
 15 44  1  0
 15 45  1  0
 16 46  1  0
 16 47  1  0
 20 48  1  0
 20 49  1  0
 21 50  1  0
 21 51  1  0
 23 52  1  0
 24 53  1  0
 25 54  1  0
 26 55  1  0
 28 56  1  0
 28 57  1  0
 30 58  1  0
 31 59  1  0
M  END
>  <smiles>  (11) 
c1ccc(CCNc2nc(N3CCOCC3)nc(N3CCc4ccccc4C3)n2)cc1

>  <score_type>  (11) 
oracle

>  <origin>  (11) 
autodockgpu

>  <m_score__min__energy>  (11) 
-10.06

>  <m_primary>  (11) 
energy

>  <rmsd>  (11) 
3.806463631040068

>  <m_score__min__rmsd>  (11) 
3.806463631040068

>  <meeko>  (11) 
{"free_energy": -9.38, "intermolecular_energy": -11.17, "internal_energy": -0.93, "cluster_size": 49, "cluster_id": 1, "rank_in_cluster": 45}

>  <energy>  (11) 
-9.99

>  <cluster_rmsd>  (11) 
0.75

>  <cluster>  (11) 
1

$$$$

     RDKit          3D

 59 63  0  0  0  0  0  0  0  0999 V2000
  140.9440   72.2310  227.2590 C   0  0  0  0  0  0  0  0  0  0  0  0
  140.3420   71.5340  228.2850 C   0  0  0  0  0  0  0  0  0  0  0  0
  140.2570   70.1760  228.1670 C   0  0  0  0  0  0  0  0  0  0  0  0
  140.7490   69.5000  227.0660 C   0  0  0  0  0  0  0  0  0  0  0  0
  140.6080   68.0230  227.0270 C   0  0  0  0  0  0  0  0  0  0  0  0
  139.2400   67.6010  226.4860 C   0  0  0  0  0  0  0  0  0  0  0  0
  139.2210   67.9050  225.0500 N   0  0  0  0  0  0  0  0  0  0  0  0
  138.6150   69.0850  224.5690 C   0  0  0  0  0  0  0  0  0  0  0  0
  139.2420   69.9550  223.7340 N   0  0  0  0  0  0  0  0  0  0  0  0
  138.6000   71.0680  223.3130 C   0  0  0  0  0  0  0  0  0  0  0  0
  139.3000   71.9450  222.4410 N   0  0  0  0  0  0  0  0  0  0  0  0
  138.5870   72.8720  221.6060 C   0  0  0  0  0  0  0  0  0  0  0  0
  139.0890   74.2610  221.9430 C   0  0  0  0  0  0  0  0  0  0  0  0
  140.4750   74.3140  222.0130 O   0  0  0  0  0  0  0  0  0  0  0  0
  141.1040   73.1750  221.5260 C   0  0  0  0  0  0  0  0  0  0  0  0
  140.7500   71.9430  222.3570 C   0  0  0  0  0  0  0  0  0  0  0  0
  137.3640   71.2720  223.7360 N   0  0  0  0  0  0  0  0  0  0  0  0
  136.6960   70.4380  224.5670 C   0  0  0  0  0  0  0  0  0  0  0  0
  135.3650   70.6950  225.0000 N   0  0  0  0  0  0  0  0  0  0  0  0
  134.6940   69.7090  225.8550 C   0  0  0  0  0  0  0  0  0  0  0  0
  133.1970   69.9410  225.6300 C   0  0  0  0  0  0  0  0  0  0  0  0
  132.9410   71.3040  226.1780 C   0  0  0  0  0  0  0  0  0  0  0  0
  131.9990   71.5570  227.1520 C   0  0  0  0  0  0  0  0  0  0  0  0
  131.8530   72.8710  227.5820 C   0  0  0  0  0  0  0  0  0  0  0  0
  132.6360   73.8680  227.0360 C   0  0  0  0  0  0  0  0  0  0  0  0
  133.5810   73.6300  226.0620 C   0  0  0  0  0  0  0  0  0  0  0  0
  133.7270   72.3260  225.6350 C   0  0  0  0  0  0  0  0  0  0  0  0
  134.7000   71.9130  224.5960 C   0  0  0  0  0  0  0  0  0  0  0  0
  137.3500   69.3360  224.9770 N   0  0  0  0  0  0  0  0  0  0  0  0
  141.3410   70.2370  226.0640 C   0  0  0  0  0  0  0  0  0  0  0  0
  141.4500   71.6190  226.1430 C   0  0  0  0  0  0  0  0  0  0  0  0
  141.0212   73.3253  227.3402 H   0  0  0  0  0  0  0  0  0  0  0  0
  139.9436   72.0540  229.1687 H   0  0  0  0  0  0  0  0  0  0  0  0
  139.7812   69.6009  228.9750 H   0  0  0  0  0  0  0  0  0  0  0  0
  141.3924   67.6067  226.3778 H   0  0  0  0  0  0  0  0  0  0  0  0
  140.7041   67.6413  228.0542 H   0  0  0  0  0  0  0  0  0  0  0  0
  139.0900   66.5227  226.6437 H   0  0  0  0  0  0  0  0  0  0  0  0
  138.4344   68.1392  227.0068 H   0  0  0  0  0  0  0  0  0  0  0  0
  139.6490   67.2680  224.3420 H   0  0  0  0  0  0  0  0  0  0  0  0
  138.7798   72.6490  220.5462 H   0  0  0  0  0  0  0  0  0  0  0  0
  137.5032   72.7973  221.7788 H   0  0  0  0  0  0  0  0  0  0  0  0
  138.7463   74.9600  221.1658 H   0  0  0  0  0  0  0  0  0  0  0  0
  138.6897   74.5345  222.9308 H   0  0  0  0  0  0  0  0  0  0  0  0
  140.7868   73.0082  220.4860 H   0  0  0  0  0  0  0  0  0  0  0  0
  142.1916   73.3296  221.5829 H   0  0  0  0  0  0  0  0  0  0  0  0
  141.1065   71.0279  221.8615 H   0  0  0  0  0  0  0  0  0  0  0  0
  141.2198   71.9685  223.3513 H   0  0  0  0  0  0  0  0  0  0  0  0
  134.9752   68.6871  225.5605 H   0  0  0  0  0  0  0  0  0  0  0  0
  134.9746   69.8210  226.9127 H   0  0  0  0  0  0  0  0  0  0  0  0
  132.9548   69.9018  224.5577 H   0  0  0  0  0  0  0  0  0  0  0  0
  132.5781   69.1728  226.1166 H   0  0  0  0  0  0  0  0  0  0  0  0
  131.3846   70.7480  227.5740 H   0  0  0  0  0  0  0  0  0  0  0  0
  131.1129   73.1163  228.3580 H   0  0  0  0  0  0  0  0  0  0  0  0
  132.4994   74.8989  227.3946 H   0  0  0  0  0  0  0  0  0  0  0  0
  134.1919   74.4434  225.6434 H   0  0  0  0  0  0  0  0  0  0  0  0
  134.1698   71.7416  223.6476 H   0  0  0  0  0  0  0  0  0  0  0  0
  135.4490   72.7079  224.4653 H   0  0  0  0  0  0  0  0  0  0  0  0
  141.7374   69.7176  225.1790 H   0  0  0  0  0  0  0  0  0  0  0  0
  141.9250   72.2007  225.3393 H   0  0  0  0  0  0  0  0  0  0  0  0
  1  2  2  0
  2  3  1  0
  3  4  2  0
  4  5  1  0
  5  6  1  0
  6  7  1  0
  7  8  1  0
  8  9  2  0
  9 10  1  0
 10 11  1  0
 11 12  1  0
 12 13  1  0
 13 14  1  0
 14 15  1  0
 15 16  1  0
 10 17  2  0
 17 18  1  0
 18 19  1  0
 19 20  1  0
 20 21  1  0
 21 22  1  0
 22 23  2  0
 23 24  1  0
 24 25  2  0
 25 26  1  0
 26 27  2  0
 27 28  1  0
 18 29  2  0
  4 30  1  0
 30 31  2  0
 31  1  1  0
 29  8  1  0
 16 11  1  0
 28 19  1  0
 27 22  1  0
  1 32  1  0
  2 33  1  0
  3 34  1  0
  5 35  1  0
  5 36  1  0
  6 37  1  0
  6 38  1  0
  7 39  1  0
 12 40  1  0
 12 41  1  0
 13 42  1  0
 13 43  1  0
 15 44  1  0
 15 45  1  0
 16 46  1  0
 16 47  1  0
 20 48  1  0
 20 49  1  0
 21 50  1  0
 21 51  1  0
 23 52  1  0
 24 53  1  0
 25 54  1  0
 26 55  1  0
 28 56  1  0
 28 57  1  0
 30 58  1  0
 31 59  1  0
M  END
>  <smiles>  (12) 
c1ccc(CCNc2nc(N3CCOCC3)nc(N3CCc4ccccc4C3)n2)cc1

>  <score_type>  (12) 
oracle

>  <origin>  (12) 
autodockgpu

>  <m_score__min__energy>  (12) 
-10.06

>  <m_primary>  (12) 
energy

>  <rmsd>  (12) 
7.698214675013074

>  <m_score__min__rmsd>  (12) 
7.698214675013074

>  <meeko>  (12) 
{"free_energy": -8.73, "intermolecular_energy": -10.52, "internal_energy": -1.62, "cluster_size": 1, "cluster_id": 2, "rank_in_cluster": 1}

>  <energy>  (12) 
-9.99

>  <cluster_rmsd>  (12) 
0.88

>  <cluster>  (12) 
1

$$$$

     RDKit          3D

 59 63  0  0  0  0  0  0  0  0999 V2000
  142.6300   80.8480  222.8100 C   0  0  0  0  0  0  0  0  0  0  0  0
  142.1860   80.4220  221.5760 C   0  0  0  0  0  0  0  0  0  0  0  0
  141.5530   79.2140  221.5110 C   0  0  0  0  0  0  0  0  0  0  0  0
  141.3490   78.4270  222.6280 C   0  0  0  0  0  0  0  0  0  0  0  0
  140.6520   77.1280  222.4580 C   0  0  0  0  0  0  0  0  0  0  0  0
  140.6560   76.6730  220.9960 C   0  0  0  0  0  0  0  0  0  0  0  0
  140.0170   75.3510  220.9450 N   0  0  0  0  0  0  0  0  0  0  0  0
  140.7420   74.1850  221.2720 C   0  0  0  0  0  0  0  0  0  0  0  0
  141.9770   73.9140  220.7740 N   0  0  0  0  0  0  0  0  0  0  0  0
  142.6130   72.7760  221.1320 C   0  0  0  0  0  0  0  0  0  0  0  0
  143.9020   72.5400  220.5830 N   0  0  0  0  0  0  0  0  0  0  0  0
  144.2080   71.2930  219.9360 C   0  0  0  0  0  0  0  0  0  0  0  0
  144.6560   71.6140  218.5260 C   0  0  0  0  0  0  0  0  0  0  0  0
  145.5740   72.6560  218.4920 O   0  0  0  0  0  0  0  0  0  0  0  0
  146.0660   73.0080  219.7430 C   0  0  0  0  0  0  0  0  0  0  0  0
  144.9570   73.5370  220.6510 C   0  0  0  0  0  0  0  0  0  0  0  0
  141.9990   71.9550  221.9660 N   0  0  0  0  0  0  0  0  0  0  0  0
  140.7710   72.1780  222.4890 C   0  0  0  0  0  0  0  0  0  0  0  0
  140.1450   71.2670  223.3850 N   0  0  0  0  0  0  0  0  0  0  0  0
  139.4460   70.0990  222.8360 C   0  0  0  0  0  0  0  0  0  0  0  0
  138.4210   69.7090  223.9050 C   0  0  0  0  0  0  0  0  0  0  0  0
  139.2420   69.2730  225.0710 C   0  0  0  0  0  0  0  0  0  0  0  0
  139.1090   68.0350  225.6620 C   0  0  0  0  0  0  0  0  0  0  0  0
  139.9320   67.7450  226.7440 C   0  0  0  0  0  0  0  0  0  0  0  0
  140.8410   68.6820  227.1920 C   0  0  0  0  0  0  0  0  0  0  0  0
  140.9850   69.9230  226.6120 C   0  0  0  0  0  0  0  0  0  0  0  0
  140.1690   70.2110  225.5370 C   0  0  0  0  0  0  0  0  0  0  0  0
  140.2050   71.5030  224.8100 C   0  0  0  0  0  0  0  0  0  0  0  0
  140.1520   73.3150  222.1230 N   0  0  0  0  0  0  0  0  0  0  0  0
  141.8100   78.8920  223.8410 C   0  0  0  0  0  0  0  0  0  0  0  0
  142.4590   80.1140  223.9530 C   0  0  0  0  0  0  0  0  0  0  0  0
  143.1432   81.8185  222.8790 H   0  0  0  0  0  0  0  0  0  0  0  0
  142.3366   81.0344  220.6748 H   0  0  0  0  0  0  0  0  0  0  0  0
  141.1930   78.8550  220.5356 H   0  0  0  0  0  0  0  0  0  0  0  0
  141.1597   76.3678  223.0698 H   0  0  0  0  0  0  0  0  0  0  0  0
  139.6066   77.2544  222.7760 H   0  0  0  0  0  0  0  0  0  0  0  0
  140.0917   77.3873  220.3785 H   0  0  0  0  0  0  0  0  0  0  0  0
  141.6841   76.6224  220.6080 H   0  0  0  0  0  0  0  0  0  0  0  0
  139.0180   75.2280  220.6690 H   0  0  0  0  0  0  0  0  0  0  0  0
  145.0133   70.7756  220.4780 H   0  0  0  0  0  0  0  0  0  0  0  0
  143.3268   70.6347  219.9237 H   0  0  0  0  0  0  0  0  0  0  0  0
  145.1209   70.7178  218.0892 H   0  0  0  0  0  0  0  0  0  0  0  0
  143.7703   71.9251  217.9526 H   0  0  0  0  0  0  0  0  0  0  0  0
  146.5194   72.1219  220.2113 H   0  0  0  0  0  0  0  0  0  0  0  0
  146.8125   73.8047  219.6091 H   0  0  0  0  0  0  0  0  0  0  0  0
  145.3214   73.6434  221.6834 H   0  0  0  0  0  0  0  0  0  0  0  0
  144.6054   74.5303  220.3352 H   0  0  0  0  0  0  0  0  0  0  0  0
  138.9415   70.3585  221.8936 H   0  0  0  0  0  0  0  0  0  0  0  0
  140.1374   69.2745  222.6075 H   0  0  0  0  0  0  0  0  0  0  0  0
  137.7923   70.5709  224.1732 H   0  0  0  0  0  0  0  0  0  0  0  0
  137.7360   68.9210  223.5588 H   0  0  0  0  0  0  0  0  0  0  0  0
  138.3774   67.3023  225.2906 H   0  0  0  0  0  0  0  0  0  0  0  0
  139.8588   66.7678  227.2437 H   0  0  0  0  0  0  0  0  0  0  0  0
  141.4791   68.4262  228.0507 H   0  0  0  0  0  0  0  0  0  0  0  0
  141.7176   70.6519  226.9888 H   0  0  0  0  0  0  0  0  0  0  0  0
  139.3447   72.1171  225.1146 H   0  0  0  0  0  0  0  0  0  0  0  0
  141.1407   72.0286  225.0512 H   0  0  0  0  0  0  0  0  0  0  0  0
  141.6599   78.2797  224.7424 H   0  0  0  0  0  0  0  0  0  0  0  0
  142.8227   80.4793  224.9248 H   0  0  0  0  0  0  0  0  0  0  0  0
  1  2  2  0
  2  3  1  0
  3  4  2  0
  4  5  1  0
  5  6  1  0
  6  7  1  0
  7  8  1  0
  8  9  2  0
  9 10  1  0
 10 11  1  0
 11 12  1  0
 12 13  1  0
 13 14  1  0
 14 15  1  0
 15 16  1  0
 10 17  2  0
 17 18  1  0
 18 19  1  0
 19 20  1  0
 20 21  1  0
 21 22  1  0
 22 23  2  0
 23 24  1  0
 24 25  2  0
 25 26  1  0
 26 27  2  0
 27 28  1  0
 18 29  2  0
  4 30  1  0
 30 31  2  0
 31  1  1  0
 29  8  1  0
 16 11  1  0
 28 19  1  0
 27 22  1  0
  1 32  1  0
  2 33  1  0
  3 34  1  0
  5 35  1  0
  5 36  1  0
  6 37  1  0
  6 38  1  0
  7 39  1  0
 12 40  1  0
 12 41  1  0
 13 42  1  0
 13 43  1  0
 15 44  1  0
 15 45  1  0
 16 46  1  0
 16 47  1  0
 20 48  1  0
 20 49  1  0
 21 50  1  0
 21 51  1  0
 23 52  1  0
 24 53  1  0
 25 54  1  0
 26 55  1  0
 28 56  1  0
 28 57  1  0
 30 58  1  0
 31 59  1  0
M  END
>  <smiles>  (13) 
c1ccc(CCNc2nc(N3CCOCC3)nc(N3CCc4ccccc4C3)n2)cc1

>  <score_type>  (13) 
oracle

>  <origin>  (13) 
autodockgpu

>  <m_score__min__energy>  (13) 
-10.06

>  <m_primary>  (13) 
energy

>  <rmsd>  (13) 
3.794388819520391

>  <m_score__min__rmsd>  (13) 
3.794388819520391

>  <meeko>  (13) 
{"free_energy": -9.36, "intermolecular_energy": -11.15, "internal_energy": -0.87, "cluster_size": 49, "cluster_id": 1, "rank_in_cluster": 46}

>  <energy>  (13) 
-9.98

>  <cluster_rmsd>  (13) 
0.52

>  <cluster>  (13) 
1

$$$$

     RDKit          3D

 59 63  0  0  0  0  0  0  0  0999 V2000
  142.2010   81.5340  223.5100 C   0  0  0  0  0  0  0  0  0  0  0  0
  141.1020   81.6200  222.6820 C   0  0  0  0  0  0  0  0  0  0  0  0
  140.6990   80.4840  222.0400 C   0  0  0  0  0  0  0  0  0  0  0  0
  141.3520   79.2770  222.1990 C   0  0  0  0  0  0  0  0  0  0  0  0
  140.8410   78.0960  221.4590 C   0  0  0  0  0  0  0  0  0  0  0  0
  140.5160   76.9350  222.4030 C   0  0  0  0  0  0  0  0  0  0  0  0
  139.9980   75.8330  221.5830 N   0  0  0  0  0  0  0  0  0  0  0  0
  140.6500   74.5820  221.5590 C   0  0  0  0  0  0  0  0  0  0  0  0
  141.7360   74.3250  220.7830 N   0  0  0  0  0  0  0  0  0  0  0  0
  142.3100   73.1020  220.8110 C   0  0  0  0  0  0  0  0  0  0  0  0
  143.4430   72.8850  219.9820 N   0  0  0  0  0  0  0  0  0  0  0  0
  144.3740   73.9470  219.7180 C   0  0  0  0  0  0  0  0  0  0  0  0
  145.7400   73.4740  220.1710 C   0  0  0  0  0  0  0  0  0  0  0  0
  146.0180   72.1840  219.7350 O   0  0  0  0  0  0  0  0  0  0  0  0
  145.1170   71.7060  218.7910 C   0  0  0  0  0  0  0  0  0  0  0  0
  143.7090   71.5930  219.3710 C   0  0  0  0  0  0  0  0  0  0  0  0
  141.7850   72.1840  221.6050 N   0  0  0  0  0  0  0  0  0  0  0  0
  140.7050   72.3890  222.3960 C   0  0  0  0  0  0  0  0  0  0  0  0
  140.1700   71.3730  223.2360 N   0  0  0  0  0  0  0  0  0  0  0  0
  139.5610   70.1890  222.6190 C   0  0  0  0  0  0  0  0  0  0  0  0
  138.5890   69.6480  223.6710 C   0  0  0  0  0  0  0  0  0  0  0  0
  139.4610   69.2070  224.7980 C   0  0  0  0  0  0  0  0  0  0  0  0
  139.4390   67.9270  225.3070 C   0  0  0  0  0  0  0  0  0  0  0  0
  140.3000   67.6370  226.3600 C   0  0  0  0  0  0  0  0  0  0  0  0
  141.1360   68.6150  226.8580 C   0  0  0  0  0  0  0  0  0  0  0  0
  141.1680   69.8990  226.3590 C   0  0  0  0  0  0  0  0  0  0  0  0
  140.3140   70.1870  225.3150 C   0  0  0  0  0  0  0  0  0  0  0  0
  140.2330   71.5210  224.6730 C   0  0  0  0  0  0  0  0  0  0  0  0
  140.1460   73.6120  222.3560 N   0  0  0  0  0  0  0  0  0  0  0  0
  142.4460   79.2370  223.0360 C   0  0  0  0  0  0  0  0  0  0  0  0
  142.8900   80.3670  223.7080 C   0  0  0  0  0  0  0  0  0  0  0  0
  142.5386   82.4406  224.0335 H   0  0  0  0  0  0  0  0  0  0  0  0
  140.5678   82.5715  222.5432 H   0  0  0  0  0  0  0  0  0  0  0  0
  139.8250   80.5317  221.3738 H   0  0  0  0  0  0  0  0  0  0  0  0
  139.9272   78.3822  220.9177 H   0  0  0  0  0  0  0  0  0  0  0  0
  141.6235   77.7628  220.7614 H   0  0  0  0  0  0  0  0  0  0  0  0
  141.4258   76.6145  222.9317 H   0  0  0  0  0  0  0  0  0  0  0  0
  139.7734   77.2420  223.1542 H   0  0  0  0  0  0  0  0  0  0  0  0
  139.1400   75.9330  220.9960 H   0  0  0  0  0  0  0  0  0  0  0  0
  144.3920   74.1725  218.6415 H   0  0  0  0  0  0  0  0  0  0  0  0
  144.0820   74.8621  220.2541 H   0  0  0  0  0  0  0  0  0  0  0  0
  146.5031   74.1565  219.7686 H   0  0  0  0  0  0  0  0  0  0  0  0
  145.7490   73.4690  221.2710 H   0  0  0  0  0  0  0  0  0  0  0  0
  145.0968   72.3957  217.9343 H   0  0  0  0  0  0  0  0  0  0  0  0
  145.4436   70.7034  218.4777 H   0  0  0  0  0  0  0  0  0  0  0  0
  142.9793   71.3856  218.5744 H   0  0  0  0  0  0  0  0  0  0  0  0
  143.6285   70.7707  220.0972 H   0  0  0  0  0  0  0  0  0  0  0  0
  139.0220   70.4658  221.7009 H   0  0  0  0  0  0  0  0  0  0  0  0
  140.3139   69.4411  222.3295 H   0  0  0  0  0  0  0  0  0  0  0  0
  137.8964   70.4361  224.0014 H   0  0  0  0  0  0  0  0  0  0  0  0
  137.9657   68.8298  223.2812 H   0  0  0  0  0  0  0  0  0  0  0  0
  138.7646   67.1617  224.8953 H   0  0  0  0  0  0  0  0  0  0  0  0
  140.3145   66.6272  226.7961 H   0  0  0  0  0  0  0  0  0  0  0  0
  141.8072   68.3582  227.6908 H   0  0  0  0  0  0  0  0  0  0  0  0
  141.8444   70.6603  226.7747 H   0  0  0  0  0  0  0  0  0  0  0  0
  139.3304   72.0413  225.0259 H   0  0  0  0  0  0  0  0  0  0  0  0
  141.1267   72.1051  224.9379 H   0  0  0  0  0  0  0  0  0  0  0  0
  142.9806   78.2857  223.1749 H   0  0  0  0  0  0  0  0  0  0  0  0
  143.7635   80.3269  224.3754 H   0  0  0  0  0  0  0  0  0  0  0  0
  1  2  2  0
  2  3  1  0
  3  4  2  0
  4  5  1  0
  5  6  1  0
  6  7  1  0
  7  8  1  0
  8  9  2  0
  9 10  1  0
 10 11  1  0
 11 12  1  0
 12 13  1  0
 13 14  1  0
 14 15  1  0
 15 16  1  0
 10 17  2  0
 17 18  1  0
 18 19  1  0
 19 20  1  0
 20 21  1  0
 21 22  1  0
 22 23  2  0
 23 24  1  0
 24 25  2  0
 25 26  1  0
 26 27  2  0
 27 28  1  0
 18 29  2  0
  4 30  1  0
 30 31  2  0
 31  1  1  0
 29  8  1  0
 16 11  1  0
 28 19  1  0
 27 22  1  0
  1 32  1  0
  2 33  1  0
  3 34  1  0
  5 35  1  0
  5 36  1  0
  6 37  1  0
  6 38  1  0
  7 39  1  0
 12 40  1  0
 12 41  1  0
 13 42  1  0
 13 43  1  0
 15 44  1  0
 15 45  1  0
 16 46  1  0
 16 47  1  0
 20 48  1  0
 20 49  1  0
 21 50  1  0
 21 51  1  0
 23 52  1  0
 24 53  1  0
 25 54  1  0
 26 55  1  0
 28 56  1  0
 28 57  1  0
 30 58  1  0
 31 59  1  0
M  END
>  <smiles>  (14) 
c1ccc(CCNc2nc(N3CCOCC3)nc(N3CCc4ccccc4C3)n2)cc1

>  <score_type>  (14) 
oracle

>  <origin>  (14) 
autodockgpu

>  <m_score__min__energy>  (14) 
-10.06

>  <m_primary>  (14) 
energy

>  <rmsd>  (14) 
3.7916006888166405

>  <m_score__min__rmsd>  (14) 
3.7916006888166405

>  <meeko>  (14) 
{"free_energy": -9.67, "intermolecular_energy": -11.46, "internal_energy": -0.79, "cluster_size": 49, "cluster_id": 1, "rank_in_cluster": 35}

>  <energy>  (14) 
-9.98

>  <cluster_rmsd>  (14) 
0.61

>  <cluster>  (14) 
1

$$$$

     RDKit          3D

 59 63  0  0  0  0  0  0  0  0999 V2000
  140.1900   68.6400  227.7290 C   0  0  0  0  0  0  0  0  0  0  0  0
  140.4120   69.9690  227.4360 C   0  0  0  0  0  0  0  0  0  0  0  0
  140.0530   70.4150  226.1960 C   0  0  0  0  0  0  0  0  0  0  0  0
  139.4850   69.5830  225.2490 C   0  0  0  0  0  0  0  0  0  0  0  0
  139.1310   70.1580  223.9280 C   0  0  0  0  0  0  0  0  0  0  0  0
  140.2990   70.9390  223.3200 C   0  0  0  0  0  0  0  0  0  0  0  0
  139.7860   72.2530  222.9120 N   0  0  0  0  0  0  0  0  0  0  0  0
  140.5920   73.1450  222.1740 C   0  0  0  0  0  0  0  0  0  0  0  0
  141.6230   72.7380  221.3880 N   0  0  0  0  0  0  0  0  0  0  0  0
  142.3530   73.6510  220.7080 C   0  0  0  0  0  0  0  0  0  0  0  0
  143.4210   73.1740  219.9000 N   0  0  0  0  0  0  0  0  0  0  0  0
  144.4680   74.0590  219.4700 C   0  0  0  0  0  0  0  0  0  0  0  0
  145.7790   73.4810  219.9640 C   0  0  0  0  0  0  0  0  0  0  0  0
  145.8770   72.1180  219.7160 O   0  0  0  0  0  0  0  0  0  0  0  0
  144.8910   71.6320  218.8660 C   0  0  0  0  0  0  0  0  0  0  0  0
  143.5000   71.7860  219.4790 C   0  0  0  0  0  0  0  0  0  0  0  0
  142.0320   74.9270  220.8350 N   0  0  0  0  0  0  0  0  0  0  0  0
  141.0160   75.3830  221.6040 C   0  0  0  0  0  0  0  0  0  0  0  0
  140.7020   76.7670  221.7140 N   0  0  0  0  0  0  0  0  0  0  0  0
  139.4330   77.1600  222.3360 C   0  0  0  0  0  0  0  0  0  0  0  0
  139.1230   78.5480  221.7670 C   0  0  0  0  0  0  0  0  0  0  0  0
  140.2080   79.4220  222.2980 C   0  0  0  0  0  0  0  0  0  0  0  0
  139.9620   80.5660  223.0260 C   0  0  0  0  0  0  0  0  0  0  0  0
  141.0580   81.2990  223.4670 C   0  0  0  0  0  0  0  0  0  0  0  0
  142.3380   80.8730  223.1710 C   0  0  0  0  0  0  0  0  0  0  0  0
  142.5990   79.7320  222.4450 C   0  0  0  0  0  0  0  0  0  0  0  0
  141.5120   79.0040  222.0080 C   0  0  0  0  0  0  0  0  0  0  0  0
  141.6310   77.7570  221.2160 C   0  0  0  0  0  0  0  0  0  0  0  0
  140.2990   74.4630  222.2740 N   0  0  0  0  0  0  0  0  0  0  0  0
  139.2820   68.2620  225.5850 C   0  0  0  0  0  0  0  0  0  0  0  0
  139.6310   67.7660  226.8340 C   0  0  0  0  0  0  0  0  0  0  0  0
  140.4738   68.2655  228.7236 H   0  0  0  0  0  0  0  0  0  0  0  0
  140.8629   70.6469  228.1757 H   0  0  0  0  0  0  0  0  0  0  0  0
  140.2215   71.4720  225.9421 H   0  0  0  0  0  0  0  0  0  0  0  0
  138.8549   69.3406  223.2456 H   0  0  0  0  0  0  0  0  0  0  0  0
  138.2903   70.8530  224.0703 H   0  0  0  0  0  0  0  0  0  0  0  0
  141.0973   71.0627  224.0666 H   0  0  0  0  0  0  0  0  0  0  0  0
  140.7173   70.4010  222.4565 H   0  0  0  0  0  0  0  0  0  0  0  0
  138.8200   72.5700  223.1500 H   0  0  0  0  0  0  0  0  0  0  0  0
  144.4765   74.1265  218.3721 H   0  0  0  0  0  0  0  0  0  0  0  0
  144.3124   75.0706  219.8730 H   0  0  0  0  0  0  0  0  0  0  0  0
  146.6073   73.9945  219.4539 H   0  0  0  0  0  0  0  0  0  0  0  0
  145.8256   73.6308  221.0528 H   0  0  0  0  0  0  0  0  0  0  0  0
  144.9283   72.1900  217.9188 H   0  0  0  0  0  0  0  0  0  0  0  0
  145.0776   70.5613  218.6963 H   0  0  0  0  0  0  0  0  0  0  0  0
  142.7229   71.5644  218.7327 H   0  0  0  0  0  0  0  0  0  0  0  0
  143.3412   71.0923  220.3177 H   0  0  0  0  0  0  0  0  0  0  0  0
  138.6370   76.4480  222.0726 H   0  0  0  0  0  0  0  0  0  0  0  0
  139.4977   77.1696  223.4341 H   0  0  0  0  0  0  0  0  0  0  0  0
  139.1417   78.5301  220.6673 H   0  0  0  0  0  0  0  0  0  0  0  0
  138.1224   78.9032  222.0545 H   0  0  0  0  0  0  0  0  0  0  0  0
  138.9344   80.8880  223.2503 H   0  0  0  0  0  0  0  0  0  0  0  0
  140.9057   82.2182  224.0516 H   0  0  0  0  0  0  0  0  0  0  0  0
  143.1873   81.4720  223.5313 H   0  0  0  0  0  0  0  0  0  0  0  0
  143.6289   79.4153  222.2235 H   0  0  0  0  0  0  0  0  0  0  0  0
  141.4044   77.9718  220.1613 H   0  0  0  0  0  0  0  0  0  0  0  0
  142.6562   77.3683  221.3044 H   0  0  0  0  0  0  0  0  0  0  0  0
  138.8322   67.5835  224.8452 H   0  0  0  0  0  0  0  0  0  0  0  0
  139.4649   66.7105  227.0953 H   0  0  0  0  0  0  0  0  0  0  0  0
  1  2  2  0
  2  3  1  0
  3  4  2  0
  4  5  1  0
  5  6  1  0
  6  7  1  0
  7  8  1  0
  8  9  2  0
  9 10  1  0
 10 11  1  0
 11 12  1  0
 12 13  1  0
 13 14  1  0
 14 15  1  0
 15 16  1  0
 10 17  2  0
 17 18  1  0
 18 19  1  0
 19 20  1  0
 20 21  1  0
 21 22  1  0
 22 23  2  0
 23 24  1  0
 24 25  2  0
 25 26  1  0
 26 27  2  0
 27 28  1  0
 18 29  2  0
  4 30  1  0
 30 31  2  0
 31  1  1  0
 29  8  1  0
 16 11  1  0
 28 19  1  0
 27 22  1  0
  1 32  1  0
  2 33  1  0
  3 34  1  0
  5 35  1  0
  5 36  1  0
  6 37  1  0
  6 38  1  0
  7 39  1  0
 12 40  1  0
 12 41  1  0
 13 42  1  0
 13 43  1  0
 15 44  1  0
 15 45  1  0
 16 46  1  0
 16 47  1  0
 20 48  1  0
 20 49  1  0
 21 50  1  0
 21 51  1  0
 23 52  1  0
 24 53  1  0
 25 54  1  0
 26 55  1  0
 28 56  1  0
 28 57  1  0
 30 58  1  0
 31 59  1  0
M  END
>  <smiles>  (15) 
c1ccc(CCNc2nc(N3CCOCC3)nc(N3CCc4ccccc4C3)n2)cc1

>  <score_type>  (15) 
oracle

>  <origin>  (15) 
autodockgpu

>  <m_score__min__energy>  (15) 
-10.06

>  <m_primary>  (15) 
energy

>  <rmsd>  (15) 
10.505980171347892

>  <m_score__min__rmsd>  (15) 
10.505980171347892

>  <meeko>  (15) 
{"free_energy": -9.62, "intermolecular_energy": -11.41, "internal_energy": -0.8, "cluster_size": 49, "cluster_id": 1, "rank_in_cluster": 39}

>  <energy>  (15) 
-9.96

>  <cluster_rmsd>  (15) 
0.51

>  <cluster>  (15) 
1

$$$$

     RDKit          3D

 59 63  0  0  0  0  0  0  0  0999 V2000
  140.3890   67.9580  227.1150 C   0  0  0  0  0  0  0  0  0  0  0  0
  139.7690   67.8960  225.8840 C   0  0  0  0  0  0  0  0  0  0  0  0
  139.5370   69.0720  225.2300 C   0  0  0  0  0  0  0  0  0  0  0  0
  139.9000   70.2950  225.7600 C   0  0  0  0  0  0  0  0  0  0  0  0
  139.6040   71.5190  224.9750 C   0  0  0  0  0  0  0  0  0  0  0  0
  139.0840   71.1800  223.5750 C   0  0  0  0  0  0  0  0  0  0  0  0
  140.2520   70.9400  222.7180 N   0  0  0  0  0  0  0  0  0  0  0  0
  140.9040   72.0100  222.0690 C   0  0  0  0  0  0  0  0  0  0  0  0
  141.9900   71.8430  221.2690 N   0  0  0  0  0  0  0  0  0  0  0  0
  142.5630   72.9160  220.6790 C   0  0  0  0  0  0  0  0  0  0  0  0
  143.6960   72.6870  219.8520 N   0  0  0  0  0  0  0  0  0  0  0  0
  144.5470   73.7760  219.4550 C   0  0  0  0  0  0  0  0  0  0  0  0
  145.9490   73.4480  219.9250 C   0  0  0  0  0  0  0  0  0  0  0  0
  146.3100   72.1400  219.6240 O   0  0  0  0  0  0  0  0  0  0  0  0
  145.4300   71.5030  218.7570 C   0  0  0  0  0  0  0  0  0  0  0  0
  144.0420   71.3580  219.3780 C   0  0  0  0  0  0  0  0  0  0  0  0
  142.0380   74.1080  220.9060 N   0  0  0  0  0  0  0  0  0  0  0  0
  140.9600   74.3270  221.6930 C   0  0  0  0  0  0  0  0  0  0  0  0
  140.4250   75.6280  221.9120 N   0  0  0  0  0  0  0  0  0  0  0  0
  139.2080   75.7680  222.7200 C   0  0  0  0  0  0  0  0  0  0  0  0
  138.5800   77.0890  222.2670 C   0  0  0  0  0  0  0  0  0  0  0  0
  139.5570   78.1340  222.6870 C   0  0  0  0  0  0  0  0  0  0  0  0
  139.2200   79.1970  223.4960 C   0  0  0  0  0  0  0  0  0  0  0  0
  140.2200   80.1070  223.8170 C   0  0  0  0  0  0  0  0  0  0  0  0
  141.4990   79.9290  223.3290 C   0  0  0  0  0  0  0  0  0  0  0  0
  141.8510   78.8710  222.5190 C   0  0  0  0  0  0  0  0  0  0  0  0
  140.8590   77.9680  222.2000 C   0  0  0  0  0  0  0  0  0  0  0  0
  141.0820   76.7820  221.3400 C   0  0  0  0  0  0  0  0  0  0  0  0
  140.4010   73.2500  222.2730 N   0  0  0  0  0  0  0  0  0  0  0  0
  140.5150   70.3100  226.9930 C   0  0  0  0  0  0  0  0  0  0  0  0
  140.7720   69.1390  227.6930 C   0  0  0  0  0  0  0  0  0  0  0  0
  140.5838   67.0196  227.6548 H   0  0  0  0  0  0  0  0  0  0  0  0
  139.4718   66.9324  225.4446 H   0  0  0  0  0  0  0  0  0  0  0  0
  139.0440   69.0446  224.2470 H   0  0  0  0  0  0  0  0  0  0  0  0
  138.8414   72.1077  225.5060 H   0  0  0  0  0  0  0  0  0  0  0  0
  140.5371   72.0912  224.8658 H   0  0  0  0  0  0  0  0  0  0  0  0
  138.4559   70.2778  223.6156 H   0  0  0  0  0  0  0  0  0  0  0  0
  138.4739   72.0045  223.1775 H   0  0  0  0  0  0  0  0  0  0  0  0
  140.6370   69.9830  222.5600 H   0  0  0  0  0  0  0  0  0  0  0  0
  144.5329   73.8848  218.3605 H   0  0  0  0  0  0  0  0  0  0  0  0
  144.2000   74.7218  219.8967 H   0  0  0  0  0  0  0  0  0  0  0  0
  146.6565   74.1328  219.4346 H   0  0  0  0  0  0  0  0  0  0  0  0
  145.9745   73.5627  221.0187 H   0  0  0  0  0  0  0  0  0  0  0  0
  145.3484   72.0934  217.8325 H   0  0  0  0  0  0  0  0  0  0  0  0
  145.8209   70.4969  218.5448 H   0  0  0  0  0  0  0  0  0  0  0  0
  143.3165   71.0159  218.6253 H   0  0  0  0  0  0  0  0  0  0  0  0
  144.0304   70.6160  220.1900 H   0  0  0  0  0  0  0  0  0  0  0  0
  138.5212   74.9294  222.5327 H   0  0  0  0  0  0  0  0  0  0  0  0
  139.4256   75.7628  223.7983 H   0  0  0  0  0  0  0  0  0  0  0  0
  138.4446   77.1003  221.1754 H   0  0  0  0  0  0  0  0  0  0  0  0
  137.5839   77.2491  222.7054 H   0  0  0  0  0  0  0  0  0  0  0  0
  138.1948   79.3211  223.8748 H   0  0  0  0  0  0  0  0  0  0  0  0
  139.9923   80.9697  224.4604 H   0  0  0  0  0  0  0  0  0  0  0  0
  142.2715   80.6642  223.5986 H   0  0  0  0  0  0  0  0  0  0  0  0
  142.8781   78.7522  222.1435 H   0  0  0  0  0  0  0  0  0  0  0  0
  140.6716   76.9758  220.3380 H   0  0  0  0  0  0  0  0  0  0  0  0
  142.1618   76.5850  221.2682 H   0  0  0  0  0  0  0  0  0  0  0  0
  140.8097   71.2739  227.4336 H   0  0  0  0  0  0  0  0  0  0  0  0
  141.2653   69.1590  228.6760 H   0  0  0  0  0  0  0  0  0  0  0  0
  1  2  2  0
  2  3  1  0
  3  4  2  0
  4  5  1  0
  5  6  1  0
  6  7  1  0
  7  8  1  0
  8  9  2  0
  9 10  1  0
 10 11  1  0
 11 12  1  0
 12 13  1  0
 13 14  1  0
 14 15  1  0
 15 16  1  0
 10 17  2  0
 17 18  1  0
 18 19  1  0
 19 20  1  0
 20 21  1  0
 21 22  1  0
 22 23  2  0
 23 24  1  0
 24 25  2  0
 25 26  1  0
 26 27  2  0
 27 28  1  0
 18 29  2  0
  4 30  1  0
 30 31  2  0
 31  1  1  0
 29  8  1  0
 16 11  1  0
 28 19  1  0
 27 22  1  0
  1 32  1  0
  2 33  1  0
  3 34  1  0
  5 35  1  0
  5 36  1  0
  6 37  1  0
  6 38  1  0
  7 39  1  0
 12 40  1  0
 12 41  1  0
 13 42  1  0
 13 43  1  0
 15 44  1  0
 15 45  1  0
 16 46  1  0
 16 47  1  0
 20 48  1  0
 20 49  1  0
 21 50  1  0
 21 51  1  0
 23 52  1  0
 24 53  1  0
 25 54  1  0
 26 55  1  0
 28 56  1  0
 28 57  1  0
 30 58  1  0
 31 59  1  0
M  END
>  <smiles>  (16) 
c1ccc(CCNc2nc(N3CCOCC3)nc(N3CCc4ccccc4C3)n2)cc1

>  <score_type>  (16) 
oracle

>  <origin>  (16) 
autodockgpu

>  <m_score__min__energy>  (16) 
-10.06

>  <m_primary>  (16) 
energy

>  <rmsd>  (16) 
9.377549799705

>  <m_score__min__rmsd>  (16) 
9.377549799705

>  <meeko>  (16) 
{"free_energy": -8.89, "intermolecular_energy": -10.68, "internal_energy": -0.98, "cluster_size": 49, "cluster_id": 1, "rank_in_cluster": 49}

>  <energy>  (16) 
-9.94

>  <cluster_rmsd>  (16) 
0.7

>  <cluster>  (16) 
1

$$$$

     RDKit          3D

 59 63  0  0  0  0  0  0  0  0999 V2000
  140.0290   70.4820  228.0010 C   0  0  0  0  0  0  0  0  0  0  0  0
  140.7400   71.5990  227.6170 C   0  0  0  0  0  0  0  0  0  0  0  0
  140.9640   71.7820  226.2820 C   0  0  0  0  0  0  0  0  0  0  0  0
  140.5040   70.8930  225.3290 C   0  0  0  0  0  0  0  0  0  0  0  0
  140.7980   71.1760  223.9020 C   0  0  0  0  0  0  0  0  0  0  0  0
  139.5250   71.1720  223.0520 C   0  0  0  0  0  0  0  0  0  0  0  0
  139.2110   72.5670  222.7220 N   0  0  0  0  0  0  0  0  0  0  0  0
  140.1790   73.4040  222.1270 C   0  0  0  0  0  0  0  0  0  0  0  0
  141.2350   72.9300  221.4140 N   0  0  0  0  0  0  0  0  0  0  0  0
  142.1240   73.7910  220.8720 C   0  0  0  0  0  0  0  0  0  0  0  0
  143.2090   73.2440  220.1360 N   0  0  0  0  0  0  0  0  0  0  0  0
  144.2100   74.0990  219.5600 C   0  0  0  0  0  0  0  0  0  0  0  0
  145.5500   73.6700  220.1220 C   0  0  0  0  0  0  0  0  0  0  0  0
  145.7130   72.2900  220.0900 O   0  0  0  0  0  0  0  0  0  0  0  0
  144.7480   71.6300  219.3390 C   0  0  0  0  0  0  0  0  0  0  0  0
  143.3540   71.8120  219.9370 C   0  0  0  0  0  0  0  0  0  0  0  0
  141.9310   75.0860  221.0580 N   0  0  0  0  0  0  0  0  0  0  0  0
  140.8980   75.6090  221.7590 C   0  0  0  0  0  0  0  0  0  0  0  0
  140.7270   77.0110  221.9370 N   0  0  0  0  0  0  0  0  0  0  0  0
  139.5280   77.4970  222.6300 C   0  0  0  0  0  0  0  0  0  0  0  0
  139.3340   78.9310  222.1300 C   0  0  0  0  0  0  0  0  0  0  0  0
  140.5200   79.6730  222.6450 C   0  0  0  0  0  0  0  0  0  0  0  0
  140.4180   80.8030  223.4270 C   0  0  0  0  0  0  0  0  0  0  0  0
  141.5980   81.4070  223.8460 C   0  0  0  0  0  0  0  0  0  0  0  0
  142.8160   80.8740  223.4760 C   0  0  0  0  0  0  0  0  0  0  0  0
  142.9340   79.7450  222.6950 C   0  0  0  0  0  0  0  0  0  0  0  0
  141.7630   79.1450  222.2800 C   0  0  0  0  0  0  0  0  0  0  0  0
  141.7260   77.9270  221.4360 C   0  0  0  0  0  0  0  0  0  0  0  0
  140.0220   74.7380  222.2920 N   0  0  0  0  0  0  0  0  0  0  0  0
  139.7980   69.7910  225.7580 C   0  0  0  0  0  0  0  0  0  0  0  0
  139.5470   69.5650  227.1050 C   0  0  0  0  0  0  0  0  0  0  0  0
  139.8408   70.3203  229.0727 H   0  0  0  0  0  0  0  0  0  0  0  0
  141.1142   72.3183  228.3603 H   0  0  0  0  0  0  0  0  0  0  0  0
  141.5296   72.6668  225.9544 H   0  0  0  0  0  0  0  0  0  0  0  0
  141.2753   72.1641  223.8252 H   0  0  0  0  0  0  0  0  0  0  0  0
  141.4652   70.3867  223.5254 H   0  0  0  0  0  0  0  0  0  0  0  0
  139.6910   70.5960  222.1297 H   0  0  0  0  0  0  0  0  0  0  0  0
  138.6933   70.7071  223.6018 H   0  0  0  0  0  0  0  0  0  0  0  0
  138.2730   72.9860  222.9120 H   0  0  0  0  0  0  0  0  0  0  0  0
  144.2102   73.9931  218.4651 H   0  0  0  0  0  0  0  0  0  0  0  0
  144.0067   75.1527  219.8018 H   0  0  0  0  0  0  0  0  0  0  0  0
  146.3496   74.1354  219.5270 H   0  0  0  0  0  0  0  0  0  0  0  0
  145.5953   73.9921  221.1728 H   0  0  0  0  0  0  0  0  0  0  0  0
  144.7536   72.0332  218.3156 H   0  0  0  0  0  0  0  0  0  0  0  0
  144.9860   70.5560  219.3373 H   0  0  0  0  0  0  0  0  0  0  0  0
  142.5853   71.4390  219.2442 H   0  0  0  0  0  0  0  0  0  0  0  0
  143.2331   71.2520  220.8760 H   0  0  0  0  0  0  0  0  0  0  0  0
  138.6559   76.8773  222.3743 H   0  0  0  0  0  0  0  0  0  0  0  0
  139.6368   77.4524  223.7237 H   0  0  0  0  0  0  0  0  0  0  0  0
  139.3062   78.9584  221.0307 H   0  0  0  0  0  0  0  0  0  0  0  0
  138.3859   79.3685  222.4760 H   0  0  0  0  0  0  0  0  0  0  0  0
  139.4372   81.2128  223.7099 H   0  0  0  0  0  0  0  0  0  0  0  0
  141.5608   82.3102  224.4728 H   0  0  0  0  0  0  0  0  0  0  0  0
  143.7340   81.3729  223.8201 H   0  0  0  0  0  0  0  0  0  0  0  0
  143.9177   79.3402  222.4150 H   0  0  0  0  0  0  0  0  0  0  0  0
  141.4776   78.2075  220.4018 H   0  0  0  0  0  0  0  0  0  0  0  0
  142.7111   77.4382  221.4626 H   0  0  0  0  0  0  0  0  0  0  0  0
  139.4235   69.0717  225.0148 H   0  0  0  0  0  0  0  0  0  0  0  0
  138.9822   68.6825  227.4399 H   0  0  0  0  0  0  0  0  0  0  0  0
  1  2  2  0
  2  3  1  0
  3  4  2  0
  4  5  1  0
  5  6  1  0
  6  7  1  0
  7  8  1  0
  8  9  2  0
  9 10  1  0
 10 11  1  0
 11 12  1  0
 12 13  1  0
 13 14  1  0
 14 15  1  0
 15 16  1  0
 10 17  2  0
 17 18  1  0
 18 19  1  0
 19 20  1  0
 20 21  1  0
 21 22  1  0
 22 23  2  0
 23 24  1  0
 24 25  2  0
 25 26  1  0
 26 27  2  0
 27 28  1  0
 18 29  2  0
  4 30  1  0
 30 31  2  0
 31  1  1  0
 29  8  1  0
 16 11  1  0
 28 19  1  0
 27 22  1  0
  1 32  1  0
  2 33  1  0
  3 34  1  0
  5 35  1  0
  5 36  1  0
  6 37  1  0
  6 38  1  0
  7 39  1  0
 12 40  1  0
 12 41  1  0
 13 42  1  0
 13 43  1  0
 15 44  1  0
 15 45  1  0
 16 46  1  0
 16 47  1  0
 20 48  1  0
 20 49  1  0
 21 50  1  0
 21 51  1  0
 23 52  1  0
 24 53  1  0
 25 54  1  0
 26 55  1  0
 28 56  1  0
 28 57  1  0
 30 58  1  0
 31 59  1  0
M  END
>  <smiles>  (17) 
c1ccc(CCNc2nc(N3CCOCC3)nc(N3CCc4ccccc4C3)n2)cc1

>  <score_type>  (17) 
oracle

>  <origin>  (17) 
autodockgpu

>  <m_score__min__energy>  (17) 
-10.06

>  <m_primary>  (17) 
energy

>  <rmsd>  (17) 
10.605724882853456

>  <m_score__min__rmsd>  (17) 
10.605724882853456

>  <meeko>  (17) 
{"free_energy": -9.96, "intermolecular_energy": -11.75, "internal_energy": -0.99, "cluster_size": 49, "cluster_id": 1, "rank_in_cluster": 15}

>  <energy>  (17) 
-9.93

>  <cluster_rmsd>  (17) 
0.53

>  <cluster>  (17) 
1

$$$$

     RDKit          3D

 59 63  0  0  0  0  0  0  0  0999 V2000
  140.8830   70.9950  228.0290 C   0  0  0  0  0  0  0  0  0  0  0  0
  140.0760   69.9000  227.7990 C   0  0  0  0  0  0  0  0  0  0  0  0
  139.6030   69.7130  226.5320 C   0  0  0  0  0  0  0  0  0  0  0  0
  139.9070   70.5770  225.4970 C   0  0  0  0  0  0  0  0  0  0  0  0
  139.3450   70.2920  224.1540 C   0  0  0  0  0  0  0  0  0  0  0  0
  140.2250   70.8660  223.0400 C   0  0  0  0  0  0  0  0  0  0  0  0
  139.7970   72.2520  222.8110 N   0  0  0  0  0  0  0  0  0  0  0  0
  140.6200   73.1560  222.1060 C   0  0  0  0  0  0  0  0  0  0  0  0
  141.6670   72.7600  221.3350 N   0  0  0  0  0  0  0  0  0  0  0  0
  142.4140   73.6820  220.6880 C   0  0  0  0  0  0  0  0  0  0  0  0
  143.4970   73.2170  219.8940 N   0  0  0  0  0  0  0  0  0  0  0  0
  144.5750   74.0970  219.5340 C   0  0  0  0  0  0  0  0  0  0  0  0
  145.8570   73.4730  220.0440 C   0  0  0  0  0  0  0  0  0  0  0  0
  145.9370   72.1190  219.7420 O   0  0  0  0  0  0  0  0  0  0  0  0
  144.9690   71.6890  218.8420 C   0  0  0  0  0  0  0  0  0  0  0  0
  143.5630   71.8460  219.4180 C   0  0  0  0  0  0  0  0  0  0  0  0
  142.0930   74.9570  220.8310 N   0  0  0  0  0  0  0  0  0  0  0  0
  141.0620   75.4020  221.5870 C   0  0  0  0  0  0  0  0  0  0  0  0
  140.7500   76.7850  221.7150 N   0  0  0  0  0  0  0  0  0  0  0  0
  139.4810   77.1710  222.3440 C   0  0  0  0  0  0  0  0  0  0  0  0
  139.1730   78.5660  221.7940 C   0  0  0  0  0  0  0  0  0  0  0  0
  140.2590   79.4320  222.3350 C   0  0  0  0  0  0  0  0  0  0  0  0
  140.0150   80.5670  223.0780 C   0  0  0  0  0  0  0  0  0  0  0  0
  141.1120   81.2920  223.5280 C   0  0  0  0  0  0  0  0  0  0  0  0
  142.3900   80.8700  223.2260 C   0  0  0  0  0  0  0  0  0  0  0  0
  142.6500   79.7380  222.4840 C   0  0  0  0  0  0  0  0  0  0  0  0
  141.5620   79.0170  222.0380 C   0  0  0  0  0  0  0  0  0  0  0  0
  141.6790   77.7800  221.2300 C   0  0  0  0  0  0  0  0  0  0  0  0
  140.3290   74.4720  222.2250 N   0  0  0  0  0  0  0  0  0  0  0  0
  140.7160   71.6580  225.7710 C   0  0  0  0  0  0  0  0  0  0  0  0
  141.2190   71.8860  227.0450 C   0  0  0  0  0  0  0  0  0  0  0  0
  141.2725   71.1591  229.0446 H   0  0  0  0  0  0  0  0  0  0  0  0
  139.8221   69.2009  228.6094 H   0  0  0  0  0  0  0  0  0  0  0  0
  138.9582   68.8454  226.3281 H   0  0  0  0  0  0  0  0  0  0  0  0
  139.2690   69.2025  224.0230 H   0  0  0  0  0  0  0  0  0  0  0  0
  138.3547   70.7662  224.0883 H   0  0  0  0  0  0  0  0  0  0  0  0
  141.2812   70.8446  223.3467 H   0  0  0  0  0  0  0  0  0  0  0  0
  140.1233   70.2715  222.1201 H   0  0  0  0  0  0  0  0  0  0  0  0
  138.8800   72.6140  223.1560 H   0  0  0  0  0  0  0  0  0  0  0  0
  144.6201   74.2089  218.4406 H   0  0  0  0  0  0  0  0  0  0  0  0
  144.4262   75.0943  219.9736 H   0  0  0  0  0  0  0  0  0  0  0  0
  146.7110   73.9902  219.5823 H   0  0  0  0  0  0  0  0  0  0  0  0
  145.8712   73.5766  221.1390 H   0  0  0  0  0  0  0  0  0  0  0  0
  145.0469   72.2851  217.9208 H   0  0  0  0  0  0  0  0  0  0  0  0
  145.1402   70.6227  218.6328 H   0  0  0  0  0  0  0  0  0  0  0  0
  142.8056   71.6711  218.6397 H   0  0  0  0  0  0  0  0  0  0  0  0
  143.3650   71.1218  220.2219 H   0  0  0  0  0  0  0  0  0  0  0  0
  138.6839   76.4636  222.0717 H   0  0  0  0  0  0  0  0  0  0  0  0
  139.5462   77.1654  223.4420 H   0  0  0  0  0  0  0  0  0  0  0  0
  139.1908   78.5624  220.6942 H   0  0  0  0  0  0  0  0  0  0  0  0
  138.1732   78.9186  222.0875 H   0  0  0  0  0  0  0  0  0  0  0  0
  138.9880   80.8877  223.3068 H   0  0  0  0  0  0  0  0  0  0  0  0
  140.9609   82.2031  224.1255 H   0  0  0  0  0  0  0  0  0  0  0  0
  143.2399   81.4636  223.5939 H   0  0  0  0  0  0  0  0  0  0  0  0
  143.6795   79.4235  222.2575 H   0  0  0  0  0  0  0  0  0  0  0  0
  141.4521   78.0087  220.1782 H   0  0  0  0  0  0  0  0  0  0  0  0
  142.7038   77.3891  221.3132 H   0  0  0  0  0  0  0  0  0  0  0  0
  140.9696   72.3575  224.9608 H   0  0  0  0  0  0  0  0  0  0  0  0
  141.8643   72.7514  227.2562 H   0  0  0  0  0  0  0  0  0  0  0  0
  1  2  2  0
  2  3  1  0
  3  4  2  0
  4  5  1  0
  5  6  1  0
  6  7  1  0
  7  8  1  0
  8  9  2  0
  9 10  1  0
 10 11  1  0
 11 12  1  0
 12 13  1  0
 13 14  1  0
 14 15  1  0
 15 16  1  0
 10 17  2  0
 17 18  1  0
 18 19  1  0
 19 20  1  0
 20 21  1  0
 21 22  1  0
 22 23  2  0
 23 24  1  0
 24 25  2  0
 25 26  1  0
 26 27  2  0
 27 28  1  0
 18 29  2  0
  4 30  1  0
 30 31  2  0
 31  1  1  0
 29  8  1  0
 16 11  1  0
 28 19  1  0
 27 22  1  0
  1 32  1  0
  2 33  1  0
  3 34  1  0
  5 35  1  0
  5 36  1  0
  6 37  1  0
  6 38  1  0
  7 39  1  0
 12 40  1  0
 12 41  1  0
 13 42  1  0
 13 43  1  0
 15 44  1  0
 15 45  1  0
 16 46  1  0
 16 47  1  0
 20 48  1  0
 20 49  1  0
 21 50  1  0
 21 51  1  0
 23 52  1  0
 24 53  1  0
 25 54  1  0
 26 55  1  0
 28 56  1  0
 28 57  1  0
 30 58  1  0
 31 59  1  0
M  END
>  <smiles>  (18) 
c1ccc(CCNc2nc(N3CCOCC3)nc(N3CCc4ccccc4C3)n2)cc1

>  <score_type>  (18) 
oracle

>  <origin>  (18) 
autodockgpu

>  <m_score__min__energy>  (18) 
-10.06

>  <m_primary>  (18) 
energy

>  <rmsd>  (18) 
10.509305718309609

>  <m_score__min__rmsd>  (18) 
10.509305718309609

>  <meeko>  (18) 
{"free_energy": -10.01, "intermolecular_energy": -11.8, "internal_energy": -0.91, "cluster_size": 49, "cluster_id": 1, "rank_in_cluster": 7}

>  <energy>  (18) 
-9.92

>  <cluster_rmsd>  (18) 
0.88

>  <cluster>  (18) 
1

$$$$

     RDKit          3D

 59 63  0  0  0  0  0  0  0  0999 V2000
  142.2060   81.2610  223.5630 C   0  0  0  0  0  0  0  0  0  0  0  0
  140.8420   81.1840  223.7500 C   0  0  0  0  0  0  0  0  0  0  0  0
  140.2270   79.9980  223.4670 C   0  0  0  0  0  0  0  0  0  0  0  0
  140.9260   78.8980  223.0070 C   0  0  0  0  0  0  0  0  0  0  0  0
  140.1700   77.6520  222.7250 C   0  0  0  0  0  0  0  0  0  0  0  0
  140.7380   76.9110  221.5110 C   0  0  0  0  0  0  0  0  0  0  0  0
  139.9930   75.6530  221.3760 N   0  0  0  0  0  0  0  0  0  0  0  0
  140.6520   74.4090  221.4720 C   0  0  0  0  0  0  0  0  0  0  0  0
  141.7730   74.1050  220.7650 N   0  0  0  0  0  0  0  0  0  0  0  0
  142.3520   72.8920  220.9080 C   0  0  0  0  0  0  0  0  0  0  0  0
  143.5220   72.6250  220.1470 N   0  0  0  0  0  0  0  0  0  0  0  0
  144.3670   73.6980  219.6990 C   0  0  0  0  0  0  0  0  0  0  0  0
  145.7550   73.4380  220.2470 C   0  0  0  0  0  0  0  0  0  0  0  0
  146.1520   72.1190  220.0650 O   0  0  0  0  0  0  0  0  0  0  0  0
  145.3210   71.3970  219.2170 C   0  0  0  0  0  0  0  0  0  0  0  0
  143.9110   71.2710  219.7920 C   0  0  0  0  0  0  0  0  0  0  0  0
  141.7970   72.0310  221.7430 N   0  0  0  0  0  0  0  0  0  0  0  0
  140.6830   72.2830  222.4690 C   0  0  0  0  0  0  0  0  0  0  0  0
  140.1160   71.3270  223.3580 N   0  0  0  0  0  0  0  0  0  0  0  0
  139.4180   70.1640  222.7980 C   0  0  0  0  0  0  0  0  0  0  0  0
  138.4510   69.7140  223.8960 C   0  0  0  0  0  0  0  0  0  0  0  0
  139.3320   69.2540  225.0080 C   0  0  0  0  0  0  0  0  0  0  0  0
  139.2520   67.9940  225.5580 C   0  0  0  0  0  0  0  0  0  0  0  0
  140.1280   67.6830  226.5910 C   0  0  0  0  0  0  0  0  0  0  0  0
  141.0370   68.6240  227.0320 C   0  0  0  0  0  0  0  0  0  0  0  0
  141.1290   69.8880  226.4930 C   0  0  0  0  0  0  0  0  0  0  0  0
  140.2600   70.1960  225.4670 C   0  0  0  0  0  0  0  0  0  0  0  0
  140.2360   71.5130  224.7860 C   0  0  0  0  0  0  0  0  0  0  0  0
  140.1190   73.4950  222.3150 N   0  0  0  0  0  0  0  0  0  0  0  0
  142.2870   79.0200  222.8340 C   0  0  0  0  0  0  0  0  0  0  0  0
  142.9530   80.2070  223.1100 C   0  0  0  0  0  0  0  0  0  0  0  0
  142.7156   82.2097  223.7874 H   0  0  0  0  0  0  0  0  0  0  0  0
  140.2685   82.0489  224.1149 H   0  0  0  0  0  0  0  0  0  0  0  0
  139.1394   79.9154  223.6099 H   0  0  0  0  0  0  0  0  0  0  0  0
  140.2267   76.9932  223.6041 H   0  0  0  0  0  0  0  0  0  0  0  0
  139.1272   77.9244  222.5051 H   0  0  0  0  0  0  0  0  0  0  0  0
  140.6118   77.5218  220.6049 H   0  0  0  0  0  0  0  0  0  0  0  0
  141.8120   76.7139  221.6440 H   0  0  0  0  0  0  0  0  0  0  0  0
  138.9630   75.6330  221.2070 H   0  0  0  0  0  0  0  0  0  0  0  0
  144.3947   73.7212  218.5996 H   0  0  0  0  0  0  0  0  0  0  0  0
  143.9848   74.6674  220.0513 H   0  0  0  0  0  0  0  0  0  0  0  0
  146.4688   74.0973  219.7313 H   0  0  0  0  0  0  0  0  0  0  0  0
  145.7344   73.6386  221.3284 H   0  0  0  0  0  0  0  0  0  0  0  0
  145.2669   71.9111  218.2460 H   0  0  0  0  0  0  0  0  0  0  0  0
  145.7390   70.3862  219.1009 H   0  0  0  0  0  0  0  0  0  0  0  0
  143.2233   70.8567  219.0400 H   0  0  0  0  0  0  0  0  0  0  0  0
  143.8792   70.5937  220.6581 H   0  0  0  0  0  0  0  0  0  0  0  0
  138.8664   70.4453  221.8888 H   0  0  0  0  0  0  0  0  0  0  0  0
  140.1154   69.3639  222.5091 H   0  0  0  0  0  0  0  0  0  0  0  0
  137.8180   70.5520  224.2233 H   0  0  0  0  0  0  0  0  0  0  0  0
  137.7672   68.9242  223.5516 H   0  0  0  0  0  0  0  0  0  0  0  0
  138.5199   67.2590  225.1922 H   0  0  0  0  0  0  0  0  0  0  0  0
  140.0972   66.6872  227.0573 H   0  0  0  0  0  0  0  0  0  0  0  0
  141.7188   68.3517  227.8512 H   0  0  0  0  0  0  0  0  0  0  0  0
  141.8624   70.6191  226.8640 H   0  0  0  0  0  0  0  0  0  0  0  0
  139.3780   72.0966  225.1510 H   0  0  0  0  0  0  0  0  0  0  0  0
  141.1710   72.0500  225.0036 H   0  0  0  0  0  0  0  0  0  0  0  0
  142.8607   78.1557  222.4681 H   0  0  0  0  0  0  0  0  0  0  0  0
  144.0403   80.2969  222.9698 H   0  0  0  0  0  0  0  0  0  0  0  0
  1  2  2  0
  2  3  1  0
  3  4  2  0
  4  5  1  0
  5  6  1  0
  6  7  1  0
  7  8  1  0
  8  9  2  0
  9 10  1  0
 10 11  1  0
 11 12  1  0
 12 13  1  0
 13 14  1  0
 14 15  1  0
 15 16  1  0
 10 17  2  0
 17 18  1  0
 18 19  1  0
 19 20  1  0
 20 21  1  0
 21 22  1  0
 22 23  2  0
 23 24  1  0
 24 25  2  0
 25 26  1  0
 26 27  2  0
 27 28  1  0
 18 29  2  0
  4 30  1  0
 30 31  2  0
 31  1  1  0
 29  8  1  0
 16 11  1  0
 28 19  1  0
 27 22  1  0
  1 32  1  0
  2 33  1  0
  3 34  1  0
  5 35  1  0
  5 36  1  0
  6 37  1  0
  6 38  1  0
  7 39  1  0
 12 40  1  0
 12 41  1  0
 13 42  1  0
 13 43  1  0
 15 44  1  0
 15 45  1  0
 16 46  1  0
 16 47  1  0
 20 48  1  0
 20 49  1  0
 21 50  1  0
 21 51  1  0
 23 52  1  0
 24 53  1  0
 25 54  1  0
 26 55  1  0
 28 56  1  0
 28 57  1  0
 30 58  1  0
 31 59  1  0
M  END
>  <smiles>  (19) 
c1ccc(CCNc2nc(N3CCOCC3)nc(N3CCc4ccccc4C3)n2)cc1

>  <score_type>  (19) 
oracle

>  <origin>  (19) 
autodockgpu

>  <m_score__min__energy>  (19) 
-10.06

>  <m_primary>  (19) 
energy

>  <rmsd>  (19) 
3.772932147818564

>  <m_score__min__rmsd>  (19) 
3.772932147818564

>  <meeko>  (19) 
{"free_energy": -9.72, "intermolecular_energy": -11.51, "internal_energy": -0.81, "cluster_size": 49, "cluster_id": 1, "rank_in_cluster": 27}

>  <energy>  (19) 
-9.9

>  <cluster_rmsd>  (19) 
0.66

>  <cluster>  (19) 
1

$$$$

     RDKit          3D

 59 63  0  0  0  0  0  0  0  0999 V2000
  140.4720   68.6070  228.1400 C   0  0  0  0  0  0  0  0  0  0  0  0
  140.0500   67.7550  227.1420 C   0  0  0  0  0  0  0  0  0  0  0  0
  139.8050   68.2920  225.9100 C   0  0  0  0  0  0  0  0  0  0  0  0
  139.9690   69.6380  225.6470 C   0  0  0  0  0  0  0  0  0  0  0  0
  139.6770   70.1290  224.2770 C   0  0  0  0  0  0  0  0  0  0  0  0
  140.2910   71.5100  224.0300 C   0  0  0  0  0  0  0  0  0  0  0  0
  140.0560   71.8510  222.6210 N   0  0  0  0  0  0  0  0  0  0  0  0
  140.8010   72.8690  221.9890 C   0  0  0  0  0  0  0  0  0  0  0  0
  141.8960   72.6210  221.2230 N   0  0  0  0  0  0  0  0  0  0  0  0
  142.5630   73.6470  220.6480 C   0  0  0  0  0  0  0  0  0  0  0  0
  143.7010   73.3350  219.8570 N   0  0  0  0  0  0  0  0  0  0  0  0
  144.9430   74.0320  220.0500 C   0  0  0  0  0  0  0  0  0  0  0  0
  145.9990   72.9950  220.3680 C   0  0  0  0  0  0  0  0  0  0  0  0
  145.9410   71.9070  219.5050 O   0  0  0  0  0  0  0  0  0  0  0  0
  145.1150   72.1080  218.4070 C   0  0  0  0  0  0  0  0  0  0  0  0
  143.6610   72.3070  218.8300 C   0  0  0  0  0  0  0  0  0  0  0  0
  142.1170   74.8740  220.8560 N   0  0  0  0  0  0  0  0  0  0  0  0
  141.0330   75.1740  221.6090 C   0  0  0  0  0  0  0  0  0  0  0  0
  140.5860   76.5100  221.8080 N   0  0  0  0  0  0  0  0  0  0  0  0
  139.3120   76.7370  222.5010 C   0  0  0  0  0  0  0  0  0  0  0  0
  138.8390   78.1120  222.0220 C   0  0  0  0  0  0  0  0  0  0  0  0
  139.8520   79.0660  222.5580 C   0  0  0  0  0  0  0  0  0  0  0  0
  139.5240   80.1400  223.3570 C   0  0  0  0  0  0  0  0  0  0  0  0
  140.5590   80.9580  223.7950 C   0  0  0  0  0  0  0  0  0  0  0  0
  141.8600   80.6840  223.4260 C   0  0  0  0  0  0  0  0  0  0  0  0
  142.2030   79.6150  222.6280 C   0  0  0  0  0  0  0  0  0  0  0  0
  141.1770   78.8010  222.1940 C   0  0  0  0  0  0  0  0  0  0  0  0
  141.3870   77.6150  221.3300 C   0  0  0  0  0  0  0  0  0  0  0  0
  140.3820   74.1420  222.1750 N   0  0  0  0  0  0  0  0  0  0  0  0
  140.3920   70.4530  226.6740 C   0  0  0  0  0  0  0  0  0  0  0  0
  140.6520   69.9500  227.9420 C   0  0  0  0  0  0  0  0  0  0  0  0
  140.6727   68.1904  229.1381 H   0  0  0  0  0  0  0  0  0  0  0  0
  139.9152   66.6798  227.3311 H   0  0  0  0  0  0  0  0  0  0  0  0
  139.4655   67.6299  225.0998 H   0  0  0  0  0  0  0  0  0  0  0  0
  140.0919   69.4182  223.5471 H   0  0  0  0  0  0  0  0  0  0  0  0
  138.5857   70.2131  224.1671 H   0  0  0  0  0  0  0  0  0  0  0  0
  139.8128   72.2559  224.6819 H   0  0  0  0  0  0  0  0  0  0  0  0
  141.3683   71.5009  224.2523 H   0  0  0  0  0  0  0  0  0  0  0  0
  139.3380   71.3580  222.0430 H   0  0  0  0  0  0  0  0  0  0  0  0
  145.2148   74.5768  219.1338 H   0  0  0  0  0  0  0  0  0  0  0  0
  144.8559   74.7616  220.8686 H   0  0  0  0  0  0  0  0  0  0  0  0
  146.9913   73.4620  220.2835 H   0  0  0  0  0  0  0  0  0  0  0  0
  145.8160   72.6276  221.3885 H   0  0  0  0  0  0  0  0  0  0  0  0
  145.4546   73.0017  217.8630 H   0  0  0  0  0  0  0  0  0  0  0  0
  145.1692   71.2156  217.7661 H   0  0  0  0  0  0  0  0  0  0  0  0
  143.0525   72.6385  217.9757 H   0  0  0  0  0  0  0  0  0  0  0  0
  143.2084   71.3746  219.1985 H   0  0  0  0  0  0  0  0  0  0  0  0
  138.5811   75.9609  222.2302 H   0  0  0  0  0  0  0  0  0  0  0  0
  139.4239   76.6968  223.5946 H   0  0  0  0  0  0  0  0  0  0  0  0
  138.8112   78.1520  220.9231 H   0  0  0  0  0  0  0  0  0  0  0  0
  137.8213   78.3466  222.3673 H   0  0  0  0  0  0  0  0  0  0  0  0
  138.4800   80.3427  223.6382 H   0  0  0  0  0  0  0  0  0  0  0  0
  140.3407   81.8246  224.4364 H   0  0  0  0  0  0  0  0  0  0  0  0
  142.6591   81.3491  223.7852 H   0  0  0  0  0  0  0  0  0  0  0  0
  143.2488   79.4189  222.3490 H   0  0  0  0  0  0  0  0  0  0  0  0
  141.0935   77.8588  220.2983 H   0  0  0  0  0  0  0  0  0  0  0  0
  142.4493   77.3307  221.3570 H   0  0  0  0  0  0  0  0  0  0  0  0
  140.5271   71.5282  226.4850 H   0  0  0  0  0  0  0  0  0  0  0  0
  140.9901   70.6063  228.7575 H   0  0  0  0  0  0  0  0  0  0  0  0
  1  2  2  0
  2  3  1  0
  3  4  2  0
  4  5  1  0
  5  6  1  0
  6  7  1  0
  7  8  1  0
  8  9  2  0
  9 10  1  0
 10 11  1  0
 11 12  1  0
 12 13  1  0
 13 14  1  0
 14 15  1  0
 15 16  1  0
 10 17  2  0
 17 18  1  0
 18 19  1  0
 19 20  1  0
 20 21  1  0
 21 22  1  0
 22 23  2  0
 23 24  1  0
 24 25  2  0
 25 26  1  0
 26 27  2  0
 27 28  1  0
 18 29  2  0
  4 30  1  0
 30 31  2  0
 31  1  1  0
 29  8  1  0
 16 11  1  0
 28 19  1  0
 27 22  1  0
  1 32  1  0
  2 33  1  0
  3 34  1  0
  5 35  1  0
  5 36  1  0
  6 37  1  0
  6 38  1  0
  7 39  1  0
 12 40  1  0
 12 41  1  0
 13 42  1  0
 13 43  1  0
 15 44  1  0
 15 45  1  0
 16 46  1  0
 16 47  1  0
 20 48  1  0
 20 49  1  0
 21 50  1  0
 21 51  1  0
 23 52  1  0
 24 53  1  0
 25 54  1  0
 26 55  1  0
 28 56  1  0
 28 57  1  0
 30 58  1  0
 31 59  1  0
M  END
>  <smiles>  (20) 
c1ccc(CCNc2nc(N3CCOCC3)nc(N3CCc4ccccc4C3)n2)cc1

>  <score_type>  (20) 
oracle

>  <origin>  (20) 
autodockgpu

>  <m_score__min__energy>  (20) 
-10.06

>  <m_primary>  (20) 
energy

>  <rmsd>  (20) 
10.165013884799793

>  <m_score__min__rmsd>  (20) 
10.165013884799793

>  <meeko>  (20) 
{"free_energy": -9.8, "intermolecular_energy": -11.59, "internal_energy": -0.76, "cluster_size": 49, "cluster_id": 1, "rank_in_cluster": 23}

>  <energy>  (20) 
-9.89

>  <cluster_rmsd>  (20) 
0.92

>  <cluster>  (20) 
1

$$$$

     RDKit          3D

 59 63  0  0  0  0  0  0  0  0999 V2000
  141.0450   69.7350  228.3340 C   0  0  0  0  0  0  0  0  0  0  0  0
  140.9210   70.9830  227.7610 C   0  0  0  0  0  0  0  0  0  0  0  0
  140.3560   71.0590  226.5200 C   0  0  0  0  0  0  0  0  0  0  0  0
  139.9140   69.9390  225.8410 C   0  0  0  0  0  0  0  0  0  0  0  0
  139.3150   70.1210  224.4960 C   0  0  0  0  0  0  0  0  0  0  0  0
  139.5510   71.5360  223.9600 C   0  0  0  0  0  0  0  0  0  0  0  0
  140.0440   71.4090  222.5830 N   0  0  0  0  0  0  0  0  0  0  0  0
  140.7600   72.4600  221.9720 C   0  0  0  0  0  0  0  0  0  0  0  0
  141.8600   72.2590  221.1980 N   0  0  0  0  0  0  0  0  0  0  0  0
  142.4960   73.3150  220.6440 C   0  0  0  0  0  0  0  0  0  0  0  0
  143.6410   73.0510  219.8440 N   0  0  0  0  0  0  0  0  0  0  0  0
  144.6970   74.0180  219.7330 C   0  0  0  0  0  0  0  0  0  0  0  0
  145.9760   73.3450  220.1890 C   0  0  0  0  0  0  0  0  0  0  0  0
  146.1300   72.0820  219.6320 O   0  0  0  0  0  0  0  0  0  0  0  0
  145.2330   71.8090  218.6070 C   0  0  0  0  0  0  0  0  0  0  0  0
  143.7920   71.8040  219.1130 C   0  0  0  0  0  0  0  0  0  0  0  0
  142.0180   74.5250  220.8800 N   0  0  0  0  0  0  0  0  0  0  0  0
  140.9290   74.7790  221.6420 C   0  0  0  0  0  0  0  0  0  0  0  0
  140.4470   76.0980  221.8710 N   0  0  0  0  0  0  0  0  0  0  0  0
  139.2190   76.2790  222.6540 C   0  0  0  0  0  0  0  0  0  0  0  0
  138.6590   77.6330  222.2100 C   0  0  0  0  0  0  0  0  0  0  0  0
  139.6720   78.6270  222.6680 C   0  0  0  0  0  0  0  0  0  0  0  0
  139.3620   79.6910  223.4870 C   0  0  0  0  0  0  0  0  0  0  0  0
  140.3940   80.5510  223.8460 C   0  0  0  0  0  0  0  0  0  0  0  0
  141.6740   80.3240  223.3820 C   0  0  0  0  0  0  0  0  0  0  0  0
  141.9990   79.2660  222.5630 C   0  0  0  0  0  0  0  0  0  0  0  0
  140.9750   78.4120  222.2070 C   0  0  0  0  0  0  0  0  0  0  0  0
  141.1670   77.2300  221.3330 C   0  0  0  0  0  0  0  0  0  0  0  0
  140.3070   73.7170  222.1860 N   0  0  0  0  0  0  0  0  0  0  0  0
  140.0580   68.7130  226.4520 C   0  0  0  0  0  0  0  0  0  0  0  0
  140.6270   68.5890  227.7120 C   0  0  0  0  0  0  0  0  0  0  0  0
  141.4989   69.6567  229.3329 H   0  0  0  0  0  0  0  0  0  0  0  0
  141.2654   71.8865  228.2855 H   0  0  0  0  0  0  0  0  0  0  0  0
  140.2490   72.0451  226.0445 H   0  0  0  0  0  0  0  0  0  0  0  0
  139.7676   69.3967  223.8028 H   0  0  0  0  0  0  0  0  0  0  0  0
  138.2298   69.9611  224.5784 H   0  0  0  0  0  0  0  0  0  0  0  0
  138.6090   72.1038  223.9709 H   0  0  0  0  0  0  0  0  0  0  0  0
  140.2810   72.0708  224.5854 H   0  0  0  0  0  0  0  0  0  0  0  0
  139.8860   70.5480  222.0140 H   0  0  0  0  0  0  0  0  0  0  0  0
  144.7971   74.3475  218.6883 H   0  0  0  0  0  0  0  0  0  0  0  0
  144.4812   74.9021  220.3509 H   0  0  0  0  0  0  0  0  0  0  0  0
  146.8309   73.9701  219.8919 H   0  0  0  0  0  0  0  0  0  0  0  0
  145.9264   73.2291  221.2817 H   0  0  0  0  0  0  0  0  0  0  0  0
  145.3357   72.5782  217.8274 H   0  0  0  0  0  0  0  0  0  0  0  0
  145.4615   70.8113  218.2041 H   0  0  0  0  0  0  0  0  0  0  0  0
  143.0871   71.7634  218.2696 H   0  0  0  0  0  0  0  0  0  0  0  0
  143.5810   70.9287  219.7449 H   0  0  0  0  0  0  0  0  0  0  0  0
  138.5009   75.4743  222.4376 H   0  0  0  0  0  0  0  0  0  0  0  0
  139.4120   76.2477  223.7365 H   0  0  0  0  0  0  0  0  0  0  0  0
  138.5479   77.6675  221.1162 H   0  0  0  0  0  0  0  0  0  0  0  0
  137.6615   77.8300  222.6298 H   0  0  0  0  0  0  0  0  0  0  0  0
  138.3345   79.8542  223.8441 H   0  0  0  0  0  0  0  0  0  0  0  0
  140.1904   81.4120  224.4996 H   0  0  0  0  0  0  0  0  0  0  0  0
  142.4713   81.0206  223.6804 H   0  0  0  0  0  0  0  0  0  0  0  0
  143.0283   79.1085  222.2085 H   0  0  0  0  0  0  0  0  0  0  0  0
  140.7896   77.4567  220.3249 H   0  0  0  0  0  0  0  0  0  0  0  0
  142.2386   76.9869  221.2829 H   0  0  0  0  0  0  0  0  0  0  0  0
  139.7133   67.8092  225.9282 H   0  0  0  0  0  0  0  0  0  0  0  0
  140.7380   67.6061  228.1932 H   0  0  0  0  0  0  0  0  0  0  0  0
  1  2  2  0
  2  3  1  0
  3  4  2  0
  4  5  1  0
  5  6  1  0
  6  7  1  0
  7  8  1  0
  8  9  2  0
  9 10  1  0
 10 11  1  0
 11 12  1  0
 12 13  1  0
 13 14  1  0
 14 15  1  0
 15 16  1  0
 10 17  2  0
 17 18  1  0
 18 19  1  0
 19 20  1  0
 20 21  1  0
 21 22  1  0
 22 23  2  0
 23 24  1  0
 24 25  2  0
 25 26  1  0
 26 27  2  0
 27 28  1  0
 18 29  2  0
  4 30  1  0
 30 31  2  0
 31  1  1  0
 29  8  1  0
 16 11  1  0
 28 19  1  0
 27 22  1  0
  1 32  1  0
  2 33  1  0
  3 34  1  0
  5 35  1  0
  5 36  1  0
  6 37  1  0
  6 38  1  0
  7 39  1  0
 12 40  1  0
 12 41  1  0
 13 42  1  0
 13 43  1  0
 15 44  1  0
 15 45  1  0
 16 46  1  0
 16 47  1  0
 20 48  1  0
 20 49  1  0
 21 50  1  0
 21 51  1  0
 23 52  1  0
 24 53  1  0
 25 54  1  0
 26 55  1  0
 28 56  1  0
 28 57  1  0
 30 58  1  0
 31 59  1  0
M  END
>  <smiles>  (21) 
c1ccc(CCNc2nc(N3CCOCC3)nc(N3CCc4ccccc4C3)n2)cc1

>  <score_type>  (21) 
oracle

>  <origin>  (21) 
autodockgpu

>  <m_score__min__energy>  (21) 
-10.06

>  <m_primary>  (21) 
energy

>  <rmsd>  (21) 
9.773422099611716

>  <m_score__min__rmsd>  (21) 
9.773422099611716

>  <meeko>  (21) 
{"free_energy": -9.74, "intermolecular_energy": -11.53, "internal_energy": -0.84, "cluster_size": 49, "cluster_id": 1, "rank_in_cluster": 26}

>  <energy>  (21) 
-9.87

>  <cluster_rmsd>  (21) 
0.8

>  <cluster>  (21) 
1

$$$$

     RDKit          3D

 59 63  0  0  0  0  0  0  0  0999 V2000
  140.6360   70.2200  228.2230 C   0  0  0  0  0  0  0  0  0  0  0  0
  141.0540   71.5060  227.9530 C   0  0  0  0  0  0  0  0  0  0  0  0
  140.9870   71.9380  226.6590 C   0  0  0  0  0  0  0  0  0  0  0  0
  140.5210   71.1330  225.6370 C   0  0  0  0  0  0  0  0  0  0  0  0
  140.4870   71.6900  224.2620 C   0  0  0  0  0  0  0  0  0  0  0  0
  139.3040   71.1420  223.4600 C   0  0  0  0  0  0  0  0  0  0  0  0
  139.3810   71.7170  222.1110 N   0  0  0  0  0  0  0  0  0  0  0  0
  140.3770   72.6630  221.7850 C   0  0  0  0  0  0  0  0  0  0  0  0
  141.6190   72.3160  221.3540 N   0  0  0  0  0  0  0  0  0  0  0  0
  142.5230   73.2770  221.0600 C   0  0  0  0  0  0  0  0  0  0  0  0
  143.8060   72.8620  220.6140 N   0  0  0  0  0  0  0  0  0  0  0  0
  144.0000   71.5550  220.0480 C   0  0  0  0  0  0  0  0  0  0  0  0
  144.5710   71.7440  218.6580 C   0  0  0  0  0  0  0  0  0  0  0  0
  145.6080   72.6690  218.6400 O   0  0  0  0  0  0  0  0  0  0  0  0
  146.0590   73.0280  219.9040 C   0  0  0  0  0  0  0  0  0  0  0  0
  144.9670   73.7310  220.7080 C   0  0  0  0  0  0  0  0  0  0  0  0
  142.1600   74.5400  221.2050 N   0  0  0  0  0  0  0  0  0  0  0  0
  140.9380   74.9380  221.6310 C   0  0  0  0  0  0  0  0  0  0  0  0
  140.5870   76.3090  221.7740 N   0  0  0  0  0  0  0  0  0  0  0  0
  139.3570   76.6560  222.4940 C   0  0  0  0  0  0  0  0  0  0  0  0
  138.9580   78.0340  221.9610 C   0  0  0  0  0  0  0  0  0  0  0  0
  140.0500   78.9430  222.4120 C   0  0  0  0  0  0  0  0  0  0  0  0
  139.8220   80.0750  223.1640 C   0  0  0  0  0  0  0  0  0  0  0  0
  140.9230   80.8430  223.5250 C   0  0  0  0  0  0  0  0  0  0  0  0
  142.1900   80.4630  223.1290 C   0  0  0  0  0  0  0  0  0  0  0  0
  142.4330   79.3350  222.3770 C   0  0  0  0  0  0  0  0  0  0  0  0
  141.3400   78.5720  222.0200 C   0  0  0  0  0  0  0  0  0  0  0  0
  141.4410   77.3330  221.2130 C   0  0  0  0  0  0  0  0  0  0  0  0
  140.0500   73.9690  221.9200 N   0  0  0  0  0  0  0  0  0  0  0  0
  140.1150   69.8550  225.9520 C   0  0  0  0  0  0  0  0  0  0  0  0
  140.1650   69.3750  227.2540 C   0  0  0  0  0  0  0  0  0  0  0  0
  140.6829   69.8577  229.2606 H   0  0  0  0  0  0  0  0  0  0  0  0
  141.4287   72.1618  228.7527 H   0  0  0  0  0  0  0  0  0  0  0  0
  141.3150   72.9610  226.4225 H   0  0  0  0  0  0  0  0  0  0  0  0
  140.4003   72.7849  224.3226 H   0  0  0  0  0  0  0  0  0  0  0  0
  141.4150   71.3966  223.7494 H   0  0  0  0  0  0  0  0  0  0  0  0
  139.3638   70.0450  223.4047 H   0  0  0  0  0  0  0  0  0  0  0  0
  138.3521   71.4100  223.9416 H   0  0  0  0  0  0  0  0  0  0  0  0
  138.7130   71.4510  221.3540 H   0  0  0  0  0  0  0  0  0  0  0  0
  144.7018   70.9773  220.6675 H   0  0  0  0  0  0  0  0  0  0  0  0
  143.0484   71.0048  220.0057 H   0  0  0  0  0  0  0  0  0  0  0  0
  144.9517   70.7774  218.2965 H   0  0  0  0  0  0  0  0  0  0  0  0
  143.7671   72.1239  218.0104 H   0  0  0  0  0  0  0  0  0  0  0  0
  146.3724   72.1216  220.4427 H   0  0  0  0  0  0  0  0  0  0  0  0
  146.9028   73.7236  219.7852 H   0  0  0  0  0  0  0  0  0  0  0  0
  145.2761   73.8498  221.7570 H   0  0  0  0  0  0  0  0  0  0  0  0
  144.7578   74.7400  220.3230 H   0  0  0  0  0  0  0  0  0  0  0  0
  138.5674   75.9186  222.2872 H   0  0  0  0  0  0  0  0  0  0  0  0
  139.5055   76.6630  223.5839 H   0  0  0  0  0  0  0  0  0  0  0  0
  138.8920   78.0214  220.8631 H   0  0  0  0  0  0  0  0  0  0  0  0
  137.9715   78.3533  222.3281 H   0  0  0  0  0  0  0  0  0  0  0  0
  138.8043   80.3609  223.4680 H   0  0  0  0  0  0  0  0  0  0  0  0
  140.7848   81.7537  224.1263 H   0  0  0  0  0  0  0  0  0  0  0  0
  143.0436   81.0893  223.4275 H   0  0  0  0  0  0  0  0  0  0  0  0
  143.4528   79.0548  222.0745 H   0  0  0  0  0  0  0  0  0  0  0  0
  141.1273   77.5440  220.1800 H   0  0  0  0  0  0  0  0  0  0  0  0
  142.4827   76.9799  221.2205 H   0  0  0  0  0  0  0  0  0  0  0  0
  139.7419   69.1983  225.1522 H   0  0  0  0  0  0  0  0  0  0  0  0
  139.8382   68.3534  227.4980 H   0  0  0  0  0  0  0  0  0  0  0  0
  1  2  2  0
  2  3  1  0
  3  4  2  0
  4  5  1  0
  5  6  1  0
  6  7  1  0
  7  8  1  0
  8  9  2  0
  9 10  1  0
 10 11  1  0
 11 12  1  0
 12 13  1  0
 13 14  1  0
 14 15  1  0
 15 16  1  0
 10 17  2  0
 17 18  1  0
 18 19  1  0
 19 20  1  0
 20 21  1  0
 21 22  1  0
 22 23  2  0
 23 24  1  0
 24 25  2  0
 25 26  1  0
 26 27  2  0
 27 28  1  0
 18 29  2  0
  4 30  1  0
 30 31  2  0
 31  1  1  0
 29  8  1  0
 16 11  1  0
 28 19  1  0
 27 22  1  0
  1 32  1  0
  2 33  1  0
  3 34  1  0
  5 35  1  0
  5 36  1  0
  6 37  1  0
  6 38  1  0
  7 39  1  0
 12 40  1  0
 12 41  1  0
 13 42  1  0
 13 43  1  0
 15 44  1  0
 15 45  1  0
 16 46  1  0
 16 47  1  0
 20 48  1  0
 20 49  1  0
 21 50  1  0
 21 51  1  0
 23 52  1  0
 24 53  1  0
 25 54  1  0
 26 55  1  0
 28 56  1  0
 28 57  1  0
 30 58  1  0
 31 59  1  0
M  END
>  <smiles>  (22) 
c1ccc(CCNc2nc(N3CCOCC3)nc(N3CCc4ccccc4C3)n2)cc1

>  <score_type>  (22) 
oracle

>  <origin>  (22) 
autodockgpu

>  <m_score__min__energy>  (22) 
-10.06

>  <m_primary>  (22) 
energy

>  <rmsd>  (22) 
10.074471293070864

>  <m_score__min__rmsd>  (22) 
10.074471293070864

>  <meeko>  (22) 
{"free_energy": -10.0, "intermolecular_energy": -11.79, "internal_energy": -1.0, "cluster_size": 49, "cluster_id": 1, "rank_in_cluster": 8}

>  <energy>  (22) 
-9.86

>  <cluster_rmsd>  (22) 
0.76

>  <cluster>  (22) 
1

$$$$

     RDKit          3D

 59 63  0  0  0  0  0  0  0  0999 V2000
  140.2430   70.3870  228.3270 C   0  0  0  0  0  0  0  0  0  0  0  0
  140.9330   71.5360  228.0030 C   0  0  0  0  0  0  0  0  0  0  0  0
  141.0810   71.8360  226.6780 C   0  0  0  0  0  0  0  0  0  0  0  0
  140.5680   71.0320  225.6790 C   0  0  0  0  0  0  0  0  0  0  0  0
  140.7820   71.4390  224.2680 C   0  0  0  0  0  0  0  0  0  0  0  0
  139.4550   71.6150  223.5240 C   0  0  0  0  0  0  0  0  0  0  0  0
  139.7680   71.7890  222.1000 N   0  0  0  0  0  0  0  0  0  0  0  0
  140.6180   72.8300  221.6690 C   0  0  0  0  0  0  0  0  0  0  0  0
  141.7890   72.6090  221.0150 N   0  0  0  0  0  0  0  0  0  0  0  0
  142.5540   73.6560  220.6320 C   0  0  0  0  0  0  0  0  0  0  0  0
  143.7690   73.3720  219.9510 N   0  0  0  0  0  0  0  0  0  0  0  0
  145.0000   73.9910  220.3580 C   0  0  0  0  0  0  0  0  0  0  0  0
  145.9760   72.8810  220.6900 C   0  0  0  0  0  0  0  0  0  0  0  0
  145.9870   71.8870  219.7190 O   0  0  0  0  0  0  0  0  0  0  0  0
  145.3070   72.2310  218.5580 C   0  0  0  0  0  0  0  0  0  0  0  0
  143.8200   72.4530  218.8270 C   0  0  0  0  0  0  0  0  0  0  0  0
  142.1280   74.8760  220.9120 N   0  0  0  0  0  0  0  0  0  0  0  0
  140.9720   75.1480  221.5600 C   0  0  0  0  0  0  0  0  0  0  0  0
  140.5490   76.4770  221.8430 N   0  0  0  0  0  0  0  0  0  0  0  0
  139.3840   76.6820  222.7120 C   0  0  0  0  0  0  0  0  0  0  0  0
  138.8390   78.0600  222.3290 C   0  0  0  0  0  0  0  0  0  0  0  0
  139.9120   79.0150  222.7320 C   0  0  0  0  0  0  0  0  0  0  0  0
  139.6930   80.0720  223.5880 C   0  0  0  0  0  0  0  0  0  0  0  0
  140.7740   80.8930  223.8880 C   0  0  0  0  0  0  0  0  0  0  0  0
  142.0120   80.6360  223.3340 C   0  0  0  0  0  0  0  0  0  0  0  0
  142.2450   79.5830  222.4770 C   0  0  0  0  0  0  0  0  0  0  0  0
  141.1730   78.7670  222.1790 C   0  0  0  0  0  0  0  0  0  0  0  0
  141.2660   77.5970  221.2750 C   0  0  0  0  0  0  0  0  0  0  0  0
  140.2220   74.0960  221.9350 N   0  0  0  0  0  0  0  0  0  0  0  0
  139.8870   69.8930  226.0480 C   0  0  0  0  0  0  0  0  0  0  0  0
  139.7120   69.5500  227.3820 C   0  0  0  0  0  0  0  0  0  0  0  0
  140.1136   70.1319  229.3892 H   0  0  0  0  0  0  0  0  0  0  0  0
  141.3500   72.1887  228.7842 H   0  0  0  0  0  0  0  0  0  0  0  0
  141.6272   72.7487  226.3976 H   0  0  0  0  0  0  0  0  0  0  0  0
  141.3300   72.3926  224.2508 H   0  0  0  0  0  0  0  0  0  0  0  0
  141.3558   70.6468  223.7649 H   0  0  0  0  0  0  0  0  0  0  0  0
  138.8248   70.7244  223.6641 H   0  0  0  0  0  0  0  0  0  0  0  0
  138.9068   72.4871  223.9099 H   0  0  0  0  0  0  0  0  0  0  0  0
  139.3790   71.1580  221.3650 H   0  0  0  0  0  0  0  0  0  0  0  0
  145.3981   74.6099  219.5404 H   0  0  0  0  0  0  0  0  0  0  0  0
  144.8385   74.6407  221.2308 H   0  0  0  0  0  0  0  0  0  0  0  0
  146.9860   73.3092  220.7708 H   0  0  0  0  0  0  0  0  0  0  0  0
  145.6592   72.4240  221.6391 H   0  0  0  0  0  0  0  0  0  0  0  0
  145.7392   73.1573  218.1514 H   0  0  0  0  0  0  0  0  0  0  0  0
  145.4088   71.4041  217.8397 H   0  0  0  0  0  0  0  0  0  0  0  0
  143.3303   72.8936  217.9461 H   0  0  0  0  0  0  0  0  0  0  0  0
  143.2961   71.5102  219.0429 H   0  0  0  0  0  0  0  0  0  0  0  0
  138.6272   75.9040  222.5333 H   0  0  0  0  0  0  0  0  0  0  0  0
  139.6497   76.6254  223.7779 H   0  0  0  0  0  0  0  0  0  0  0  0
  138.6549   78.1174  221.2460 H   0  0  0  0  0  0  0  0  0  0  0  0
  137.8793   78.2799  222.8196 H   0  0  0  0  0  0  0  0  0  0  0  0
  138.6984   80.2596  224.0187 H   0  0  0  0  0  0  0  0  0  0  0  0
  140.6428   81.7481  224.5674 H   0  0  0  0  0  0  0  0  0  0  0  0
  142.8499   81.3018  223.5882 H   0  0  0  0  0  0  0  0  0  0  0  0
  143.2418   79.4007  222.0491 H   0  0  0  0  0  0  0  0  0  0  0  0
  140.8271   77.8541  220.2997 H   0  0  0  0  0  0  0  0  0  0  0  0
  142.3233   77.3221  221.1466 H   0  0  0  0  0  0  0  0  0  0  0  0
  139.4717   69.2393  225.2669 H   0  0  0  0  0  0  0  0  0  0  0  0
  139.1666   68.6390  227.6694 H   0  0  0  0  0  0  0  0  0  0  0  0
  1  2  2  0
  2  3  1  0
  3  4  2  0
  4  5  1  0
  5  6  1  0
  6  7  1  0
  7  8  1  0
  8  9  2  0
  9 10  1  0
 10 11  1  0
 11 12  1  0
 12 13  1  0
 13 14  1  0
 14 15  1  0
 15 16  1  0
 10 17  2  0
 17 18  1  0
 18 19  1  0
 19 20  1  0
 20 21  1  0
 21 22  1  0
 22 23  2  0
 23 24  1  0
 24 25  2  0
 25 26  1  0
 26 27  2  0
 27 28  1  0
 18 29  2  0
  4 30  1  0
 30 31  2  0
 31  1  1  0
 29  8  1  0
 16 11  1  0
 28 19  1  0
 27 22  1  0
  1 32  1  0
  2 33  1  0
  3 34  1  0
  5 35  1  0
  5 36  1  0
  6 37  1  0
  6 38  1  0
  7 39  1  0
 12 40  1  0
 12 41  1  0
 13 42  1  0
 13 43  1  0
 15 44  1  0
 15 45  1  0
 16 46  1  0
 16 47  1  0
 20 48  1  0
 20 49  1  0
 21 50  1  0
 21 51  1  0
 23 52  1  0
 24 53  1  0
 25 54  1  0
 26 55  1  0
 28 56  1  0
 28 57  1  0
 30 58  1  0
 31 59  1  0
M  END
>  <smiles>  (23) 
c1ccc(CCNc2nc(N3CCOCC3)nc(N3CCc4ccccc4C3)n2)cc1

>  <score_type>  (23) 
oracle

>  <origin>  (23) 
autodockgpu

>  <m_score__min__energy>  (23) 
-10.06

>  <m_primary>  (23) 
energy

>  <rmsd>  (23) 
10.075707698576087

>  <m_score__min__rmsd>  (23) 
10.075707698576087

>  <meeko>  (23) 
{"free_energy": -9.87, "intermolecular_energy": -11.66, "internal_energy": -0.94, "cluster_size": 49, "cluster_id": 1, "rank_in_cluster": 21}

>  <energy>  (23) 
-9.8

>  <cluster_rmsd>  (23) 
0.89

>  <cluster>  (23) 
1

$$$$

     RDKit          3D

 59 63  0  0  0  0  0  0  0  0999 V2000
  140.6490   68.9060  228.1460 C   0  0  0  0  0  0  0  0  0  0  0  0
  140.8800   70.2530  228.3240 C   0  0  0  0  0  0  0  0  0  0  0  0
  140.8380   71.0560  227.2200 C   0  0  0  0  0  0  0  0  0  0  0  0
  140.5740   70.5600  225.9570 C   0  0  0  0  0  0  0  0  0  0  0  0
  140.5510   71.5110  224.8180 C   0  0  0  0  0  0  0  0  0  0  0  0
  140.0520   70.8410  223.5340 C   0  0  0  0  0  0  0  0  0  0  0  0
  139.5350   71.9000  222.6580 N   0  0  0  0  0  0  0  0  0  0  0  0
  140.4060   72.8420  222.0710 C   0  0  0  0  0  0  0  0  0  0  0  0
  141.5020   72.4910  221.3480 N   0  0  0  0  0  0  0  0  0  0  0  0
  142.2920   73.4480  220.8140 C   0  0  0  0  0  0  0  0  0  0  0  0
  143.4260   73.0280  220.0670 N   0  0  0  0  0  0  0  0  0  0  0  0
  144.3940   73.9840  219.6030 C   0  0  0  0  0  0  0  0  0  0  0  0
  145.7390   73.5730  220.1670 C   0  0  0  0  0  0  0  0  0  0  0  0
  145.9780   72.2130  220.0140 O   0  0  0  0  0  0  0  0  0  0  0  0
  145.0710   71.5770  219.1750 C   0  0  0  0  0  0  0  0  0  0  0  0
  143.6540   71.6300  219.7430 C   0  0  0  0  0  0  0  0  0  0  0  0
  141.9650   74.7130  221.0190 N   0  0  0  0  0  0  0  0  0  0  0  0
  140.8860   75.1150  221.7310 C   0  0  0  0  0  0  0  0  0  0  0  0
  140.5690   76.4880  221.9280 N   0  0  0  0  0  0  0  0  0  0  0  0
  139.3580   76.8360  222.6800 C   0  0  0  0  0  0  0  0  0  0  0  0
  138.9830   78.2410  222.2010 C   0  0  0  0  0  0  0  0  0  0  0  0
  140.1020   79.1090  222.6680 C   0  0  0  0  0  0  0  0  0  0  0  0
  139.9110   80.2170  223.4630 C   0  0  0  0  0  0  0  0  0  0  0  0
  141.0350   80.9470  223.8330 C   0  0  0  0  0  0  0  0  0  0  0  0
  142.2860   80.5540  223.4040 C   0  0  0  0  0  0  0  0  0  0  0  0
  142.4920   79.4480  222.6090 C   0  0  0  0  0  0  0  0  0  0  0  0
  141.3770   78.7230  222.2420 C   0  0  0  0  0  0  0  0  0  0  0  0
  141.4370   77.5110  221.3900 C   0  0  0  0  0  0  0  0  0  0  0  0
  140.1100   74.1490  222.2550 N   0  0  0  0  0  0  0  0  0  0  0  0
  140.3500   69.2080  225.8260 C   0  0  0  0  0  0  0  0  0  0  0  0
  140.3830   68.3540  226.9210 C   0  0  0  0  0  0  0  0  0  0  0  0
  140.6796   68.2459  229.0254 H   0  0  0  0  0  0  0  0  0  0  0  0
  141.0910   70.6671  229.3210 H   0  0  0  0  0  0  0  0  0  0  0  0
  141.0204   72.1341  227.3400 H   0  0  0  0  0  0  0  0  0  0  0  0
  139.8831   72.3491  225.0661 H   0  0  0  0  0  0  0  0  0  0  0  0
  141.5779   71.8651  224.6446 H   0  0  0  0  0  0  0  0  0  0  0  0
  140.8808   70.3143  223.0383 H   0  0  0  0  0  0  0  0  0  0  0  0
  139.2656   70.1058  223.7601 H   0  0  0  0  0  0  0  0  0  0  0  0
  138.5180   71.9930  222.4400 H   0  0  0  0  0  0  0  0  0  0  0  0
  144.4297   73.9803  218.5036 H   0  0  0  0  0  0  0  0  0  0  0  0
  144.1274   74.9993  219.9319 H   0  0  0  0  0  0  0  0  0  0  0  0
  146.5285   74.1326  219.6441 H   0  0  0  0  0  0  0  0  0  0  0  0
  145.7366   73.7967  221.2440 H   0  0  0  0  0  0  0  0  0  0  0  0
  145.0820   72.0740  218.1937 H   0  0  0  0  0  0  0  0  0  0  0  0
  145.3671   70.5217  219.0816 H   0  0  0  0  0  0  0  0  0  0  0  0
  142.9254   71.2834  218.9953 H   0  0  0  0  0  0  0  0  0  0  0  0
  143.5389   70.9798  220.6228 H   0  0  0  0  0  0  0  0  0  0  0  0
  138.5488   76.1240  222.4604 H   0  0  0  0  0  0  0  0  0  0  0  0
  139.5227   76.8007  223.7670 H   0  0  0  0  0  0  0  0  0  0  0  0
  138.9018   78.2686  221.1044 H   0  0  0  0  0  0  0  0  0  0  0  0
  138.0090   78.5692  222.5930 H   0  0  0  0  0  0  0  0  0  0  0  0
  138.9048   80.5141  223.7936 H   0  0  0  0  0  0  0  0  0  0  0  0
  140.9268   81.8385  224.4682 H   0  0  0  0  0  0  0  0  0  0  0  0
  143.1579   81.1505  223.7105 H   0  0  0  0  0  0  0  0  0  0  0  0
  143.5006   79.1559  222.2813 H   0  0  0  0  0  0  0  0  0  0  0  0
  141.1123   77.7656  220.3703 H   0  0  0  0  0  0  0  0  0  0  0  0
  142.4703   77.1345  221.3681 H   0  0  0  0  0  0  0  0  0  0  0  0
  140.1396   68.7936  224.8290 H   0  0  0  0  0  0  0  0  0  0  0  0
  140.2023   67.2748  226.8086 H   0  0  0  0  0  0  0  0  0  0  0  0
  1  2  2  0
  2  3  1  0
  3  4  2  0
  4  5  1  0
  5  6  1  0
  6  7  1  0
  7  8  1  0
  8  9  2  0
  9 10  1  0
 10 11  1  0
 11 12  1  0
 12 13  1  0
 13 14  1  0
 14 15  1  0
 15 16  1  0
 10 17  2  0
 17 18  1  0
 18 19  1  0
 19 20  1  0
 20 21  1  0
 21 22  1  0
 22 23  2  0
 23 24  1  0
 24 25  2  0
 25 26  1  0
 26 27  2  0
 27 28  1  0
 18 29  2  0
  4 30  1  0
 30 31  2  0
 31  1  1  0
 29  8  1  0
 16 11  1  0
 28 19  1  0
 27 22  1  0
  1 32  1  0
  2 33  1  0
  3 34  1  0
  5 35  1  0
  5 36  1  0
  6 37  1  0
  6 38  1  0
  7 39  1  0
 12 40  1  0
 12 41  1  0
 13 42  1  0
 13 43  1  0
 15 44  1  0
 15 45  1  0
 16 46  1  0
 16 47  1  0
 20 48  1  0
 20 49  1  0
 21 50  1  0
 21 51  1  0
 23 52  1  0
 24 53  1  0
 25 54  1  0
 26 55  1  0
 28 56  1  0
 28 57  1  0
 30 58  1  0
 31 59  1  0
M  END
>  <smiles>  (24) 
c1ccc(CCNc2nc(N3CCOCC3)nc(N3CCc4ccccc4C3)n2)cc1

>  <score_type>  (24) 
oracle

>  <origin>  (24) 
autodockgpu

>  <m_score__min__energy>  (24) 
-10.06

>  <m_primary>  (24) 
energy

>  <rmsd>  (24) 
10.138802543121342

>  <m_score__min__rmsd>  (24) 
10.138802543121342

>  <meeko>  (24) 
{"free_energy": -9.94, "intermolecular_energy": -11.73, "internal_energy": -0.88, "cluster_size": 49, "cluster_id": 1, "rank_in_cluster": 16}

>  <energy>  (24) 
-9.79

>  <cluster_rmsd>  (24) 
0.85

>  <cluster>  (24) 
1

$$$$

     RDKit          3D

 59 63  0  0  0  0  0  0  0  0999 V2000
  140.7270   68.5410  227.9520 C   0  0  0  0  0  0  0  0  0  0  0  0
  140.3830   68.2100  226.6590 C   0  0  0  0  0  0  0  0  0  0  0  0
  140.3770   69.2090  225.7270 C   0  0  0  0  0  0  0  0  0  0  0  0
  140.7020   70.5140  226.0430 C   0  0  0  0  0  0  0  0  0  0  0  0
  140.6660   71.5300  224.9630 C   0  0  0  0  0  0  0  0  0  0  0  0
  139.4910   71.2980  224.0090 C   0  0  0  0  0  0  0  0  0  0  0  0
  140.0450   71.1410  222.6580 N   0  0  0  0  0  0  0  0  0  0  0  0
  140.7660   72.1880  222.0460 C   0  0  0  0  0  0  0  0  0  0  0  0
  141.8790   71.9830  221.2940 N   0  0  0  0  0  0  0  0  0  0  0  0
  142.5200   73.0350  220.7380 C   0  0  0  0  0  0  0  0  0  0  0  0
  143.6790   72.7670  219.9610 N   0  0  0  0  0  0  0  0  0  0  0  0
  144.6120   73.8150  219.6490 C   0  0  0  0  0  0  0  0  0  0  0  0
  145.9660   73.3850  220.1760 C   0  0  0  0  0  0  0  0  0  0  0  0
  146.2640   72.0690  219.8430 O   0  0  0  0  0  0  0  0  0  0  0  0
  145.3940   71.5180  218.9090 C   0  0  0  0  0  0  0  0  0  0  0  0
  143.9690   71.4370  219.4530 C   0  0  0  0  0  0  0  0  0  0  0  0
  142.0320   74.2460  220.9490 N   0  0  0  0  0  0  0  0  0  0  0  0
  140.9280   74.5030  221.6900 C   0  0  0  0  0  0  0  0  0  0  0  0
  140.4350   75.8220  221.8940 N   0  0  0  0  0  0  0  0  0  0  0  0
  139.1780   76.0040  222.6270 C   0  0  0  0  0  0  0  0  0  0  0  0
  138.6340   77.3560  222.1550 C   0  0  0  0  0  0  0  0  0  0  0  0
  139.6250   78.3540  222.6490 C   0  0  0  0  0  0  0  0  0  0  0  0
  139.2820   79.4200  223.4500 C   0  0  0  0  0  0  0  0  0  0  0  0
  140.2980   80.2830  223.8460 C   0  0  0  0  0  0  0  0  0  0  0  0
  141.5960   80.0570  223.4350 C   0  0  0  0  0  0  0  0  0  0  0  0
  141.9540   78.9960  222.6340 C   0  0  0  0  0  0  0  0  0  0  0  0
  140.9470   78.1380  222.2410 C   0  0  0  0  0  0  0  0  0  0  0  0
  141.1740   76.9540  221.3800 C   0  0  0  0  0  0  0  0  0  0  0  0
  140.3030   73.4450  222.2360 N   0  0  0  0  0  0  0  0  0  0  0  0
  141.0390   70.8000  227.3480 C   0  0  0  0  0  0  0  0  0  0  0  0
  141.0590   69.8160  228.3280 C   0  0  0  0  0  0  0  0  0  0  0  0
  140.7354   67.7480  228.7143 H   0  0  0  0  0  0  0  0  0  0  0  0
  140.1221   67.1766  226.3867 H   0  0  0  0  0  0  0  0  0  0  0  0
  140.1040   68.9659  224.6895 H   0  0  0  0  0  0  0  0  0  0  0  0
  140.5670   72.5279  225.4150 H   0  0  0  0  0  0  0  0  0  0  0  0
  141.5987   71.4508  224.3853 H   0  0  0  0  0  0  0  0  0  0  0  0
  138.9452   70.3882  224.2994 H   0  0  0  0  0  0  0  0  0  0  0  0
  138.7895   72.1445  224.0446 H   0  0  0  0  0  0  0  0  0  0  0  0
  139.9270   70.2600  222.1090 H   0  0  0  0  0  0  0  0  0  0  0  0
  144.6616   73.9629  218.5601 H   0  0  0  0  0  0  0  0  0  0  0  0
  144.2991   74.7643  220.1083 H   0  0  0  0  0  0  0  0  0  0  0  0
  146.7377   74.0422  219.7487 H   0  0  0  0  0  0  0  0  0  0  0  0
  145.9409   73.4588  221.2732 H   0  0  0  0  0  0  0  0  0  0  0  0
  145.3966   72.1443  218.0047 H   0  0  0  0  0  0  0  0  0  0  0  0
  145.7347   70.4977  218.6789 H   0  0  0  0  0  0  0  0  0  0  0  0
  143.2649   71.1681  218.6518 H   0  0  0  0  0  0  0  0  0  0  0  0
  143.8699   70.6682  220.2335 H   0  0  0  0  0  0  0  0  0  0  0  0
  138.4700   75.1973  222.3861 H   0  0  0  0  0  0  0  0  0  0  0  0
  139.3282   75.9773  223.7164 H   0  0  0  0  0  0  0  0  0  0  0  0
  138.5672   77.3858  221.0574 H   0  0  0  0  0  0  0  0  0  0  0  0
  137.6201   77.5526  222.5337 H   0  0  0  0  0  0  0  0  0  0  0  0
  138.2410   79.5833  223.7656 H   0  0  0  0  0  0  0  0  0  0  0  0
  140.0670   81.1464  224.4873 H   0  0  0  0  0  0  0  0  0  0  0  0
  142.3798   80.7561  223.7621 H   0  0  0  0  0  0  0  0  0  0  0  0
  142.9968   78.8391  222.3210 H   0  0  0  0  0  0  0  0  0  0  0  0
  140.8354   77.1765  220.3573 H   0  0  0  0  0  0  0  0  0  0  0  0
  142.2471   76.7124  221.3724 H   0  0  0  0  0  0  0  0  0  0  0  0
  141.2987   71.8336  227.6206 H   0  0  0  0  0  0  0  0  0  0  0  0
  141.3313   70.0516  229.3674 H   0  0  0  0  0  0  0  0  0  0  0  0
  1  2  2  0
  2  3  1  0
  3  4  2  0
  4  5  1  0
  5  6  1  0
  6  7  1  0
  7  8  1  0
  8  9  2  0
  9 10  1  0
 10 11  1  0
 11 12  1  0
 12 13  1  0
 13 14  1  0
 14 15  1  0
 15 16  1  0
 10 17  2  0
 17 18  1  0
 18 19  1  0
 19 20  1  0
 20 21  1  0
 21 22  1  0
 22 23  2  0
 23 24  1  0
 24 25  2  0
 25 26  1  0
 26 27  2  0
 27 28  1  0
 18 29  2  0
  4 30  1  0
 30 31  2  0
 31  1  1  0
 29  8  1  0
 16 11  1  0
 28 19  1  0
 27 22  1  0
  1 32  1  0
  2 33  1  0
  3 34  1  0
  5 35  1  0
  5 36  1  0
  6 37  1  0
  6 38  1  0
  7 39  1  0
 12 40  1  0
 12 41  1  0
 13 42  1  0
 13 43  1  0
 15 44  1  0
 15 45  1  0
 16 46  1  0
 16 47  1  0
 20 48  1  0
 20 49  1  0
 21 50  1  0
 21 51  1  0
 23 52  1  0
 24 53  1  0
 25 54  1  0
 26 55  1  0
 28 56  1  0
 28 57  1  0
 30 58  1  0
 31 59  1  0
M  END
>  <smiles>  (25) 
c1ccc(CCNc2nc(N3CCOCC3)nc(N3CCc4ccccc4C3)n2)cc1

>  <score_type>  (25) 
oracle

>  <origin>  (25) 
autodockgpu

>  <m_score__min__energy>  (25) 
-10.06

>  <m_primary>  (25) 
energy

>  <rmsd>  (25) 
9.55310798465868

>  <m_score__min__rmsd>  (25) 
9.55310798465868

>  <meeko>  (25) 
{"free_energy": -9.7, "intermolecular_energy": -11.49, "internal_energy": -0.95, "cluster_size": 49, "cluster_id": 1, "rank_in_cluster": 30}

>  <energy>  (25) 
-9.77

>  <cluster_rmsd>  (25) 
1.01

>  <cluster>  (25) 
1

$$$$

     RDKit          3D

 59 63  0  0  0  0  0  0  0  0999 V2000
  140.0740   69.0620  227.9910 C   0  0  0  0  0  0  0  0  0  0  0  0
  139.8550   68.5370  226.7350 C   0  0  0  0  0  0  0  0  0  0  0  0
  140.0380   69.3610  225.6610 C   0  0  0  0  0  0  0  0  0  0  0  0
  140.4290   70.6790  225.8020 C   0  0  0  0  0  0  0  0  0  0  0  0
  140.6000   71.4970  224.5750 C   0  0  0  0  0  0  0  0  0  0  0  0
  139.3670   71.4200  223.6690 C   0  0  0  0  0  0  0  0  0  0  0  0
  139.8380   71.4800  222.2800 N   0  0  0  0  0  0  0  0  0  0  0  0
  140.7310   72.4900  221.8620 C   0  0  0  0  0  0  0  0  0  0  0  0
  141.9700   72.2290  221.3690 N   0  0  0  0  0  0  0  0  0  0  0  0
  142.7720   73.2480  220.9880 C   0  0  0  0  0  0  0  0  0  0  0  0
  144.0580   72.9220  220.4790 N   0  0  0  0  0  0  0  0  0  0  0  0
  144.2670   71.7120  219.7320 C   0  0  0  0  0  0  0  0  0  0  0  0
  144.8230   72.1070  218.3800 C   0  0  0  0  0  0  0  0  0  0  0  0
  145.8460   73.0410  218.4860 O   0  0  0  0  0  0  0  0  0  0  0  0
  146.3020   73.2250  219.7860 C   0  0  0  0  0  0  0  0  0  0  0  0
  145.2060   73.7880  220.6880 C   0  0  0  0  0  0  0  0  0  0  0  0
  142.3140   74.4830  221.1110 N   0  0  0  0  0  0  0  0  0  0  0  0
  141.0900   74.7950  221.5960 C   0  0  0  0  0  0  0  0  0  0  0  0
  140.6340   76.1380  221.7140 N   0  0  0  0  0  0  0  0  0  0  0  0
  139.3450   76.3960  222.3660 C   0  0  0  0  0  0  0  0  0  0  0  0
  138.8770   77.7420  221.8050 C   0  0  0  0  0  0  0  0  0  0  0  0
  139.8760   78.7280  222.3090 C   0  0  0  0  0  0  0  0  0  0  0  0
  139.5280   79.8410  223.0420 C   0  0  0  0  0  0  0  0  0  0  0  0
  140.5500   80.6870  223.4560 C   0  0  0  0  0  0  0  0  0  0  0  0
  141.8600   80.3990  223.1290 C   0  0  0  0  0  0  0  0  0  0  0  0
  142.2230   79.2900  222.3970 C   0  0  0  0  0  0  0  0  0  0  0  0
  141.2090   78.4500  221.9870 C   0  0  0  0  0  0  0  0  0  0  0  0
  141.4410   77.2200  221.1930 C   0  0  0  0  0  0  0  0  0  0  0  0
  140.3040   73.7700  221.9710 N   0  0  0  0  0  0  0  0  0  0  0  0
  140.6360   71.1610  227.0750 C   0  0  0  0  0  0  0  0  0  0  0  0
  140.4620   70.3590  228.1950 C   0  0  0  0  0  0  0  0  0  0  0  0
  139.9309   68.4112  228.8662 H   0  0  0  0  0  0  0  0  0  0  0  0
  139.5435   67.4904  226.6024 H   0  0  0  0  0  0  0  0  0  0  0  0
  139.8684   68.9621  224.6500 H   0  0  0  0  0  0  0  0  0  0  0  0
  140.7649   72.5452  224.8650 H   0  0  0  0  0  0  0  0  0  0  0  0
  141.4621   71.1033  224.0166 H   0  0  0  0  0  0  0  0  0  0  0  0
  138.8306   70.4756  223.8436 H   0  0  0  0  0  0  0  0  0  0  0  0
  138.6769   72.2499  223.8811 H   0  0  0  0  0  0  0  0  0  0  0  0
  139.5350   70.7870  221.5600 H   0  0  0  0  0  0  0  0  0  0  0  0
  144.9829   71.0636  220.2584 H   0  0  0  0  0  0  0  0  0  0  0  0
  143.3240   71.1573  219.6180 H   0  0  0  0  0  0  0  0  0  0  0  0
  145.2144   71.2079  217.8815 H   0  0  0  0  0  0  0  0  0  0  0  0
  144.0076   72.5635  217.7997 H   0  0  0  0  0  0  0  0  0  0  0  0
  146.6344   72.2569  220.1888 H   0  0  0  0  0  0  0  0  0  0  0  0
  147.1334   73.9448  219.7619 H   0  0  0  0  0  0  0  0  0  0  0  0
  145.5221   73.7620  221.7413 H   0  0  0  0  0  0  0  0  0  0  0  0
  144.9776   74.8376  220.4512 H   0  0  0  0  0  0  0  0  0  0  0  0
  138.6227   75.6033  222.1211 H   0  0  0  0  0  0  0  0  0  0  0  0
  139.4338   76.4147  223.4622 H   0  0  0  0  0  0  0  0  0  0  0  0
  138.8708   77.7232  220.7052 H   0  0  0  0  0  0  0  0  0  0  0  0
  137.8519   77.9902  222.1174 H   0  0  0  0  0  0  0  0  0  0  0  0
  138.4777   80.0529  223.2911 H   0  0  0  0  0  0  0  0  0  0  0  0
  140.3151   81.5863  224.0443 H   0  0  0  0  0  0  0  0  0  0  0  0
  142.6493   81.0860  223.4682 H   0  0  0  0  0  0  0  0  0  0  0  0
  143.2750   79.0836  222.1504 H   0  0  0  0  0  0  0  0  0  0  0  0
  141.1679   77.4062  220.1438 H   0  0  0  0  0  0  0  0  0  0  0  0
  142.5035   76.9426  221.2570 H   0  0  0  0  0  0  0  0  0  0  0  0
  140.9470   72.2077  227.2081 H   0  0  0  0  0  0  0  0  0  0  0  0
  140.6297   70.7513  229.2089 H   0  0  0  0  0  0  0  0  0  0  0  0
  1  2  2  0
  2  3  1  0
  3  4  2  0
  4  5  1  0
  5  6  1  0
  6  7  1  0
  7  8  1  0
  8  9  2  0
  9 10  1  0
 10 11  1  0
 11 12  1  0
 12 13  1  0
 13 14  1  0
 14 15  1  0
 15 16  1  0
 10 17  2  0
 17 18  1  0
 18 19  1  0
 19 20  1  0
 20 21  1  0
 21 22  1  0
 22 23  2  0
 23 24  1  0
 24 25  2  0
 25 26  1  0
 26 27  2  0
 27 28  1  0
 18 29  2  0
  4 30  1  0
 30 31  2  0
 31  1  1  0
 29  8  1  0
 16 11  1  0
 28 19  1  0
 27 22  1  0
  1 32  1  0
  2 33  1  0
  3 34  1  0
  5 35  1  0
  5 36  1  0
  6 37  1  0
  6 38  1  0
  7 39  1  0
 12 40  1  0
 12 41  1  0
 13 42  1  0
 13 43  1  0
 15 44  1  0
 15 45  1  0
 16 46  1  0
 16 47  1  0
 20 48  1  0
 20 49  1  0
 21 50  1  0
 21 51  1  0
 23 52  1  0
 24 53  1  0
 25 54  1  0
 26 55  1  0
 28 56  1  0
 28 57  1  0
 30 58  1  0
 31 59  1  0
M  END
>  <smiles>  (26) 
c1ccc(CCNc2nc(N3CCOCC3)nc(N3CCc4ccccc4C3)n2)cc1

>  <score_type>  (26) 
oracle

>  <origin>  (26) 
autodockgpu

>  <m_score__min__energy>  (26) 
-10.06

>  <m_primary>  (26) 
energy

>  <rmsd>  (26) 
9.955081759651137

>  <m_score__min__rmsd>  (26) 
9.955081759651137

>  <meeko>  (26) 
{"free_energy": -9.77, "intermolecular_energy": -11.56, "internal_energy": -0.94, "cluster_size": 49, "cluster_id": 1, "rank_in_cluster": 25}

>  <energy>  (26) 
-9.74

>  <cluster_rmsd>  (26) 
0.94

>  <cluster>  (26) 
1

$$$$

     RDKit          3D

 59 63  0  0  0  0  0  0  0  0999 V2000
  140.7200   70.2310  228.2750 C   0  0  0  0  0  0  0  0  0  0  0  0
  141.1110   71.5140  227.9590 C   0  0  0  0  0  0  0  0  0  0  0  0
  141.0630   71.8890  226.6460 C   0  0  0  0  0  0  0  0  0  0  0  0
  140.6390   71.0300  225.6500 C   0  0  0  0  0  0  0  0  0  0  0  0
  140.6220   71.5260  224.2520 C   0  0  0  0  0  0  0  0  0  0  0  0
  139.3770   71.0500  223.4990 C   0  0  0  0  0  0  0  0  0  0  0  0
  139.4020   71.6720  222.1690 N   0  0  0  0  0  0  0  0  0  0  0  0
  140.3930   72.6180  221.8320 C   0  0  0  0  0  0  0  0  0  0  0  0
  141.6350   72.2720  221.4000 N   0  0  0  0  0  0  0  0  0  0  0  0
  142.5350   73.2340  221.0960 C   0  0  0  0  0  0  0  0  0  0  0  0
  143.8180   72.8190  220.6490 N   0  0  0  0  0  0  0  0  0  0  0  0
  143.9990   71.5390  220.0220 C   0  0  0  0  0  0  0  0  0  0  0  0
  144.5960   71.7870  218.6520 C   0  0  0  0  0  0  0  0  0  0  0  0
  145.6480   72.6930  218.6960 O   0  0  0  0  0  0  0  0  0  0  0  0
  146.0850   72.9820  219.9830 C   0  0  0  0  0  0  0  0  0  0  0  0
  144.9910   73.6630  220.8030 C   0  0  0  0  0  0  0  0  0  0  0  0
  142.1680   74.4970  221.2310 N   0  0  0  0  0  0  0  0  0  0  0  0
  140.9460   74.8930  221.6570 C   0  0  0  0  0  0  0  0  0  0  0  0
  140.5910   76.2650  221.7890 N   0  0  0  0  0  0  0  0  0  0  0  0
  139.3450   76.6120  222.4840 C   0  0  0  0  0  0  0  0  0  0  0  0
  138.9560   77.9890  221.9380 C   0  0  0  0  0  0  0  0  0  0  0  0
  140.0380   78.9000  222.4100 C   0  0  0  0  0  0  0  0  0  0  0  0
  139.7940   80.0330  223.1550 C   0  0  0  0  0  0  0  0  0  0  0  0
  140.8860   80.8030  223.5350 C   0  0  0  0  0  0  0  0  0  0  0  0
  142.1610   80.4240  223.1660 C   0  0  0  0  0  0  0  0  0  0  0  0
  142.4210   79.2940  222.4220 C   0  0  0  0  0  0  0  0  0  0  0  0
  141.3360   78.5290  222.0450 C   0  0  0  0  0  0  0  0  0  0  0  0
  141.4540   77.2880  221.2430 C   0  0  0  0  0  0  0  0  0  0  0  0
  140.0620   73.9240  221.9560 N   0  0  0  0  0  0  0  0  0  0  0  0
  140.2580   69.7560  226.0110 C   0  0  0  0  0  0  0  0  0  0  0  0
  140.2910   69.3330  227.3330 C   0  0  0  0  0  0  0  0  0  0  0  0
  140.7537   69.9143  229.3279 H   0  0  0  0  0  0  0  0  0  0  0  0
  141.4504   72.2129  228.7377 H   0  0  0  0  0  0  0  0  0  0  0  0
  141.3722   72.9087  226.3726 H   0  0  0  0  0  0  0  0  0  0  0  0
  140.6332   72.6259  224.2635 H   0  0  0  0  0  0  0  0  0  0  0  0
  141.5085   71.1289  223.7358 H   0  0  0  0  0  0  0  0  0  0  0  0
  139.3927   69.9544  223.4018 H   0  0  0  0  0  0  0  0  0  0  0  0
  138.4633   71.3329  224.0423 H   0  0  0  0  0  0  0  0  0  0  0  0
  138.6970   71.4400  221.4340 H   0  0  0  0  0  0  0  0  0  0  0  0
  144.6807   70.9189  220.6227 H   0  0  0  0  0  0  0  0  0  0  0  0
  143.0392   71.0083  219.9375 H   0  0  0  0  0  0  0  0  0  0  0  0
  144.9663   70.8330  218.2486 H   0  0  0  0  0  0  0  0  0  0  0  0
  143.8092   72.2128  218.0120 H   0  0  0  0  0  0  0  0  0  0  0  0
  146.3751   72.0452  220.4813 H   0  0  0  0  0  0  0  0  0  0  0  0
  146.9421   73.6678  219.9119 H   0  0  0  0  0  0  0  0  0  0  0  0
  145.2847   73.7258  221.8612 H   0  0  0  0  0  0  0  0  0  0  0  0
  144.8039   74.6926  220.4640 H   0  0  0  0  0  0  0  0  0  0  0  0
  138.5606   75.8730  222.2633 H   0  0  0  0  0  0  0  0  0  0  0  0
  139.4706   76.6216  223.5768 H   0  0  0  0  0  0  0  0  0  0  0  0
  138.9136   77.9732  220.8389 H   0  0  0  0  0  0  0  0  0  0  0  0
  137.9615   78.3087  222.2826 H   0  0  0  0  0  0  0  0  0  0  0  0
  138.7702   80.3179  223.4390 H   0  0  0  0  0  0  0  0  0  0  0  0
  140.7345   81.7154  224.1304 H   0  0  0  0  0  0  0  0  0  0  0  0
  143.0074   81.0524  223.4801 H   0  0  0  0  0  0  0  0  0  0  0  0
  143.4471   79.0142  222.1411 H   0  0  0  0  0  0  0  0  0  0  0  0
  141.1603   77.4962  220.2036 H   0  0  0  0  0  0  0  0  0  0  0  0
  142.4958   76.9360  221.2719 H   0  0  0  0  0  0  0  0  0  0  0  0
  139.9192   69.0566  225.2324 H   0  0  0  0  0  0  0  0  0  0  0  0
  139.9841   68.3147  227.6138 H   0  0  0  0  0  0  0  0  0  0  0  0
  1  2  2  0
  2  3  1  0
  3  4  2  0
  4  5  1  0
  5  6  1  0
  6  7  1  0
  7  8  1  0
  8  9  2  0
  9 10  1  0
 10 11  1  0
 11 12  1  0
 12 13  1  0
 13 14  1  0
 14 15  1  0
 15 16  1  0
 10 17  2  0
 17 18  1  0
 18 19  1  0
 19 20  1  0
 20 21  1  0
 21 22  1  0
 22 23  2  0
 23 24  1  0
 24 25  2  0
 25 26  1  0
 26 27  2  0
 27 28  1  0
 18 29  2  0
  4 30  1  0
 30 31  2  0
 31  1  1  0
 29  8  1  0
 16 11  1  0
 28 19  1  0
 27 22  1  0
  1 32  1  0
  2 33  1  0
  3 34  1  0
  5 35  1  0
  5 36  1  0
  6 37  1  0
  6 38  1  0
  7 39  1  0
 12 40  1  0
 12 41  1  0
 13 42  1  0
 13 43  1  0
 15 44  1  0
 15 45  1  0
 16 46  1  0
 16 47  1  0
 20 48  1  0
 20 49  1  0
 21 50  1  0
 21 51  1  0
 23 52  1  0
 24 53  1  0
 25 54  1  0
 26 55  1  0
 28 56  1  0
 28 57  1  0
 30 58  1  0
 31 59  1  0
M  END
>  <smiles>  (27) 
c1ccc(CCNc2nc(N3CCOCC3)nc(N3CCc4ccccc4C3)n2)cc1

>  <score_type>  (27) 
oracle

>  <origin>  (27) 
autodockgpu

>  <m_score__min__energy>  (27) 
-10.06

>  <m_primary>  (27) 
energy

>  <rmsd>  (27) 
10.040179702330757

>  <m_score__min__rmsd>  (27) 
10.040179702330757

>  <meeko>  (27) 
{"free_energy": -10.03, "intermolecular_energy": -11.82, "internal_energy": -0.99, "cluster_size": 49, "cluster_id": 1, "rank_in_cluster": 4}

>  <energy>  (27) 
-9.72

>  <cluster_rmsd>  (27) 
1.27

>  <cluster>  (27) 
1

$$$$

     RDKit          3D

 59 63  0  0  0  0  0  0  0  0999 V2000
  140.1500   70.3040  228.3440 C   0  0  0  0  0  0  0  0  0  0  0  0
  139.7140   69.4860  227.3240 C   0  0  0  0  0  0  0  0  0  0  0  0
  139.9020   69.9150  226.0410 C   0  0  0  0  0  0  0  0  0  0  0  0
  140.5070   71.1230  225.7480 C   0  0  0  0  0  0  0  0  0  0  0  0
  140.6660   71.5040  224.3230 C   0  0  0  0  0  0  0  0  0  0  0  0
  139.3360   71.4350  223.5680 C   0  0  0  0  0  0  0  0  0  0  0  0
  139.6140   71.7340  222.1580 N   0  0  0  0  0  0  0  0  0  0  0  0
  140.5660   72.7120  221.8010 C   0  0  0  0  0  0  0  0  0  0  0  0
  141.8120   72.4060  221.3500 N   0  0  0  0  0  0  0  0  0  0  0  0
  142.6730   73.3960  221.0260 C   0  0  0  0  0  0  0  0  0  0  0  0
  143.9630   73.0240  220.5610 N   0  0  0  0  0  0  0  0  0  0  0  0
  144.1590   71.7910  219.8480 C   0  0  0  0  0  0  0  0  0  0  0  0
  144.7620   72.1370  218.5030 C   0  0  0  0  0  0  0  0  0  0  0  0
  145.8060   73.0470  218.6150 O   0  0  0  0  0  0  0  0  0  0  0  0
  146.2320   73.2490  219.9230 C   0  0  0  0  0  0  0  0  0  0  0  0
  145.1280   73.8630  220.7810 C   0  0  0  0  0  0  0  0  0  0  0  0
  142.2650   74.6470  221.1610 N   0  0  0  0  0  0  0  0  0  0  0  0
  141.0370   75.0040  221.6050 C   0  0  0  0  0  0  0  0  0  0  0  0
  140.6380   76.3630  221.7370 N   0  0  0  0  0  0  0  0  0  0  0  0
  139.3890   76.6700  222.4450 C   0  0  0  0  0  0  0  0  0  0  0  0
  138.9470   78.0310  221.8990 C   0  0  0  0  0  0  0  0  0  0  0  0
  140.0030   78.9800  222.3540 C   0  0  0  0  0  0  0  0  0  0  0  0
  139.7290   80.1080  223.0970 C   0  0  0  0  0  0  0  0  0  0  0  0
  140.7990   80.9160  223.4620 C   0  0  0  0  0  0  0  0  0  0  0  0
  142.0820   80.5780  223.0790 C   0  0  0  0  0  0  0  0  0  0  0  0
  142.3710   79.4550  222.3360 C   0  0  0  0  0  0  0  0  0  0  0  0
  141.3090   78.6520  221.9740 C   0  0  0  0  0  0  0  0  0  0  0  0
  141.4590   77.4120  221.1760 C   0  0  0  0  0  0  0  0  0  0  0  0
  140.1930   74.0060  221.9240 N   0  0  0  0  0  0  0  0  0  0  0  0
  140.9260   71.9090  226.7990 C   0  0  0  0  0  0  0  0  0  0  0  0
  140.7550   71.5120  228.1190 C   0  0  0  0  0  0  0  0  0  0  0  0
  140.0059   69.9726  229.3829 H   0  0  0  0  0  0  0  0  0  0  0  0
  139.2311   68.5206  227.5360 H   0  0  0  0  0  0  0  0  0  0  0  0
  139.5602   69.2774  225.2124 H   0  0  0  0  0  0  0  0  0  0  0  0
  141.0535   72.5321  224.2697 H   0  0  0  0  0  0  0  0  0  0  0  0
  141.3644   70.7954  223.8539 H   0  0  0  0  0  0  0  0  0  0  0  0
  138.9034   70.4279  223.6603 H   0  0  0  0  0  0  0  0  0  0  0  0
  138.6167   72.1564  223.9829 H   0  0  0  0  0  0  0  0  0  0  0  0
  139.1240   71.2400  221.3790 H   0  0  0  0  0  0  0  0  0  0  0  0
  144.8422   71.1366  220.4092 H   0  0  0  0  0  0  0  0  0  0  0  0
  143.2042   71.2599  219.7206 H   0  0  0  0  0  0  0  0  0  0  0  0
  145.1432   71.2159  218.0380 H   0  0  0  0  0  0  0  0  0  0  0  0
  143.9752   72.5992  217.8887 H   0  0  0  0  0  0  0  0  0  0  0  0
  146.5261   72.2819  220.3568 H   0  0  0  0  0  0  0  0  0  0  0  0
  147.0838   73.9448  219.9057 H   0  0  0  0  0  0  0  0  0  0  0  0
  145.4148   73.8539  221.8429 H   0  0  0  0  0  0  0  0  0  0  0  0
  144.9352   74.9124  220.5133 H   0  0  0  0  0  0  0  0  0  0  0  0
  138.6278   75.9039  222.2358 H   0  0  0  0  0  0  0  0  0  0  0  0
  139.5267   76.6879  223.5362 H   0  0  0  0  0  0  0  0  0  0  0  0
  138.8916   78.0093  220.8006 H   0  0  0  0  0  0  0  0  0  0  0  0
  137.9466   78.3183  222.2550 H   0  0  0  0  0  0  0  0  0  0  0  0
  138.6993   80.3599  223.3908 H   0  0  0  0  0  0  0  0  0  0  0  0
  140.6240   81.8250  224.0562 H   0  0  0  0  0  0  0  0  0  0  0  0
  142.9106   81.2354  223.3810 H   0  0  0  0  0  0  0  0  0  0  0  0
  143.4027   79.2092  222.0441 H   0  0  0  0  0  0  0  0  0  0  0  0
  141.1456   77.6053  220.1394 H   0  0  0  0  0  0  0  0  0  0  0  0
  142.5124   77.0956  221.1934 H   0  0  0  0  0  0  0  0  0  0  0  0
  141.4079   72.8749  226.5875 H   0  0  0  0  0  0  0  0  0  0  0  0
  141.0931   72.1445  228.9530 H   0  0  0  0  0  0  0  0  0  0  0  0
  1  2  2  0
  2  3  1  0
  3  4  2  0
  4  5  1  0
  5  6  1  0
  6  7  1  0
  7  8  1  0
  8  9  2  0
  9 10  1  0
 10 11  1  0
 11 12  1  0
 12 13  1  0
 13 14  1  0
 14 15  1  0
 15 16  1  0
 10 17  2  0
 17 18  1  0
 18 19  1  0
 19 20  1  0
 20 21  1  0
 21 22  1  0
 22 23  2  0
 23 24  1  0
 24 25  2  0
 25 26  1  0
 26 27  2  0
 27 28  1  0
 18 29  2  0
  4 30  1  0
 30 31  2  0
 31  1  1  0
 29  8  1  0
 16 11  1  0
 28 19  1  0
 27 22  1  0
  1 32  1  0
  2 33  1  0
  3 34  1  0
  5 35  1  0
  5 36  1  0
  6 37  1  0
  6 38  1  0
  7 39  1  0
 12 40  1  0
 12 41  1  0
 13 42  1  0
 13 43  1  0
 15 44  1  0
 15 45  1  0
 16 46  1  0
 16 47  1  0
 20 48  1  0
 20 49  1  0
 21 50  1  0
 21 51  1  0
 23 52  1  0
 24 53  1  0
 25 54  1  0
 26 55  1  0
 28 56  1  0
 28 57  1  0
 30 58  1  0
 31 59  1  0
M  END
>  <smiles>  (28) 
c1ccc(CCNc2nc(N3CCOCC3)nc(N3CCc4ccccc4C3)n2)cc1

>  <score_type>  (28) 
oracle

>  <origin>  (28) 
autodockgpu

>  <m_score__min__energy>  (28) 
-10.06

>  <m_primary>  (28) 
energy

>  <rmsd>  (28) 
10.138630156518406

>  <m_score__min__rmsd>  (28) 
10.138630156518406

>  <meeko>  (28) 
{"free_energy": -9.99, "intermolecular_energy": -11.78, "internal_energy": -0.97, "cluster_size": 49, "cluster_id": 1, "rank_in_cluster": 10}

>  <energy>  (28) 
-9.72

>  <cluster_rmsd>  (28) 
1.34

>  <cluster>  (28) 
1

$$$$

     RDKit          3D

 59 63  0  0  0  0  0  0  0  0999 V2000
  140.0030   69.1780  228.0780 C   0  0  0  0  0  0  0  0  0  0  0  0
  140.0700   68.5760  226.8400 C   0  0  0  0  0  0  0  0  0  0  0  0
  140.2970   69.3750  225.7550 C   0  0  0  0  0  0  0  0  0  0  0  0
  140.4590   70.7420  225.8690 C   0  0  0  0  0  0  0  0  0  0  0  0
  140.7010   71.5280  224.6330 C   0  0  0  0  0  0  0  0  0  0  0  0
  139.7920   71.0720  223.4880 C   0  0  0  0  0  0  0  0  0  0  0  0
  139.3040   72.2780  222.8070 N   0  0  0  0  0  0  0  0  0  0  0  0
  140.2030   73.1700  222.1840 C   0  0  0  0  0  0  0  0  0  0  0  0
  141.2710   72.7560  221.4520 N   0  0  0  0  0  0  0  0  0  0  0  0
  142.0910   73.6680  220.8830 C   0  0  0  0  0  0  0  0  0  0  0  0
  143.1940   73.1840  220.1280 N   0  0  0  0  0  0  0  0  0  0  0  0
  144.1530   74.0940  219.5640 C   0  0  0  0  0  0  0  0  0  0  0  0
  145.5140   73.7110  220.1080 C   0  0  0  0  0  0  0  0  0  0  0  0
  145.7360   72.3410  220.0450 O   0  0  0  0  0  0  0  0  0  0  0  0
  144.7950   71.6560  219.2860 C   0  0  0  0  0  0  0  0  0  0  0  0
  143.3990   71.7640  219.8970 C   0  0  0  0  0  0  0  0  0  0  0  0
  141.8190   74.9490  221.0620 N   0  0  0  0  0  0  0  0  0  0  0  0
  140.7700   75.4120  221.7800 C   0  0  0  0  0  0  0  0  0  0  0  0
  140.5120   76.8010  221.9490 N   0  0  0  0  0  0  0  0  0  0  0  0
  139.3010   77.2170  222.6660 C   0  0  0  0  0  0  0  0  0  0  0  0
  139.0020   78.6300  222.1580 C   0  0  0  0  0  0  0  0  0  0  0  0
  140.1500   79.4530  222.6380 C   0  0  0  0  0  0  0  0  0  0  0  0
  139.9920   80.5820  223.4110 C   0  0  0  0  0  0  0  0  0  0  0  0
  141.1400   81.2650  223.7960 C   0  0  0  0  0  0  0  0  0  0  0  0
  142.3810   80.8070  223.4030 C   0  0  0  0  0  0  0  0  0  0  0  0
  142.5540   79.6810  222.6300 C   0  0  0  0  0  0  0  0  0  0  0  0
  141.4160   79.0020  222.2480 C   0  0  0  0  0  0  0  0  0  0  0  0
  141.4390   77.7750  221.4160 C   0  0  0  0  0  0  0  0  0  0  0  0
  139.9640   74.4920  222.3400 N   0  0  0  0  0  0  0  0  0  0  0  0
  140.3840   71.3020  227.1250 C   0  0  0  0  0  0  0  0  0  0  0  0
  140.1550   70.5280  228.2550 C   0  0  0  0  0  0  0  0  0  0  0  0
  139.8198   68.5481  228.9610 H   0  0  0  0  0  0  0  0  0  0  0  0
  139.9449   67.4888  226.7291 H   0  0  0  0  0  0  0  0  0  0  0  0
  140.3526   68.9143  224.7577 H   0  0  0  0  0  0  0  0  0  0  0  0
  140.5066   72.5904  224.8417 H   0  0  0  0  0  0  0  0  0  0  0  0
  141.7457   71.3729  224.3256 H   0  0  0  0  0  0  0  0  0  0  0  0
  140.3599   70.4464  222.7836 H   0  0  0  0  0  0  0  0  0  0  0  0
  138.9511   70.4768  223.8735 H   0  0  0  0  0  0  0  0  0  0  0  0
  138.2880   72.5170  222.7600 H   0  0  0  0  0  0  0  0  0  0  0  0
  144.1496   74.0118  218.4671 H   0  0  0  0  0  0  0  0  0  0  0  0
  143.9064   75.1326  219.8296 H   0  0  0  0  0  0  0  0  0  0  0  0
  146.2885   74.2232  219.5183 H   0  0  0  0  0  0  0  0  0  0  0  0
  145.5528   74.0119  221.1653 H   0  0  0  0  0  0  0  0  0  0  0  0
  144.7754   72.0812  218.2717 H   0  0  0  0  0  0  0  0  0  0  0  0
  145.0794   70.5937  219.2591 H   0  0  0  0  0  0  0  0  0  0  0  0
  142.6420   71.3730  219.2013 H   0  0  0  0  0  0  0  0  0  0  0  0
  143.3093   71.1791  220.8243 H   0  0  0  0  0  0  0  0  0  0  0  0
  138.4650   76.5396  222.4375 H   0  0  0  0  0  0  0  0  0  0  0  0
  139.4390   77.1920  223.7570 H   0  0  0  0  0  0  0  0  0  0  0  0
  138.9465   78.6441  221.0595 H   0  0  0  0  0  0  0  0  0  0  0  0
  138.0358   79.0087  222.5227 H   0  0  0  0  0  0  0  0  0  0  0  0
  138.9934   80.9307  223.7128 H   0  0  0  0  0  0  0  0  0  0  0  0
  141.0591   82.1711  224.4144 H   0  0  0  0  0  0  0  0  0  0  0  0
  143.2725   81.3670  223.7218 H   0  0  0  0  0  0  0  0  0  0  0  0
  143.5553   79.3381  222.3304 H   0  0  0  0  0  0  0  0  0  0  0  0
  141.1497   78.0278  220.3853 H   0  0  0  0  0  0  0  0  0  0  0  0
  142.4540   77.3511  221.4241 H   0  0  0  0  0  0  0  0  0  0  0  0
  140.5086   72.3893  227.2358 H   0  0  0  0  0  0  0  0  0  0  0  0
  140.0978   70.9821  229.2553 H   0  0  0  0  0  0  0  0  0  0  0  0
  1  2  2  0
  2  3  1  0
  3  4  2  0
  4  5  1  0
  5  6  1  0
  6  7  1  0
  7  8  1  0
  8  9  2  0
  9 10  1  0
 10 11  1  0
 11 12  1  0
 12 13  1  0
 13 14  1  0
 14 15  1  0
 15 16  1  0
 10 17  2  0
 17 18  1  0
 18 19  1  0
 19 20  1  0
 20 21  1  0
 21 22  1  0
 22 23  2  0
 23 24  1  0
 24 25  2  0
 25 26  1  0
 26 27  2  0
 27 28  1  0
 18 29  2  0
  4 30  1  0
 30 31  2  0
 31  1  1  0
 29  8  1  0
 16 11  1  0
 28 19  1  0
 27 22  1  0
  1 32  1  0
  2 33  1  0
  3 34  1  0
  5 35  1  0
  5 36  1  0
  6 37  1  0
  6 38  1  0
  7 39  1  0
 12 40  1  0
 12 41  1  0
 13 42  1  0
 13 43  1  0
 15 44  1  0
 15 45  1  0
 16 46  1  0
 16 47  1  0
 20 48  1  0
 20 49  1  0
 21 50  1  0
 21 51  1  0
 23 52  1  0
 24 53  1  0
 25 54  1  0
 26 55  1  0
 28 56  1  0
 28 57  1  0
 30 58  1  0
 31 59  1  0
M  END
>  <smiles>  (29) 
c1ccc(CCNc2nc(N3CCOCC3)nc(N3CCc4ccccc4C3)n2)cc1

>  <score_type>  (29) 
oracle

>  <origin>  (29) 
autodockgpu

>  <m_score__min__energy>  (29) 
-10.06

>  <m_primary>  (29) 
energy

>  <rmsd>  (29) 
10.415699234965244

>  <m_score__min__rmsd>  (29) 
10.415699234965244

>  <meeko>  (29) 
{"free_energy": -9.98, "intermolecular_energy": -11.77, "internal_energy": -0.91, "cluster_size": 49, "cluster_id": 1, "rank_in_cluster": 14}

>  <energy>  (29) 
-9.71

>  <cluster_rmsd>  (29) 
0.83

>  <cluster>  (29) 
1

$$$$

     RDKit          3D

 59 63  0  0  0  0  0  0  0  0999 V2000
  142.3580   81.2440  223.6380 C   0  0  0  0  0  0  0  0  0  0  0  0
  140.9930   81.1790  223.8180 C   0  0  0  0  0  0  0  0  0  0  0  0
  140.3650   80.0080  223.5030 C   0  0  0  0  0  0  0  0  0  0  0  0
  141.0510   78.9100  223.0200 C   0  0  0  0  0  0  0  0  0  0  0  0
  140.2820   77.6810  222.7040 C   0  0  0  0  0  0  0  0  0  0  0  0
  140.8130   76.9910  221.4440 C   0  0  0  0  0  0  0  0  0  0  0  0
  140.0530   75.7470  221.2700 N   0  0  0  0  0  0  0  0  0  0  0  0
  140.6820   74.4910  221.4040 C   0  0  0  0  0  0  0  0  0  0  0  0
  141.7710   74.1240  220.6780 N   0  0  0  0  0  0  0  0  0  0  0  0
  142.3220   72.9030  220.8600 C   0  0  0  0  0  0  0  0  0  0  0  0
  143.4590   72.5690  220.0760 N   0  0  0  0  0  0  0  0  0  0  0  0
  144.2870   73.5960  219.5070 C   0  0  0  0  0  0  0  0  0  0  0  0
  145.6960   73.3760  220.0180 C   0  0  0  0  0  0  0  0  0  0  0  0
  146.0830   72.0450  219.9290 O   0  0  0  0  0  0  0  0  0  0  0  0
  145.2170   71.2600  219.1780 C   0  0  0  0  0  0  0  0  0  0  0  0
  143.8320   71.1880  219.8180 C   0  0  0  0  0  0  0  0  0  0  0  0
  141.7720   72.0970  221.7510 N   0  0  0  0  0  0  0  0  0  0  0  0
  140.6880   72.4130  222.4980 C   0  0  0  0  0  0  0  0  0  0  0  0
  140.1260   71.5150  223.4480 N   0  0  0  0  0  0  0  0  0  0  0  0
  139.0560   70.6070  223.0190 C   0  0  0  0  0  0  0  0  0  0  0  0
  138.2880   70.2650  224.2990 C   0  0  0  0  0  0  0  0  0  0  0  0
  139.2620   69.5010  225.1300 C   0  0  0  0  0  0  0  0  0  0  0  0
  139.0050   68.2370  225.6150 C   0  0  0  0  0  0  0  0  0  0  0  0
  139.9930   67.6260  226.3790 C   0  0  0  0  0  0  0  0  0  0  0  0
  141.1800   68.2860  226.6290 C   0  0  0  0  0  0  0  0  0  0  0  0
  141.4500   69.5490  226.1510 C   0  0  0  0  0  0  0  0  0  0  0  0
  140.4700   70.1550  225.3920 C   0  0  0  0  0  0  0  0  0  0  0  0
  140.6120   71.5110  224.8100 C   0  0  0  0  0  0  0  0  0  0  0  0
  140.1520   73.6320  222.3060 N   0  0  0  0  0  0  0  0  0  0  0  0
  142.4150   79.0200  222.8550 C   0  0  0  0  0  0  0  0  0  0  0  0
  143.0940   80.1910  223.1620 C   0  0  0  0  0  0  0  0  0  0  0  0
  142.8783   82.1807  223.8870 H   0  0  0  0  0  0  0  0  0  0  0  0
  140.4285   82.0413  224.2024 H   0  0  0  0  0  0  0  0  0  0  0  0
  139.2757   79.9363  223.6384 H   0  0  0  0  0  0  0  0  0  0  0  0
  140.3588   76.9842  223.5517 H   0  0  0  0  0  0  0  0  0  0  0  0
  139.2353   77.9673  222.5238 H   0  0  0  0  0  0  0  0  0  0  0  0
  140.6709   77.6436  220.5700 H   0  0  0  0  0  0  0  0  0  0  0  0
  141.8878   76.7785  221.5418 H   0  0  0  0  0  0  0  0  0  0  0  0
  139.0330   75.7460  221.0450 H   0  0  0  0  0  0  0  0  0  0  0  0
  144.2701   73.5276  218.4093 H   0  0  0  0  0  0  0  0  0  0  0  0
  143.9211   74.5931  219.7930 H   0  0  0  0  0  0  0  0  0  0  0  0
  146.3890   73.9874  219.4214 H   0  0  0  0  0  0  0  0  0  0  0  0
  145.7202   73.6652  221.0790 H   0  0  0  0  0  0  0  0  0  0  0  0
  145.1238   71.6930  218.1711 H   0  0  0  0  0  0  0  0  0  0  0  0
  145.6286   70.2411  219.1286 H   0  0  0  0  0  0  0  0  0  0  0  0
  143.1138   70.7163  219.1312 H   0  0  0  0  0  0  0  0  0  0  0  0
  143.8350   70.5843  220.7375 H   0  0  0  0  0  0  0  0  0  0  0  0
  138.3955   71.1038  222.2931 H   0  0  0  0  0  0  0  0  0  0  0  0
  139.4514   69.7086  222.5224 H   0  0  0  0  0  0  0  0  0  0  0  0
  137.9701   71.1815  224.8176 H   0  0  0  0  0  0  0  0  0  0  0  0
  137.3728   69.6899  224.0950 H   0  0  0  0  0  0  0  0  0  0  0  0
  138.0520   67.7294  225.4051 H   0  0  0  0  0  0  0  0  0  0  0  0
  139.8291   66.6166  226.7844 H   0  0  0  0  0  0  0  0  0  0  0  0
  141.9442   67.7801  227.2373 H   0  0  0  0  0  0  0  0  0  0  0  0
  142.4045   70.0523  226.3648 H   0  0  0  0  0  0  0  0  0  0  0  0
  140.0290   72.2273  225.4075 H   0  0  0  0  0  0  0  0  0  0  0  0
  141.6737   71.7988  224.8167 H   0  0  0  0  0  0  0  0  0  0  0  0
  142.9797   78.1580  222.4703 H   0  0  0  0  0  0  0  0  0  0  0  0
  144.1829   80.2707  223.0281 H   0  0  0  0  0  0  0  0  0  0  0  0
  1  2  2  0
  2  3  1  0
  3  4  2  0
  4  5  1  0
  5  6  1  0
  6  7  1  0
  7  8  1  0
  8  9  2  0
  9 10  1  0
 10 11  1  0
 11 12  1  0
 12 13  1  0
 13 14  1  0
 14 15  1  0
 15 16  1  0
 10 17  2  0
 17 18  1  0
 18 19  1  0
 19 20  1  0
 20 21  1  0
 21 22  1  0
 22 23  2  0
 23 24  1  0
 24 25  2  0
 25 26  1  0
 26 27  2  0
 27 28  1  0
 18 29  2  0
  4 30  1  0
 30 31  2  0
 31  1  1  0
 29  8  1  0
 16 11  1  0
 28 19  1  0
 27 22  1  0
  1 32  1  0
  2 33  1  0
  3 34  1  0
  5 35  1  0
  5 36  1  0
  6 37  1  0
  6 38  1  0
  7 39  1  0
 12 40  1  0
 12 41  1  0
 13 42  1  0
 13 43  1  0
 15 44  1  0
 15 45  1  0
 16 46  1  0
 16 47  1  0
 20 48  1  0
 20 49  1  0
 21 50  1  0
 21 51  1  0
 23 52  1  0
 24 53  1  0
 25 54  1  0
 26 55  1  0
 28 56  1  0
 28 57  1  0
 30 58  1  0
 31 59  1  0
M  END
>  <smiles>  (30) 
c1ccc(CCNc2nc(N3CCOCC3)nc(N3CCc4ccccc4C3)n2)cc1

>  <score_type>  (30) 
oracle

>  <origin>  (30) 
autodockgpu

>  <m_score__min__energy>  (30) 
-10.06

>  <m_primary>  (30) 
energy

>  <rmsd>  (30) 
3.6096498468929585

>  <m_score__min__rmsd>  (30) 
3.6096498468929585

>  <meeko>  (30) 
{"free_energy": -9.68, "intermolecular_energy": -11.47, "internal_energy": -0.82, "cluster_size": 49, "cluster_id": 1, "rank_in_cluster": 32}

>  <energy>  (30) 
-9.7

>  <cluster_rmsd>  (30) 
1.15

>  <cluster>  (30) 
1

$$$$

     RDKit          3D

 59 63  0  0  0  0  0  0  0  0999 V2000
  140.4200   70.5490  228.2870 C   0  0  0  0  0  0  0  0  0  0  0  0
  139.9000   69.6110  227.4200 C   0  0  0  0  0  0  0  0  0  0  0  0
  139.9850   69.8670  226.0820 C   0  0  0  0  0  0  0  0  0  0  0  0
  140.5670   71.0190  225.5870 C   0  0  0  0  0  0  0  0  0  0  0  0
  140.6110   71.2100  224.1160 C   0  0  0  0  0  0  0  0  0  0  0  0
  139.2050   71.3090  223.5170 C   0  0  0  0  0  0  0  0  0  0  0  0
  139.3460   71.8050  222.1420 N   0  0  0  0  0  0  0  0  0  0  0  0
  140.3480   72.7410  221.8110 C   0  0  0  0  0  0  0  0  0  0  0  0
  141.5890   72.3820  221.3860 N   0  0  0  0  0  0  0  0  0  0  0  0
  142.5000   73.3350  221.0870 C   0  0  0  0  0  0  0  0  0  0  0  0
  143.7820   72.9070  220.6470 N   0  0  0  0  0  0  0  0  0  0  0  0
  143.9630   71.6050  220.0680 C   0  0  0  0  0  0  0  0  0  0  0  0
  144.5500   71.8030  218.6850 C   0  0  0  0  0  0  0  0  0  0  0  0
  145.6000   72.7130  218.6880 O   0  0  0  0  0  0  0  0  0  0  0  0
  146.0440   73.0510  219.9610 C   0  0  0  0  0  0  0  0  0  0  0  0
  144.9540   73.7590  220.7630 C   0  0  0  0  0  0  0  0  0  0  0  0
  142.1450   74.6010  221.2200 N   0  0  0  0  0  0  0  0  0  0  0  0
  140.9250   75.0100  221.6390 C   0  0  0  0  0  0  0  0  0  0  0  0
  140.5830   76.3860  221.7690 N   0  0  0  0  0  0  0  0  0  0  0  0
  139.3370   76.7450  222.4560 C   0  0  0  0  0  0  0  0  0  0  0  0
  138.9650   78.1260  221.9080 C   0  0  0  0  0  0  0  0  0  0  0  0
  140.0530   79.0260  222.3870 C   0  0  0  0  0  0  0  0  0  0  0  0
  139.8160   80.1620  223.1300 C   0  0  0  0  0  0  0  0  0  0  0  0
  140.9140   80.9210  223.5170 C   0  0  0  0  0  0  0  0  0  0  0  0
  142.1870   80.5280  223.1560 C   0  0  0  0  0  0  0  0  0  0  0  0
  142.4400   79.3960  222.4130 C   0  0  0  0  0  0  0  0  0  0  0  0
  141.3500   78.6420  222.0290 C   0  0  0  0  0  0  0  0  0  0  0  0
  141.4600   77.4000  221.2280 C   0  0  0  0  0  0  0  0  0  0  0  0
  140.0300   74.0500  221.9330 N   0  0  0  0  0  0  0  0  0  0  0  0
  141.0720   71.9290  226.4890 C   0  0  0  0  0  0  0  0  0  0  0  0
  141.0080   71.7090  227.8590 C   0  0  0  0  0  0  0  0  0  0  0  0
  140.3598   70.3570  229.3684 H   0  0  0  0  0  0  0  0  0  0  0  0
  139.4327   68.6881  227.7940 H   0  0  0  0  0  0  0  0  0  0  0  0
  139.5764   69.1315  225.3734 H   0  0  0  0  0  0  0  0  0  0  0  0
  141.1600   72.1367  223.8928 H   0  0  0  0  0  0  0  0  0  0  0  0
  141.1134   70.3384  223.6712 H   0  0  0  0  0  0  0  0  0  0  0  0
  138.7281   70.3178  223.5118 H   0  0  0  0  0  0  0  0  0  0  0  0
  138.5769   71.9884  224.1119 H   0  0  0  0  0  0  0  0  0  0  0  0
  138.7180   71.4870  221.3710 H   0  0  0  0  0  0  0  0  0  0  0  0
  144.6509   71.0103  220.6870 H   0  0  0  0  0  0  0  0  0  0  0  0
  143.0045   71.0683  220.0105 H   0  0  0  0  0  0  0  0  0  0  0  0
  144.9202   70.8355  218.3150 H   0  0  0  0  0  0  0  0  0  0  0  0
  143.7577   72.2023  218.0348 H   0  0  0  0  0  0  0  0  0  0  0  0
  146.3401   72.1341  220.4917 H   0  0  0  0  0  0  0  0  0  0  0  0
  146.8981   73.7365  219.8585 H   0  0  0  0  0  0  0  0  0  0  0  0
  145.2544   73.8607  221.8163 H   0  0  0  0  0  0  0  0  0  0  0  0
  144.7623   74.7754  220.3886 H   0  0  0  0  0  0  0  0  0  0  0  0
  138.5467   76.0139  222.2303 H   0  0  0  0  0  0  0  0  0  0  0  0
  139.4560   76.7531  223.5495 H   0  0  0  0  0  0  0  0  0  0  0  0
  138.9292   78.1109  220.8087 H   0  0  0  0  0  0  0  0  0  0  0  0
  137.9716   78.4555  222.2465 H   0  0  0  0  0  0  0  0  0  0  0  0
  138.7934   80.4578  223.4072 H   0  0  0  0  0  0  0  0  0  0  0  0
  140.7686   81.8352  224.1112 H   0  0  0  0  0  0  0  0  0  0  0  0
  143.0381   81.1469  223.4762 H   0  0  0  0  0  0  0  0  0  0  0  0
  143.4649   79.1061  222.1381 H   0  0  0  0  0  0  0  0  0  0  0  0
  141.1748   77.6111  220.1868 H   0  0  0  0  0  0  0  0  0  0  0  0
  142.4979   77.0373  221.2631 H   0  0  0  0  0  0  0  0  0  0  0  0
  141.5376   72.8529  226.1153 H   0  0  0  0  0  0  0  0  0  0  0  0
  141.4147   72.4397  228.5736 H   0  0  0  0  0  0  0  0  0  0  0  0
  1  2  2  0
  2  3  1  0
  3  4  2  0
  4  5  1  0
  5  6  1  0
  6  7  1  0
  7  8  1  0
  8  9  2  0
  9 10  1  0
 10 11  1  0
 11 12  1  0
 12 13  1  0
 13 14  1  0
 14 15  1  0
 15 16  1  0
 10 17  2  0
 17 18  1  0
 18 19  1  0
 19 20  1  0
 20 21  1  0
 21 22  1  0
 22 23  2  0
 23 24  1  0
 24 25  2  0
 25 26  1  0
 26 27  2  0
 27 28  1  0
 18 29  2  0
  4 30  1  0
 30 31  2  0
 31  1  1  0
 29  8  1  0
 16 11  1  0
 28 19  1  0
 27 22  1  0
  1 32  1  0
  2 33  1  0
  3 34  1  0
  5 35  1  0
  5 36  1  0
  6 37  1  0
  6 38  1  0
  7 39  1  0
 12 40  1  0
 12 41  1  0
 13 42  1  0
 13 43  1  0
 15 44  1  0
 15 45  1  0
 16 46  1  0
 16 47  1  0
 20 48  1  0
 20 49  1  0
 21 50  1  0
 21 51  1  0
 23 52  1  0
 24 53  1  0
 25 54  1  0
 26 55  1  0
 28 56  1  0
 28 57  1  0
 30 58  1  0
 31 59  1  0
M  END
>  <smiles>  (31) 
c1ccc(CCNc2nc(N3CCOCC3)nc(N3CCc4ccccc4C3)n2)cc1

>  <score_type>  (31) 
oracle

>  <origin>  (31) 
autodockgpu

>  <m_score__min__energy>  (31) 
-10.06

>  <m_primary>  (31) 
energy

>  <rmsd>  (31) 
10.14689862120724

>  <m_score__min__rmsd>  (31) 
10.14689862120724

>  <meeko>  (31) 
{"free_energy": -10.05, "intermolecular_energy": -11.84, "internal_energy": -0.99, "cluster_size": 49, "cluster_id": 1, "rank_in_cluster": 3}

>  <energy>  (31) 
-9.7

>  <cluster_rmsd>  (31) 
1.32

>  <cluster>  (31) 
1

$$$$

     RDKit          3D

 59 63  0  0  0  0  0  0  0  0999 V2000
  142.0630   81.2780  223.8620 C   0  0  0  0  0  0  0  0  0  0  0  0
  140.6870   81.1840  223.8300 C   0  0  0  0  0  0  0  0  0  0  0  0
  140.1400   79.9910  223.4540 C   0  0  0  0  0  0  0  0  0  0  0  0
  140.9150   78.8990  223.1150 C   0  0  0  0  0  0  0  0  0  0  0  0
  140.2290   77.6440  222.7180 C   0  0  0  0  0  0  0  0  0  0  0  0
  141.0740   76.8240  221.7380 C   0  0  0  0  0  0  0  0  0  0  0  0
  140.2890   75.6420  221.3620 N   0  0  0  0  0  0  0  0  0  0  0  0
  140.8450   74.3480  221.4470 C   0  0  0  0  0  0  0  0  0  0  0  0
  141.8940   73.9390  220.6840 N   0  0  0  0  0  0  0  0  0  0  0  0
  142.3750   72.6830  220.8190 C   0  0  0  0  0  0  0  0  0  0  0  0
  143.4720   72.3050  219.9990 N   0  0  0  0  0  0  0  0  0  0  0  0
  144.1820   73.2850  219.2240 C   0  0  0  0  0  0  0  0  0  0  0  0
  145.6370   73.2240  219.6420 C   0  0  0  0  0  0  0  0  0  0  0  0
  146.1080   71.9190  219.7090 O   0  0  0  0  0  0  0  0  0  0  0  0
  145.2450   70.9840  219.1510 C   0  0  0  0  0  0  0  0  0  0  0  0
  143.9200   70.9250  219.9070 C   0  0  0  0  0  0  0  0  0  0  0  0
  141.8000   71.8860  221.7030 N   0  0  0  0  0  0  0  0  0  0  0  0
  140.7550   72.2440  222.4850 C   0  0  0  0  0  0  0  0  0  0  0  0
  140.1630   71.3540  223.4240 N   0  0  0  0  0  0  0  0  0  0  0  0
  139.3240   70.2560  222.9310 C   0  0  0  0  0  0  0  0  0  0  0  0
  138.3950   69.9090  224.0970 C   0  0  0  0  0  0  0  0  0  0  0  0
  139.3020   69.3810  225.1560 C   0  0  0  0  0  0  0  0  0  0  0  0
  139.1420   68.1390  225.7310 C   0  0  0  0  0  0  0  0  0  0  0  0
  140.0530   67.7580  226.7100 C   0  0  0  0  0  0  0  0  0  0  0  0
  141.0720   68.6140  227.0750 C   0  0  0  0  0  0  0  0  0  0  0  0
  141.2450   69.8580  226.5090 C   0  0  0  0  0  0  0  0  0  0  0  0
  140.3410   70.2360  225.5380 C   0  0  0  0  0  0  0  0  0  0  0  0
  140.3950   71.5420  224.8390 C   0  0  0  0  0  0  0  0  0  0  0  0
  140.2870   73.4970  222.3380 N   0  0  0  0  0  0  0  0  0  0  0  0
  142.2850   79.0370  223.1600 C   0  0  0  0  0  0  0  0  0  0  0  0
  142.8840   80.2320  223.5360 C   0  0  0  0  0  0  0  0  0  0  0  0
  142.5194   82.2329  224.1618 H   0  0  0  0  0  0  0  0  0  0  0  0
  140.0521   82.0412  224.0984 H   0  0  0  0  0  0  0  0  0  0  0  0
  139.0446   79.8961  223.4198 H   0  0  0  0  0  0  0  0  0  0  0  0
  140.0403   77.0404  223.6181 H   0  0  0  0  0  0  0  0  0  0  0  0
  139.2860   77.9110  222.2186 H   0  0  0  0  0  0  0  0  0  0  0  0
  141.3012   77.4240  220.8445 H   0  0  0  0  0  0  0  0  0  0  0  0
  142.0259   76.5260  222.2018 H   0  0  0  0  0  0  0  0  0  0  0  0
  139.3030   75.7140  221.0240 H   0  0  0  0  0  0  0  0  0  0  0  0
  144.0887   73.0566  218.1520 H   0  0  0  0  0  0  0  0  0  0  0  0
  143.7697   74.2902  219.3962 H   0  0  0  0  0  0  0  0  0  0  0  0
  146.2398   73.7813  218.9099 H   0  0  0  0  0  0  0  0  0  0  0  0
  145.7193   73.6654  220.6462 H   0  0  0  0  0  0  0  0  0  0  0  0
  145.0476   71.2595  218.1045 H   0  0  0  0  0  0  0  0  0  0  0  0
  145.7217   69.9945  219.2120 H   0  0  0  0  0  0  0  0  0  0  0  0
  143.1876   70.3177  219.3550 H   0  0  0  0  0  0  0  0  0  0  0  0
  144.0326   70.4623  220.8986 H   0  0  0  0  0  0  0  0  0  0  0  0
  138.7411   70.5785  222.0557 H   0  0  0  0  0  0  0  0  0  0  0  0
  139.9236   69.3912  222.6105 H   0  0  0  0  0  0  0  0  0  0  0  0
  137.8649   70.8054  224.4512 H   0  0  0  0  0  0  0  0  0  0  0  0
  137.6201   69.1825  223.8111 H   0  0  0  0  0  0  0  0  0  0  0  0
  138.3221   67.4721  225.4261 H   0  0  0  0  0  0  0  0  0  0  0  0
  139.9614   66.7742  227.1936 H   0  0  0  0  0  0  0  0  0  0  0  0
  141.7781   68.2883  227.8531 H   0  0  0  0  0  0  0  0  0  0  0  0
  142.0673   70.5203  226.8176 H   0  0  0  0  0  0  0  0  0  0  0  0
  139.6217   72.2077  225.2499 H   0  0  0  0  0  0  0  0  0  0  0  0
  141.3887   71.9902  224.9862 H   0  0  0  0  0  0  0  0  0  0  0  0
  142.9198   78.1797  222.8916 H   0  0  0  0  0  0  0  0  0  0  0  0
  143.9787   80.3345  223.5707 H   0  0  0  0  0  0  0  0  0  0  0  0
  1  2  2  0
  2  3  1  0
  3  4  2  0
  4  5  1  0
  5  6  1  0
  6  7  1  0
  7  8  1  0
  8  9  2  0
  9 10  1  0
 10 11  1  0
 11 12  1  0
 12 13  1  0
 13 14  1  0
 14 15  1  0
 15 16  1  0
 10 17  2  0
 17 18  1  0
 18 19  1  0
 19 20  1  0
 20 21  1  0
 21 22  1  0
 22 23  2  0
 23 24  1  0
 24 25  2  0
 25 26  1  0
 26 27  2  0
 27 28  1  0
 18 29  2  0
  4 30  1  0
 30 31  2  0
 31  1  1  0
 29  8  1  0
 16 11  1  0
 28 19  1  0
 27 22  1  0
  1 32  1  0
  2 33  1  0
  3 34  1  0
  5 35  1  0
  5 36  1  0
  6 37  1  0
  6 38  1  0
  7 39  1  0
 12 40  1  0
 12 41  1  0
 13 42  1  0
 13 43  1  0
 15 44  1  0
 15 45  1  0
 16 46  1  0
 16 47  1  0
 20 48  1  0
 20 49  1  0
 21 50  1  0
 21 51  1  0
 23 52  1  0
 24 53  1  0
 25 54  1  0
 26 55  1  0
 28 56  1  0
 28 57  1  0
 30 58  1  0
 31 59  1  0
M  END
>  <smiles>  (32) 
c1ccc(CCNc2nc(N3CCOCC3)nc(N3CCc4ccccc4C3)n2)cc1

>  <score_type>  (32) 
oracle

>  <origin>  (32) 
autodockgpu

>  <m_score__min__energy>  (32) 
-10.06

>  <m_primary>  (32) 
energy

>  <rmsd>  (32) 
3.7435559815363963

>  <m_score__min__rmsd>  (32) 
3.7435559815363963

>  <meeko>  (32) 
{"free_energy": -9.63, "intermolecular_energy": -11.42, "internal_energy": -0.78, "cluster_size": 49, "cluster_id": 1, "rank_in_cluster": 37}

>  <energy>  (32) 
-9.68

>  <cluster_rmsd>  (32) 
1.31

>  <cluster>  (32) 
1

$$$$

     RDKit          3D

 59 63  0  0  0  0  0  0  0  0999 V2000
  141.0760   71.2410  227.8440 C   0  0  0  0  0  0  0  0  0  0  0  0
  140.1700   70.2030  227.8100 C   0  0  0  0  0  0  0  0  0  0  0  0
  139.5880   69.9060  226.6100 C   0  0  0  0  0  0  0  0  0  0  0  0
  139.8820   70.6060  225.4560 C   0  0  0  0  0  0  0  0  0  0  0  0
  139.1980   70.2110  224.1990 C   0  0  0  0  0  0  0  0  0  0  0  0
  139.9120   70.7740  222.9670 C   0  0  0  0  0  0  0  0  0  0  0  0
  139.5610   72.1960  222.8660 N   0  0  0  0  0  0  0  0  0  0  0  0
  140.4140   73.1060  222.2060 C   0  0  0  0  0  0  0  0  0  0  0  0
  141.4790   72.7160  221.4570 N   0  0  0  0  0  0  0  0  0  0  0  0
  142.2530   73.6440  220.8520 C   0  0  0  0  0  0  0  0  0  0  0  0
  143.3550   73.1840  220.0810 N   0  0  0  0  0  0  0  0  0  0  0  0
  144.3500   74.1030  219.6020 C   0  0  0  0  0  0  0  0  0  0  0  0
  145.6890   73.6390  220.1380 C   0  0  0  0  0  0  0  0  0  0  0  0
  145.8720   72.2710  219.9750 O   0  0  0  0  0  0  0  0  0  0  0  0
  144.9250   71.6750  219.1510 C   0  0  0  0  0  0  0  0  0  0  0  0
  143.5220   71.7800  219.7470 C   0  0  0  0  0  0  0  0  0  0  0  0
  141.9410   74.9180  221.0140 N   0  0  0  0  0  0  0  0  0  0  0  0
  140.8930   75.3580  221.7480 C   0  0  0  0  0  0  0  0  0  0  0  0
  140.5900   76.7410  221.8980 N   0  0  0  0  0  0  0  0  0  0  0  0
  139.3670   77.1270  222.6100 C   0  0  0  0  0  0  0  0  0  0  0  0
  139.0230   78.5230  222.0820 C   0  0  0  0  0  0  0  0  0  0  0  0
  140.1430   79.3890  222.5490 C   0  0  0  0  0  0  0  0  0  0  0  0
  139.9500   80.5230  223.3070 C   0  0  0  0  0  0  0  0  0  0  0  0
  141.0760   81.2480  223.6810 C   0  0  0  0  0  0  0  0  0  0  0  0
  142.3310   80.8250  223.2930 C   0  0  0  0  0  0  0  0  0  0  0  0
  142.5390   79.6940  222.5360 C   0  0  0  0  0  0  0  0  0  0  0  0
  141.4230   78.9730  222.1650 C   0  0  0  0  0  0  0  0  0  0  0  0
  141.4850   77.7360  221.3500 C   0  0  0  0  0  0  0  0  0  0  0  0
  140.1320   74.4220  222.3440 N   0  0  0  0  0  0  0  0  0  0  0  0
  140.7920   71.6370  225.5360 C   0  0  0  0  0  0  0  0  0  0  0  0
  141.4070   71.9730  226.7350 C   0  0  0  0  0  0  0  0  0  0  0  0
  141.5535   71.4921  228.8026 H   0  0  0  0  0  0  0  0  0  0  0  0
  139.9238   69.6330  228.7180 H   0  0  0  0  0  0  0  0  0  0  0  0
  138.8610   69.0819  226.5612 H   0  0  0  0  0  0  0  0  0  0  0  0
  139.1817   69.1132  224.1314 H   0  0  0  0  0  0  0  0  0  0  0  0
  138.1766   70.6188  224.2207 H   0  0  0  0  0  0  0  0  0  0  0  0
  141.0005   70.6628  223.0800 H   0  0  0  0  0  0  0  0  0  0  0  0
  139.6045   70.2333  222.0597 H   0  0  0  0  0  0  0  0  0  0  0  0
  138.6790   72.5800  223.2740 H   0  0  0  0  0  0  0  0  0  0  0  0
  144.3644   74.1023  218.5021 H   0  0  0  0  0  0  0  0  0  0  0  0
  144.1292   75.1262  219.9401 H   0  0  0  0  0  0  0  0  0  0  0  0
  146.4891   74.1702  219.6016 H   0  0  0  0  0  0  0  0  0  0  0  0
  145.7168   73.8584  221.2155 H   0  0  0  0  0  0  0  0  0  0  0  0
  144.9363   72.1763  218.1719 H   0  0  0  0  0  0  0  0  0  0  0  0
  145.1781   70.6096  219.0471 H   0  0  0  0  0  0  0  0  0  0  0  0
  142.7661   71.4656  219.0123 H   0  0  0  0  0  0  0  0  0  0  0  0
  143.3987   71.1304  220.6261 H   0  0  0  0  0  0  0  0  0  0  0  0
  138.5532   76.4199  222.3915 H   0  0  0  0  0  0  0  0  0  0  0  0
  139.5056   77.1212  223.7012 H   0  0  0  0  0  0  0  0  0  0  0  0
  138.9670   78.5196  220.9834 H   0  0  0  0  0  0  0  0  0  0  0  0
  138.0453   78.8757  222.4422 H   0  0  0  0  0  0  0  0  0  0  0  0
  138.9410   80.8435  223.6058 H   0  0  0  0  0  0  0  0  0  0  0  0
  140.9663   82.1596  224.2867 H   0  0  0  0  0  0  0  0  0  0  0  0
  143.2042   81.4180  223.6024 H   0  0  0  0  0  0  0  0  0  0  0  0
  143.5506   79.3792  222.2400 H   0  0  0  0  0  0  0  0  0  0  0  0
  141.1871   77.9649  220.3162 H   0  0  0  0  0  0  0  0  0  0  0  0
  142.5131   77.3449  221.3624 H   0  0  0  0  0  0  0  0  0  0  0  0
  141.0375   72.2079  224.6284 H   0  0  0  0  0  0  0  0  0  0  0  0
  142.1335   72.7970  226.7918 H   0  0  0  0  0  0  0  0  0  0  0  0
  1  2  2  0
  2  3  1  0
  3  4  2  0
  4  5  1  0
  5  6  1  0
  6  7  1  0
  7  8  1  0
  8  9  2  0
  9 10  1  0
 10 11  1  0
 11 12  1  0
 12 13  1  0
 13 14  1  0
 14 15  1  0
 15 16  1  0
 10 17  2  0
 17 18  1  0
 18 19  1  0
 19 20  1  0
 20 21  1  0
 21 22  1  0
 22 23  2  0
 23 24  1  0
 24 25  2  0
 25 26  1  0
 26 27  2  0
 27 28  1  0
 18 29  2  0
  4 30  1  0
 30 31  2  0
 31  1  1  0
 29  8  1  0
 16 11  1  0
 28 19  1  0
 27 22  1  0
  1 32  1  0
  2 33  1  0
  3 34  1  0
  5 35  1  0
  5 36  1  0
  6 37  1  0
  6 38  1  0
  7 39  1  0
 12 40  1  0
 12 41  1  0
 13 42  1  0
 13 43  1  0
 15 44  1  0
 15 45  1  0
 16 46  1  0
 16 47  1  0
 20 48  1  0
 20 49  1  0
 21 50  1  0
 21 51  1  0
 23 52  1  0
 24 53  1  0
 25 54  1  0
 26 55  1  0
 28 56  1  0
 28 57  1  0
 30 58  1  0
 31 59  1  0
M  END
>  <smiles>  (33) 
c1ccc(CCNc2nc(N3CCOCC3)nc(N3CCc4ccccc4C3)n2)cc1

>  <score_type>  (33) 
oracle

>  <origin>  (33) 
autodockgpu

>  <m_score__min__energy>  (33) 
-10.06

>  <m_primary>  (33) 
energy

>  <rmsd>  (33) 
10.402597108041768

>  <m_score__min__rmsd>  (33) 
10.402597108041768

>  <meeko>  (33) 
{"free_energy": -10.06, "intermolecular_energy": -11.85, "internal_energy": -0.95, "cluster_size": 49, "cluster_id": 1, "rank_in_cluster": 1}

>  <energy>  (33) 
-9.68

>  <cluster_rmsd>  (33) 
1.3

>  <cluster>  (33) 
1

$$$$

     RDKit          3D

 59 63  0  0  0  0  0  0  0  0999 V2000
  140.6090   70.1680  228.2930 C   0  0  0  0  0  0  0  0  0  0  0  0
  140.1680   69.3570  227.2690 C   0  0  0  0  0  0  0  0  0  0  0  0
  140.1940   69.8630  226.0010 C   0  0  0  0  0  0  0  0  0  0  0  0
  140.6440   71.1410  225.7270 C   0  0  0  0  0  0  0  0  0  0  0  0
  140.6340   71.6030  224.3170 C   0  0  0  0  0  0  0  0  0  0  0  0
  139.4350   71.0430  223.5470 C   0  0  0  0  0  0  0  0  0  0  0  0
  139.4740   71.6130  222.1950 N   0  0  0  0  0  0  0  0  0  0  0  0
  140.4460   72.5740  221.8440 C   0  0  0  0  0  0  0  0  0  0  0  0
  141.6840   72.2470  221.3890 N   0  0  0  0  0  0  0  0  0  0  0  0
  142.5650   73.2220  221.0710 C   0  0  0  0  0  0  0  0  0  0  0  0
  143.8460   72.8260  220.6000 N   0  0  0  0  0  0  0  0  0  0  0  0
  144.0520   71.5180  220.0430 C   0  0  0  0  0  0  0  0  0  0  0  0
  144.5880   71.7030  218.6390 C   0  0  0  0  0  0  0  0  0  0  0  0
  145.6070   72.6470  218.5880 O   0  0  0  0  0  0  0  0  0  0  0  0
  146.0790   73.0280  219.8380 C   0  0  0  0  0  0  0  0  0  0  0  0
  144.9920   73.7180  220.6590 C   0  0  0  0  0  0  0  0  0  0  0  0
  142.1830   74.4790  221.2170 N   0  0  0  0  0  0  0  0  0  0  0  0
  140.9640   74.8570  221.6660 C   0  0  0  0  0  0  0  0  0  0  0  0
  140.5920   76.2240  221.8100 N   0  0  0  0  0  0  0  0  0  0  0  0
  139.3290   76.5490  222.4830 C   0  0  0  0  0  0  0  0  0  0  0  0
  138.9380   77.9290  221.9480 C   0  0  0  0  0  0  0  0  0  0  0  0
  140.0000   78.8440  222.4550 C   0  0  0  0  0  0  0  0  0  0  0  0
  139.7290   79.9650  223.2090 C   0  0  0  0  0  0  0  0  0  0  0  0
  140.8060   80.7400  223.6240 C   0  0  0  0  0  0  0  0  0  0  0  0
  142.0910   80.3780  223.2770 C   0  0  0  0  0  0  0  0  0  0  0  0
  142.3780   79.2610  222.5230 C   0  0  0  0  0  0  0  0  0  0  0  0
  141.3100   78.4910  222.1120 C   0  0  0  0  0  0  0  0  0  0  0  0
  141.4570   77.2620  221.2960 C   0  0  0  0  0  0  0  0  0  0  0  0
  140.0990   73.8750  221.9780 N   0  0  0  0  0  0  0  0  0  0  0  0
  141.0750   71.9160  226.7800 C   0  0  0  0  0  0  0  0  0  0  0  0
  141.0650   71.4420  228.0850 C   0  0  0  0  0  0  0  0  0  0  0  0
  140.5938   69.7749  229.3203 H   0  0  0  0  0  0  0  0  0  0  0  0
  139.8074   68.3368  227.4668 H   0  0  0  0  0  0  0  0  0  0  0  0
  139.8452   69.2326  225.1698 H   0  0  0  0  0  0  0  0  0  0  0  0
  140.5858   72.7018  224.3021 H   0  0  0  0  0  0  0  0  0  0  0  0
  141.5527   71.2425  223.8311 H   0  0  0  0  0  0  0  0  0  0  0  0
  139.5014   69.9463  223.4943 H   0  0  0  0  0  0  0  0  0  0  0  0
  138.4935   71.3059  224.0514 H   0  0  0  0  0  0  0  0  0  0  0  0
  138.7940   71.3320  221.4540 H   0  0  0  0  0  0  0  0  0  0  0  0
  144.7783   70.9600  220.6522 H   0  0  0  0  0  0  0  0  0  0  0  0
  143.1103   70.9497  220.0275 H   0  0  0  0  0  0  0  0  0  0  0  0
  144.9785   70.7398  218.2788 H   0  0  0  0  0  0  0  0  0  0  0  0
  143.7627   72.0612  218.0061 H   0  0  0  0  0  0  0  0  0  0  0  0
  146.4219   72.1335  220.3786 H   0  0  0  0  0  0  0  0  0  0  0  0
  146.9061   73.7385  219.6932 H   0  0  0  0  0  0  0  0  0  0  0  0
  145.3221   73.8536  221.6995 H   0  0  0  0  0  0  0  0  0  0  0  0
  144.7547   74.7186  220.2686 H   0  0  0  0  0  0  0  0  0  0  0  0
  138.5568   75.8056  222.2358 H   0  0  0  0  0  0  0  0  0  0  0  0
  139.4316   76.5446  223.5782 H   0  0  0  0  0  0  0  0  0  0  0  0
  138.9190   77.9279  220.8482 H   0  0  0  0  0  0  0  0  0  0  0  0
  137.9333   78.2341  222.2759 H   0  0  0  0  0  0  0  0  0  0  0  0
  138.6965   80.2372  223.4734 H   0  0  0  0  0  0  0  0  0  0  0  0
  140.6334   81.6421  224.2292 H   0  0  0  0  0  0  0  0  0  0  0  0
  142.9245   81.0098  223.6177 H   0  0  0  0  0  0  0  0  0  0  0  0
  143.4127   78.9952  222.2606 H   0  0  0  0  0  0  0  0  0  0  0  0
  141.1836   77.4815  220.2534 H   0  0  0  0  0  0  0  0  0  0  0  0
  142.5012   76.9192  221.3422 H   0  0  0  0  0  0  0  0  0  0  0  0
  141.4363   72.9361  226.5826 H   0  0  0  0  0  0  0  0  0  0  0  0
  141.4109   72.0673  228.9213 H   0  0  0  0  0  0  0  0  0  0  0  0
  1  2  2  0
  2  3  1  0
  3  4  2  0
  4  5  1  0
  5  6  1  0
  6  7  1  0
  7  8  1  0
  8  9  2  0
  9 10  1  0
 10 11  1  0
 11 12  1  0
 12 13  1  0
 13 14  1  0
 14 15  1  0
 15 16  1  0
 10 17  2  0
 17 18  1  0
 18 19  1  0
 19 20  1  0
 20 21  1  0
 21 22  1  0
 22 23  2  0
 23 24  1  0
 24 25  2  0
 25 26  1  0
 26 27  2  0
 27 28  1  0
 18 29  2  0
  4 30  1  0
 30 31  2  0
 31  1  1  0
 29  8  1  0
 16 11  1  0
 28 19  1  0
 27 22  1  0
  1 32  1  0
  2 33  1  0
  3 34  1  0
  5 35  1  0
  5 36  1  0
  6 37  1  0
  6 38  1  0
  7 39  1  0
 12 40  1  0
 12 41  1  0
 13 42  1  0
 13 43  1  0
 15 44  1  0
 15 45  1  0
 16 46  1  0
 16 47  1  0
 20 48  1  0
 20 49  1  0
 21 50  1  0
 21 51  1  0
 23 52  1  0
 24 53  1  0
 25 54  1  0
 26 55  1  0
 28 56  1  0
 28 57  1  0
 30 58  1  0
 31 59  1  0
M  END
>  <smiles>  (34) 
c1ccc(CCNc2nc(N3CCOCC3)nc(N3CCc4ccccc4C3)n2)cc1

>  <score_type>  (34) 
oracle

>  <origin>  (34) 
autodockgpu

>  <m_score__min__energy>  (34) 
-10.06

>  <m_primary>  (34) 
energy

>  <rmsd>  (34) 
9.9857255880305

>  <m_score__min__rmsd>  (34) 
9.9857255880305

>  <meeko>  (34) 
{"free_energy": -10.01, "intermolecular_energy": -11.8, "internal_energy": -1.0, "cluster_size": 49, "cluster_id": 1, "rank_in_cluster": 6}

>  <energy>  (34) 
-9.68

>  <cluster_rmsd>  (34) 
1.32

>  <cluster>  (34) 
1

$$$$

     RDKit          3D

 59 63  0  0  0  0  0  0  0  0999 V2000
  141.8860   81.2400  223.8470 C   0  0  0  0  0  0  0  0  0  0  0  0
  140.5880   80.8200  223.6470 C   0  0  0  0  0  0  0  0  0  0  0  0
  140.3960   79.6480  222.9730 C   0  0  0  0  0  0  0  0  0  0  0  0
  141.4490   78.8900  222.4980 C   0  0  0  0  0  0  0  0  0  0  0  0
  141.1410   77.6310  221.7760 C   0  0  0  0  0  0  0  0  0  0  0  0
  139.8310   77.0060  222.2630 C   0  0  0  0  0  0  0  0  0  0  0  0
  139.5570   75.8390  221.4160 N   0  0  0  0  0  0  0  0  0  0  0  0
  140.3200   74.6580  221.5440 C   0  0  0  0  0  0  0  0  0  0  0  0
  141.4770   74.4440  220.8650 N   0  0  0  0  0  0  0  0  0  0  0  0
  142.1560   73.2880  221.0370 C   0  0  0  0  0  0  0  0  0  0  0  0
  143.3600   73.1140  220.3030 N   0  0  0  0  0  0  0  0  0  0  0  0
  144.2410   74.2240  220.0630 C   0  0  0  0  0  0  0  0  0  0  0  0
  145.5950   73.8580  220.6350 C   0  0  0  0  0  0  0  0  0  0  0  0
  145.9850   72.5730  220.2770 O   0  0  0  0  0  0  0  0  0  0  0  0
  145.1900   72.0020  219.2910 C   0  0  0  0  0  0  0  0  0  0  0  0
  143.7510   71.8200  219.7700 C   0  0  0  0  0  0  0  0  0  0  0  0
  141.6600   72.3930  221.8740 N   0  0  0  0  0  0  0  0  0  0  0  0
  140.5130   72.5570  222.5730 C   0  0  0  0  0  0  0  0  0  0  0  0
  140.0130   71.5670  223.4650 N   0  0  0  0  0  0  0  0  0  0  0  0
  139.0740   70.5620  222.9550 C   0  0  0  0  0  0  0  0  0  0  0  0
  138.2910   70.0890  224.1830 C   0  0  0  0  0  0  0  0  0  0  0  0
  139.3060   69.4070  225.0370 C   0  0  0  0  0  0  0  0  0  0  0  0
  139.1730   68.1060  225.4680 C   0  0  0  0  0  0  0  0  0  0  0  0
  140.1870   67.5810  226.2610 C   0  0  0  0  0  0  0  0  0  0  0  0
  141.2790   68.3590  226.5900 C   0  0  0  0  0  0  0  0  0  0  0  0
  141.4260   69.6610  226.1660 C   0  0  0  0  0  0  0  0  0  0  0  0
  140.4200   70.1820  225.3790 C   0  0  0  0  0  0  0  0  0  0  0  0
  140.4340   71.5660  224.8480 C   0  0  0  0  0  0  0  0  0  0  0  0
  139.8500   73.7130  222.3900 N   0  0  0  0  0  0  0  0  0  0  0  0
  142.7290   79.3470  222.7200 C   0  0  0  0  0  0  0  0  0  0  0  0
  142.9710   80.5330  223.4000 C   0  0  0  0  0  0  0  0  0  0  0  0
  142.0575   82.1822  224.3881 H   0  0  0  0  0  0  0  0  0  0  0  0
  139.7362   81.4090  224.0178 H   0  0  0  0  0  0  0  0  0  0  0  0
  139.3681   79.2954  222.8025 H   0  0  0  0  0  0  0  0  0  0  0  0
  141.0546   77.8482  220.7011 H   0  0  0  0  0  0  0  0  0  0  0  0
  141.9548   76.9166  221.9691 H   0  0  0  0  0  0  0  0  0  0  0  0
  139.9318   76.6928  223.3127 H   0  0  0  0  0  0  0  0  0  0  0  0
  139.0078   77.7328  222.1991 H   0  0  0  0  0  0  0  0  0  0  0  0
  138.7980   75.8390  220.6980 H   0  0  0  0  0  0  0  0  0  0  0  0
  144.3268   74.4093  218.9821 H   0  0  0  0  0  0  0  0  0  0  0  0
  143.8530   75.1379  220.5365 H   0  0  0  0  0  0  0  0  0  0  0  0
  146.3428   74.5726  220.2607 H   0  0  0  0  0  0  0  0  0  0  0  0
  145.5201   73.8955  221.7318 H   0  0  0  0  0  0  0  0  0  0  0  0
  145.1926   72.6557  218.4063 H   0  0  0  0  0  0  0  0  0  0  0  0
  145.6008   71.0114  219.0462 H   0  0  0  0  0  0  0  0  0  0  0  0
  143.0985   71.5351  218.9315 H   0  0  0  0  0  0  0  0  0  0  0  0
  143.6663   71.0227  220.5231 H   0  0  0  0  0  0  0  0  0  0  0  0
  138.3958   71.0084  222.2129 H   0  0  0  0  0  0  0  0  0  0  0  0
  139.5915   69.7323  222.4511 H   0  0  0  0  0  0  0  0  0  0  0  0
  137.8482   70.9444  224.7143 H   0  0  0  0  0  0  0  0  0  0  0  0
  137.4568   69.4239  223.9150 H   0  0  0  0  0  0  0  0  0  0  0  0
  138.2947   67.5029  225.1943 H   0  0  0  0  0  0  0  0  0  0  0  0
  140.1192   66.5457  226.6264 H   0  0  0  0  0  0  0  0  0  0  0  0
  142.0670   67.9192  227.2190 H   0  0  0  0  0  0  0  0  0  0  0  0
  142.3067   70.2591  226.4427 H   0  0  0  0  0  0  0  0  0  0  0  0
  139.7473   72.1902  225.4387 H   0  0  0  0  0  0  0  0  0  0  0  0
  141.4551   71.9695  224.9159 H   0  0  0  0  0  0  0  0  0  0  0  0
  143.5808   78.7578  222.3494 H   0  0  0  0  0  0  0  0  0  0  0  0
  143.9962   80.8918  223.5735 H   0  0  0  0  0  0  0  0  0  0  0  0
  1  2  2  0
  2  3  1  0
  3  4  2  0
  4  5  1  0
  5  6  1  0
  6  7  1  0
  7  8  1  0
  8  9  2  0
  9 10  1  0
 10 11  1  0
 11 12  1  0
 12 13  1  0
 13 14  1  0
 14 15  1  0
 15 16  1  0
 10 17  2  0
 17 18  1  0
 18 19  1  0
 19 20  1  0
 20 21  1  0
 21 22  1  0
 22 23  2  0
 23 24  1  0
 24 25  2  0
 25 26  1  0
 26 27  2  0
 27 28  1  0
 18 29  2  0
  4 30  1  0
 30 31  2  0
 31  1  1  0
 29  8  1  0
 16 11  1  0
 28 19  1  0
 27 22  1  0
  1 32  1  0
  2 33  1  0
  3 34  1  0
  5 35  1  0
  5 36  1  0
  6 37  1  0
  6 38  1  0
  7 39  1  0
 12 40  1  0
 12 41  1  0
 13 42  1  0
 13 43  1  0
 15 44  1  0
 15 45  1  0
 16 46  1  0
 16 47  1  0
 20 48  1  0
 20 49  1  0
 21 50  1  0
 21 51  1  0
 23 52  1  0
 24 53  1  0
 25 54  1  0
 26 55  1  0
 28 56  1  0
 28 57  1  0
 30 58  1  0
 31 59  1  0
M  END
>  <smiles>  (35) 
c1ccc(CCNc2nc(N3CCOCC3)nc(N3CCc4ccccc4C3)n2)cc1

>  <score_type>  (35) 
oracle

>  <origin>  (35) 
autodockgpu

>  <m_score__min__energy>  (35) 
-10.06

>  <m_primary>  (35) 
energy

>  <rmsd>  (35) 
3.6416946806767507

>  <m_score__min__rmsd>  (35) 
3.6416946806767507

>  <meeko>  (35) 
{"free_energy": -9.68, "intermolecular_energy": -11.47, "internal_energy": -0.9, "cluster_size": 49, "cluster_id": 1, "rank_in_cluster": 33}

>  <energy>  (35) 
-9.67

>  <cluster_rmsd>  (35) 
1.31

>  <cluster>  (35) 
1

$$$$

     RDKit          3D

 59 63  0  0  0  0  0  0  0  0999 V2000
  141.0670   71.3140  228.3110 C   0  0  0  0  0  0  0  0  0  0  0  0
  140.3600   70.1600  228.0500 C   0  0  0  0  0  0  0  0  0  0  0  0
  140.0220   69.9010  226.7520 C   0  0  0  0  0  0  0  0  0  0  0  0
  140.3650   70.7510  225.7180 C   0  0  0  0  0  0  0  0  0  0  0  0
  139.9520   70.3860  224.3400 C   0  0  0  0  0  0  0  0  0  0  0  0
  139.2630   71.5540  223.6290 C   0  0  0  0  0  0  0  0  0  0  0  0
  139.7350   71.5640  222.2390 N   0  0  0  0  0  0  0  0  0  0  0  0
  140.5980   72.5800  221.7760 C   0  0  0  0  0  0  0  0  0  0  0  0
  141.7690   72.3260  221.1350 N   0  0  0  0  0  0  0  0  0  0  0  0
  142.5460   73.3510  220.7190 C   0  0  0  0  0  0  0  0  0  0  0  0
  143.7600   73.0310  220.0540 N   0  0  0  0  0  0  0  0  0  0  0  0
  144.7430   74.0460  219.7930 C   0  0  0  0  0  0  0  0  0  0  0  0
  146.0360   73.6030  220.4470 C   0  0  0  0  0  0  0  0  0  0  0  0
  146.3270   72.2710  220.1820 O   0  0  0  0  0  0  0  0  0  0  0  0
  145.5270   71.7100  219.1940 C   0  0  0  0  0  0  0  0  0  0  0  0
  144.0590   71.6790  219.6140 C   0  0  0  0  0  0  0  0  0  0  0  0
  142.1310   74.5840  220.9550 N   0  0  0  0  0  0  0  0  0  0  0  0
  140.9750   74.8900  221.5880 C   0  0  0  0  0  0  0  0  0  0  0  0
  140.5640   76.2320  221.8230 N   0  0  0  0  0  0  0  0  0  0  0  0
  139.3700   76.4760  222.6400 C   0  0  0  0  0  0  0  0  0  0  0  0
  138.8650   77.8540  222.2040 C   0  0  0  0  0  0  0  0  0  0  0  0
  139.9370   78.8000  222.6270 C   0  0  0  0  0  0  0  0  0  0  0  0
  139.7030   79.8810  223.4490 C   0  0  0  0  0  0  0  0  0  0  0  0
  140.7860   80.6910  223.7730 C   0  0  0  0  0  0  0  0  0  0  0  0
  142.0400   80.4000  223.2750 C   0  0  0  0  0  0  0  0  0  0  0  0
  142.2880   79.3230  222.4530 C   0  0  0  0  0  0  0  0  0  0  0  0
  141.2150   78.5190  222.1310 C   0  0  0  0  0  0  0  0  0  0  0  0
  141.3230   77.3260  221.2580 C   0  0  0  0  0  0  0  0  0  0  0  0
  140.2130   73.8590  221.9960 N   0  0  0  0  0  0  0  0  0  0  0  0
  141.0710   71.8930  226.0250 C   0  0  0  0  0  0  0  0  0  0  0  0
  141.4350   72.1960  227.3300 C   0  0  0  0  0  0  0  0  0  0  0  0
  141.3475   71.5360  229.3512 H   0  0  0  0  0  0  0  0  0  0  0  0
  140.0775   69.4709  228.8595 H   0  0  0  0  0  0  0  0  0  0  0  0
  139.4579   68.9851  226.5222 H   0  0  0  0  0  0  0  0  0  0  0  0
  140.8437   70.0947  223.7656 H   0  0  0  0  0  0  0  0  0  0  0  0
  139.2365   69.5530  224.4050 H   0  0  0  0  0  0  0  0  0  0  0  0
  138.1717   71.4181  223.6542 H   0  0  0  0  0  0  0  0  0  0  0  0
  139.5016   72.5057  224.1263 H   0  0  0  0  0  0  0  0  0  0  0  0
  139.4550   70.8290  221.5520 H   0  0  0  0  0  0  0  0  0  0  0  0
  144.8892   74.1578  218.7085 H   0  0  0  0  0  0  0  0  0  0  0  0
  144.4163   75.0160  220.1959 H   0  0  0  0  0  0  0  0  0  0  0  0
  146.8577   74.2278  220.0670 H   0  0  0  0  0  0  0  0  0  0  0  0
  145.9200   73.7139  221.5352 H   0  0  0  0  0  0  0  0  0  0  0  0
  145.6233   72.3062  218.2746 H   0  0  0  0  0  0  0  0  0  0  0  0
  145.8601   70.6752  219.0260 H   0  0  0  0  0  0  0  0  0  0  0  0
  143.4201   71.4001  218.7631 H   0  0  0  0  0  0  0  0  0  0  0  0
  143.8735   70.9385  220.4060 H   0  0  0  0  0  0  0  0  0  0  0  0
  138.6073   75.7067  222.4490 H   0  0  0  0  0  0  0  0  0  0  0  0
  139.5921   76.4395  223.7167 H   0  0  0  0  0  0  0  0  0  0  0  0
  138.7248   77.8888  221.1135 H   0  0  0  0  0  0  0  0  0  0  0  0
  137.8909   78.1013  222.6511 H   0  0  0  0  0  0  0  0  0  0  0  0
  138.6956   80.0955  223.8351 H   0  0  0  0  0  0  0  0  0  0  0  0
  140.6432   81.5642  224.4266 H   0  0  0  0  0  0  0  0  0  0  0  0
  142.8788   81.0577  223.5467 H   0  0  0  0  0  0  0  0  0  0  0  0
  143.2977   79.1134  222.0702 H   0  0  0  0  0  0  0  0  0  0  0  0
  140.9276   77.5672  220.2602 H   0  0  0  0  0  0  0  0  0  0  0  0
  142.3795   77.0304  221.1779 H   0  0  0  0  0  0  0  0  0  0  0  0
  141.3536   72.5824  225.2158 H   0  0  0  0  0  0  0  0  0  0  0  0
  141.9981   73.1106  227.5673 H   0  0  0  0  0  0  0  0  0  0  0  0
  1  2  2  0
  2  3  1  0
  3  4  2  0
  4  5  1  0
  5  6  1  0
  6  7  1  0
  7  8  1  0
  8  9  2  0
  9 10  1  0
 10 11  1  0
 11 12  1  0
 12 13  1  0
 13 14  1  0
 14 15  1  0
 15 16  1  0
 10 17  2  0
 17 18  1  0
 18 19  1  0
 19 20  1  0
 20 21  1  0
 21 22  1  0
 22 23  2  0
 23 24  1  0
 24 25  2  0
 25 26  1  0
 26 27  2  0
 27 28  1  0
 18 29  2  0
  4 30  1  0
 30 31  2  0
 31  1  1  0
 29  8  1  0
 16 11  1  0
 28 19  1  0
 27 22  1  0
  1 32  1  0
  2 33  1  0
  3 34  1  0
  5 35  1  0
  5 36  1  0
  6 37  1  0
  6 38  1  0
  7 39  1  0
 12 40  1  0
 12 41  1  0
 13 42  1  0
 13 43  1  0
 15 44  1  0
 15 45  1  0
 16 46  1  0
 16 47  1  0
 20 48  1  0
 20 49  1  0
 21 50  1  0
 21 51  1  0
 23 52  1  0
 24 53  1  0
 25 54  1  0
 26 55  1  0
 28 56  1  0
 28 57  1  0
 30 58  1  0
 31 59  1  0
M  END
>  <smiles>  (36) 
c1ccc(CCNc2nc(N3CCOCC3)nc(N3CCc4ccccc4C3)n2)cc1

>  <score_type>  (36) 
oracle

>  <origin>  (36) 
autodockgpu

>  <m_score__min__energy>  (36) 
-10.06

>  <m_primary>  (36) 
energy

>  <rmsd>  (36) 
9.915901984894928

>  <m_score__min__rmsd>  (36) 
9.915901984894928

>  <meeko>  (36) 
{"free_energy": -9.99, "intermolecular_energy": -11.78, "internal_energy": -0.96, "cluster_size": 49, "cluster_id": 1, "rank_in_cluster": 11}

>  <energy>  (36) 
-9.66

>  <cluster_rmsd>  (36) 
1.2

>  <cluster>  (36) 
1

$$$$

     RDKit          3D

 59 63  0  0  0  0  0  0  0  0999 V2000
  140.4270   68.8250  228.0590 C   0  0  0  0  0  0  0  0  0  0  0  0
  140.6300   70.1680  228.2960 C   0  0  0  0  0  0  0  0  0  0  0  0
  140.6880   71.0020  227.2160 C   0  0  0  0  0  0  0  0  0  0  0  0
  140.5500   70.5420  225.9210 C   0  0  0  0  0  0  0  0  0  0  0  0
  140.6280   71.5250  224.8120 C   0  0  0  0  0  0  0  0  0  0  0  0
  139.9960   70.9790  223.5280 C   0  0  0  0  0  0  0  0  0  0  0  0
  139.4710   72.1250  222.7750 N   0  0  0  0  0  0  0  0  0  0  0  0
  140.3450   73.0460  222.1590 C   0  0  0  0  0  0  0  0  0  0  0  0
  141.4220   72.6680  221.4200 N   0  0  0  0  0  0  0  0  0  0  0  0
  142.2160   73.6070  220.8580 C   0  0  0  0  0  0  0  0  0  0  0  0
  143.3290   73.1600  220.0960 N   0  0  0  0  0  0  0  0  0  0  0  0
  144.3210   74.0900  219.6300 C   0  0  0  0  0  0  0  0  0  0  0  0
  145.6580   73.6350  220.1760 C   0  0  0  0  0  0  0  0  0  0  0  0
  145.8550   72.2700  220.0090 O   0  0  0  0  0  0  0  0  0  0  0  0
  144.9210   71.6680  219.1750 C   0  0  0  0  0  0  0  0  0  0  0  0
  143.5120   71.7590  219.7570 C   0  0  0  0  0  0  0  0  0  0  0  0
  141.9120   74.8790  221.0520 N   0  0  0  0  0  0  0  0  0  0  0  0
  140.8530   75.3070  221.7780 C   0  0  0  0  0  0  0  0  0  0  0  0
  140.5600   76.6870  221.9630 N   0  0  0  0  0  0  0  0  0  0  0  0
  139.3510   77.0630  222.7040 C   0  0  0  0  0  0  0  0  0  0  0  0
  139.0040   78.4710  222.2120 C   0  0  0  0  0  0  0  0  0  0  0  0
  140.1370   79.3220  222.6790 C   0  0  0  0  0  0  0  0  0  0  0  0
  139.9620   80.4400  223.4640 C   0  0  0  0  0  0  0  0  0  0  0  0
  141.0960   81.1520  223.8360 C   0  0  0  0  0  0  0  0  0  0  0  0
  142.3430   80.7320  223.4170 C   0  0  0  0  0  0  0  0  0  0  0  0
  142.5330   79.6160  222.6320 C   0  0  0  0  0  0  0  0  0  0  0  0
  141.4070   78.9090  222.2640 C   0  0  0  0  0  0  0  0  0  0  0  0
  141.4500   77.6900  221.4220 C   0  0  0  0  0  0  0  0  0  0  0  0
  140.0720   74.3600  222.3300 N   0  0  0  0  0  0  0  0  0  0  0  0
  140.3490   69.1920  225.7300 C   0  0  0  0  0  0  0  0  0  0  0  0
  140.2840   68.3080  226.7990 C   0  0  0  0  0  0  0  0  0  0  0  0
  140.3778   68.1399  228.9182 H   0  0  0  0  0  0  0  0  0  0  0  0
  140.7414   70.5545  229.3198 H   0  0  0  0  0  0  0  0  0  0  0  0
  140.8502   72.0770  227.3833 H   0  0  0  0  0  0  0  0  0  0  0  0
  140.0970   72.4413  225.1094 H   0  0  0  0  0  0  0  0  0  0  0  0
  141.6893   71.7331  224.6111 H   0  0  0  0  0  0  0  0  0  0  0  0
  140.7544   70.4520  222.9303 H   0  0  0  0  0  0  0  0  0  0  0  0
  139.1909   70.2675  223.7637 H   0  0  0  0  0  0  0  0  0  0  0  0
  138.4470   72.2980  222.6680 H   0  0  0  0  0  0  0  0  0  0  0  0
  144.3455   74.0944  218.5303 H   0  0  0  0  0  0  0  0  0  0  0  0
  144.0885   75.1098  219.9704 H   0  0  0  0  0  0  0  0  0  0  0  0
  146.4584   74.1756  219.6495 H   0  0  0  0  0  0  0  0  0  0  0  0
  145.6733   73.8493  221.2548 H   0  0  0  0  0  0  0  0  0  0  0  0
  144.9373   72.1717  218.1973 H   0  0  0  0  0  0  0  0  0  0  0  0
  145.1843   70.6050  219.0716 H   0  0  0  0  0  0  0  0  0  0  0  0
  142.7663   71.4416  219.0132 H   0  0  0  0  0  0  0  0  0  0  0  0
  143.3859   71.1046  220.6322 H   0  0  0  0  0  0  0  0  0  0  0  0
  138.5304   76.3640  222.4846 H   0  0  0  0  0  0  0  0  0  0  0  0
  139.5085   77.0336  223.7923 H   0  0  0  0  0  0  0  0  0  0  0  0
  138.9293   78.4916  221.1147 H   0  0  0  0  0  0  0  0  0  0  0  0
  138.0340   78.8200  222.5958 H   0  0  0  0  0  0  0  0  0  0  0  0
  138.9593   80.7584  223.7854 H   0  0  0  0  0  0  0  0  0  0  0  0
  141.0003   82.0500  224.4641 H   0  0  0  0  0  0  0  0  0  0  0  0
  143.2241   81.3147  223.7238 H   0  0  0  0  0  0  0  0  0  0  0  0
  143.5379   79.3025  222.3128 H   0  0  0  0  0  0  0  0  0  0  0  0
  141.1360   77.9424  220.3984 H   0  0  0  0  0  0  0  0  0  0  0  0
  142.4764   77.2946  221.4091 H   0  0  0  0  0  0  0  0  0  0  0  0
  140.2374   68.8055  224.7062 H   0  0  0  0  0  0  0  0  0  0  0  0
  140.1235   67.2315  226.6395 H   0  0  0  0  0  0  0  0  0  0  0  0
  1  2  2  0
  2  3  1  0
  3  4  2  0
  4  5  1  0
  5  6  1  0
  6  7  1  0
  7  8  1  0
  8  9  2  0
  9 10  1  0
 10 11  1  0
 11 12  1  0
 12 13  1  0
 13 14  1  0
 14 15  1  0
 15 16  1  0
 10 17  2  0
 17 18  1  0
 18 19  1  0
 19 20  1  0
 20 21  1  0
 21 22  1  0
 22 23  2  0
 23 24  1  0
 24 25  2  0
 25 26  1  0
 26 27  2  0
 27 28  1  0
 18 29  2  0
  4 30  1  0
 30 31  2  0
 31  1  1  0
 29  8  1  0
 16 11  1  0
 28 19  1  0
 27 22  1  0
  1 32  1  0
  2 33  1  0
  3 34  1  0
  5 35  1  0
  5 36  1  0
  6 37  1  0
  6 38  1  0
  7 39  1  0
 12 40  1  0
 12 41  1  0
 13 42  1  0
 13 43  1  0
 15 44  1  0
 15 45  1  0
 16 46  1  0
 16 47  1  0
 20 48  1  0
 20 49  1  0
 21 50  1  0
 21 51  1  0
 23 52  1  0
 24 53  1  0
 25 54  1  0
 26 55  1  0
 28 56  1  0
 28 57  1  0
 30 58  1  0
 31 59  1  0
M  END
>  <smiles>  (37) 
c1ccc(CCNc2nc(N3CCOCC3)nc(N3CCc4ccccc4C3)n2)cc1

>  <score_type>  (37) 
oracle

>  <origin>  (37) 
autodockgpu

>  <m_score__min__energy>  (37) 
-10.06

>  <m_primary>  (37) 
energy

>  <rmsd>  (37) 
10.309397817442658

>  <m_score__min__rmsd>  (37) 
10.309397817442658

>  <meeko>  (37) 
{"free_energy": -10.0, "intermolecular_energy": -11.79, "internal_energy": -0.88, "cluster_size": 49, "cluster_id": 1, "rank_in_cluster": 9}

>  <energy>  (37) 
-9.63

>  <cluster_rmsd>  (37) 
1.33

>  <cluster>  (37) 
1

$$$$

     RDKit          3D

 59 63  0  0  0  0  0  0  0  0999 V2000
  140.4770   68.6020  227.9370 C   0  0  0  0  0  0  0  0  0  0  0  0
  140.6590   69.9590  227.7720 C   0  0  0  0  0  0  0  0  0  0  0  0
  140.3000   70.5070  226.5740 C   0  0  0  0  0  0  0  0  0  0  0  0
  139.7700   69.7500  225.5460 C   0  0  0  0  0  0  0  0  0  0  0  0
  139.4120   70.4350  224.2790 C   0  0  0  0  0  0  0  0  0  0  0  0
  140.4820   71.4480  223.8630 C   0  0  0  0  0  0  0  0  0  0  0  0
  140.0270   72.0830  222.6200 N   0  0  0  0  0  0  0  0  0  0  0  0
  140.8010   73.0830  221.9930 C   0  0  0  0  0  0  0  0  0  0  0  0
  141.8950   72.8080  221.2340 N   0  0  0  0  0  0  0  0  0  0  0  0
  142.5900   73.8170  220.6640 C   0  0  0  0  0  0  0  0  0  0  0  0
  143.7260   73.4770  219.8810 N   0  0  0  0  0  0  0  0  0  0  0  0
  145.0030   74.0860  220.1360 C   0  0  0  0  0  0  0  0  0  0  0  0
  145.9870   72.9700  220.4190 C   0  0  0  0  0  0  0  0  0  0  0  0
  145.8840   71.9350  219.4990 O   0  0  0  0  0  0  0  0  0  0  0  0
  145.0970   72.2430  218.3960 C   0  0  0  0  0  0  0  0  0  0  0  0
  143.6480   72.5090  218.8000 C   0  0  0  0  0  0  0  0  0  0  0  0
  142.1730   75.0550  220.8690 N   0  0  0  0  0  0  0  0  0  0  0  0
  141.0920   75.3810  221.6150 C   0  0  0  0  0  0  0  0  0  0  0  0
  140.6770   76.7280  221.8110 N   0  0  0  0  0  0  0  0  0  0  0  0
  139.4310   76.9870  222.5430 C   0  0  0  0  0  0  0  0  0  0  0  0
  138.9670   78.3650  222.0620 C   0  0  0  0  0  0  0  0  0  0  0  0
  140.0150   79.3070  222.5510 C   0  0  0  0  0  0  0  0  0  0  0  0
  139.7340   80.3960  223.3460 C   0  0  0  0  0  0  0  0  0  0  0  0
  140.7980   81.2010  223.7380 C   0  0  0  0  0  0  0  0  0  0  0  0
  142.0810   80.8970  223.3300 C   0  0  0  0  0  0  0  0  0  0  0  0
  142.3770   79.8120  222.5350 C   0  0  0  0  0  0  0  0  0  0  0  0
  141.3220   79.0130  222.1460 C   0  0  0  0  0  0  0  0  0  0  0  0
  141.4810   77.8120  221.2920 C   0  0  0  0  0  0  0  0  0  0  0  0
  140.4120   74.3650  222.1760 N   0  0  0  0  0  0  0  0  0  0  0  0
  139.6070   68.3980  225.7540 C   0  0  0  0  0  0  0  0  0  0  0  0
  139.9580   67.7990  226.9570 C   0  0  0  0  0  0  0  0  0  0  0  0
  140.7609   68.1454  228.8966 H   0  0  0  0  0  0  0  0  0  0  0  0
  141.0790   70.5787  228.5779 H   0  0  0  0  0  0  0  0  0  0  0  0
  140.4372   71.5877  226.4218 H   0  0  0  0  0  0  0  0  0  0  0  0
  139.3052   69.6821  223.4842 H   0  0  0  0  0  0  0  0  0  0  0  0
  138.4680   70.9774  224.4364 H   0  0  0  0  0  0  0  0  0  0  0  0
  140.6066   72.2072  224.6491 H   0  0  0  0  0  0  0  0  0  0  0  0
  141.4507   70.9492  223.7119 H   0  0  0  0  0  0  0  0  0  0  0  0
  139.1260   71.8220  222.1600 H   0  0  0  0  0  0  0  0  0  0  0  0
  145.3284   74.6603  219.2561 H   0  0  0  0  0  0  0  0  0  0  0  0
  144.9412   74.7760  220.9904 H   0  0  0  0  0  0  0  0  0  0  0  0
  147.0074   73.3788  220.3797 H   0  0  0  0  0  0  0  0  0  0  0  0
  145.7578   72.5616  221.4143 H   0  0  0  0  0  0  0  0  0  0  0  0
  145.5025   73.1410  217.9069 H   0  0  0  0  0  0  0  0  0  0  0  0
  145.1121   71.3833  217.7099 H   0  0  0  0  0  0  0  0  0  0  0  0
  143.0808   72.9217  217.9527 H   0  0  0  0  0  0  0  0  0  0  0  0
  143.1314   71.5883  219.1088 H   0  0  0  0  0  0  0  0  0  0  0  0
  138.6775   76.2212  222.3066 H   0  0  0  0  0  0  0  0  0  0  0  0
  139.5786   76.9582  223.6327 H   0  0  0  0  0  0  0  0  0  0  0  0
  138.9026   78.3917  220.9642 H   0  0  0  0  0  0  0  0  0  0  0  0
  137.9661   78.6228  222.4383 H   0  0  0  0  0  0  0  0  0  0  0  0
  138.7040   80.6211  223.6598 H   0  0  0  0  0  0  0  0  0  0  0  0
  140.6171   82.0804  224.3735 H   0  0  0  0  0  0  0  0  0  0  0  0
  142.9041   81.5507  223.6544 H   0  0  0  0  0  0  0  0  0  0  0  0
  143.4090   79.5923  222.2240 H   0  0  0  0  0  0  0  0  0  0  0  0
  141.1574   78.0478  220.2675 H   0  0  0  0  0  0  0  0  0  0  0  0
  142.5383   77.5084  221.2880 H   0  0  0  0  0  0  0  0  0  0  0  0
  139.1886   67.7777  224.9477 H   0  0  0  0  0  0  0  0  0  0  0  0
  139.8239   66.7189  227.1166 H   0  0  0  0  0  0  0  0  0  0  0  0
  1  2  2  0
  2  3  1  0
  3  4  2  0
  4  5  1  0
  5  6  1  0
  6  7  1  0
  7  8  1  0
  8  9  2  0
  9 10  1  0
 10 11  1  0
 11 12  1  0
 12 13  1  0
 13 14  1  0
 14 15  1  0
 15 16  1  0
 10 17  2  0
 17 18  1  0
 18 19  1  0
 19 20  1  0
 20 21  1  0
 21 22  1  0
 22 23  2  0
 23 24  1  0
 24 25  2  0
 25 26  1  0
 26 27  2  0
 27 28  1  0
 18 29  2  0
  4 30  1  0
 30 31  2  0
 31  1  1  0
 29  8  1  0
 16 11  1  0
 28 19  1  0
 27 22  1  0
  1 32  1  0
  2 33  1  0
  3 34  1  0
  5 35  1  0
  5 36  1  0
  6 37  1  0
  6 38  1  0
  7 39  1  0
 12 40  1  0
 12 41  1  0
 13 42  1  0
 13 43  1  0
 15 44  1  0
 15 45  1  0
 16 46  1  0
 16 47  1  0
 20 48  1  0
 20 49  1  0
 21 50  1  0
 21 51  1  0
 23 52  1  0
 24 53  1  0
 25 54  1  0
 26 55  1  0
 28 56  1  0
 28 57  1  0
 30 58  1  0
 31 59  1  0
M  END
>  <smiles>  (38) 
c1ccc(CCNc2nc(N3CCOCC3)nc(N3CCc4ccccc4C3)n2)cc1

>  <score_type>  (38) 
oracle

>  <origin>  (38) 
autodockgpu

>  <m_score__min__energy>  (38) 
-10.06

>  <m_primary>  (38) 
energy

>  <rmsd>  (38) 
10.37092032972042

>  <m_score__min__rmsd>  (38) 
10.37092032972042

>  <meeko>  (38) 
{"free_energy": -9.71, "intermolecular_energy": -11.5, "internal_energy": -0.76, "cluster_size": 49, "cluster_id": 1, "rank_in_cluster": 29}

>  <energy>  (38) 
-9.62

>  <cluster_rmsd>  (38) 
1.31

>  <cluster>  (38) 
1

$$$$

     RDKit          3D

 59 63  0  0  0  0  0  0  0  0999 V2000
  142.0230   81.3040  223.6060 C   0  0  0  0  0  0  0  0  0  0  0  0
  142.9830   80.4160  223.1690 C   0  0  0  0  0  0  0  0  0  0  0  0
  142.5900   79.1360  222.8970 C   0  0  0  0  0  0  0  0  0  0  0  0
  141.2800   78.7210  223.0470 C   0  0  0  0  0  0  0  0  0  0  0  0
  140.9490   77.3100  222.7290 C   0  0  0  0  0  0  0  0  0  0  0  0
  140.6220   77.1280  221.2440 C   0  0  0  0  0  0  0  0  0  0  0  0
  139.9310   75.8410  221.0990 N   0  0  0  0  0  0  0  0  0  0  0  0
  140.6230   74.6240  221.2800 C   0  0  0  0  0  0  0  0  0  0  0  0
  141.7650   74.3130  220.6120 N   0  0  0  0  0  0  0  0  0  0  0  0
  142.3740   73.1270  220.8360 C   0  0  0  0  0  0  0  0  0  0  0  0
  143.5650   72.8500  220.1120 N   0  0  0  0  0  0  0  0  0  0  0  0
  144.4360   73.9140  219.6960 C   0  0  0  0  0  0  0  0  0  0  0  0
  145.8030   73.6370  220.2880 C   0  0  0  0  0  0  0  0  0  0  0  0
  146.1910   72.3150  220.1130 O   0  0  0  0  0  0  0  0  0  0  0  0
  145.3790   71.6050  219.2360 C   0  0  0  0  0  0  0  0  0  0  0  0
  143.9510   71.4930  219.7650 C   0  0  0  0  0  0  0  0  0  0  0  0
  141.8280   72.3010  221.7120 N   0  0  0  0  0  0  0  0  0  0  0  0
  140.6940   72.5630  222.4020 C   0  0  0  0  0  0  0  0  0  0  0  0
  140.1390   71.6450  223.3370 N   0  0  0  0  0  0  0  0  0  0  0  0
  139.1160   70.6970  222.8780 C   0  0  0  0  0  0  0  0  0  0  0  0
  138.3240   70.3270  224.1350 C   0  0  0  0  0  0  0  0  0  0  0  0
  139.3010   69.5990  224.9950 C   0  0  0  0  0  0  0  0  0  0  0  0
  139.0780   68.3270  225.4740 C   0  0  0  0  0  0  0  0  0  0  0  0
  140.0660   67.7540  226.2670 C   0  0  0  0  0  0  0  0  0  0  0  0
  141.2190   68.4570  226.5500 C   0  0  0  0  0  0  0  0  0  0  0  0
  141.4560   69.7290  226.0780 C   0  0  0  0  0  0  0  0  0  0  0  0
  140.4770   70.2990  225.2910 C   0  0  0  0  0  0  0  0  0  0  0  0
  140.5850   71.6580  224.7120 C   0  0  0  0  0  0  0  0  0  0  0  0
  140.0990   73.7470  222.1670 N   0  0  0  0  0  0  0  0  0  0  0  0
  140.3540   79.6410  223.4870 C   0  0  0  0  0  0  0  0  0  0  0  0
  140.7100   80.9520  223.7750 C   0  0  0  0  0  0  0  0  0  0  0  0
  142.3241   82.3384  223.8282 H   0  0  0  0  0  0  0  0  0  0  0  0
  144.0304   80.7277  223.0435 H   0  0  0  0  0  0  0  0  0  0  0  0
  143.3406   78.4120  222.5472 H   0  0  0  0  0  0  0  0  0  0  0  0
  141.8099   76.6750  222.9853 H   0  0  0  0  0  0  0  0  0  0  0  0
  140.0621   77.0247  223.3138 H   0  0  0  0  0  0  0  0  0  0  0  0
  139.9706   77.9449  220.9000 H   0  0  0  0  0  0  0  0  0  0  0  0
  141.5412   77.1445  220.6400 H   0  0  0  0  0  0  0  0  0  0  0  0
  138.9160   75.7800  220.8610 H   0  0  0  0  0  0  0  0  0  0  0  0
  144.4999   73.9404  218.5982 H   0  0  0  0  0  0  0  0  0  0  0  0
  144.0534   74.8864  220.0395 H   0  0  0  0  0  0  0  0  0  0  0  0
  146.5402   74.2906  219.7988 H   0  0  0  0  0  0  0  0  0  0  0  0
  145.7497   73.8337  221.3690 H   0  0  0  0  0  0  0  0  0  0  0  0
  145.3615   72.1229  218.2657 H   0  0  0  0  0  0  0  0  0  0  0  0
  145.7892   70.5899  219.1296 H   0  0  0  0  0  0  0  0  0  0  0  0
  143.2833   71.0884  218.9901 H   0  0  0  0  0  0  0  0  0  0  0  0
  143.8846   70.8137  220.6276 H   0  0  0  0  0  0  0  0  0  0  0  0
  138.4591   71.1685  222.1323 H   0  0  0  0  0  0  0  0  0  0  0  0
  139.5591   69.8138  222.3947 H   0  0  0  0  0  0  0  0  0  0  0  0
  137.9577   71.2312  224.6432 H   0  0  0  0  0  0  0  0  0  0  0  0
  137.4368   69.7188  223.9049 H   0  0  0  0  0  0  0  0  0  0  0  0
  138.1512   67.7838  225.2376 H   0  0  0  0  0  0  0  0  0  0  0  0
  139.9283   66.7394  226.6691 H   0  0  0  0  0  0  0  0  0  0  0  0
  141.9834   67.9801  227.1810 H   0  0  0  0  0  0  0  0  0  0  0  0
  142.3851   70.2667  226.3181 H   0  0  0  0  0  0  0  0  0  0  0  0
  139.9588   72.3521  225.2918 H   0  0  0  0  0  0  0  0  0  0  0  0
  141.6348   71.9844  224.7486 H   0  0  0  0  0  0  0  0  0  0  0  0
  139.3066   79.3295  223.6134 H   0  0  0  0  0  0  0  0  0  0  0  0
  139.9649   81.6811  224.1260 H   0  0  0  0  0  0  0  0  0  0  0  0
  1  2  2  0
  2  3  1  0
  3  4  2  0
  4  5  1  0
  5  6  1  0
  6  7  1  0
  7  8  1  0
  8  9  2  0
  9 10  1  0
 10 11  1  0
 11 12  1  0
 12 13  1  0
 13 14  1  0
 14 15  1  0
 15 16  1  0
 10 17  2  0
 17 18  1  0
 18 19  1  0
 19 20  1  0
 20 21  1  0
 21 22  1  0
 22 23  2  0
 23 24  1  0
 24 25  2  0
 25 26  1  0
 26 27  2  0
 27 28  1  0
 18 29  2  0
  4 30  1  0
 30 31  2  0
 31  1  1  0
 29  8  1  0
 16 11  1  0
 28 19  1  0
 27 22  1  0
  1 32  1  0
  2 33  1  0
  3 34  1  0
  5 35  1  0
  5 36  1  0
  6 37  1  0
  6 38  1  0
  7 39  1  0
 12 40  1  0
 12 41  1  0
 13 42  1  0
 13 43  1  0
 15 44  1  0
 15 45  1  0
 16 46  1  0
 16 47  1  0
 20 48  1  0
 20 49  1  0
 21 50  1  0
 21 51  1  0
 23 52  1  0
 24 53  1  0
 25 54  1  0
 26 55  1  0
 28 56  1  0
 28 57  1  0
 30 58  1  0
 31 59  1  0
M  END
>  <smiles>  (39) 
c1ccc(CCNc2nc(N3CCOCC3)nc(N3CCc4ccccc4C3)n2)cc1

>  <score_type>  (39) 
oracle

>  <origin>  (39) 
autodockgpu

>  <m_score__min__energy>  (39) 
-10.06

>  <m_primary>  (39) 
energy

>  <rmsd>  (39) 
3.6264716177981096

>  <m_score__min__rmsd>  (39) 
3.6264716177981096

>  <meeko>  (39) 
{"free_energy": -9.62, "intermolecular_energy": -11.41, "internal_energy": -0.88, "cluster_size": 49, "cluster_id": 1, "rank_in_cluster": 38}

>  <energy>  (39) 
-9.62

>  <cluster_rmsd>  (39) 
0.68

>  <cluster>  (39) 
1

$$$$

     RDKit          3D

 59 63  0  0  0  0  0  0  0  0999 V2000
  141.0030   68.8280  228.2970 C   0  0  0  0  0  0  0  0  0  0  0  0
  140.6690   67.8850  227.3470 C   0  0  0  0  0  0  0  0  0  0  0  0
  140.3580   68.3280  226.0930 C   0  0  0  0  0  0  0  0  0  0  0  0
  140.3710   69.6700  225.7610 C   0  0  0  0  0  0  0  0  0  0  0  0
  140.0170   70.0550  224.3730 C   0  0  0  0  0  0  0  0  0  0  0  0
  139.9520   71.5760  224.2080 C   0  0  0  0  0  0  0  0  0  0  0  0
  139.7720   71.8570  222.7780 N   0  0  0  0  0  0  0  0  0  0  0  0
  140.5760   72.8150  222.1240 C   0  0  0  0  0  0  0  0  0  0  0  0
  141.6370   72.4850  221.3410 N   0  0  0  0  0  0  0  0  0  0  0  0
  142.3620   73.4560  220.7440 C   0  0  0  0  0  0  0  0  0  0  0  0
  143.4610   73.0580  219.9360 N   0  0  0  0  0  0  0  0  0  0  0  0
  144.4880   73.9980  219.5790 C   0  0  0  0  0  0  0  0  0  0  0  0
  145.8060   73.4360  220.0700 C   0  0  0  0  0  0  0  0  0  0  0  0
  145.9540   72.0920  219.7500 O   0  0  0  0  0  0  0  0  0  0  0  0
  145.0020   71.6230  218.8530 C   0  0  0  0  0  0  0  0  0  0  0  0
  143.5950   71.6990  219.4410 C   0  0  0  0  0  0  0  0  0  0  0  0
  142.0070   74.7140  220.9480 N   0  0  0  0  0  0  0  0  0  0  0  0
  140.9610   75.0950  221.7170 C   0  0  0  0  0  0  0  0  0  0  0  0
  140.6130   76.4610  221.9110 N   0  0  0  0  0  0  0  0  0  0  0  0
  139.3910   76.7830  222.6580 C   0  0  0  0  0  0  0  0  0  0  0  0
  138.9860   78.1780  222.1760 C   0  0  0  0  0  0  0  0  0  0  0  0
  140.0840   79.0720  222.6450 C   0  0  0  0  0  0  0  0  0  0  0  0
  139.8650   80.1770  223.4370 C   0  0  0  0  0  0  0  0  0  0  0  0
  140.9710   80.9330  223.8100 C   0  0  0  0  0  0  0  0  0  0  0  0
  142.2330   80.5670  223.3860 C   0  0  0  0  0  0  0  0  0  0  0  0
  142.4660   79.4650  222.5930 C   0  0  0  0  0  0  0  0  0  0  0  0
  141.3690   78.7140  222.2240 C   0  0  0  0  0  0  0  0  0  0  0  0
  141.4590   77.5030  221.3740 C   0  0  0  0  0  0  0  0  0  0  0  0
  140.2500   74.1160  222.3040 N   0  0  0  0  0  0  0  0  0  0  0  0
  140.7100   70.5770  226.7410 C   0  0  0  0  0  0  0  0  0  0  0  0
  141.0330   70.1710  228.0290 C   0  0  0  0  0  0  0  0  0  0  0  0
  141.2557   68.4872  229.3119 H   0  0  0  0  0  0  0  0  0  0  0  0
  140.6537   66.8126  227.5912 H   0  0  0  0  0  0  0  0  0  0  0  0
  140.0881   67.5922  225.3212 H   0  0  0  0  0  0  0  0  0  0  0  0
  140.7772   69.6538  223.6866 H   0  0  0  0  0  0  0  0  0  0  0  0
  139.0235   69.6418  224.1446 H   0  0  0  0  0  0  0  0  0  0  0  0
  139.1037   71.9800  224.7799 H   0  0  0  0  0  0  0  0  0  0  0  0
  140.8732   72.0463  224.5825 H   0  0  0  0  0  0  0  0  0  0  0  0
  139.0540   71.3650  222.2020 H   0  0  0  0  0  0  0  0  0  0  0  0
  144.5173   74.1262  218.4869 H   0  0  0  0  0  0  0  0  0  0  0  0
  144.2909   74.9802  220.0333 H   0  0  0  0  0  0  0  0  0  0  0  0
  146.6274   74.0030  219.6076 H   0  0  0  0  0  0  0  0  0  0  0  0
  145.8251   73.5268  221.1661 H   0  0  0  0  0  0  0  0  0  0  0  0
  145.0409   72.2333  217.9387 H   0  0  0  0  0  0  0  0  0  0  0  0
  145.2268   70.5696  218.6300 H   0  0  0  0  0  0  0  0  0  0  0  0
  142.8416   71.4949  218.6659 H   0  0  0  0  0  0  0  0  0  0  0  0
  143.4416   70.9551  220.2366 H   0  0  0  0  0  0  0  0  0  0  0  0
  138.5989   76.0526  222.4363 H   0  0  0  0  0  0  0  0  0  0  0  0
  139.5525   76.7532  223.7457 H   0  0  0  0  0  0  0  0  0  0  0  0
  138.9074   78.2022  221.0791 H   0  0  0  0  0  0  0  0  0  0  0  0
  138.0037   78.4847  222.5648 H   0  0  0  0  0  0  0  0  0  0  0  0
  138.8511   80.4520  223.7631 H   0  0  0  0  0  0  0  0  0  0  0  0
  140.8404   81.8230  224.4431 H   0  0  0  0  0  0  0  0  0  0  0  0
  143.0905   81.1828  223.6952 H   0  0  0  0  0  0  0  0  0  0  0  0
  143.4819   79.1956  222.2683 H   0  0  0  0  0  0  0  0  0  0  0  0
  141.1315   77.7488  220.3531 H   0  0  0  0  0  0  0  0  0  0  0  0
  142.5007   77.1501  221.3554 H   0  0  0  0  0  0  0  0  0  0  0  0
  140.7252   71.6495  226.4971 H   0  0  0  0  0  0  0  0  0  0  0  0
  141.3032   70.9013  228.8059 H   0  0  0  0  0  0  0  0  0  0  0  0
  1  2  2  0
  2  3  1  0
  3  4  2  0
  4  5  1  0
  5  6  1  0
  6  7  1  0
  7  8  1  0
  8  9  2  0
  9 10  1  0
 10 11  1  0
 11 12  1  0
 12 13  1  0
 13 14  1  0
 14 15  1  0
 15 16  1  0
 10 17  2  0
 17 18  1  0
 18 19  1  0
 19 20  1  0
 20 21  1  0
 21 22  1  0
 22 23  2  0
 23 24  1  0
 24 25  2  0
 25 26  1  0
 26 27  2  0
 27 28  1  0
 18 29  2  0
  4 30  1  0
 30 31  2  0
 31  1  1  0
 29  8  1  0
 16 11  1  0
 28 19  1  0
 27 22  1  0
  1 32  1  0
  2 33  1  0
  3 34  1  0
  5 35  1  0
  5 36  1  0
  6 37  1  0
  6 38  1  0
  7 39  1  0
 12 40  1  0
 12 41  1  0
 13 42  1  0
 13 43  1  0
 15 44  1  0
 15 45  1  0
 16 46  1  0
 16 47  1  0
 20 48  1  0
 20 49  1  0
 21 50  1  0
 21 51  1  0
 23 52  1  0
 24 53  1  0
 25 54  1  0
 26 55  1  0
 28 56  1  0
 28 57  1  0
 30 58  1  0
 31 59  1  0
M  END
>  <smiles>  (40) 
c1ccc(CCNc2nc(N3CCOCC3)nc(N3CCc4ccccc4C3)n2)cc1

>  <score_type>  (40) 
oracle

>  <origin>  (40) 
autodockgpu

>  <m_score__min__energy>  (40) 
-10.06

>  <m_primary>  (40) 
energy

>  <rmsd>  (40) 
10.126201002083457

>  <m_score__min__rmsd>  (40) 
10.126201002083457

>  <meeko>  (40) 
{"free_energy": -9.79, "intermolecular_energy": -11.57, "internal_energy": -0.8, "cluster_size": 49, "cluster_id": 1, "rank_in_cluster": 24}

>  <energy>  (40) 
-9.61

>  <cluster_rmsd>  (40) 
1.34

>  <cluster>  (40) 
1

$$$$

     RDKit          3D

 59 63  0  0  0  0  0  0  0  0999 V2000
  141.8160   81.2860  223.5350 C   0  0  0  0  0  0  0  0  0  0  0  0
  140.5440   80.7850  223.7120 C   0  0  0  0  0  0  0  0  0  0  0  0
  140.3410   79.4590  223.4560 C   0  0  0  0  0  0  0  0  0  0  0  0
  141.3600   78.6260  223.0340 C   0  0  0  0  0  0  0  0  0  0  0  0
  141.0430   77.1990  222.7790 C   0  0  0  0  0  0  0  0  0  0  0  0
  140.5350   76.9790  221.3510 C   0  0  0  0  0  0  0  0  0  0  0  0
  139.8110   75.7020  221.3330 N   0  0  0  0  0  0  0  0  0  0  0  0
  140.5020   74.4780  221.4560 C   0  0  0  0  0  0  0  0  0  0  0  0
  141.6140   74.1760  220.7330 N   0  0  0  0  0  0  0  0  0  0  0  0
  142.2250   72.9830  220.9030 C   0  0  0  0  0  0  0  0  0  0  0  0
  143.3820   72.7160  220.1230 N   0  0  0  0  0  0  0  0  0  0  0  0
  144.2090   73.7910  219.6450 C   0  0  0  0  0  0  0  0  0  0  0  0
  145.6090   73.5520  220.1710 C   0  0  0  0  0  0  0  0  0  0  0  0
  146.0160   72.2350  219.9980 O   0  0  0  0  0  0  0  0  0  0  0  0
  145.1750   71.4930  219.1760 C   0  0  0  0  0  0  0  0  0  0  0  0
  143.7780   71.3610  219.7790 C   0  0  0  0  0  0  0  0  0  0  0  0
  141.7100   72.1380  221.7800 N   0  0  0  0  0  0  0  0  0  0  0  0
  140.6080   72.3890  222.5230 C   0  0  0  0  0  0  0  0  0  0  0  0
  140.0850   71.4520  223.4580 N   0  0  0  0  0  0  0  0  0  0  0  0
  139.1220   70.4470  222.9930 C   0  0  0  0  0  0  0  0  0  0  0  0
  138.3300   70.0480  224.2410 C   0  0  0  0  0  0  0  0  0  0  0  0
  139.3290   69.3800  225.1230 C   0  0  0  0  0  0  0  0  0  0  0  0
  139.1660   68.1020  225.6110 C   0  0  0  0  0  0  0  0  0  0  0  0
  140.1680   67.5890  226.4250 C   0  0  0  0  0  0  0  0  0  0  0  0
  141.2790   68.3540  226.7200 C   0  0  0  0  0  0  0  0  0  0  0  0
  141.4560   69.6330  226.2390 C   0  0  0  0  0  0  0  0  0  0  0  0
  140.4610   70.1430  225.4310 C   0  0  0  0  0  0  0  0  0  0  0  0
  140.5080   71.5010  224.8400 C   0  0  0  0  0  0  0  0  0  0  0  0
  140.0110   73.5820  222.3420 N   0  0  0  0  0  0  0  0  0  0  0  0
  142.6150   79.1690  222.8700 C   0  0  0  0  0  0  0  0  0  0  0  0
  142.8660   80.5110  223.1190 C   0  0  0  0  0  0  0  0  0  0  0  0
  141.9952   82.3525  223.7362 H   0  0  0  0  0  0  0  0  0  0  0  0
  139.7201   81.4316  224.0482 H   0  0  0  0  0  0  0  0  0  0  0  0
  139.3328   79.0399  223.5901 H   0  0  0  0  0  0  0  0  0  0  0  0
  141.9525   76.5990  222.9304 H   0  0  0  0  0  0  0  0  0  0  0  0
  140.2492   76.8937  223.4766 H   0  0  0  0  0  0  0  0  0  0  0  0
  139.8597   77.7979  221.0621 H   0  0  0  0  0  0  0  0  0  0  0  0
  141.3738   76.9593  220.6397 H   0  0  0  0  0  0  0  0  0  0  0  0
  138.7730   75.6530  221.2310 H   0  0  0  0  0  0  0  0  0  0  0  0
  144.2167   73.7993  218.5451 H   0  0  0  0  0  0  0  0  0  0  0  0
  143.8239   74.7615  219.9912 H   0  0  0  0  0  0  0  0  0  0  0  0
  146.3066   74.2119  219.6345 H   0  0  0  0  0  0  0  0  0  0  0  0
  145.6059   73.7659  221.2500 H   0  0  0  0  0  0  0  0  0  0  0  0
  145.0971   71.9931  218.1993 H   0  0  0  0  0  0  0  0  0  0  0  0
  145.6006   70.4846  219.0663 H   0  0  0  0  0  0  0  0  0  0  0  0
  143.0806   70.9297  219.0458 H   0  0  0  0  0  0  0  0  0  0  0  0
  143.7694   70.6953  220.6547 H   0  0  0  0  0  0  0  0  0  0  0  0
  138.4535   70.8755  222.2318 H   0  0  0  0  0  0  0  0  0  0  0  0
  139.6192   69.5839  222.5263 H   0  0  0  0  0  0  0  0  0  0  0  0
  137.9092   70.9365  224.7343 H   0  0  0  0  0  0  0  0  0  0  0  0
  137.4793   69.3924  224.0032 H   0  0  0  0  0  0  0  0  0  0  0  0
  138.2733   67.5083  225.3646 H   0  0  0  0  0  0  0  0  0  0  0  0
  140.0763   66.5724  226.8350 H   0  0  0  0  0  0  0  0  0  0  0  0
  142.0570   67.9234  227.3675 H   0  0  0  0  0  0  0  0  0  0  0  0
  142.3513   70.2215  226.4883 H   0  0  0  0  0  0  0  0  0  0  0  0
  139.8377   72.1671  225.4031 H   0  0  0  0  0  0  0  0  0  0  0  0
  141.5388   71.8817  224.8896 H   0  0  0  0  0  0  0  0  0  0  0  0
  143.4390   78.5228  222.5332 H   0  0  0  0  0  0  0  0  0  0  0  0
  143.8716   80.9368  222.9871 H   0  0  0  0  0  0  0  0  0  0  0  0
  1  2  2  0
  2  3  1  0
  3  4  2  0
  4  5  1  0
  5  6  1  0
  6  7  1  0
  7  8  1  0
  8  9  2  0
  9 10  1  0
 10 11  1  0
 11 12  1  0
 12 13  1  0
 13 14  1  0
 14 15  1  0
 15 16  1  0
 10 17  2  0
 17 18  1  0
 18 19  1  0
 19 20  1  0
 20 21  1  0
 21 22  1  0
 22 23  2  0
 23 24  1  0
 24 25  2  0
 25 26  1  0
 26 27  2  0
 27 28  1  0
 18 29  2  0
  4 30  1  0
 30 31  2  0
 31  1  1  0
 29  8  1  0
 16 11  1  0
 28 19  1  0
 27 22  1  0
  1 32  1  0
  2 33  1  0
  3 34  1  0
  5 35  1  0
  5 36  1  0
  6 37  1  0
  6 38  1  0
  7 39  1  0
 12 40  1  0
 12 41  1  0
 13 42  1  0
 13 43  1  0
 15 44  1  0
 15 45  1  0
 16 46  1  0
 16 47  1  0
 20 48  1  0
 20 49  1  0
 21 50  1  0
 21 51  1  0
 23 52  1  0
 24 53  1  0
 25 54  1  0
 26 55  1  0
 28 56  1  0
 28 57  1  0
 30 58  1  0
 31 59  1  0
M  END
>  <smiles>  (41) 
c1ccc(CCNc2nc(N3CCOCC3)nc(N3CCc4ccccc4C3)n2)cc1

>  <score_type>  (41) 
oracle

>  <origin>  (41) 
autodockgpu

>  <m_score__min__energy>  (41) 
-10.06

>  <m_primary>  (41) 
energy

>  <rmsd>  (41) 
3.6557867220079148

>  <m_score__min__rmsd>  (41) 
3.6557867220079148

>  <meeko>  (41) 
{"free_energy": -9.7, "intermolecular_energy": -11.49, "internal_energy": -0.88, "cluster_size": 49, "cluster_id": 1, "rank_in_cluster": 31}

>  <energy>  (41) 
-9.61

>  <cluster_rmsd>  (41) 
1.2

>  <cluster>  (41) 
1

$$$$

     RDKit          3D

 59 63  0  0  0  0  0  0  0  0999 V2000
  140.3090   70.2860  228.3160 C   0  0  0  0  0  0  0  0  0  0  0  0
  139.8780   69.4670  227.2940 C   0  0  0  0  0  0  0  0  0  0  0  0
  140.0250   69.9180  226.0130 C   0  0  0  0  0  0  0  0  0  0  0  0
  140.5840   71.1480  225.7240 C   0  0  0  0  0  0  0  0  0  0  0  0
  140.7000   71.5520  224.3010 C   0  0  0  0  0  0  0  0  0  0  0  0
  139.4600   71.1520  223.4980 C   0  0  0  0  0  0  0  0  0  0  0  0
  139.0510   72.3210  222.7090 N   0  0  0  0  0  0  0  0  0  0  0  0
  140.0130   73.1870  222.1470 C   0  0  0  0  0  0  0  0  0  0  0  0
  141.1070   72.7440  221.4720 N   0  0  0  0  0  0  0  0  0  0  0  0
  141.9880   73.6320  220.9600 C   0  0  0  0  0  0  0  0  0  0  0  0
  143.1140   73.1180  220.2630 N   0  0  0  0  0  0  0  0  0  0  0  0
  144.0340   74.0020  219.6000 C   0  0  0  0  0  0  0  0  0  0  0  0
  145.4080   73.7430  220.1820 C   0  0  0  0  0  0  0  0  0  0  0  0
  145.6920   72.3850  220.2710 O   0  0  0  0  0  0  0  0  0  0  0  0
  144.7850   71.5790  219.5930 C   0  0  0  0  0  0  0  0  0  0  0  0
  143.3840   71.6920  220.1900 C   0  0  0  0  0  0  0  0  0  0  0  0
  141.7500   74.9200  221.1390 N   0  0  0  0  0  0  0  0  0  0  0  0
  140.6790   75.4120  221.8030 C   0  0  0  0  0  0  0  0  0  0  0  0
  140.4600   76.8080  221.9740 N   0  0  0  0  0  0  0  0  0  0  0  0
  139.2550   77.2560  222.6830 C   0  0  0  0  0  0  0  0  0  0  0  0
  139.0010   78.6780  222.1770 C   0  0  0  0  0  0  0  0  0  0  0  0
  140.1680   79.4660  222.6680 C   0  0  0  0  0  0  0  0  0  0  0  0
  140.0370   80.5970  223.4440 C   0  0  0  0  0  0  0  0  0  0  0  0
  141.2010   81.2460  223.8400 C   0  0  0  0  0  0  0  0  0  0  0  0
  142.4310   80.7540  223.4550 C   0  0  0  0  0  0  0  0  0  0  0  0
  142.5780   79.6250  222.6800 C   0  0  0  0  0  0  0  0  0  0  0  0
  141.4230   78.9800  222.2870 C   0  0  0  0  0  0  0  0  0  0  0  0
  141.4180   77.7560  221.4520 C   0  0  0  0  0  0  0  0  0  0  0  0
  139.8110   74.5150  222.3070 N   0  0  0  0  0  0  0  0  0  0  0  0
  141.0000   71.9340  226.7760 C   0  0  0  0  0  0  0  0  0  0  0  0
  140.8700   71.5150  228.0940 C   0  0  0  0  0  0  0  0  0  0  0  0
  140.1975   69.9373  229.3533 H   0  0  0  0  0  0  0  0  0  0  0  0
  139.4310   68.4839  227.5031 H   0  0  0  0  0  0  0  0  0  0  0  0
  139.6867   69.2801  225.1832 H   0  0  0  0  0  0  0  0  0  0  0  0
  140.8219   72.6440  224.2489 H   0  0  0  0  0  0  0  0  0  0  0  0
  141.5706   71.0380  223.8677 H   0  0  0  0  0  0  0  0  0  0  0  0
  139.7001   70.3124  222.8291 H   0  0  0  0  0  0  0  0  0  0  0  0
  138.6488   70.8338  224.1694 H   0  0  0  0  0  0  0  0  0  0  0  0
  138.0470   72.5510  222.5370 H   0  0  0  0  0  0  0  0  0  0  0  0
  144.0388   73.7982  218.5191 H   0  0  0  0  0  0  0  0  0  0  0  0
  143.7403   75.0516  219.7484 H   0  0  0  0  0  0  0  0  0  0  0  0
  146.1613   74.2213  219.5388 H   0  0  0  0  0  0  0  0  0  0  0  0
  145.4284   74.1602  221.1996 H   0  0  0  0  0  0  0  0  0  0  0  0
  144.7504   71.8883  218.5380 H   0  0  0  0  0  0  0  0  0  0  0  0
  145.1162   70.5339  219.6829 H   0  0  0  0  0  0  0  0  0  0  0  0
  142.6477   71.1928  219.5430 H   0  0  0  0  0  0  0  0  0  0  0  0
  143.3178   71.2103  221.1767 H   0  0  0  0  0  0  0  0  0  0  0  0
  138.4020   76.6033  222.4455 H   0  0  0  0  0  0  0  0  0  0  0  0
  139.3830   77.2235  223.7750 H   0  0  0  0  0  0  0  0  0  0  0  0
  138.9545   78.6967  221.0781 H   0  0  0  0  0  0  0  0  0  0  0  0
  138.0433   79.0835  222.5354 H   0  0  0  0  0  0  0  0  0  0  0  0
  139.0465   80.9731  223.7397 H   0  0  0  0  0  0  0  0  0  0  0  0
  141.1412   82.1522  224.4606 H   0  0  0  0  0  0  0  0  0  0  0  0
  143.3356   81.2877  223.7819 H   0  0  0  0  0  0  0  0  0  0  0  0
  143.5714   79.2541  222.3874 H   0  0  0  0  0  0  0  0  0  0  0  0
  141.1446   78.0199  220.4197 H   0  0  0  0  0  0  0  0  0  0  0  0
  142.4204   77.3033  221.4672 H   0  0  0  0  0  0  0  0  0  0  0  0
  141.4461   72.9176  226.5672 H   0  0  0  0  0  0  0  0  0  0  0  0
  141.2056   72.1476  228.9290 H   0  0  0  0  0  0  0  0  0  0  0  0
  1  2  2  0
  2  3  1  0
  3  4  2  0
  4  5  1  0
  5  6  1  0
  6  7  1  0
  7  8  1  0
  8  9  2  0
  9 10  1  0
 10 11  1  0
 11 12  1  0
 12 13  1  0
 13 14  1  0
 14 15  1  0
 15 16  1  0
 10 17  2  0
 17 18  1  0
 18 19  1  0
 19 20  1  0
 20 21  1  0
 21 22  1  0
 22 23  2  0
 23 24  1  0
 24 25  2  0
 25 26  1  0
 26 27  2  0
 27 28  1  0
 18 29  2  0
  4 30  1  0
 30 31  2  0
 31  1  1  0
 29  8  1  0
 16 11  1  0
 28 19  1  0
 27 22  1  0
  1 32  1  0
  2 33  1  0
  3 34  1  0
  5 35  1  0
  5 36  1  0
  6 37  1  0
  6 38  1  0
  7 39  1  0
 12 40  1  0
 12 41  1  0
 13 42  1  0
 13 43  1  0
 15 44  1  0
 15 45  1  0
 16 46  1  0
 16 47  1  0
 20 48  1  0
 20 49  1  0
 21 50  1  0
 21 51  1  0
 23 52  1  0
 24 53  1  0
 25 54  1  0
 26 55  1  0
 28 56  1  0
 28 57  1  0
 30 58  1  0
 31 59  1  0
M  END
>  <smiles>  (42) 
c1ccc(CCNc2nc(N3CCOCC3)nc(N3CCc4ccccc4C3)n2)cc1

>  <score_type>  (42) 
oracle

>  <origin>  (42) 
autodockgpu

>  <m_score__min__energy>  (42) 
-10.06

>  <m_primary>  (42) 
energy

>  <rmsd>  (42) 
10.404075921534355

>  <m_score__min__rmsd>  (42) 
10.404075921534355

>  <meeko>  (42) 
{"free_energy": -10.02, "intermolecular_energy": -11.81, "internal_energy": -0.97, "cluster_size": 49, "cluster_id": 1, "rank_in_cluster": 5}

>  <energy>  (42) 
-9.55

>  <cluster_rmsd>  (42) 
0.68

>  <cluster>  (42) 
1

$$$$

     RDKit          3D

 59 63  0  0  0  0  0  0  0  0999 V2000
  141.0630   70.8220  227.4140 C   0  0  0  0  0  0  0  0  0  0  0  0
  141.0660   71.7920  226.4350 C   0  0  0  0  0  0  0  0  0  0  0  0
  140.2950   71.5810  225.3270 C   0  0  0  0  0  0  0  0  0  0  0  0
  139.5290   70.4420  225.1700 C   0  0  0  0  0  0  0  0  0  0  0  0
  138.7240   70.3010  223.9310 C   0  0  0  0  0  0  0  0  0  0  0  0
  139.4750   70.8340  222.7070 C   0  0  0  0  0  0  0  0  0  0  0  0
  139.2630   72.2860  222.6580 N   0  0  0  0  0  0  0  0  0  0  0  0
  140.2110   73.1350  222.0480 C   0  0  0  0  0  0  0  0  0  0  0  0
  141.2960   72.6720  221.3730 N   0  0  0  0  0  0  0  0  0  0  0  0
  142.1640   73.5440  220.8130 C   0  0  0  0  0  0  0  0  0  0  0  0
  143.2820   73.0100  220.1180 N   0  0  0  0  0  0  0  0  0  0  0  0
  143.2780   72.9120  218.6840 C   0  0  0  0  0  0  0  0  0  0  0  0
  144.4740   73.6900  218.1760 C   0  0  0  0  0  0  0  0  0  0  0  0
  145.6310   73.3970  218.8870 O   0  0  0  0  0  0  0  0  0  0  0  0
  145.5070   72.2970  219.7280 C   0  0  0  0  0  0  0  0  0  0  0  0
  144.4670   72.5430  220.8190 C   0  0  0  0  0  0  0  0  0  0  0  0
  141.9200   74.8370  220.9440 N   0  0  0  0  0  0  0  0  0  0  0  0
  140.8560   75.3480  221.6060 C   0  0  0  0  0  0  0  0  0  0  0  0
  140.6310   76.7480  221.7250 N   0  0  0  0  0  0  0  0  0  0  0  0
  139.3940   77.2170  222.3610 C   0  0  0  0  0  0  0  0  0  0  0  0
  139.1660   78.6240  221.8010 C   0  0  0  0  0  0  0  0  0  0  0  0
  140.3090   79.4260  222.3250 C   0  0  0  0  0  0  0  0  0  0  0  0
  140.1420   80.5800  223.0600 C   0  0  0  0  0  0  0  0  0  0  0  0
  141.2860   81.2400  223.4930 C   0  0  0  0  0  0  0  0  0  0  0  0
  142.5330   80.7370  223.1830 C   0  0  0  0  0  0  0  0  0  0  0  0
  142.7160   79.5860  222.4490 C   0  0  0  0  0  0  0  0  0  0  0  0
  141.5810   78.9290  222.0200 C   0  0  0  0  0  0  0  0  0  0  0  0
  141.6140   77.6810  221.2210 C   0  0  0  0  0  0  0  0  0  0  0  0
  140.0030   74.4670  222.1580 N   0  0  0  0  0  0  0  0  0  0  0  0
  139.5560   69.4980  226.1730 C   0  0  0  0  0  0  0  0  0  0  0  0
  140.3250   69.6720  227.3150 C   0  0  0  0  0  0  0  0  0  0  0  0
  141.6787   70.9776  228.3122 H   0  0  0  0  0  0  0  0  0  0  0  0
  141.6691   72.7057  226.5421 H   0  0  0  0  0  0  0  0  0  0  0  0
  140.2838   72.3431  224.5338 H   0  0  0  0  0  0  0  0  0  0  0  0
  138.4945   69.2368  223.7735 H   0  0  0  0  0  0  0  0  0  0  0  0
  137.8016   70.8881  224.0513 H   0  0  0  0  0  0  0  0  0  0  0  0
  140.5488   70.6140  222.7998 H   0  0  0  0  0  0  0  0  0  0  0  0
  139.1056   70.3569  221.7873 H   0  0  0  0  0  0  0  0  0  0  0  0
  138.4150   72.7370  223.0680 H   0  0  0  0  0  0  0  0  0  0  0  0
  143.3571   71.8582  218.3785 H   0  0  0  0  0  0  0  0  0  0  0  0
  142.3441   73.3184  218.2685 H   0  0  0  0  0  0  0  0  0  0  0  0
  144.6358   73.4395  217.1172 H   0  0  0  0  0  0  0  0  0  0  0  0
  144.2600   74.7612  218.3057 H   0  0  0  0  0  0  0  0  0  0  0  0
  145.2012   71.4241  219.1325 H   0  0  0  0  0  0  0  0  0  0  0  0
  146.4793   72.1195  220.2108 H   0  0  0  0  0  0  0  0  0  0  0  0
  144.2512   71.6117  221.3632 H   0  0  0  0  0  0  0  0  0  0  0  0
  144.8177   73.2721  221.5643 H   0  0  0  0  0  0  0  0  0  0  0  0
  138.5526   76.5574  222.1022 H   0  0  0  0  0  0  0  0  0  0  0  0
  139.4694   77.2175  223.4584 H   0  0  0  0  0  0  0  0  0  0  0  0
  139.1729   78.6102  220.7011 H   0  0  0  0  0  0  0  0  0  0  0  0
  138.1924   79.0397  222.0998 H   0  0  0  0  0  0  0  0  0  0  0  0
  139.1389   80.9650  223.2955 H   0  0  0  0  0  0  0  0  0  0  0  0
  141.1973   82.1640  224.0832 H   0  0  0  0  0  0  0  0  0  0  0  0
  143.4213   81.2799  223.5382 H   0  0  0  0  0  0  0  0  0  0  0  0
  143.7220   79.2074  222.2153 H   0  0  0  0  0  0  0  0  0  0  0  0
  141.3896   77.9148  220.1698 H   0  0  0  0  0  0  0  0  0  0  0  0
  142.6141   77.2292  221.2960 H   0  0  0  0  0  0  0  0  0  0  0  0
  138.9533   68.5840  226.0660 H   0  0  0  0  0  0  0  0  0  0  0  0
  140.3414   68.9140  228.1119 H   0  0  0  0  0  0  0  0  0  0  0  0
  1  2  2  0
  2  3  1  0
  3  4  2  0
  4  5  1  0
  5  6  1  0
  6  7  1  0
  7  8  1  0
  8  9  2  0
  9 10  1  0
 10 11  1  0
 11 12  1  0
 12 13  1  0
 13 14  1  0
 14 15  1  0
 15 16  1  0
 10 17  2  0
 17 18  1  0
 18 19  1  0
 19 20  1  0
 20 21  1  0
 21 22  1  0
 22 23  2  0
 23 24  1  0
 24 25  2  0
 25 26  1  0
 26 27  2  0
 27 28  1  0
 18 29  2  0
  4 30  1  0
 30 31  2  0
 31  1  1  0
 29  8  1  0
 16 11  1  0
 28 19  1  0
 27 22  1  0
  1 32  1  0
  2 33  1  0
  3 34  1  0
  5 35  1  0
  5 36  1  0
  6 37  1  0
  6 38  1  0
  7 39  1  0
 12 40  1  0
 12 41  1  0
 13 42  1  0
 13 43  1  0
 15 44  1  0
 15 45  1  0
 16 46  1  0
 16 47  1  0
 20 48  1  0
 20 49  1  0
 21 50  1  0
 21 51  1  0
 23 52  1  0
 24 53  1  0
 25 54  1  0
 26 55  1  0
 28 56  1  0
 28 57  1  0
 30 58  1  0
 31 59  1  0
M  END
>  <smiles>  (43) 
c1ccc(CCNc2nc(N3CCOCC3)nc(N3CCc4ccccc4C3)n2)cc1

>  <score_type>  (43) 
oracle

>  <origin>  (43) 
autodockgpu

>  <m_score__min__energy>  (43) 
-10.06

>  <m_primary>  (43) 
energy

>  <rmsd>  (43) 
10.47312147649247

>  <m_score__min__rmsd>  (43) 
10.47312147649247

>  <meeko>  (43) 
{"free_energy": -9.55, "intermolecular_energy": -11.34, "internal_energy": -0.93, "cluster_size": 49, "cluster_id": 1, "rank_in_cluster": 42}

>  <energy>  (43) 
-9.54

>  <cluster_rmsd>  (43) 
0.65

>  <cluster>  (43) 
1

$$$$

     RDKit          3D

 59 63  0  0  0  0  0  0  0  0999 V2000
  141.8430   81.2680  223.6350 C   0  0  0  0  0  0  0  0  0  0  0  0
  142.8940   80.4060  223.4060 C   0  0  0  0  0  0  0  0  0  0  0  0
  142.5970   79.1130  223.0810 C   0  0  0  0  0  0  0  0  0  0  0  0
  141.2960   78.6590  222.9780 C   0  0  0  0  0  0  0  0  0  0  0  0
  141.0730   77.2360  222.6200 C   0  0  0  0  0  0  0  0  0  0  0  0
  140.1810   77.0990  221.3830 C   0  0  0  0  0  0  0  0  0  0  0  0
  139.5410   75.7780  221.4470 N   0  0  0  0  0  0  0  0  0  0  0  0
  140.3160   74.6050  221.5640 C   0  0  0  0  0  0  0  0  0  0  0  0
  141.4790   74.4120  220.8870 N   0  0  0  0  0  0  0  0  0  0  0  0
  142.1690   73.2610  221.0480 C   0  0  0  0  0  0  0  0  0  0  0  0
  143.3780   73.1090  220.3170 N   0  0  0  0  0  0  0  0  0  0  0  0
  144.2680   74.2220  220.1300 C   0  0  0  0  0  0  0  0  0  0  0  0
  145.6150   73.8240  220.6970 C   0  0  0  0  0  0  0  0  0  0  0  0
  146.0000   72.5520  220.2900 O   0  0  0  0  0  0  0  0  0  0  0  0
  145.2090   72.0270  219.2750 C   0  0  0  0  0  0  0  0  0  0  0  0
  143.7650   71.8350  219.7350 C   0  0  0  0  0  0  0  0  0  0  0  0
  141.6800   72.3500  221.8720 N   0  0  0  0  0  0  0  0  0  0  0  0
  140.5280   72.4930  222.5680 C   0  0  0  0  0  0  0  0  0  0  0  0
  140.0350   71.4870  223.4460 N   0  0  0  0  0  0  0  0  0  0  0  0
  139.1750   70.4300  222.9010 C   0  0  0  0  0  0  0  0  0  0  0  0
  138.3570   69.9290  224.0950 C   0  0  0  0  0  0  0  0  0  0  0  0
  139.3620   69.3080  225.0050 C   0  0  0  0  0  0  0  0  0  0  0  0
  139.2730   68.0060  225.4450 C   0  0  0  0  0  0  0  0  0  0  0  0
  140.2720   67.5410  226.2920 C   0  0  0  0  0  0  0  0  0  0  0  0
  141.3050   68.3770  226.6660 C   0  0  0  0  0  0  0  0  0  0  0  0
  141.4070   69.6810  226.2350 C   0  0  0  0  0  0  0  0  0  0  0  0
  140.4160   70.1430  225.3930 C   0  0  0  0  0  0  0  0  0  0  0  0
  140.3860   71.5200  224.8480 C   0  0  0  0  0  0  0  0  0  0  0  0
  139.8530   73.6440  222.3960 N   0  0  0  0  0  0  0  0  0  0  0  0
  140.2770   79.5540  223.2160 C   0  0  0  0  0  0  0  0  0  0  0  0
  140.5330   80.8780  223.5490 C   0  0  0  0  0  0  0  0  0  0  0  0
  142.0658   82.3127  223.8978 H   0  0  0  0  0  0  0  0  0  0  0  0
  143.9367   80.7479  223.4824 H   0  0  0  0  0  0  0  0  0  0  0  0
  143.4216   78.4092  222.8949 H   0  0  0  0  0  0  0  0  0  0  0  0
  142.0446   76.7634  222.4136 H   0  0  0  0  0  0  0  0  0  0  0  0
  140.5682   76.7439  223.4644 H   0  0  0  0  0  0  0  0  0  0  0  0
  139.4149   77.8883  221.3826 H   0  0  0  0  0  0  0  0  0  0  0  0
  140.7752   77.1985  220.4627 H   0  0  0  0  0  0  0  0  0  0  0  0
  138.5040   75.6620  221.4090 H   0  0  0  0  0  0  0  0  0  0  0  0
  144.3638   74.4511  219.0584 H   0  0  0  0  0  0  0  0  0  0  0  0
  143.8819   75.1181  220.6379 H   0  0  0  0  0  0  0  0  0  0  0  0
  146.3703   74.5483  220.3580 H   0  0  0  0  0  0  0  0  0  0  0  0
  145.5315   73.8172  221.7938 H   0  0  0  0  0  0  0  0  0  0  0  0
  145.2227   72.7164  218.4179 H   0  0  0  0  0  0  0  0  0  0  0  0
  145.6155   71.0446  218.9929 H   0  0  0  0  0  0  0  0  0  0  0  0
  143.1175   71.5887  218.8806 H   0  0  0  0  0  0  0  0  0  0  0  0
  143.6691   71.0083  220.4543 H   0  0  0  0  0  0  0  0  0  0  0  0
  138.5129   70.8341  222.1211 H   0  0  0  0  0  0  0  0  0  0  0  0
  139.7582   69.6236  222.4324 H   0  0  0  0  0  0  0  0  0  0  0  0
  137.8458   70.7655  224.5940 H   0  0  0  0  0  0  0  0  0  0  0  0
  137.5716   69.2198  223.7946 H   0  0  0  0  0  0  0  0  0  0  0  0
  138.4403   67.3567  225.1368 H   0  0  0  0  0  0  0  0  0  0  0  0
  140.2396   66.5065  226.6645 H   0  0  0  0  0  0  0  0  0  0  0  0
  142.0816   67.9839  227.3386 H   0  0  0  0  0  0  0  0  0  0  0  0
  142.2414   70.3258  226.5480 H   0  0  0  0  0  0  0  0  0  0  0  0
  139.6398   72.1133  225.3969 H   0  0  0  0  0  0  0  0  0  0  0  0
  141.3805   71.9761  224.9616 H   0  0  0  0  0  0  0  0  0  0  0  0
  139.2342   79.2120  223.1406 H   0  0  0  0  0  0  0  0  0  0  0  0
  139.7135   81.5873  223.7368 H   0  0  0  0  0  0  0  0  0  0  0  0
  1  2  2  0
  2  3  1  0
  3  4  2  0
  4  5  1  0
  5  6  1  0
  6  7  1  0
  7  8  1  0
  8  9  2  0
  9 10  1  0
 10 11  1  0
 11 12  1  0
 12 13  1  0
 13 14  1  0
 14 15  1  0
 15 16  1  0
 10 17  2  0
 17 18  1  0
 18 19  1  0
 19 20  1  0
 20 21  1  0
 21 22  1  0
 22 23  2  0
 23 24  1  0
 24 25  2  0
 25 26  1  0
 26 27  2  0
 27 28  1  0
 18 29  2  0
  4 30  1  0
 30 31  2  0
 31  1  1  0
 29  8  1  0
 16 11  1  0
 28 19  1  0
 27 22  1  0
  1 32  1  0
  2 33  1  0
  3 34  1  0
  5 35  1  0
  5 36  1  0
  6 37  1  0
  6 38  1  0
  7 39  1  0
 12 40  1  0
 12 41  1  0
 13 42  1  0
 13 43  1  0
 15 44  1  0
 15 45  1  0
 16 46  1  0
 16 47  1  0
 20 48  1  0
 20 49  1  0
 21 50  1  0
 21 51  1  0
 23 52  1  0
 24 53  1  0
 25 54  1  0
 26 55  1  0
 28 56  1  0
 28 57  1  0
 30 58  1  0
 31 59  1  0
M  END
>  <smiles>  (44) 
c1ccc(CCNc2nc(N3CCOCC3)nc(N3CCc4ccccc4C3)n2)cc1

>  <score_type>  (44) 
oracle

>  <origin>  (44) 
autodockgpu

>  <m_score__min__energy>  (44) 
-10.06

>  <m_primary>  (44) 
energy

>  <rmsd>  (44) 
3.6834452105760658

>  <m_score__min__rmsd>  (44) 
3.6834452105760658

>  <meeko>  (44) 
{"free_energy": -9.68, "intermolecular_energy": -11.47, "internal_energy": -0.92, "cluster_size": 49, "cluster_id": 1, "rank_in_cluster": 34}

>  <energy>  (44) 
-9.49

>  <cluster_rmsd>  (44) 
1.4

>  <cluster>  (44) 
1

$$$$

     RDKit          3D

 59 63  0  0  0  0  0  0  0  0999 V2000
  139.8010   69.9960  228.0000 C   0  0  0  0  0  0  0  0  0  0  0  0
  139.4230   69.2310  226.9170 C   0  0  0  0  0  0  0  0  0  0  0  0
  139.7380   69.6930  225.6710 C   0  0  0  0  0  0  0  0  0  0  0  0
  140.4130   70.8830  225.4750 C   0  0  0  0  0  0  0  0  0  0  0  0
  140.7090   71.3030  224.0830 C   0  0  0  0  0  0  0  0  0  0  0  0
  139.4740   71.1940  223.1850 C   0  0  0  0  0  0  0  0  0  0  0  0
  139.1250   72.5530  222.7500 N   0  0  0  0  0  0  0  0  0  0  0  0
  140.0910   73.3910  222.1550 C   0  0  0  0  0  0  0  0  0  0  0  0
  141.1460   72.9190  221.4400 N   0  0  0  0  0  0  0  0  0  0  0  0
  142.0330   73.7820  220.8970 C   0  0  0  0  0  0  0  0  0  0  0  0
  143.1180   73.2370  220.1590 N   0  0  0  0  0  0  0  0  0  0  0  0
  144.1110   74.0940  219.5730 C   0  0  0  0  0  0  0  0  0  0  0  0
  145.4560   73.6760  220.1310 C   0  0  0  0  0  0  0  0  0  0  0  0
  145.6280   72.2970  220.1050 O   0  0  0  0  0  0  0  0  0  0  0  0
  144.6630   71.6270  219.3630 C   0  0  0  0  0  0  0  0  0  0  0  0
  143.2710   71.8050  219.9680 C   0  0  0  0  0  0  0  0  0  0  0  0
  141.8390   75.0760  221.0850 N   0  0  0  0  0  0  0  0  0  0  0  0
  140.8070   75.5970  221.7880 C   0  0  0  0  0  0  0  0  0  0  0  0
  140.6340   76.9980  221.9680 N   0  0  0  0  0  0  0  0  0  0  0  0
  139.4340   77.4830  222.6600 C   0  0  0  0  0  0  0  0  0  0  0  0
  139.2400   78.9170  222.1620 C   0  0  0  0  0  0  0  0  0  0  0  0
  140.4250   79.6600  222.6800 C   0  0  0  0  0  0  0  0  0  0  0  0
  140.3200   80.7880  223.4640 C   0  0  0  0  0  0  0  0  0  0  0  0
  141.4990   81.3920  223.8850 C   0  0  0  0  0  0  0  0  0  0  0  0
  142.7180   80.8600  223.5170 C   0  0  0  0  0  0  0  0  0  0  0  0
  142.8380   79.7330  222.7340 C   0  0  0  0  0  0  0  0  0  0  0  0
  141.6680   79.1330  222.3160 C   0  0  0  0  0  0  0  0  0  0  0  0
  141.6340   77.9160  221.4700 C   0  0  0  0  0  0  0  0  0  0  0  0
  139.9330   74.7250  222.3220 N   0  0  0  0  0  0  0  0  0  0  0  0
  140.7710   71.6150  226.5850 C   0  0  0  0  0  0  0  0  0  0  0  0
  140.4710   71.1840  227.8700 C   0  0  0  0  0  0  0  0  0  0  0  0
  139.5544   69.6377  229.0103 H   0  0  0  0  0  0  0  0  0  0  0  0
  138.8858   68.2806  227.0520 H   0  0  0  0  0  0  0  0  0  0  0  0
  139.4446   69.0978  224.7937 H   0  0  0  0  0  0  0  0  0  0  0  0
  141.0529   72.3478  224.0912 H   0  0  0  0  0  0  0  0  0  0  0  0
  141.4858   70.6360  223.6809 H   0  0  0  0  0  0  0  0  0  0  0  0
  139.6993   70.5657  222.3106 H   0  0  0  0  0  0  0  0  0  0  0  0
  138.6368   70.7341  223.7306 H   0  0  0  0  0  0  0  0  0  0  0  0
  138.1620   72.9420  222.8630 H   0  0  0  0  0  0  0  0  0  0  0  0
  144.1064   73.9815  218.4788 H   0  0  0  0  0  0  0  0  0  0  0  0
  143.9029   75.1480  219.8093 H   0  0  0  0  0  0  0  0  0  0  0  0
  146.2499   74.1437  219.5302 H   0  0  0  0  0  0  0  0  0  0  0  0
  145.5036   74.0032  221.1801 H   0  0  0  0  0  0  0  0  0  0  0  0
  144.6608   72.0241  218.3372 H   0  0  0  0  0  0  0  0  0  0  0  0
  144.9071   70.5544  219.3660 H   0  0  0  0  0  0  0  0  0  0  0  0
  142.5007   71.4230  219.2819 H   0  0  0  0  0  0  0  0  0  0  0  0
  143.1592   71.2505  220.9114 H   0  0  0  0  0  0  0  0  0  0  0  0
  138.5624   76.8633  222.4024 H   0  0  0  0  0  0  0  0  0  0  0  0
  139.5416   77.4371  223.7538 H   0  0  0  0  0  0  0  0  0  0  0  0
  139.2139   78.9459  221.0627 H   0  0  0  0  0  0  0  0  0  0  0  0
  138.2911   79.3532  222.5074 H   0  0  0  0  0  0  0  0  0  0  0  0
  139.3384   81.1960  223.7467 H   0  0  0  0  0  0  0  0  0  0  0  0
  141.4603   82.2949  224.5121 H   0  0  0  0  0  0  0  0  0  0  0  0
  143.6350   81.3583  223.8645 H   0  0  0  0  0  0  0  0  0  0  0  0
  143.8224   79.3295  222.4545 H   0  0  0  0  0  0  0  0  0  0  0  0
  141.3876   78.1977  220.4356 H   0  0  0  0  0  0  0  0  0  0  0  0
  142.6194   77.4280  221.4979 H   0  0  0  0  0  0  0  0  0  0  0  0
  141.3083   72.5653  226.4501 H   0  0  0  0  0  0  0  0  0  0  0  0
  140.7606   71.7747  228.7516 H   0  0  0  0  0  0  0  0  0  0  0  0
  1  2  2  0
  2  3  1  0
  3  4  2  0
  4  5  1  0
  5  6  1  0
  6  7  1  0
  7  8  1  0
  8  9  2  0
  9 10  1  0
 10 11  1  0
 11 12  1  0
 12 13  1  0
 13 14  1  0
 14 15  1  0
 15 16  1  0
 10 17  2  0
 17 18  1  0
 18 19  1  0
 19 20  1  0
 20 21  1  0
 21 22  1  0
 22 23  2  0
 23 24  1  0
 24 25  2  0
 25 26  1  0
 26 27  2  0
 27 28  1  0
 18 29  2  0
  4 30  1  0
 30 31  2  0
 31  1  1  0
 29  8  1  0
 16 11  1  0
 28 19  1  0
 27 22  1  0
  1 32  1  0
  2 33  1  0
  3 34  1  0
  5 35  1  0
  5 36  1  0
  6 37  1  0
  6 38  1  0
  7 39  1  0
 12 40  1  0
 12 41  1  0
 13 42  1  0
 13 43  1  0
 15 44  1  0
 15 45  1  0
 16 46  1  0
 16 47  1  0
 20 48  1  0
 20 49  1  0
 21 50  1  0
 21 51  1  0
 23 52  1  0
 24 53  1  0
 25 54  1  0
 26 55  1  0
 28 56  1  0
 28 57  1  0
 30 58  1  0
 31 59  1  0
M  END
>  <smiles>  (45) 
c1ccc(CCNc2nc(N3CCOCC3)nc(N3CCc4ccccc4C3)n2)cc1

>  <score_type>  (45) 
oracle

>  <origin>  (45) 
autodockgpu

>  <m_score__min__energy>  (45) 
-10.06

>  <m_primary>  (45) 
energy

>  <rmsd>  (45) 
10.574067209066385

>  <m_score__min__rmsd>  (45) 
10.574067209066385

>  <meeko>  (45) 
{"free_energy": -9.93, "intermolecular_energy": -11.72, "internal_energy": -0.96, "cluster_size": 49, "cluster_id": 1, "rank_in_cluster": 17}

>  <energy>  (45) 
-9.38

>  <cluster_rmsd>  (45) 
1.22

>  <cluster>  (45) 
1

$$$$

     RDKit          3D

 59 63  0  0  0  0  0  0  0  0999 V2000
  141.0350   70.5540  227.3750 C   0  0  0  0  0  0  0  0  0  0  0  0
  140.3020   69.4080  227.1520 C   0  0  0  0  0  0  0  0  0  0  0  0
  139.6160   69.3110  225.9750 C   0  0  0  0  0  0  0  0  0  0  0  0
  139.6390   70.3140  225.0240 C   0  0  0  0  0  0  0  0  0  0  0  0
  138.8600   70.1190  223.7760 C   0  0  0  0  0  0  0  0  0  0  0  0
  139.5720   70.7290  222.5650 C   0  0  0  0  0  0  0  0  0  0  0  0
  139.4580   72.1880  222.6760 N   0  0  0  0  0  0  0  0  0  0  0  0
  140.4320   73.0350  222.1050 C   0  0  0  0  0  0  0  0  0  0  0  0
  141.5900   72.5750  221.5630 N   0  0  0  0  0  0  0  0  0  0  0  0
  142.4790   73.4450  221.0330 C   0  0  0  0  0  0  0  0  0  0  0  0
  143.6740   72.9140  220.4790 N   0  0  0  0  0  0  0  0  0  0  0  0
  143.6240   71.9130  219.4490 C   0  0  0  0  0  0  0  0  0  0  0  0
  144.3790   72.4570  218.2540 C   0  0  0  0  0  0  0  0  0  0  0  0
  145.5960   73.0200  218.6150 O   0  0  0  0  0  0  0  0  0  0  0  0
  145.9710   72.7490  219.9260 C   0  0  0  0  0  0  0  0  0  0  0  0
  144.9860   73.3540  220.9240 C   0  0  0  0  0  0  0  0  0  0  0  0
  142.1830   74.7340  221.0630 N   0  0  0  0  0  0  0  0  0  0  0  0
  141.0450   75.2420  221.5910 C   0  0  0  0  0  0  0  0  0  0  0  0
  140.7650   76.6370  221.6030 N   0  0  0  0  0  0  0  0  0  0  0  0
  139.4460   77.0920  222.0570 C   0  0  0  0  0  0  0  0  0  0  0  0
  139.2480   78.4590  221.3970 C   0  0  0  0  0  0  0  0  0  0  0  0
  140.2920   79.3290  222.0100 C   0  0  0  0  0  0  0  0  0  0  0  0
  140.0010   80.5120  222.6540 C   0  0  0  0  0  0  0  0  0  0  0  0
  141.0630   81.2360  223.1850 C   0  0  0  0  0  0  0  0  0  0  0  0
  142.3530   80.7630  223.0580 C   0  0  0  0  0  0  0  0  0  0  0  0
  142.6590   79.5830  222.4170 C   0  0  0  0  0  0  0  0  0  0  0  0
  141.6060   78.8640  221.8900 C   0  0  0  0  0  0  0  0  0  0  0  0
  141.7750   77.5780  221.1730 C   0  0  0  0  0  0  0  0  0  0  0  0
  140.1720   74.3630  222.1140 N   0  0  0  0  0  0  0  0  0  0  0  0
  140.3840   71.4420  225.2890 C   0  0  0  0  0  0  0  0  0  0  0  0
  141.0970   71.5820  226.4720 C   0  0  0  0  0  0  0  0  0  0  0  0
  141.5937   70.6468  228.3180 H   0  0  0  0  0  0  0  0  0  0  0  0
  140.2707   68.5991  227.8968 H   0  0  0  0  0  0  0  0  0  0  0  0
  139.0254   68.4043  225.7772 H   0  0  0  0  0  0  0  0  0  0  0  0
  138.7246   69.0409  223.6046 H   0  0  0  0  0  0  0  0  0  0  0  0
  137.8896   70.6233  223.8942 H   0  0  0  0  0  0  0  0  0  0  0  0
  140.6317   70.4339  222.5643 H   0  0  0  0  0  0  0  0  0  0  0  0
  139.1168   70.3746  221.6284 H   0  0  0  0  0  0  0  0  0  0  0  0
  138.6620   72.6460  223.1730 H   0  0  0  0  0  0  0  0  0  0  0  0
  144.0974   70.9852  219.8027 H   0  0  0  0  0  0  0  0  0  0  0  0
  142.5824   71.6836  219.1796 H   0  0  0  0  0  0  0  0  0  0  0  0
  144.5647   71.6344  217.5477 H   0  0  0  0  0  0  0  0  0  0  0  0
  143.7641   73.2460  217.7964 H   0  0  0  0  0  0  0  0  0  0  0  0
  146.0032   71.6591  220.0709 H   0  0  0  0  0  0  0  0  0  0  0  0
  146.9606   73.1958  220.1023 H   0  0  0  0  0  0  0  0  0  0  0  0
  145.1919   72.9866  221.9402 H   0  0  0  0  0  0  0  0  0  0  0  0
  145.0608   74.4508  220.9620 H   0  0  0  0  0  0  0  0  0  0  0  0
  138.6630   76.3901  221.7343 H   0  0  0  0  0  0  0  0  0  0  0  0
  139.3847   77.1506  223.1537 H   0  0  0  0  0  0  0  0  0  0  0  0
  139.3913   78.3889  220.3086 H   0  0  0  0  0  0  0  0  0  0  0  0
  138.2330   78.8536  221.5526 H   0  0  0  0  0  0  0  0  0  0  0  0
  138.9652   80.8710  222.7449 H   0  0  0  0  0  0  0  0  0  0  0  0
  140.8746   82.1861  223.7064 H   0  0  0  0  0  0  0  0  0  0  0  0
  143.1742   81.3552  223.4882 H   0  0  0  0  0  0  0  0  0  0  0  0
  143.6969   79.2295  222.3291 H   0  0  0  0  0  0  0  0  0  0  0  0
  141.6772   77.7485  220.0907 H   0  0  0  0  0  0  0  0  0  0  0  0
  142.7706   77.1673  221.3969 H   0  0  0  0  0  0  0  0  0  0  0  0
  140.4147   72.2517  224.5450 H   0  0  0  0  0  0  0  0  0  0  0  0
  141.6901   72.4855  226.6766 H   0  0  0  0  0  0  0  0  0  0  0  0
  1  2  2  0
  2  3  1  0
  3  4  2  0
  4  5  1  0
  5  6  1  0
  6  7  1  0
  7  8  1  0
  8  9  2  0
  9 10  1  0
 10 11  1  0
 11 12  1  0
 12 13  1  0
 13 14  1  0
 14 15  1  0
 15 16  1  0
 10 17  2  0
 17 18  1  0
 18 19  1  0
 19 20  1  0
 20 21  1  0
 21 22  1  0
 22 23  2  0
 23 24  1  0
 24 25  2  0
 25 26  1  0
 26 27  2  0
 27 28  1  0
 18 29  2  0
  4 30  1  0
 30 31  2  0
 31  1  1  0
 29  8  1  0
 16 11  1  0
 28 19  1  0
 27 22  1  0
  1 32  1  0
  2 33  1  0
  3 34  1  0
  5 35  1  0
  5 36  1  0
  6 37  1  0
  6 38  1  0
  7 39  1  0
 12 40  1  0
 12 41  1  0
 13 42  1  0
 13 43  1  0
 15 44  1  0
 15 45  1  0
 16 46  1  0
 16 47  1  0
 20 48  1  0
 20 49  1  0
 21 50  1  0
 21 51  1  0
 23 52  1  0
 24 53  1  0
 25 54  1  0
 26 55  1  0
 28 56  1  0
 28 57  1  0
 30 58  1  0
 31 59  1  0
M  END
>  <smiles>  (46) 
c1ccc(CCNc2nc(N3CCOCC3)nc(N3CCc4ccccc4C3)n2)cc1

>  <score_type>  (46) 
oracle

>  <origin>  (46) 
autodockgpu

>  <m_score__min__energy>  (46) 
-10.06

>  <m_primary>  (46) 
energy

>  <rmsd>  (46) 
10.50548732961208

>  <m_score__min__rmsd>  (46) 
10.50548732961208

>  <meeko>  (46) 
{"free_energy": -9.54, "intermolecular_energy": -11.33, "internal_energy": -0.9, "cluster_size": 49, "cluster_id": 1, "rank_in_cluster": 43}

>  <energy>  (46) 
-9.36

>  <cluster_rmsd>  (46) 
1.41

>  <cluster>  (46) 
1

$$$$

     RDKit          3D

 59 63  0  0  0  0  0  0  0  0999 V2000
  142.2600   81.3120  223.5560 C   0  0  0  0  0  0  0  0  0  0  0  0
  142.4190   80.0730  224.1400 C   0  0  0  0  0  0  0  0  0  0  0  0
  142.0560   78.9760  223.4130 C   0  0  0  0  0  0  0  0  0  0  0  0
  141.5440   79.0770  222.1330 C   0  0  0  0  0  0  0  0  0  0  0  0
  141.1750   77.8280  221.4210 C   0  0  0  0  0  0  0  0  0  0  0  0
  140.4770   76.8330  222.3520 C   0  0  0  0  0  0  0  0  0  0  0  0
  139.9810   75.7270  221.5230 N   0  0  0  0  0  0  0  0  0  0  0  0
  140.6300   74.4740  221.5250 C   0  0  0  0  0  0  0  0  0  0  0  0
  141.7100   74.1960  220.7480 N   0  0  0  0  0  0  0  0  0  0  0  0
  142.2820   72.9720  220.8030 C   0  0  0  0  0  0  0  0  0  0  0  0
  143.4080   72.7320  219.9700 N   0  0  0  0  0  0  0  0  0  0  0  0
  144.2590   73.8140  219.5570 C   0  0  0  0  0  0  0  0  0  0  0  0
  145.6640   73.4860  220.0200 C   0  0  0  0  0  0  0  0  0  0  0  0
  146.0180   72.1740  219.7300 O   0  0  0  0  0  0  0  0  0  0  0  0
  145.1310   71.5310  218.8760 C   0  0  0  0  0  0  0  0  0  0  0  0
  143.7460   71.3970  219.5060 C   0  0  0  0  0  0  0  0  0  0  0  0
  141.7600   72.0760  221.6230 N   0  0  0  0  0  0  0  0  0  0  0  0
  140.6870   72.3030  222.4160 C   0  0  0  0  0  0  0  0  0  0  0  0
  140.1560   71.3100  223.2860 N   0  0  0  0  0  0  0  0  0  0  0  0
  139.5680   70.0980  222.7030 C   0  0  0  0  0  0  0  0  0  0  0  0
  138.5920   69.5800  223.7640 C   0  0  0  0  0  0  0  0  0  0  0  0
  139.4580   69.1890  224.9130 C   0  0  0  0  0  0  0  0  0  0  0  0
  139.4470   67.9270  225.4660 C   0  0  0  0  0  0  0  0  0  0  0  0
  140.3000   67.6830  226.5350 C   0  0  0  0  0  0  0  0  0  0  0  0
  141.1190   68.6890  227.0080 C   0  0  0  0  0  0  0  0  0  0  0  0
  141.1410   69.9550  226.4660 C   0  0  0  0  0  0  0  0  0  0  0  0
  140.2940   70.1970  225.4040 C   0  0  0  0  0  0  0  0  0  0  0  0
  140.2030   71.5070  224.7170 C   0  0  0  0  0  0  0  0  0  0  0  0
  140.1300   73.5260  222.3500 N   0  0  0  0  0  0  0  0  0  0  0  0
  141.4010   80.3340  221.5890 C   0  0  0  0  0  0  0  0  0  0  0  0
  141.7580   81.4770  222.2920 C   0  0  0  0  0  0  0  0  0  0  0  0
  142.5484   82.2055  224.1291 H   0  0  0  0  0  0  0  0  0  0  0  0
  142.8247   79.9719  225.1574 H   0  0  0  0  0  0  0  0  0  0  0  0
  142.1749   77.9783  223.8608 H   0  0  0  0  0  0  0  0  0  0  0  0
  140.4966   78.0771  220.5917 H   0  0  0  0  0  0  0  0  0  0  0  0
  142.0976   77.3600  221.0472 H   0  0  0  0  0  0  0  0  0  0  0  0
  141.1903   76.4527  223.0981 H   0  0  0  0  0  0  0  0  0  0  0  0
  139.6476   77.3188  222.8869 H   0  0  0  0  0  0  0  0  0  0  0  0
  139.1410   75.8270  220.9100 H   0  0  0  0  0  0  0  0  0  0  0  0
  144.2373   73.9127  218.4617 H   0  0  0  0  0  0  0  0  0  0  0  0
  143.9181   74.7649  219.9925 H   0  0  0  0  0  0  0  0  0  0  0  0
  146.3701   74.1631  219.5171 H   0  0  0  0  0  0  0  0  0  0  0  0
  145.6983   73.6121  221.1122 H   0  0  0  0  0  0  0  0  0  0  0  0
  145.0459   72.1116  217.9456 H   0  0  0  0  0  0  0  0  0  0  0  0
  145.5174   70.5213  218.6732 H   0  0  0  0  0  0  0  0  0  0  0  0
  143.0149   71.0511  218.7605 H   0  0  0  0  0  0  0  0  0  0  0  0
  143.7359   70.6623  220.3246 H   0  0  0  0  0  0  0  0  0  0  0  0
  139.0347   70.3369  221.7711 H   0  0  0  0  0  0  0  0  0  0  0  0
  140.3330   69.3506  222.4457 H   0  0  0  0  0  0  0  0  0  0  0  0
  137.8861   70.3697  224.0609 H   0  0  0  0  0  0  0  0  0  0  0  0
  137.9829   68.7410  223.3963 H   0  0  0  0  0  0  0  0  0  0  0  0
  138.7857   67.1400  225.0746 H   0  0  0  0  0  0  0  0  0  0  0  0
  140.3230   66.6885  227.0046 H   0  0  0  0  0  0  0  0  0  0  0  0
  141.7841   68.4694  227.8562 H   0  0  0  0  0  0  0  0  0  0  0  0
  141.8042   70.7382  226.8621 H   0  0  0  0  0  0  0  0  0  0  0  0
  139.2906   72.0275  225.0436 H   0  0  0  0  0  0  0  0  0  0  0  0
  141.0867   72.1109  224.9705 H   0  0  0  0  0  0  0  0  0  0  0  0
  140.9938   80.4351  220.5722 H   0  0  0  0  0  0  0  0  0  0  0  0
  141.6420   82.4778  221.8504 H   0  0  0  0  0  0  0  0  0  0  0  0
  1  2  2  0
  2  3  1  0
  3  4  2  0
  4  5  1  0
  5  6  1  0
  6  7  1  0
  7  8  1  0
  8  9  2  0
  9 10  1  0
 10 11  1  0
 11 12  1  0
 12 13  1  0
 13 14  1  0
 14 15  1  0
 15 16  1  0
 10 17  2  0
 17 18  1  0
 18 19  1  0
 19 20  1  0
 20 21  1  0
 21 22  1  0
 22 23  2  0
 23 24  1  0
 24 25  2  0
 25 26  1  0
 26 27  2  0
 27 28  1  0
 18 29  2  0
  4 30  1  0
 30 31  2  0
 31  1  1  0
 29  8  1  0
 16 11  1  0
 28 19  1  0
 27 22  1  0
  1 32  1  0
  2 33  1  0
  3 34  1  0
  5 35  1  0
  5 36  1  0
  6 37  1  0
  6 38  1  0
  7 39  1  0
 12 40  1  0
 12 41  1  0
 13 42  1  0
 13 43  1  0
 15 44  1  0
 15 45  1  0
 16 46  1  0
 16 47  1  0
 20 48  1  0
 20 49  1  0
 21 50  1  0
 21 51  1  0
 23 52  1  0
 24 53  1  0
 25 54  1  0
 26 55  1  0
 28 56  1  0
 28 57  1  0
 30 58  1  0
 31 59  1  0
M  END
>  <smiles>  (47) 
c1ccc(CCNc2nc(N3CCOCC3)nc(N3CCc4ccccc4C3)n2)cc1

>  <score_type>  (47) 
oracle

>  <origin>  (47) 
autodockgpu

>  <m_score__min__energy>  (47) 
-10.06

>  <m_primary>  (47) 
energy

>  <rmsd>  (47) 
3.799450823433474

>  <m_score__min__rmsd>  (47) 
3.799450823433474

>  <meeko>  (47) 
{"free_energy": -9.72, "intermolecular_energy": -11.51, "internal_energy": -0.82, "cluster_size": 49, "cluster_id": 1, "rank_in_cluster": 28}

>  <energy>  (47) 
-9.17

>  <cluster_rmsd>  (47) 
0.77

>  <cluster>  (47) 
1

$$$$

     RDKit          3D

 59 63  0  0  0  0  0  0  0  0999 V2000
  139.9530   70.4730  228.0160 C   0  0  0  0  0  0  0  0  0  0  0  0
  139.5150   69.5750  227.0670 C   0  0  0  0  0  0  0  0  0  0  0  0
  139.8130   69.8360  225.7590 C   0  0  0  0  0  0  0  0  0  0  0  0
  140.5270   70.9550  225.3760 C   0  0  0  0  0  0  0  0  0  0  0  0
  140.8010   71.1550  223.9310 C   0  0  0  0  0  0  0  0  0  0  0  0
  139.5120   71.1340  223.1040 C   0  0  0  0  0  0  0  0  0  0  0  0
  139.1760   72.5250  222.7770 N   0  0  0  0  0  0  0  0  0  0  0  0
  140.1240   73.3730  222.1670 C   0  0  0  0  0  0  0  0  0  0  0  0
  141.1750   72.9110  221.4400 N   0  0  0  0  0  0  0  0  0  0  0  0
  142.0460   73.7830  220.8840 C   0  0  0  0  0  0  0  0  0  0  0  0
  143.1270   73.2490  220.1330 N   0  0  0  0  0  0  0  0  0  0  0  0
  143.7400   72.0050  220.5110 C   0  0  0  0  0  0  0  0  0  0  0  0
  143.6330   71.0700  219.3250 C   0  0  0  0  0  0  0  0  0  0  0  0
  143.9970   71.6890  218.1350 O   0  0  0  0  0  0  0  0  0  0  0  0
  144.6070   72.9250  218.3120 C   0  0  0  0  0  0  0  0  0  0  0  0
  143.6560   73.9280  218.9620 C   0  0  0  0  0  0  0  0  0  0  0  0
  141.8390   75.0760  221.0720 N   0  0  0  0  0  0  0  0  0  0  0  0
  140.8100   75.5860  221.7870 C   0  0  0  0  0  0  0  0  0  0  0  0
  140.6240   76.9860  221.9660 N   0  0  0  0  0  0  0  0  0  0  0  0
  139.4290   77.4580  222.6760 C   0  0  0  0  0  0  0  0  0  0  0  0
  139.2100   78.8890  222.1770 C   0  0  0  0  0  0  0  0  0  0  0  0
  140.3940   79.6460  222.6760 C   0  0  0  0  0  0  0  0  0  0  0  0
  140.2880   80.7750  223.4580 C   0  0  0  0  0  0  0  0  0  0  0  0
  141.4660   81.3940  223.8610 C   0  0  0  0  0  0  0  0  0  0  0  0
  142.6860   80.8750  223.4760 C   0  0  0  0  0  0  0  0  0  0  0  0
  142.8070   79.7480  222.6940 C   0  0  0  0  0  0  0  0  0  0  0  0
  141.6390   79.1330  222.2950 C   0  0  0  0  0  0  0  0  0  0  0  0
  141.6060   77.9140  221.4520 C   0  0  0  0  0  0  0  0  0  0  0  0
  139.9530   74.7050  222.3340 N   0  0  0  0  0  0  0  0  0  0  0  0
  140.9440   71.8260  226.3580 C   0  0  0  0  0  0  0  0  0  0  0  0
  140.6640   71.6000  227.6990 C   0  0  0  0  0  0  0  0  0  0  0  0
  139.7218   70.2764  229.0733 H   0  0  0  0  0  0  0  0  0  0  0  0
  138.9449   68.6786  227.3525 H   0  0  0  0  0  0  0  0  0  0  0  0
  139.4731   69.1317  224.9855 H   0  0  0  0  0  0  0  0  0  0  0  0
  141.2977   72.1267  223.7931 H   0  0  0  0  0  0  0  0  0  0  0  0
  141.4443   70.3322  223.5859 H   0  0  0  0  0  0  0  0  0  0  0  0
  139.6677   70.5579  222.1800 H   0  0  0  0  0  0  0  0  0  0  0  0
  138.6960   70.6606  223.6697 H   0  0  0  0  0  0  0  0  0  0  0  0
  138.2350   72.9310  222.9800 H   0  0  0  0  0  0  0  0  0  0  0  0
  144.7973   72.1690  220.7666 H   0  0  0  0  0  0  0  0  0  0  0  0
  143.2384   71.5759  221.3909 H   0  0  0  0  0  0  0  0  0  0  0  0
  144.2948   70.2075  219.4928 H   0  0  0  0  0  0  0  0  0  0  0  0
  142.5825   70.7564  219.2354 H   0  0  0  0  0  0  0  0  0  0  0  0
  145.4897   72.7995  218.9563 H   0  0  0  0  0  0  0  0  0  0  0  0
  144.8966   73.3127  217.3242 H   0  0  0  0  0  0  0  0  0  0  0  0
  144.1983   74.8386  219.2565 H   0  0  0  0  0  0  0  0  0  0  0  0
  142.8576   74.2425  218.2738 H   0  0  0  0  0  0  0  0  0  0  0  0
  138.5611   76.8271  222.4337 H   0  0  0  0  0  0  0  0  0  0  0  0
  139.5541   77.4161  223.7681 H   0  0  0  0  0  0  0  0  0  0  0  0
  139.1673   78.9149  221.0781 H   0  0  0  0  0  0  0  0  0  0  0  0
  138.2611   79.3151  222.5346 H   0  0  0  0  0  0  0  0  0  0  0  0
  139.3059   81.1729  223.7533 H   0  0  0  0  0  0  0  0  0  0  0  0
  141.4259   82.2977  224.4869 H   0  0  0  0  0  0  0  0  0  0  0  0
  143.6023   81.3845  223.8088 H   0  0  0  0  0  0  0  0  0  0  0  0
  143.7919   79.3556  222.4006 H   0  0  0  0  0  0  0  0  0  0  0  0
  141.3414   78.1909  220.4208 H   0  0  0  0  0  0  0  0  0  0  0  0
  142.5971   77.4370  221.4666 H   0  0  0  0  0  0  0  0  0  0  0  0
  141.5131   72.7231  226.0728 H   0  0  0  0  0  0  0  0  0  0  0  0
  141.0006   72.3000  228.4779 H   0  0  0  0  0  0  0  0  0  0  0  0
  1  2  2  0
  2  3  1  0
  3  4  2  0
  4  5  1  0
  5  6  1  0
  6  7  1  0
  7  8  1  0
  8  9  2  0
  9 10  1  0
 10 11  1  0
 11 12  1  0
 12 13  1  0
 13 14  1  0
 14 15  1  0
 15 16  1  0
 10 17  2  0
 17 18  1  0
 18 19  1  0
 19 20  1  0
 20 21  1  0
 21 22  1  0
 22 23  2  0
 23 24  1  0
 24 25  2  0
 25 26  1  0
 26 27  2  0
 27 28  1  0
 18 29  2  0
  4 30  1  0
 30 31  2  0
 31  1  1  0
 29  8  1  0
 16 11  1  0
 28 19  1  0
 27 22  1  0
  1 32  1  0
  2 33  1  0
  3 34  1  0
  5 35  1  0
  5 36  1  0
  6 37  1  0
  6 38  1  0
  7 39  1  0
 12 40  1  0
 12 41  1  0
 13 42  1  0
 13 43  1  0
 15 44  1  0
 15 45  1  0
 16 46  1  0
 16 47  1  0
 20 48  1  0
 20 49  1  0
 21 50  1  0
 21 51  1  0
 23 52  1  0
 24 53  1  0
 25 54  1  0
 26 55  1  0
 28 56  1  0
 28 57  1  0
 30 58  1  0
 31 59  1  0
M  END
>  <smiles>  (48) 
c1ccc(CCNc2nc(N3CCOCC3)nc(N3CCc4ccccc4C3)n2)cc1

>  <score_type>  (48) 
oracle

>  <origin>  (48) 
autodockgpu

>  <m_score__min__energy>  (48) 
-10.06

>  <m_primary>  (48) 
energy

>  <rmsd>  (48) 
10.566242268315287

>  <m_score__min__rmsd>  (48) 
10.566242268315287

>  <meeko>  (48) 
{"free_energy": -9.17, "intermolecular_energy": -10.96, "internal_energy": -1.0, "cluster_size": 49, "cluster_id": 1, "rank_in_cluster": 47}

>  <energy>  (48) 
-9.1

>  <cluster_rmsd>  (48) 
1.25

>  <cluster>  (48) 
1

$$$$

     RDKit          3D

 59 63  0  0  0  0  0  0  0  0999 V2000
  140.4160   69.6290  228.3440 C   0  0  0  0  0  0  0  0  0  0  0  0
  140.6460   70.9880  228.3160 C   0  0  0  0  0  0  0  0  0  0  0  0
  140.7270   71.5940  227.0950 C   0  0  0  0  0  0  0  0  0  0  0  0
  140.5860   70.8920  225.9130 C   0  0  0  0  0  0  0  0  0  0  0  0
  140.6910   71.6370  224.6340 C   0  0  0  0  0  0  0  0  0  0  0  0
  139.4170   71.5000  223.7950 C   0  0  0  0  0  0  0  0  0  0  0  0
  139.8210   71.4760  222.3830 N   0  0  0  0  0  0  0  0  0  0  0  0
  140.6150   72.5090  221.8410 C   0  0  0  0  0  0  0  0  0  0  0  0
  141.7380   72.2780  221.1100 N   0  0  0  0  0  0  0  0  0  0  0  0
  142.4500   73.3180  220.6220 C   0  0  0  0  0  0  0  0  0  0  0  0
  143.6150   73.0230  219.8650 N   0  0  0  0  0  0  0  0  0  0  0  0
  144.6800   73.9810  219.7520 C   0  0  0  0  0  0  0  0  0  0  0  0
  145.9410   73.3180  220.2680 C   0  0  0  0  0  0  0  0  0  0  0  0
  146.1050   72.0360  219.7570 O   0  0  0  0  0  0  0  0  0  0  0  0
  145.2360   71.7340  218.7150 C   0  0  0  0  0  0  0  0  0  0  0  0
  143.7810   71.7520  219.1790 C   0  0  0  0  0  0  0  0  0  0  0  0
  142.0210   74.5420  220.8770 N   0  0  0  0  0  0  0  0  0  0  0  0
  140.9110   74.8250  221.5980 C   0  0  0  0  0  0  0  0  0  0  0  0
  140.4830   76.1590  221.8510 N   0  0  0  0  0  0  0  0  0  0  0  0
  139.2920   76.3770  222.6790 C   0  0  0  0  0  0  0  0  0  0  0  0
  138.7640   77.7530  222.2610 C   0  0  0  0  0  0  0  0  0  0  0  0
  139.8260   78.7090  222.6880 C   0  0  0  0  0  0  0  0  0  0  0  0
  139.5830   79.7770  223.5230 C   0  0  0  0  0  0  0  0  0  0  0  0
  140.6560   80.5990  223.8490 C   0  0  0  0  0  0  0  0  0  0  0  0
  141.9100   80.3310  223.3390 C   0  0  0  0  0  0  0  0  0  0  0  0
  142.1680   79.2670  222.5040 C   0  0  0  0  0  0  0  0  0  0  0  0
  141.1040   78.4510  222.1800 C   0  0  0  0  0  0  0  0  0  0  0  0
  141.2230   77.2700  221.2930 C   0  0  0  0  0  0  0  0  0  0  0  0
  140.2140   73.7790  222.0780 N   0  0  0  0  0  0  0  0  0  0  0  0
  140.3580   69.5350  225.9880 C   0  0  0  0  0  0  0  0  0  0  0  0
  140.2680   68.8780  227.2080 C   0  0  0  0  0  0  0  0  0  0  0  0
  140.3485   69.1263  229.3201 H   0  0  0  0  0  0  0  0  0  0  0  0
  140.7604   71.5646  229.2457 H   0  0  0  0  0  0  0  0  0  0  0  0
  140.9107   72.6776  227.0508 H   0  0  0  0  0  0  0  0  0  0  0  0
  140.8608   72.7013  224.8539 H   0  0  0  0  0  0  0  0  0  0  0  0
  141.5286   71.2160  224.0586 H   0  0  0  0  0  0  0  0  0  0  0  0
  138.8957   70.5663  224.0528 H   0  0  0  0  0  0  0  0  0  0  0  0
  138.7325   72.3390  223.9887 H   0  0  0  0  0  0  0  0  0  0  0  0
  139.5400   70.7040  221.7380 H   0  0  0  0  0  0  0  0  0  0  0  0
  144.8124   74.2739  218.7000 H   0  0  0  0  0  0  0  0  0  0  0  0
  144.4514   74.8869  220.3327 H   0  0  0  0  0  0  0  0  0  0  0  0
  146.8078   73.9294  219.9766 H   0  0  0  0  0  0  0  0  0  0  0  0
  145.8581   73.2382  221.3620 H   0  0  0  0  0  0  0  0  0  0  0  0
  145.3654   72.4772  217.9144 H   0  0  0  0  0  0  0  0  0  0  0  0
  145.4705   70.7228  218.3510 H   0  0  0  0  0  0  0  0  0  0  0  0
  143.1005   71.6871  218.3172 H   0  0  0  0  0  0  0  0  0  0  0  0
  143.5475   70.8986  219.8326 H   0  0  0  0  0  0  0  0  0  0  0  0
  138.5390   75.5989  222.4853 H   0  0  0  0  0  0  0  0  0  0  0  0
  139.5224   76.3322  223.7537 H   0  0  0  0  0  0  0  0  0  0  0  0
  138.6163   77.7978  221.1719 H   0  0  0  0  0  0  0  0  0  0  0  0
  137.7892   77.9817  222.7164 H   0  0  0  0  0  0  0  0  0  0  0  0
  138.5753   79.9728  223.9182 H   0  0  0  0  0  0  0  0  0  0  0  0
  140.5054   81.4627  224.5133 H   0  0  0  0  0  0  0  0  0  0  0  0
  142.7413   80.9977  223.6120 H   0  0  0  0  0  0  0  0  0  0  0  0
  143.1781   79.0761  222.1125 H   0  0  0  0  0  0  0  0  0  0  0  0
  140.8176   77.5167  220.3007 H   0  0  0  0  0  0  0  0  0  0  0  0
  142.2830   76.9903  221.2023 H   0  0  0  0  0  0  0  0  0  0  0  0
  140.2445   68.9580  225.0584 H   0  0  0  0  0  0  0  0  0  0  0  0
  140.0847   67.7946  227.2603 H   0  0  0  0  0  0  0  0  0  0  0  0
  1  2  2  0
  2  3  1  0
  3  4  2  0
  4  5  1  0
  5  6  1  0
  6  7  1  0
  7  8  1  0
  8  9  2  0
  9 10  1  0
 10 11  1  0
 11 12  1  0
 12 13  1  0
 13 14  1  0
 14 15  1  0
 15 16  1  0
 10 17  2  0
 17 18  1  0
 18 19  1  0
 19 20  1  0
 20 21  1  0
 21 22  1  0
 22 23  2  0
 23 24  1  0
 24 25  2  0
 25 26  1  0
 26 27  2  0
 27 28  1  0
 18 29  2  0
  4 30  1  0
 30 31  2  0
 31  1  1  0
 29  8  1  0
 16 11  1  0
 28 19  1  0
 27 22  1  0
  1 32  1  0
  2 33  1  0
  3 34  1  0
  5 35  1  0
  5 36  1  0
  6 37  1  0
  6 38  1  0
  7 39  1  0
 12 40  1  0
 12 41  1  0
 13 42  1  0
 13 43  1  0
 15 44  1  0
 15 45  1  0
 16 46  1  0
 16 47  1  0
 20 48  1  0
 20 49  1  0
 21 50  1  0
 21 51  1  0
 23 52  1  0
 24 53  1  0
 25 54  1  0
 26 55  1  0
 28 56  1  0
 28 57  1  0
 30 58  1  0
 31 59  1  0
M  END
>  <smiles>  (49) 
c1ccc(CCNc2nc(N3CCOCC3)nc(N3CCc4ccccc4C3)n2)cc1

>  <score_type>  (49) 
oracle

>  <origin>  (49) 
autodockgpu

>  <m_score__min__energy>  (49) 
-10.06

>  <m_primary>  (49) 
energy

>  <rmsd>  (49) 
9.82300790179514

>  <m_score__min__rmsd>  (49) 
9.82300790179514

>  <meeko>  (49) 
{"free_energy": -9.89, "intermolecular_energy": -11.68, "internal_energy": -0.94, "cluster_size": 49, "cluster_id": 1, "rank_in_cluster": 20}

>  <energy>  (49) 
-8.89

>  <cluster_rmsd>  (49) 
1.27

>  <cluster>  (49) 
1

$$$$

     RDKit          3D

 59 63  0  0  0  0  0  0  0  0999 V2000
  140.1220   70.6630  227.9690 C   0  0  0  0  0  0  0  0  0  0  0  0
  140.8370   71.7420  227.4940 C   0  0  0  0  0  0  0  0  0  0  0  0
  140.9990   71.8520  226.1420 C   0  0  0  0  0  0  0  0  0  0  0  0
  140.4730   70.9280  225.2600 C   0  0  0  0  0  0  0  0  0  0  0  0
  140.7030   71.1320  223.8080 C   0  0  0  0  0  0  0  0  0  0  0  0
  139.3860   71.1750  223.0280 C   0  0  0  0  0  0  0  0  0  0  0  0
  139.1010   72.5830  222.7230 N   0  0  0  0  0  0  0  0  0  0  0  0
  140.0850   73.4090  222.1390 C   0  0  0  0  0  0  0  0  0  0  0  0
  141.1430   72.9220  221.4380 N   0  0  0  0  0  0  0  0  0  0  0  0
  142.0470   73.7740  220.9060 C   0  0  0  0  0  0  0  0  0  0  0  0
  143.1350   73.2150  220.1830 N   0  0  0  0  0  0  0  0  0  0  0  0
  144.1150   74.0610  219.5600 C   0  0  0  0  0  0  0  0  0  0  0  0
  145.4670   73.6790  220.1260 C   0  0  0  0  0  0  0  0  0  0  0  0
  145.6540   72.3020  220.1500 O   0  0  0  0  0  0  0  0  0  0  0  0
  144.6940   71.5950  219.4380 C   0  0  0  0  0  0  0  0  0  0  0  0
  143.3030   71.7780  220.0420 C   0  0  0  0  0  0  0  0  0  0  0  0
  141.8670   75.0710  221.0900 N   0  0  0  0  0  0  0  0  0  0  0  0
  140.8320   75.6050  221.7790 C   0  0  0  0  0  0  0  0  0  0  0  0
  140.6740   77.0090  221.9540 N   0  0  0  0  0  0  0  0  0  0  0  0
  139.4830   77.5070  222.6520 C   0  0  0  0  0  0  0  0  0  0  0  0
  139.2990   78.9420  222.1490 C   0  0  0  0  0  0  0  0  0  0  0  0
  140.4940   79.6750  222.6580 C   0  0  0  0  0  0  0  0  0  0  0  0
  140.4050   80.8070  223.4380 C   0  0  0  0  0  0  0  0  0  0  0  0
  141.5920   81.4010  223.8500 C   0  0  0  0  0  0  0  0  0  0  0  0
  142.8040   80.8560  223.4770 C   0  0  0  0  0  0  0  0  0  0  0  0
  142.9090   79.7250  222.6980 C   0  0  0  0  0  0  0  0  0  0  0  0
  141.7310   79.1340  222.2890 C   0  0  0  0  0  0  0  0  0  0  0  0
  141.6800   77.9150  221.4470 C   0  0  0  0  0  0  0  0  0  0  0  0
  139.9400   74.7440  222.3020 N   0  0  0  0  0  0  0  0  0  0  0  0
  139.7660   69.8660  225.7780 C   0  0  0  0  0  0  0  0  0  0  0  0
  139.5770   69.7150  227.1450 C   0  0  0  0  0  0  0  0  0  0  0  0
  139.9836   70.5595  229.0553 H   0  0  0  0  0  0  0  0  0  0  0  0
  141.2625   72.4889  228.1804 H   0  0  0  0  0  0  0  0  0  0  0  0
  141.5673   72.7048  225.7423 H   0  0  0  0  0  0  0  0  0  0  0  0
  141.2357   72.0832  223.6614 H   0  0  0  0  0  0  0  0  0  0  0  0
  141.2974   70.2862  223.4322 H   0  0  0  0  0  0  0  0  0  0  0  0
  139.4829   70.6005  222.0950 H   0  0  0  0  0  0  0  0  0  0  0  0
  138.5703   70.7332  223.6192 H   0  0  0  0  0  0  0  0  0  0  0  0
  138.1730   73.0180  222.9240 H   0  0  0  0  0  0  0  0  0  0  0  0
  144.1063   73.9078  218.4708 H   0  0  0  0  0  0  0  0  0  0  0  0
  143.8960   75.1207  219.7577 H   0  0  0  0  0  0  0  0  0  0  0  0
  146.2528   74.1328  219.5043 H   0  0  0  0  0  0  0  0  0  0  0  0
  145.5161   74.0454  221.1620 H   0  0  0  0  0  0  0  0  0  0  0  0
  144.6827   71.9547  218.3985 H   0  0  0  0  0  0  0  0  0  0  0  0
  144.9507   70.5262  219.4792 H   0  0  0  0  0  0  0  0  0  0  0  0
  142.5344   71.3635  219.3731 H   0  0  0  0  0  0  0  0  0  0  0  0
  143.2007   71.2556  221.0046 H   0  0  0  0  0  0  0  0  0  0  0  0
  138.6042   76.8943  222.4024 H   0  0  0  0  0  0  0  0  0  0  0  0
  139.5969   77.4641  223.7452 H   0  0  0  0  0  0  0  0  0  0  0  0
  139.2671   78.9671  221.0498 H   0  0  0  0  0  0  0  0  0  0  0  0
  138.3560   79.3885  222.4974 H   0  0  0  0  0  0  0  0  0  0  0  0
  139.4291   81.2259  223.7246 H   0  0  0  0  0  0  0  0  0  0  0  0
  141.5655   82.3065  224.4740 H   0  0  0  0  0  0  0  0  0  0  0  0
  143.7277   81.3470  223.8172 H   0  0  0  0  0  0  0  0  0  0  0  0
  143.8881   79.3113  222.4146 H   0  0  0  0  0  0  0  0  0  0  0  0
  141.4303   78.1959  220.4132 H   0  0  0  0  0  0  0  0  0  0  0  0
  142.6607   77.4173  221.4703 H   0  0  0  0  0  0  0  0  0  0  0  0
  139.3405   69.1189  225.0918 H   0  0  0  0  0  0  0  0  0  0  0  0
  139.0099   68.8646  227.5515 H   0  0  0  0  0  0  0  0  0  0  0  0
  1  2  2  0
  2  3  1  0
  3  4  2  0
  4  5  1  0
  5  6  1  0
  6  7  1  0
  7  8  1  0
  8  9  2  0
  9 10  1  0
 10 11  1  0
 11 12  1  0
 12 13  1  0
 13 14  1  0
 14 15  1  0
 15 16  1  0
 10 17  2  0
 17 18  1  0
 18 19  1  0
 19 20  1  0
 20 21  1  0
 21 22  1  0
 22 23  2  0
 23 24  1  0
 24 25  2  0
 25 26  1  0
 26 27  2  0
 27 28  1  0
 18 29  2  0
  4 30  1  0
 30 31  2  0
 31  1  1  0
 29  8  1  0
 16 11  1  0
 28 19  1  0
 27 22  1  0
  1 32  1  0
  2 33  1  0
  3 34  1  0
  5 35  1  0
  5 36  1  0
  6 37  1  0
  6 38  1  0
  7 39  1  0
 12 40  1  0
 12 41  1  0
 13 42  1  0
 13 43  1  0
 15 44  1  0
 15 45  1  0
 16 46  1  0
 16 47  1  0
 20 48  1  0
 20 49  1  0
 21 50  1  0
 21 51  1  0
 23 52  1  0
 24 53  1  0
 25 54  1  0
 26 55  1  0
 28 56  1  0
 28 57  1  0
 30 58  1  0
 31 59  1  0
M  END
>  <smiles>  (50) 
c1ccc(CCNc2nc(N3CCOCC3)nc(N3CCc4ccccc4C3)n2)cc1

>  <score_type>  (50) 
oracle

>  <origin>  (50) 
autodockgpu

>  <m_score__min__energy>  (50) 
-10.06

>  <m_primary>  (50) 
energy

>  <rmsd>  (50) 
10.594305364880945

>  <m_score__min__rmsd>  (50) 
10.594305364880945

>  <meeko>  (50) 
{"free_energy": -9.98, "intermolecular_energy": -11.77, "internal_energy": -1.01, "cluster_size": 49, "cluster_id": 1, "rank_in_cluster": 13}

>  <energy>  (50) 
-8.73

>  <cluster_rmsd>  (50) 
0.0

>  <cluster>  (50) 
2

$$$$
