
     RDKit          3D

 59 62  0  0  0  0  0  0  0  0999 V2000
  139.3360   72.8130  220.3720 O   0  0  0  0  0  0  0  0  0  0  0  0
  140.0830   72.8900  221.3850 C   0  0  0  0  0  0  0  0  0  0  0  0
  141.1360   73.8810  221.4450 N   0  0  0  0  0  0  0  0  0  0  0  0
  141.3910   74.8100  220.3940 C   0  0  0  0  0  0  0  0  0  0  0  0
  140.3590   75.7390  219.9530 C   0  0  0  0  0  0  0  0  0  0  0  0
  140.6390   76.2790  218.7950 O   0  0  0  0  0  0  0  0  0  0  0  0
  139.1570   76.1520  220.5200 N   0  0  0  0  0  0  0  0  0  0  0  0
  137.8760   75.4450  220.2650 C   0  0  0  0  0  0  0  0  0  0  0  0
  136.9780   75.3550  221.4490 C   0  0  0  0  0  0  0  0  0  0  0  0
  137.1040   76.3960  222.4960 C   0  0  0  0  0  0  0  0  0  0  0  0
  138.5440   76.8050  222.7250 C   0  0  0  0  0  0  0  0  0  0  0  0
  139.0130   77.3180  221.3710 C   0  0  1  0  0  0  0  0  0  0  0  0
  140.1770   78.2140  221.4740 C   0  0  0  0  0  0  0  0  0  0  0  0
  141.1300   77.7280  222.4600 N   0  0  0  0  0  0  0  0  0  0  0  0
  141.4500   78.6450  223.5020 C   0  0  0  0  0  0  0  0  0  0  0  0
  140.4530   79.7270  223.7570 C   0  0  0  0  0  0  0  0  0  0  0  0
  141.0780   81.0470  223.3080 C   0  0  0  0  0  0  0  0  0  0  0  0
  142.1210   80.6290  222.3250 C   0  0  0  0  0  0  0  0  0  0  0  0
  142.7040   79.3950  223.0280 C   0  0  0  0  0  0  0  0  0  0  0  0
  139.9190   71.9950  222.5280 C   0  0  0  0  0  0  0  0  0  0  0  0
  139.1320   70.8750  222.4150 C   0  0  0  0  0  0  0  0  0  0  0  0
  139.0010   70.0470  223.5330 C   0  0  0  0  0  0  0  0  0  0  0  0
  139.6350   70.3270  224.7260 C   0  0  0  0  0  0  0  0  0  0  0  0
  139.5190   69.5220  225.8440 C   0  0  0  0  0  0  0  0  0  0  0  0
  140.1970   69.8820  227.0120 C   0  0  0  0  0  0  0  0  0  0  0  0
  140.0730   68.8870  228.4440 Cl  0  0  0  0  0  0  0  0  0  0  0  0
  140.9800   71.0300  227.0620 C   0  0  0  0  0  0  0  0  0  0  0  0
  141.0970   71.8430  225.9340 C   0  0  0  0  0  0  0  0  0  0  0  0
  140.4190   71.4660  224.7950 C   0  0  0  0  0  0  0  0  0  0  0  0
  140.5220   72.2370  223.7040 N   0  0  0  0  0  0  0  0  0  0  0  0
  141.7330   73.8920  222.3260 H   0  0  0  0  0  0  0  0  0  0  0  0
  142.2466   75.4215  220.7165 H   0  0  0  0  0  0  0  0  0  0  0  0
  141.5227   74.1577  219.5181 H   0  0  0  0  0  0  0  0  0  0  0  0
  137.3406   75.9799  219.4668 H   0  0  0  0  0  0  0  0  0  0  0  0
  138.1364   74.4126  219.9887 H   0  0  0  0  0  0  0  0  0  0  0  0
  135.9429   75.3871  221.0782 H   0  0  0  0  0  0  0  0  0  0  0  0
  137.2756   74.4223  221.9504 H   0  0  0  0  0  0  0  0  0  0  0  0
  136.5292   77.2813  222.1865 H   0  0  0  0  0  0  0  0  0  0  0  0
  136.7179   75.9772  223.4371 H   0  0  0  0  0  0  0  0  0  0  0  0
  138.6071   77.5981  223.4846 H   0  0  0  0  0  0  0  0  0  0  0  0
  139.1619   75.9734  223.0947 H   0  0  0  0  0  0  0  0  0  0  0  0
  138.2795   77.9894  220.9006 H   0  0  0  0  0  0  0  0  0  0  0  0
  140.6730   78.2719  220.4939 H   0  0  0  0  0  0  0  0  0  0  0  0
  139.8250   79.2071  221.7901 H   0  0  0  0  0  0  0  0  0  0  0  0
  141.9550   77.3430  221.9920 H   0  0  0  0  0  0  0  0  0  0  0  0
  141.5302   78.0441  224.4199 H   0  0  0  0  0  0  0  0  0  0  0  0
  139.5343   79.5330  223.1840 H   0  0  0  0  0  0  0  0  0  0  0  0
  140.1914   79.7671  224.8247 H   0  0  0  0  0  0  0  0  0  0  0  0
  140.3271   81.6944  222.8316 H   0  0  0  0  0  0  0  0  0  0  0  0
  141.4904   81.6296  224.1449 H   0  0  0  0  0  0  0  0  0  0  0  0
  141.6787   80.3689  221.3520 H   0  0  0  0  0  0  0  0  0  0  0  0
  142.8601   81.4083  222.0874 H   0  0  0  0  0  0  0  0  0  0  0  0
  143.2911   78.7817  222.3286 H   0  0  0  0  0  0  0  0  0  0  0  0
  143.3944   79.6472  223.8464 H   0  0  0  0  0  0  0  0  0  0  0  0
  138.6195   70.6366  221.4713 H   0  0  0  0  0  0  0  0  0  0  0  0
  138.3743   69.1459  223.4598 H   0  0  0  0  0  0  0  0  0  0  0  0
  138.9022   68.6117  225.8147 H   0  0  0  0  0  0  0  0  0  0  0  0
  141.5067   71.2970  227.9900 H   0  0  0  0  0  0  0  0  0  0  0  0
  141.7108   72.7556  225.9533 H   0  0  0  0  0  0  0  0  0  0  0  0
  1  2  2  0
  2  3  1  0
  3  4  1  0
  4  5  1  0
  5  6  2  0
  5  7  1  0
  7  8  1  0
  8  9  1  0
  9 10  1  0
 10 11  1  0
 11 12  1  0
 12 13  1  0
 13 14  1  0
 14 15  1  0
 15 16  1  0
 16 17  1  0
 17 18  1  0
 18 19  1  0
  2 20  1  0
 20 21  2  0
 21 22  1  0
 22 23  2  0
 23 24  1  0
 24 25  2  0
 25 26  1  0
 25 27  1  0
 27 28  2  0
 28 29  1  0
 29 30  2  0
 12  7  1  0
 19 15  1  0
 30 20  1  0
 29 23  1  0
  3 31  1  0
  4 32  1  0
  4 33  1  0
  8 34  1  0
  8 35  1  0
  9 36  1  0
  9 37  1  0
 10 38  1  0
 10 39  1  0
 11 40  1  0
 11 41  1  0
 12 42  1  6
 13 43  1  0
 13 44  1  0
 14 45  1  0
 15 46  1  0
 16 47  1  0
 16 48  1  0
 17 49  1  0
 17 50  1  0
 18 51  1  0
 18 52  1  0
 19 53  1  0
 19 54  1  0
 21 55  1  0
 22 56  1  0
 24 57  1  0
 27 58  1  0
 28 59  1  0
M  END
>  <smiles>  (1) 
O=C(NCC(=O)N1CCCC[C@H]1CNC1CCCC1)c1ccc2cc(Cl)ccc2n1

>  <score_type>  (1) 
oracle

>  <origin>  (1) 
autodockgpu

>  <m_score__min__energy>  (1) 
-9.1099999999999994

>  <m_primary>  (1) 
energy

>  <rmsd>  (1) 
2.959416108618954

>  <m_score__min__rmsd>  (1) 
2.959416108618954

>  <meeko>  (1) 
{"free_energy": -7.64, "intermolecular_energy": -9.73, "internal_energy": -2.27, "cluster_size": 38, "cluster_id": 1, "rank_in_cluster": 31}

>  <energy>  (1) 
-9.11

>  <cluster_rmsd>  (1) 
0.0

>  <cluster>  (1) 
1

$$$$

     RDKit          3D

 59 62  0  0  0  0  0  0  0  0999 V2000
  137.7090   71.1090  221.3720 O   0  0  0  0  0  0  0  0  0  0  0  0
  138.4080   71.5620  222.3180 C   0  0  0  0  0  0  0  0  0  0  0  0
  138.7980   72.9560  222.3390 N   0  0  0  0  0  0  0  0  0  0  0  0
  138.4280   73.8830  221.3210 C   0  0  0  0  0  0  0  0  0  0  0  0
  139.4420   74.5970  220.5580 C   0  0  0  0  0  0  0  0  0  0  0  0
  138.9300   75.2700  219.5600 O   0  0  0  0  0  0  0  0  0  0  0  0
  140.8250   74.6960  220.6870 N   0  0  0  0  0  0  0  0  0  0  0  0
  141.7170   73.5150  220.5700 C   0  0  0  0  0  0  0  0  0  0  0  0
  143.0040   73.7840  219.8700 C   0  0  0  0  0  0  0  0  0  0  0  0
  143.5330   75.1680  219.9010 C   0  0  0  0  0  0  0  0  0  0  0  0
  142.4330   76.2040  219.7920 C   0  0  0  0  0  0  0  0  0  0  0  0
  141.5320   75.9270  220.9860 C   0  0  1  0  0  0  0  0  0  0  0  0
  140.7120   77.0910  221.3610 C   0  0  0  0  0  0  0  0  0  0  0  0
  141.0190   77.5370  222.7110 N   0  0  0  0  0  0  0  0  0  0  0  0
  140.7720   78.9160  222.9670 C   0  0  0  0  0  0  0  0  0  0  0  0
  140.8980   79.8360  221.7980 C   0  0  0  0  0  0  0  0  0  0  0  0
  142.1370   80.7010  222.0210 C   0  0  0  0  0  0  0  0  0  0  0  0
  142.9660   79.8960  222.9660 C   0  0  0  0  0  0  0  0  0  0  0  0
  141.8860   79.3700  223.9220 C   0  0  0  0  0  0  0  0  0  0  0  0
  138.8480   70.7110  223.4220 C   0  0  0  0  0  0  0  0  0  0  0  0
  138.5770   69.3640  223.4010 C   0  0  0  0  0  0  0  0  0  0  0  0
  139.0140   68.5880  224.4760 C   0  0  0  0  0  0  0  0  0  0  0  0
  139.7000   69.1370  225.5400 C   0  0  0  0  0  0  0  0  0  0  0  0
  140.1410   68.3870  226.6150 C   0  0  0  0  0  0  0  0  0  0  0  0
  140.8290   69.0250  227.6510 C   0  0  0  0  0  0  0  0  0  0  0  0
  141.4010   68.1080  229.0250 Cl  0  0  0  0  0  0  0  0  0  0  0  0
  141.0720   70.3950  227.6130 C   0  0  0  0  0  0  0  0  0  0  0  0
  140.6270   71.1510  226.5290 C   0  0  0  0  0  0  0  0  0  0  0  0
  139.9510   70.4980  225.5200 C   0  0  0  0  0  0  0  0  0  0  0  0
  139.5180   71.2120  224.4730 N   0  0  0  0  0  0  0  0  0  0  0  0
  139.3900   73.2740  223.1650 H   0  0  0  0  0  0  0  0  0  0  0  0
  137.8232   73.3235  220.5922 H   0  0  0  0  0  0  0  0  0  0  0  0
  137.9392   74.6877  221.8898 H   0  0  0  0  0  0  0  0  0  0  0  0
  141.9454   73.1544  221.5838 H   0  0  0  0  0  0  0  0  0  0  0  0
  141.1780   72.7729  219.9627 H   0  0  0  0  0  0  0  0  0  0  0  0
  143.7656   73.1318  220.3222 H   0  0  0  0  0  0  0  0  0  0  0  0
  142.7859   73.5953  218.8085 H   0  0  0  0  0  0  0  0  0  0  0  0
  144.0706   75.3205  220.8485 H   0  0  0  0  0  0  0  0  0  0  0  0
  144.2016   75.2933  219.0365 H   0  0  0  0  0  0  0  0  0  0  0  0
  142.8493   77.2208  219.8462 H   0  0  0  0  0  0  0  0  0  0  0  0
  141.8925   76.1424  218.8359 H   0  0  0  0  0  0  0  0  0  0  0  0
  142.1016   75.7706  221.9139 H   0  0  0  0  0  0  0  0  0  0  0  0
  140.9120   77.9126  220.6574 H   0  0  0  0  0  0  0  0  0  0  0  0
  139.6525   76.7977  221.3233 H   0  0  0  0  0  0  0  0  0  0  0  0
  141.9630   77.2380  222.9750 H   0  0  0  0  0  0  0  0  0  0  0  0
  139.7343   78.9756  223.3270 H   0  0  0  0  0  0  0  0  0  0  0  0
  141.0098   79.2526  220.8722 H   0  0  0  0  0  0  0  0  0  0  0  0
  140.0004   80.4648  221.7034 H   0  0  0  0  0  0  0  0  0  0  0  0
  142.6728   80.8697  221.0753 H   0  0  0  0  0  0  0  0  0  0  0  0
  141.8943   81.7001  222.4120 H   0  0  0  0  0  0  0  0  0  0  0  0
  143.4847   79.0745  222.4502 H   0  0  0  0  0  0  0  0  0  0  0  0
  143.7728   80.4598  223.4571 H   0  0  0  0  0  0  0  0  0  0  0  0
  142.2631   78.5267  224.5192 H   0  0  0  0  0  0  0  0  0  0  0  0
  141.5513   80.1203  224.6535 H   0  0  0  0  0  0  0  0  0  0  0  0
  138.0311   68.9100  222.5608 H   0  0  0  0  0  0  0  0  0  0  0  0
  138.8055   67.5079  224.4748 H   0  0  0  0  0  0  0  0  0  0  0  0
  139.9530   67.3039  226.6542 H   0  0  0  0  0  0  0  0  0  0  0  0
  141.6146   70.8809  228.4373 H   0  0  0  0  0  0  0  0  0  0  0  0
  140.8096   72.2347  226.4803 H   0  0  0  0  0  0  0  0  0  0  0  0
  1  2  2  0
  2  3  1  0
  3  4  1  0
  4  5  1  0
  5  6  2  0
  5  7  1  0
  7  8  1  0
  8  9  1  0
  9 10  1  0
 10 11  1  0
 11 12  1  0
 12 13  1  0
 13 14  1  0
 14 15  1  0
 15 16  1  0
 16 17  1  0
 17 18  1  0
 18 19  1  0
  2 20  1  0
 20 21  2  0
 21 22  1  0
 22 23  2  0
 23 24  1  0
 24 25  2  0
 25 26  1  0
 25 27  1  0
 27 28  2  0
 28 29  1  0
 29 30  2  0
 12  7  1  0
 19 15  1  0
 30 20  1  0
 29 23  1  0
  3 31  1  0
  4 32  1  0
  4 33  1  0
  8 34  1  0
  8 35  1  0
  9 36  1  0
  9 37  1  0
 10 38  1  0
 10 39  1  0
 11 40  1  0
 11 41  1  0
 12 42  1  1
 13 43  1  0
 13 44  1  0
 14 45  1  0
 15 46  1  0
 16 47  1  0
 16 48  1  0
 17 49  1  0
 17 50  1  0
 18 51  1  0
 18 52  1  0
 19 53  1  0
 19 54  1  0
 21 55  1  0
 22 56  1  0
 24 57  1  0
 27 58  1  0
 28 59  1  0
M  END
>  <smiles>  (2) 
O=C(NCC(=O)N1CCCC[C@H]1CNC1CCCC1)c1ccc2cc(Cl)ccc2n1

>  <score_type>  (2) 
oracle

>  <origin>  (2) 
autodockgpu

>  <m_score__min__energy>  (2) 
-9.1099999999999994

>  <m_primary>  (2) 
energy

>  <rmsd>  (2) 
2.1940362081089053

>  <m_score__min__rmsd>  (2) 
2.1940362081089053

>  <meeko>  (2) 
{"free_energy": -8.65, "intermolecular_energy": -10.74, "internal_energy": -1.79, "cluster_size": 38, "cluster_id": 1, "rank_in_cluster": 7}

>  <energy>  (2) 
-8.81

>  <cluster_rmsd>  (2) 
1.12

>  <cluster>  (2) 
1

$$$$

     RDKit          3D

 59 62  0  0  0  0  0  0  0  0999 V2000
  139.5120   73.7390  222.3790 O   0  0  0  0  0  0  0  0  0  0  0  0
  140.2330   72.7060  222.3320 C   0  0  0  0  0  0  0  0  0  0  0  0
  141.1370   72.4910  221.2230 N   0  0  0  0  0  0  0  0  0  0  0  0
  141.2710   73.4100  220.1400 C   0  0  0  0  0  0  0  0  0  0  0  0
  141.2580   74.8480  220.3760 C   0  0  0  0  0  0  0  0  0  0  0  0
  142.2240   75.2290  221.1710 O   0  0  0  0  0  0  0  0  0  0  0  0
  140.4290   75.8700  219.9240 N   0  0  0  0  0  0  0  0  0  0  0  0
  140.3110   76.2170  218.4850 C   0  0  0  0  0  0  0  0  0  0  0  0
  138.9350   76.5860  218.0520 C   0  0  0  0  0  0  0  0  0  0  0  0
  138.0140   77.1430  219.0720 C   0  0  0  0  0  0  0  0  0  0  0  0
  138.1810   76.4720  220.4200 C   0  0  0  0  0  0  0  0  0  0  0  0
  139.6360   76.7220  220.7900 C   0  0  1  0  0  0  0  0  0  0  0  0
  139.8810   76.6120  222.2380 C   0  0  0  0  0  0  0  0  0  0  0  0
  141.0020   77.4450  222.6460 N   0  0  0  0  0  0  0  0  0  0  0  0
  140.8340   78.8420  222.4240 C   0  0  0  0  0  0  0  0  0  0  0  0
  141.8900   79.5110  221.6090 C   0  0  0  0  0  0  0  0  0  0  0  0
  142.6800   80.4300  222.5390 C   0  0  0  0  0  0  0  0  0  0  0  0
  142.4450   79.8480  223.8940 C   0  0  0  0  0  0  0  0  0  0  0  0
  140.9530   79.5020  223.8060 C   0  0  0  0  0  0  0  0  0  0  0  0
  140.1870   71.6920  223.3840 C   0  0  0  0  0  0  0  0  0  0  0  0
  139.6810   70.4440  223.1130 C   0  0  0  0  0  0  0  0  0  0  0  0
  139.6540   69.5060  224.1470 C   0  0  0  0  0  0  0  0  0  0  0  0
  140.1180   69.8020  225.4120 C   0  0  0  0  0  0  0  0  0  0  0  0
  140.1000   68.8890  226.4510 C   0  0  0  0  0  0  0  0  0  0  0  0
  140.5900   69.2740  227.7020 C   0  0  0  0  0  0  0  0  0  0  0  0
  140.5830   68.1450  229.0360 Cl  0  0  0  0  0  0  0  0  0  0  0  0
  141.0910   70.5550  227.9120 C   0  0  0  0  0  0  0  0  0  0  0  0
  141.1080   71.4770  226.8650 C   0  0  0  0  0  0  0  0  0  0  0  0
  140.6190   71.0710  225.6410 C   0  0  0  0  0  0  0  0  0  0  0  0
  140.6300   71.9470  224.6260 N   0  0  0  0  0  0  0  0  0  0  0  0
  141.7150   71.5980  221.2420 H   0  0  0  0  0  0  0  0  0  0  0  0
  142.2293   73.1810  219.6509 H   0  0  0  0  0  0  0  0  0  0  0  0
  140.3463   73.2483  219.5666 H   0  0  0  0  0  0  0  0  0  0  0  0
  140.9760   77.0692  218.2810 H   0  0  0  0  0  0  0  0  0  0  0  0
  140.5860   75.3137  217.9207 H   0  0  0  0  0  0  0  0  0  0  0  0
  139.0327   77.3365  217.2538 H   0  0  0  0  0  0  0  0  0  0  0  0
  138.4739   75.6327  217.7543 H   0  0  0  0  0  0  0  0  0  0  0  0
  138.2174   78.2182  219.1837 H   0  0  0  0  0  0  0  0  0  0  0  0
  136.9837   76.9642  218.7307 H   0  0  0  0  0  0  0  0  0  0  0  0
  137.5074   76.9213  221.1645 H   0  0  0  0  0  0  0  0  0  0  0  0
  137.9348   75.4004  220.3882 H   0  0  0  0  0  0  0  0  0  0  0  0
  139.9422   77.7630  220.6096 H   0  0  0  0  0  0  0  0  0  0  0  0
  138.9793   76.9331  222.7800 H   0  0  0  0  0  0  0  0  0  0  0  0
  140.1216   75.5645  222.4723 H   0  0  0  0  0  0  0  0  0  0  0  0
  141.8750   77.0750  222.2600 H   0  0  0  0  0  0  0  0  0  0  0  0
  139.8806   78.9505  221.8862 H   0  0  0  0  0  0  0  0  0  0  0  0
  142.5594   78.7563  221.1704 H   0  0  0  0  0  0  0  0  0  0  0  0
  141.4370   80.0883  220.7895 H   0  0  0  0  0  0  0  0  0  0  0  0
  143.7506   80.4172  222.2867 H   0  0  0  0  0  0  0  0  0  0  0  0
  142.3666   81.4819  222.4664 H   0  0  0  0  0  0  0  0  0  0  0  0
  143.0591   78.9508  224.0608 H   0  0  0  0  0  0  0  0  0  0  0  0
  142.7084   80.5158  224.7275 H   0  0  0  0  0  0  0  0  0  0  0  0
  140.6610   78.8038  224.6043 H   0  0  0  0  0  0  0  0  0  0  0  0
  140.2967   80.3763  223.9275 H   0  0  0  0  0  0  0  0  0  0  0  0
  139.3076   70.1907  222.1098 H   0  0  0  0  0  0  0  0  0  0  0  0
  139.2512   68.5021  223.9471 H   0  0  0  0  0  0  0  0  0  0  0  0
  139.7056   67.8741  226.2948 H   0  0  0  0  0  0  0  0  0  0  0  0
  141.4735   70.8406  228.9030 H   0  0  0  0  0  0  0  0  0  0  0  0
  141.4988   72.4948  227.0110 H   0  0  0  0  0  0  0  0  0  0  0  0
  1  2  2  0
  2  3  1  0
  3  4  1  0
  4  5  1  0
  5  6  2  0
  5  7  1  0
  7  8  1  0
  8  9  1  0
  9 10  1  0
 10 11  1  0
 11 12  1  0
 12 13  1  0
 13 14  1  0
 14 15  1  0
 15 16  1  0
 16 17  1  0
 17 18  1  0
 18 19  1  0
  2 20  1  0
 20 21  2  0
 21 22  1  0
 22 23  2  0
 23 24  1  0
 24 25  2  0
 25 26  1  0
 25 27  1  0
 27 28  2  0
 28 29  1  0
 29 30  2  0
 12  7  1  0
 19 15  1  0
 30 20  1  0
 29 23  1  0
  3 31  1  0
  4 32  1  0
  4 33  1  0
  8 34  1  0
  8 35  1  0
  9 36  1  0
  9 37  1  0
 10 38  1  0
 10 39  1  0
 11 40  1  0
 11 41  1  0
 12 42  1  6
 13 43  1  0
 13 44  1  0
 14 45  1  0
 15 46  1  0
 16 47  1  0
 16 48  1  0
 17 49  1  0
 17 50  1  0
 18 51  1  0
 18 52  1  0
 19 53  1  0
 19 54  1  0
 21 55  1  0
 22 56  1  0
 24 57  1  0
 27 58  1  0
 28 59  1  0
M  END
>  <smiles>  (3) 
O=C(NCC(=O)N1CCCC[C@H]1CNC1CCCC1)c1ccc2cc(Cl)ccc2n1

>  <score_type>  (3) 
oracle

>  <origin>  (3) 
autodockgpu

>  <m_score__min__energy>  (3) 
-9.1099999999999994

>  <m_primary>  (3) 
energy

>  <rmsd>  (3) 
2.564897106068774

>  <m_score__min__rmsd>  (3) 
2.564897106068774

>  <meeko>  (3) 
{"free_energy": -7.98, "intermolecular_energy": -10.06, "internal_energy": -2.31, "cluster_size": 38, "cluster_id": 1, "rank_in_cluster": 26}

>  <energy>  (3) 
-8.77

>  <cluster_rmsd>  (3) 
1.27

>  <cluster>  (3) 
1

$$$$

     RDKit          3D

 59 62  0  0  0  0  0  0  0  0999 V2000
  139.2790   71.1200  221.0560 O   0  0  0  0  0  0  0  0  0  0  0  0
  138.9320   71.6400  222.1520 C   0  0  0  0  0  0  0  0  0  0  0  0
  137.9340   72.6870  222.1830 N   0  0  0  0  0  0  0  0  0  0  0  0
  137.2930   73.1860  221.0110 C   0  0  0  0  0  0  0  0  0  0  0  0
  137.7780   74.3910  220.3510 C   0  0  0  0  0  0  0  0  0  0  0  0
  137.1580   74.6230  219.2230 O   0  0  0  0  0  0  0  0  0  0  0  0
  138.7580   75.3210  220.6870 N   0  0  0  0  0  0  0  0  0  0  0  0
  138.4230   76.6800  221.1820 C   0  0  0  0  0  0  0  0  0  0  0  0
  139.3280   77.1840  222.2520 C   0  0  0  0  0  0  0  0  0  0  0  0
  140.7100   76.6490  222.3000 C   0  0  0  0  0  0  0  0  0  0  0  0
  140.7650   75.1750  221.9570 C   0  0  0  0  0  0  0  0  0  0  0  0
  140.1840   75.0900  220.5530 C   0  0  1  0  0  0  0  0  0  0  0  0
  140.5960   73.8690  219.8400 C   0  0  0  0  0  0  0  0  0  0  0  0
  141.5260   73.0830  220.6370 N   0  0  0  0  0  0  0  0  0  0  0  0
  142.7340   72.7160  219.9770 C   0  0  0  0  0  0  0  0  0  0  0  0
  143.8380   72.2210  220.8510 C   0  0  0  0  0  0  0  0  0  0  0  0
  144.9390   73.2800  220.8490 C   0  0  0  0  0  0  0  0  0  0  0  0
  144.2250   74.5350  220.4700 C   0  0  0  0  0  0  0  0  0  0  0  0
  143.2890   74.0130  219.3700 C   0  0  0  0  0  0  0  0  0  0  0  0
  139.5150   71.2110  223.4220 C   0  0  0  0  0  0  0  0  0  0  0  0
  140.5080   71.9580  224.0080 C   0  0  0  0  0  0  0  0  0  0  0  0
  141.0390   71.5120  225.2200 C   0  0  0  0  0  0  0  0  0  0  0  0
  140.5930   70.3570  225.8300 C   0  0  0  0  0  0  0  0  0  0  0  0
  141.1040   69.8970  227.0290 C   0  0  0  0  0  0  0  0  0  0  0  0
  140.5940   68.7160  227.5760 C   0  0  0  0  0  0  0  0  0  0  0  0
  141.2170   68.1060  229.0910 Cl  0  0  0  0  0  0  0  0  0  0  0  0
  139.5860   68.0050  226.9320 C   0  0  0  0  0  0  0  0  0  0  0  0
  139.0700   68.4690  225.7220 C   0  0  0  0  0  0  0  0  0  0  0  0
  139.5910   69.6360  225.2040 C   0  0  0  0  0  0  0  0  0  0  0  0
  139.1040   70.0930  224.0420 N   0  0  0  0  0  0  0  0  0  0  0  0
  137.6880   73.0850  223.1390 H   0  0  0  0  0  0  0  0  0  0  0  0
  137.3350   72.3803  220.2633 H   0  0  0  0  0  0  0  0  0  0  0  0
  136.3053   73.4934  221.3851 H   0  0  0  0  0  0  0  0  0  0  0  0
  138.4720   77.3775  220.3328 H   0  0  0  0  0  0  0  0  0  0  0  0
  137.4182   76.6146  221.6249 H   0  0  0  0  0  0  0  0  0  0  0  0
  139.4029   78.2748  222.1310 H   0  0  0  0  0  0  0  0  0  0  0  0
  138.8660   76.8399  223.1891 H   0  0  0  0  0  0  0  0  0  0  0  0
  141.3298   77.2036  221.5801 H   0  0  0  0  0  0  0  0  0  0  0  0
  141.0838   76.7708  223.3273 H   0  0  0  0  0  0  0  0  0  0  0  0
  141.8028   74.8107  221.9713 H   0  0  0  0  0  0  0  0  0  0  0  0
  140.2105   74.5563  222.6779 H   0  0  0  0  0  0  0  0  0  0  0  0
  140.5890   75.8637  219.8841 H   0  0  0  0  0  0  0  0  0  0  0  0
  139.7049   73.2610  219.6250 H   0  0  0  0  0  0  0  0  0  0  0  0
  141.0989   74.1632  218.9070 H   0  0  0  0  0  0  0  0  0  0  0  0
  141.0390   72.2890  221.0630 H   0  0  0  0  0  0  0  0  0  0  0  0
  142.4667   71.9023  219.2867 H   0  0  0  0  0  0  0  0  0  0  0  0
  143.4661   72.0685  221.8749 H   0  0  0  0  0  0  0  0  0  0  0  0
  144.2247   71.2610  220.4784 H   0  0  0  0  0  0  0  0  0  0  0  0
  145.3942   73.3739  221.8460 H   0  0  0  0  0  0  0  0  0  0  0  0
  145.7632   73.0356  220.1627 H   0  0  0  0  0  0  0  0  0  0  0  0
  143.6609   74.9515  221.3175 H   0  0  0  0  0  0  0  0  0  0  0  0
  144.8848   75.3566  220.1544 H   0  0  0  0  0  0  0  0  0  0  0  0
  142.4812   74.7308  219.1644 H   0  0  0  0  0  0  0  0  0  0  0  0
  143.7959   73.8587  218.4060 H   0  0  0  0  0  0  0  0  0  0  0  0
  140.8744   72.8814  223.5357 H   0  0  0  0  0  0  0  0  0  0  0  0
  141.8354   72.0978  225.7023 H   0  0  0  0  0  0  0  0  0  0  0  0
  141.9007   70.4524  227.5455 H   0  0  0  0  0  0  0  0  0  0  0  0
  139.1963   67.0775  227.3769 H   0  0  0  0  0  0  0  0  0  0  0  0
  138.2729   67.9215  225.1977 H   0  0  0  0  0  0  0  0  0  0  0  0
  1  2  2  0
  2  3  1  0
  3  4  1  0
  4  5  1  0
  5  6  2  0
  5  7  1  0
  7  8  1  0
  8  9  1  0
  9 10  1  0
 10 11  1  0
 11 12  1  0
 12 13  1  0
 13 14  1  0
 14 15  1  0
 15 16  1  0
 16 17  1  0
 17 18  1  0
 18 19  1  0
  2 20  1  0
 20 21  2  0
 21 22  1  0
 22 23  2  0
 23 24  1  0
 24 25  2  0
 25 26  1  0
 25 27  1  0
 27 28  2  0
 28 29  1  0
 29 30  2  0
 12  7  1  0
 19 15  1  0
 30 20  1  0
 29 23  1  0
  3 31  1  0
  4 32  1  0
  4 33  1  0
  8 34  1  0
  8 35  1  0
  9 36  1  0
  9 37  1  0
 10 38  1  0
 10 39  1  0
 11 40  1  0
 11 41  1  0
 12 42  1  6
 13 43  1  0
 13 44  1  0
 14 45  1  0
 15 46  1  0
 16 47  1  0
 16 48  1  0
 17 49  1  0
 17 50  1  0
 18 51  1  0
 18 52  1  0
 19 53  1  0
 19 54  1  0
 21 55  1  0
 22 56  1  0
 24 57  1  0
 27 58  1  0
 28 59  1  0
M  END
>  <smiles>  (4) 
O=C(NCC(=O)N1CCCC[C@H]1CNC1CCCC1)c1ccc2cc(Cl)ccc2n1

>  <score_type>  (4) 
oracle

>  <origin>  (4) 
autodockgpu

>  <m_score__min__energy>  (4) 
-9.1099999999999994

>  <m_primary>  (4) 
energy

>  <rmsd>  (4) 
4.8536927588172265

>  <m_score__min__rmsd>  (4) 
4.8536927588172265

>  <meeko>  (4) 
{"free_energy": -6.77, "intermolecular_energy": -8.86, "internal_energy": -2.91, "cluster_size": 2, "cluster_id": 5, "rank_in_cluster": 1}

>  <energy>  (4) 
-8.76

>  <cluster_rmsd>  (4) 
1.23

>  <cluster>  (4) 
1

$$$$

     RDKit          3D

 59 62  0  0  0  0  0  0  0  0999 V2000
  141.1020   72.8260  220.9970 O   0  0  0  0  0  0  0  0  0  0  0  0
  140.3600   73.0120  222.0000 C   0  0  0  0  0  0  0  0  0  0  0  0
  139.6020   74.2370  222.1340 N   0  0  0  0  0  0  0  0  0  0  0  0
  139.6400   75.2850  221.1690 C   0  0  0  0  0  0  0  0  0  0  0  0
  140.7140   76.2710  221.1800 C   0  0  0  0  0  0  0  0  0  0  0  0
  141.1430   76.5240  222.3890 O   0  0  0  0  0  0  0  0  0  0  0  0
  141.3540   76.9790  220.1670 N   0  0  0  0  0  0  0  0  0  0  0  0
  142.5390   76.4420  219.4510 C   0  0  0  0  0  0  0  0  0  0  0  0
  142.5700   76.7520  217.9950 C   0  0  0  0  0  0  0  0  0  0  0  0
  141.8550   77.9640  217.5290 C   0  0  0  0  0  0  0  0  0  0  0  0
  140.5550   78.1830  218.2760 C   0  0  0  0  0  0  0  0  0  0  0  0
  140.9720   78.3100  219.7340 C   0  0  1  0  0  0  0  0  0  0  0  0
  139.9710   79.0150  220.5530 C   0  0  0  0  0  0  0  0  0  0  0  0
  140.4860   79.3010  221.8830 N   0  0  0  0  0  0  0  0  0  0  0  0
  141.8400   79.7390  221.9300 C   0  0  0  0  0  0  0  0  0  0  0  0
  142.6070   79.3790  223.1600 C   0  0  0  0  0  0  0  0  0  0  0  0
  142.8600   80.6670  223.9410 C   0  0  0  0  0  0  0  0  0  0  0  0
  141.7860   81.5880  223.4640 C   0  0  0  0  0  0  0  0  0  0  0  0
  141.7820   81.2740  221.9610 C   0  0  0  0  0  0  0  0  0  0  0  0
  140.2350   72.0100  223.0560 C   0  0  0  0  0  0  0  0  0  0  0  0
  139.6480   70.7970  222.7860 C   0  0  0  0  0  0  0  0  0  0  0  0
  139.5470   69.8690  223.8250 C   0  0  0  0  0  0  0  0  0  0  0  0
  140.0160   70.1410  225.0940 C   0  0  0  0  0  0  0  0  0  0  0  0
  139.9250   69.2370  226.1370 C   0  0  0  0  0  0  0  0  0  0  0  0
  140.4260   69.5960  227.3910 C   0  0  0  0  0  0  0  0  0  0  0  0
  140.3280   68.4780  228.7310 Cl  0  0  0  0  0  0  0  0  0  0  0  0
  141.0090   70.8420  227.6000 C   0  0  0  0  0  0  0  0  0  0  0  0
  141.1010   71.7540  226.5490 C   0  0  0  0  0  0  0  0  0  0  0  0
  140.5990   71.3750  225.3210 C   0  0  0  0  0  0  0  0  0  0  0  0
  140.6800   72.2410  224.3020 N   0  0  0  0  0  0  0  0  0  0  0  0
  138.9970   74.3320  223.0050 H   0  0  0  0  0  0  0  0  0  0  0  0
  139.6682   74.8013  220.1815 H   0  0  0  0  0  0  0  0  0  0  0  0
  138.7547   75.8854  221.4255 H   0  0  0  0  0  0  0  0  0  0  0  0
  143.4421   76.8676  219.9128 H   0  0  0  0  0  0  0  0  0  0  0  0
  142.4888   75.3466  219.5379 H   0  0  0  0  0  0  0  0  0  0  0  0
  143.6256   76.8628  217.7060 H   0  0  0  0  0  0  0  0  0  0  0  0
  142.0328   75.9160  217.5233 H   0  0  0  0  0  0  0  0  0  0  0  0
  142.5036   78.8391  217.6823 H   0  0  0  0  0  0  0  0  0  0  0  0
  141.6143   77.8263  216.4645 H   0  0  0  0  0  0  0  0  0  0  0  0
  140.0586   79.1023  217.9318 H   0  0  0  0  0  0  0  0  0  0  0  0
  139.8367   77.3655  218.1154 H   0  0  0  0  0  0  0  0  0  0  0  0
  141.8430   78.9690  219.8648 H   0  0  0  0  0  0  0  0  0  0  0  0
  139.7062   79.9618  220.0596 H   0  0  0  0  0  0  0  0  0  0  0  0
  139.0862   78.3692  220.6537 H   0  0  0  0  0  0  0  0  0  0  0  0
  140.2920   78.5160  222.5120 H   0  0  0  0  0  0  0  0  0  0  0  0
  142.3416   79.2635  221.0742 H   0  0  0  0  0  0  0  0  0  0  0  0
  142.0235   78.6769  223.7737 H   0  0  0  0  0  0  0  0  0  0  0  0
  143.5586   78.8957  222.8938 H   0  0  0  0  0  0  0  0  0  0  0  0
  142.7744   80.4923  225.0237 H   0  0  0  0  0  0  0  0  0  0  0  0
  143.8703   81.0713  223.7800 H   0  0  0  0  0  0  0  0  0  0  0  0
  140.8168   81.3543  223.9287 H   0  0  0  0  0  0  0  0  0  0  0  0
  141.9545   82.6475  223.7068 H   0  0  0  0  0  0  0  0  0  0  0  0
  140.8640   81.6450  221.4818 H   0  0  0  0  0  0  0  0  0  0  0  0
  142.6099   81.7508  221.4158 H   0  0  0  0  0  0  0  0  0  0  0  0
  139.2685   70.5636  221.7802 H   0  0  0  0  0  0  0  0  0  0  0  0
  139.0801   68.8931  223.6260 H   0  0  0  0  0  0  0  0  0  0  0  0
  139.4650   68.2500  225.9815 H   0  0  0  0  0  0  0  0  0  0  0  0
  141.3974   71.1077  228.5943 H   0  0  0  0  0  0  0  0  0  0  0  0
  141.5590   72.7435  226.6943 H   0  0  0  0  0  0  0  0  0  0  0  0
  1  2  2  0
  2  3  1  0
  3  4  1  0
  4  5  1  0
  5  6  2  0
  5  7  1  0
  7  8  1  0
  8  9  1  0
  9 10  1  0
 10 11  1  0
 11 12  1  0
 12 13  1  0
 13 14  1  0
 14 15  1  0
 15 16  1  0
 16 17  1  0
 17 18  1  0
 18 19  1  0
  2 20  1  0
 20 21  2  0
 21 22  1  0
 22 23  2  0
 23 24  1  0
 24 25  2  0
 25 26  1  0
 25 27  1  0
 27 28  2  0
 28 29  1  0
 29 30  2  0
 12  7  1  0
 19 15  1  0
 30 20  1  0
 29 23  1  0
  3 31  1  0
  4 32  1  0
  4 33  1  0
  8 34  1  0
  8 35  1  0
  9 36  1  0
  9 37  1  0
 10 38  1  0
 10 39  1  0
 11 40  1  0
 11 41  1  0
 12 42  1  6
 13 43  1  0
 13 44  1  0
 14 45  1  0
 15 46  1  0
 16 47  1  0
 16 48  1  0
 17 49  1  0
 17 50  1  0
 18 51  1  0
 18 52  1  0
 19 53  1  0
 19 54  1  0
 21 55  1  0
 22 56  1  0
 24 57  1  0
 27 58  1  0
 28 59  1  0
M  END
>  <smiles>  (5) 
O=C(NCC(=O)N1CCCC[C@H]1CNC1CCCC1)c1ccc2cc(Cl)ccc2n1

>  <score_type>  (5) 
oracle

>  <origin>  (5) 
autodockgpu

>  <m_score__min__energy>  (5) 
-9.1099999999999994

>  <m_primary>  (5) 
energy

>  <rmsd>  (5) 
2.4909778709090324

>  <m_score__min__rmsd>  (5) 
2.4909778709090324

>  <meeko>  (5) 
{"free_energy": -8.43, "intermolecular_energy": -10.52, "internal_energy": -2.33, "cluster_size": 38, "cluster_id": 1, "rank_in_cluster": 13}

>  <energy>  (5) 
-8.72

>  <cluster_rmsd>  (5) 
1.21

>  <cluster>  (5) 
1

$$$$

     RDKit          3D

 59 62  0  0  0  0  0  0  0  0999 V2000
  135.4880   72.1470  221.3960 O   0  0  0  0  0  0  0  0  0  0  0  0
  136.4450   72.4730  222.1490 C   0  0  0  0  0  0  0  0  0  0  0  0
  136.9510   73.8290  222.1460 N   0  0  0  0  0  0  0  0  0  0  0  0
  136.4160   74.8570  221.3170 C   0  0  0  0  0  0  0  0  0  0  0  0
  137.2250   76.0080  220.9380 C   0  0  0  0  0  0  0  0  0  0  0  0
  136.6710   77.1410  221.2830 O   0  0  0  0  0  0  0  0  0  0  0  0
  138.4520   76.1250  220.2900 N   0  0  0  0  0  0  0  0  0  0  0  0
  138.5560   76.3970  218.8340 C   0  0  0  0  0  0  0  0  0  0  0  0
  139.6670   77.3140  218.4570 C   0  0  0  0  0  0  0  0  0  0  0  0
  140.8460   77.3790  219.3540 C   0  0  0  0  0  0  0  0  0  0  0  0
  140.4580   77.2930  220.8160 C   0  0  0  0  0  0  0  0  0  0  0  0
  139.7380   75.9580  220.9390 C   0  0  1  0  0  0  0  0  0  0  0  0
  139.7250   75.4450  222.3200 C   0  0  0  0  0  0  0  0  0  0  0  0
  139.9070   74.0020  222.3460 N   0  0  0  0  0  0  0  0  0  0  0  0
  140.3200   73.4170  221.1150 C   0  0  0  0  0  0  0  0  0  0  0  0
  139.2610   72.7140  220.3320 C   0  0  0  0  0  0  0  0  0  0  0  0
  139.5680   71.2180  220.3790 C   0  0  0  0  0  0  0  0  0  0  0  0
  140.4080   71.0660  221.6040 C   0  0  0  0  0  0  0  0  0  0  0  0
  141.3090   72.3040  221.4910 C   0  0  0  0  0  0  0  0  0  0  0  0
  137.0770   71.5080  223.0470 C   0  0  0  0  0  0  0  0  0  0  0  0
  136.4810   70.2920  223.2770 C   0  0  0  0  0  0  0  0  0  0  0  0
  137.1170   69.4010  224.1430 C   0  0  0  0  0  0  0  0  0  0  0  0
  138.3120   69.7110  224.7610 C   0  0  0  0  0  0  0  0  0  0  0  0
  138.9590   68.8440  225.6220 C   0  0  0  0  0  0  0  0  0  0  0  0
  140.1660   69.2410  226.2040 C   0  0  0  0  0  0  0  0  0  0  0  0
  141.0100   68.1690  227.2970 Cl  0  0  0  0  0  0  0  0  0  0  0  0
  140.7180   70.4870  225.9300 C   0  0  0  0  0  0  0  0  0  0  0  0
  140.0660   71.3630  225.0610 C   0  0  0  0  0  0  0  0  0  0  0  0
  138.8770   70.9470  224.5000 C   0  0  0  0  0  0  0  0  0  0  0  0
  138.2390   71.7780  223.6640 N   0  0  0  0  0  0  0  0  0  0  0  0
  137.7630   74.0380  222.8030 H   0  0  0  0  0  0  0  0  0  0  0  0
  136.1017   74.3728  220.3806 H   0  0  0  0  0  0  0  0  0  0  0  0
  135.6394   75.3045  221.9546 H   0  0  0  0  0  0  0  0  0  0  0  0
  138.7095   75.4392  218.3153 H   0  0  0  0  0  0  0  0  0  0  0  0
  137.6219   76.8987  218.5410 H   0  0  0  0  0  0  0  0  0  0  0  0
  140.0265   77.0030  217.4650 H   0  0  0  0  0  0  0  0  0  0  0  0
  139.2247   78.3199  218.5084 H   0  0  0  0  0  0  0  0  0  0  0  0
  141.5187   76.5418  219.1162 H   0  0  0  0  0  0  0  0  0  0  0  0
  141.3405   78.3482  219.1922 H   0  0  0  0  0  0  0  0  0  0  0  0
  141.3513   77.3140  221.4576 H   0  0  0  0  0  0  0  0  0  0  0  0
  139.8302   78.1386  221.1335 H   0  0  0  0  0  0  0  0  0  0  0  0
  140.2708   75.1456  220.4232 H   0  0  0  0  0  0  0  0  0  0  0  0
  140.5393   75.9198  222.8870 H   0  0  0  0  0  0  0  0  0  0  0  0
  138.7499   75.6816  222.7707 H   0  0  0  0  0  0  0  0  0  0  0  0
  139.0820   73.5510  222.7530 H   0  0  0  0  0  0  0  0  0  0  0  0
  140.6954   74.2462  220.4973 H   0  0  0  0  0  0  0  0  0  0  0  0
  138.2740   72.9085  220.7771 H   0  0  0  0  0  0  0  0  0  0  0  0
  139.2469   73.0730  219.2923 H   0  0  0  0  0  0  0  0  0  0  0  0
  138.6420   70.6302  220.4632 H   0  0  0  0  0  0  0  0  0  0  0  0
  140.0719   70.8580  219.4699 H   0  0  0  0  0  0  0  0  0  0  0  0
  139.7978   71.0916  222.5189 H   0  0  0  0  0  0  0  0  0  0  0  0
  140.9514   70.1117  221.6678 H   0  0  0  0  0  0  0  0  0  0  0  0
  141.8039   72.5217  222.4490 H   0  0  0  0  0  0  0  0  0  0  0  0
  142.1233   72.1827  220.7615 H   0  0  0  0  0  0  0  0  0  0  0  0
  135.5295   70.0278  222.7924 H   0  0  0  0  0  0  0  0  0  0  0  0
  136.6525   68.4233  224.3388 H   0  0  0  0  0  0  0  0  0  0  0  0
  138.5300   67.8561  225.8457 H   0  0  0  0  0  0  0  0  0  0  0  0
  141.6686   70.7825  226.3980 H   0  0  0  0  0  0  0  0  0  0  0  0
  140.4868   72.3530  224.8311 H   0  0  0  0  0  0  0  0  0  0  0  0
  1  2  2  0
  2  3  1  0
  3  4  1  0
  4  5  1  0
  5  6  2  0
  5  7  1  0
  7  8  1  0
  8  9  1  0
  9 10  1  0
 10 11  1  0
 11 12  1  0
 12 13  1  0
 13 14  1  0
 14 15  1  0
 15 16  1  0
 16 17  1  0
 17 18  1  0
 18 19  1  0
  2 20  1  0
 20 21  2  0
 21 22  1  0
 22 23  2  0
 23 24  1  0
 24 25  2  0
 25 26  1  0
 25 27  1  0
 27 28  2  0
 28 29  1  0
 29 30  2  0
 12  7  1  0
 19 15  1  0
 30 20  1  0
 29 23  1  0
  3 31  1  0
  4 32  1  0
  4 33  1  0
  8 34  1  0
  8 35  1  0
  9 36  1  0
  9 37  1  0
 10 38  1  0
 10 39  1  0
 11 40  1  0
 11 41  1  0
 12 42  1  6
 13 43  1  0
 13 44  1  0
 14 45  1  0
 15 46  1  0
 16 47  1  0
 16 48  1  0
 17 49  1  0
 17 50  1  0
 18 51  1  0
 18 52  1  0
 19 53  1  0
 19 54  1  0
 21 55  1  0
 22 56  1  0
 24 57  1  0
 27 58  1  0
 28 59  1  0
M  END
>  <smiles>  (6) 
O=C(NCC(=O)N1CCCC[C@H]1CNC1CCCC1)c1ccc2cc(Cl)ccc2n1

>  <score_type>  (6) 
oracle

>  <origin>  (6) 
autodockgpu

>  <m_score__min__energy>  (6) 
-9.1099999999999994

>  <m_primary>  (6) 
energy

>  <rmsd>  (6) 
4.689079701556004

>  <m_score__min__rmsd>  (6) 
4.689079701556004

>  <meeko>  (6) 
{"free_energy": -5.51, "intermolecular_energy": -7.6, "internal_energy": -4.45, "cluster_size": 2, "cluster_id": 5, "rank_in_cluster": 2}

>  <energy>  (6) 
-8.67

>  <cluster_rmsd>  (6) 
1.39

>  <cluster>  (6) 
1

$$$$

     RDKit          3D

 59 62  0  0  0  0  0  0  0  0999 V2000
  141.3360   73.1370  221.2580 O   0  0  0  0  0  0  0  0  0  0  0  0
  140.2190   72.9830  221.8220 C   0  0  0  0  0  0  0  0  0  0  0  0
  139.0680   73.7480  221.3930 N   0  0  0  0  0  0  0  0  0  0  0  0
  139.1190   74.6990  220.3320 C   0  0  0  0  0  0  0  0  0  0  0  0
  139.3130   76.1170  220.6090 C   0  0  0  0  0  0  0  0  0  0  0  0
  139.1520   76.8570  219.5430 O   0  0  0  0  0  0  0  0  0  0  0  0
  139.6310   76.8160  221.7690 N   0  0  0  0  0  0  0  0  0  0  0  0
  141.0340   77.0990  222.1650 C   0  0  0  0  0  0  0  0  0  0  0  0
  141.2420   78.4400  222.7760 C   0  0  0  0  0  0  0  0  0  0  0  0
  140.0910   79.0750  223.4610 C   0  0  0  0  0  0  0  0  0  0  0  0
  138.7830   78.8160  222.7410 C   0  0  0  0  0  0  0  0  0  0  0  0
  138.6530   77.3000  222.7260 C   0  0  1  0  0  0  0  0  0  0  0  0
  137.2630   76.8500  222.5410 C   0  0  0  0  0  0  0  0  0  0  0  0
  137.1700   75.3990  222.5820 N   0  0  0  0  0  0  0  0  0  0  0  0
  135.8460   74.8760  222.6390 C   0  0  0  0  0  0  0  0  0  0  0  0
  134.7560   75.8660  222.8790 C   0  0  0  0  0  0  0  0  0  0  0  0
  134.2020   75.6150  224.2800 C   0  0  0  0  0  0  0  0  0  0  0  0
  135.3190   74.9160  224.9830 C   0  0  0  0  0  0  0  0  0  0  0  0
  135.8080   73.9690  223.8780 C   0  0  0  0  0  0  0  0  0  0  0  0
  140.0400   72.0350  222.9210 C   0  0  0  0  0  0  0  0  0  0  0  0
  139.2460   70.9270  222.7490 C   0  0  0  0  0  0  0  0  0  0  0  0
  139.1010   70.0490  223.8240 C   0  0  0  0  0  0  0  0  0  0  0  0
  139.7270   70.2680  225.0340 C   0  0  0  0  0  0  0  0  0  0  0  0
  139.5970   69.4120  226.1120 C   0  0  0  0  0  0  0  0  0  0  0  0
  140.2670   69.7110  227.3020 C   0  0  0  0  0  0  0  0  0  0  0  0
  140.1240   68.6500  228.6840 Cl  0  0  0  0  0  0  0  0  0  0  0  0
  141.0570   70.8510  227.4120 C   0  0  0  0  0  0  0  0  0  0  0  0
  141.1890   71.7150  226.3250 C   0  0  0  0  0  0  0  0  0  0  0  0
  140.5170   71.3970  225.1630 C   0  0  0  0  0  0  0  0  0  0  0  0
  140.6350   72.2180  224.1110 N   0  0  0  0  0  0  0  0  0  0  0  0
  138.1560   73.5730  221.9120 H   0  0  0  0  0  0  0  0  0  0  0  0
  139.9460   74.3918  219.6749 H   0  0  0  0  0  0  0  0  0  0  0  0
  138.0970   74.6672  219.9265 H   0  0  0  0  0  0  0  0  0  0  0  0
  141.3461   76.3367  222.8940 H   0  0  0  0  0  0  0  0  0  0  0  0
  141.6309   77.0790  221.2413 H   0  0  0  0  0  0  0  0  0  0  0  0
  142.0500   78.3414  223.5158 H   0  0  0  0  0  0  0  0  0  0  0  0
  141.4558   79.1018  221.9238 H   0  0  0  0  0  0  0  0  0  0  0  0
  140.0195   78.6714  224.4818 H   0  0  0  0  0  0  0  0  0  0  0  0
  140.2616   80.1616  223.4714 H   0  0  0  0  0  0  0  0  0  0  0  0
  137.9427   79.2734  223.2838 H   0  0  0  0  0  0  0  0  0  0  0  0
  138.7685   79.2481  221.7295 H   0  0  0  0  0  0  0  0  0  0  0  0
  138.8855   76.8500  223.7024 H   0  0  0  0  0  0  0  0  0  0  0  0
  136.6394   77.2723  223.3428 H   0  0  0  0  0  0  0  0  0  0  0  0
  136.9138   77.1937  221.5562 H   0  0  0  0  0  0  0  0  0  0  0  0
  137.7850   75.0270  223.3130 H   0  0  0  0  0  0  0  0  0  0  0  0
  135.6622   74.4110  221.6592 H   0  0  0  0  0  0  0  0  0  0  0  0
  135.1567   76.8882  222.8120 H   0  0  0  0  0  0  0  0  0  0  0  0
  133.9625   75.7561  222.1252 H   0  0  0  0  0  0  0  0  0  0  0  0
  133.9563   76.5633  224.7803 H   0  0  0  0  0  0  0  0  0  0  0  0
  133.2711   75.0291  224.2714 H   0  0  0  0  0  0  0  0  0  0  0  0
  136.1066   75.6196  225.2908 H   0  0  0  0  0  0  0  0  0  0  0  0
  135.0253   74.4131  225.9162 H   0  0  0  0  0  0  0  0  0  0  0  0
  136.8081   73.5738  224.1097 H   0  0  0  0  0  0  0  0  0  0  0  0
  135.1664   73.0848  223.7490 H   0  0  0  0  0  0  0  0  0  0  0  0
  138.7391   70.7374  221.7913 H   0  0  0  0  0  0  0  0  0  0  0  0
  138.4694   69.1565  223.7033 H   0  0  0  0  0  0  0  0  0  0  0  0
  138.9749   68.5081  226.0344 H   0  0  0  0  0  0  0  0  0  0  0  0
  141.5773   71.0708  228.3559 H   0  0  0  0  0  0  0  0  0  0  0  0
  141.8091   72.6210  226.3922 H   0  0  0  0  0  0  0  0  0  0  0  0
  1  2  2  0
  2  3  1  0
  3  4  1  0
  4  5  1  0
  5  6  2  0
  5  7  1  0
  7  8  1  0
  8  9  1  0
  9 10  1  0
 10 11  1  0
 11 12  1  0
 12 13  1  0
 13 14  1  0
 14 15  1  0
 15 16  1  0
 16 17  1  0
 17 18  1  0
 18 19  1  0
  2 20  1  0
 20 21  2  0
 21 22  1  0
 22 23  2  0
 23 24  1  0
 24 25  2  0
 25 26  1  0
 25 27  1  0
 27 28  2  0
 28 29  1  0
 29 30  2  0
 12  7  1  0
 19 15  1  0
 30 20  1  0
 29 23  1  0
  3 31  1  0
  4 32  1  0
  4 33  1  0
  8 34  1  0
  8 35  1  0
  9 36  1  0
  9 37  1  0
 10 38  1  0
 10 39  1  0
 11 40  1  0
 11 41  1  0
 12 42  1  1
 13 43  1  0
 13 44  1  0
 14 45  1  0
 15 46  1  0
 16 47  1  0
 16 48  1  0
 17 49  1  0
 17 50  1  0
 18 51  1  0
 18 52  1  0
 19 53  1  0
 19 54  1  0
 21 55  1  0
 22 56  1  0
 24 57  1  0
 27 58  1  0
 28 59  1  0
M  END
>  <smiles>  (7) 
O=C(NCC(=O)N1CCCC[C@H]1CNC1CCCC1)c1ccc2cc(Cl)ccc2n1

>  <score_type>  (7) 
oracle

>  <origin>  (7) 
autodockgpu

>  <m_score__min__energy>  (7) 
-9.1099999999999994

>  <m_primary>  (7) 
energy

>  <rmsd>  (7) 
5.162295404473534

>  <m_score__min__rmsd>  (7) 
5.162295404473534

>  <meeko>  (7) 
{"free_energy": -7.1, "intermolecular_energy": -9.19, "internal_energy": -2.54, "cluster_size": 3, "cluster_id": 2, "rank_in_cluster": 3}

>  <energy>  (7) 
-8.65

>  <cluster_rmsd>  (7) 
1.43

>  <cluster>  (7) 
1

$$$$

     RDKit          3D

 59 62  0  0  0  0  0  0  0  0999 V2000
  137.9260   77.7160  220.7410 O   0  0  0  0  0  0  0  0  0  0  0  0
  137.5510   77.3580  221.8900 C   0  0  0  0  0  0  0  0  0  0  0  0
  137.7510   75.9950  222.3350 N   0  0  0  0  0  0  0  0  0  0  0  0
  138.3700   74.9960  221.5270 C   0  0  0  0  0  0  0  0  0  0  0  0
  139.7920   74.7070  221.6570 C   0  0  0  0  0  0  0  0  0  0  0  0
  140.0160   73.6210  222.3510 O   0  0  0  0  0  0  0  0  0  0  0  0
  140.9330   75.3560  221.1930 N   0  0  0  0  0  0  0  0  0  0  0  0
  141.8800   74.7130  220.2470 C   0  0  0  0  0  0  0  0  0  0  0  0
  142.4420   75.6330  219.2200 C   0  0  0  0  0  0  0  0  0  0  0  0
  142.5210   77.0760  219.5500 C   0  0  0  0  0  0  0  0  0  0  0  0
  141.3220   77.5460  220.3480 C   0  0  0  0  0  0  0  0  0  0  0  0
  141.3400   76.6860  221.6030 C   0  0  1  0  0  0  0  0  0  0  0  0
  140.5980   77.2940  222.7200 C   0  0  0  0  0  0  0  0  0  0  0  0
  140.2530   78.6780  222.4310 N   0  0  0  0  0  0  0  0  0  0  0  0
  140.5800   79.6130  223.4540 C   0  0  0  0  0  0  0  0  0  0  0  0
  140.7180   81.0370  223.0250 C   0  0  0  0  0  0  0  0  0  0  0  0
  142.1950   81.4110  223.1330 C   0  0  0  0  0  0  0  0  0  0  0  0
  142.9000   80.0970  223.0600 C   0  0  0  0  0  0  0  0  0  0  0  0
  141.9870   79.2300  223.9370 C   0  0  0  0  0  0  0  0  0  0  0  0
  136.9070   78.2910  222.8120 C   0  0  0  0  0  0  0  0  0  0  0  0
  135.5630   78.1790  223.0740 C   0  0  0  0  0  0  0  0  0  0  0  0
  134.9870   79.0930  223.9600 C   0  0  0  0  0  0  0  0  0  0  0  0
  135.7280   80.0880  224.5650 C   0  0  0  0  0  0  0  0  0  0  0  0
  135.1780   81.0030  225.4440 C   0  0  0  0  0  0  0  0  0  0  0  0
  136.0030   81.9780  226.0110 C   0  0  0  0  0  0  0  0  0  0  0  0
  135.3410   83.1510  227.1270 Cl  0  0  0  0  0  0  0  0  0  0  0  0
  137.3580   82.0380  225.7040 C   0  0  0  0  0  0  0  0  0  0  0  0
  137.9130   81.1160  224.8170 C   0  0  0  0  0  0  0  0  0  0  0  0
  137.0780   80.1640  224.2720 C   0  0  0  0  0  0  0  0  0  0  0  0
  137.5980   79.2710  223.4180 N   0  0  0  0  0  0  0  0  0  0  0  0
  137.4100   75.7570  223.3140 H   0  0  0  0  0  0  0  0  0  0  0  0
  137.8387   74.0545  221.7303 H   0  0  0  0  0  0  0  0  0  0  0  0
  138.2990   75.4218  220.5153 H   0  0  0  0  0  0  0  0  0  0  0  0
  142.7151   74.2939  220.8275 H   0  0  0  0  0  0  0  0  0  0  0  0
  141.3089   73.9461  219.7032 H   0  0  0  0  0  0  0  0  0  0  0  0
  143.4638   75.2913  218.9982 H   0  0  0  0  0  0  0  0  0  0  0  0
  141.7300   75.5801  218.3832 H   0  0  0  0  0  0  0  0  0  0  0  0
  143.4319   77.2553  220.1401 H   0  0  0  0  0  0  0  0  0  0  0  0
  142.5397   77.6385  218.6049 H   0  0  0  0  0  0  0  0  0  0  0  0
  141.4191   78.6112  220.6050 H   0  0  0  0  0  0  0  0  0  0  0  0
  140.3810   77.4480  219.7868 H   0  0  0  0  0  0  0  0  0  0  0  0
  142.3451   76.6091  222.0434 H   0  0  0  0  0  0  0  0  0  0  0  0
  139.6741   76.7220  222.8906 H   0  0  0  0  0  0  0  0  0  0  0  0
  141.2374   77.2739  223.6149 H   0  0  0  0  0  0  0  0  0  0  0  0
  139.2780   78.7400  222.1220 H   0  0  0  0  0  0  0  0  0  0  0  0
  139.7582   79.5629  224.1835 H   0  0  0  0  0  0  0  0  0  0  0  0
  140.3775   81.1501  221.9851 H   0  0  0  0  0  0  0  0  0  0  0  0
  140.1059   81.6931  223.6613 H   0  0  0  0  0  0  0  0  0  0  0  0
  142.4960   82.0642  222.3007 H   0  0  0  0  0  0  0  0  0  0  0  0
  142.4271   81.9684  224.0525 H   0  0  0  0  0  0  0  0  0  0  0  0
  142.9467   79.7197  222.0278 H   0  0  0  0  0  0  0  0  0  0  0  0
  143.9502   80.1256  223.3858 H   0  0  0  0  0  0  0  0  0  0  0  0
  142.1831   78.1598  223.7750 H   0  0  0  0  0  0  0  0  0  0  0  0
  142.1358   79.3953  225.0143 H   0  0  0  0  0  0  0  0  0  0  0  0
  134.9578   77.3923  222.5999 H   0  0  0  0  0  0  0  0  0  0  0  0
  133.9122   79.0175  224.1817 H   0  0  0  0  0  0  0  0  0  0  0  0
  134.1073   80.9639  225.6931 H   0  0  0  0  0  0  0  0  0  0  0  0
  137.9918   82.8124  226.1606 H   0  0  0  0  0  0  0  0  0  0  0  0
  138.9822   81.1473  224.5606 H   0  0  0  0  0  0  0  0  0  0  0  0
  1  2  2  0
  2  3  1  0
  3  4  1  0
  4  5  1  0
  5  6  2  0
  5  7  1  0
  7  8  1  0
  8  9  1  0
  9 10  1  0
 10 11  1  0
 11 12  1  0
 12 13  1  0
 13 14  1  0
 14 15  1  0
 15 16  1  0
 16 17  1  0
 17 18  1  0
 18 19  1  0
  2 20  1  0
 20 21  2  0
 21 22  1  0
 22 23  2  0
 23 24  1  0
 24 25  2  0
 25 26  1  0
 25 27  1  0
 27 28  2  0
 28 29  1  0
 29 30  2  0
 12  7  1  0
 19 15  1  0
 30 20  1  0
 29 23  1  0
  3 31  1  0
  4 32  1  0
  4 33  1  0
  8 34  1  0
  8 35  1  0
  9 36  1  0
  9 37  1  0
 10 38  1  0
 10 39  1  0
 11 40  1  0
 11 41  1  0
 12 42  1  1
 13 43  1  0
 13 44  1  0
 14 45  1  0
 15 46  1  0
 16 47  1  0
 16 48  1  0
 17 49  1  0
 17 50  1  0
 18 51  1  0
 18 52  1  0
 19 53  1  0
 19 54  1  0
 21 55  1  0
 22 56  1  0
 24 57  1  0
 27 58  1  0
 28 59  1  0
M  END
>  <smiles>  (8) 
O=C(NCC(=O)N1CCCC[C@H]1CNC1CCCC1)c1ccc2cc(Cl)ccc2n1

>  <score_type>  (8) 
oracle

>  <origin>  (8) 
autodockgpu

>  <m_score__min__energy>  (8) 
-9.1099999999999994

>  <m_primary>  (8) 
energy

>  <rmsd>  (8) 
6.75877361772785

>  <m_score__min__rmsd>  (8) 
6.75877361772785

>  <meeko>  (8) 
{"free_energy": -6.48, "intermolecular_energy": -8.57, "internal_energy": -3.57, "cluster_size": 1, "cluster_id": 6, "rank_in_cluster": 1}

>  <energy>  (8) 
-8.58

>  <cluster_rmsd>  (8) 
1.03

>  <cluster>  (8) 
1

$$$$

     RDKit          3D

 59 62  0  0  0  0  0  0  0  0999 V2000
  141.0860   72.6420  221.0380 O   0  0  0  0  0  0  0  0  0  0  0  0
  140.3260   72.8040  222.0310 C   0  0  0  0  0  0  0  0  0  0  0  0
  139.5260   74.0030  222.1530 N   0  0  0  0  0  0  0  0  0  0  0  0
  139.5410   75.0500  221.1850 C   0  0  0  0  0  0  0  0  0  0  0  0
  140.3560   76.2410  221.3870 C   0  0  0  0  0  0  0  0  0  0  0  0
  140.3010   76.6770  222.6190 O   0  0  0  0  0  0  0  0  0  0  0  0
  141.1650   76.9860  220.5340 N   0  0  0  0  0  0  0  0  0  0  0  0
  142.5040   76.5150  220.0990 C   0  0  0  0  0  0  0  0  0  0  0  0
  142.8370   76.8320  218.6830 C   0  0  0  0  0  0  0  0  0  0  0  0
  142.1790   78.0070  218.0630 C   0  0  0  0  0  0  0  0  0  0  0  0
  140.7370   78.1550  218.5050 C   0  0  0  0  0  0  0  0  0  0  0  0
  140.8180   78.2970  220.0180 C   0  0  1  0  0  0  0  0  0  0  0  0
  139.6270   78.9450  220.5930 C   0  0  0  0  0  0  0  0  0  0  0  0
  139.7790   79.1510  222.0250 N   0  0  0  0  0  0  0  0  0  0  0  0
  140.4680   80.3400  222.4000 C   0  0  0  0  0  0  0  0  0  0  0  0
  141.6740   80.6850  221.5900 C   0  0  0  0  0  0  0  0  0  0  0  0
  142.9000   80.4880  222.4800 C   0  0  0  0  0  0  0  0  0  0  0  0
  142.4310   79.5290  223.5240 C   0  0  0  0  0  0  0  0  0  0  0  0
  141.0250   80.0750  223.8070 C   0  0  0  0  0  0  0  0  0  0  0  0
  140.2210   71.8000  223.0880 C   0  0  0  0  0  0  0  0  0  0  0  0
  139.6060   70.5980  222.8350 C   0  0  0  0  0  0  0  0  0  0  0  0
  139.5250   69.6690  223.8730 C   0  0  0  0  0  0  0  0  0  0  0  0
  140.0430   69.9280  225.1260 C   0  0  0  0  0  0  0  0  0  0  0  0
  139.9750   69.0220  226.1680 C   0  0  0  0  0  0  0  0  0  0  0  0
  140.5260   69.3680  227.4050 C   0  0  0  0  0  0  0  0  0  0  0  0
  140.4570   68.2470  228.7450 Cl  0  0  0  0  0  0  0  0  0  0  0  0
  141.1370   70.6030  227.5980 C   0  0  0  0  0  0  0  0  0  0  0  0
  141.2060   71.5170  226.5460 C   0  0  0  0  0  0  0  0  0  0  0  0
  140.6550   71.1510  225.3370 C   0  0  0  0  0  0  0  0  0  0  0  0
  140.7150   72.0200  224.3180 N   0  0  0  0  0  0  0  0  0  0  0  0
  138.9070   74.0800  223.0160 H   0  0  0  0  0  0  0  0  0  0  0  0
  139.8747   74.5982  220.2392 H   0  0  0  0  0  0  0  0  0  0  0  0
  138.5154   75.4444  221.2360 H   0  0  0  0  0  0  0  0  0  0  0  0
  143.2606   76.9856  220.7441 H   0  0  0  0  0  0  0  0  0  0  0  0
  142.4931   75.4181  220.1811 H   0  0  0  0  0  0  0  0  0  0  0  0
  143.9230   76.9992  218.6312 H   0  0  0  0  0  0  0  0  0  0  0  0
  142.4607   75.9709  218.1112 H   0  0  0  0  0  0  0  0  0  0  0  0
  142.7319   78.9141  218.3484 H   0  0  0  0  0  0  0  0  0  0  0  0
  142.1847   77.8610  216.9727 H   0  0  0  0  0  0  0  0  0  0  0  0
  140.2813   79.0488  218.0539 H   0  0  0  0  0  0  0  0  0  0  0  0
  140.1141   77.3025  218.1965 H   0  0  0  0  0  0  0  0  0  0  0  0
  141.6041   78.9998  220.3313 H   0  0  0  0  0  0  0  0  0  0  0  0
  139.4776   79.9191  220.1044 H   0  0  0  0  0  0  0  0  0  0  0  0
  138.7595   78.2897  220.4259 H   0  0  0  0  0  0  0  0  0  0  0  0
  140.1590   78.3070  222.4630 H   0  0  0  0  0  0  0  0  0  0  0  0
  139.7433   81.1593  222.2837 H   0  0  0  0  0  0  0  0  0  0  0  0
  141.7377   80.0250  220.7123 H   0  0  0  0  0  0  0  0  0  0  0  0
  141.6169   81.7248  221.2357 H   0  0  0  0  0  0  0  0  0  0  0  0
  143.7371   80.0640  221.9059 H   0  0  0  0  0  0  0  0  0  0  0  0
  143.2732   81.4313  222.9053 H   0  0  0  0  0  0  0  0  0  0  0  0
  142.3953   78.4987  223.1403 H   0  0  0  0  0  0  0  0  0  0  0  0
  143.0813   79.4661  224.4090 H   0  0  0  0  0  0  0  0  0  0  0  0
  140.4130   79.3334  224.3414 H   0  0  0  0  0  0  0  0  0  0  0  0
  141.0279   80.9691  224.4478 H   0  0  0  0  0  0  0  0  0  0  0  0
  139.1891   70.3741  221.8420 H   0  0  0  0  0  0  0  0  0  0  0  0
  139.0341   68.7023  223.6874 H   0  0  0  0  0  0  0  0  0  0  0  0
  139.4942   68.0429  226.0256 H   0  0  0  0  0  0  0  0  0  0  0  0
  141.5650   70.8585  228.5786 H   0  0  0  0  0  0  0  0  0  0  0  0
  141.6850   72.4985  226.6775 H   0  0  0  0  0  0  0  0  0  0  0  0
  1  2  2  0
  2  3  1  0
  3  4  1  0
  4  5  1  0
  5  6  2  0
  5  7  1  0
  7  8  1  0
  8  9  1  0
  9 10  1  0
 10 11  1  0
 11 12  1  0
 12 13  1  0
 13 14  1  0
 14 15  1  0
 15 16  1  0
 16 17  1  0
 17 18  1  0
 18 19  1  0
  2 20  1  0
 20 21  2  0
 21 22  1  0
 22 23  2  0
 23 24  1  0
 24 25  2  0
 25 26  1  0
 25 27  1  0
 27 28  2  0
 28 29  1  0
 29 30  2  0
 12  7  1  0
 19 15  1  0
 30 20  1  0
 29 23  1  0
  3 31  1  0
  4 32  1  0
  4 33  1  0
  8 34  1  0
  8 35  1  0
  9 36  1  0
  9 37  1  0
 10 38  1  0
 10 39  1  0
 11 40  1  0
 11 41  1  0
 12 42  1  6
 13 43  1  0
 13 44  1  0
 14 45  1  0
 15 46  1  0
 16 47  1  0
 16 48  1  0
 17 49  1  0
 17 50  1  0
 18 51  1  0
 18 52  1  0
 19 53  1  0
 19 54  1  0
 21 55  1  0
 22 56  1  0
 24 57  1  0
 27 58  1  0
 28 59  1  0
M  END
>  <smiles>  (9) 
O=C(NCC(=O)N1CCCC[C@H]1CNC1CCCC1)c1ccc2cc(Cl)ccc2n1

>  <score_type>  (9) 
oracle

>  <origin>  (9) 
autodockgpu

>  <m_score__min__energy>  (9) 
-9.1099999999999994

>  <m_primary>  (9) 
energy

>  <rmsd>  (9) 
2.448033229092735

>  <m_score__min__rmsd>  (9) 
2.448033229092735

>  <meeko>  (9) 
{"free_energy": -8.23, "intermolecular_energy": -10.32, "internal_energy": -2.32, "cluster_size": 38, "cluster_id": 1, "rank_in_cluster": 18}

>  <energy>  (9) 
-8.55

>  <cluster_rmsd>  (9) 
1.21

>  <cluster>  (9) 
1

$$$$

     RDKit          3D

 59 62  0  0  0  0  0  0  0  0999 V2000
  139.0710   71.3520  220.5520 O   0  0  0  0  0  0  0  0  0  0  0  0
  138.8940   71.7470  221.7360 C   0  0  0  0  0  0  0  0  0  0  0  0
  138.3860   73.0760  221.9980 N   0  0  0  0  0  0  0  0  0  0  0  0
  138.0580   74.0010  220.9640 C   0  0  0  0  0  0  0  0  0  0  0  0
  139.1050   74.6740  220.2050 C   0  0  0  0  0  0  0  0  0  0  0  0
  138.6280   75.3410  219.1860 O   0  0  0  0  0  0  0  0  0  0  0  0
  140.4870   74.7370  220.3560 N   0  0  0  0  0  0  0  0  0  0  0  0
  141.3990   73.7510  219.7240 C   0  0  0  0  0  0  0  0  0  0  0  0
  142.6690   74.3320  219.2080 C   0  0  0  0  0  0  0  0  0  0  0  0
  143.1740   75.5720  219.8450 C   0  0  0  0  0  0  0  0  0  0  0  0
  142.0530   76.5230  220.2110 C   0  0  0  0  0  0  0  0  0  0  0  0
  141.1750   75.7260  221.1650 C   0  0  1  0  0  0  0  0  0  0  0  0
  140.3400   76.5840  222.0210 C   0  0  0  0  0  0  0  0  0  0  0  0
  141.1490   77.5510  222.7470 N   0  0  0  0  0  0  0  0  0  0  0  0
  140.8560   78.9170  222.4740 C   0  0  0  0  0  0  0  0  0  0  0  0
  141.8240   79.6350  221.5930 C   0  0  0  0  0  0  0  0  0  0  0  0
  142.5640   80.6570  222.4550 C   0  0  0  0  0  0  0  0  0  0  0  0
  142.4250   80.1190  223.8410 C   0  0  0  0  0  0  0  0  0  0  0  0
  140.9650   79.6460  223.8220 C   0  0  0  0  0  0  0  0  0  0  0  0
  139.1910   70.8890  222.8820 C   0  0  0  0  0  0  0  0  0  0  0  0
  138.8620   69.5560  222.8440 C   0  0  0  0  0  0  0  0  0  0  0  0
  139.1620   68.7730  223.9610 C   0  0  0  0  0  0  0  0  0  0  0  0
  139.7710   69.3020  225.0810 C   0  0  0  0  0  0  0  0  0  0  0  0
  140.0760   68.5450  226.1970 C   0  0  0  0  0  0  0  0  0  0  0  0
  140.6930   69.1640  227.2880 C   0  0  0  0  0  0  0  0  0  0  0  0
  141.0930   68.2370  228.7160 Cl  0  0  0  0  0  0  0  0  0  0  0  0
  141.0010   70.5200  227.2630 C   0  0  0  0  0  0  0  0  0  0  0  0
  140.6930   71.2840  226.1370 C   0  0  0  0  0  0  0  0  0  0  0  0
  140.0850   70.6500  225.0750 C   0  0  0  0  0  0  0  0  0  0  0  0
  139.7830   71.3720  223.9870 N   0  0  0  0  0  0  0  0  0  0  0  0
  138.2630   73.3480  223.0190 H   0  0  0  0  0  0  0  0  0  0  0  0
  137.4453   73.4515  220.2342 H   0  0  0  0  0  0  0  0  0  0  0  0
  137.5870   74.8276  221.5162 H   0  0  0  0  0  0  0  0  0  0  0  0
  141.6500   72.9851  220.4726 H   0  0  0  0  0  0  0  0  0  0  0  0
  140.8647   73.3410  218.8543 H   0  0  0  0  0  0  0  0  0  0  0  0
  143.4494   73.5649  219.3200 H   0  0  0  0  0  0  0  0  0  0  0  0
  142.4370   74.6278  218.1742 H   0  0  0  0  0  0  0  0  0  0  0  0
  143.7231   75.3026  220.7593 H   0  0  0  0  0  0  0  0  0  0  0  0
  143.8276   76.0818  219.1219 H   0  0  0  0  0  0  0  0  0  0  0  0
  142.4508   77.4209  220.7066 H   0  0  0  0  0  0  0  0  0  0  0  0
  141.4992   76.8768  219.3289 H   0  0  0  0  0  0  0  0  0  0  0  0
  141.7612   75.1895  221.9256 H   0  0  0  0  0  0  0  0  0  0  0  0
  139.6161   77.1225  221.3917 H   0  0  0  0  0  0  0  0  0  0  0  0
  139.8207   75.9465  222.7516 H   0  0  0  0  0  0  0  0  0  0  0  0
  142.1430   77.3210  222.6500 H   0  0  0  0  0  0  0  0  0  0  0  0
  139.8792   78.9214  221.9682 H   0  0  0  0  0  0  0  0  0  0  0  0
  142.5399   78.9200  221.1614 H   0  0  0  0  0  0  0  0  0  0  0  0
  141.2968   80.1357  220.7676 H   0  0  0  0  0  0  0  0  0  0  0  0
  143.6228   80.7221  222.1640 H   0  0  0  0  0  0  0  0  0  0  0  0
  142.1598   81.6747  222.3506 H   0  0  0  0  0  0  0  0  0  0  0  0
  143.1184   79.2846  224.0226 H   0  0  0  0  0  0  0  0  0  0  0  0
  142.6585   80.8429  224.6356 H   0  0  0  0  0  0  0  0  0  0  0  0
  140.7599   78.9624  224.6590 H   0  0  0  0  0  0  0  0  0  0  0  0
  140.2415   80.4675  223.9306 H   0  0  0  0  0  0  0  0  0  0  0  0
  138.3764   69.1179  221.9596 H   0  0  0  0  0  0  0  0  0  0  0  0
  138.9054   67.7034  223.9477 H   0  0  0  0  0  0  0  0  0  0  0  0
  139.8367   67.4717  226.2260 H   0  0  0  0  0  0  0  0  0  0  0  0
  141.4872   70.9899  228.1306 H   0  0  0  0  0  0  0  0  0  0  0  0
  140.9279   72.3579  226.0981 H   0  0  0  0  0  0  0  0  0  0  0  0
  1  2  2  0
  2  3  1  0
  3  4  1  0
  4  5  1  0
  5  6  2  0
  5  7  1  0
  7  8  1  0
  8  9  1  0
  9 10  1  0
 10 11  1  0
 11 12  1  0
 12 13  1  0
 13 14  1  0
 14 15  1  0
 15 16  1  0
 16 17  1  0
 17 18  1  0
 18 19  1  0
  2 20  1  0
 20 21  2  0
 21 22  1  0
 22 23  2  0
 23 24  1  0
 24 25  2  0
 25 26  1  0
 25 27  1  0
 27 28  2  0
 28 29  1  0
 29 30  2  0
 12  7  1  0
 19 15  1  0
 30 20  1  0
 29 23  1  0
  3 31  1  0
  4 32  1  0
  4 33  1  0
  8 34  1  0
  8 35  1  0
  9 36  1  0
  9 37  1  0
 10 38  1  0
 10 39  1  0
 11 40  1  0
 11 41  1  0
 12 42  1  1
 13 43  1  0
 13 44  1  0
 14 45  1  0
 15 46  1  0
 16 47  1  0
 16 48  1  0
 17 49  1  0
 17 50  1  0
 18 51  1  0
 18 52  1  0
 19 53  1  0
 19 54  1  0
 21 55  1  0
 22 56  1  0
 24 57  1  0
 27 58  1  0
 28 59  1  0
M  END
>  <smiles>  (10) 
O=C(NCC(=O)N1CCCC[C@H]1CNC1CCCC1)c1ccc2cc(Cl)ccc2n1

>  <score_type>  (10) 
oracle

>  <origin>  (10) 
autodockgpu

>  <m_score__min__energy>  (10) 
-9.1099999999999994

>  <m_primary>  (10) 
energy

>  <rmsd>  (10) 
2.1908307306036003

>  <m_score__min__rmsd>  (10) 
2.1908307306036003

>  <meeko>  (10) 
{"free_energy": -8.55, "intermolecular_energy": -10.64, "internal_energy": -1.72, "cluster_size": 38, "cluster_id": 1, "rank_in_cluster": 10}

>  <energy>  (10) 
-8.55

>  <cluster_rmsd>  (10) 
1.32

>  <cluster>  (10) 
1

$$$$

     RDKit          3D

 59 62  0  0  0  0  0  0  0  0999 V2000
  140.1470   72.4630  220.4970 O   0  0  0  0  0  0  0  0  0  0  0  0
  139.7070   72.8140  221.6250 C   0  0  0  0  0  0  0  0  0  0  0  0
  139.1810   74.1480  221.8240 N   0  0  0  0  0  0  0  0  0  0  0  0
  139.1260   75.1250  220.7870 C   0  0  0  0  0  0  0  0  0  0  0  0
  139.5690   76.4930  221.0260 C   0  0  0  0  0  0  0  0  0  0  0  0
  139.8550   77.1230  219.9170 O   0  0  0  0  0  0  0  0  0  0  0  0
  139.7420   77.2380  222.1890 N   0  0  0  0  0  0  0  0  0  0  0  0
  141.0860   77.5770  222.7200 C   0  0  0  0  0  0  0  0  0  0  0  0
  141.1900   78.9430  223.3030 C   0  0  0  0  0  0  0  0  0  0  0  0
  139.9560   79.5630  223.8390 C   0  0  0  0  0  0  0  0  0  0  0  0
  138.7400   79.2410  222.9950 C   0  0  0  0  0  0  0  0  0  0  0  0
  138.6540   77.7220  223.0190 C   0  0  1  0  0  0  0  0  0  0  0  0
  137.3050   77.2230  222.7040 C   0  0  0  0  0  0  0  0  0  0  0  0
  137.1960   75.7970  222.9670 N   0  0  0  0  0  0  0  0  0  0  0  0
  135.8680   75.3060  223.1230 C   0  0  0  0  0  0  0  0  0  0  0  0
  135.4990   74.8270  224.4880 C   0  0  0  0  0  0  0  0  0  0  0  0
  135.3410   73.3090  224.4180 C   0  0  0  0  0  0  0  0  0  0  0  0
  136.1520   72.9220  223.2260 C   0  0  0  0  0  0  0  0  0  0  0  0
  135.7820   74.0460  222.2480 C   0  0  0  0  0  0  0  0  0  0  0  0
  139.7060   71.9010  222.7660 C   0  0  0  0  0  0  0  0  0  0  0  0
  139.0600   70.6920  222.6780 C   0  0  0  0  0  0  0  0  0  0  0  0
  139.0820   69.8510  223.7920 C   0  0  0  0  0  0  0  0  0  0  0  0
  139.7300   70.2030  224.9580 C   0  0  0  0  0  0  0  0  0  0  0  0
  139.7650   69.3860  226.0730 C   0  0  0  0  0  0  0  0  0  0  0  0
  140.4450   69.8220  227.2140 C   0  0  0  0  0  0  0  0  0  0  0  0
  140.5090   68.8140  228.6410 Cl  0  0  0  0  0  0  0  0  0  0  0  0
  141.0810   71.0590  227.2400 C   0  0  0  0  0  0  0  0  0  0  0  0
  141.0460   71.8840  226.1150 C   0  0  0  0  0  0  0  0  0  0  0  0
  140.3690   71.4300  225.0030 C   0  0  0  0  0  0  0  0  0  0  0  0
  140.3270   72.2120  223.9160 N   0  0  0  0  0  0  0  0  0  0  0  0
  138.8280   74.3820  222.8000 H   0  0  0  0  0  0  0  0  0  0  0  0
  139.7370   74.7377  219.9584 H   0  0  0  0  0  0  0  0  0  0  0  0
  138.0451   75.2440  220.6209 H   0  0  0  0  0  0  0  0  0  0  0  0
  141.3402   76.8481  223.5037 H   0  0  0  0  0  0  0  0  0  0  0  0
  141.7781   77.5467  221.8656 H   0  0  0  0  0  0  0  0  0  0  0  0
  141.9164   78.8930  224.1275 H   0  0  0  0  0  0  0  0  0  0  0  0
  141.4754   79.5838  222.4557 H   0  0  0  0  0  0  0  0  0  0  0  0
  139.7871   79.1903  224.8601 H   0  0  0  0  0  0  0  0  0  0  0  0
  140.0946   80.6542  223.8286 H   0  0  0  0  0  0  0  0  0  0  0  0
  137.8345   79.6890  223.4301 H   0  0  0  0  0  0  0  0  0  0  0  0
  138.8212   79.6402  221.9732 H   0  0  0  0  0  0  0  0  0  0  0  0
  138.7929   77.3110  224.0298 H   0  0  0  0  0  0  0  0  0  0  0  0
  136.5707   77.7590  223.3233 H   0  0  0  0  0  0  0  0  0  0  0  0
  137.1111   77.3954  221.6350 H   0  0  0  0  0  0  0  0  0  0  0  0
  137.8190   75.5320  223.7360 H   0  0  0  0  0  0  0  0  0  0  0  0
  135.2036   76.1468  222.8745 H   0  0  0  0  0  0  0  0  0  0  0  0
  136.2916   75.0890  225.2044 H   0  0  0  0  0  0  0  0  0  0  0  0
  134.5628   75.2978  224.8226 H   0  0  0  0  0  0  0  0  0  0  0  0
  135.7310   72.8318  225.3292 H   0  0  0  0  0  0  0  0  0  0  0  0
  134.2902   72.9936  224.3386 H   0  0  0  0  0  0  0  0  0  0  0  0
  137.2285   72.9204  223.4521 H   0  0  0  0  0  0  0  0  0  0  0  0
  135.9529   71.9076  222.8499 H   0  0  0  0  0  0  0  0  0  0  0  0
  136.4963   74.0948  221.4129 H   0  0  0  0  0  0  0  0  0  0  0  0
  134.7954   73.9081  221.7816 H   0  0  0  0  0  0  0  0  0  0  0  0
  138.5398   70.3948  221.7554 H   0  0  0  0  0  0  0  0  0  0  0  0
  138.5680   68.8799  223.7386 H   0  0  0  0  0  0  0  0  0  0  0  0
  139.2647   68.4064  226.0624 H   0  0  0  0  0  0  0  0  0  0  0  0
  141.6110   71.3865  228.1466 H   0  0  0  0  0  0  0  0  0  0  0  0
  141.5428   72.8654  226.1154 H   0  0  0  0  0  0  0  0  0  0  0  0
  1  2  2  0
  2  3  1  0
  3  4  1  0
  4  5  1  0
  5  6  2  0
  5  7  1  0
  7  8  1  0
  8  9  1  0
  9 10  1  0
 10 11  1  0
 11 12  1  0
 12 13  1  0
 13 14  1  0
 14 15  1  0
 15 16  1  0
 16 17  1  0
 17 18  1  0
 18 19  1  0
  2 20  1  0
 20 21  2  0
 21 22  1  0
 22 23  2  0
 23 24  1  0
 24 25  2  0
 25 26  1  0
 25 27  1  0
 27 28  2  0
 28 29  1  0
 29 30  2  0
 12  7  1  0
 19 15  1  0
 30 20  1  0
 29 23  1  0
  3 31  1  0
  4 32  1  0
  4 33  1  0
  8 34  1  0
  8 35  1  0
  9 36  1  0
  9 37  1  0
 10 38  1  0
 10 39  1  0
 11 40  1  0
 11 41  1  0
 12 42  1  1
 13 43  1  0
 13 44  1  0
 14 45  1  0
 15 46  1  0
 16 47  1  0
 16 48  1  0
 17 49  1  0
 17 50  1  0
 18 51  1  0
 18 52  1  0
 19 53  1  0
 19 54  1  0
 21 55  1  0
 22 56  1  0
 24 57  1  0
 27 58  1  0
 28 59  1  0
M  END
>  <smiles>  (11) 
O=C(NCC(=O)N1CCCC[C@H]1CNC1CCCC1)c1ccc2cc(Cl)ccc2n1

>  <score_type>  (11) 
oracle

>  <origin>  (11) 
autodockgpu

>  <m_score__min__energy>  (11) 
-9.1099999999999994

>  <m_primary>  (11) 
energy

>  <rmsd>  (11) 
5.405265680356983

>  <m_score__min__rmsd>  (11) 
5.405265680356983

>  <meeko>  (11) 
{"free_energy": -7.63, "intermolecular_energy": -9.72, "internal_energy": -2.8, "cluster_size": 3, "cluster_id": 2, "rank_in_cluster": 2}

>  <energy>  (11) 
-8.52

>  <cluster_rmsd>  (11) 
0.76

>  <cluster>  (11) 
1

$$$$

     RDKit          3D

 59 62  0  0  0  0  0  0  0  0999 V2000
  138.3120   71.8530  220.9800 O   0  0  0  0  0  0  0  0  0  0  0  0
  138.9140   72.2070  222.0290 C   0  0  0  0  0  0  0  0  0  0  0  0
  139.3400   73.5800  222.2020 N   0  0  0  0  0  0  0  0  0  0  0  0
  139.1130   74.5930  221.2250 C   0  0  0  0  0  0  0  0  0  0  0  0
  139.9820   74.7180  220.0620 C   0  0  0  0  0  0  0  0  0  0  0  0
  139.3600   74.4350  218.9460 O   0  0  0  0  0  0  0  0  0  0  0  0
  141.3200   75.0720  219.9180 N   0  0  0  0  0  0  0  0  0  0  0  0
  142.3640   74.0860  219.5400 C   0  0  0  0  0  0  0  0  0  0  0  0
  143.4050   74.6160  218.6170 C   0  0  0  0  0  0  0  0  0  0  0  0
  143.6740   76.0740  218.6400 C   0  0  0  0  0  0  0  0  0  0  0  0
  142.4090   76.8860  218.8280 C   0  0  0  0  0  0  0  0  0  0  0  0
  141.8430   76.4040  220.1560 C   0  0  1  0  0  0  0  0  0  0  0  0
  140.9260   77.3780  220.7710 C   0  0  0  0  0  0  0  0  0  0  0  0
  140.9670   77.2970  222.2230 N   0  0  0  0  0  0  0  0  0  0  0  0
  140.6380   78.5000  222.9100 C   0  0  0  0  0  0  0  0  0  0  0  0
  140.5420   79.7320  222.0720 C   0  0  0  0  0  0  0  0  0  0  0  0
  141.7220   80.6310  222.4370 C   0  0  0  0  0  0  0  0  0  0  0  0
  142.7250   79.6860  223.0110 C   0  0  0  0  0  0  0  0  0  0  0  0
  141.8170   78.7790  223.8540 C   0  0  0  0  0  0  0  0  0  0  0  0
  139.2030   71.2600  223.1040 C   0  0  0  0  0  0  0  0  0  0  0  0
  138.8670   69.9360  222.9610 C   0  0  0  0  0  0  0  0  0  0  0  0
  139.1590   69.0660  224.0130 C   0  0  0  0  0  0  0  0  0  0  0  0
  139.7690   69.5010  225.1720 C   0  0  0  0  0  0  0  0  0  0  0  0
  140.0670   68.6570  226.2260 C   0  0  0  0  0  0  0  0  0  0  0  0
  140.6860   69.1830  227.3630 C   0  0  0  0  0  0  0  0  0  0  0  0
  141.0770   68.1440  228.7130 Cl  0  0  0  0  0  0  0  0  0  0  0  0
  141.0020   70.5360  227.4460 C   0  0  0  0  0  0  0  0  0  0  0  0
  140.7000   71.3880  226.3830 C   0  0  0  0  0  0  0  0  0  0  0  0
  140.0910   70.8430  225.2730 C   0  0  0  0  0  0  0  0  0  0  0  0
  139.7960   71.6500  224.2450 N   0  0  0  0  0  0  0  0  0  0  0  0
  139.8460   73.8130  223.1090 H   0  0  0  0  0  0  0  0  0  0  0  0
  138.0949   74.4345  220.8399 H   0  0  0  0  0  0  0  0  0  0  0  0
  139.3177   75.5190  221.7824 H   0  0  0  0  0  0  0  0  0  0  0  0
  142.8616   73.7424  220.4589 H   0  0  0  0  0  0  0  0  0  0  0  0
  141.8504   73.2757  219.0019 H   0  0  0  0  0  0  0  0  0  0  0  0
  144.3485   74.1048  218.8589 H   0  0  0  0  0  0  0  0  0  0  0  0
  143.0050   74.4247  217.6103 H   0  0  0  0  0  0  0  0  0  0  0  0
  144.3628   76.2942  219.4689 H   0  0  0  0  0  0  0  0  0  0  0  0
  144.1129   76.3519  217.6704 H   0  0  0  0  0  0  0  0  0  0  0  0
  142.6392   77.9608  218.8702 H   0  0  0  0  0  0  0  0  0  0  0  0
  141.6995   76.7547  217.9977 H   0  0  0  0  0  0  0  0  0  0  0  0
  142.6142   76.3283  220.9367 H   0  0  0  0  0  0  0  0  0  0  0  0
  141.2185   78.3918  220.4600 H   0  0  0  0  0  0  0  0  0  0  0  0
  139.9025   77.1498  220.4387 H   0  0  0  0  0  0  0  0  0  0  0  0
  141.8550   76.8860  222.5270 H   0  0  0  0  0  0  0  0  0  0  0  0
  139.6505   78.3289  223.3635 H   0  0  0  0  0  0  0  0  0  0  0  0
  140.5892   79.4653  221.0059 H   0  0  0  0  0  0  0  0  0  0  0  0
  139.5895   80.2509  222.2550 H   0  0  0  0  0  0  0  0  0  0  0  0
  142.1228   81.1333  221.5443 H   0  0  0  0  0  0  0  0  0  0  0  0
  141.4450   81.4338  223.1361 H   0  0  0  0  0  0  0  0  0  0  0  0
  143.2443   79.1197  222.2238 H   0  0  0  0  0  0  0  0  0  0  0  0
  143.5355   80.1701  223.5756 H   0  0  0  0  0  0  0  0  0  0  0  0
  142.3333   77.8472  224.1283 H   0  0  0  0  0  0  0  0  0  0  0  0
  141.5115   79.2356  224.8070 H   0  0  0  0  0  0  0  0  0  0  0  0
  138.3816   69.5715  222.0436 H   0  0  0  0  0  0  0  0  0  0  0  0
  138.8951   68.0026  223.9153 H   0  0  0  0  0  0  0  0  0  0  0  0
  139.8202   67.5865  226.1702 H   0  0  0  0  0  0  0  0  0  0  0  0
  141.4893   70.9332  228.3486 H   0  0  0  0  0  0  0  0  0  0  0  0
  140.9403   72.4604  226.4293 H   0  0  0  0  0  0  0  0  0  0  0  0
  1  2  2  0
  2  3  1  0
  3  4  1  0
  4  5  1  0
  5  6  2  0
  5  7  1  0
  7  8  1  0
  8  9  1  0
  9 10  1  0
 10 11  1  0
 11 12  1  0
 12 13  1  0
 13 14  1  0
 14 15  1  0
 15 16  1  0
 16 17  1  0
 17 18  1  0
 18 19  1  0
  2 20  1  0
 20 21  2  0
 21 22  1  0
 22 23  2  0
 23 24  1  0
 24 25  2  0
 25 26  1  0
 25 27  1  0
 27 28  2  0
 28 29  1  0
 29 30  2  0
 12  7  1  0
 19 15  1  0
 30 20  1  0
 29 23  1  0
  3 31  1  0
  4 32  1  0
  4 33  1  0
  8 34  1  0
  8 35  1  0
  9 36  1  0
  9 37  1  0
 10 38  1  0
 10 39  1  0
 11 40  1  0
 11 41  1  0
 12 42  1  1
 13 43  1  0
 13 44  1  0
 14 45  1  0
 15 46  1  0
 16 47  1  0
 16 48  1  0
 17 49  1  0
 17 50  1  0
 18 51  1  0
 18 52  1  0
 19 53  1  0
 19 54  1  0
 21 55  1  0
 22 56  1  0
 24 57  1  0
 27 58  1  0
 28 59  1  0
M  END
>  <smiles>  (12) 
O=C(NCC(=O)N1CCCC[C@H]1CNC1CCCC1)c1ccc2cc(Cl)ccc2n1

>  <score_type>  (12) 
oracle

>  <origin>  (12) 
autodockgpu

>  <m_score__min__energy>  (12) 
-9.1099999999999994

>  <m_primary>  (12) 
energy

>  <rmsd>  (12) 
2.136307186052047

>  <m_score__min__rmsd>  (12) 
2.136307186052047

>  <meeko>  (12) 
{"free_energy": -8.37, "intermolecular_energy": -10.46, "internal_energy": -1.86, "cluster_size": 38, "cluster_id": 1, "rank_in_cluster": 15}

>  <energy>  (12) 
-8.5

>  <cluster_rmsd>  (12) 
1.44

>  <cluster>  (12) 
1

$$$$

     RDKit          3D

 59 62  0  0  0  0  0  0  0  0999 V2000
  139.1240   71.6460  220.7700 O   0  0  0  0  0  0  0  0  0  0  0  0
  139.4250   72.0680  221.9200 C   0  0  0  0  0  0  0  0  0  0  0  0
  139.6500   73.4790  222.1480 N   0  0  0  0  0  0  0  0  0  0  0  0
  139.5500   74.4590  221.1170 C   0  0  0  0  0  0  0  0  0  0  0  0
  140.5270   75.5350  221.0130 C   0  0  0  0  0  0  0  0  0  0  0  0
  141.0680   75.8280  222.1670 O   0  0  0  0  0  0  0  0  0  0  0  0
  140.9830   76.2940  219.9390 N   0  0  0  0  0  0  0  0  0  0  0  0
  141.4270   75.6760  218.6640 C   0  0  0  0  0  0  0  0  0  0  0  0
  141.0430   76.4400  217.4450 C   0  0  0  0  0  0  0  0  0  0  0  0
  140.8380   77.9020  217.5780 C   0  0  0  0  0  0  0  0  0  0  0  0
  140.1690   78.2680  218.8870 C   0  0  0  0  0  0  0  0  0  0  0  0
  141.1140   77.7390  219.9570 C   0  0  1  0  0  0  0  0  0  0  0  0
  140.9330   78.4070  221.2560 C   0  0  0  0  0  0  0  0  0  0  0  0
  142.2110   78.6340  221.9140 N   0  0  0  0  0  0  0  0  0  0  0  0
  142.1320   79.1660  223.2320 C   0  0  0  0  0  0  0  0  0  0  0  0
  140.7670   79.5370  223.7120 C   0  0  0  0  0  0  0  0  0  0  0  0
  140.7090   81.0600  223.8090 C   0  0  0  0  0  0  0  0  0  0  0  0
  141.7820   81.5160  222.8750 C   0  0  0  0  0  0  0  0  0  0  0  0
  142.8900   80.5020  223.1910 C   0  0  0  0  0  0  0  0  0  0  0  0
  139.5550   71.1610  223.0590 C   0  0  0  0  0  0  0  0  0  0  0  0
  139.0740   69.8770  222.9720 C   0  0  0  0  0  0  0  0  0  0  0  0
  139.2170   69.0440  224.0840 C   0  0  0  0  0  0  0  0  0  0  0  0
  139.8210   69.4770  225.2460 C   0  0  0  0  0  0  0  0  0  0  0  0
  139.9730   68.6700  226.3590 C   0  0  0  0  0  0  0  0  0  0  0  0
  140.5980   69.1920  227.4950 C   0  0  0  0  0  0  0  0  0  0  0  0
  140.8070   68.1990  228.9190 Cl  0  0  0  0  0  0  0  0  0  0  0  0
  141.0640   70.5020  227.5200 C   0  0  0  0  0  0  0  0  0  0  0  0
  140.9110   71.3170  226.3970 C   0  0  0  0  0  0  0  0  0  0  0  0
  140.2910   70.7780  225.2900 C   0  0  0  0  0  0  0  0  0  0  0  0
  140.1370   71.5500  224.2050 N   0  0  0  0  0  0  0  0  0  0  0  0
  139.9030   73.7690  223.1400 H   0  0  0  0  0  0  0  0  0  0  0  0
  139.5808   73.9139  220.1620 H   0  0  0  0  0  0  0  0  0  0  0  0
  138.6248   74.9938  221.3776 H   0  0  0  0  0  0  0  0  0  0  0  0
  142.5235   75.5913  218.6860 H   0  0  0  0  0  0  0  0  0  0  0  0
  140.9235   74.7004  218.5953 H   0  0  0  0  0  0  0  0  0  0  0  0
  141.8369   76.2872  216.6991 H   0  0  0  0  0  0  0  0  0  0  0  0
  140.0523   76.0464  217.1738 H   0  0  0  0  0  0  0  0  0  0  0  0
  141.8159   78.4031  217.5274 H   0  0  0  0  0  0  0  0  0  0  0  0
  140.1795   78.2271  216.7591 H   0  0  0  0  0  0  0  0  0  0  0  0
  140.0543   79.3586  218.9738 H   0  0  0  0  0  0  0  0  0  0  0  0
  139.1580   77.8434  218.9739 H   0  0  0  0  0  0  0  0  0  0  0  0
  142.1654   77.9842  219.7461 H   0  0  0  0  0  0  0  0  0  0  0  0
  140.4353   79.3747  221.0955 H   0  0  0  0  0  0  0  0  0  0  0  0
  140.3208   77.7577  221.8991 H   0  0  0  0  0  0  0  0  0  0  0  0
  142.8340   79.1660  221.2980 H   0  0  0  0  0  0  0  0  0  0  0  0
  142.5174   78.3803  223.8985 H   0  0  0  0  0  0  0  0  0  0  0  0
  140.0088   79.1774  223.0008 H   0  0  0  0  0  0  0  0  0  0  0  0
  140.5649   79.0798  224.6919 H   0  0  0  0  0  0  0  0  0  0  0  0
  139.7257   81.4361  223.4902 H   0  0  0  0  0  0  0  0  0  0  0  0
  140.8535   81.4273  224.8357 H   0  0  0  0  0  0  0  0  0  0  0  0
  141.4599   81.4494  221.8253 H   0  0  0  0  0  0  0  0  0  0  0  0
  142.0783   82.5678  223.0012 H   0  0  0  0  0  0  0  0  0  0  0  0
  143.6581   80.4971  222.4036 H   0  0  0  0  0  0  0  0  0  0  0  0
  143.4288   80.7243  224.1239 H   0  0  0  0  0  0  0  0  0  0  0  0
  138.5901   69.5153  222.0528 H   0  0  0  0  0  0  0  0  0  0  0  0
  138.8370   68.0130  224.0316 H   0  0  0  0  0  0  0  0  0  0  0  0
  139.6074   67.6326  226.3502 H   0  0  0  0  0  0  0  0  0  0  0  0
  141.5526   70.8955  228.4236 H   0  0  0  0  0  0  0  0  0  0  0  0
  141.2734   72.3556  226.3955 H   0  0  0  0  0  0  0  0  0  0  0  0
  1  2  2  0
  2  3  1  0
  3  4  1  0
  4  5  1  0
  5  6  2  0
  5  7  1  0
  7  8  1  0
  8  9  1  0
  9 10  1  0
 10 11  1  0
 11 12  1  0
 12 13  1  0
 13 14  1  0
 14 15  1  0
 15 16  1  0
 16 17  1  0
 17 18  1  0
 18 19  1  0
  2 20  1  0
 20 21  2  0
 21 22  1  0
 22 23  2  0
 23 24  1  0
 24 25  2  0
 25 26  1  0
 25 27  1  0
 27 28  2  0
 28 29  1  0
 29 30  2  0
 12  7  1  0
 19 15  1  0
 30 20  1  0
 29 23  1  0
  3 31  1  0
  4 32  1  0
  4 33  1  0
  8 34  1  0
  8 35  1  0
  9 36  1  0
  9 37  1  0
 10 38  1  0
 10 39  1  0
 11 40  1  0
 11 41  1  0
 12 42  1  6
 13 43  1  0
 13 44  1  0
 14 45  1  0
 15 46  1  0
 16 47  1  0
 16 48  1  0
 17 49  1  0
 17 50  1  0
 18 51  1  0
 18 52  1  0
 19 53  1  0
 19 54  1  0
 21 55  1  0
 22 56  1  0
 24 57  1  0
 27 58  1  0
 28 59  1  0
M  END
>  <smiles>  (13) 
O=C(NCC(=O)N1CCCC[C@H]1CNC1CCCC1)c1ccc2cc(Cl)ccc2n1

>  <score_type>  (13) 
oracle

>  <origin>  (13) 
autodockgpu

>  <m_score__min__energy>  (13) 
-9.1099999999999994

>  <m_primary>  (13) 
energy

>  <rmsd>  (13) 
1.7257818484908056

>  <m_score__min__rmsd>  (13) 
1.7257818484908056

>  <meeko>  (13) 
{"free_energy": -8.12, "intermolecular_energy": -10.21, "internal_energy": -1.77, "cluster_size": 38, "cluster_id": 1, "rank_in_cluster": 24}

>  <energy>  (13) 
-8.43

>  <cluster_rmsd>  (13) 
0.83

>  <cluster>  (13) 
1

$$$$

     RDKit          3D

 59 62  0  0  0  0  0  0  0  0999 V2000
  139.5320   71.8800  220.5830 O   0  0  0  0  0  0  0  0  0  0  0  0
  139.1810   72.1990  221.7510 C   0  0  0  0  0  0  0  0  0  0  0  0
  138.5410   73.4730  222.0020 N   0  0  0  0  0  0  0  0  0  0  0  0
  138.2720   74.4240  220.9750 C   0  0  0  0  0  0  0  0  0  0  0  0
  139.3220   74.8490  220.0580 C   0  0  0  0  0  0  0  0  0  0  0  0
  138.8540   75.1560  218.8760 O   0  0  0  0  0  0  0  0  0  0  0  0
  140.7000   74.9860  220.2000 N   0  0  0  0  0  0  0  0  0  0  0  0
  141.6610   74.0950  219.5030 C   0  0  0  0  0  0  0  0  0  0  0  0
  142.8880   74.7800  219.0100 C   0  0  0  0  0  0  0  0  0  0  0  0
  143.3260   76.0090  219.7150 C   0  0  0  0  0  0  0  0  0  0  0  0
  142.1560   76.8680  220.1470 C   0  0  0  0  0  0  0  0  0  0  0  0
  141.3390   75.9650  221.0600 C   0  0  1  0  0  0  0  0  0  0  0  0
  140.4650   76.7200  221.9730 C   0  0  0  0  0  0  0  0  0  0  0  0
  141.2240   77.6930  222.7440 N   0  0  0  0  0  0  0  0  0  0  0  0
  140.8970   79.0560  222.4930 C   0  0  0  0  0  0  0  0  0  0  0  0
  141.8290   79.8040  221.5980 C   0  0  0  0  0  0  0  0  0  0  0  0
  142.5680   80.8310  222.4540 C   0  0  0  0  0  0  0  0  0  0  0  0
  142.4730   80.2750  223.8360 C   0  0  0  0  0  0  0  0  0  0  0  0
  141.0230   79.7720  223.8460 C   0  0  0  0  0  0  0  0  0  0  0  0
  139.4000   71.3070  222.8880 C   0  0  0  0  0  0  0  0  0  0  0  0
  138.9980   69.9950  222.8190 C   0  0  0  0  0  0  0  0  0  0  0  0
  139.2250   69.1780  223.9280 C   0  0  0  0  0  0  0  0  0  0  0  0
  139.8340   69.6530  225.0710 C   0  0  0  0  0  0  0  0  0  0  0  0
  140.0670   68.8620  226.1810 C   0  0  0  0  0  0  0  0  0  0  0  0
  140.6900   69.4270  227.2980 C   0  0  0  0  0  0  0  0  0  0  0  0
  141.0010   68.4550  228.7180 Cl  0  0  0  0  0  0  0  0  0  0  0  0
  141.0740   70.7640  227.3060 C   0  0  0  0  0  0  0  0  0  0  0  0
  140.8380   71.5620  226.1860 C   0  0  0  0  0  0  0  0  0  0  0  0
  140.2220   70.9810  225.0980 C   0  0  0  0  0  0  0  0  0  0  0  0
  139.9890   71.7370  224.0160 N   0  0  0  0  0  0  0  0  0  0  0  0
  138.2710   73.6820  223.0100 H   0  0  0  0  0  0  0  0  0  0  0  0
  137.4683   73.9985  220.3561 H   0  0  0  0  0  0  0  0  0  0  0  0
  138.0571   75.3417  221.5422 H   0  0  0  0  0  0  0  0  0  0  0  0
  141.9665   73.3035  220.2032 H   0  0  0  0  0  0  0  0  0  0  0  0
  141.1410   73.7049  218.6157 H   0  0  0  0  0  0  0  0  0  0  0  0
  143.7140   74.0560  219.0695 H   0  0  0  0  0  0  0  0  0  0  0  0
  142.6264   75.1207  217.9973 H   0  0  0  0  0  0  0  0  0  0  0  0
  143.9016   75.7199  220.6067 H   0  0  0  0  0  0  0  0  0  0  0  0
  143.9386   76.5987  219.0171 H   0  0  0  0  0  0  0  0  0  0  0  0
  142.5063   77.7573  220.6914 H   0  0  0  0  0  0  0  0  0  0  0  0
  141.5711   77.2395  219.2927 H   0  0  0  0  0  0  0  0  0  0  0  0
  141.9659   75.4208  221.7817 H   0  0  0  0  0  0  0  0  0  0  0  0
  139.7003   77.2471  221.3836 H   0  0  0  0  0  0  0  0  0  0  0  0
  139.9962   76.0114  222.6717 H   0  0  0  0  0  0  0  0  0  0  0  0
  142.2260   77.4960  222.6690 H   0  0  0  0  0  0  0  0  0  0  0  0
  139.9089   79.0455  222.0097 H   0  0  0  0  0  0  0  0  0  0  0  0
  142.5489   79.1089  221.1413 H   0  0  0  0  0  0  0  0  0  0  0  0
  141.2721   80.3030  220.7913 H   0  0  0  0  0  0  0  0  0  0  0  0
  143.6180   80.9212  222.1390 H   0  0  0  0  0  0  0  0  0  0  0  0
  142.1407   81.8412  222.3710 H   0  0  0  0  0  0  0  0  0  0  0  0
  143.1874   79.4532  223.9915 H   0  0  0  0  0  0  0  0  0  0  0  0
  142.7104   80.9948  224.6333 H   0  0  0  0  0  0  0  0  0  0  0  0
  140.8519   79.0751  224.6797 H   0  0  0  0  0  0  0  0  0  0  0  0
  140.2856   80.5770  223.9810 H   0  0  0  0  0  0  0  0  0  0  0  0
  138.5110   69.5995  221.9154 H   0  0  0  0  0  0  0  0  0  0  0  0
  138.9091   68.1250  223.8893 H   0  0  0  0  0  0  0  0  0  0  0  0
  139.7666   67.8038  226.1852 H   0  0  0  0  0  0  0  0  0  0  0  0
  141.5629   71.1914  228.1938 H   0  0  0  0  0  0  0  0  0  0  0  0
  141.1341   72.6213  226.1716 H   0  0  0  0  0  0  0  0  0  0  0  0
  1  2  2  0
  2  3  1  0
  3  4  1  0
  4  5  1  0
  5  6  2  0
  5  7  1  0
  7  8  1  0
  8  9  1  0
  9 10  1  0
 10 11  1  0
 11 12  1  0
 12 13  1  0
 13 14  1  0
 14 15  1  0
 15 16  1  0
 16 17  1  0
 17 18  1  0
 18 19  1  0
  2 20  1  0
 20 21  2  0
 21 22  1  0
 22 23  2  0
 23 24  1  0
 24 25  2  0
 25 26  1  0
 25 27  1  0
 27 28  2  0
 28 29  1  0
 29 30  2  0
 12  7  1  0
 19 15  1  0
 30 20  1  0
 29 23  1  0
  3 31  1  0
  4 32  1  0
  4 33  1  0
  8 34  1  0
  8 35  1  0
  9 36  1  0
  9 37  1  0
 10 38  1  0
 10 39  1  0
 11 40  1  0
 11 41  1  0
 12 42  1  1
 13 43  1  0
 13 44  1  0
 14 45  1  0
 15 46  1  0
 16 47  1  0
 16 48  1  0
 17 49  1  0
 17 50  1  0
 18 51  1  0
 18 52  1  0
 19 53  1  0
 19 54  1  0
 21 55  1  0
 22 56  1  0
 24 57  1  0
 27 58  1  0
 28 59  1  0
M  END
>  <smiles>  (14) 
O=C(NCC(=O)N1CCCC[C@H]1CNC1CCCC1)c1ccc2cc(Cl)ccc2n1

>  <score_type>  (14) 
oracle

>  <origin>  (14) 
autodockgpu

>  <m_score__min__energy>  (14) 
-9.1099999999999994

>  <m_primary>  (14) 
energy

>  <rmsd>  (14) 
2.199071445616708

>  <m_score__min__rmsd>  (14) 
2.199071445616708

>  <meeko>  (14) 
{"free_energy": -8.72, "intermolecular_energy": -10.8, "internal_energy": -1.68, "cluster_size": 38, "cluster_id": 1, "rank_in_cluster": 5}

>  <energy>  (14) 
-8.38

>  <cluster_rmsd>  (14) 
0.83

>  <cluster>  (14) 
1

$$$$

     RDKit          3D

 59 62  0  0  0  0  0  0  0  0999 V2000
  139.1440   73.4560  221.4390 O   0  0  0  0  0  0  0  0  0  0  0  0
  140.1770   72.8690  221.8600 C   0  0  0  0  0  0  0  0  0  0  0  0
  141.4700   73.1510  221.2760 N   0  0  0  0  0  0  0  0  0  0  0  0
  141.6580   74.0860  220.2160 C   0  0  0  0  0  0  0  0  0  0  0  0
  141.3370   75.4950  220.3990 C   0  0  0  0  0  0  0  0  0  0  0  0
  142.3960   76.2590  220.3260 O   0  0  0  0  0  0  0  0  0  0  0  0
  140.1410   76.1680  220.6320 N   0  0  0  0  0  0  0  0  0  0  0  0
  139.0430   76.2010  219.6330 C   0  0  0  0  0  0  0  0  0  0  0  0
  137.6760   76.1170  220.2180 C   0  0  0  0  0  0  0  0  0  0  0  0
  137.4870   76.5950  221.6080 C   0  0  0  0  0  0  0  0  0  0  0  0
  138.6650   76.2500  222.4970 C   0  0  0  0  0  0  0  0  0  0  0  0
  139.8530   76.9300  221.8320 C   0  0  1  0  0  0  0  0  0  0  0  0
  140.9720   77.1560  222.7620 C   0  0  0  0  0  0  0  0  0  0  0  0
  141.7870   78.2860  222.3410 N   0  0  0  0  0  0  0  0  0  0  0  0
  141.0620   79.4560  221.9760 C   0  0  0  0  0  0  0  0  0  0  0  0
  141.8710   80.5950  221.4490 C   0  0  0  0  0  0  0  0  0  0  0  0
  141.8380   81.7070  222.4950 C   0  0  0  0  0  0  0  0  0  0  0  0
  141.5220   80.9910  223.7660 C   0  0  0  0  0  0  0  0  0  0  0  0
  140.4570   79.9970  223.2800 C   0  0  0  0  0  0  0  0  0  0  0  0
  140.1140   71.8910  222.9440 C   0  0  0  0  0  0  0  0  0  0  0  0
  139.5620   70.6530  222.7210 C   0  0  0  0  0  0  0  0  0  0  0  0
  139.5200   69.7500  223.7850 C   0  0  0  0  0  0  0  0  0  0  0  0
  140.0140   70.0690  225.0330 C   0  0  0  0  0  0  0  0  0  0  0  0
  139.9820   69.1910  226.1000 C   0  0  0  0  0  0  0  0  0  0  0  0
  140.5040   69.5990  227.3310 C   0  0  0  0  0  0  0  0  0  0  0  0
  140.4800   68.5130  228.7010 Cl  0  0  0  0  0  0  0  0  0  0  0  0
  141.0500   70.8680  227.4930 C   0  0  0  0  0  0  0  0  0  0  0  0
  141.0820   71.7550  226.4170 C   0  0  0  0  0  0  0  0  0  0  0  0
  140.5610   71.3280  225.2140 C   0  0  0  0  0  0  0  0  0  0  0  0
  140.5850   72.1700  224.1710 N   0  0  0  0  0  0  0  0  0  0  0  0
  142.3020   72.6190  221.6750 H   0  0  0  0  0  0  0  0  0  0  0  0
  142.7223   74.0397  219.9419 H   0  0  0  0  0  0  0  0  0  0  0  0
  140.9175   73.7617  219.4701 H   0  0  0  0  0  0  0  0  0  0  0  0
  139.1188   77.1427  219.0695 H   0  0  0  0  0  0  0  0  0  0  0  0
  139.1684   75.3107  218.9993 H   0  0  0  0  0  0  0  0  0  0  0  0
  137.0073   76.7075  219.5745 H   0  0  0  0  0  0  0  0  0  0  0  0
  137.4613   75.0392  220.2649 H   0  0  0  0  0  0  0  0  0  0  0  0
  137.3626   77.6878  221.5930 H   0  0  0  0  0  0  0  0  0  0  0  0
  136.5966   76.0964  222.0185 H   0  0  0  0  0  0  0  0  0  0  0  0
  138.5124   76.6401  223.5141 H   0  0  0  0  0  0  0  0  0  0  0  0
  138.8077   75.1643  222.6013 H   0  0  0  0  0  0  0  0  0  0  0  0
  139.6286   77.9630  221.5277 H   0  0  0  0  0  0  0  0  0  0  0  0
  140.5692   77.3583  223.7654 H   0  0  0  0  0  0  0  0  0  0  0  0
  141.6038   76.2556  222.7717 H   0  0  0  0  0  0  0  0  0  0  0  0
  142.4610   77.9880  221.6300 H   0  0  0  0  0  0  0  0  0  0  0  0
  140.3678   79.1460  221.1810 H   0  0  0  0  0  0  0  0  0  0  0  0
  142.9083   80.2711  221.2784 H   0  0  0  0  0  0  0  0  0  0  0  0
  141.4599   80.9513  220.4929 H   0  0  0  0  0  0  0  0  0  0  0  0
  142.8132   82.2115  222.5615 H   0  0  0  0  0  0  0  0  0  0  0  0
  141.1069   82.4936  222.2567 H   0  0  0  0  0  0  0  0  0  0  0  0
  142.4049   80.4733  224.1691 H   0  0  0  0  0  0  0  0  0  0  0  0
  141.1933   81.6449  224.5872 H   0  0  0  0  0  0  0  0  0  0  0  0
  140.3065   79.1893  224.0114 H   0  0  0  0  0  0  0  0  0  0  0  0
  139.4664   80.4548  223.1420 H   0  0  0  0  0  0  0  0  0  0  0  0
  139.1643   70.3808  221.7322 H   0  0  0  0  0  0  0  0  0  0  0  0
  139.0801   68.7548  223.6235 H   0  0  0  0  0  0  0  0  0  0  0  0
  139.5519   68.1855  225.9822 H   0  0  0  0  0  0  0  0  0  0  0  0
  141.4563   71.1718  228.4690 H   0  0  0  0  0  0  0  0  0  0  0  0
  141.5092   72.7629  226.5248 H   0  0  0  0  0  0  0  0  0  0  0  0
  1  2  2  0
  2  3  1  0
  3  4  1  0
  4  5  1  0
  5  6  2  0
  5  7  1  0
  7  8  1  0
  8  9  1  0
  9 10  1  0
 10 11  1  0
 11 12  1  0
 12 13  1  0
 13 14  1  0
 14 15  1  0
 15 16  1  0
 16 17  1  0
 17 18  1  0
 18 19  1  0
  2 20  1  0
 20 21  2  0
 21 22  1  0
 22 23  2  0
 23 24  1  0
 24 25  2  0
 25 26  1  0
 25 27  1  0
 27 28  2  0
 28 29  1  0
 29 30  2  0
 12  7  1  0
 19 15  1  0
 30 20  1  0
 29 23  1  0
  3 31  1  0
  4 32  1  0
  4 33  1  0
  8 34  1  0
  8 35  1  0
  9 36  1  0
  9 37  1  0
 10 38  1  0
 10 39  1  0
 11 40  1  0
 11 41  1  0
 12 42  1  6
 13 43  1  0
 13 44  1  0
 14 45  1  0
 15 46  1  0
 16 47  1  0
 16 48  1  0
 17 49  1  0
 17 50  1  0
 18 51  1  0
 18 52  1  0
 19 53  1  0
 19 54  1  0
 21 55  1  0
 22 56  1  0
 24 57  1  0
 27 58  1  0
 28 59  1  0
M  END
>  <smiles>  (15) 
O=C(NCC(=O)N1CCCC[C@H]1CNC1CCCC1)c1ccc2cc(Cl)ccc2n1

>  <score_type>  (15) 
oracle

>  <origin>  (15) 
autodockgpu

>  <m_score__min__energy>  (15) 
-9.1099999999999994

>  <m_primary>  (15) 
energy

>  <rmsd>  (15) 
2.8778758981248096

>  <m_score__min__rmsd>  (15) 
2.8778758981248096

>  <meeko>  (15) 
{"free_energy": -7.69, "intermolecular_energy": -9.78, "internal_energy": -2.6, "cluster_size": 38, "cluster_id": 1, "rank_in_cluster": 29}

>  <energy>  (15) 
-8.37

>  <cluster_rmsd>  (15) 
1.28

>  <cluster>  (15) 
1

$$$$

     RDKit          3D

 59 62  0  0  0  0  0  0  0  0999 V2000
  140.0150   72.7480  220.7010 O   0  0  0  0  0  0  0  0  0  0  0  0
  139.7620   72.9840  221.9130 C   0  0  0  0  0  0  0  0  0  0  0  0
  139.4300   74.3240  222.3460 N   0  0  0  0  0  0  0  0  0  0  0  0
  139.3660   75.4350  221.4550 C   0  0  0  0  0  0  0  0  0  0  0  0
  140.1930   76.6150  221.6740 C   0  0  0  0  0  0  0  0  0  0  0  0
  141.4280   76.3080  221.9750 O   0  0  0  0  0  0  0  0  0  0  0  0
  139.9210   77.9800  221.6250 N   0  0  0  0  0  0  0  0  0  0  0  0
  139.0450   78.6490  222.6190 C   0  0  0  0  0  0  0  0  0  0  0  0
  139.4970   80.0100  223.0190 C   0  0  0  0  0  0  0  0  0  0  0  0
  140.3180   80.7790  222.0530 C   0  0  0  0  0  0  0  0  0  0  0  0
  141.2950   79.8960  221.3030 C   0  0  0  0  0  0  0  0  0  0  0  0
  140.4160   78.8750  220.5960 C   0  0  1  0  0  0  0  0  0  0  0  0
  141.0830   78.2550  219.4390 C   0  0  0  0  0  0  0  0  0  0  0  0
  142.3500   77.6510  219.8230 N   0  0  0  0  0  0  0  0  0  0  0  0
  142.8740   76.6990  218.9030 C   0  0  0  0  0  0  0  0  0  0  0  0
  141.8750   75.8230  218.2210 C   0  0  0  0  0  0  0  0  0  0  0  0
  142.0550   74.4070  218.7650 C   0  0  0  0  0  0  0  0  0  0  0  0
  142.7120   74.6160  220.0890 C   0  0  0  0  0  0  0  0  0  0  0  0
  143.7140   75.7250  219.7430 C   0  0  0  0  0  0  0  0  0  0  0  0
  139.7930   71.9260  222.9220 C   0  0  0  0  0  0  0  0  0  0  0  0
  139.2650   70.6910  222.6370 C   0  0  0  0  0  0  0  0  0  0  0  0
  139.3130   69.7100  223.6300 C   0  0  0  0  0  0  0  0  0  0  0  0
  139.8710   69.9530  224.8690 C   0  0  0  0  0  0  0  0  0  0  0  0
  139.9290   68.9970  225.8660 C   0  0  0  0  0  0  0  0  0  0  0  0
  140.5120   69.3290  227.0920 C   0  0  0  0  0  0  0  0  0  0  0  0
  140.6030   68.1450  228.3750 Cl  0  0  0  0  0  0  0  0  0  0  0  0
  141.0300   70.6010  227.3180 C   0  0  0  0  0  0  0  0  0  0  0  0
  140.9720   71.5660  226.3120 C   0  0  0  0  0  0  0  0  0  0  0  0
  140.3920   71.2120  225.1120 C   0  0  0  0  0  0  0  0  0  0  0  0
  140.3290   72.1290  224.1370 N   0  0  0  0  0  0  0  0  0  0  0  0
  139.2310   74.4560  223.3830 H   0  0  0  0  0  0  0  0  0  0  0  0
  139.6239   75.0519  220.4566 H   0  0  0  0  0  0  0  0  0  0  0  0
  138.3471   75.8177  221.6143 H   0  0  0  0  0  0  0  0  0  0  0  0
  138.0369   78.7343  222.1871 H   0  0  0  0  0  0  0  0  0  0  0  0
  139.0709   78.0297  223.5277 H   0  0  0  0  0  0  0  0  0  0  0  0
  138.5966   80.6053  223.2309 H   0  0  0  0  0  0  0  0  0  0  0  0
  140.1659   79.8385  223.8752 H   0  0  0  0  0  0  0  0  0  0  0  0
  139.6492   81.2641  221.3268 H   0  0  0  0  0  0  0  0  0  0  0  0
  140.8994   81.5215  222.6193 H   0  0  0  0  0  0  0  0  0  0  0  0
  141.8713   80.4847  220.5741 H   0  0  0  0  0  0  0  0  0  0  0  0
  142.0318   79.4247  221.9701 H   0  0  0  0  0  0  0  0  0  0  0  0
  139.5464   79.3377  220.1065 H   0  0  0  0  0  0  0  0  0  0  0  0
  140.4269   77.4773  219.0210 H   0  0  0  0  0  0  0  0  0  0  0  0
  141.2825   79.0372  218.6917 H   0  0  0  0  0  0  0  0  0  0  0  0
  142.2950   77.3010  220.7830 H   0  0  0  0  0  0  0  0  0  0  0  0
  143.3911   77.2813  218.1262 H   0  0  0  0  0  0  0  0  0  0  0  0
  140.8564   76.1798  218.4334 H   0  0  0  0  0  0  0  0  0  0  0  0
  142.0259   75.8404  217.1315 H   0  0  0  0  0  0  0  0  0  0  0  0
  141.0828   73.9064  218.8845 H   0  0  0  0  0  0  0  0  0  0  0  0
  142.6443   73.7648  218.0939 H   0  0  0  0  0  0  0  0  0  0  0  0
  141.9906   74.9460  220.8510 H   0  0  0  0  0  0  0  0  0  0  0  0
  143.1659   73.7111  220.5193 H   0  0  0  0  0  0  0  0  0  0  0  0
  144.0934   76.2131  220.6528 H   0  0  0  0  0  0  0  0  0  0  0  0
  144.6055   75.3549  219.2156 H   0  0  0  0  0  0  0  0  0  0  0  0
  138.8170   70.4802  221.6547 H   0  0  0  0  0  0  0  0  0  0  0  0
  138.8941   68.7151  223.4187 H   0  0  0  0  0  0  0  0  0  0  0  0
  139.5220   67.9892  225.6967 H   0  0  0  0  0  0  0  0  0  0  0  0
  141.4849   70.8453  228.2893 H   0  0  0  0  0  0  0  0  0  0  0  0
  141.3759   72.5767  226.4709 H   0  0  0  0  0  0  0  0  0  0  0  0
  1  2  2  0
  2  3  1  0
  3  4  1  0
  4  5  1  0
  5  6  2  0
  5  7  1  0
  7  8  1  0
  8  9  1  0
  9 10  1  0
 10 11  1  0
 11 12  1  0
 12 13  1  0
 13 14  1  0
 14 15  1  0
 15 16  1  0
 16 17  1  0
 17 18  1  0
 18 19  1  0
  2 20  1  0
 20 21  2  0
 21 22  1  0
 22 23  2  0
 23 24  1  0
 24 25  2  0
 25 26  1  0
 25 27  1  0
 27 28  2  0
 28 29  1  0
 29 30  2  0
 12  7  1  0
 19 15  1  0
 30 20  1  0
 29 23  1  0
  3 31  1  0
  4 32  1  0
  4 33  1  0
  8 34  1  0
  8 35  1  0
  9 36  1  0
  9 37  1  0
 10 38  1  0
 10 39  1  0
 11 40  1  0
 11 41  1  0
 12 42  1  6
 13 43  1  0
 13 44  1  0
 14 45  1  0
 15 46  1  0
 16 47  1  0
 16 48  1  0
 17 49  1  0
 17 50  1  0
 18 51  1  0
 18 52  1  0
 19 53  1  0
 19 54  1  0
 21 55  1  0
 22 56  1  0
 24 57  1  0
 27 58  1  0
 28 59  1  0
M  END
>  <smiles>  (16) 
O=C(NCC(=O)N1CCCC[C@H]1CNC1CCCC1)c1ccc2cc(Cl)ccc2n1

>  <score_type>  (16) 
oracle

>  <origin>  (16) 
autodockgpu

>  <m_score__min__energy>  (16) 
-9.1099999999999994

>  <m_primary>  (16) 
energy

>  <rmsd>  (16) 
4.146321230502099

>  <m_score__min__rmsd>  (16) 
4.146321230502099

>  <meeko>  (16) 
{"free_energy": -7.58, "intermolecular_energy": -9.67, "internal_energy": -2.71, "cluster_size": 38, "cluster_id": 1, "rank_in_cluster": 32}

>  <energy>  (16) 
-8.29

>  <cluster_rmsd>  (16) 
1.07

>  <cluster>  (16) 
1

$$$$

     RDKit          3D

 59 62  0  0  0  0  0  0  0  0999 V2000
  138.8300   71.8010  220.7000 O   0  0  0  0  0  0  0  0  0  0  0  0
  139.0570   72.2250  221.8660 C   0  0  0  0  0  0  0  0  0  0  0  0
  139.0690   73.6460  222.1400 N   0  0  0  0  0  0  0  0  0  0  0  0
  138.8300   74.6330  221.1400 C   0  0  0  0  0  0  0  0  0  0  0  0
  139.9190   75.1370  220.3120 C   0  0  0  0  0  0  0  0  0  0  0  0
  139.4850   75.7580  219.2460 O   0  0  0  0  0  0  0  0  0  0  0  0
  141.3030   75.0820  220.4400 N   0  0  0  0  0  0  0  0  0  0  0  0
  142.0340   73.7990  220.6040 C   0  0  0  0  0  0  0  0  0  0  0  0
  143.3350   73.7370  219.8840 C   0  0  0  0  0  0  0  0  0  0  0  0
  144.0410   75.0130  219.6160 C   0  0  0  0  0  0  0  0  0  0  0  0
  143.0840   76.1320  219.2610 C   0  0  0  0  0  0  0  0  0  0  0  0
  142.1680   76.2460  220.4710 C   0  0  1  0  0  0  0  0  0  0  0  0
  141.5110   77.5600  220.5650 C   0  0  0  0  0  0  0  0  0  0  0  0
  142.0160   78.3220  221.6980 N   0  0  0  0  0  0  0  0  0  0  0  0
  141.1130   79.2810  222.2370 C   0  0  0  0  0  0  0  0  0  0  0  0
  141.2740   80.6840  221.7510 C   0  0  0  0  0  0  0  0  0  0  0  0
  141.8100   81.5170  222.9140 C   0  0  0  0  0  0  0  0  0  0  0  0
  142.4580   80.5090  223.8040 C   0  0  0  0  0  0  0  0  0  0  0  0
  141.4370   79.3650  223.7360 C   0  0  0  0  0  0  0  0  0  0  0  0
  139.3150   71.3110  222.9770 C   0  0  0  0  0  0  0  0  0  0  0  0
  138.9480   69.9910  222.8790 C   0  0  0  0  0  0  0  0  0  0  0  0
  139.2100   69.1530  223.9640 C   0  0  0  0  0  0  0  0  0  0  0  0
  139.8200   69.6150  225.1120 C   0  0  0  0  0  0  0  0  0  0  0  0
  140.0890   68.8030  226.1990 C   0  0  0  0  0  0  0  0  0  0  0  0
  140.7090   69.3560  227.3220 C   0  0  0  0  0  0  0  0  0  0  0  0
  141.0640   68.3580  228.7130 Cl  0  0  0  0  0  0  0  0  0  0  0  0
  141.0560   70.7030  227.3600 C   0  0  0  0  0  0  0  0  0  0  0  0
  140.7850   71.5230  226.2640 C   0  0  0  0  0  0  0  0  0  0  0  0
  140.1720   70.9530  225.1680 C   0  0  0  0  0  0  0  0  0  0  0  0
  139.9060   71.7280  224.1090 N   0  0  0  0  0  0  0  0  0  0  0  0
  139.2700   73.9380  223.1440 H   0  0  0  0  0  0  0  0  0  0  0  0
  138.0840   74.2083  220.4523 H   0  0  0  0  0  0  0  0  0  0  0  0
  138.5454   75.5155  221.7318 H   0  0  0  0  0  0  0  0  0  0  0  0
  142.2265   73.6472  221.6763 H   0  0  0  0  0  0  0  0  0  0  0  0
  141.3961   73.0160  220.1682 H   0  0  0  0  0  0  0  0  0  0  0  0
  144.0108   73.1081  220.4821 H   0  0  0  0  0  0  0  0  0  0  0  0
  143.0804   73.3479  218.8871 H   0  0  0  0  0  0  0  0  0  0  0  0
  144.6054   75.3013  220.5150 H   0  0  0  0  0  0  0  0  0  0  0  0
  144.7100   74.8552  218.7572 H   0  0  0  0  0  0  0  0  0  0  0  0
  143.6295   77.0728  219.0959 H   0  0  0  0  0  0  0  0  0  0  0  0
  142.5290   75.9300  218.3330 H   0  0  0  0  0  0  0  0  0  0  0  0
  142.7238   76.2268  221.4200 H   0  0  0  0  0  0  0  0  0  0  0  0
  141.7022   78.1236  219.6399 H   0  0  0  0  0  0  0  0  0  0  0  0
  140.4319   77.4002  220.7063 H   0  0  0  0  0  0  0  0  0  0  0  0
  142.9380   78.7100  221.4770 H   0  0  0  0  0  0  0  0  0  0  0  0
  140.1064   78.9428  221.9499 H   0  0  0  0  0  0  0  0  0  0  0  0
  141.9844   80.7110  220.9116 H   0  0  0  0  0  0  0  0  0  0  0  0
  140.3112   81.0843  221.4005 H   0  0  0  0  0  0  0  0  0  0  0  0
  142.5432   82.2571  222.5609 H   0  0  0  0  0  0  0  0  0  0  0  0
  141.0231   82.0919  223.4241 H   0  0  0  0  0  0  0  0  0  0  0  0
  143.4397   80.1988  223.4166 H   0  0  0  0  0  0  0  0  0  0  0  0
  142.6700   80.8698  224.8213 H   0  0  0  0  0  0  0  0  0  0  0  0
  141.8736   78.4231  224.0997 H   0  0  0  0  0  0  0  0  0  0  0  0
  140.5496   79.5377  224.3626 H   0  0  0  0  0  0  0  0  0  0  0  0
  138.4613   69.6052  221.9711 H   0  0  0  0  0  0  0  0  0  0  0  0
  138.9217   68.0933  223.9020 H   0  0  0  0  0  0  0  0  0  0  0  0
  139.8185   67.7369  226.1794 H   0  0  0  0  0  0  0  0  0  0  0  0
  141.5435   71.1210  228.2531 H   0  0  0  0  0  0  0  0  0  0  0  0
  141.0518   72.5901  226.2739 H   0  0  0  0  0  0  0  0  0  0  0  0
  1  2  2  0
  2  3  1  0
  3  4  1  0
  4  5  1  0
  5  6  2  0
  5  7  1  0
  7  8  1  0
  8  9  1  0
  9 10  1  0
 10 11  1  0
 11 12  1  0
 12 13  1  0
 13 14  1  0
 14 15  1  0
 15 16  1  0
 16 17  1  0
 17 18  1  0
 18 19  1  0
  2 20  1  0
 20 21  2  0
 21 22  1  0
 22 23  2  0
 23 24  1  0
 24 25  2  0
 25 26  1  0
 25 27  1  0
 27 28  2  0
 28 29  1  0
 29 30  2  0
 12  7  1  0
 19 15  1  0
 30 20  1  0
 29 23  1  0
  3 31  1  0
  4 32  1  0
  4 33  1  0
  8 34  1  0
  8 35  1  0
  9 36  1  0
  9 37  1  0
 10 38  1  0
 10 39  1  0
 11 40  1  0
 11 41  1  0
 12 42  1  1
 13 43  1  0
 13 44  1  0
 14 45  1  0
 15 46  1  0
 16 47  1  0
 16 48  1  0
 17 49  1  0
 17 50  1  0
 18 51  1  0
 18 52  1  0
 19 53  1  0
 19 54  1  0
 21 55  1  0
 22 56  1  0
 24 57  1  0
 27 58  1  0
 28 59  1  0
M  END
>  <smiles>  (17) 
O=C(NCC(=O)N1CCCC[C@H]1CNC1CCCC1)c1ccc2cc(Cl)ccc2n1

>  <score_type>  (17) 
oracle

>  <origin>  (17) 
autodockgpu

>  <m_score__min__energy>  (17) 
-9.1099999999999994

>  <m_primary>  (17) 
energy

>  <rmsd>  (17) 
2.3464966682472177

>  <m_score__min__rmsd>  (17) 
2.3464966682472177

>  <meeko>  (17) 
{"free_energy": -8.76, "intermolecular_energy": -10.85, "internal_energy": -1.73, "cluster_size": 38, "cluster_id": 1, "rank_in_cluster": 4}

>  <energy>  (17) 
-8.27

>  <cluster_rmsd>  (17) 
1.18

>  <cluster>  (17) 
1

$$$$

     RDKit          3D

 59 62  0  0  0  0  0  0  0  0999 V2000
  139.9570   72.2070  220.6480 O   0  0  0  0  0  0  0  0  0  0  0  0
  139.4780   72.4480  221.7890 C   0  0  0  0  0  0  0  0  0  0  0  0
  138.7380   73.6680  222.0310 N   0  0  0  0  0  0  0  0  0  0  0  0
  138.5050   74.6490  221.0230 C   0  0  0  0  0  0  0  0  0  0  0  0
  139.4370   75.7520  220.8250 C   0  0  0  0  0  0  0  0  0  0  0  0
  139.3140   76.6770  221.7420 O   0  0  0  0  0  0  0  0  0  0  0  0
  140.4120   76.0010  219.8640 N   0  0  0  0  0  0  0  0  0  0  0  0
  140.1040   76.6790  218.5800 C   0  0  0  0  0  0  0  0  0  0  0  0
  141.1600   77.6190  218.1120 C   0  0  0  0  0  0  0  0  0  0  0  0
  142.5530   77.3710  218.5540 C   0  0  0  0  0  0  0  0  0  0  0  0
  142.6200   76.8800  219.9850 C   0  0  0  0  0  0  0  0  0  0  0  0
  141.8010   75.5980  219.9850 C   0  0  1  0  0  0  0  0  0  0  0  0
  142.1390   74.7070  221.1080 C   0  0  0  0  0  0  0  0  0  0  0  0
  142.6940   73.4490  220.6320 N   0  0  0  0  0  0  0  0  0  0  0  0
  143.7970   73.5680  219.7390 C   0  0  0  0  0  0  0  0  0  0  0  0
  144.5280   72.3060  219.4230 C   0  0  0  0  0  0  0  0  0  0  0  0
  145.9050   72.3920  220.0790 C   0  0  0  0  0  0  0  0  0  0  0  0
  145.7130   73.3850  221.1770 C   0  0  0  0  0  0  0  0  0  0  0  0
  144.8360   74.4300  220.4720 C   0  0  0  0  0  0  0  0  0  0  0  0
  139.6480   71.5180  222.9040 C   0  0  0  0  0  0  0  0  0  0  0  0
  139.2930   70.1990  222.7570 C   0  0  0  0  0  0  0  0  0  0  0  0
  139.4700   69.3450  223.8470 C   0  0  0  0  0  0  0  0  0  0  0  0
  139.9850   69.7910  225.0470 C   0  0  0  0  0  0  0  0  0  0  0  0
  140.1680   68.9630  226.1390 C   0  0  0  0  0  0  0  0  0  0  0  0
  140.6950   69.5000  227.3170 C   0  0  0  0  0  0  0  0  0  0  0  0
  140.9390   68.4810  228.7170 Cl  0  0  0  0  0  0  0  0  0  0  0  0
  141.0350   70.8460  227.4020 C   0  0  0  0  0  0  0  0  0  0  0  0
  140.8500   71.6820  226.3010 C   0  0  0  0  0  0  0  0  0  0  0  0
  140.3280   71.1280  225.1510 C   0  0  0  0  0  0  0  0  0  0  0  0
  140.1460   71.9190  224.0850 N   0  0  0  0  0  0  0  0  0  0  0  0
  138.3630   73.8130  223.0170 H   0  0  0  0  0  0  0  0  0  0  0  0
  138.4505   74.1088  220.0663 H   0  0  0  0  0  0  0  0  0  0  0  0
  137.5982   75.1574  221.3824 H   0  0  0  0  0  0  0  0  0  0  0  0
  139.9637   75.9075  217.8086 H   0  0  0  0  0  0  0  0  0  0  0  0
  139.2005   77.2824  218.7524 H   0  0  0  0  0  0  0  0  0  0  0  0
  141.1559   77.5955  217.0123 H   0  0  0  0  0  0  0  0  0  0  0  0
  140.8930   78.5839  218.5678 H   0  0  0  0  0  0  0  0  0  0  0  0
  143.0032   76.6118  217.8975 H   0  0  0  0  0  0  0  0  0  0  0  0
  143.0999   78.3238  218.4978 H   0  0  0  0  0  0  0  0  0  0  0  0
  143.6605   76.6769  220.2783 H   0  0  0  0  0  0  0  0  0  0  0  0
  142.2365   77.6220  220.7008 H   0  0  0  0  0  0  0  0  0  0  0  0
  142.0393   74.9488  219.1296 H   0  0  0  0  0  0  0  0  0  0  0  0
  142.8792   75.2053  221.7513 H   0  0  0  0  0  0  0  0  0  0  0  0
  141.2190   74.4913  221.6710 H   0  0  0  0  0  0  0  0  0  0  0  0
  141.9450   72.8480  220.2740 H   0  0  0  0  0  0  0  0  0  0  0  0
  143.3834   73.9567  218.7967 H   0  0  0  0  0  0  0  0  0  0  0  0
  143.9756   71.4427  219.8225 H   0  0  0  0  0  0  0  0  0  0  0  0
  144.6262   72.1791  218.3348 H   0  0  0  0  0  0  0  0  0  0  0  0
  146.2088   71.4149  220.4826 H   0  0  0  0  0  0  0  0  0  0  0  0
  146.6958   72.6851  219.3728 H   0  0  0  0  0  0  0  0  0  0  0  0
  145.1966   72.9392  222.0399 H   0  0  0  0  0  0  0  0  0  0  0  0
  146.6476   73.7846  221.5974 H   0  0  0  0  0  0  0  0  0  0  0  0
  144.3531   75.0978  221.2006 H   0  0  0  0  0  0  0  0  0  0  0  0
  145.4032   75.0913  219.8005 H   0  0  0  0  0  0  0  0  0  0  0  0
  138.8811   69.8265  221.8075 H   0  0  0  0  0  0  0  0  0  0  0  0
  139.1908   68.2858  223.7464 H   0  0  0  0  0  0  0  0  0  0  0  0
  139.9027   67.8970  226.0816 H   0  0  0  0  0  0  0  0  0  0  0  0
  141.4495   71.2509  228.3370 H   0  0  0  0  0  0  0  0  0  0  0  0
  141.1121   72.7493  226.3484 H   0  0  0  0  0  0  0  0  0  0  0  0
  1  2  2  0
  2  3  1  0
  3  4  1  0
  4  5  1  0
  5  6  2  0
  5  7  1  0
  7  8  1  0
  8  9  1  0
  9 10  1  0
 10 11  1  0
 11 12  1  0
 12 13  1  0
 13 14  1  0
 14 15  1  0
 15 16  1  0
 16 17  1  0
 17 18  1  0
 18 19  1  0
  2 20  1  0
 20 21  2  0
 21 22  1  0
 22 23  2  0
 23 24  1  0
 24 25  2  0
 25 26  1  0
 25 27  1  0
 27 28  2  0
 28 29  1  0
 29 30  2  0
 12  7  1  0
 19 15  1  0
 30 20  1  0
 29 23  1  0
  3 31  1  0
  4 32  1  0
  4 33  1  0
  8 34  1  0
  8 35  1  0
  9 36  1  0
  9 37  1  0
 10 38  1  0
 10 39  1  0
 11 40  1  0
 11 41  1  0
 12 42  1  6
 13 43  1  0
 13 44  1  0
 14 45  1  0
 15 46  1  0
 16 47  1  0
 16 48  1  0
 17 49  1  0
 17 50  1  0
 18 51  1  0
 18 52  1  0
 19 53  1  0
 19 54  1  0
 21 55  1  0
 22 56  1  0
 24 57  1  0
 27 58  1  0
 28 59  1  0
M  END
>  <smiles>  (18) 
O=C(NCC(=O)N1CCCC[C@H]1CNC1CCCC1)c1ccc2cc(Cl)ccc2n1

>  <score_type>  (18) 
oracle

>  <origin>  (18) 
autodockgpu

>  <m_score__min__energy>  (18) 
-9.1099999999999994

>  <m_primary>  (18) 
energy

>  <rmsd>  (18) 
4.330921055947666

>  <m_score__min__rmsd>  (18) 
4.330921055947666

>  <meeko>  (18) 
{"free_energy": -7.57, "intermolecular_energy": -9.66, "internal_energy": -2.61, "cluster_size": 38, "cluster_id": 1, "rank_in_cluster": 33}

>  <energy>  (18) 
-8.23

>  <cluster_rmsd>  (18) 
0.89

>  <cluster>  (18) 
1

$$$$

     RDKit          3D

 59 62  0  0  0  0  0  0  0  0999 V2000
  140.9680   72.8130  221.0620 O   0  0  0  0  0  0  0  0  0  0  0  0
  140.2010   72.9130  222.0580 C   0  0  0  0  0  0  0  0  0  0  0  0
  139.3300   74.0590  222.1990 N   0  0  0  0  0  0  0  0  0  0  0  0
  139.2790   75.1200  221.2480 C   0  0  0  0  0  0  0  0  0  0  0  0
  140.4590   75.9300  220.9700 C   0  0  0  0  0  0  0  0  0  0  0  0
  141.4290   75.7010  221.8170 O   0  0  0  0  0  0  0  0  0  0  0  0
  140.7410   76.8810  219.9940 N   0  0  0  0  0  0  0  0  0  0  0  0
  140.1680   78.2500  220.0330 C   0  0  0  0  0  0  0  0  0  0  0  0
  141.1040   79.3210  219.5920 C   0  0  0  0  0  0  0  0  0  0  0  0
  142.1860   78.9500  218.6490 C   0  0  0  0  0  0  0  0  0  0  0  0
  142.7610   77.5820  218.9490 C   0  0  0  0  0  0  0  0  0  0  0  0
  141.5740   76.6370  218.8320 C   0  0  1  0  0  0  0  0  0  0  0  0
  141.9780   75.2430  218.5840 C   0  0  0  0  0  0  0  0  0  0  0  0
  142.8780   74.7630  219.6230 N   0  0  0  0  0  0  0  0  0  0  0  0
  143.9520   73.9470  219.1680 C   0  0  0  0  0  0  0  0  0  0  0  0
  143.6900   72.4780  219.1240 C   0  0  0  0  0  0  0  0  0  0  0  0
  144.5350   71.8250  220.2160 C   0  0  0  0  0  0  0  0  0  0  0  0
  144.7880   72.9360  221.1810 C   0  0  0  0  0  0  0  0  0  0  0  0
  145.0650   74.0980  220.2160 C   0  0  0  0  0  0  0  0  0  0  0  0
  140.1600   71.8880  223.0990 C   0  0  0  0  0  0  0  0  0  0  0  0
  139.6590   70.6410  222.8150 C   0  0  0  0  0  0  0  0  0  0  0  0
  139.6360   69.6920  223.8390 C   0  0  0  0  0  0  0  0  0  0  0  0
  140.0970   69.9780  225.1080 C   0  0  0  0  0  0  0  0  0  0  0  0
  140.0830   69.0540  226.1370 C   0  0  0  0  0  0  0  0  0  0  0  0
  140.5700   69.4290  227.3920 C   0  0  0  0  0  0  0  0  0  0  0  0
  140.5670   68.2860  228.7150 Cl  0  0  0  0  0  0  0  0  0  0  0  0
  141.0640   70.7100  227.6160 C   0  0  0  0  0  0  0  0  0  0  0  0
  141.0780   71.6420  226.5780 C   0  0  0  0  0  0  0  0  0  0  0  0
  140.5920   71.2470  225.3500 C   0  0  0  0  0  0  0  0  0  0  0  0
  140.6000   72.1330  224.3440 N   0  0  0  0  0  0  0  0  0  0  0  0
  138.7090   74.0850  223.0630 H   0  0  0  0  0  0  0  0  0  0  0  0
  138.9750   74.6698  220.2915 H   0  0  0  0  0  0  0  0  0  0  0  0
  138.5946   75.8396  221.7212 H   0  0  0  0  0  0  0  0  0  0  0  0
  139.2855   78.2725  219.3767 H   0  0  0  0  0  0  0  0  0  0  0  0
  139.9250   78.4589  221.0853 H   0  0  0  0  0  0  0  0  0  0  0  0
  140.5017   80.1040  219.1081 H   0  0  0  0  0  0  0  0  0  0  0  0
  141.6292   79.6242  220.5097 H   0  0  0  0  0  0  0  0  0  0  0  0
  141.7797   78.9472  217.6268 H   0  0  0  0  0  0  0  0  0  0  0  0
  142.9951   79.6875  218.7558 H   0  0  0  0  0  0  0  0  0  0  0  0
  143.5409   77.3192  218.2191 H   0  0  0  0  0  0  0  0  0  0  0  0
  143.2369   77.5359  219.9397 H   0  0  0  0  0  0  0  0  0  0  0  0
  140.9678   76.8359  217.9359 H   0  0  0  0  0  0  0  0  0  0  0  0
  141.0805   74.6073  218.5649 H   0  0  0  0  0  0  0  0  0  0  0  0
  142.5048   75.1993  217.6193 H   0  0  0  0  0  0  0  0  0  0  0  0
  142.3400   74.3400  220.3850 H   0  0  0  0  0  0  0  0  0  0  0  0
  144.1689   74.2770  218.1413 H   0  0  0  0  0  0  0  0  0  0  0  0
  142.6233   72.2816  219.3074 H   0  0  0  0  0  0  0  0  0  0  0  0
  143.9510   72.0685  218.1370 H   0  0  0  0  0  0  0  0  0  0  0  0
  143.9851   71.0038  220.6989 H   0  0  0  0  0  0  0  0  0  0  0  0
  145.4624   71.3790  219.8274 H   0  0  0  0  0  0  0  0  0  0  0  0
  143.9079   73.1337  221.8105 H   0  0  0  0  0  0  0  0  0  0  0  0
  145.5964   72.7390  221.9005 H   0  0  0  0  0  0  0  0  0  0  0  0
  144.9936   75.0667  220.7323 H   0  0  0  0  0  0  0  0  0  0  0  0
  146.0758   74.0713  219.7829 H   0  0  0  0  0  0  0  0  0  0  0  0
  139.2864   70.3968  221.8092 H   0  0  0  0  0  0  0  0  0  0  0  0
  139.2392   68.6879  223.6283 H   0  0  0  0  0  0  0  0  0  0  0  0
  139.6941   68.0387  225.9700 H   0  0  0  0  0  0  0  0  0  0  0  0
  141.4432   70.9878  228.6105 H   0  0  0  0  0  0  0  0  0  0  0  0
  141.4646   72.6598  226.7345 H   0  0  0  0  0  0  0  0  0  0  0  0
  1  2  2  0
  2  3  1  0
  3  4  1  0
  4  5  1  0
  5  6  2  0
  5  7  1  0
  7  8  1  0
  8  9  1  0
  9 10  1  0
 10 11  1  0
 11 12  1  0
 12 13  1  0
 13 14  1  0
 14 15  1  0
 15 16  1  0
 16 17  1  0
 17 18  1  0
 18 19  1  0
  2 20  1  0
 20 21  2  0
 21 22  1  0
 22 23  2  0
 23 24  1  0
 24 25  2  0
 25 26  1  0
 25 27  1  0
 27 28  2  0
 28 29  1  0
 29 30  2  0
 12  7  1  0
 19 15  1  0
 30 20  1  0
 29 23  1  0
  3 31  1  0
  4 32  1  0
  4 33  1  0
  8 34  1  0
  8 35  1  0
  9 36  1  0
  9 37  1  0
 10 38  1  0
 10 39  1  0
 11 40  1  0
 11 41  1  0
 12 42  1  6
 13 43  1  0
 13 44  1  0
 14 45  1  0
 15 46  1  0
 16 47  1  0
 16 48  1  0
 17 49  1  0
 17 50  1  0
 18 51  1  0
 18 52  1  0
 19 53  1  0
 19 54  1  0
 21 55  1  0
 22 56  1  0
 24 57  1  0
 27 58  1  0
 28 59  1  0
M  END
>  <smiles>  (19) 
O=C(NCC(=O)N1CCCC[C@H]1CNC1CCCC1)c1ccc2cc(Cl)ccc2n1

>  <score_type>  (19) 
oracle

>  <origin>  (19) 
autodockgpu

>  <m_score__min__energy>  (19) 
-9.1099999999999994

>  <m_primary>  (19) 
energy

>  <rmsd>  (19) 
4.516145959382182

>  <m_score__min__rmsd>  (19) 
4.516145959382182

>  <meeko>  (19) 
{"free_energy": -7.36, "intermolecular_energy": -9.45, "internal_energy": -3.24, "cluster_size": 38, "cluster_id": 1, "rank_in_cluster": 36}

>  <energy>  (19) 
-8.19

>  <cluster_rmsd>  (19) 
1.31

>  <cluster>  (19) 
1

$$$$

     RDKit          3D

 59 62  0  0  0  0  0  0  0  0999 V2000
  138.6540   71.4880  220.6140 O   0  0  0  0  0  0  0  0  0  0  0  0
  138.7770   71.9500  221.7810 C   0  0  0  0  0  0  0  0  0  0  0  0
  138.6100   73.3660  222.0290 N   0  0  0  0  0  0  0  0  0  0  0  0
  138.3010   74.3050  221.0020 C   0  0  0  0  0  0  0  0  0  0  0  0
  139.1450   75.4720  220.7800 C   0  0  0  0  0  0  0  0  0  0  0  0
  138.4760   76.5930  220.8740 O   0  0  0  0  0  0  0  0  0  0  0  0
  140.4990   75.6160  220.4920 N   0  0  0  0  0  0  0  0  0  0  0  0
  141.1640   74.8490  219.4090 C   0  0  0  0  0  0  0  0  0  0  0  0
  142.1860   75.6200  218.6480 C   0  0  0  0  0  0  0  0  0  0  0  0
  142.8570   76.7480  219.3370 C   0  0  0  0  0  0  0  0  0  0  0  0
  141.9090   77.5160  220.2340 C   0  0  0  0  0  0  0  0  0  0  0  0
  141.4030   76.4800  221.2270 C   0  0  1  0  0  0  0  0  0  0  0  0
  140.8860   77.0840  222.4660 C   0  0  0  0  0  0  0  0  0  0  0  0
  140.3010   78.3910  222.2100 N   0  0  0  0  0  0  0  0  0  0  0  0
  140.4310   79.3350  223.2680 C   0  0  0  0  0  0  0  0  0  0  0  0
  140.4410   80.7740  222.8700 C   0  0  0  0  0  0  0  0  0  0  0  0
  141.8510   81.3100  223.1100 C   0  0  0  0  0  0  0  0  0  0  0  0
  142.7050   80.0870  223.0830 C   0  0  0  0  0  0  0  0  0  0  0  0
  141.8260   79.1030  223.8670 C   0  0  0  0  0  0  0  0  0  0  0  0
  139.0900   71.0870  222.9180 C   0  0  0  0  0  0  0  0  0  0  0  0
  138.7690   69.7520  222.8750 C   0  0  0  0  0  0  0  0  0  0  0  0
  139.0840   68.9640  223.9840 C   0  0  0  0  0  0  0  0  0  0  0  0
  139.7000   69.4900  225.1010 C   0  0  0  0  0  0  0  0  0  0  0  0
  140.0200   68.7280  226.2100 C   0  0  0  0  0  0  0  0  0  0  0  0
  140.6440   69.3440  227.2990 C   0  0  0  0  0  0  0  0  0  0  0  0
  141.0630   68.4100  228.7170 Cl  0  0  0  0  0  0  0  0  0  0  0  0
  140.9430   70.7020  227.2800 C   0  0  0  0  0  0  0  0  0  0  0  0
  140.6190   71.4710  226.1620 C   0  0  0  0  0  0  0  0  0  0  0  0
  140.0050   70.8400  225.1010 C   0  0  0  0  0  0  0  0  0  0  0  0
  139.6890   71.5670  224.0210 N   0  0  0  0  0  0  0  0  0  0  0  0
  138.7300   73.6920  223.0350 H   0  0  0  0  0  0  0  0  0  0  0  0
  138.2877   73.7429  220.0565 H   0  0  0  0  0  0  0  0  0  0  0  0
  137.3576   74.7489  221.3527 H   0  0  0  0  0  0  0  0  0  0  0  0
  141.6572   73.9749  219.8592 H   0  0  0  0  0  0  0  0  0  0  0  0
  140.3780   74.5745  218.6901 H   0  0  0  0  0  0  0  0  0  0  0  0
  142.9690   74.9114  218.3401 H   0  0  0  0  0  0  0  0  0  0  0  0
  141.6232   76.0918  217.8291 H   0  0  0  0  0  0  0  0  0  0  0  0
  143.6797   76.3501  219.9492 H   0  0  0  0  0  0  0  0  0  0  0  0
  143.2291   77.4404  218.5675 H   0  0  0  0  0  0  0  0  0  0  0  0
  142.4379   78.3280  220.7545 H   0  0  0  0  0  0  0  0  0  0  0  0
  141.0918   77.9907  219.6710 H   0  0  0  0  0  0  0  0  0  0  0  0
  142.2138   75.8542  221.6283 H   0  0  0  0  0  0  0  0  0  0  0  0
  140.1166   76.4239  222.8930 H   0  0  0  0  0  0  0  0  0  0  0  0
  141.7234   77.2088  223.1683 H   0  0  0  0  0  0  0  0  0  0  0  0
  139.3380   78.2860  221.8760 H   0  0  0  0  0  0  0  0  0  0  0  0
  139.5611   79.1769  223.9224 H   0  0  0  0  0  0  0  0  0  0  0  0
  140.1791   80.8707  221.8060 H   0  0  0  0  0  0  0  0  0  0  0  0
  139.7062   81.3427  223.4588 H   0  0  0  0  0  0  0  0  0  0  0  0
  142.1446   82.0108  222.3146 H   0  0  0  0  0  0  0  0  0  0  0  0
  141.9389   81.8699  224.0527 H   0  0  0  0  0  0  0  0  0  0  0  0
  142.8823   79.7400  222.0543 H   0  0  0  0  0  0  0  0  0  0  0  0
  143.7135   80.2272  223.4993 H   0  0  0  0  0  0  0  0  0  0  0  0
  142.1564   78.0656  223.7099 H   0  0  0  0  0  0  0  0  0  0  0  0
  141.8627   79.2603  224.9551 H   0  0  0  0  0  0  0  0  0  0  0  0
  138.2780   69.3163  221.9924 H   0  0  0  0  0  0  0  0  0  0  0  0
  138.8338   67.8930  223.9666 H   0  0  0  0  0  0  0  0  0  0  0  0
  139.7870   67.6532  226.2349 H   0  0  0  0  0  0  0  0  0  0  0  0
  141.4346   71.1695  228.1459 H   0  0  0  0  0  0  0  0  0  0  0  0
  140.8462   72.5467  226.1281 H   0  0  0  0  0  0  0  0  0  0  0  0
  1  2  2  0
  2  3  1  0
  3  4  1  0
  4  5  1  0
  5  6  2  0
  5  7  1  0
  7  8  1  0
  8  9  1  0
  9 10  1  0
 10 11  1  0
 11 12  1  0
 12 13  1  0
 13 14  1  0
 14 15  1  0
 15 16  1  0
 16 17  1  0
 17 18  1  0
 18 19  1  0
  2 20  1  0
 20 21  2  0
 21 22  1  0
 22 23  2  0
 23 24  1  0
 24 25  2  0
 25 26  1  0
 25 27  1  0
 27 28  2  0
 28 29  1  0
 29 30  2  0
 12  7  1  0
 19 15  1  0
 30 20  1  0
 29 23  1  0
  3 31  1  0
  4 32  1  0
  4 33  1  0
  8 34  1  0
  8 35  1  0
  9 36  1  0
  9 37  1  0
 10 38  1  0
 10 39  1  0
 11 40  1  0
 11 41  1  0
 12 42  1  1
 13 43  1  0
 13 44  1  0
 14 45  1  0
 15 46  1  0
 16 47  1  0
 16 48  1  0
 17 49  1  0
 17 50  1  0
 18 51  1  0
 18 52  1  0
 19 53  1  0
 19 54  1  0
 21 55  1  0
 22 56  1  0
 24 57  1  0
 27 58  1  0
 28 59  1  0
M  END
>  <smiles>  (20) 
O=C(NCC(=O)N1CCCC[C@H]1CNC1CCCC1)c1ccc2cc(Cl)ccc2n1

>  <score_type>  (20) 
oracle

>  <origin>  (20) 
autodockgpu

>  <m_score__min__energy>  (20) 
-9.1099999999999994

>  <m_primary>  (20) 
energy

>  <rmsd>  (20) 
1.8942489982394424

>  <m_score__min__rmsd>  (20) 
1.8942489982394424

>  <meeko>  (20) 
{"free_energy": -8.19, "intermolecular_energy": -10.28, "internal_energy": -2.4, "cluster_size": 38, "cluster_id": 1, "rank_in_cluster": 19}

>  <energy>  (20) 
-8.17

>  <cluster_rmsd>  (20) 
1.83

>  <cluster>  (20) 
1

$$$$

     RDKit          3D

 59 62  0  0  0  0  0  0  0  0999 V2000
  141.1370   72.9720  221.3790 O   0  0  0  0  0  0  0  0  0  0  0  0
  140.2260   72.9190  222.2490 C   0  0  0  0  0  0  0  0  0  0  0  0
  139.1710   73.9090  222.2660 N   0  0  0  0  0  0  0  0  0  0  0  0
  139.0920   74.9790  221.3260 C   0  0  0  0  0  0  0  0  0  0  0  0
  140.2570   75.8030  221.0350 C   0  0  0  0  0  0  0  0  0  0  0  0
  141.2060   75.6540  221.9230 O   0  0  0  0  0  0  0  0  0  0  0  0
  140.5450   76.7010  220.0110 N   0  0  0  0  0  0  0  0  0  0  0  0
  139.8170   77.9860  219.8560 C   0  0  0  0  0  0  0  0  0  0  0  0
  140.6690   79.1270  219.4220 C   0  0  0  0  0  0  0  0  0  0  0  0
  141.8940   78.8210  218.6460 C   0  0  0  0  0  0  0  0  0  0  0  0
  142.5830   77.5640  219.1360 C   0  0  0  0  0  0  0  0  0  0  0  0
  141.5360   76.4710  218.9770 C   0  0  1  0  0  0  0  0  0  0  0  0
  142.1260   75.1240  218.9090 C   0  0  0  0  0  0  0  0  0  0  0  0
  143.0690   74.9060  219.9950 N   0  0  0  0  0  0  0  0  0  0  0  0
  144.2850   74.2640  219.6270 C   0  0  0  0  0  0  0  0  0  0  0  0
  144.1660   73.1290  218.6640 C   0  0  0  0  0  0  0  0  0  0  0  0
  144.4930   71.8440  219.4220 C   0  0  0  0  0  0  0  0  0  0  0  0
  144.2290   72.1960  220.8490 C   0  0  0  0  0  0  0  0  0  0  0  0
  144.8200   73.6120  220.9100 C   0  0  0  0  0  0  0  0  0  0  0  0
  140.1960   71.8690  223.2650 C   0  0  0  0  0  0  0  0  0  0  0  0
  139.7220   70.6190  222.9460 C   0  0  0  0  0  0  0  0  0  0  0  0
  139.7090   69.6460  223.9470 C   0  0  0  0  0  0  0  0  0  0  0  0
  140.1540   69.9090  225.2260 C   0  0  0  0  0  0  0  0  0  0  0  0
  140.1500   68.9600  226.2320 C   0  0  0  0  0  0  0  0  0  0  0  0
  140.6190   69.3130  227.5000 C   0  0  0  0  0  0  0  0  0  0  0  0
  140.6280   68.1390  228.7950 Cl  0  0  0  0  0  0  0  0  0  0  0  0
  141.0860   70.5980  227.7600 C   0  0  0  0  0  0  0  0  0  0  0  0
  141.0900   71.5550  226.7450 C   0  0  0  0  0  0  0  0  0  0  0  0
  140.6230   71.1810  225.5030 C   0  0  0  0  0  0  0  0  0  0  0  0
  140.6210   72.0910  224.5200 N   0  0  0  0  0  0  0  0  0  0  0  0
  138.4340   73.8100  223.0280 H   0  0  0  0  0  0  0  0  0  0  0  0
  138.7754   74.5348  220.3708 H   0  0  0  0  0  0  0  0  0  0  0  0
  138.4090   75.6868  221.8185 H   0  0  0  0  0  0  0  0  0  0  0  0
  139.0243   77.8441  219.1067 H   0  0  0  0  0  0  0  0  0  0  0  0
  139.4255   78.2469  220.8503 H   0  0  0  0  0  0  0  0  0  0  0  0
  140.0437   79.7854  218.8011 H   0  0  0  0  0  0  0  0  0  0  0  0
  141.0389   79.5677  220.3595 H   0  0  0  0  0  0  0  0  0  0  0  0
  141.6194   78.6855  217.5895 H   0  0  0  0  0  0  0  0  0  0  0  0
  142.5930   79.6607  218.7736 H   0  0  0  0  0  0  0  0  0  0  0  0
  143.4711   77.3439  218.5254 H   0  0  0  0  0  0  0  0  0  0  0  0
  142.9369   77.6574  220.1733 H   0  0  0  0  0  0  0  0  0  0  0  0
  141.0244   76.5193  218.0044 H   0  0  0  0  0  0  0  0  0  0  0  0
  141.3219   74.3765  218.9769 H   0  0  0  0  0  0  0  0  0  0  0  0
  142.6658   75.0285  217.9553 H   0  0  0  0  0  0  0  0  0  0  0  0
  142.5970   74.4580  220.7860 H   0  0  0  0  0  0  0  0  0  0  0  0
  144.9039   75.0396  219.1522 H   0  0  0  0  0  0  0  0  0  0  0  0
  143.1413   73.0798  218.2669 H   0  0  0  0  0  0  0  0  0  0  0  0
  144.8568   73.2654  217.8189 H   0  0  0  0  0  0  0  0  0  0  0  0
  143.8424   71.0195  219.0948 H   0  0  0  0  0  0  0  0  0  0  0  0
  145.5240   71.5002  219.2521 H   0  0  0  0  0  0  0  0  0  0  0  0
  143.1521   72.1968  221.0732 H   0  0  0  0  0  0  0  0  0  0  0  0
  144.6565   71.4922  221.5783 H   0  0  0  0  0  0  0  0  0  0  0  0
  144.4682   74.1493  221.8031 H   0  0  0  0  0  0  0  0  0  0  0  0
  145.9180   73.6214  220.9762 H   0  0  0  0  0  0  0  0  0  0  0  0
  139.3632   70.3918  221.9313 H   0  0  0  0  0  0  0  0  0  0  0  0
  139.3329   68.6401  223.7089 H   0  0  0  0  0  0  0  0  0  0  0  0
  139.7828   67.9417  226.0367 H   0  0  0  0  0  0  0  0  0  0  0  0
  141.4514   70.8586  228.7643 H   0  0  0  0  0  0  0  0  0  0  0  0
  141.4544   72.5763  226.9299 H   0  0  0  0  0  0  0  0  0  0  0  0
  1  2  2  0
  2  3  1  0
  3  4  1  0
  4  5  1  0
  5  6  2  0
  5  7  1  0
  7  8  1  0
  8  9  1  0
  9 10  1  0
 10 11  1  0
 11 12  1  0
 12 13  1  0
 13 14  1  0
 14 15  1  0
 15 16  1  0
 16 17  1  0
 17 18  1  0
 18 19  1  0
  2 20  1  0
 20 21  2  0
 21 22  1  0
 22 23  2  0
 23 24  1  0
 24 25  2  0
 25 26  1  0
 25 27  1  0
 27 28  2  0
 28 29  1  0
 29 30  2  0
 12  7  1  0
 19 15  1  0
 30 20  1  0
 29 23  1  0
  3 31  1  0
  4 32  1  0
  4 33  1  0
  8 34  1  0
  8 35  1  0
  9 36  1  0
  9 37  1  0
 10 38  1  0
 10 39  1  0
 11 40  1  0
 11 41  1  0
 12 42  1  6
 13 43  1  0
 13 44  1  0
 14 45  1  0
 15 46  1  0
 16 47  1  0
 16 48  1  0
 17 49  1  0
 17 50  1  0
 18 51  1  0
 18 52  1  0
 19 53  1  0
 19 54  1  0
 21 55  1  0
 22 56  1  0
 24 57  1  0
 27 58  1  0
 28 59  1  0
M  END
>  <smiles>  (21) 
O=C(NCC(=O)N1CCCC[C@H]1CNC1CCCC1)c1ccc2cc(Cl)ccc2n1

>  <score_type>  (21) 
oracle

>  <origin>  (21) 
autodockgpu

>  <m_score__min__energy>  (21) 
-9.1099999999999994

>  <m_primary>  (21) 
energy

>  <rmsd>  (21) 
4.461805922604628

>  <m_score__min__rmsd>  (21) 
4.461805922604628

>  <meeko>  (21) 
{"free_energy": -7.42, "intermolecular_energy": -9.51, "internal_energy": -3.16, "cluster_size": 38, "cluster_id": 1, "rank_in_cluster": 34}

>  <energy>  (21) 
-8.16

>  <cluster_rmsd>  (21) 
1.28

>  <cluster>  (21) 
1

$$$$

     RDKit          3D

 59 62  0  0  0  0  0  0  0  0999 V2000
  139.9030   72.5940  220.4780 O   0  0  0  0  0  0  0  0  0  0  0  0
  139.5210   72.8470  221.6530 C   0  0  0  0  0  0  0  0  0  0  0  0
  138.9330   74.1300  221.9730 N   0  0  0  0  0  0  0  0  0  0  0  0
  138.7500   75.1640  221.0080 C   0  0  0  0  0  0  0  0  0  0  0  0
  139.7850   76.1640  220.7800 C   0  0  0  0  0  0  0  0  0  0  0  0
  139.2940   77.3720  220.6830 O   0  0  0  0  0  0  0  0  0  0  0  0
  141.1680   76.0770  220.6480 N   0  0  0  0  0  0  0  0  0  0  0  0
  141.9480   74.9480  221.2150 C   0  0  0  0  0  0  0  0  0  0  0  0
  143.0770   74.4900  220.3590 C   0  0  0  0  0  0  0  0  0  0  0  0
  143.6810   75.4700  219.4260 C   0  0  0  0  0  0  0  0  0  0  0  0
  142.6430   76.3840  218.8070 C   0  0  0  0  0  0  0  0  0  0  0  0
  141.9910   77.0770  219.9950 C   0  0  1  0  0  0  0  0  0  0  0  0
  141.3330   78.3410  219.6250 C   0  0  0  0  0  0  0  0  0  0  0  0
  141.1990   79.2210  220.7760 N   0  0  0  0  0  0  0  0  0  0  0  0
  142.0700   78.9340  221.8660 C   0  0  0  0  0  0  0  0  0  0  0  0
  141.4390   78.3120  223.0680 C   0  0  0  0  0  0  0  0  0  0  0  0
  141.4600   79.3490  224.1900 C   0  0  0  0  0  0  0  0  0  0  0  0
  141.5600   80.6520  223.4670 C   0  0  0  0  0  0  0  0  0  0  0  0
  142.5720   80.2960  222.3690 C   0  0  0  0  0  0  0  0  0  0  0  0
  139.6530   71.8670  222.7290 C   0  0  0  0  0  0  0  0  0  0  0  0
  139.2340   70.5730  222.5350 C   0  0  0  0  0  0  0  0  0  0  0  0
  139.3760   69.6700  223.5900 C   0  0  0  0  0  0  0  0  0  0  0  0
  139.9210   70.0440  224.8020 C   0  0  0  0  0  0  0  0  0  0  0  0
  140.0710   69.1660  225.8600 C   0  0  0  0  0  0  0  0  0  0  0  0
  140.6320   69.6300  227.0520 C   0  0  0  0  0  0  0  0  0  0  0  0
  140.8370   68.5480  228.4100 Cl  0  0  0  0  0  0  0  0  0  0  0  0
  141.0380   70.9540  227.1860 C   0  0  0  0  0  0  0  0  0  0  0  0
  140.8860   71.8400  226.1190 C   0  0  0  0  0  0  0  0  0  0  0  0
  140.3300   71.3570  224.9540 C   0  0  0  0  0  0  0  0  0  0  0  0
  140.1780   72.1970  223.9210 N   0  0  0  0  0  0  0  0  0  0  0  0
  138.6340   74.2810  222.9830 H   0  0  0  0  0  0  0  0  0  0  0  0
  138.5777   74.6653  220.0428 H   0  0  0  0  0  0  0  0  0  0  0  0
  137.9290   75.7564  221.4381 H   0  0  0  0  0  0  0  0  0  0  0  0
  142.3584   75.2660  222.1848 H   0  0  0  0  0  0  0  0  0  0  0  0
  141.2543   74.0987  221.3010 H   0  0  0  0  0  0  0  0  0  0  0  0
  143.8759   74.1406  221.0296 H   0  0  0  0  0  0  0  0  0  0  0  0
  142.6348   73.7233  219.7058 H   0  0  0  0  0  0  0  0  0  0  0  0
  144.4089   76.0828  219.9779 H   0  0  0  0  0  0  0  0  0  0  0  0
  144.1655   74.9090  218.6132 H   0  0  0  0  0  0  0  0  0  0  0  0
  143.1191   77.1188  218.1411 H   0  0  0  0  0  0  0  0  0  0  0  0
  141.9154   75.8351  218.1911 H   0  0  0  0  0  0  0  0  0  0  0  0
  142.7287   77.4373  220.7271 H   0  0  0  0  0  0  0  0  0  0  0  0
  141.9342   78.8465  218.8549 H   0  0  0  0  0  0  0  0  0  0  0  0
  140.3273   78.1114  219.2431 H   0  0  0  0  0  0  0  0  0  0  0  0
  140.2150   79.2920  221.0520 H   0  0  0  0  0  0  0  0  0  0  0  0
  142.8166   78.2252  221.4784 H   0  0  0  0  0  0  0  0  0  0  0  0
  140.4014   78.0259  222.8411 H   0  0  0  0  0  0  0  0  0  0  0  0
  141.9882   77.4073  223.3679 H   0  0  0  0  0  0  0  0  0  0  0  0
  140.5365   79.3010  224.7857 H   0  0  0  0  0  0  0  0  0  0  0  0
  142.2851   79.1915  224.9002 H   0  0  0  0  0  0  0  0  0  0  0  0
  140.5915   80.9543  223.0420 H   0  0  0  0  0  0  0  0  0  0  0  0
  141.8553   81.5020  224.0997 H   0  0  0  0  0  0  0  0  0  0  0  0
  142.5603   81.0442  221.5627 H   0  0  0  0  0  0  0  0  0  0  0  0
  143.6111   80.2694  222.7289 H   0  0  0  0  0  0  0  0  0  0  0  0
  138.7988   70.2574  221.5753 H   0  0  0  0  0  0  0  0  0  0  0  0
  139.0441   68.6304  223.4516 H   0  0  0  0  0  0  0  0  0  0  0  0
  139.7531   68.1173  225.7641 H   0  0  0  0  0  0  0  0  0  0  0  0
  141.4783   71.3019  228.1321 H   0  0  0  0  0  0  0  0  0  0  0  0
  141.2000   72.8907  226.2048 H   0  0  0  0  0  0  0  0  0  0  0  0
  1  2  2  0
  2  3  1  0
  3  4  1  0
  4  5  1  0
  5  6  2  0
  5  7  1  0
  7  8  1  0
  8  9  1  0
  9 10  1  0
 10 11  1  0
 11 12  1  0
 12 13  1  0
 13 14  1  0
 14 15  1  0
 15 16  1  0
 16 17  1  0
 17 18  1  0
 18 19  1  0
  2 20  1  0
 20 21  2  0
 21 22  1  0
 22 23  2  0
 23 24  1  0
 24 25  2  0
 25 26  1  0
 25 27  1  0
 27 28  2  0
 28 29  1  0
 29 30  2  0
 12  7  1  0
 19 15  1  0
 30 20  1  0
 29 23  1  0
  3 31  1  0
  4 32  1  0
  4 33  1  0
  8 34  1  0
  8 35  1  0
  9 36  1  0
  9 37  1  0
 10 38  1  0
 10 39  1  0
 11 40  1  0
 11 41  1  0
 12 42  1  1
 13 43  1  0
 13 44  1  0
 14 45  1  0
 15 46  1  0
 16 47  1  0
 16 48  1  0
 17 49  1  0
 17 50  1  0
 18 51  1  0
 18 52  1  0
 19 53  1  0
 19 54  1  0
 21 55  1  0
 22 56  1  0
 24 57  1  0
 27 58  1  0
 28 59  1  0
M  END
>  <smiles>  (22) 
O=C(NCC(=O)N1CCCC[C@H]1CNC1CCCC1)c1ccc2cc(Cl)ccc2n1

>  <score_type>  (22) 
oracle

>  <origin>  (22) 
autodockgpu

>  <m_score__min__energy>  (22) 
-9.1099999999999994

>  <m_primary>  (22) 
energy

>  <rmsd>  (22) 
2.513241615788328

>  <m_score__min__rmsd>  (22) 
2.513241615788328

>  <meeko>  (22) 
{"free_energy": -8.27, "intermolecular_energy": -10.36, "internal_energy": -2.12, "cluster_size": 38, "cluster_id": 1, "rank_in_cluster": 17}

>  <energy>  (22) 
-8.14

>  <cluster_rmsd>  (22) 
0.94

>  <cluster>  (22) 
1

$$$$

     RDKit          3D

 59 62  0  0  0  0  0  0  0  0999 V2000
  141.1220   72.3700  221.1910 O   0  0  0  0  0  0  0  0  0  0  0  0
  140.3260   72.5340  222.1540 C   0  0  0  0  0  0  0  0  0  0  0  0
  139.4750   73.7030  222.2110 N   0  0  0  0  0  0  0  0  0  0  0  0
  139.4790   74.7170  221.2080 C   0  0  0  0  0  0  0  0  0  0  0  0
  140.4100   75.8360  221.2820 C   0  0  0  0  0  0  0  0  0  0  0  0
  140.2150   76.5740  222.3440 O   0  0  0  0  0  0  0  0  0  0  0  0
  141.4450   76.2580  220.4530 N   0  0  0  0  0  0  0  0  0  0  0  0
  142.3250   75.3020  219.7350 C   0  0  0  0  0  0  0  0  0  0  0  0
  142.7050   75.7290  218.3600 C   0  0  0  0  0  0  0  0  0  0  0  0
  142.7190   77.1820  218.0650 C   0  0  0  0  0  0  0  0  0  0  0  0
  141.5850   77.9160  218.7510 C   0  0  0  0  0  0  0  0  0  0  0  0
  141.8010   77.6470  220.2330 C   0  0  1  0  0  0  0  0  0  0  0  0
  141.1460   78.6460  221.0940 C   0  0  0  0  0  0  0  0  0  0  0  0
  141.7020   78.6290  222.4380 N   0  0  0  0  0  0  0  0  0  0  0  0
  142.6510   79.6530  222.7180 C   0  0  0  0  0  0  0  0  0  0  0  0
  142.6370   80.2030  224.1060 C   0  0  0  0  0  0  0  0  0  0  0  0
  142.1080   81.6350  224.0300 C   0  0  0  0  0  0  0  0  0  0  0  0
  141.3270   81.6580  222.7580 C   0  0  0  0  0  0  0  0  0  0  0  0
  142.2490   80.8460  221.8380 C   0  0  0  0  0  0  0  0  0  0  0  0
  140.2280   71.5630  223.2420 C   0  0  0  0  0  0  0  0  0  0  0  0
  139.6570   70.3340  223.0160 C   0  0  0  0  0  0  0  0  0  0  0  0
  139.5810   69.4370  224.0830 C   0  0  0  0  0  0  0  0  0  0  0  0
  140.0600   69.7540  225.3380 C   0  0  0  0  0  0  0  0  0  0  0  0
  139.9950   68.8820  226.4080 C   0  0  0  0  0  0  0  0  0  0  0  0
  140.5050   69.2860  227.6450 C   0  0  0  0  0  0  0  0  0  0  0  0
  140.4390   68.2080  229.0200 Cl  0  0  0  0  0  0  0  0  0  0  0  0
  141.0720   70.5460  227.8100 C   0  0  0  0  0  0  0  0  0  0  0  0
  141.1370   71.4270  226.7300 C   0  0  0  0  0  0  0  0  0  0  0  0
  140.6270   71.0030  225.5210 C   0  0  0  0  0  0  0  0  0  0  0  0
  140.6840   71.8390  224.4750 N   0  0  0  0  0  0  0  0  0  0  0  0
  138.8270   73.7840  223.0510 H   0  0  0  0  0  0  0  0  0  0  0  0
  139.6724   74.2107  220.2508 H   0  0  0  0  0  0  0  0  0  0  0  0
  138.5020   75.2026  221.3478 H   0  0  0  0  0  0  0  0  0  0  0  0
  143.2462   75.1745  220.3225 H   0  0  0  0  0  0  0  0  0  0  0  0
  141.7526   74.3689  219.6269 H   0  0  0  0  0  0  0  0  0  0  0  0
  143.7174   75.3453  218.1656 H   0  0  0  0  0  0  0  0  0  0  0  0
  141.9111   75.3237  217.7154 H   0  0  0  0  0  0  0  0  0  0  0  0
  143.6743   77.6043  218.4099 H   0  0  0  0  0  0  0  0  0  0  0  0
  142.5946   77.3074  216.9793 H   0  0  0  0  0  0  0  0  0  0  0  0
  141.6354   78.9944  218.5399 H   0  0  0  0  0  0  0  0  0  0  0  0
  140.5971   77.5793  218.4036 H   0  0  0  0  0  0  0  0  0  0  0  0
  142.8514   77.7761  220.5329 H   0  0  0  0  0  0  0  0  0  0  0  0
  141.2915   79.6455  220.6583 H   0  0  0  0  0  0  0  0  0  0  0  0
  140.0752   78.4021  221.1574 H   0  0  0  0  0  0  0  0  0  0  0  0
  142.0400   77.6890  222.6670 H   0  0  0  0  0  0  0  0  0  0  0  0
  143.6406   79.2034  222.5490 H   0  0  0  0  0  0  0  0  0  0  0  0
  141.9801   79.5938  224.7443 H   0  0  0  0  0  0  0  0  0  0  0  0
  143.6484   80.1871  224.5382 H   0  0  0  0  0  0  0  0  0  0  0  0
  141.4616   81.8604  224.8910 H   0  0  0  0  0  0  0  0  0  0  0  0
  142.9105   82.3870  224.0506 H   0  0  0  0  0  0  0  0  0  0  0  0
  140.3461   81.1745  222.8767 H   0  0  0  0  0  0  0  0  0  0  0  0
  141.0891   82.6664  222.3885 H   0  0  0  0  0  0  0  0  0  0  0  0
  141.7134   80.5105  220.9377 H   0  0  0  0  0  0  0  0  0  0  0  0
  143.1102   81.4223  221.4690 H   0  0  0  0  0  0  0  0  0  0  0  0
  139.2705   70.0643  222.0221 H   0  0  0  0  0  0  0  0  0  0  0  0
  139.1262   68.4490  223.9188 H   0  0  0  0  0  0  0  0  0  0  0  0
  139.5482   67.8840  226.2879 H   0  0  0  0  0  0  0  0  0  0  0  0
  141.4686   70.8472  228.7908 H   0  0  0  0  0  0  0  0  0  0  0  0
  141.5808   72.4276  226.8394 H   0  0  0  0  0  0  0  0  0  0  0  0
  1  2  2  0
  2  3  1  0
  3  4  1  0
  4  5  1  0
  5  6  2  0
  5  7  1  0
  7  8  1  0
  8  9  1  0
  9 10  1  0
 10 11  1  0
 11 12  1  0
 12 13  1  0
 13 14  1  0
 14 15  1  0
 15 16  1  0
 16 17  1  0
 17 18  1  0
 18 19  1  0
  2 20  1  0
 20 21  2  0
 21 22  1  0
 22 23  2  0
 23 24  1  0
 24 25  2  0
 25 26  1  0
 25 27  1  0
 27 28  2  0
 28 29  1  0
 29 30  2  0
 12  7  1  0
 19 15  1  0
 30 20  1  0
 29 23  1  0
  3 31  1  0
  4 32  1  0
  4 33  1  0
  8 34  1  0
  8 35  1  0
  9 36  1  0
  9 37  1  0
 10 38  1  0
 10 39  1  0
 11 40  1  0
 11 41  1  0
 12 42  1  6
 13 43  1  0
 13 44  1  0
 14 45  1  0
 15 46  1  0
 16 47  1  0
 16 48  1  0
 17 49  1  0
 17 50  1  0
 18 51  1  0
 18 52  1  0
 19 53  1  0
 19 54  1  0
 21 55  1  0
 22 56  1  0
 24 57  1  0
 27 58  1  0
 28 59  1  0
M  END
>  <smiles>  (23) 
O=C(NCC(=O)N1CCCC[C@H]1CNC1CCCC1)c1ccc2cc(Cl)ccc2n1

>  <score_type>  (23) 
oracle

>  <origin>  (23) 
autodockgpu

>  <m_score__min__energy>  (23) 
-9.1099999999999994

>  <m_primary>  (23) 
energy

>  <rmsd>  (23) 
2.213078827687906

>  <m_score__min__rmsd>  (23) 
2.213078827687906

>  <meeko>  (23) 
{"free_energy": -9.11, "intermolecular_energy": -11.2, "internal_energy": -1.76, "cluster_size": 38, "cluster_id": 1, "rank_in_cluster": 1}

>  <energy>  (23) 
-8.13

>  <cluster_rmsd>  (23) 
0.96

>  <cluster>  (23) 
1

$$$$

     RDKit          3D

 59 62  0  0  0  0  0  0  0  0999 V2000
  140.0930   72.2480  220.7680 O   0  0  0  0  0  0  0  0  0  0  0  0
  139.9280   72.5760  221.9740 C   0  0  0  0  0  0  0  0  0  0  0  0
  139.6930   73.9590  222.3320 N   0  0  0  0  0  0  0  0  0  0  0  0
  139.6340   75.0120  221.3730 C   0  0  0  0  0  0  0  0  0  0  0  0
  140.7050   75.9950  221.2770 C   0  0  0  0  0  0  0  0  0  0  0  0
  140.8020   76.7300  222.3550 O   0  0  0  0  0  0  0  0  0  0  0  0
  141.6230   76.2950  220.2760 N   0  0  0  0  0  0  0  0  0  0  0  0
  142.1430   75.2630  219.3430 C   0  0  0  0  0  0  0  0  0  0  0  0
  142.3290   75.7370  217.9440 C   0  0  0  0  0  0  0  0  0  0  0  0
  142.5720   77.1830  217.7280 C   0  0  0  0  0  0  0  0  0  0  0  0
  141.7580   78.0460  218.6700 C   0  0  0  0  0  0  0  0  0  0  0  0
  142.1970   77.6100  220.0600 C   0  0  1  0  0  0  0  0  0  0  0  0
  141.9290   78.6300  221.0870 C   0  0  0  0  0  0  0  0  0  0  0  0
  140.5530   79.0970  221.0180 N   0  0  0  0  0  0  0  0  0  0  0  0
  140.2700   80.2680  221.7770 C   0  0  0  0  0  0  0  0  0  0  0  0
  141.3860   81.2510  221.9150 C   0  0  0  0  0  0  0  0  0  0  0  0
  141.8470   81.2250  223.3710 C   0  0  0  0  0  0  0  0  0  0  0  0
  141.4050   79.8850  223.8600 C   0  0  0  0  0  0  0  0  0  0  0  0
  140.0160   79.7860  223.2130 C   0  0  0  0  0  0  0  0  0  0  0  0
  139.9640   71.5870  223.0490 C   0  0  0  0  0  0  0  0  0  0  0  0
  139.5060   70.3110  222.8240 C   0  0  0  0  0  0  0  0  0  0  0  0
  139.5570   69.3980  223.8790 C   0  0  0  0  0  0  0  0  0  0  0  0
  140.0490   69.7450  225.1210 C   0  0  0  0  0  0  0  0  0  0  0  0
  140.1090   68.8570  226.1790 C   0  0  0  0  0  0  0  0  0  0  0  0
  140.6220   69.2940  227.4040 C   0  0  0  0  0  0  0  0  0  0  0  0
  140.7120   68.1980  228.7630 Cl  0  0  0  0  0  0  0  0  0  0  0  0
  141.0700   70.6010  227.5680 C   0  0  0  0  0  0  0  0  0  0  0  0
  141.0100   71.4970  226.5000 C   0  0  0  0  0  0  0  0  0  0  0  0
  140.5000   71.0410  225.3030 C   0  0  0  0  0  0  0  0  0  0  0  0
  140.4360   71.8910  224.2700 N   0  0  0  0  0  0  0  0  0  0  0  0
  139.5640   74.1690  223.3680 H   0  0  0  0  0  0  0  0  0  0  0  0
  139.5585   74.5331  220.3856 H   0  0  0  0  0  0  0  0  0  0  0  0
  138.7819   75.6132  221.7230 H   0  0  0  0  0  0  0  0  0  0  0  0
  143.1161   74.9162  219.7211 H   0  0  0  0  0  0  0  0  0  0  0  0
  141.3880   74.4638  219.3061 H   0  0  0  0  0  0  0  0  0  0  0  0
  143.1896   75.1942  217.5260 H   0  0  0  0  0  0  0  0  0  0  0  0
  141.3619   75.5441  217.4567 H   0  0  0  0  0  0  0  0  0  0  0  0
  143.6399   77.3910  217.8902 H   0  0  0  0  0  0  0  0  0  0  0  0
  142.2690   77.4268  216.6990 H   0  0  0  0  0  0  0  0  0  0  0  0
  141.9778   79.1117  218.5091 H   0  0  0  0  0  0  0  0  0  0  0  0
  140.6753   77.9272  218.5165 H   0  0  0  0  0  0  0  0  0  0  0  0
  143.2899   77.5177  220.1446 H   0  0  0  0  0  0  0  0  0  0  0  0
  142.1109   78.1950  222.0808 H   0  0  0  0  0  0  0  0  0  0  0  0
  142.5967   79.4861  220.9103 H   0  0  0  0  0  0  0  0  0  0  0  0
  139.9090   78.3240  221.2100 H   0  0  0  0  0  0  0  0  0  0  0  0
  139.4446   80.7735  221.2543 H   0  0  0  0  0  0  0  0  0  0  0  0
  142.2181   80.9692  221.2530 H   0  0  0  0  0  0  0  0  0  0  0  0
  141.0491   82.2598  221.6344 H   0  0  0  0  0  0  0  0  0  0  0  0
  142.9403   81.3256  223.4379 H   0  0  0  0  0  0  0  0  0  0  0  0
  141.4312   82.0529  223.9640 H   0  0  0  0  0  0  0  0  0  0  0  0
  142.0733   79.0852  223.5083 H   0  0  0  0  0  0  0  0  0  0  0  0
  141.4061   79.7767  224.9547 H   0  0  0  0  0  0  0  0  0  0  0  0
  139.6479   78.7495  223.2230 H   0  0  0  0  0  0  0  0  0  0  0  0
  139.2494   80.3740  223.7389 H   0  0  0  0  0  0  0  0  0  0  0  0
  139.1104   70.0173  221.8405 H   0  0  0  0  0  0  0  0  0  0  0  0
  139.1946   68.3724  223.7156 H   0  0  0  0  0  0  0  0  0  0  0  0
  139.7581   67.8214  226.0587 H   0  0  0  0  0  0  0  0  0  0  0  0
  141.4712   70.9277  228.5387 H   0  0  0  0  0  0  0  0  0  0  0  0
  141.3586   72.5345  226.6096 H   0  0  0  0  0  0  0  0  0  0  0  0
  1  2  2  0
  2  3  1  0
  3  4  1  0
  4  5  1  0
  5  6  2  0
  5  7  1  0
  7  8  1  0
  8  9  1  0
  9 10  1  0
 10 11  1  0
 11 12  1  0
 12 13  1  0
 13 14  1  0
 14 15  1  0
 15 16  1  0
 16 17  1  0
 17 18  1  0
 18 19  1  0
  2 20  1  0
 20 21  2  0
 21 22  1  0
 22 23  2  0
 23 24  1  0
 24 25  2  0
 25 26  1  0
 25 27  1  0
 27 28  2  0
 28 29  1  0
 29 30  2  0
 12  7  1  0
 19 15  1  0
 30 20  1  0
 29 23  1  0
  3 31  1  0
  4 32  1  0
  4 33  1  0
  8 34  1  0
  8 35  1  0
  9 36  1  0
  9 37  1  0
 10 38  1  0
 10 39  1  0
 11 40  1  0
 11 41  1  0
 12 42  1  6
 13 43  1  0
 13 44  1  0
 14 45  1  0
 15 46  1  0
 16 47  1  0
 16 48  1  0
 17 49  1  0
 17 50  1  0
 18 51  1  0
 18 52  1  0
 19 53  1  0
 19 54  1  0
 21 55  1  0
 22 56  1  0
 24 57  1  0
 27 58  1  0
 28 59  1  0
M  END
>  <smiles>  (24) 
O=C(NCC(=O)N1CCCC[C@H]1CNC1CCCC1)c1ccc2cc(Cl)ccc2n1

>  <score_type>  (24) 
oracle

>  <origin>  (24) 
autodockgpu

>  <m_score__min__energy>  (24) 
-9.1099999999999994

>  <m_primary>  (24) 
energy

>  <rmsd>  (24) 
2.2709988613584224

>  <m_score__min__rmsd>  (24) 
2.2709988613584224

>  <meeko>  (24) 
{"free_energy": -8.14, "intermolecular_energy": -10.23, "internal_energy": -1.99, "cluster_size": 38, "cluster_id": 1, "rank_in_cluster": 22}

>  <energy>  (24) 
-8.12

>  <cluster_rmsd>  (24) 
1.05

>  <cluster>  (24) 
1

$$$$

     RDKit          3D

 59 62  0  0  0  0  0  0  0  0999 V2000
  139.4140   72.4760  220.4770 O   0  0  0  0  0  0  0  0  0  0  0  0
  140.1000   72.6340  221.5230 C   0  0  0  0  0  0  0  0  0  0  0  0
  141.1110   73.6680  221.5870 N   0  0  0  0  0  0  0  0  0  0  0  0
  141.3890   74.5520  220.5030 C   0  0  0  0  0  0  0  0  0  0  0  0
  140.7820   75.8750  220.4450 C   0  0  0  0  0  0  0  0  0  0  0  0
  141.5810   76.7650  219.9150 O   0  0  0  0  0  0  0  0  0  0  0  0
  139.5390   76.3610  220.8390 N   0  0  0  0  0  0  0  0  0  0  0  0
  138.3030   75.5430  220.7470 C   0  0  0  0  0  0  0  0  0  0  0  0
  137.3570   75.7280  221.8820 C   0  0  0  0  0  0  0  0  0  0  0  0
  137.3910   77.0210  222.6080 C   0  0  0  0  0  0  0  0  0  0  0  0
  138.8000   77.5540  222.7610 C   0  0  0  0  0  0  0  0  0  0  0  0
  139.3060   77.7050  221.3340 C   0  0  1  0  0  0  0  0  0  0  0  0
  140.4240   78.6570  221.2240 C   0  0  0  0  0  0  0  0  0  0  0  0
  141.4720   78.3520  222.1860 N   0  0  0  0  0  0  0  0  0  0  0  0
  142.4200   79.3920  222.4040 C   0  0  0  0  0  0  0  0  0  0  0  0
  142.5340   79.8970  223.8040 C   0  0  0  0  0  0  0  0  0  0  0  0
  141.9670   81.3150  223.8320 C   0  0  0  0  0  0  0  0  0  0  0  0
  141.0600   81.3580  222.6460 C   0  0  0  0  0  0  0  0  0  0  0  0
  141.9030   80.6010  221.6100 C   0  0  0  0  0  0  0  0  0  0  0  0
  139.9060   71.7920  222.7020 C   0  0  0  0  0  0  0  0  0  0  0  0
  139.0200   70.7430  222.6580 C   0  0  0  0  0  0  0  0  0  0  0  0
  138.8640   69.9660  223.8070 C   0  0  0  0  0  0  0  0  0  0  0  0
  139.5690   70.2250  224.9640 C   0  0  0  0  0  0  0  0  0  0  0  0
  139.4300   69.4680  226.1130 C   0  0  0  0  0  0  0  0  0  0  0  0
  140.1840   69.8020  227.2420 C   0  0  0  0  0  0  0  0  0  0  0  0
  140.0330   68.8670  228.7110 Cl  0  0  0  0  0  0  0  0  0  0  0  0
  141.0660   70.8780  227.2220 C   0  0  0  0  0  0  0  0  0  0  0  0
  141.2060   71.6420  226.0630 C   0  0  0  0  0  0  0  0  0  0  0  0
  140.4510   71.2920  224.9640 C   0  0  0  0  0  0  0  0  0  0  0  0
  140.5760   72.0170  223.8440 N   0  0  0  0  0  0  0  0  0  0  0  0
  141.6570   73.7480  222.4970 H   0  0  0  0  0  0  0  0  0  0  0  0
  142.4782   74.7059  220.4952 H   0  0  0  0  0  0  0  0  0  0  0  0
  140.9334   74.0366  219.6447 H   0  0  0  0  0  0  0  0  0  0  0  0
  137.7810   75.8118  219.8168 H   0  0  0  0  0  0  0  0  0  0  0  0
  138.6208   74.4902  220.7716 H   0  0  0  0  0  0  0  0  0  0  0  0
  136.3391   75.6018  221.4844 H   0  0  0  0  0  0  0  0  0  0  0  0
  137.6713   74.9834  222.6282 H   0  0  0  0  0  0  0  0  0  0  0  0
  136.7927   77.7564  222.0501 H   0  0  0  0  0  0  0  0  0  0  0  0
  136.9820   76.8536  223.6153 H   0  0  0  0  0  0  0  0  0  0  0  0
  138.7945   78.5256  223.2767 H   0  0  0  0  0  0  0  0  0  0  0  0
  139.4364   76.8885  223.3627 H   0  0  0  0  0  0  0  0  0  0  0  0
  138.5655   78.1828  220.6757 H   0  0  0  0  0  0  0  0  0  0  0  0
  140.8427   78.6028  220.2082 H   0  0  0  0  0  0  0  0  0  0  0  0
  140.0427   79.6674  221.4333 H   0  0  0  0  0  0  0  0  0  0  0  0
  141.9030   77.4500  221.9620 H   0  0  0  0  0  0  0  0  0  0  0  0
  143.3977   78.9748  222.1211 H   0  0  0  0  0  0  0  0  0  0  0  0
  141.9600   79.2502  224.4838 H   0  0  0  0  0  0  0  0  0  0  0  0
  143.5843   79.8948  224.1308 H   0  0  0  0  0  0  0  0  0  0  0  0
  141.4063   81.4948  224.7611 H   0  0  0  0  0  0  0  0  0  0  0  0
  142.7495   82.0874  223.7981 H   0  0  0  0  0  0  0  0  0  0  0  0
  140.1079   80.8447  222.8459 H   0  0  0  0  0  0  0  0  0  0  0  0
  140.7621   82.3710  222.3376 H   0  0  0  0  0  0  0  0  0  0  0  0
  141.2870   80.2800  220.7571 H   0  0  0  0  0  0  0  0  0  0  0  0
  142.7084   81.2117  221.1760 H   0  0  0  0  0  0  0  0  0  0  0  0
  138.4500   70.5218  221.7436 H   0  0  0  0  0  0  0  0  0  0  0  0
  138.1582   69.1225  223.7893 H   0  0  0  0  0  0  0  0  0  0  0  0
  138.7359   68.6150  226.1383 H   0  0  0  0  0  0  0  0  0  0  0  0
  141.6523   71.1260  228.1191 H   0  0  0  0  0  0  0  0  0  0  0  0
  141.8972   72.4969  226.0273 H   0  0  0  0  0  0  0  0  0  0  0  0
  1  2  2  0
  2  3  1  0
  3  4  1  0
  4  5  1  0
  5  6  2  0
  5  7  1  0
  7  8  1  0
  8  9  1  0
  9 10  1  0
 10 11  1  0
 11 12  1  0
 12 13  1  0
 13 14  1  0
 14 15  1  0
 15 16  1  0
 16 17  1  0
 17 18  1  0
 18 19  1  0
  2 20  1  0
 20 21  2  0
 21 22  1  0
 22 23  2  0
 23 24  1  0
 24 25  2  0
 25 26  1  0
 25 27  1  0
 27 28  2  0
 28 29  1  0
 29 30  2  0
 12  7  1  0
 19 15  1  0
 30 20  1  0
 29 23  1  0
  3 31  1  0
  4 32  1  0
  4 33  1  0
  8 34  1  0
  8 35  1  0
  9 36  1  0
  9 37  1  0
 10 38  1  0
 10 39  1  0
 11 40  1  0
 11 41  1  0
 12 42  1  6
 13 43  1  0
 13 44  1  0
 14 45  1  0
 15 46  1  0
 16 47  1  0
 16 48  1  0
 17 49  1  0
 17 50  1  0
 18 51  1  0
 18 52  1  0
 19 53  1  0
 19 54  1  0
 21 55  1  0
 22 56  1  0
 24 57  1  0
 27 58  1  0
 28 59  1  0
M  END
>  <smiles>  (25) 
O=C(NCC(=O)N1CCCC[C@H]1CNC1CCCC1)c1ccc2cc(Cl)ccc2n1

>  <score_type>  (25) 
oracle

>  <origin>  (25) 
autodockgpu

>  <m_score__min__energy>  (25) 
-9.1099999999999994

>  <m_primary>  (25) 
energy

>  <rmsd>  (25) 
3.039158793903827

>  <m_score__min__rmsd>  (25) 
3.039158793903827

>  <meeko>  (25) 
{"free_energy": -7.72, "intermolecular_energy": -9.81, "internal_energy": -2.35, "cluster_size": 38, "cluster_id": 1, "rank_in_cluster": 28}

>  <energy>  (25) 
-8.09

>  <cluster_rmsd>  (25) 
1.38

>  <cluster>  (25) 
1

$$$$

     RDKit          3D

 59 62  0  0  0  0  0  0  0  0999 V2000
  141.0260   72.6270  221.0320 O   0  0  0  0  0  0  0  0  0  0  0  0
  140.2640   72.7740  222.0260 C   0  0  0  0  0  0  0  0  0  0  0  0
  139.4310   73.9510  222.1430 N   0  0  0  0  0  0  0  0  0  0  0  0
  139.4140   74.9930  221.1690 C   0  0  0  0  0  0  0  0  0  0  0  0
  140.5870   75.8300  220.9520 C   0  0  0  0  0  0  0  0  0  0  0  0
  141.2720   76.0190  222.0500 O   0  0  0  0  0  0  0  0  0  0  0  0
  141.1040   76.4540  219.8200 N   0  0  0  0  0  0  0  0  0  0  0  0
  140.6510   77.7980  219.3800 C   0  0  0  0  0  0  0  0  0  0  0  0
  141.7330   78.6640  218.8380 C   0  0  0  0  0  0  0  0  0  0  0  0
  142.9190   78.0020  218.2430 C   0  0  0  0  0  0  0  0  0  0  0  0
  143.3190   76.7550  219.0040 C   0  0  0  0  0  0  0  0  0  0  0  0
  142.0900   75.8600  218.9380 C   0  0  1  0  0  0  0  0  0  0  0  0
  142.4090   74.4390  219.1570 C   0  0  0  0  0  0  0  0  0  0  0  0
  143.0740   74.2410  220.4360 N   0  0  0  0  0  0  0  0  0  0  0  0
  143.8550   73.0540  220.5390 C   0  0  0  0  0  0  0  0  0  0  0  0
  145.1860   73.1960  221.2010 C   0  0  0  0  0  0  0  0  0  0  0  0
  146.2570   73.0130  220.1270 C   0  0  0  0  0  0  0  0  0  0  0  0
  145.5450   73.3390  218.8560 C   0  0  0  0  0  0  0  0  0  0  0  0
  144.1940   72.6510  219.0970 C   0  0  0  0  0  0  0  0  0  0  0  0
  140.1900   71.7740  223.0890 C   0  0  0  0  0  0  0  0  0  0  0  0
  139.6360   70.5430  222.8360 C   0  0  0  0  0  0  0  0  0  0  0  0
  139.5840   69.6180  223.8810 C   0  0  0  0  0  0  0  0  0  0  0  0
  140.0680   69.9110  225.1390 C   0  0  0  0  0  0  0  0  0  0  0  0
  140.0250   69.0110  226.1880 C   0  0  0  0  0  0  0  0  0  0  0  0
  140.5380   69.3920  227.4310 C   0  0  0  0  0  0  0  0  0  0  0  0
  140.5010   68.2780  228.7780 Cl  0  0  0  0  0  0  0  0  0  0  0  0
  141.0870   70.6560  227.6230 C   0  0  0  0  0  0  0  0  0  0  0  0
  141.1300   71.5640  226.5650 C   0  0  0  0  0  0  0  0  0  0  0  0
  140.6170   71.1640  225.3500 C   0  0  0  0  0  0  0  0  0  0  0  0
  140.6520   72.0270  224.3250 N   0  0  0  0  0  0  0  0  0  0  0  0
  138.8130   74.0160  223.0070 H   0  0  0  0  0  0  0  0  0  0  0  0
  139.1853   74.5169  220.2041 H   0  0  0  0  0  0  0  0  0  0  0  0
  138.6812   75.7017  221.5821 H   0  0  0  0  0  0  0  0  0  0  0  0
  139.8911   77.6653  218.5958 H   0  0  0  0  0  0  0  0  0  0  0  0
  140.2602   78.3060  220.2740 H   0  0  0  0  0  0  0  0  0  0  0  0
  141.2857   79.2975  218.0579 H   0  0  0  0  0  0  0  0  0  0  0  0
  142.1261   79.1966  219.7165 H   0  0  0  0  0  0  0  0  0  0  0  0
  142.6860   77.7240  217.2045 H   0  0  0  0  0  0  0  0  0  0  0  0
  143.7597   78.7100  218.2884 H   0  0  0  0  0  0  0  0  0  0  0  0
  144.1815   76.2674  218.5262 H   0  0  0  0  0  0  0  0  0  0  0  0
  143.6224   76.9745  220.0383 H   0  0  0  0  0  0  0  0  0  0  0  0
  141.6556   75.8185  217.9283 H   0  0  0  0  0  0  0  0  0  0  0  0
  141.4766   73.8555  219.1430 H   0  0  0  0  0  0  0  0  0  0  0  0
  143.0862   74.1063  218.3566 H   0  0  0  0  0  0  0  0  0  0  0  0
  142.4030   74.3520  221.2020 H   0  0  0  0  0  0  0  0  0  0  0  0
  143.2593   72.3507  221.1394 H   0  0  0  0  0  0  0  0  0  0  0  0
  145.2753   74.1945  221.6537 H   0  0  0  0  0  0  0  0  0  0  0  0
  145.3041   72.4457  221.9967 H   0  0  0  0  0  0  0  0  0  0  0  0
  147.0993   73.7010  220.2921 H   0  0  0  0  0  0  0  0  0  0  0  0
  146.6897   72.0017  220.1252 H   0  0  0  0  0  0  0  0  0  0  0  0
  145.4283   74.4249  218.7246 H   0  0  0  0  0  0  0  0  0  0  0  0
  146.0668   73.0104  217.9451 H   0  0  0  0  0  0  0  0  0  0  0  0
  143.4320   73.0186  218.3940 H   0  0  0  0  0  0  0  0  0  0  0  0
  144.2290   71.5617  218.9477 H   0  0  0  0  0  0  0  0  0  0  0  0
  139.2445   70.2928  221.8389 H   0  0  0  0  0  0  0  0  0  0  0  0
  139.1443   68.6269  223.6955 H   0  0  0  0  0  0  0  0  0  0  0  0
  139.5931   68.0093  226.0461 H   0  0  0  0  0  0  0  0  0  0  0  0
  141.4867   70.9389  228.6080 H   0  0  0  0  0  0  0  0  0  0  0  0
  141.5599   72.5680  226.6963 H   0  0  0  0  0  0  0  0  0  0  0  0
  1  2  2  0
  2  3  1  0
  3  4  1  0
  4  5  1  0
  5  6  2  0
  5  7  1  0
  7  8  1  0
  8  9  1  0
  9 10  1  0
 10 11  1  0
 11 12  1  0
 12 13  1  0
 13 14  1  0
 14 15  1  0
 15 16  1  0
 16 17  1  0
 17 18  1  0
 18 19  1  0
  2 20  1  0
 20 21  2  0
 21 22  1  0
 22 23  2  0
 23 24  1  0
 24 25  2  0
 25 26  1  0
 25 27  1  0
 27 28  2  0
 28 29  1  0
 29 30  2  0
 12  7  1  0
 19 15  1  0
 30 20  1  0
 29 23  1  0
  3 31  1  0
  4 32  1  0
  4 33  1  0
  8 34  1  0
  8 35  1  0
  9 36  1  0
  9 37  1  0
 10 38  1  0
 10 39  1  0
 11 40  1  0
 11 41  1  0
 12 42  1  6
 13 43  1  0
 13 44  1  0
 14 45  1  0
 15 46  1  0
 16 47  1  0
 16 48  1  0
 17 49  1  0
 17 50  1  0
 18 51  1  0
 18 52  1  0
 19 53  1  0
 19 54  1  0
 21 55  1  0
 22 56  1  0
 24 57  1  0
 27 58  1  0
 28 59  1  0
M  END
>  <smiles>  (26) 
O=C(NCC(=O)N1CCCC[C@H]1CNC1CCCC1)c1ccc2cc(Cl)ccc2n1

>  <score_type>  (26) 
oracle

>  <origin>  (26) 
autodockgpu

>  <m_score__min__energy>  (26) 
-9.1099999999999994

>  <m_primary>  (26) 
energy

>  <rmsd>  (26) 
4.565486679352922

>  <m_score__min__rmsd>  (26) 
4.565486679352922

>  <meeko>  (26) 
{"free_energy": -7.84, "intermolecular_energy": -9.93, "internal_energy": -3.11, "cluster_size": 38, "cluster_id": 1, "rank_in_cluster": 27}

>  <energy>  (26) 
-7.98

>  <cluster_rmsd>  (26) 
1.66

>  <cluster>  (26) 
1

$$$$

     RDKit          3D

 59 62  0  0  0  0  0  0  0  0999 V2000
  140.5470   72.4050  220.7180 O   0  0  0  0  0  0  0  0  0  0  0  0
  140.0350   72.6790  221.8380 C   0  0  0  0  0  0  0  0  0  0  0  0
  139.4210   73.9690  222.0670 N   0  0  0  0  0  0  0  0  0  0  0  0
  139.3540   74.9870  221.0710 C   0  0  0  0  0  0  0  0  0  0  0  0
  140.4900   75.8640  220.8230 C   0  0  0  0  0  0  0  0  0  0  0  0
  141.3170   75.9050  221.8370 O   0  0  0  0  0  0  0  0  0  0  0  0
  140.8540   76.6520  219.7350 N   0  0  0  0  0  0  0  0  0  0  0  0
  140.1040   77.8760  219.3570 C   0  0  0  0  0  0  0  0  0  0  0  0
  140.9590   78.9980  218.8790 C   0  0  0  0  0  0  0  0  0  0  0  0
  142.2680   78.6600  218.2710 C   0  0  0  0  0  0  0  0  0  0  0  0
  142.9430   77.5000  218.9730 C   0  0  0  0  0  0  0  0  0  0  0  0
  141.9550   76.3500  218.8400 C   0  0  1  0  0  0  0  0  0  0  0  0
  142.5940   75.0320  218.9910 C   0  0  0  0  0  0  0  0  0  0  0  0
  143.5030   75.0140  220.1260 N   0  0  0  0  0  0  0  0  0  0  0  0
  143.8570   73.7200  220.6030 C   0  0  0  0  0  0  0  0  0  0  0  0
  145.2580   73.5590  221.0940 C   0  0  0  0  0  0  0  0  0  0  0  0
  145.9970   72.6660  220.1000 C   0  0  0  0  0  0  0  0  0  0  0  0
  145.2130   72.8160  218.8380 C   0  0  0  0  0  0  0  0  0  0  0  0
  143.7790   72.7890  219.3840 C   0  0  0  0  0  0  0  0  0  0  0  0
  140.0390   71.7170  222.9380 C   0  0  0  0  0  0  0  0  0  0  0  0
  139.5590   70.4450  222.7390 C   0  0  0  0  0  0  0  0  0  0  0  0
  139.5800   69.5580  223.8180 C   0  0  0  0  0  0  0  0  0  0  0  0
  140.0640   69.9270  225.0560 C   0  0  0  0  0  0  0  0  0  0  0  0
  140.0930   69.0660  226.1370 C   0  0  0  0  0  0  0  0  0  0  0  0
  140.6010   69.5230  227.3570 C   0  0  0  0  0  0  0  0  0  0  0  0
  140.6520   68.4610  228.7440 Cl  0  0  0  0  0  0  0  0  0  0  0  0
  141.0720   70.8250  227.4930 C   0  0  0  0  0  0  0  0  0  0  0  0
  141.0430   71.6950  226.4020 C   0  0  0  0  0  0  0  0  0  0  0  0
  140.5370   71.2180  225.2110 C   0  0  0  0  0  0  0  0  0  0  0  0
  140.5030   72.0430  224.1560 N   0  0  0  0  0  0  0  0  0  0  0  0
  139.0100   74.1370  223.0340 H   0  0  0  0  0  0  0  0  0  0  0  0
  139.1350   74.4807  220.1193 H   0  0  0  0  0  0  0  0  0  0  0  0
  138.5982   75.6757  221.4765 H   0  0  0  0  0  0  0  0  0  0  0  0
  139.3997   77.6137  218.5538 H   0  0  0  0  0  0  0  0  0  0  0  0
  139.6014   78.2306  220.2689 H   0  0  0  0  0  0  0  0  0  0  0  0
  140.3809   79.5528  218.1254 H   0  0  0  0  0  0  0  0  0  0  0  0
  141.2138   79.5592  219.7901 H   0  0  0  0  0  0  0  0  0  0  0  0
  142.1098   78.3919  217.2160 H   0  0  0  0  0  0  0  0  0  0  0  0
  142.9219   79.5393  218.3671 H   0  0  0  0  0  0  0  0  0  0  0  0
  143.8971   77.2518  218.4851 H   0  0  0  0  0  0  0  0  0  0  0  0
  143.1829   77.7273  220.0222 H   0  0  0  0  0  0  0  0  0  0  0  0
  141.5462   76.2633  217.8225 H   0  0  0  0  0  0  0  0  0  0  0  0
  141.8146   74.2710  219.1437 H   0  0  0  0  0  0  0  0  0  0  0  0
  143.1716   74.8190  218.0794 H   0  0  0  0  0  0  0  0  0  0  0  0
  143.1590   75.6380  220.8620 H   0  0  0  0  0  0  0  0  0  0  0  0
  143.1827   73.5144  221.4474 H   0  0  0  0  0  0  0  0  0  0  0  0
  145.7497   74.5412  221.1531 H   0  0  0  0  0  0  0  0  0  0  0  0
  145.2658   73.1084  222.0974 H   0  0  0  0  0  0  0  0  0  0  0  0
  147.0333   73.0078  219.9609 H   0  0  0  0  0  0  0  0  0  0  0  0
  146.0672   71.6211  220.4364 H   0  0  0  0  0  0  0  0  0  0  0  0
  145.4361   73.7678  218.3337 H   0  0  0  0  0  0  0  0  0  0  0  0
  145.4246   72.0503  218.0771 H   0  0  0  0  0  0  0  0  0  0  0  0
  143.0651   73.1711  218.6395 H   0  0  0  0  0  0  0  0  0  0  0  0
  143.4286   71.7765  219.6331 H   0  0  0  0  0  0  0  0  0  0  0  0
  139.1695   70.1341  221.7584 H   0  0  0  0  0  0  0  0  0  0  0  0
  139.1996   68.5356  223.6764 H   0  0  0  0  0  0  0  0  0  0  0  0
  139.7215   68.0353  226.0388 H   0  0  0  0  0  0  0  0  0  0  0  0
  141.4672   71.1687  228.4603 H   0  0  0  0  0  0  0  0  0  0  0  0
  141.4118   72.7277  226.4893 H   0  0  0  0  0  0  0  0  0  0  0  0
  1  2  2  0
  2  3  1  0
  3  4  1  0
  4  5  1  0
  5  6  2  0
  5  7  1  0
  7  8  1  0
  8  9  1  0
  9 10  1  0
 10 11  1  0
 11 12  1  0
 12 13  1  0
 13 14  1  0
 14 15  1  0
 15 16  1  0
 16 17  1  0
 17 18  1  0
 18 19  1  0
  2 20  1  0
 20 21  2  0
 21 22  1  0
 22 23  2  0
 23 24  1  0
 24 25  2  0
 25 26  1  0
 25 27  1  0
 27 28  2  0
 28 29  1  0
 29 30  2  0
 12  7  1  0
 19 15  1  0
 30 20  1  0
 29 23  1  0
  3 31  1  0
  4 32  1  0
  4 33  1  0
  8 34  1  0
  8 35  1  0
  9 36  1  0
  9 37  1  0
 10 38  1  0
 10 39  1  0
 11 40  1  0
 11 41  1  0
 12 42  1  6
 13 43  1  0
 13 44  1  0
 14 45  1  0
 15 46  1  0
 16 47  1  0
 16 48  1  0
 17 49  1  0
 17 50  1  0
 18 51  1  0
 18 52  1  0
 19 53  1  0
 19 54  1  0
 21 55  1  0
 22 56  1  0
 24 57  1  0
 27 58  1  0
 28 59  1  0
M  END
>  <smiles>  (27) 
O=C(NCC(=O)N1CCCC[C@H]1CNC1CCCC1)c1ccc2cc(Cl)ccc2n1

>  <score_type>  (27) 
oracle

>  <origin>  (27) 
autodockgpu

>  <m_score__min__energy>  (27) 
-9.1099999999999994

>  <m_primary>  (27) 
energy

>  <rmsd>  (27) 
4.466024504292574

>  <m_score__min__rmsd>  (27) 
4.466024504292574

>  <meeko>  (27) 
{"free_energy": -8.17, "intermolecular_energy": -10.26, "internal_energy": -2.63, "cluster_size": 38, "cluster_id": 1, "rank_in_cluster": 20}

>  <energy>  (27) 
-7.84

>  <cluster_rmsd>  (27) 
1.91

>  <cluster>  (27) 
1

$$$$

     RDKit          3D

 59 62  0  0  0  0  0  0  0  0999 V2000
  137.4860   77.3670  222.7870 O   0  0  0  0  0  0  0  0  0  0  0  0
  137.0010   76.2060  222.7210 C   0  0  0  0  0  0  0  0  0  0  0  0
  137.4840   75.2650  221.7330 N   0  0  0  0  0  0  0  0  0  0  0  0
  138.5110   75.5790  220.7960 C   0  0  0  0  0  0  0  0  0  0  0  0
  139.8460   75.9490  221.2480 C   0  0  0  0  0  0  0  0  0  0  0  0
  140.1450   75.4120  222.4030 O   0  0  0  0  0  0  0  0  0  0  0  0
  140.8410   76.7490  220.6950 N   0  0  0  0  0  0  0  0  0  0  0  0
  142.0930   76.1820  220.1330 C   0  0  0  0  0  0  0  0  0  0  0  0
  142.5810   76.8680  218.9050 C   0  0  0  0  0  0  0  0  0  0  0  0
  142.2060   78.2880  218.7090 C   0  0  0  0  0  0  0  0  0  0  0  0
  140.7920   78.5750  219.1690 C   0  0  0  0  0  0  0  0  0  0  0  0
  140.7900   78.1980  220.6440 C   0  0  1  0  0  0  0  0  0  0  0  0
  139.7070   78.8530  221.3970 C   0  0  0  0  0  0  0  0  0  0  0  0
  139.7500   78.4890  222.8050 N   0  0  0  0  0  0  0  0  0  0  0  0
  140.4430   79.4040  223.6480 C   0  0  0  0  0  0  0  0  0  0  0  0
  140.7480   80.7410  223.0600 C   0  0  0  0  0  0  0  0  0  0  0  0
  142.2600   80.8200  222.8520 C   0  0  0  0  0  0  0  0  0  0  0  0
  142.6840   79.3910  222.7810 C   0  0  0  0  0  0  0  0  0  0  0  0
  141.8240   78.7790  223.8970 C   0  0  0  0  0  0  0  0  0  0  0  0
  135.9450   75.7630  223.6290 C   0  0  0  0  0  0  0  0  0  0  0  0
  135.1110   76.6860  224.2130 C   0  0  0  0  0  0  0  0  0  0  0  0
  134.1170   76.2210  225.0760 C   0  0  0  0  0  0  0  0  0  0  0  0
  133.9570   74.8770  225.3480 C   0  0  0  0  0  0  0  0  0  0  0  0
  132.9800   74.3950  226.1990 C   0  0  0  0  0  0  0  0  0  0  0  0
  132.8910   73.0180  226.4190 C   0  0  0  0  0  0  0  0  0  0  0  0
  131.6670   72.3740  227.4880 Cl  0  0  0  0  0  0  0  0  0  0  0  0
  133.7660   72.1340  225.7960 C   0  0  0  0  0  0  0  0  0  0  0  0
  134.7530   72.6200  224.9370 C   0  0  0  0  0  0  0  0  0  0  0  0
  134.8190   73.9830  224.7380 C   0  0  0  0  0  0  0  0  0  0  0  0
  135.7620   74.4640  223.9160 N   0  0  0  0  0  0  0  0  0  0  0  0
  137.0310   74.3010  221.7290 H   0  0  0  0  0  0  0  0  0  0  0  0
  138.6313   74.6938  220.1541 H   0  0  0  0  0  0  0  0  0  0  0  0
  138.1440   76.5072  220.3337 H   0  0  0  0  0  0  0  0  0  0  0  0
  142.8775   76.2517  220.9009 H   0  0  0  0  0  0  0  0  0  0  0  0
  141.8666   75.1449  219.8447 H   0  0  0  0  0  0  0  0  0  0  0  0
  143.6798   76.8179  218.9164 H   0  0  0  0  0  0  0  0  0  0  0  0
  142.0889   76.3359  218.0776 H   0  0  0  0  0  0  0  0  0  0  0  0
  142.9002   78.9201  219.2822 H   0  0  0  0  0  0  0  0  0  0  0  0
  142.2617   78.5065  217.6324 H   0  0  0  0  0  0  0  0  0  0  0  0
  140.5490   79.6399  219.0391 H   0  0  0  0  0  0  0  0  0  0  0  0
  140.0415   78.0149  218.5920 H   0  0  0  0  0  0  0  0  0  0  0  0
  141.6714   78.5844  221.1767 H   0  0  0  0  0  0  0  0  0  0  0  0
  139.8149   79.9438  221.3050 H   0  0  0  0  0  0  0  0  0  0  0  0
  138.7440   78.5219  220.9810 H   0  0  0  0  0  0  0  0  0  0  0  0
  140.0680   77.5210  222.9080 H   0  0  0  0  0  0  0  0  0  0  0  0
  139.7910   79.5661  224.5190 H   0  0  0  0  0  0  0  0  0  0  0  0
  140.2303   80.8538  222.0960 H   0  0  0  0  0  0  0  0  0  0  0  0
  140.4076   81.5445  223.7298 H   0  0  0  0  0  0  0  0  0  0  0  0
  142.5000   81.3470  221.9168 H   0  0  0  0  0  0  0  0  0  0  0  0
  142.7711   81.3765  223.6514 H   0  0  0  0  0  0  0  0  0  0  0  0
  142.4511   78.9479  221.8015 H   0  0  0  0  0  0  0  0  0  0  0  0
  143.7657   79.2307  222.9002 H   0  0  0  0  0  0  0  0  0  0  0  0
  141.7840   77.6832  223.8099 H   0  0  0  0  0  0  0  0  0  0  0  0
  142.2154   78.9780  224.9056 H   0  0  0  0  0  0  0  0  0  0  0  0
  135.2234   77.7606  224.0064 H   0  0  0  0  0  0  0  0  0  0  0  0
  133.4417   76.9465  225.5531 H   0  0  0  0  0  0  0  0  0  0  0  0
  132.2827   75.0856  226.6958 H   0  0  0  0  0  0  0  0  0  0  0  0
  133.6801   71.0529  225.9802 H   0  0  0  0  0  0  0  0  0  0  0  0
  135.4552   71.9381  224.4352 H   0  0  0  0  0  0  0  0  0  0  0  0
  1  2  2  0
  2  3  1  0
  3  4  1  0
  4  5  1  0
  5  6  2  0
  5  7  1  0
  7  8  1  0
  8  9  1  0
  9 10  1  0
 10 11  1  0
 11 12  1  0
 12 13  1  0
 13 14  1  0
 14 15  1  0
 15 16  1  0
 16 17  1  0
 17 18  1  0
 18 19  1  0
  2 20  1  0
 20 21  2  0
 21 22  1  0
 22 23  2  0
 23 24  1  0
 24 25  2  0
 25 26  1  0
 25 27  1  0
 27 28  2  0
 28 29  1  0
 29 30  2  0
 12  7  1  0
 19 15  1  0
 30 20  1  0
 29 23  1  0
  3 31  1  0
  4 32  1  0
  4 33  1  0
  8 34  1  0
  8 35  1  0
  9 36  1  0
  9 37  1  0
 10 38  1  0
 10 39  1  0
 11 40  1  0
 11 41  1  0
 12 42  1  1
 13 43  1  0
 13 44  1  0
 14 45  1  0
 15 46  1  0
 16 47  1  0
 16 48  1  0
 17 49  1  0
 17 50  1  0
 18 51  1  0
 18 52  1  0
 19 53  1  0
 19 54  1  0
 21 55  1  0
 22 56  1  0
 24 57  1  0
 27 58  1  0
 28 59  1  0
M  END
>  <smiles>  (28) 
O=C(NCC(=O)N1CCCC[C@H]1CNC1CCCC1)c1ccc2cc(Cl)ccc2n1

>  <score_type>  (28) 
oracle

>  <origin>  (28) 
autodockgpu

>  <m_score__min__energy>  (28) 
-9.1099999999999994

>  <m_primary>  (28) 
energy

>  <rmsd>  (28) 
5.198704944922391

>  <m_score__min__rmsd>  (28) 
5.198704944922391

>  <meeko>  (28) 
{"free_energy": -6.48, "intermolecular_energy": -8.57, "internal_energy": -2.91, "cluster_size": 2, "cluster_id": 4, "rank_in_cluster": 2}

>  <energy>  (28) 
-7.72

>  <cluster_rmsd>  (28) 
1.48

>  <cluster>  (28) 
1

$$$$

     RDKit          3D

 59 62  0  0  0  0  0  0  0  0999 V2000
  140.1810   72.6350  220.7630 O   0  0  0  0  0  0  0  0  0  0  0  0
  139.9410   72.9350  221.9640 C   0  0  0  0  0  0  0  0  0  0  0  0
  139.6300   74.3000  222.3310 N   0  0  0  0  0  0  0  0  0  0  0  0
  139.5730   75.3660  221.3850 C   0  0  0  0  0  0  0  0  0  0  0  0
  140.5800   76.4200  221.3880 C   0  0  0  0  0  0  0  0  0  0  0  0
  140.6130   77.0710  222.5210 O   0  0  0  0  0  0  0  0  0  0  0  0
  141.4920   76.8550  220.4310 N   0  0  0  0  0  0  0  0  0  0  0  0
  142.6950   76.0650  220.0650 C   0  0  0  0  0  0  0  0  0  0  0  0
  143.0370   76.1000  218.6170 C   0  0  0  0  0  0  0  0  0  0  0  0
  142.6060   77.2820  217.8320 C   0  0  0  0  0  0  0  0  0  0  0  0
  141.2390   77.7810  218.2530 C   0  0  0  0  0  0  0  0  0  0  0  0
  141.3970   78.1200  219.7280 C   0  0  1  0  0  0  0  0  0  0  0  0
  140.3800   79.0720  220.2040 C   0  0  0  0  0  0  0  0  0  0  0  0
  140.6710   79.5210  221.5570 N   0  0  0  0  0  0  0  0  0  0  0  0
  141.9300   80.1670  221.7260 C   0  0  0  0  0  0  0  0  0  0  0  0
  142.8570   79.5510  222.7210 C   0  0  0  0  0  0  0  0  0  0  0  0
  142.9590   80.5050  223.9100 C   0  0  0  0  0  0  0  0  0  0  0  0
  141.7040   81.3110  223.8260 C   0  0  0  0  0  0  0  0  0  0  0  0
  141.6150   81.5500  222.3130 C   0  0  0  0  0  0  0  0  0  0  0  0
  139.9660   71.9300  223.0250 C   0  0  0  0  0  0  0  0  0  0  0  0
  139.5390   70.6500  222.7670 C   0  0  0  0  0  0  0  0  0  0  0  0
  139.5780   69.7210  223.8090 C   0  0  0  0  0  0  0  0  0  0  0  0
  140.0290   70.0580  225.0690 C   0  0  0  0  0  0  0  0  0  0  0  0
  140.0750   69.1550  226.1160 C   0  0  0  0  0  0  0  0  0  0  0  0
  140.5460   69.5810  227.3600 C   0  0  0  0  0  0  0  0  0  0  0  0
  140.6190   68.4660  228.7040 Cl  0  0  0  0  0  0  0  0  0  0  0  0
  140.9660   70.8930  227.5560 C   0  0  0  0  0  0  0  0  0  0  0  0
  140.9190   71.8050  226.5010 C   0  0  0  0  0  0  0  0  0  0  0  0
  140.4500   71.3580  225.2840 C   0  0  0  0  0  0  0  0  0  0  0  0
  140.3990   72.2230  224.2620 N   0  0  0  0  0  0  0  0  0  0  0  0
  139.4400   74.4870  223.3610 H   0  0  0  0  0  0  0  0  0  0  0  0
  139.6063   74.9029  220.3878 H   0  0  0  0  0  0  0  0  0  0  0  0
  138.6573   75.9019  221.6753 H   0  0  0  0  0  0  0  0  0  0  0  0
  143.5515   76.4609  220.6304 H   0  0  0  0  0  0  0  0  0  0  0  0
  142.4678   75.0166  220.3084 H   0  0  0  0  0  0  0  0  0  0  0  0
  144.1322   76.0350  218.5371 H   0  0  0  0  0  0  0  0  0  0  0  0
  142.4778   75.2593  218.1805 H   0  0  0  0  0  0  0  0  0  0  0  0
  143.3382   78.0899  217.9773 H   0  0  0  0  0  0  0  0  0  0  0  0
  142.5453   76.9819  216.7755 H   0  0  0  0  0  0  0  0  0  0  0  0
  140.9562   78.6742  217.6765 H   0  0  0  0  0  0  0  0  0  0  0  0
  140.4485   77.0367  218.0764 H   0  0  0  0  0  0  0  0  0  0  0  0
  142.3179   78.6862  219.9317 H   0  0  0  0  0  0  0  0  0  0  0  0
  140.3624   79.9434  219.5329 H   0  0  0  0  0  0  0  0  0  0  0  0
  139.4037   78.5652  220.2079 H   0  0  0  0  0  0  0  0  0  0  0  0
  140.5140   78.7590  222.2230 H   0  0  0  0  0  0  0  0  0  0  0  0
  142.4238   80.1300  220.7438 H   0  0  0  0  0  0  0  0  0  0  0  0
  142.4603   78.5800  223.0522 H   0  0  0  0  0  0  0  0  0  0  0  0
  143.8480   79.3839  222.2738 H   0  0  0  0  0  0  0  0  0  0  0  0
  143.0046   79.9477  224.8573 H   0  0  0  0  0  0  0  0  0  0  0  0
  143.8668   81.1255  223.8820 H   0  0  0  0  0  0  0  0  0  0  0  0
  140.8357   80.7477  224.1984 H   0  0  0  0  0  0  0  0  0  0  0  0
  141.7115   82.2290  224.4319 H   0  0  0  0  0  0  0  0  0  0  0  0
  140.6070   81.8820  222.0238 H   0  0  0  0  0  0  0  0  0  0  0  0
  142.2962   82.3372  221.9576 H   0  0  0  0  0  0  0  0  0  0  0  0
  139.1767   70.3650  221.7682 H   0  0  0  0  0  0  0  0  0  0  0  0
  139.2397   68.6915  223.6201 H   0  0  0  0  0  0  0  0  0  0  0  0
  139.7451   68.1157  225.9708 H   0  0  0  0  0  0  0  0  0  0  0  0
  141.3349   71.2111  228.5423 H   0  0  0  0  0  0  0  0  0  0  0  0
  141.2455   72.8467  226.6359 H   0  0  0  0  0  0  0  0  0  0  0  0
  1  2  2  0
  2  3  1  0
  3  4  1  0
  4  5  1  0
  5  6  2  0
  5  7  1  0
  7  8  1  0
  8  9  1  0
  9 10  1  0
 10 11  1  0
 11 12  1  0
 12 13  1  0
 13 14  1  0
 14 15  1  0
 15 16  1  0
 16 17  1  0
 17 18  1  0
 18 19  1  0
  2 20  1  0
 20 21  2  0
 21 22  1  0
 22 23  2  0
 23 24  1  0
 24 25  2  0
 25 26  1  0
 25 27  1  0
 27 28  2  0
 28 29  1  0
 29 30  2  0
 12  7  1  0
 19 15  1  0
 30 20  1  0
 29 23  1  0
  3 31  1  0
  4 32  1  0
  4 33  1  0
  8 34  1  0
  8 35  1  0
  9 36  1  0
  9 37  1  0
 10 38  1  0
 10 39  1  0
 11 40  1  0
 11 41  1  0
 12 42  1  6
 13 43  1  0
 13 44  1  0
 14 45  1  0
 15 46  1  0
 16 47  1  0
 16 48  1  0
 17 49  1  0
 17 50  1  0
 18 51  1  0
 18 52  1  0
 19 53  1  0
 19 54  1  0
 21 55  1  0
 22 56  1  0
 24 57  1  0
 27 58  1  0
 28 59  1  0
M  END
>  <smiles>  (29) 
O=C(NCC(=O)N1CCCC[C@H]1CNC1CCCC1)c1ccc2cc(Cl)ccc2n1

>  <score_type>  (29) 
oracle

>  <origin>  (29) 
autodockgpu

>  <m_score__min__energy>  (29) 
-9.1099999999999994

>  <m_primary>  (29) 
energy

>  <rmsd>  (29) 
2.549446691023058

>  <m_score__min__rmsd>  (29) 
2.549446691023058

>  <meeko>  (29) 
{"free_energy": -8.52, "intermolecular_energy": -10.61, "internal_energy": -2.44, "cluster_size": 38, "cluster_id": 1, "rank_in_cluster": 11}

>  <energy>  (29) 
-7.69

>  <cluster_rmsd>  (29) 
1.58

>  <cluster>  (29) 
1

$$$$

     RDKit          3D

 59 62  0  0  0  0  0  0  0  0999 V2000
  136.5330   78.1890  222.4730 O   0  0  0  0  0  0  0  0  0  0  0  0
  136.6860   77.0490  222.9890 C   0  0  0  0  0  0  0  0  0  0  0  0
  137.8950   76.2910  222.7470 N   0  0  0  0  0  0  0  0  0  0  0  0
  138.9630   76.7690  221.9340 C   0  0  0  0  0  0  0  0  0  0  0  0
  139.4010   78.1570  222.0170 C   0  0  0  0  0  0  0  0  0  0  0  0
  138.7440   78.9350  221.1970 O   0  0  0  0  0  0  0  0  0  0  0  0
  140.3680   78.7960  222.7890 N   0  0  0  0  0  0  0  0  0  0  0  0
  141.8160   78.4960  222.6520 C   0  0  0  0  0  0  0  0  0  0  0  0
  142.7040   79.6840  222.7770 C   0  0  0  0  0  0  0  0  0  0  0  0
  142.2130   80.8360  223.5700 C   0  0  0  0  0  0  0  0  0  0  0  0
  140.7290   81.0740  223.3750 C   0  0  0  0  0  0  0  0  0  0  0  0
  140.0760   79.7730  223.8200 C   0  0  1  0  0  0  0  0  0  0  0  0
  138.6610   79.9460  224.1910 C   0  0  0  0  0  0  0  0  0  0  0  0
  137.9490   80.7370  223.1990 N   0  0  0  0  0  0  0  0  0  0  0  0
  137.0990   81.7520  223.7250 C   0  0  0  0  0  0  0  0  0  0  0  0
  137.2140   82.0130  225.1900 C   0  0  0  0  0  0  0  0  0  0  0  0
  135.9270   81.5220  225.8500 C   0  0  0  0  0  0  0  0  0  0  0  0
  135.3920   80.5190  224.8820 C   0  0  0  0  0  0  0  0  0  0  0  0
  135.6660   81.2290  223.5490 C   0  0  0  0  0  0  0  0  0  0  0  0
  135.6630   76.4510  223.8450 C   0  0  0  0  0  0  0  0  0  0  0  0
  134.6910   77.2430  224.4080 C   0  0  0  0  0  0  0  0  0  0  0  0
  133.7350   76.6310  225.2210 C   0  0  0  0  0  0  0  0  0  0  0  0
  133.7440   75.2730  225.4640 C   0  0  0  0  0  0  0  0  0  0  0  0
  132.8070   74.6470  226.2650 C   0  0  0  0  0  0  0  0  0  0  0  0
  132.8930   73.2650  226.4580 C   0  0  0  0  0  0  0  0  0  0  0  0
  131.7240   72.4420  227.4640 Cl  0  0  0  0  0  0  0  0  0  0  0  0
  133.9020   72.5190  225.8580 C   0  0  0  0  0  0  0  0  0  0  0  0
  134.8480   73.1500  225.0500 C   0  0  0  0  0  0  0  0  0  0  0  0
  134.7410   74.5140  224.8760 C   0  0  0  0  0  0  0  0  0  0  0  0
  135.6430   75.1330  224.1020 N   0  0  0  0  0  0  0  0  0  0  0  0
  137.9610   75.3350  223.2100 H   0  0  0  0  0  0  0  0  0  0  0  0
  139.8398   76.1487  222.1714 H   0  0  0  0  0  0  0  0  0  0  0  0
  138.5441   76.7056  220.9189 H   0  0  0  0  0  0  0  0  0  0  0  0
  142.0936   77.7749  223.4349 H   0  0  0  0  0  0  0  0  0  0  0  0
  141.9603   78.1015  221.6354 H   0  0  0  0  0  0  0  0  0  0  0  0
  143.6426   79.3443  223.2392 H   0  0  0  0  0  0  0  0  0  0  0  0
  142.7918   80.0722  221.7515 H   0  0  0  0  0  0  0  0  0  0  0  0
  142.4033   80.6395  224.6355 H   0  0  0  0  0  0  0  0  0  0  0  0
  142.7471   81.7344  223.2271 H   0  0  0  0  0  0  0  0  0  0  0  0
  140.3846   81.9146  223.9953 H   0  0  0  0  0  0  0  0  0  0  0  0
  140.4789   81.3351  222.3361 H   0  0  0  0  0  0  0  0  0  0  0  0
  140.4919   79.3972  224.7665 H   0  0  0  0  0  0  0  0  0  0  0  0
  138.1869   78.9564  224.2682 H   0  0  0  0  0  0  0  0  0  0  0  0
  138.6161   80.4743  225.1548 H   0  0  0  0  0  0  0  0  0  0  0  0
  137.4790   80.1210  222.5290 H   0  0  0  0  0  0  0  0  0  0  0  0
  137.3728   82.6789  223.1997 H   0  0  0  0  0  0  0  0  0  0  0  0
  138.0773   81.4691  225.6011 H   0  0  0  0  0  0  0  0  0  0  0  0
  137.3601   83.0865  225.3804 H   0  0  0  0  0  0  0  0  0  0  0  0
  136.1390   81.0539  226.8226 H   0  0  0  0  0  0  0  0  0  0  0  0
  135.2166   82.3362  226.0559 H   0  0  0  0  0  0  0  0  0  0  0  0
  135.9322   79.5632  224.9498 H   0  0  0  0  0  0  0  0  0  0  0  0
  134.3386   80.2470  225.0444 H   0  0  0  0  0  0  0  0  0  0  0  0
  135.6026   80.5254  222.7058 H   0  0  0  0  0  0  0  0  0  0  0  0
  134.9391   82.0232  223.3232 H   0  0  0  0  0  0  0  0  0  0  0  0
  134.6669   78.3271  224.2235 H   0  0  0  0  0  0  0  0  0  0  0  0
  132.9511   77.2502  225.6816 H   0  0  0  0  0  0  0  0  0  0  0  0
  132.0051   75.2282  226.7437 H   0  0  0  0  0  0  0  0  0  0  0  0
  133.9540   71.4323  226.0205 H   0  0  0  0  0  0  0  0  0  0  0  0
  135.6538   72.5778  224.5669 H   0  0  0  0  0  0  0  0  0  0  0  0
  1  2  2  0
  2  3  1  0
  3  4  1  0
  4  5  1  0
  5  6  2  0
  5  7  1  0
  7  8  1  0
  8  9  1  0
  9 10  1  0
 10 11  1  0
 11 12  1  0
 12 13  1  0
 13 14  1  0
 14 15  1  0
 15 16  1  0
 16 17  1  0
 17 18  1  0
 18 19  1  0
  2 20  1  0
 20 21  2  0
 21 22  1  0
 22 23  2  0
 23 24  1  0
 24 25  2  0
 25 26  1  0
 25 27  1  0
 27 28  2  0
 28 29  1  0
 29 30  2  0
 12  7  1  0
 19 15  1  0
 30 20  1  0
 29 23  1  0
  3 31  1  0
  4 32  1  0
  4 33  1  0
  8 34  1  0
  8 35  1  0
  9 36  1  0
  9 37  1  0
 10 38  1  0
 10 39  1  0
 11 40  1  0
 11 41  1  0
 12 42  1  1
 13 43  1  0
 13 44  1  0
 14 45  1  0
 15 46  1  0
 16 47  1  0
 16 48  1  0
 17 49  1  0
 17 50  1  0
 18 51  1  0
 18 52  1  0
 19 53  1  0
 19 54  1  0
 21 55  1  0
 22 56  1  0
 24 57  1  0
 27 58  1  0
 28 59  1  0
M  END
>  <smiles>  (30) 
O=C(NCC(=O)N1CCCC[C@H]1CNC1CCCC1)c1ccc2cc(Cl)ccc2n1

>  <score_type>  (30) 
oracle

>  <origin>  (30) 
autodockgpu

>  <m_score__min__energy>  (30) 
-9.1099999999999994

>  <m_primary>  (30) 
energy

>  <rmsd>  (30) 
6.918999527411936

>  <m_score__min__rmsd>  (30) 
6.918999527411936

>  <meeko>  (30) 
{"free_energy": -6.18, "intermolecular_energy": -8.27, "internal_energy": -3.65, "cluster_size": 1, "cluster_id": 7, "rank_in_cluster": 1}

>  <energy>  (30) 
-7.68

>  <cluster_rmsd>  (30) 
1.87

>  <cluster>  (30) 
1

$$$$

     RDKit          3D

 59 62  0  0  0  0  0  0  0  0999 V2000
  140.6790   72.3700  220.8600 O   0  0  0  0  0  0  0  0  0  0  0  0
  140.0730   72.5950  221.9420 C   0  0  0  0  0  0  0  0  0  0  0  0
  139.3780   73.8480  222.1460 N   0  0  0  0  0  0  0  0  0  0  0  0
  139.3330   74.8820  221.1640 C   0  0  0  0  0  0  0  0  0  0  0  0
  140.2980   75.9730  221.1850 C   0  0  0  0  0  0  0  0  0  0  0  0
  141.3290   75.7100  221.9460 O   0  0  0  0  0  0  0  0  0  0  0  0
  140.3280   77.2180  220.5620 N   0  0  0  0  0  0  0  0  0  0  0  0
  140.7020   77.3800  219.1350 C   0  0  0  0  0  0  0  0  0  0  0  0
  139.9140   78.4120  218.4060 C   0  0  0  0  0  0  0  0  0  0  0  0
  139.3300   79.5220  219.1950 C   0  0  0  0  0  0  0  0  0  0  0  0
  138.8210   79.0590  220.5450 C   0  0  0  0  0  0  0  0  0  0  0  0
  140.0460   78.4730  221.2320 C   0  0  1  0  0  0  0  0  0  0  0  0
  139.9100   78.4300  222.6970 C   0  0  0  0  0  0  0  0  0  0  0  0
  141.2030   78.2530  223.3400 N   0  0  0  0  0  0  0  0  0  0  0  0
  141.8230   79.4490  223.8030 C   0  0  0  0  0  0  0  0  0  0  0  0
  140.9640   80.6700  223.8230 C   0  0  0  0  0  0  0  0  0  0  0  0
  141.4760   81.6130  222.7370 C   0  0  0  0  0  0  0  0  0  0  0  0
  142.1960   80.7090  221.7910 C   0  0  0  0  0  0  0  0  0  0  0  0
  142.9160   79.7770  222.7760 C   0  0  0  0  0  0  0  0  0  0  0  0
  140.0440   71.6130  223.0230 C   0  0  0  0  0  0  0  0  0  0  0  0
  139.5030   70.3690  222.8060 C   0  0  0  0  0  0  0  0  0  0  0  0
  139.4940   69.4610  223.8670 C   0  0  0  0  0  0  0  0  0  0  0  0
  140.0080   69.7830  225.1070 C   0  0  0  0  0  0  0  0  0  0  0  0
  140.0090   68.9000  226.1710 C   0  0  0  0  0  0  0  0  0  0  0  0
  140.5500   69.3100  227.3930 C   0  0  0  0  0  0  0  0  0  0  0  0
  140.5680   68.2190  228.7590 Cl  0  0  0  0  0  0  0  0  0  0  0  0
  141.0840   70.5850  227.5480 C   0  0  0  0  0  0  0  0  0  0  0  0
  141.0830   71.4760  226.4750 C   0  0  0  0  0  0  0  0  0  0  0  0
  140.5430   71.0470  225.2810 C   0  0  0  0  0  0  0  0  0  0  0  0
  140.5350   71.8930  224.2420 N   0  0  0  0  0  0  0  0  0  0  0  0
  138.8880   73.9770  223.0820 H   0  0  0  0  0  0  0  0  0  0  0  0
  139.4368   74.3902  220.1856 H   0  0  0  0  0  0  0  0  0  0  0  0
  138.3841   75.3910  221.3888 H   0  0  0  0  0  0  0  0  0  0  0  0
  141.7644   77.6612  219.0875 H   0  0  0  0  0  0  0  0  0  0  0  0
  140.4906   76.4187  218.6439 H   0  0  0  0  0  0  0  0  0  0  0  0
  140.5782   78.8597  217.6521 H   0  0  0  0  0  0  0  0  0  0  0  0
  139.0445   77.8671  218.0098 H   0  0  0  0  0  0  0  0  0  0  0  0
  140.1021   80.2896  219.3518 H   0  0  0  0  0  0  0  0  0  0  0  0
  138.4749   79.9234  218.6314 H   0  0  0  0  0  0  0  0  0  0  0  0
  138.4199   79.9060  221.1209 H   0  0  0  0  0  0  0  0  0  0  0  0
  138.0018   78.3303  220.4563 H   0  0  0  0  0  0  0  0  0  0  0  0
  140.9327   79.1157  221.1287 H   0  0  0  0  0  0  0  0  0  0  0  0
  139.4629   79.3733  223.0438 H   0  0  0  0  0  0  0  0  0  0  0  0
  139.2689   77.5765  222.9626 H   0  0  0  0  0  0  0  0  0  0  0  0
  141.8150   77.6810  222.7500 H   0  0  0  0  0  0  0  0  0  0  0  0
  142.1380   79.2466  224.8373 H   0  0  0  0  0  0  0  0  0  0  0  0
  139.9183   80.3962  223.6194 H   0  0  0  0  0  0  0  0  0  0  0  0
  141.0073   81.1565  224.8086 H   0  0  0  0  0  0  0  0  0  0  0  0
  140.6405   82.1216  222.2338 H   0  0  0  0  0  0  0  0  0  0  0  0
  142.1193   82.4114  223.1354 H   0  0  0  0  0  0  0  0  0  0  0  0
  141.4959   80.1555  221.1479 H   0  0  0  0  0  0  0  0  0  0  0  0
  142.8613   81.2262  221.0839 H   0  0  0  0  0  0  0  0  0  0  0  0
  143.2704   78.8661  222.2713 H   0  0  0  0  0  0  0  0  0  0  0  0
  143.8116   80.2303  223.2259 H   0  0  0  0  0  0  0  0  0  0  0  0
  139.0886   70.0959  221.8243 H   0  0  0  0  0  0  0  0  0  0  0  0
  139.0650   68.4604  223.7101 H   0  0  0  0  0  0  0  0  0  0  0  0
  139.5900   67.8893  226.0575 H   0  0  0  0  0  0  0  0  0  0  0  0
  141.5069   70.8904  228.5164 H   0  0  0  0  0  0  0  0  0  0  0  0
  141.4997   72.4888  226.5780 H   0  0  0  0  0  0  0  0  0  0  0  0
  1  2  2  0
  2  3  1  0
  3  4  1  0
  4  5  1  0
  5  6  2  0
  5  7  1  0
  7  8  1  0
  8  9  1  0
  9 10  1  0
 10 11  1  0
 11 12  1  0
 12 13  1  0
 13 14  1  0
 14 15  1  0
 15 16  1  0
 16 17  1  0
 17 18  1  0
 18 19  1  0
  2 20  1  0
 20 21  2  0
 21 22  1  0
 22 23  2  0
 23 24  1  0
 24 25  2  0
 25 26  1  0
 25 27  1  0
 27 28  2  0
 28 29  1  0
 29 30  2  0
 12  7  1  0
 19 15  1  0
 30 20  1  0
 29 23  1  0
  3 31  1  0
  4 32  1  0
  4 33  1  0
  8 34  1  0
  8 35  1  0
  9 36  1  0
  9 37  1  0
 10 38  1  0
 10 39  1  0
 11 40  1  0
 11 41  1  0
 12 42  1  1
 13 43  1  0
 13 44  1  0
 14 45  1  0
 15 46  1  0
 16 47  1  0
 16 48  1  0
 17 49  1  0
 17 50  1  0
 18 51  1  0
 18 52  1  0
 19 53  1  0
 19 54  1  0
 21 55  1  0
 22 56  1  0
 24 57  1  0
 27 58  1  0
 28 59  1  0
M  END
>  <smiles>  (31) 
O=C(NCC(=O)N1CCCC[C@H]1CNC1CCCC1)c1ccc2cc(Cl)ccc2n1

>  <score_type>  (31) 
oracle

>  <origin>  (31) 
autodockgpu

>  <m_score__min__energy>  (31) 
-9.1099999999999994

>  <m_primary>  (31) 
energy

>  <rmsd>  (31) 
2.252200520172466

>  <m_score__min__rmsd>  (31) 
2.252200520172466

>  <meeko>  (31) 
{"free_energy": -8.58, "intermolecular_energy": -10.67, "internal_energy": -2.35, "cluster_size": 38, "cluster_id": 1, "rank_in_cluster": 8}

>  <energy>  (31) 
-7.64

>  <cluster_rmsd>  (31) 
1.69

>  <cluster>  (31) 
1

$$$$

     RDKit          3D

 59 62  0  0  0  0  0  0  0  0999 V2000
  140.9970   72.7390  220.8680 O   0  0  0  0  0  0  0  0  0  0  0  0
  140.3060   72.9680  221.8980 C   0  0  0  0  0  0  0  0  0  0  0  0
  139.6090   74.2270  222.0470 N   0  0  0  0  0  0  0  0  0  0  0  0
  139.6530   75.2620  221.0670 C   0  0  0  0  0  0  0  0  0  0  0  0
  140.3620   76.5080  221.3290 C   0  0  0  0  0  0  0  0  0  0  0  0
  141.2730   76.7610  220.4240 O   0  0  0  0  0  0  0  0  0  0  0  0
  140.2560   77.4590  222.3400 N   0  0  0  0  0  0  0  0  0  0  0  0
  141.4440   77.9890  223.0570 C   0  0  0  0  0  0  0  0  0  0  0  0
  141.3700   79.4400  223.3800 C   0  0  0  0  0  0  0  0  0  0  0  0
  140.0270   80.0490  223.5290 C   0  0  0  0  0  0  0  0  0  0  0  0
  139.0310   79.4900  222.5330 C   0  0  0  0  0  0  0  0  0  0  0  0
  139.0000   77.9970  222.8270 C   0  0  1  0  0  0  0  0  0  0  0  0
  137.7680   77.3480  222.3470 C   0  0  0  0  0  0  0  0  0  0  0  0
  137.6060   76.0270  222.9340 N   0  0  0  0  0  0  0  0  0  0  0  0
  136.2760   75.5180  222.9310 C   0  0  0  0  0  0  0  0  0  0  0  0
  135.8220   74.8510  224.1870 C   0  0  0  0  0  0  0  0  0  0  0  0
  135.6840   73.3580  223.8930 C   0  0  0  0  0  0  0  0  0  0  0  0
  136.5760   73.1440  222.7150 C   0  0  0  0  0  0  0  0  0  0  0  0
  136.2600   74.3950  221.8830 C   0  0  0  0  0  0  0  0  0  0  0  0
  140.1810   71.9840  222.9710 C   0  0  0  0  0  0  0  0  0  0  0  0
  139.5480   70.7880  222.7350 C   0  0  0  0  0  0  0  0  0  0  0  0
  139.4480   69.8780  223.7890 C   0  0  0  0  0  0  0  0  0  0  0  0
  139.9630   70.1510  225.0400 C   0  0  0  0  0  0  0  0  0  0  0  0
  139.8750   69.2640  226.0980 C   0  0  0  0  0  0  0  0  0  0  0  0
  140.4240   69.6230  227.3320 C   0  0  0  0  0  0  0  0  0  0  0  0
  140.3310   68.5260  228.6900 Cl  0  0  0  0  0  0  0  0  0  0  0  0
  141.0530   70.8520  227.5060 C   0  0  0  0  0  0  0  0  0  0  0  0
  141.1420   71.7470  226.4400 C   0  0  0  0  0  0  0  0  0  0  0  0
  140.5920   71.3680  225.2330 C   0  0  0  0  0  0  0  0  0  0  0  0
  140.6700   72.2180  224.2000 N   0  0  0  0  0  0  0  0  0  0  0  0
  139.0460   74.3590  222.9400 H   0  0  0  0  0  0  0  0  0  0  0  0
  140.1109   74.8236  220.1680 H   0  0  0  0  0  0  0  0  0  0  0  0
  138.6036   75.5862  221.0071 H   0  0  0  0  0  0  0  0  0  0  0  0
  141.5542   77.4319  223.9991 H   0  0  0  0  0  0  0  0  0  0  0  0
  142.3020   77.8611  222.3806 H   0  0  0  0  0  0  0  0  0  0  0  0
  141.9060   79.5924  224.3284 H   0  0  0  0  0  0  0  0  0  0  0  0
  141.8045   79.9408  222.5023 H   0  0  0  0  0  0  0  0  0  0  0  0
  139.6593   79.8512  224.5467 H   0  0  0  0  0  0  0  0  0  0  0  0
  140.1231   81.1285  223.3407 H   0  0  0  0  0  0  0  0  0  0  0  0
  138.0373   79.9371  222.6833 H   0  0  0  0  0  0  0  0  0  0  0  0
  139.3121   79.7068  221.4919 H   0  0  0  0  0  0  0  0  0  0  0  0
  138.9372   77.7835  223.9042 H   0  0  0  0  0  0  0  0  0  0  0  0
  136.9040   77.9710  222.6215 H   0  0  0  0  0  0  0  0  0  0  0  0
  137.8354   77.2377  221.2546 H   0  0  0  0  0  0  0  0  0  0  0  0
  138.0500   75.9950  223.8570 H   0  0  0  0  0  0  0  0  0  0  0  0
  135.6212   76.3853  222.7606 H   0  0  0  0  0  0  0  0  0  0  0  0
  136.5627   75.0094  224.9847 H   0  0  0  0  0  0  0  0  0  0  0  0
  134.8612   75.2695  224.5212 H   0  0  0  0  0  0  0  0  0  0  0  0
  136.0176   72.7569  224.7517 H   0  0  0  0  0  0  0  0  0  0  0  0
  134.6439   73.0564  223.6999 H   0  0  0  0  0  0  0  0  0  0  0  0
  137.6352   73.1111  223.0100 H   0  0  0  0  0  0  0  0  0  0  0  0
  136.4125   72.1929  222.1870 H   0  0  0  0  0  0  0  0  0  0  0  0
  137.0271   74.5619  221.1125 H   0  0  0  0  0  0  0  0  0  0  0  0
  135.3076   74.3242  221.3371 H   0  0  0  0  0  0  0  0  0  0  0  0
  139.1318   70.5540  221.7440 H   0  0  0  0  0  0  0  0  0  0  0  0
  138.9441   68.9154  223.6174 H   0  0  0  0  0  0  0  0  0  0  0  0
  139.3800   68.2901  225.9698 H   0  0  0  0  0  0  0  0  0  0  0  0
  141.4800   71.1177  228.4843 H   0  0  0  0  0  0  0  0  0  0  0  0
  141.6348   72.7234  226.5579 H   0  0  0  0  0  0  0  0  0  0  0  0
  1  2  2  0
  2  3  1  0
  3  4  1  0
  4  5  1  0
  5  6  2  0
  5  7  1  0
  7  8  1  0
  8  9  1  0
  9 10  1  0
 10 11  1  0
 11 12  1  0
 12 13  1  0
 13 14  1  0
 14 15  1  0
 15 16  1  0
 16 17  1  0
 17 18  1  0
 18 19  1  0
  2 20  1  0
 20 21  2  0
 21 22  1  0
 22 23  2  0
 23 24  1  0
 24 25  2  0
 25 26  1  0
 25 27  1  0
 27 28  2  0
 28 29  1  0
 29 30  2  0
 12  7  1  0
 19 15  1  0
 30 20  1  0
 29 23  1  0
  3 31  1  0
  4 32  1  0
  4 33  1  0
  8 34  1  0
  8 35  1  0
  9 36  1  0
  9 37  1  0
 10 38  1  0
 10 39  1  0
 11 40  1  0
 11 41  1  0
 12 42  1  1
 13 43  1  0
 13 44  1  0
 14 45  1  0
 15 46  1  0
 16 47  1  0
 16 48  1  0
 17 49  1  0
 17 50  1  0
 18 51  1  0
 18 52  1  0
 19 53  1  0
 19 54  1  0
 21 55  1  0
 22 56  1  0
 24 57  1  0
 27 58  1  0
 28 59  1  0
M  END
>  <smiles>  (32) 
O=C(NCC(=O)N1CCCC[C@H]1CNC1CCCC1)c1ccc2cc(Cl)ccc2n1

>  <score_type>  (32) 
oracle

>  <origin>  (32) 
autodockgpu

>  <m_score__min__energy>  (32) 
-9.1099999999999994

>  <m_primary>  (32) 
energy

>  <rmsd>  (32) 
5.278636792355005

>  <m_score__min__rmsd>  (32) 
5.278636792355005

>  <meeko>  (32) 
{"free_energy": -7.94, "intermolecular_energy": -10.03, "internal_energy": -2.56, "cluster_size": 3, "cluster_id": 2, "rank_in_cluster": 1}

>  <energy>  (32) 
-7.58

>  <cluster_rmsd>  (32) 
1.29

>  <cluster>  (32) 
1

$$$$

     RDKit          3D

 59 62  0  0  0  0  0  0  0  0999 V2000
  139.1080   73.1160  220.5330 O   0  0  0  0  0  0  0  0  0  0  0  0
  140.0220   72.9450  221.3850 C   0  0  0  0  0  0  0  0  0  0  0  0
  141.2850   73.6390  221.2540 N   0  0  0  0  0  0  0  0  0  0  0  0
  141.5720   74.5380  220.1850 C   0  0  0  0  0  0  0  0  0  0  0  0
  140.7380   75.7100  219.9510 C   0  0  0  0  0  0  0  0  0  0  0  0
  141.2180   76.4810  219.0100 O   0  0  0  0  0  0  0  0  0  0  0  0
  139.5520   76.1540  220.5290 N   0  0  0  0  0  0  0  0  0  0  0  0
  138.2360   75.9940  219.8610 C   0  0  0  0  0  0  0  0  0  0  0  0
  137.1150   75.6610  220.7820 C   0  0  0  0  0  0  0  0  0  0  0  0
  137.2300   76.0900  222.1960 C   0  0  0  0  0  0  0  0  0  0  0  0
  138.6450   75.9600  222.7210 C   0  0  0  0  0  0  0  0  0  0  0  0
  139.4730   76.8460  221.8020 C   0  0  1  0  0  0  0  0  0  0  0  0
  140.7460   77.2660  222.4110 C   0  0  0  0  0  0  0  0  0  0  0  0
  141.4610   78.1940  221.5500 N   0  0  0  0  0  0  0  0  0  0  0  0
  141.3140   79.5710  221.8840 C   0  0  0  0  0  0  0  0  0  0  0  0
  142.5780   80.3480  222.0470 C   0  0  0  0  0  0  0  0  0  0  0  0
  142.7220   80.6900  223.5290 C   0  0  0  0  0  0  0  0  0  0  0  0
  141.8910   79.6560  224.2140 C   0  0  0  0  0  0  0  0  0  0  0  0
  140.6750   79.5970  223.2800 C   0  0  0  0  0  0  0  0  0  0  0  0
  139.8470   72.0510  222.5280 C   0  0  0  0  0  0  0  0  0  0  0  0
  139.0140   70.9630  222.4270 C   0  0  0  0  0  0  0  0  0  0  0  0
  138.8740   70.1360  223.5440 C   0  0  0  0  0  0  0  0  0  0  0  0
  139.5450   70.3850  224.7240 C   0  0  0  0  0  0  0  0  0  0  0  0
  139.4210   69.5790  225.8410 C   0  0  0  0  0  0  0  0  0  0  0  0
  140.1370   69.9060  226.9960 C   0  0  0  0  0  0  0  0  0  0  0  0
  140.0040   68.9090  228.4260 Cl  0  0  0  0  0  0  0  0  0  0  0  0
  140.9660   71.0220  227.0340 C   0  0  0  0  0  0  0  0  0  0  0  0
  141.0910   71.8350  225.9070 C   0  0  0  0  0  0  0  0  0  0  0  0
  140.3740   71.4910  224.7810 C   0  0  0  0  0  0  0  0  0  0  0  0
  140.4850   72.2630  223.6910 N   0  0  0  0  0  0  0  0  0  0  0  0
  142.0150   73.4490  222.0050 H   0  0  0  0  0  0  0  0  0  0  0  0
  142.5940   74.9087  220.3528 H   0  0  0  0  0  0  0  0  0  0  0  0
  141.3848   73.9232  219.2923 H   0  0  0  0  0  0  0  0  0  0  0  0
  137.9927   76.9372  219.3500 H   0  0  0  0  0  0  0  0  0  0  0  0
  138.3365   75.1448  219.1691 H   0  0  0  0  0  0  0  0  0  0  0  0
  136.2053   76.1239  220.3719 H   0  0  0  0  0  0  0  0  0  0  0  0
  137.1107   74.5619  220.8261 H   0  0  0  0  0  0  0  0  0  0  0  0
  136.9189   77.1423  222.2732 H   0  0  0  0  0  0  0  0  0  0  0  0
  136.5845   75.4359  222.8005 H   0  0  0  0  0  0  0  0  0  0  0  0
  138.7080   76.3119  223.7613 H   0  0  0  0  0  0  0  0  0  0  0  0
  138.9960   74.9175  222.7261 H   0  0  0  0  0  0  0  0  0  0  0  0
  138.9998   77.8231  221.6248 H   0  0  0  0  0  0  0  0  0  0  0  0
  140.5385   77.7569  223.3733 H   0  0  0  0  0  0  0  0  0  0  0  0
  141.3727   76.3739  222.5573 H   0  0  0  0  0  0  0  0  0  0  0  0
  141.2570   77.9910  220.5670 H   0  0  0  0  0  0  0  0  0  0  0  0
  140.7499   80.0245  221.0557 H   0  0  0  0  0  0  0  0  0  0  0  0
  143.4354   79.7432  221.7166 H   0  0  0  0  0  0  0  0  0  0  0  0
  142.5489   81.2649  221.4399 H   0  0  0  0  0  0  0  0  0  0  0  0
  143.7729   80.6221  223.8468 H   0  0  0  0  0  0  0  0  0  0  0  0
  142.4025   81.7164  223.7623 H   0  0  0  0  0  0  0  0  0  0  0  0
  142.4103   78.6875  224.2638 H   0  0  0  0  0  0  0  0  0  0  0  0
  141.6490   79.8879  225.2617 H   0  0  0  0  0  0  0  0  0  0  0  0
  140.0815   78.6886  223.4603 H   0  0  0  0  0  0  0  0  0  0  0  0
  139.9775   80.4356  223.4223 H   0  0  0  0  0  0  0  0  0  0  0  0
  138.4730   70.7493  221.4934 H   0  0  0  0  0  0  0  0  0  0  0  0
  138.2099   69.2613  223.4813 H   0  0  0  0  0  0  0  0  0  0  0  0
  138.7685   68.6936  225.8207 H   0  0  0  0  0  0  0  0  0  0  0  0
  141.5226   71.2635  227.9516 H   0  0  0  0  0  0  0  0  0  0  0  0
  141.7411   72.7223  225.9167 H   0  0  0  0  0  0  0  0  0  0  0  0
  1  2  2  0
  2  3  1  0
  3  4  1  0
  4  5  1  0
  5  6  2  0
  5  7  1  0
  7  8  1  0
  8  9  1  0
  9 10  1  0
 10 11  1  0
 11 12  1  0
 12 13  1  0
 13 14  1  0
 14 15  1  0
 15 16  1  0
 16 17  1  0
 17 18  1  0
 18 19  1  0
  2 20  1  0
 20 21  2  0
 21 22  1  0
 22 23  2  0
 23 24  1  0
 24 25  2  0
 25 26  1  0
 25 27  1  0
 27 28  2  0
 28 29  1  0
 29 30  2  0
 12  7  1  0
 19 15  1  0
 30 20  1  0
 29 23  1  0
  3 31  1  0
  4 32  1  0
  4 33  1  0
  8 34  1  0
  8 35  1  0
  9 36  1  0
  9 37  1  0
 10 38  1  0
 10 39  1  0
 11 40  1  0
 11 41  1  0
 12 42  1  6
 13 43  1  0
 13 44  1  0
 14 45  1  0
 15 46  1  0
 16 47  1  0
 16 48  1  0
 17 49  1  0
 17 50  1  0
 18 51  1  0
 18 52  1  0
 19 53  1  0
 19 54  1  0
 21 55  1  0
 22 56  1  0
 24 57  1  0
 27 58  1  0
 28 59  1  0
M  END
>  <smiles>  (33) 
O=C(NCC(=O)N1CCCC[C@H]1CNC1CCCC1)c1ccc2cc(Cl)ccc2n1

>  <score_type>  (33) 
oracle

>  <origin>  (33) 
autodockgpu

>  <m_score__min__energy>  (33) 
-9.1099999999999994

>  <m_primary>  (33) 
energy

>  <rmsd>  (33) 
3.1941325699370986

>  <m_score__min__rmsd>  (33) 
3.1941325699370986

>  <meeko>  (33) 
{"free_energy": -6.96, "intermolecular_energy": -9.05, "internal_energy": -2.88, "cluster_size": 38, "cluster_id": 1, "rank_in_cluster": 37}

>  <energy>  (33) 
-7.57

>  <cluster_rmsd>  (33) 
1.97

>  <cluster>  (33) 
1

$$$$

     RDKit          3D

 59 62  0  0  0  0  0  0  0  0999 V2000
  139.1860   71.8180  220.5670 O   0  0  0  0  0  0  0  0  0  0  0  0
  139.1250   72.2260  221.7580 C   0  0  0  0  0  0  0  0  0  0  0  0
  138.8100   73.6090  222.0440 N   0  0  0  0  0  0  0  0  0  0  0  0
  138.5540   74.5750  221.0260 C   0  0  0  0  0  0  0  0  0  0  0  0
  139.6240   75.0440  220.1560 C   0  0  0  0  0  0  0  0  0  0  0  0
  139.1690   75.5620  219.0450 O   0  0  0  0  0  0  0  0  0  0  0  0
  141.0110   75.0430  220.2820 N   0  0  0  0  0  0  0  0  0  0  0  0
  141.8220   73.8130  220.0980 C   0  0  0  0  0  0  0  0  0  0  0  0
  143.1210   74.0320  219.4050 C   0  0  0  0  0  0  0  0  0  0  0  0
  143.7430   75.3740  219.5050 C   0  0  0  0  0  0  0  0  0  0  0  0
  142.7140   76.4850  219.4560 C   0  0  0  0  0  0  0  0  0  0  0  0
  141.7990   76.2070  220.6400 C   0  0  1  0  0  0  0  0  0  0  0  0
  141.0600   77.4020  221.0810 C   0  0  0  0  0  0  0  0  0  0  0  0
  141.0380   77.5020  222.5320 N   0  0  0  0  0  0  0  0  0  0  0  0
  140.7040   78.7860  223.0490 C   0  0  0  0  0  0  0  0  0  0  0  0
  140.6600   79.9030  222.0590 C   0  0  0  0  0  0  0  0  0  0  0  0
  141.8400   80.8270  222.3540 C   0  0  0  0  0  0  0  0  0  0  0  0
  142.8050   79.9510  223.0810 C   0  0  0  0  0  0  0  0  0  0  0  0
  141.8510   79.1680  223.9950 C   0  0  0  0  0  0  0  0  0  0  0  0
  139.3650   71.3310  222.8880 C   0  0  0  0  0  0  0  0  0  0  0  0
  138.9820   70.0140  222.8140 C   0  0  0  0  0  0  0  0  0  0  0  0
  139.2280   69.1940  223.9170 C   0  0  0  0  0  0  0  0  0  0  0  0
  139.8380   69.6710  225.0590 C   0  0  0  0  0  0  0  0  0  0  0  0
  140.0910   68.8770  226.1620 C   0  0  0  0  0  0  0  0  0  0  0  0
  140.7130   69.4440  227.2780 C   0  0  0  0  0  0  0  0  0  0  0  0
  141.0490   68.4700  228.6900 Cl  0  0  0  0  0  0  0  0  0  0  0  0
  141.0770   70.7870  227.2910 C   0  0  0  0  0  0  0  0  0  0  0  0
  140.8220   71.5880  226.1780 C   0  0  0  0  0  0  0  0  0  0  0  0
  140.2070   71.0050  225.0900 C   0  0  0  0  0  0  0  0  0  0  0  0
  139.9560   71.7630  224.0140 N   0  0  0  0  0  0  0  0  0  0  0  0
  138.7770   73.8900  223.0700 H   0  0  0  0  0  0  0  0  0  0  0  0
  137.7835   74.1431  220.3705 H   0  0  0  0  0  0  0  0  0  0  0  0
  138.2969   75.4753  221.6034 H   0  0  0  0  0  0  0  0  0  0  0  0
  142.0290   73.3856  221.0902 H   0  0  0  0  0  0  0  0  0  0  0  0
  141.2329   73.1411  219.4566 H   0  0  0  0  0  0  0  0  0  0  0  0
  143.8384   73.3069  219.8169 H   0  0  0  0  0  0  0  0  0  0  0  0
  142.8867   73.9155  218.3366 H   0  0  0  0  0  0  0  0  0  0  0  0
  144.2916   75.4405  220.4561 H   0  0  0  0  0  0  0  0  0  0  0  0
  144.4175   75.4993  218.6452 H   0  0  0  0  0  0  0  0  0  0  0  0
  143.1972   77.4677  219.5599 H   0  0  0  0  0  0  0  0  0  0  0  0
  142.1682   76.5088  218.5012 H   0  0  0  0  0  0  0  0  0  0  0  0
  142.3591   75.9651  221.5553 H   0  0  0  0  0  0  0  0  0  0  0  0
  141.5465   78.2976  220.6671 H   0  0  0  0  0  0  0  0  0  0  0  0
  140.0233   77.3223  220.7219 H   0  0  0  0  0  0  0  0  0  0  0  0
  141.9040   77.1200  222.9240 H   0  0  0  0  0  0  0  0  0  0  0  0
  139.6978   78.6855  223.4820 H   0  0  0  0  0  0  0  0  0  0  0  0
  140.7429   79.5028  221.0378 H   0  0  0  0  0  0  0  0  0  0  0  0
  139.7100   80.4519  222.1373 H   0  0  0  0  0  0  0  0  0  0  0  0
  142.2822   81.2078  221.4216 H   0  0  0  0  0  0  0  0  0  0  0  0
  141.5502   81.7148  222.9352 H   0  0  0  0  0  0  0  0  0  0  0  0
  143.3443   79.2840  222.3923 H   0  0  0  0  0  0  0  0  0  0  0  0
  143.6015   80.4931  223.6117 H   0  0  0  0  0  0  0  0  0  0  0  0
  142.3413   78.2723  224.4040 H   0  0  0  0  0  0  0  0  0  0  0  0
  141.5177   79.7448  224.8703 H   0  0  0  0  0  0  0  0  0  0  0  0
  138.4952   69.6165  221.9112 H   0  0  0  0  0  0  0  0  0  0  0  0
  138.9267   68.1369  223.8743 H   0  0  0  0  0  0  0  0  0  0  0  0
  139.8069   67.8143  226.1614 H   0  0  0  0  0  0  0  0  0  0  0  0
  141.5653   71.2165  228.1782 H   0  0  0  0  0  0  0  0  0  0  0  0
  141.1027   72.6515  226.1683 H   0  0  0  0  0  0  0  0  0  0  0  0
  1  2  2  0
  2  3  1  0
  3  4  1  0
  4  5  1  0
  5  6  2  0
  5  7  1  0
  7  8  1  0
  8  9  1  0
  9 10  1  0
 10 11  1  0
 11 12  1  0
 12 13  1  0
 13 14  1  0
 14 15  1  0
 15 16  1  0
 16 17  1  0
 17 18  1  0
 18 19  1  0
  2 20  1  0
 20 21  2  0
 21 22  1  0
 22 23  2  0
 23 24  1  0
 24 25  2  0
 25 26  1  0
 25 27  1  0
 27 28  2  0
 28 29  1  0
 29 30  2  0
 12  7  1  0
 19 15  1  0
 30 20  1  0
 29 23  1  0
  3 31  1  0
  4 32  1  0
  4 33  1  0
  8 34  1  0
  8 35  1  0
  9 36  1  0
  9 37  1  0
 10 38  1  0
 10 39  1  0
 11 40  1  0
 11 41  1  0
 12 42  1  1
 13 43  1  0
 13 44  1  0
 14 45  1  0
 15 46  1  0
 16 47  1  0
 16 48  1  0
 17 49  1  0
 17 50  1  0
 18 51  1  0
 18 52  1  0
 19 53  1  0
 19 54  1  0
 21 55  1  0
 22 56  1  0
 24 57  1  0
 27 58  1  0
 28 59  1  0
M  END
>  <smiles>  (34) 
O=C(NCC(=O)N1CCCC[C@H]1CNC1CCCC1)c1ccc2cc(Cl)ccc2n1

>  <score_type>  (34) 
oracle

>  <origin>  (34) 
autodockgpu

>  <m_score__min__energy>  (34) 
-9.1099999999999994

>  <m_primary>  (34) 
energy

>  <rmsd>  (34) 
2.169357844520707

>  <m_score__min__rmsd>  (34) 
2.169357844520707

>  <meeko>  (34) 
{"free_energy": -8.77, "intermolecular_energy": -10.86, "internal_energy": -1.83, "cluster_size": 38, "cluster_id": 1, "rank_in_cluster": 3}

>  <energy>  (34) 
-7.42

>  <cluster_rmsd>  (34) 
1.84

>  <cluster>  (34) 
1

$$$$

     RDKit          3D

 59 62  0  0  0  0  0  0  0  0999 V2000
  137.9280   76.8320  221.1990 O   0  0  0  0  0  0  0  0  0  0  0  0
  137.5030   75.9660  222.0110 C   0  0  0  0  0  0  0  0  0  0  0  0
  138.0590   74.6300  222.0160 N   0  0  0  0  0  0  0  0  0  0  0  0
  139.0960   74.2160  221.1290 C   0  0  0  0  0  0  0  0  0  0  0  0
  140.4880   74.5530  221.3990 C   0  0  0  0  0  0  0  0  0  0  0  0
  141.0210   73.7730  222.3030 O   0  0  0  0  0  0  0  0  0  0  0  0
  141.3380   75.5300  220.8870 N   0  0  0  0  0  0  0  0  0  0  0  0
  142.3130   75.2430  219.8050 C   0  0  0  0  0  0  0  0  0  0  0  0
  142.4710   76.3420  218.8130 C   0  0  0  0  0  0  0  0  0  0  0  0
  142.1770   77.7250  219.2580 C   0  0  0  0  0  0  0  0  0  0  0  0
  140.9930   77.7830  220.2020 C   0  0  0  0  0  0  0  0  0  0  0  0
  141.3980   76.8960  221.3710 C   0  0  1  0  0  0  0  0  0  0  0  0
  140.6470   77.2000  222.6010 C   0  0  0  0  0  0  0  0  0  0  0  0
  139.9500   78.4720  222.4920 N   0  0  0  0  0  0  0  0  0  0  0  0
  140.2760   79.4330  223.4910 C   0  0  0  0  0  0  0  0  0  0  0  0
  140.3530   80.8540  223.0390 C   0  0  0  0  0  0  0  0  0  0  0  0
  141.8190   81.2790  223.0950 C   0  0  0  0  0  0  0  0  0  0  0  0
  142.5660   79.9880  223.0180 C   0  0  0  0  0  0  0  0  0  0  0  0
  141.7090   79.1040  223.9350 C   0  0  0  0  0  0  0  0  0  0  0  0
  136.4450   76.2700  222.9720 C   0  0  0  0  0  0  0  0  0  0  0  0
  135.9300   77.5420  223.0460 C   0  0  0  0  0  0  0  0  0  0  0  0
  134.9210   77.7900  223.9800 C   0  0  0  0  0  0  0  0  0  0  0  0
  134.4400   76.8010  224.8130 C   0  0  0  0  0  0  0  0  0  0  0  0
  133.4420   77.0240  225.7440 C   0  0  0  0  0  0  0  0  0  0  0  0
  133.0150   75.9650  226.5490 C   0  0  0  0  0  0  0  0  0  0  0  0
  131.7560   76.2120  227.7360 Cl  0  0  0  0  0  0  0  0  0  0  0  0
  133.5770   74.6980  226.4240 C   0  0  0  0  0  0  0  0  0  0  0  0
  134.5840   74.4720  225.4850 C   0  0  0  0  0  0  0  0  0  0  0  0
  134.9870   75.5350  224.7040 C   0  0  0  0  0  0  0  0  0  0  0  0
  135.9530   75.3320  223.7980 N   0  0  0  0  0  0  0  0  0  0  0  0
  137.6550   73.9460  222.7240 H   0  0  0  0  0  0  0  0  0  0  0  0
  139.0436   73.1185  221.0757 H   0  0  0  0  0  0  0  0  0  0  0  0
  138.8790   74.7892  220.2155 H   0  0  0  0  0  0  0  0  0  0  0  0
  143.2931   75.0524  220.2665 H   0  0  0  0  0  0  0  0  0  0  0  0
  141.9234   74.3750  219.2530 H   0  0  0  0  0  0  0  0  0  0  0  0
  143.5152   76.3240  218.4675 H   0  0  0  0  0  0  0  0  0  0  0  0
  141.7120   76.1319  218.0451 H   0  0  0  0  0  0  0  0  0  0  0  0
  143.0615   78.1267  219.7740 H   0  0  0  0  0  0  0  0  0  0  0  0
  141.9283   78.3207  218.3673 H   0  0  0  0  0  0  0  0  0  0  0  0
  140.8143   78.8146  220.5396 H   0  0  0  0  0  0  0  0  0  0  0  0
  140.0596   77.4488  219.7254 H   0  0  0  0  0  0  0  0  0  0  0  0
  142.4277   77.0884  221.7068 H   0  0  0  0  0  0  0  0  0  0  0  0
  139.9111   76.4019  222.7784 H   0  0  0  0  0  0  0  0  0  0  0  0
  141.3594   77.2641  223.4367 H   0  0  0  0  0  0  0  0  0  0  0  0
  138.9430   78.3130  222.3950 H   0  0  0  0  0  0  0  0  0  0  0  0
  139.4785   79.3669  224.2457 H   0  0  0  0  0  0  0  0  0  0  0  0
  139.9767   80.9407  222.0090 H   0  0  0  0  0  0  0  0  0  0  0  0
  139.7395   81.4984  223.6859 H   0  0  0  0  0  0  0  0  0  0  0  0
  142.0715   81.9294  222.2446 H   0  0  0  0  0  0  0  0  0  0  0  0
  142.0605   81.8576  223.9988 H   0  0  0  0  0  0  0  0  0  0  0  0
  142.5941   79.5973  221.9901 H   0  0  0  0  0  0  0  0  0  0  0  0
  143.6242   80.0562  223.3106 H   0  0  0  0  0  0  0  0  0  0  0  0
  141.9357   78.0386  223.7817 H   0  0  0  0  0  0  0  0  0  0  0  0
  141.8850   79.2902  225.0048 H   0  0  0  0  0  0  0  0  0  0  0  0
  136.3015   78.3419  222.3887 H   0  0  0  0  0  0  0  0  0  0  0  0
  134.4980   78.8028  224.0533 H   0  0  0  0  0  0  0  0  0  0  0  0
  132.9906   78.0216  225.8493 H   0  0  0  0  0  0  0  0  0  0  0  0
  133.2275   73.8752  227.0651 H   0  0  0  0  0  0  0  0  0  0  0  0
  135.0417   73.4782  225.3713 H   0  0  0  0  0  0  0  0  0  0  0  0
  1  2  2  0
  2  3  1  0
  3  4  1  0
  4  5  1  0
  5  6  2  0
  5  7  1  0
  7  8  1  0
  8  9  1  0
  9 10  1  0
 10 11  1  0
 11 12  1  0
 12 13  1  0
 13 14  1  0
 14 15  1  0
 15 16  1  0
 16 17  1  0
 17 18  1  0
 18 19  1  0
  2 20  1  0
 20 21  2  0
 21 22  1  0
 22 23  2  0
 23 24  1  0
 24 25  2  0
 25 26  1  0
 25 27  1  0
 27 28  2  0
 28 29  1  0
 29 30  2  0
 12  7  1  0
 19 15  1  0
 30 20  1  0
 29 23  1  0
  3 31  1  0
  4 32  1  0
  4 33  1  0
  8 34  1  0
  8 35  1  0
  9 36  1  0
  9 37  1  0
 10 38  1  0
 10 39  1  0
 11 40  1  0
 11 41  1  0
 12 42  1  1
 13 43  1  0
 13 44  1  0
 14 45  1  0
 15 46  1  0
 16 47  1  0
 16 48  1  0
 17 49  1  0
 17 50  1  0
 18 51  1  0
 18 52  1  0
 19 53  1  0
 19 54  1  0
 21 55  1  0
 22 56  1  0
 24 57  1  0
 27 58  1  0
 28 59  1  0
M  END
>  <smiles>  (35) 
O=C(NCC(=O)N1CCCC[C@H]1CNC1CCCC1)c1ccc2cc(Cl)ccc2n1

>  <score_type>  (35) 
oracle

>  <origin>  (35) 
autodockgpu

>  <m_score__min__energy>  (35) 
-9.1099999999999994

>  <m_primary>  (35) 
energy

>  <rmsd>  (35) 
5.572821966291138

>  <m_score__min__rmsd>  (35) 
5.572821966291138

>  <meeko>  (35) 
{"free_energy": -7.01, "intermolecular_energy": -9.09, "internal_energy": -3.03, "cluster_size": 2, "cluster_id": 4, "rank_in_cluster": 1}

>  <energy>  (35) 
-7.36

>  <cluster_rmsd>  (35) 
1.87

>  <cluster>  (35) 
1

$$$$

     RDKit          3D

 59 62  0  0  0  0  0  0  0  0999 V2000
  139.0900   72.0530  220.6500 O   0  0  0  0  0  0  0  0  0  0  0  0
  139.3040   72.4510  221.8270 C   0  0  0  0  0  0  0  0  0  0  0  0
  139.4140   73.8650  222.1150 N   0  0  0  0  0  0  0  0  0  0  0  0
  139.2900   74.8740  221.1150 C   0  0  0  0  0  0  0  0  0  0  0  0
  140.1790   76.0280  221.1060 C   0  0  0  0  0  0  0  0  0  0  0  0
  141.3210   75.7800  221.6930 O   0  0  0  0  0  0  0  0  0  0  0  0
  140.0450   77.3190  220.6020 N   0  0  0  0  0  0  0  0  0  0  0  0
  140.2200   77.6280  219.1600 C   0  0  0  0  0  0  0  0  0  0  0  0
  139.2770   78.6520  218.6320 C   0  0  0  0  0  0  0  0  0  0  0  0
  138.7250   79.6430  219.5860 C   0  0  0  0  0  0  0  0  0  0  0  0
  138.4260   79.0300  220.9390 C   0  0  0  0  0  0  0  0  0  0  0  0
  139.7660   78.4880  221.4140 C   0  0  1  0  0  0  0  0  0  0  0  0
  139.8230   78.3130  222.8750 C   0  0  0  0  0  0  0  0  0  0  0  0
  141.1970   78.1900  223.3370 N   0  0  0  0  0  0  0  0  0  0  0  0
  141.8000   79.4000  223.7850 C   0  0  0  0  0  0  0  0  0  0  0  0
  140.9280   80.6110  223.7790 C   0  0  0  0  0  0  0  0  0  0  0  0
  141.4380   81.5430  222.6820 C   0  0  0  0  0  0  0  0  0  0  0  0
  142.1750   80.6320  221.7560 C   0  0  0  0  0  0  0  0  0  0  0  0
  142.8980   79.7240  222.7610 C   0  0  0  0  0  0  0  0  0  0  0  0
  139.4470   71.5130  222.9390 C   0  0  0  0  0  0  0  0  0  0  0  0
  138.9900   70.2230  222.8120 C   0  0  0  0  0  0  0  0  0  0  0  0
  139.1450   69.3600  223.8980 C   0  0  0  0  0  0  0  0  0  0  0  0
  139.7370   69.7690  225.0760 C   0  0  0  0  0  0  0  0  0  0  0  0
  139.8990   68.9320  226.1640 C   0  0  0  0  0  0  0  0  0  0  0  0
  140.5100   69.4310  227.3190 C   0  0  0  0  0  0  0  0  0  0  0  0
  140.7320   68.4000  228.7130 Cl  0  0  0  0  0  0  0  0  0  0  0  0
  140.9510   70.7480  227.3840 C   0  0  0  0  0  0  0  0  0  0  0  0
  140.7870   71.5930  226.2860 C   0  0  0  0  0  0  0  0  0  0  0  0
  140.1820   71.0770  225.1600 C   0  0  0  0  0  0  0  0  0  0  0  0
  140.0180   71.8780  224.0980 N   0  0  0  0  0  0  0  0  0  0  0  0
  139.5970   74.1340  223.1280 H   0  0  0  0  0  0  0  0  0  0  0  0
  139.4181   74.3717  220.1448 H   0  0  0  0  0  0  0  0  0  0  0  0
  138.3108   75.3218  221.3399 H   0  0  0  0  0  0  0  0  0  0  0  0
  141.2460   77.9945  219.0087 H   0  0  0  0  0  0  0  0  0  0  0  0
  140.0122   76.6972  218.6118 H   0  0  0  0  0  0  0  0  0  0  0  0
  139.8071   79.2122  217.8477 H   0  0  0  0  0  0  0  0  0  0  0  0
  138.4026   78.0752  218.2963 H   0  0  0  0  0  0  0  0  0  0  0  0
  139.4571   80.4533  219.7182 H   0  0  0  0  0  0  0  0  0  0  0  0
  137.7795   80.0215  219.1704 H   0  0  0  0  0  0  0  0  0  0  0  0
  138.0452   79.7914  221.6356 H   0  0  0  0  0  0  0  0  0  0  0  0
  137.6538   78.2486  220.8836 H   0  0  0  0  0  0  0  0  0  0  0  0
  140.5859   79.2055  221.2624 H   0  0  0  0  0  0  0  0  0  0  0  0
  139.3583   79.1846  223.3591 H   0  0  0  0  0  0  0  0  0  0  0  0
  139.2837   77.3907  223.1366 H   0  0  0  0  0  0  0  0  0  0  0  0
  141.7590   77.6900  222.6410 H   0  0  0  0  0  0  0  0  0  0  0  0
  142.1091   79.2176  224.8248 H   0  0  0  0  0  0  0  0  0  0  0  0
  139.8870   80.3224  223.5717 H   0  0  0  0  0  0  0  0  0  0  0  0
  140.9584   81.1133  224.7571 H   0  0  0  0  0  0  0  0  0  0  0  0
  140.6009   82.0344  222.1646 H   0  0  0  0  0  0  0  0  0  0  0  0
  142.0693   82.3548  223.0725 H   0  0  0  0  0  0  0  0  0  0  0  0
  141.4859   80.0605  221.1169 H   0  0  0  0  0  0  0  0  0  0  0  0
  142.8398   81.1452  221.0456 H   0  0  0  0  0  0  0  0  0  0  0  0
  143.2665   78.8093  222.2736 H   0  0  0  0  0  0  0  0  0  0  0  0
  143.7850   80.1943  223.2104 H   0  0  0  0  0  0  0  0  0  0  0  0
  138.5154   69.8803  221.8807 H   0  0  0  0  0  0  0  0  0  0  0  0
  138.7850   68.3241  223.8127 H   0  0  0  0  0  0  0  0  0  0  0  0
  139.5525   67.8888  226.1221 H   0  0  0  0  0  0  0  0  0  0  0  0
  141.4290   71.1236  228.3008 H   0  0  0  0  0  0  0  0  0  0  0  0
  141.1296   72.6378  226.3178 H   0  0  0  0  0  0  0  0  0  0  0  0
  1  2  2  0
  2  3  1  0
  3  4  1  0
  4  5  1  0
  5  6  2  0
  5  7  1  0
  7  8  1  0
  8  9  1  0
  9 10  1  0
 10 11  1  0
 11 12  1  0
 12 13  1  0
 13 14  1  0
 14 15  1  0
 15 16  1  0
 16 17  1  0
 17 18  1  0
 18 19  1  0
  2 20  1  0
 20 21  2  0
 21 22  1  0
 22 23  2  0
 23 24  1  0
 24 25  2  0
 25 26  1  0
 25 27  1  0
 27 28  2  0
 28 29  1  0
 29 30  2  0
 12  7  1  0
 19 15  1  0
 30 20  1  0
 29 23  1  0
  3 31  1  0
  4 32  1  0
  4 33  1  0
  8 34  1  0
  8 35  1  0
  9 36  1  0
  9 37  1  0
 10 38  1  0
 10 39  1  0
 11 40  1  0
 11 41  1  0
 12 42  1  6
 13 43  1  0
 13 44  1  0
 14 45  1  0
 15 46  1  0
 16 47  1  0
 16 48  1  0
 17 49  1  0
 17 50  1  0
 18 51  1  0
 18 52  1  0
 19 53  1  0
 19 54  1  0
 21 55  1  0
 22 56  1  0
 24 57  1  0
 27 58  1  0
 28 59  1  0
M  END
>  <smiles>  (36) 
O=C(NCC(=O)N1CCCC[C@H]1CNC1CCCC1)c1ccc2cc(Cl)ccc2n1

>  <score_type>  (36) 
oracle

>  <origin>  (36) 
autodockgpu

>  <m_score__min__energy>  (36) 
-9.1099999999999994

>  <m_primary>  (36) 
energy

>  <rmsd>  (36) 
2.3291485120301765

>  <m_score__min__rmsd>  (36) 
2.3291485120301765

>  <meeko>  (36) 
{"free_energy": -8.16, "intermolecular_energy": -10.25, "internal_energy": -2.68, "cluster_size": 38, "cluster_id": 1, "rank_in_cluster": 21}

>  <energy>  (36) 
-7.36

>  <cluster_rmsd>  (36) 
1.87

>  <cluster>  (36) 
1

$$$$

     RDKit          3D

 59 62  0  0  0  0  0  0  0  0999 V2000
  140.1970   71.8870  220.8010 O   0  0  0  0  0  0  0  0  0  0  0  0
  139.9880   72.2590  221.9870 C   0  0  0  0  0  0  0  0  0  0  0  0
  139.7220   73.6500  222.2820 N   0  0  0  0  0  0  0  0  0  0  0  0
  139.6770   74.6640  221.2800 C   0  0  0  0  0  0  0  0  0  0  0  0
  140.7040   75.6960  221.2160 C   0  0  0  0  0  0  0  0  0  0  0  0
  141.4480   75.7230  222.2910 O   0  0  0  0  0  0  0  0  0  0  0  0
  141.0340   76.6380  220.2460 N   0  0  0  0  0  0  0  0  0  0  0  0
  141.7870   76.2800  219.0170 C   0  0  0  0  0  0  0  0  0  0  0  0
  141.3380   76.9940  217.7910 C   0  0  0  0  0  0  0  0  0  0  0  0
  140.6920   78.3180  217.9570 C   0  0  0  0  0  0  0  0  0  0  0  0
  139.7960   78.3680  219.1780 C   0  0  0  0  0  0  0  0  0  0  0  0
  140.7250   78.0520  220.3420 C   0  0  1  0  0  0  0  0  0  0  0  0
  140.2030   78.5330  221.6320 C   0  0  0  0  0  0  0  0  0  0  0  0
  141.1080   78.2010  222.7230 N   0  0  0  0  0  0  0  0  0  0  0  0
  141.4790   79.2920  223.5590 C   0  0  0  0  0  0  0  0  0  0  0  0
  140.6280   80.5150  223.4630 C   0  0  0  0  0  0  0  0  0  0  0  0
  141.4620   81.6080  222.7960 C   0  0  0  0  0  0  0  0  0  0  0  0
  142.5030   80.8480  222.0410 C   0  0  0  0  0  0  0  0  0  0  0  0
  142.8560   79.7540  223.0570 C   0  0  0  0  0  0  0  0  0  0  0  0
  140.0060   71.3140  223.1010 C   0  0  0  0  0  0  0  0  0  0  0  0
  139.5140   70.0420  222.9310 C   0  0  0  0  0  0  0  0  0  0  0  0
  139.5480   69.1720  224.0220 C   0  0  0  0  0  0  0  0  0  0  0  0
  140.0570   69.5560  225.2460 C   0  0  0  0  0  0  0  0  0  0  0  0
  140.0990   68.7110  226.3390 C   0  0  0  0  0  0  0  0  0  0  0  0
  140.6310   69.1830  227.5420 C   0  0  0  0  0  0  0  0  0  0  0  0
  140.7010   68.1420  228.9440 Cl  0  0  0  0  0  0  0  0  0  0  0  0
  141.1130   70.4840  227.6510 C   0  0  0  0  0  0  0  0  0  0  0  0
  141.0700   71.3370  226.5480 C   0  0  0  0  0  0  0  0  0  0  0  0
  140.5410   70.8460  225.3730 C   0  0  0  0  0  0  0  0  0  0  0  0
  140.4930   71.6550  224.3060 N   0  0  0  0  0  0  0  0  0  0  0  0
  139.5570   73.9000  223.3040 H   0  0  0  0  0  0  0  0  0  0  0  0
  139.6912   74.1467  220.3093 H   0  0  0  0  0  0  0  0  0  0  0  0
  138.7752   75.2334  221.5494 H   0  0  0  0  0  0  0  0  0  0  0  0
  142.8486   76.5157  219.1830 H   0  0  0  0  0  0  0  0  0  0  0  0
  141.6080   75.2092  218.8399 H   0  0  0  0  0  0  0  0  0  0  0  0
  142.2227   77.1387  217.1536 H   0  0  0  0  0  0  0  0  0  0  0  0
  140.5489   76.3526  217.3715 H   0  0  0  0  0  0  0  0  0  0  0  0
  141.4749   79.0838  218.0604 H   0  0  0  0  0  0  0  0  0  0  0  0
  140.0666   78.5023  217.0711 H   0  0  0  0  0  0  0  0  0  0  0  0
  139.3521   79.3677  219.2945 H   0  0  0  0  0  0  0  0  0  0  0  0
  138.9543   77.6631  219.1098 H   0  0  0  0  0  0  0  0  0  0  0  0
  141.6727   78.6075  220.2848 H   0  0  0  0  0  0  0  0  0  0  0  0
  140.0826   79.6254  221.5855 H   0  0  0  0  0  0  0  0  0  0  0  0
  139.2359   78.0439  221.8206 H   0  0  0  0  0  0  0  0  0  0  0  0
  141.9090   77.6720  222.3660 H   0  0  0  0  0  0  0  0  0  0  0  0
  141.4099   78.9189  224.5915 H   0  0  0  0  0  0  0  0  0  0  0  0
  139.7343   80.3033  222.8576 H   0  0  0  0  0  0  0  0  0  0  0  0
  140.2994   80.8360  224.4625 H   0  0  0  0  0  0  0  0  0  0  0  0
  140.8448   82.2111  222.1139 H   0  0  0  0  0  0  0  0  0  0  0  0
  141.8921   82.3169  223.5188 H   0  0  0  0  0  0  0  0  0  0  0  0
  142.0979   80.4214  221.1115 H   0  0  0  0  0  0  0  0  0  0  0  0
  143.3588   81.4548  221.7103 H   0  0  0  0  0  0  0  0  0  0  0  0
  143.3991   78.9275  222.5755 H   0  0  0  0  0  0  0  0  0  0  0  0
  143.5154   80.1074  223.8634 H   0  0  0  0  0  0  0  0  0  0  0  0
  139.1050   69.7187  221.9624 H   0  0  0  0  0  0  0  0  0  0  0  0
  139.1577   68.1505  223.9027 H   0  0  0  0  0  0  0  0  0  0  0  0
  139.7190   67.6815  226.2630 H   0  0  0  0  0  0  0  0  0  0  0  0
  141.5275   70.8394  228.6060 H   0  0  0  0  0  0  0  0  0  0  0  0
  141.4462   72.3686  226.6135 H   0  0  0  0  0  0  0  0  0  0  0  0
  1  2  2  0
  2  3  1  0
  3  4  1  0
  4  5  1  0
  5  6  2  0
  5  7  1  0
  7  8  1  0
  8  9  1  0
  9 10  1  0
 10 11  1  0
 11 12  1  0
 12 13  1  0
 13 14  1  0
 14 15  1  0
 15 16  1  0
 16 17  1  0
 17 18  1  0
 18 19  1  0
  2 20  1  0
 20 21  2  0
 21 22  1  0
 22 23  2  0
 23 24  1  0
 24 25  2  0
 25 26  1  0
 25 27  1  0
 27 28  2  0
 28 29  1  0
 29 30  2  0
 12  7  1  0
 19 15  1  0
 30 20  1  0
 29 23  1  0
  3 31  1  0
  4 32  1  0
  4 33  1  0
  8 34  1  0
  8 35  1  0
  9 36  1  0
  9 37  1  0
 10 38  1  0
 10 39  1  0
 11 40  1  0
 11 41  1  0
 12 42  1  6
 13 43  1  0
 13 44  1  0
 14 45  1  0
 15 46  1  0
 16 47  1  0
 16 48  1  0
 17 49  1  0
 17 50  1  0
 18 51  1  0
 18 52  1  0
 19 53  1  0
 19 54  1  0
 21 55  1  0
 22 56  1  0
 24 57  1  0
 27 58  1  0
 28 59  1  0
M  END
>  <smiles>  (37) 
O=C(NCC(=O)N1CCCC[C@H]1CNC1CCCC1)c1ccc2cc(Cl)ccc2n1

>  <score_type>  (37) 
oracle

>  <origin>  (37) 
autodockgpu

>  <m_score__min__energy>  (37) 
-9.1099999999999994

>  <m_primary>  (37) 
energy

>  <rmsd>  (37) 
1.862709379743045

>  <m_score__min__rmsd>  (37) 
1.862709379743045

>  <meeko>  (37) 
{"free_energy": -8.38, "intermolecular_energy": -10.47, "internal_energy": -2.25, "cluster_size": 38, "cluster_id": 1, "rank_in_cluster": 14}

>  <energy>  (37) 
-6.96

>  <cluster_rmsd>  (37) 
1.71

>  <cluster>  (37) 
1

$$$$

     RDKit          3D

 59 62  0  0  0  0  0  0  0  0999 V2000
  141.0850   73.8700  221.8770 O   0  0  0  0  0  0  0  0  0  0  0  0
  140.1430   73.0330  221.9090 C   0  0  0  0  0  0  0  0  0  0  0  0
  139.1490   73.0070  220.8570 N   0  0  0  0  0  0  0  0  0  0  0  0
  139.1690   73.9000  219.7460 C   0  0  0  0  0  0  0  0  0  0  0  0
  139.0960   75.3420  219.9450 C   0  0  0  0  0  0  0  0  0  0  0  0
  139.9500   75.9900  219.1960 O   0  0  0  0  0  0  0  0  0  0  0  0
  138.3070   76.1420  220.7650 N   0  0  0  0  0  0  0  0  0  0  0  0
  136.9220   76.5300  220.3970 C   0  0  0  0  0  0  0  0  0  0  0  0
  135.9670   76.5590  221.5400 C   0  0  0  0  0  0  0  0  0  0  0  0
  136.5160   76.8000  222.8950 C   0  0  0  0  0  0  0  0  0  0  0  0
  137.8520   76.1170  223.1010 C   0  0  0  0  0  0  0  0  0  0  0  0
  138.7500   76.7090  222.0250 C   0  0  1  0  0  0  0  0  0  0  0  0
  140.1820   76.5820  222.3450 C   0  0  0  0  0  0  0  0  0  0  0  0
  140.9970   77.3740  221.4360 N   0  0  0  0  0  0  0  0  0  0  0  0
  141.5940   78.5330  222.0080 C   0  0  0  0  0  0  0  0  0  0  0  0
  141.5410   78.6360  223.4970 C   0  0  0  0  0  0  0  0  0  0  0  0
  140.5800   79.7710  223.8480 C   0  0  0  0  0  0  0  0  0  0  0  0
  139.7130   79.8890  222.6380 C   0  0  0  0  0  0  0  0  0  0  0  0
  140.7510   79.7210  221.5210 C   0  0  0  0  0  0  0  0  0  0  0  0
  140.0150   72.0640  222.9950 C   0  0  0  0  0  0  0  0  0  0  0  0
  139.2830   70.9160  222.8090 C   0  0  0  0  0  0  0  0  0  0  0  0
  139.1860   70.0180  223.8740 C   0  0  0  0  0  0  0  0  0  0  0  0
  139.7990   70.2560  225.0870 C   0  0  0  0  0  0  0  0  0  0  0  0
  139.7150   69.3810  226.1540 C   0  0  0  0  0  0  0  0  0  0  0  0
  140.3670   69.7020  227.3480 C   0  0  0  0  0  0  0  0  0  0  0  0
  140.2820   68.6180  228.7170 Cl  0  0  0  0  0  0  0  0  0  0  0  0
  141.0940   70.8810  227.4730 C   0  0  0  0  0  0  0  0  0  0  0  0
  141.1780   71.7650  226.3970 C   0  0  0  0  0  0  0  0  0  0  0  0
  140.5260   71.4250  225.2310 C   0  0  0  0  0  0  0  0  0  0  0  0
  140.5990   72.2640  224.1890 N   0  0  0  0  0  0  0  0  0  0  0  0
  138.3780   72.2780  220.9450 H   0  0  0  0  0  0  0  0  0  0  0  0
  140.1063   73.7054  219.2042 H   0  0  0  0  0  0  0  0  0  0  0  0
  138.2203   73.6761  219.2363 H   0  0  0  0  0  0  0  0  0  0  0  0
  136.9535   77.5343  219.9493 H   0  0  0  0  0  0  0  0  0  0  0  0
  136.5551   75.7616  219.7007 H   0  0  0  0  0  0  0  0  0  0  0  0
  135.2359   77.3552  221.3362 H   0  0  0  0  0  0  0  0  0  0  0  0
  135.5587   75.5386  221.5848 H   0  0  0  0  0  0  0  0  0  0  0  0
  136.6462   77.8830  223.0369 H   0  0  0  0  0  0  0  0  0  0  0  0
  135.8073   76.3827  223.6255 H   0  0  0  0  0  0  0  0  0  0  0  0
  138.2499   76.3347  224.1031 H   0  0  0  0  0  0  0  0  0  0  0  0
  137.7783   75.0218  223.0295 H   0  0  0  0  0  0  0  0  0  0  0  0
  138.6531   77.8024  221.9541 H   0  0  0  0  0  0  0  0  0  0  0  0
  140.3517   76.9299  223.3746 H   0  0  0  0  0  0  0  0  0  0  0  0
  140.4699   75.5255  222.2400 H   0  0  0  0  0  0  0  0  0  0  0  0
  140.4770   77.5680  220.5750 H   0  0  0  0  0  0  0  0  0  0  0  0
  142.6536   78.5031  221.7143 H   0  0  0  0  0  0  0  0  0  0  0  0
  141.1772   77.6905  223.9256 H   0  0  0  0  0  0  0  0  0  0  0  0
  142.5421   78.8372  223.9061 H   0  0  0  0  0  0  0  0  0  0  0  0
  139.9818   79.5179  224.7358 H   0  0  0  0  0  0  0  0  0  0  0  0
  141.1000   80.7090  224.0925 H   0  0  0  0  0  0  0  0  0  0  0  0
  138.9525   79.0949  222.6063 H   0  0  0  0  0  0  0  0  0  0  0  0
  139.1330   80.8221  222.5833 H   0  0  0  0  0  0  0  0  0  0  0  0
  140.2650   79.4936  220.5607 H   0  0  0  0  0  0  0  0  0  0  0  0
  141.3451   80.6292  221.3414 H   0  0  0  0  0  0  0  0  0  0  0  0
  138.7876   70.7103  221.8487 H   0  0  0  0  0  0  0  0  0  0  0  0
  138.6040   69.0940  223.7420 H   0  0  0  0  0  0  0  0  0  0  0  0
  139.1432   68.4455  226.0647 H   0  0  0  0  0  0  0  0  0  0  0  0
  141.6024   71.1163  228.4196 H   0  0  0  0  0  0  0  0  0  0  0  0
  141.7464   72.7034  226.4765 H   0  0  0  0  0  0  0  0  0  0  0  0
  1  2  2  0
  2  3  1  0
  3  4  1  0
  4  5  1  0
  5  6  2  0
  5  7  1  0
  7  8  1  0
  8  9  1  0
  9 10  1  0
 10 11  1  0
 11 12  1  0
 12 13  1  0
 13 14  1  0
 14 15  1  0
 15 16  1  0
 16 17  1  0
 17 18  1  0
 18 19  1  0
  2 20  1  0
 20 21  2  0
 21 22  1  0
 22 23  2  0
 23 24  1  0
 24 25  2  0
 25 26  1  0
 25 27  1  0
 27 28  2  0
 28 29  1  0
 29 30  2  0
 12  7  1  0
 19 15  1  0
 30 20  1  0
 29 23  1  0
  3 31  1  0
  4 32  1  0
  4 33  1  0
  8 34  1  0
  8 35  1  0
  9 36  1  0
  9 37  1  0
 10 38  1  0
 10 39  1  0
 11 40  1  0
 11 41  1  0
 12 42  1  6
 13 43  1  0
 13 44  1  0
 14 45  1  0
 15 46  1  0
 16 47  1  0
 16 48  1  0
 17 49  1  0
 17 50  1  0
 18 51  1  0
 18 52  1  0
 19 53  1  0
 19 54  1  0
 21 55  1  0
 22 56  1  0
 24 57  1  0
 27 58  1  0
 28 59  1  0
M  END
>  <smiles>  (38) 
O=C(NCC(=O)N1CCCC[C@H]1CNC1CCCC1)c1ccc2cc(Cl)ccc2n1

>  <score_type>  (38) 
oracle

>  <origin>  (38) 
autodockgpu

>  <m_score__min__energy>  (38) 
-9.1099999999999994

>  <m_primary>  (38) 
energy

>  <rmsd>  (38) 
3.298523267982839

>  <m_score__min__rmsd>  (38) 
3.298523267982839

>  <meeko>  (38) 
{"free_energy": -6.89, "intermolecular_energy": -8.98, "internal_energy": -2.71, "cluster_size": 38, "cluster_id": 1, "rank_in_cluster": 38}

>  <energy>  (38) 
-6.89

>  <cluster_rmsd>  (38) 
1.96

>  <cluster>  (38) 
1

$$$$

     RDKit          3D

 59 62  0  0  0  0  0  0  0  0999 V2000
  139.2480   72.1780  220.7830 O   0  0  0  0  0  0  0  0  0  0  0  0
  139.4050   72.5320  221.9830 C   0  0  0  0  0  0  0  0  0  0  0  0
  139.4020   73.9350  222.3400 N   0  0  0  0  0  0  0  0  0  0  0  0
  139.2240   74.9800  221.3870 C   0  0  0  0  0  0  0  0  0  0  0  0
  140.2080   75.2070  220.3360 C   0  0  0  0  0  0  0  0  0  0  0  0
  139.6750   75.7310  219.2620 O   0  0  0  0  0  0  0  0  0  0  0  0
  141.5780   74.9750  220.2610 N   0  0  0  0  0  0  0  0  0  0  0  0
  142.1710   73.6400  220.5250 C   0  0  0  0  0  0  0  0  0  0  0  0
  143.3140   73.2880  219.6380 C   0  0  0  0  0  0  0  0  0  0  0  0
  144.1070   74.3970  219.0570 C   0  0  0  0  0  0  0  0  0  0  0  0
  143.2390   75.5770  218.6670 C   0  0  0  0  0  0  0  0  0  0  0  0
  142.5650   75.9960  219.9650 C   0  0  1  0  0  0  0  0  0  0  0  0
  142.0910   77.3900  219.9340 C   0  0  0  0  0  0  0  0  0  0  0  0
  142.1950   78.0100  221.2460 N   0  0  0  0  0  0  0  0  0  0  0  0
  141.2920   79.0860  221.4850 C   0  0  0  0  0  0  0  0  0  0  0  0
  141.8890   80.4540  221.5070 C   0  0  0  0  0  0  0  0  0  0  0  0
  141.8280   80.9610  222.9470 C   0  0  0  0  0  0  0  0  0  0  0  0
  141.7440   79.7120  223.7600 C   0  0  0  0  0  0  0  0  0  0  0  0
  140.7680   78.8820  222.9140 C   0  0  0  0  0  0  0  0  0  0  0  0
  139.5940   71.5540  223.0520 C   0  0  0  0  0  0  0  0  0  0  0  0
  139.2290   70.2440  222.8570 C   0  0  0  0  0  0  0  0  0  0  0  0
  139.4250   69.3430  223.9050 C   0  0  0  0  0  0  0  0  0  0  0  0
  139.9690   69.7340  225.1110 C   0  0  0  0  0  0  0  0  0  0  0  0
  140.1710   68.8590  226.1620 C   0  0  0  0  0  0  0  0  0  0  0  0
  140.7280   69.3410  227.3500 C   0  0  0  0  0  0  0  0  0  0  0  0
  140.9980   68.2620  228.6980 Cl  0  0  0  0  0  0  0  0  0  0  0  0
  141.0780   70.6810  227.4850 C   0  0  0  0  0  0  0  0  0  0  0  0
  140.8730   71.5650  226.4250 C   0  0  0  0  0  0  0  0  0  0  0  0
  140.3230   71.0630  225.2640 C   0  0  0  0  0  0  0  0  0  0  0  0
  140.1210   71.9010  224.2380 N   0  0  0  0  0  0  0  0  0  0  0  0
  139.5420   74.1660  223.3690 H   0  0  0  0  0  0  0  0  0  0  0  0
  138.2659   74.7851  220.8829 H   0  0  0  0  0  0  0  0  0  0  0  0
  139.3095   75.8882  222.0017 H   0  0  0  0  0  0  0  0  0  0  0  0
  142.5250   73.6207  221.5663 H   0  0  0  0  0  0  0  0  0  0  0  0
  141.3808   72.9009  220.3268 H   0  0  0  0  0  0  0  0  0  0  0  0
  144.0041   72.6640  220.2248 H   0  0  0  0  0  0  0  0  0  0  0  0
  142.8493   72.7967  218.7704 H   0  0  0  0  0  0  0  0  0  0  0  0
  144.8464   74.7310  219.7997 H   0  0  0  0  0  0  0  0  0  0  0  0
  144.5966   74.0217  218.1463 H   0  0  0  0  0  0  0  0  0  0  0  0
  143.8534   76.3963  218.2653 H   0  0  0  0  0  0  0  0  0  0  0  0
  142.5131   75.3220  217.8808 H   0  0  0  0  0  0  0  0  0  0  0  0
  143.2693   76.0372  220.8090 H   0  0  0  0  0  0  0  0  0  0  0  0
  142.7008   77.9606  219.2181 H   0  0  0  0  0  0  0  0  0  0  0  0
  141.0337   77.3919  219.6305 H   0  0  0  0  0  0  0  0  0  0  0  0
  143.1710   78.2480  221.4460 H   0  0  0  0  0  0  0  0  0  0  0  0
  140.5607   79.0560  220.6638 H   0  0  0  0  0  0  0  0  0  0  0  0
  142.9346   80.4126  221.1678 H   0  0  0  0  0  0  0  0  0  0  0  0
  141.3360   81.1279  220.8362 H   0  0  0  0  0  0  0  0  0  0  0  0
  142.7328   81.5332  223.1998 H   0  0  0  0  0  0  0  0  0  0  0  0
  140.9819   81.6415  223.1233 H   0  0  0  0  0  0  0  0  0  0  0  0
  142.7237   79.2194  223.8474 H   0  0  0  0  0  0  0  0  0  0  0  0
  141.4252   79.8674  224.8012 H   0  0  0  0  0  0  0  0  0  0  0  0
  140.8010   77.8203  223.1997 H   0  0  0  0  0  0  0  0  0  0  0  0
  139.7183   79.1862  223.0389 H   0  0  0  0  0  0  0  0  0  0  0  0
  138.7945   69.9143  221.9017 H   0  0  0  0  0  0  0  0  0  0  0  0
  139.1373   68.2905  223.7652 H   0  0  0  0  0  0  0  0  0  0  0  0
  139.8972   67.7981  226.0648 H   0  0  0  0  0  0  0  0  0  0  0  0
  141.5160   71.0432  228.4268 H   0  0  0  0  0  0  0  0  0  0  0  0
  141.1414   72.6282  226.5125 H   0  0  0  0  0  0  0  0  0  0  0  0
  1  2  2  0
  2  3  1  0
  3  4  1  0
  4  5  1  0
  5  6  2  0
  5  7  1  0
  7  8  1  0
  8  9  1  0
  9 10  1  0
 10 11  1  0
 11 12  1  0
 12 13  1  0
 13 14  1  0
 14 15  1  0
 15 16  1  0
 16 17  1  0
 17 18  1  0
 18 19  1  0
  2 20  1  0
 20 21  2  0
 21 22  1  0
 22 23  2  0
 23 24  1  0
 24 25  2  0
 25 26  1  0
 25 27  1  0
 27 28  2  0
 28 29  1  0
 29 30  2  0
 12  7  1  0
 19 15  1  0
 30 20  1  0
 29 23  1  0
  3 31  1  0
  4 32  1  0
  4 33  1  0
  8 34  1  0
  8 35  1  0
  9 36  1  0
  9 37  1  0
 10 38  1  0
 10 39  1  0
 11 40  1  0
 11 41  1  0
 12 42  1  1
 13 43  1  0
 13 44  1  0
 14 45  1  0
 15 46  1  0
 16 47  1  0
 16 48  1  0
 17 49  1  0
 17 50  1  0
 18 51  1  0
 18 52  1  0
 19 53  1  0
 19 54  1  0
 21 55  1  0
 22 56  1  0
 24 57  1  0
 27 58  1  0
 28 59  1  0
M  END
>  <smiles>  (39) 
O=C(NCC(=O)N1CCCC[C@H]1CNC1CCCC1)c1ccc2cc(Cl)ccc2n1

>  <score_type>  (39) 
oracle

>  <origin>  (39) 
autodockgpu

>  <m_score__min__energy>  (39) 
-9.1099999999999994

>  <m_primary>  (39) 
energy

>  <rmsd>  (39) 
2.5733430006741065

>  <m_score__min__rmsd>  (39) 
2.5733430006741065

>  <meeko>  (39) 
{"free_energy": -8.55, "intermolecular_energy": -10.64, "internal_energy": -1.9, "cluster_size": 38, "cluster_id": 1, "rank_in_cluster": 9}

>  <energy>  (39) 
-7.94

>  <cluster_rmsd>  (39) 
0.0

>  <cluster>  (39) 
2

$$$$

     RDKit          3D

 59 62  0  0  0  0  0  0  0  0999 V2000
  139.1070   72.9600  220.5580 O   0  0  0  0  0  0  0  0  0  0  0  0
  138.8420   73.8400  221.4210 C   0  0  0  0  0  0  0  0  0  0  0  0
  137.7460   73.6530  222.3480 N   0  0  0  0  0  0  0  0  0  0  0  0
  136.9190   72.4920  222.3490 C   0  0  0  0  0  0  0  0  0  0  0  0
  137.3560   71.2640  222.9990 C   0  0  0  0  0  0  0  0  0  0  0  0
  136.8270   71.1150  224.1860 O   0  0  0  0  0  0  0  0  0  0  0  0
  138.2140   70.2410  222.6040 N   0  0  0  0  0  0  0  0  0  0  0  0
  137.7140   68.9310  222.1180 C   0  0  0  0  0  0  0  0  0  0  0  0
  138.5020   68.3490  220.9970 C   0  0  0  0  0  0  0  0  0  0  0  0
  139.9280   68.7370  220.8780 C   0  0  0  0  0  0  0  0  0  0  0  0
  140.1550   70.1940  221.2270 C   0  0  0  0  0  0  0  0  0  0  0  0
  139.6610   70.3210  222.6620 C   0  0  1  0  0  0  0  0  0  0  0  0
  140.2370   71.4830  223.3600 C   0  0  0  0  0  0  0  0  0  0  0  0
  139.8850   71.4750  224.7720 N   0  0  0  0  0  0  0  0  0  0  0  0
  140.6930   70.6410  225.5960 C   0  0  0  0  0  0  0  0  0  0  0  0
  139.9640   69.6940  226.4900 C   0  0  0  0  0  0  0  0  0  0  0  0
  140.1600   70.1730  227.9280 C   0  0  0  0  0  0  0  0  0  0  0  0
  140.4810   71.6230  227.7790 C   0  0  0  0  0  0  0  0  0  0  0  0
  141.4190   71.5870  226.5640 C   0  0  0  0  0  0  0  0  0  0  0  0
  139.6200   75.0730  221.5210 C   0  0  0  0  0  0  0  0  0  0  0  0
  140.8330   75.1730  220.8850 C   0  0  0  0  0  0  0  0  0  0  0  0
  141.5450   76.3680  221.0090 C   0  0  0  0  0  0  0  0  0  0  0  0
  141.0630   77.4310  221.7440 C   0  0  0  0  0  0  0  0  0  0  0  0
  141.7510   78.6230  221.8800 C   0  0  0  0  0  0  0  0  0  0  0  0
  141.1880   79.6480  222.6450 C   0  0  0  0  0  0  0  0  0  0  0  0
  142.0310   81.1680  222.8380 Cl  0  0  0  0  0  0  0  0  0  0  0  0
  139.9540   79.4840  223.2660 C   0  0  0  0  0  0  0  0  0  0  0  0
  139.2590   78.2820  223.1290 C   0  0  0  0  0  0  0  0  0  0  0  0
  139.8370   77.2870  222.3690 C   0  0  0  0  0  0  0  0  0  0  0  0
  139.1800   76.1270  222.2290 N   0  0  0  0  0  0  0  0  0  0  0  0
  137.5740   74.4340  223.0490 H   0  0  0  0  0  0  0  0  0  0  0  0
  135.9729   72.7815  222.8297 H   0  0  0  0  0  0  0  0  0  0  0  0
  136.8948   72.2095  221.2862 H   0  0  0  0  0  0  0  0  0  0  0  0
  137.7355   68.2214  222.9583 H   0  0  0  0  0  0  0  0  0  0  0  0
  136.6996   69.1065  221.7305 H   0  0  0  0  0  0  0  0  0  0  0  0
  138.4680   67.2549  221.1058 H   0  0  0  0  0  0  0  0  0  0  0  0
  138.0294   68.7515  220.0889 H   0  0  0  0  0  0  0  0  0  0  0  0
  140.5234   68.1123  221.5601 H   0  0  0  0  0  0  0  0  0  0  0  0
  140.2325   68.5887  219.8314 H   0  0  0  0  0  0  0  0  0  0  0  0
  141.2229   70.4488  221.1590 H   0  0  0  0  0  0  0  0  0  0  0  0
  139.6311   70.8760  220.5412 H   0  0  0  0  0  0  0  0  0  0  0  0
  140.0168   69.5009  223.3029 H   0  0  0  0  0  0  0  0  0  0  0  0
  141.3323   71.4534  223.2629 H   0  0  0  0  0  0  0  0  0  0  0  0
  139.8324   72.3991  222.9049 H   0  0  0  0  0  0  0  0  0  0  0  0
  138.8810   71.3060  224.8830 H   0  0  0  0  0  0  0  0  0  0  0  0
  141.3089   70.0421  224.9090 H   0  0  0  0  0  0  0  0  0  0  0  0
  138.8931   69.6898  226.2386 H   0  0  0  0  0  0  0  0  0  0  0  0
  140.3505   68.6715  226.3672 H   0  0  0  0  0  0  0  0  0  0  0  0
  139.2411   70.0334  228.5163 H   0  0  0  0  0  0  0  0  0  0  0  0
  140.9457   69.6155  228.4590 H   0  0  0  0  0  0  0  0  0  0  0  0
  139.5787   72.2186  227.5762 H   0  0  0  0  0  0  0  0  0  0  0  0
  140.9158   72.0876  228.6763 H   0  0  0  0  0  0  0  0  0  0  0  0
  141.5360   72.5887  226.1248 H   0  0  0  0  0  0  0  0  0  0  0  0
  142.4380   71.2552  226.8123 H   0  0  0  0  0  0  0  0  0  0  0  0
  141.2326   74.3354  220.2945 H   0  0  0  0  0  0  0  0  0  0  0  0
  142.5185   76.4643  220.5059 H   0  0  0  0  0  0  0  0  0  0  0  0
  142.7274   78.7623  221.3930 H   0  0  0  0  0  0  0  0  0  0  0  0
  139.5264   80.3017  223.8648 H   0  0  0  0  0  0  0  0  0  0  0  0
  138.2818   78.1328  223.6115 H   0  0  0  0  0  0  0  0  0  0  0  0
  1  2  2  0
  2  3  1  0
  3  4  1  0
  4  5  1  0
  5  6  2  0
  5  7  1  0
  7  8  1  0
  8  9  1  0
  9 10  1  0
 10 11  1  0
 11 12  1  0
 12 13  1  0
 13 14  1  0
 14 15  1  0
 15 16  1  0
 16 17  1  0
 17 18  1  0
 18 19  1  0
  2 20  1  0
 20 21  2  0
 21 22  1  0
 22 23  2  0
 23 24  1  0
 24 25  2  0
 25 26  1  0
 25 27  1  0
 27 28  2  0
 28 29  1  0
 29 30  2  0
 12  7  1  0
 19 15  1  0
 30 20  1  0
 29 23  1  0
  3 31  1  0
  4 32  1  0
  4 33  1  0
  8 34  1  0
  8 35  1  0
  9 36  1  0
  9 37  1  0
 10 38  1  0
 10 39  1  0
 11 40  1  0
 11 41  1  0
 12 42  1  1
 13 43  1  0
 13 44  1  0
 14 45  1  0
 15 46  1  0
 16 47  1  0
 16 48  1  0
 17 49  1  0
 17 50  1  0
 18 51  1  0
 18 52  1  0
 19 53  1  0
 19 54  1  0
 21 55  1  0
 22 56  1  0
 24 57  1  0
 27 58  1  0
 28 59  1  0
M  END
>  <smiles>  (40) 
O=C(NCC(=O)N1CCCC[C@H]1CNC1CCCC1)c1ccc2cc(Cl)ccc2n1

>  <score_type>  (40) 
oracle

>  <origin>  (40) 
autodockgpu

>  <m_score__min__energy>  (40) 
-9.1099999999999994

>  <m_primary>  (40) 
energy

>  <rmsd>  (40) 
8.412428895699078

>  <m_score__min__rmsd>  (40) 
8.412428895699078

>  <meeko>  (40) 
{"free_energy": -7.14, "intermolecular_energy": -9.23, "internal_energy": -2.93, "cluster_size": 2, "cluster_id": 3, "rank_in_cluster": 1}

>  <energy>  (40) 
-7.63

>  <cluster_rmsd>  (40) 
0.59

>  <cluster>  (40) 
2

$$$$

     RDKit          3D

 59 62  0  0  0  0  0  0  0  0999 V2000
  140.4720   72.1660  220.6470 O   0  0  0  0  0  0  0  0  0  0  0  0
  140.1540   72.5420  221.8080 C   0  0  0  0  0  0  0  0  0  0  0  0
  139.8490   73.9330  222.0690 N   0  0  0  0  0  0  0  0  0  0  0  0
  139.8850   74.9400  221.0610 C   0  0  0  0  0  0  0  0  0  0  0  0
  141.1390   75.5850  220.6950 C   0  0  0  0  0  0  0  0  0  0  0  0
  142.1730   74.8090  220.8910 O   0  0  0  0  0  0  0  0  0  0  0  0
  141.4370   76.8470  220.1870 N   0  0  0  0  0  0  0  0  0  0  0  0
  141.8410   77.0570  218.7740 C   0  0  0  0  0  0  0  0  0  0  0  0
  141.2950   78.2970  218.1570 C   0  0  0  0  0  0  0  0  0  0  0  0
  140.9610   79.4280  219.0540 C   0  0  0  0  0  0  0  0  0  0  0  0
  140.3610   78.9620  220.3640 C   0  0  0  0  0  0  0  0  0  0  0  0
  141.4300   78.0660  220.9730 C   0  0  1  0  0  0  0  0  0  0  0  0
  141.2840   77.9180  222.4310 C   0  0  0  0  0  0  0  0  0  0  0  0
  140.2030   78.7480  222.9390 N   0  0  0  0  0  0  0  0  0  0  0  0
  140.6110   79.8740  223.7090 C   0  0  0  0  0  0  0  0  0  0  0  0
  140.4050   81.2130  223.0800 C   0  0  0  0  0  0  0  0  0  0  0  0
  141.7820   81.7820  222.7440 C   0  0  0  0  0  0  0  0  0  0  0  0
  142.6540   80.5730  222.6560 C   0  0  0  0  0  0  0  0  0  0  0  0
  142.1360   79.7560  223.8480 C   0  0  0  0  0  0  0  0  0  0  0  0
  140.0800   71.6030  222.9250 C   0  0  0  0  0  0  0  0  0  0  0  0
  139.4960   70.3720  222.7490 C   0  0  0  0  0  0  0  0  0  0  0  0
  139.4440   69.5060  223.8440 C   0  0  0  0  0  0  0  0  0  0  0  0
  139.9590   69.8560  225.0750 C   0  0  0  0  0  0  0  0  0  0  0  0
  139.9180   69.0150  226.1720 C   0  0  0  0  0  0  0  0  0  0  0  0
  140.4640   69.4510  227.3830 C   0  0  0  0  0  0  0  0  0  0  0  0
  140.4290   68.4130  228.7890 Cl  0  0  0  0  0  0  0  0  0  0  0  0
  141.0420   70.7110  227.4960 C   0  0  0  0  0  0  0  0  0  0  0  0
  141.0830   71.5600  226.3900 C   0  0  0  0  0  0  0  0  0  0  0  0
  140.5380   71.1060  225.2070 C   0  0  0  0  0  0  0  0  0  0  0  0
  140.5710   71.9110  224.1370 N   0  0  0  0  0  0  0  0  0  0  0  0
  139.5900   74.1860  223.0700 H   0  0  0  0  0  0  0  0  0  0  0  0
  139.4896   74.4797  220.1435 H   0  0  0  0  0  0  0  0  0  0  0  0
  139.3120   75.7613  221.5161 H   0  0  0  0  0  0  0  0  0  0  0  0
  142.9391   77.1073  218.7338 H   0  0  0  0  0  0  0  0  0  0  0  0
  141.4296   76.2132  218.2007 H   0  0  0  0  0  0  0  0  0  0  0  0
  142.0418   78.6603  217.4357 H   0  0  0  0  0  0  0  0  0  0  0  0
  140.3295   77.9901  217.7284 H   0  0  0  0  0  0  0  0  0  0  0  0
  141.8796   79.9944  219.2669 H   0  0  0  0  0  0  0  0  0  0  0  0
  140.2136   80.0537  218.5442 H   0  0  0  0  0  0  0  0  0  0  0  0
  140.1498   79.8181  221.0217 H   0  0  0  0  0  0  0  0  0  0  0  0
  139.4044   78.4373  220.2237 H   0  0  0  0  0  0  0  0  0  0  0  0
  142.4345   78.5101  220.9126 H   0  0  0  0  0  0  0  0  0  0  0  0
  141.0680   76.8651  222.6648 H   0  0  0  0  0  0  0  0  0  0  0  0
  142.2219   78.2373  222.9089 H   0  0  0  0  0  0  0  0  0  0  0  0
  139.5040   78.1660  223.4100 H   0  0  0  0  0  0  0  0  0  0  0  0
  140.0102   79.8436  224.6299 H   0  0  0  0  0  0  0  0  0  0  0  0
  139.8082   81.1084  222.1619 H   0  0  0  0  0  0  0  0  0  0  0  0
  139.8668   81.8835  223.7661 H   0  0  0  0  0  0  0  0  0  0  0  0
  141.7604   82.3204  221.7850 H   0  0  0  0  0  0  0  0  0  0  0  0
  142.1359   82.5089  223.4899 H   0  0  0  0  0  0  0  0  0  0  0  0
  142.5096   80.0383  221.7056 H   0  0  0  0  0  0  0  0  0  0  0  0
  143.7326   80.7868  222.6853 H   0  0  0  0  0  0  0  0  0  0  0  0
  142.4595   78.7069  223.7791 H   0  0  0  0  0  0  0  0  0  0  0  0
  142.5127   80.1153  224.8170 H   0  0  0  0  0  0  0  0  0  0  0  0
  139.0813   70.0767  221.7739 H   0  0  0  0  0  0  0  0  0  0  0  0
  138.9791   68.5167  223.7211 H   0  0  0  0  0  0  0  0  0  0  0  0
  139.4622   68.0170  226.0929 H   0  0  0  0  0  0  0  0  0  0  0  0
  141.4665   71.0377  228.4568 H   0  0  0  0  0  0  0  0  0  0  0  0
  141.5357   72.5601  226.4591 H   0  0  0  0  0  0  0  0  0  0  0  0
  1  2  2  0
  2  3  1  0
  3  4  1  0
  4  5  1  0
  5  6  2  0
  5  7  1  0
  7  8  1  0
  8  9  1  0
  9 10  1  0
 10 11  1  0
 11 12  1  0
 12 13  1  0
 13 14  1  0
 14 15  1  0
 15 16  1  0
 16 17  1  0
 17 18  1  0
 18 19  1  0
  2 20  1  0
 20 21  2  0
 21 22  1  0
 22 23  2  0
 23 24  1  0
 24 25  2  0
 25 26  1  0
 25 27  1  0
 27 28  2  0
 28 29  1  0
 29 30  2  0
 12  7  1  0
 19 15  1  0
 30 20  1  0
 29 23  1  0
  3 31  1  0
  4 32  1  0
  4 33  1  0
  8 34  1  0
  8 35  1  0
  9 36  1  0
  9 37  1  0
 10 38  1  0
 10 39  1  0
 11 40  1  0
 11 41  1  0
 12 42  1  1
 13 43  1  0
 13 44  1  0
 14 45  1  0
 15 46  1  0
 16 47  1  0
 16 48  1  0
 17 49  1  0
 17 50  1  0
 18 51  1  0
 18 52  1  0
 19 53  1  0
 19 54  1  0
 21 55  1  0
 22 56  1  0
 24 57  1  0
 27 58  1  0
 28 59  1  0
M  END
>  <smiles>  (41) 
O=C(NCC(=O)N1CCCC[C@H]1CNC1CCCC1)c1ccc2cc(Cl)ccc2n1

>  <score_type>  (41) 
oracle

>  <origin>  (41) 
autodockgpu

>  <m_score__min__energy>  (41) 
-9.1099999999999994

>  <m_primary>  (41) 
energy

>  <rmsd>  (41) 
2.300931202637526

>  <m_score__min__rmsd>  (41) 
2.300931202637526

>  <meeko>  (41) 
{"free_energy": -8.29, "intermolecular_energy": -10.38, "internal_energy": -1.54, "cluster_size": 38, "cluster_id": 1, "rank_in_cluster": 16}

>  <energy>  (41) 
-7.1

>  <cluster_rmsd>  (41) 
0.92

>  <cluster>  (41) 
2

$$$$

     RDKit          3D

 59 62  0  0  0  0  0  0  0  0999 V2000
  140.0820   73.8030  222.3420 O   0  0  0  0  0  0  0  0  0  0  0  0
  139.8430   72.5840  222.1260 C   0  0  0  0  0  0  0  0  0  0  0  0
  139.5010   72.1290  220.7950 N   0  0  0  0  0  0  0  0  0  0  0  0
  139.4150   73.0030  219.6720 C   0  0  0  0  0  0  0  0  0  0  0  0
  140.4380   74.0130  219.4330 C   0  0  0  0  0  0  0  0  0  0  0  0
  140.0960   74.8510  218.4880 O   0  0  0  0  0  0  0  0  0  0  0  0
  141.6830   74.2490  220.0080 N   0  0  0  0  0  0  0  0  0  0  0  0
  142.6150   73.1480  220.3590 C   0  0  0  0  0  0  0  0  0  0  0  0
  144.0500   73.4530  220.1060 C   0  0  0  0  0  0  0  0  0  0  0  0
  144.4710   74.8740  220.1290 C   0  0  0  0  0  0  0  0  0  0  0  0
  143.4300   75.7890  219.5170 C   0  0  0  0  0  0  0  0  0  0  0  0
  142.1840   75.5640  220.3610 C   0  0  1  0  0  0  0  0  0  0  0  0
  141.2310   76.6840  220.2780 C   0  0  0  0  0  0  0  0  0  0  0  0
  140.0000   76.3810  220.9910 N   0  0  0  0  0  0  0  0  0  0  0  0
  139.9530   76.8270  222.3420 C   0  0  0  0  0  0  0  0  0  0  0  0
  138.7520   77.6240  222.7320 C   0  0  0  0  0  0  0  0  0  0  0  0
  139.2100   79.0610  222.9710 C   0  0  0  0  0  0  0  0  0  0  0  0
  140.4750   79.1670  222.1870 C   0  0  0  0  0  0  0  0  0  0  0  0
  141.1220   77.8100  222.4990 C   0  0  0  0  0  0  0  0  0  0  0  0
  139.9020   71.5900  223.1960 C   0  0  0  0  0  0  0  0  0  0  0  0
  139.4200   70.3220  222.9810 C   0  0  0  0  0  0  0  0  0  0  0  0
  139.4930   69.4040  224.0310 C   0  0  0  0  0  0  0  0  0  0  0  0
  140.0310   69.7390  225.2570 C   0  0  0  0  0  0  0  0  0  0  0  0
  140.1140   68.8470  226.3100 C   0  0  0  0  0  0  0  0  0  0  0  0
  140.6730   69.2720  227.5180 C   0  0  0  0  0  0  0  0  0  0  0  0
  140.7940   68.1690  228.8690 Cl  0  0  0  0  0  0  0  0  0  0  0  0
  141.1440   70.5720  227.6710 C   0  0  0  0  0  0  0  0  0  0  0  0
  141.0610   71.4730  226.6090 C   0  0  0  0  0  0  0  0  0  0  0  0
  140.5050   71.0280  225.4290 C   0  0  0  0  0  0  0  0  0  0  0  0
  140.4190   71.8830  224.4000 N   0  0  0  0  0  0  0  0  0  0  0  0
  139.3090   71.0880  220.6810 H   0  0  0  0  0  0  0  0  0  0  0  0
  139.3907   72.3632  218.7775 H   0  0  0  0  0  0  0  0  0  0  0  0
  138.5242   73.6067  219.8999 H   0  0  0  0  0  0  0  0  0  0  0  0
  142.4945   72.9232  221.4290 H   0  0  0  0  0  0  0  0  0  0  0  0
  142.3555   72.2982  219.7105 H   0  0  0  0  0  0  0  0  0  0  0  0
  144.6372   72.9248  220.8717 H   0  0  0  0  0  0  0  0  0  0  0  0
  144.2220   73.1309  219.0684 H   0  0  0  0  0  0  0  0  0  0  0  0
  144.6391   75.1769  221.1730 H   0  0  0  0  0  0  0  0  0  0  0  0
  145.3914   74.9633  219.5333 H   0  0  0  0  0  0  0  0  0  0  0  0
  143.7535   76.8388  219.5730 H   0  0  0  0  0  0  0  0  0  0  0  0
  143.2586   75.5752  218.4517 H   0  0  0  0  0  0  0  0  0  0  0  0
  142.4029   75.5617  221.4390 H   0  0  0  0  0  0  0  0  0  0  0  0
  141.6908   77.5799  220.7206 H   0  0  0  0  0  0  0  0  0  0  0  0
  140.9870   76.8561  219.2193 H   0  0  0  0  0  0  0  0  0  0  0  0
  139.7650   75.3890  220.8820 H   0  0  0  0  0  0  0  0  0  0  0  0
  139.9635   75.9176  222.9608 H   0  0  0  0  0  0  0  0  0  0  0  0
  138.0056   77.5975  221.9244 H   0  0  0  0  0  0  0  0  0  0  0  0
  138.2910   77.2090  223.6404 H   0  0  0  0  0  0  0  0  0  0  0  0
  138.4603   79.7773  222.6038 H   0  0  0  0  0  0  0  0  0  0  0  0
  139.3503   79.2907  224.0376 H   0  0  0  0  0  0  0  0  0  0  0  0
  140.2760   79.2828  221.1114 H   0  0  0  0  0  0  0  0  0  0  0  0
  141.0972   80.0374  222.4423 H   0  0  0  0  0  0  0  0  0  0  0  0
  141.9282   77.5829  221.7859 H   0  0  0  0  0  0  0  0  0  0  0  0
  141.5910   77.7712  223.4933 H   0  0  0  0  0  0  0  0  0  0  0  0
  138.9889   70.0377  222.0098 H   0  0  0  0  0  0  0  0  0  0  0  0
  139.1105   68.3843  223.8763 H   0  0  0  0  0  0  0  0  0  0  0  0
  139.7450   67.8168  226.1983 H   0  0  0  0  0  0  0  0  0  0  0  0
  141.5817   70.8895  228.6289 H   0  0  0  0  0  0  0  0  0  0  0  0
  141.4275   72.5052  226.7102 H   0  0  0  0  0  0  0  0  0  0  0  0
  1  2  2  0
  2  3  1  0
  3  4  1  0
  4  5  1  0
  5  6  2  0
  5  7  1  0
  7  8  1  0
  8  9  1  0
  9 10  1  0
 10 11  1  0
 11 12  1  0
 12 13  1  0
 13 14  1  0
 14 15  1  0
 15 16  1  0
 16 17  1  0
 17 18  1  0
 18 19  1  0
  2 20  1  0
 20 21  2  0
 21 22  1  0
 22 23  2  0
 23 24  1  0
 24 25  2  0
 25 26  1  0
 25 27  1  0
 27 28  2  0
 28 29  1  0
 29 30  2  0
 12  7  1  0
 19 15  1  0
 30 20  1  0
 29 23  1  0
  3 31  1  0
  4 32  1  0
  4 33  1  0
  8 34  1  0
  8 35  1  0
  9 36  1  0
  9 37  1  0
 10 38  1  0
 10 39  1  0
 11 40  1  0
 11 41  1  0
 12 42  1  1
 13 43  1  0
 13 44  1  0
 14 45  1  0
 15 46  1  0
 16 47  1  0
 16 48  1  0
 17 49  1  0
 17 50  1  0
 18 51  1  0
 18 52  1  0
 19 53  1  0
 19 54  1  0
 21 55  1  0
 22 56  1  0
 24 57  1  0
 27 58  1  0
 28 59  1  0
M  END
>  <smiles>  (42) 
O=C(NCC(=O)N1CCCC[C@H]1CNC1CCCC1)c1ccc2cc(Cl)ccc2n1

>  <score_type>  (42) 
oracle

>  <origin>  (42) 
autodockgpu

>  <m_score__min__energy>  (42) 
-9.1099999999999994

>  <m_primary>  (42) 
energy

>  <rmsd>  (42) 
2.8689909693254836

>  <m_score__min__rmsd>  (42) 
2.8689909693254836

>  <meeko>  (42) 
{"free_energy": -7.68, "intermolecular_energy": -9.76, "internal_energy": -2.57, "cluster_size": 38, "cluster_id": 1, "rank_in_cluster": 30}

>  <energy>  (42) 
-7.14

>  <cluster_rmsd>  (42) 
0.0

>  <cluster>  (42) 
3

$$$$

     RDKit          3D

 59 62  0  0  0  0  0  0  0  0999 V2000
  138.1800   71.0720  221.0790 O   0  0  0  0  0  0  0  0  0  0  0  0
  138.6770   71.5590  222.1300 C   0  0  0  0  0  0  0  0  0  0  0  0
  138.9000   72.9840  222.2440 N   0  0  0  0  0  0  0  0  0  0  0  0
  138.5810   73.9060  221.2050 C   0  0  0  0  0  0  0  0  0  0  0  0
  139.6270   74.4840  220.3720 C   0  0  0  0  0  0  0  0  0  0  0  0
  139.1750   74.8800  219.2100 O   0  0  0  0  0  0  0  0  0  0  0  0
  140.9890   74.6880  220.5750 N   0  0  0  0  0  0  0  0  0  0  0  0
  141.9670   73.5710  220.5770 C   0  0  0  0  0  0  0  0  0  0  0  0
  143.2720   73.8950  219.9380 C   0  0  0  0  0  0  0  0  0  0  0  0
  143.7020   75.3130  219.9220 C   0  0  0  0  0  0  0  0  0  0  0  0
  142.5420   76.2600  219.6910 C   0  0  0  0  0  0  0  0  0  0  0  0
  141.5900   75.9810  220.8450 C   0  0  1  0  0  0  0  0  0  0  0  0
  140.6700   77.1010  221.1060 C   0  0  0  0  0  0  0  0  0  0  0  0
  140.9790   77.7510  222.3710 N   0  0  0  0  0  0  0  0  0  0  0  0
  140.7470   79.1560  222.4050 C   0  0  0  0  0  0  0  0  0  0  0  0
  141.6650   79.9950  221.5790 C   0  0  0  0  0  0  0  0  0  0  0  0
  142.5510   80.7900  222.5360 C   0  0  0  0  0  0  0  0  0  0  0  0
  142.5190   79.9900  223.7960 C   0  0  0  0  0  0  0  0  0  0  0  0
  141.0380   79.5930  223.8480 C   0  0  0  0  0  0  0  0  0  0  0  0
  139.0430   70.7150  223.2670 C   0  0  0  0  0  0  0  0  0  0  0  0
  138.7590   69.3720  223.2440 C   0  0  0  0  0  0  0  0  0  0  0  0
  139.1240   68.6030  224.3510 C   0  0  0  0  0  0  0  0  0  0  0  0
  139.7550   69.1560  225.4470 C   0  0  0  0  0  0  0  0  0  0  0  0
  140.1260   68.4140  226.5530 C   0  0  0  0  0  0  0  0  0  0  0  0
  140.7600   69.0570  227.6200 C   0  0  0  0  0  0  0  0  0  0  0  0
  141.2420   68.1490  229.0340 Cl  0  0  0  0  0  0  0  0  0  0  0  0
  141.0210   70.4230  227.5810 C   0  0  0  0  0  0  0  0  0  0  0  0
  140.6470   71.1720  226.4650 C   0  0  0  0  0  0  0  0  0  0  0  0
  140.0230   70.5140  225.4270 C   0  0  0  0  0  0  0  0  0  0  0  0
  139.6580   71.2210  224.3490 N   0  0  0  0  0  0  0  0  0  0  0  0
  139.3250   73.3300  223.1560 H   0  0  0  0  0  0  0  0  0  0  0  0
  137.8906   73.3854  220.5250 H   0  0  0  0  0  0  0  0  0  0  0  0
  138.2026   74.7770  221.7601 H   0  0  0  0  0  0  0  0  0  0  0  0
  142.1575   73.2824  221.6212 H   0  0  0  0  0  0  0  0  0  0  0  0
  141.5192   72.7607  219.9830 H   0  0  0  0  0  0  0  0  0  0  0  0
  144.0477   73.3232  220.4685 H   0  0  0  0  0  0  0  0  0  0  0  0
  143.1323   73.6367  218.8779 H   0  0  0  0  0  0  0  0  0  0  0  0
  144.1680   75.5529  220.8891 H   0  0  0  0  0  0  0  0  0  0  0  0
  144.4130   75.4411  219.0925 H   0  0  0  0  0  0  0  0  0  0  0  0
  142.8830   77.3056  219.7118 H   0  0  0  0  0  0  0  0  0  0  0  0
  142.0672   76.1100  218.7101 H   0  0  0  0  0  0  0  0  0  0  0  0
  142.1107   75.9144  221.8117 H   0  0  0  0  0  0  0  0  0  0  0  0
  140.7601   77.8365  220.2931 H   0  0  0  0  0  0  0  0  0  0  0  0
  139.6450   76.7053  221.1585 H   0  0  0  0  0  0  0  0  0  0  0  0
  141.9180   77.4870  222.6820 H   0  0  0  0  0  0  0  0  0  0  0  0
  139.7263   79.3035  222.0224 H   0  0  0  0  0  0  0  0  0  0  0  0
  142.2869   79.3518  220.9390 H   0  0  0  0  0  0  0  0  0  0  0  0
  141.0903   80.6733  220.9312 H   0  0  0  0  0  0  0  0  0  0  0  0
  143.5770   80.8682  222.1471 H   0  0  0  0  0  0  0  0  0  0  0  0
  142.2035   81.8239  222.6788 H   0  0  0  0  0  0  0  0  0  0  0  0
  143.1725   79.1075  223.7317 H   0  0  0  0  0  0  0  0  0  0  0  0
  142.8774   80.5281  224.6859 H   0  0  0  0  0  0  0  0  0  0  0  0
  140.8753   78.7641  224.5526 H   0  0  0  0  0  0  0  0  0  0  0  0
  140.3832   80.4057  224.1954 H   0  0  0  0  0  0  0  0  0  0  0  0
  138.2581   68.9146  222.3780 H   0  0  0  0  0  0  0  0  0  0  0  0
  138.9023   67.5256  224.3495 H   0  0  0  0  0  0  0  0  0  0  0  0
  139.9252   67.3332  226.5927 H   0  0  0  0  0  0  0  0  0  0  0  0
  141.5219   70.9121  228.4295 H   0  0  0  0  0  0  0  0  0  0  0  0
  140.8438   72.2531  226.4151 H   0  0  0  0  0  0  0  0  0  0  0  0
  1  2  2  0
  2  3  1  0
  3  4  1  0
  4  5  1  0
  5  6  2  0
  5  7  1  0
  7  8  1  0
  8  9  1  0
  9 10  1  0
 10 11  1  0
 11 12  1  0
 12 13  1  0
 13 14  1  0
 14 15  1  0
 15 16  1  0
 16 17  1  0
 17 18  1  0
 18 19  1  0
  2 20  1  0
 20 21  2  0
 21 22  1  0
 22 23  2  0
 23 24  1  0
 24 25  2  0
 25 26  1  0
 25 27  1  0
 27 28  2  0
 28 29  1  0
 29 30  2  0
 12  7  1  0
 19 15  1  0
 30 20  1  0
 29 23  1  0
  3 31  1  0
  4 32  1  0
  4 33  1  0
  8 34  1  0
  8 35  1  0
  9 36  1  0
  9 37  1  0
 10 38  1  0
 10 39  1  0
 11 40  1  0
 11 41  1  0
 12 42  1  1
 13 43  1  0
 13 44  1  0
 14 45  1  0
 15 46  1  0
 16 47  1  0
 16 48  1  0
 17 49  1  0
 17 50  1  0
 18 51  1  0
 18 52  1  0
 19 53  1  0
 19 54  1  0
 21 55  1  0
 22 56  1  0
 24 57  1  0
 27 58  1  0
 28 59  1  0
M  END
>  <smiles>  (43) 
O=C(NCC(=O)N1CCCC[C@H]1CNC1CCCC1)c1ccc2cc(Cl)ccc2n1

>  <score_type>  (43) 
oracle

>  <origin>  (43) 
autodockgpu

>  <m_score__min__energy>  (43) 
-9.1099999999999994

>  <m_primary>  (43) 
energy

>  <rmsd>  (43) 
2.3457324780480837

>  <m_score__min__rmsd>  (43) 
2.3457324780480837

>  <meeko>  (43) 
{"free_energy": -8.67, "intermolecular_energy": -10.76, "internal_energy": -1.75, "cluster_size": 38, "cluster_id": 1, "rank_in_cluster": 6}

>  <energy>  (43) 
-7.04

>  <cluster_rmsd>  (43) 
1.71

>  <cluster>  (43) 
3

$$$$

     RDKit          3D

 59 62  0  0  0  0  0  0  0  0999 V2000
  138.1110   71.4530  220.8380 O   0  0  0  0  0  0  0  0  0  0  0  0
  138.5260   71.9170  221.9350 C   0  0  0  0  0  0  0  0  0  0  0  0
  138.6380   73.3460  222.1310 N   0  0  0  0  0  0  0  0  0  0  0  0
  138.2950   74.2980  221.1270 C   0  0  0  0  0  0  0  0  0  0  0  0
  139.1350   75.4650  220.8860 C   0  0  0  0  0  0  0  0  0  0  0  0
  138.4550   76.5820  220.9220 O   0  0  0  0  0  0  0  0  0  0  0  0
  140.4950   75.6110  220.6300 N   0  0  0  0  0  0  0  0  0  0  0  0
  141.1860   74.8490  219.5600 C   0  0  0  0  0  0  0  0  0  0  0  0
  142.2250   75.6230  218.8260 C   0  0  0  0  0  0  0  0  0  0  0  0
  142.8790   76.7490  219.5350 C   0  0  0  0  0  0  0  0  0  0  0  0
  141.9090   77.5130  220.4130 C   0  0  0  0  0  0  0  0  0  0  0  0
  141.3820   76.4720  221.3900 C   0  0  1  0  0  0  0  0  0  0  0  0
  140.8350   77.0710  222.6190 C   0  0  0  0  0  0  0  0  0  0  0  0
  140.2320   78.3680  222.3490 N   0  0  0  0  0  0  0  0  0  0  0  0
  140.4250   79.3510  223.3610 C   0  0  0  0  0  0  0  0  0  0  0  0
  140.4560   80.7710  222.9020 C   0  0  0  0  0  0  0  0  0  0  0  0
  141.8880   81.2790  223.0680 C   0  0  0  0  0  0  0  0  0  0  0  0
  142.7090   80.0320  223.0630 C   0  0  0  0  0  0  0  0  0  0  0  0
  141.8340   79.1060  223.9190 C   0  0  0  0  0  0  0  0  0  0  0  0
  138.9060   71.0420  223.0420 C   0  0  0  0  0  0  0  0  0  0  0  0
  138.6010   69.7030  222.9950 C   0  0  0  0  0  0  0  0  0  0  0  0
  138.9810   68.9030  224.0750 C   0  0  0  0  0  0  0  0  0  0  0  0
  139.6450   69.4210  225.1670 C   0  0  0  0  0  0  0  0  0  0  0  0
  140.0300   68.6480  226.2470 C   0  0  0  0  0  0  0  0  0  0  0  0
  140.6990   69.2560  227.3130 C   0  0  0  0  0  0  0  0  0  0  0  0
  141.2010   68.3080  228.6940 Cl  0  0  0  0  0  0  0  0  0  0  0  0
  140.9800   70.6180  227.3000 C   0  0  0  0  0  0  0  0  0  0  0  0
  140.5910   71.3990  226.2110 C   0  0  0  0  0  0  0  0  0  0  0  0
  139.9330   70.7750  225.1730 C   0  0  0  0  0  0  0  0  0  0  0  0
  139.5540   71.5130  224.1200 N   0  0  0  0  0  0  0  0  0  0  0  0
  138.9980   73.6720  223.0780 H   0  0  0  0  0  0  0  0  0  0  0  0
  138.2439   73.7467  220.1765 H   0  0  0  0  0  0  0  0  0  0  0  0
  137.3676   74.7417  221.5183 H   0  0  0  0  0  0  0  0  0  0  0  0
  141.6691   73.9735  220.0183 H   0  0  0  0  0  0  0  0  0  0  0  0
  140.4172   74.5773  218.8217 H   0  0  0  0  0  0  0  0  0  0  0  0
  143.0155   74.9159  218.5341 H   0  0  0  0  0  0  0  0  0  0  0  0
  141.6815   76.0973  217.9956 H   0  0  0  0  0  0  0  0  0  0  0  0
  143.6875   76.3494  220.1647 H   0  0  0  0  0  0  0  0  0  0  0  0
  143.2685   77.4447  218.7772 H   0  0  0  0  0  0  0  0  0  0  0  0
  142.4245   78.3238  220.9487 H   0  0  0  0  0  0  0  0  0  0  0  0
  141.1045   77.9891  219.8333 H   0  0  0  0  0  0  0  0  0  0  0  0
  142.1839   75.8452  221.8072 H   0  0  0  0  0  0  0  0  0  0  0  0
  140.0700   76.3994  223.0358 H   0  0  0  0  0  0  0  0  0  0  0  0
  141.6587   77.2119  223.3344 H   0  0  0  0  0  0  0  0  0  0  0  0
  139.2510   78.2500  222.0800 H   0  0  0  0  0  0  0  0  0  0  0  0
  139.5765   79.2439  224.0528 H   0  0  0  0  0  0  0  0  0  0  0  0
  140.1571   80.8302  221.8450 H   0  0  0  0  0  0  0  0  0  0  0  0
  139.7580   81.3831  223.4920 H   0  0  0  0  0  0  0  0  0  0  0  0
  142.1698   81.9375  222.2331 H   0  0  0  0  0  0  0  0  0  0  0  0
  142.0252   81.8759  223.9817 H   0  0  0  0  0  0  0  0  0  0  0  0
  142.8395   79.6376  222.0444 H   0  0  0  0  0  0  0  0  0  0  0  0
  143.7353   80.1617  223.4370 H   0  0  0  0  0  0  0  0  0  0  0  0
  142.1314   78.0543  223.7945 H   0  0  0  0  0  0  0  0  0  0  0  0
  141.9147   79.3074  224.9974 H   0  0  0  0  0  0  0  0  0  0  0  0
  138.0725   69.2733  222.1312 H   0  0  0  0  0  0  0  0  0  0  0  0
  138.7439   67.8291  224.0539 H   0  0  0  0  0  0  0  0  0  0  0  0
  139.8128   67.5698  226.2669 H   0  0  0  0  0  0  0  0  0  0  0  0
  141.5084   71.0792  228.1474 H   0  0  0  0  0  0  0  0  0  0  0  0
  140.8027   72.4780  226.1819 H   0  0  0  0  0  0  0  0  0  0  0  0
  1  2  2  0
  2  3  1  0
  3  4  1  0
  4  5  1  0
  5  6  2  0
  5  7  1  0
  7  8  1  0
  8  9  1  0
  9 10  1  0
 10 11  1  0
 11 12  1  0
 12 13  1  0
 13 14  1  0
 14 15  1  0
 15 16  1  0
 16 17  1  0
 17 18  1  0
 18 19  1  0
  2 20  1  0
 20 21  2  0
 21 22  1  0
 22 23  2  0
 23 24  1  0
 24 25  2  0
 25 26  1  0
 25 27  1  0
 27 28  2  0
 28 29  1  0
 29 30  2  0
 12  7  1  0
 19 15  1  0
 30 20  1  0
 29 23  1  0
  3 31  1  0
  4 32  1  0
  4 33  1  0
  8 34  1  0
  8 35  1  0
  9 36  1  0
  9 37  1  0
 10 38  1  0
 10 39  1  0
 11 40  1  0
 11 41  1  0
 12 42  1  1
 13 43  1  0
 13 44  1  0
 14 45  1  0
 15 46  1  0
 16 47  1  0
 16 48  1  0
 17 49  1  0
 17 50  1  0
 18 51  1  0
 18 52  1  0
 19 53  1  0
 19 54  1  0
 21 55  1  0
 22 56  1  0
 24 57  1  0
 27 58  1  0
 28 59  1  0
M  END
>  <smiles>  (44) 
O=C(NCC(=O)N1CCCC[C@H]1CNC1CCCC1)c1ccc2cc(Cl)ccc2n1

>  <score_type>  (44) 
oracle

>  <origin>  (44) 
autodockgpu

>  <m_score__min__energy>  (44) 
-9.1099999999999994

>  <m_primary>  (44) 
energy

>  <rmsd>  (44) 
1.94399441952477

>  <m_score__min__rmsd>  (44) 
1.94399441952477

>  <meeko>  (44) 
{"free_energy": -8.09, "intermolecular_energy": -10.18, "internal_energy": -2.45, "cluster_size": 38, "cluster_id": 1, "rank_in_cluster": 25}

>  <energy>  (44) 
-7.01

>  <cluster_rmsd>  (44) 
0.0

>  <cluster>  (44) 
4

$$$$

     RDKit          3D

 59 62  0  0  0  0  0  0  0  0999 V2000
  140.7770   81.4760  218.9060 O   0  0  0  0  0  0  0  0  0  0  0  0
  140.3610   80.4140  219.4420 C   0  0  0  0  0  0  0  0  0  0  0  0
  139.0700   80.3790  220.0950 N   0  0  0  0  0  0  0  0  0  0  0  0
  138.2070   81.5110  220.1720 C   0  0  0  0  0  0  0  0  0  0  0  0
  137.2410   81.6410  221.2550 C   0  0  0  0  0  0  0  0  0  0  0  0
  136.0250   81.8410  220.8160 O   0  0  0  0  0  0  0  0  0  0  0  0
  137.3660   81.5930  222.6410 N   0  0  0  0  0  0  0  0  0  0  0  0
  137.2870   82.8110  223.4860 C   0  0  0  0  0  0  0  0  0  0  0  0
  136.5770   82.6160  224.7800 C   0  0  0  0  0  0  0  0  0  0  0  0
  136.5630   81.2540  225.3650 C   0  0  0  0  0  0  0  0  0  0  0  0
  136.4210   80.1790  224.3060 C   0  0  0  0  0  0  0  0  0  0  0  0
  137.6250   80.3820  223.3970 C   0  0  1  0  0  0  0  0  0  0  0  0
  137.9630   79.1750  222.6240 C   0  0  0  0  0  0  0  0  0  0  0  0
  139.4020   78.9650  222.5790 N   0  0  0  0  0  0  0  0  0  0  0  0
  140.1650   79.7870  223.4560 C   0  0  0  0  0  0  0  0  0  0  0  0
  140.7350   81.0330  222.8620 C   0  0  0  0  0  0  0  0  0  0  0  0
  142.2500   80.8570  222.7850 C   0  0  0  0  0  0  0  0  0  0  0  0
  142.4360   79.3750  222.7900 C   0  0  0  0  0  0  0  0  0  0  0  0
  141.3980   78.9570  223.8410 C   0  0  0  0  0  0  0  0  0  0  0  0
  141.1540   79.1860  219.4260 C   0  0  0  0  0  0  0  0  0  0  0  0
  142.2260   79.0720  218.5760 C   0  0  0  0  0  0  0  0  0  0  0  0
  142.9550   77.8810  218.5920 C   0  0  0  0  0  0  0  0  0  0  0  0
  142.6260   76.8360  219.4300 C   0  0  0  0  0  0  0  0  0  0  0  0
  143.3340   75.6480  219.4620 C   0  0  0  0  0  0  0  0  0  0  0  0
  142.9300   74.6410  220.3430 C   0  0  0  0  0  0  0  0  0  0  0  0
  143.8020   73.1270  220.4100 Cl  0  0  0  0  0  0  0  0  0  0  0  0
  141.8330   74.8190  221.1800 C   0  0  0  0  0  0  0  0  0  0  0  0
  141.1190   76.0170  221.1480 C   0  0  0  0  0  0  0  0  0  0  0  0
  141.5380   76.9940  220.2700 C   0  0  0  0  0  0  0  0  0  0  0  0
  140.8610   78.1490  220.2290 N   0  0  0  0  0  0  0  0  0  0  0  0
  138.7790   79.4520  220.5300 H   0  0  0  0  0  0  0  0  0  0  0  0
  138.8563   82.3975  220.2229 H   0  0  0  0  0  0  0  0  0  0  0  0
  137.5657   81.3894  219.2866 H   0  0  0  0  0  0  0  0  0  0  0  0
  138.3119   83.1465  223.7029 H   0  0  0  0  0  0  0  0  0  0  0  0
  136.7054   83.5511  222.9168 H   0  0  0  0  0  0  0  0  0  0  0  0
  137.0482   83.2839  225.5161 H   0  0  0  0  0  0  0  0  0  0  0  0
  135.5224   82.8287  224.5508 H   0  0  0  0  0  0  0  0  0  0  0  0
  137.5048   81.0926  225.9100 H   0  0  0  0  0  0  0  0  0  0  0  0
  135.6952   81.1834  226.0372 H   0  0  0  0  0  0  0  0  0  0  0  0
  136.4418   79.1782  224.7620 H   0  0  0  0  0  0  0  0  0  0  0  0
  135.4678   80.2499  223.7616 H   0  0  0  0  0  0  0  0  0  0  0  0
  138.5568   80.5310  223.9622 H   0  0  0  0  0  0  0  0  0  0  0  0
  137.4876   78.3022  223.0953 H   0  0  0  0  0  0  0  0  0  0  0  0
  137.5978   79.3068  221.5948 H   0  0  0  0  0  0  0  0  0  0  0  0
  139.7310   78.9910  221.6100 H   0  0  0  0  0  0  0  0  0  0  0  0
  139.4794   80.0867  224.2623 H   0  0  0  0  0  0  0  0  0  0  0  0
  140.3240   81.1899  221.8538 H   0  0  0  0  0  0  0  0  0  0  0  0
  140.4786   81.9071  223.4786 H   0  0  0  0  0  0  0  0  0  0  0  0
  142.6496   81.2992  221.8605 H   0  0  0  0  0  0  0  0  0  0  0  0
  142.7791   81.3554  223.6106 H   0  0  0  0  0  0  0  0  0  0  0  0
  142.2147   78.9361  221.8059 H   0  0  0  0  0  0  0  0  0  0  0  0
  143.4627   79.0461  223.0086 H   0  0  0  0  0  0  0  0  0  0  0  0
  141.1846   77.8797  223.7795 H   0  0  0  0  0  0  0  0  0  0  0  0
  141.7326   79.1306  224.8744 H   0  0  0  0  0  0  0  0  0  0  0  0
  142.5029   79.8955  217.9014 H   0  0  0  0  0  0  0  0  0  0  0  0
  143.8166   77.7731  217.9167 H   0  0  0  0  0  0  0  0  0  0  0  0
  144.2024   75.4981  218.8036 H   0  0  0  0  0  0  0  0  0  0  0  0
  141.5288   74.0154  221.8667 H   0  0  0  0  0  0  0  0  0  0  0  0
  140.2494   76.1771  221.8024 H   0  0  0  0  0  0  0  0  0  0  0  0
  1  2  2  0
  2  3  1  0
  3  4  1  0
  4  5  1  0
  5  6  2  0
  5  7  1  0
  7  8  1  0
  8  9  1  0
  9 10  1  0
 10 11  1  0
 11 12  1  0
 12 13  1  0
 13 14  1  0
 14 15  1  0
 15 16  1  0
 16 17  1  0
 17 18  1  0
 18 19  1  0
  2 20  1  0
 20 21  2  0
 21 22  1  0
 22 23  2  0
 23 24  1  0
 24 25  2  0
 25 26  1  0
 25 27  1  0
 27 28  2  0
 28 29  1  0
 29 30  2  0
 12  7  1  0
 19 15  1  0
 30 20  1  0
 29 23  1  0
  3 31  1  0
  4 32  1  0
  4 33  1  0
  8 34  1  0
  8 35  1  0
  9 36  1  0
  9 37  1  0
 10 38  1  0
 10 39  1  0
 11 40  1  0
 11 41  1  0
 12 42  1  1
 13 43  1  0
 13 44  1  0
 14 45  1  0
 15 46  1  0
 16 47  1  0
 16 48  1  0
 17 49  1  0
 17 50  1  0
 18 51  1  0
 18 52  1  0
 19 53  1  0
 19 54  1  0
 21 55  1  0
 22 56  1  0
 24 57  1  0
 27 58  1  0
 28 59  1  0
M  END
>  <smiles>  (45) 
O=C(NCC(=O)N1CCCC[C@H]1CNC1CCCC1)c1ccc2cc(Cl)ccc2n1

>  <score_type>  (45) 
oracle

>  <origin>  (45) 
autodockgpu

>  <m_score__min__energy>  (45) 
-9.1099999999999994

>  <m_primary>  (45) 
energy

>  <rmsd>  (45) 
8.143794185704232

>  <m_score__min__rmsd>  (45) 
8.143794185704232

>  <meeko>  (45) 
{"free_energy": -5.4, "intermolecular_energy": -7.49, "internal_energy": -4.4, "cluster_size": 1, "cluster_id": 8, "rank_in_cluster": 1}

>  <energy>  (45) 
-6.48

>  <cluster_rmsd>  (45) 
1.38

>  <cluster>  (45) 
4

$$$$

     RDKit          3D

 59 62  0  0  0  0  0  0  0  0999 V2000
  140.5310   73.9710  222.3290 O   0  0  0  0  0  0  0  0  0  0  0  0
  139.8500   72.9160  222.2260 C   0  0  0  0  0  0  0  0  0  0  0  0
  138.9830   72.7110  221.0860 N   0  0  0  0  0  0  0  0  0  0  0  0
  138.8470   73.6610  220.0310 C   0  0  0  0  0  0  0  0  0  0  0  0
  140.0150   74.1370  219.3010 C   0  0  0  0  0  0  0  0  0  0  0  0
  139.8170   74.1580  218.0080 O   0  0  0  0  0  0  0  0  0  0  0  0
  141.2750   74.5640  219.7110 N   0  0  0  0  0  0  0  0  0  0  0  0
  142.5010   73.7630  219.4660 C   0  0  0  0  0  0  0  0  0  0  0  0
  143.7020   74.5700  219.1160 C   0  0  0  0  0  0  0  0  0  0  0  0
  143.7630   75.9690  219.6010 C   0  0  0  0  0  0  0  0  0  0  0  0
  142.4100   76.6500  219.5550 C   0  0  0  0  0  0  0  0  0  0  0  0
  141.5230   75.7900  220.4450 C   0  0  1  0  0  0  0  0  0  0  0  0
  140.3440   76.5180  220.9440 C   0  0  0  0  0  0  0  0  0  0  0  0
  140.6330   77.1880  222.2030 N   0  0  0  0  0  0  0  0  0  0  0  0
  140.5570   78.6090  222.1670 C   0  0  0  0  0  0  0  0  0  0  0  0
  141.6800   79.3120  221.4780 C   0  0  0  0  0  0  0  0  0  0  0  0
  142.4900   80.0450  222.5460 C   0  0  0  0  0  0  0  0  0  0  0  0
  142.1730   79.3050  223.8030 C   0  0  0  0  0  0  0  0  0  0  0  0
  140.6660   79.0710  223.6280 C   0  0  0  0  0  0  0  0  0  0  0  0
  139.9060   71.8650  223.2410 C   0  0  0  0  0  0  0  0  0  0  0  0
  139.4600   70.6000  222.9440 C   0  0  0  0  0  0  0  0  0  0  0  0
  139.5300   69.6270  223.9440 C   0  0  0  0  0  0  0  0  0  0  0  0
  140.0280   69.9060  225.2000 C   0  0  0  0  0  0  0  0  0  0  0  0
  140.1050   68.9590  226.2040 C   0  0  0  0  0  0  0  0  0  0  0  0
  140.6230   69.3290  227.4480 C   0  0  0  0  0  0  0  0  0  0  0  0
  140.7350   68.1560  228.7400 Cl  0  0  0  0  0  0  0  0  0  0  0  0
  141.0580   70.6290  227.6860 C   0  0  0  0  0  0  0  0  0  0  0  0
  140.9800   71.5850  226.6730 C   0  0  0  0  0  0  0  0  0  0  0  0
  140.4650   71.1940  225.4550 C   0  0  0  0  0  0  0  0  0  0  0  0
  140.3840   72.1030  224.4740 N   0  0  0  0  0  0  0  0  0  0  0  0
  138.4330   71.8000  221.0600 H   0  0  0  0  0  0  0  0  0  0  0  0
  138.1744   73.2095  219.2869 H   0  0  0  0  0  0  0  0  0  0  0  0
  138.5035   74.5636  220.5577 H   0  0  0  0  0  0  0  0  0  0  0  0
  142.7253   73.1895  220.3775 H   0  0  0  0  0  0  0  0  0  0  0  0
  142.2892   73.1217  218.5977 H   0  0  0  0  0  0  0  0  0  0  0  0
  144.5793   74.0443  219.5211 H   0  0  0  0  0  0  0  0  0  0  0  0
  143.6644   74.6594  218.0203 H   0  0  0  0  0  0  0  0  0  0  0  0
  144.1242   75.9684  220.6400 H   0  0  0  0  0  0  0  0  0  0  0  0
  144.4442   76.5260  218.9409 H   0  0  0  0  0  0  0  0  0  0  0  0
  142.4769   77.6757  219.9468 H   0  0  0  0  0  0  0  0  0  0  0  0
  142.0185   76.7362  218.5306 H   0  0  0  0  0  0  0  0  0  0  0  0
  142.0131   75.5207  221.3922 H   0  0  0  0  0  0  0  0  0  0  0  0
  140.0441   77.2691  220.1984 H   0  0  0  0  0  0  0  0  0  0  0  0
  139.5334   75.7939  221.1129 H   0  0  0  0  0  0  0  0  0  0  0  0
  141.5130   76.8380  222.5940 H   0  0  0  0  0  0  0  0  0  0  0  0
  139.6314   78.8485  221.6231 H   0  0  0  0  0  0  0  0  0  0  0  0
  142.3178   78.5814  220.9590 H   0  0  0  0  0  0  0  0  0  0  0  0
  141.2922   80.0215  220.7322 H   0  0  0  0  0  0  0  0  0  0  0  0
  143.5662   79.9968  222.3236 H   0  0  0  0  0  0  0  0  0  0  0  0
  142.2425   81.1150  222.6081 H   0  0  0  0  0  0  0  0  0  0  0  0
  142.7255   78.3558  223.8640 H   0  0  0  0  0  0  0  0  0  0  0  0
  142.4467   79.8374  224.7258 H   0  0  0  0  0  0  0  0  0  0  0  0
  140.3037   78.2936  224.3168 H   0  0  0  0  0  0  0  0  0  0  0  0
  140.0599   79.9623  223.8478 H   0  0  0  0  0  0  0  0  0  0  0  0
  139.0595   70.3603  221.9479 H   0  0  0  0  0  0  0  0  0  0  0  0
  139.1777   68.6085  223.7235 H   0  0  0  0  0  0  0  0  0  0  0  0
  139.7633   67.9286  226.0262 H   0  0  0  0  0  0  0  0  0  0  0  0
  141.4628   70.9026  228.6715 H   0  0  0  0  0  0  0  0  0  0  0  0
  141.3186   72.6181  226.8405 H   0  0  0  0  0  0  0  0  0  0  0  0
  1  2  2  0
  2  3  1  0
  3  4  1  0
  4  5  1  0
  5  6  2  0
  5  7  1  0
  7  8  1  0
  8  9  1  0
  9 10  1  0
 10 11  1  0
 11 12  1  0
 12 13  1  0
 13 14  1  0
 14 15  1  0
 15 16  1  0
 16 17  1  0
 17 18  1  0
 18 19  1  0
  2 20  1  0
 20 21  2  0
 21 22  1  0
 22 23  2  0
 23 24  1  0
 24 25  2  0
 25 26  1  0
 25 27  1  0
 27 28  2  0
 28 29  1  0
 29 30  2  0
 12  7  1  0
 19 15  1  0
 30 20  1  0
 29 23  1  0
  3 31  1  0
  4 32  1  0
  4 33  1  0
  8 34  1  0
  8 35  1  0
  9 36  1  0
  9 37  1  0
 10 38  1  0
 10 39  1  0
 11 40  1  0
 11 41  1  0
 12 42  1  1
 13 43  1  0
 13 44  1  0
 14 45  1  0
 15 46  1  0
 16 47  1  0
 16 48  1  0
 17 49  1  0
 17 50  1  0
 18 51  1  0
 18 52  1  0
 19 53  1  0
 19 54  1  0
 21 55  1  0
 22 56  1  0
 24 57  1  0
 27 58  1  0
 28 59  1  0
M  END
>  <smiles>  (46) 
O=C(NCC(=O)N1CCCC[C@H]1CNC1CCCC1)c1ccc2cc(Cl)ccc2n1

>  <score_type>  (46) 
oracle

>  <origin>  (46) 
autodockgpu

>  <m_score__min__energy>  (46) 
-9.1099999999999994

>  <m_primary>  (46) 
energy

>  <rmsd>  (46) 
2.5781454703345523

>  <m_score__min__rmsd>  (46) 
2.5781454703345523

>  <meeko>  (46) 
{"free_energy": -8.5, "intermolecular_energy": -10.59, "internal_energy": -1.65, "cluster_size": 38, "cluster_id": 1, "rank_in_cluster": 12}

>  <energy>  (46) 
-6.77

>  <cluster_rmsd>  (46) 
0.0

>  <cluster>  (46) 
5

$$$$

     RDKit          3D

 59 62  0  0  0  0  0  0  0  0999 V2000
  139.6410   72.0450  220.6160 O   0  0  0  0  0  0  0  0  0  0  0  0
  139.3220   72.3690  221.7920 C   0  0  0  0  0  0  0  0  0  0  0  0
  138.7590   73.6740  222.0660 N   0  0  0  0  0  0  0  0  0  0  0  0
  138.5310   74.6510  221.0530 C   0  0  0  0  0  0  0  0  0  0  0  0
  139.6130   75.0870  220.1800 C   0  0  0  0  0  0  0  0  0  0  0  0
  139.1810   75.4610  219.0030 O   0  0  0  0  0  0  0  0  0  0  0  0
  140.9910   75.1780  220.3580 N   0  0  0  0  0  0  0  0  0  0  0  0
  141.9000   74.0320  220.1020 C   0  0  0  0  0  0  0  0  0  0  0  0
  143.2000   74.4070  219.4810 C   0  0  0  0  0  0  0  0  0  0  0  0
  143.7130   75.7770  219.7180 C   0  0  0  0  0  0  0  0  0  0  0  0
  142.6040   76.8090  219.7250 C   0  0  0  0  0  0  0  0  0  0  0  0
  141.6750   76.3610  220.8450 C   0  0  1  0  0  0  0  0  0  0  0  0
  140.8330   77.4540  221.3570 C   0  0  0  0  0  0  0  0  0  0  0  0
  141.4150   78.0540  222.5480 N   0  0  0  0  0  0  0  0  0  0  0  0
  142.1920   79.2260  222.3220 C   0  0  0  0  0  0  0  0  0  0  0  0
  142.6590   79.9520  223.5400 C   0  0  0  0  0  0  0  0  0  0  0  0
  141.8980   81.2750  223.6090 C   0  0  0  0  0  0  0  0  0  0  0  0
  140.6680   81.0200  222.8020 C   0  0  0  0  0  0  0  0  0  0  0  0
  141.2530   80.2230  221.6270 C   0  0  0  0  0  0  0  0  0  0  0  0
  139.5050   71.4530  222.9150 C   0  0  0  0  0  0  0  0  0  0  0  0
  139.0850   70.1490  222.8130 C   0  0  0  0  0  0  0  0  0  0  0  0
  139.2770   69.3070  223.9110 C   0  0  0  0  0  0  0  0  0  0  0  0
  139.8700   69.7510  225.0740 C   0  0  0  0  0  0  0  0  0  0  0  0
  140.0700   68.9360  226.1730 C   0  0  0  0  0  0  0  0  0  0  0  0
  140.6790   69.4690  227.3130 C   0  0  0  0  0  0  0  0  0  0  0  0
  140.9470   68.4660  228.7190 Cl  0  0  0  0  0  0  0  0  0  0  0  0
  141.0830   70.7990  227.3530 C   0  0  0  0  0  0  0  0  0  0  0  0
  140.8810   71.6230  226.2450 C   0  0  0  0  0  0  0  0  0  0  0  0
  140.2790   71.0720  225.1340 C   0  0  0  0  0  0  0  0  0  0  0  0
  140.0790   71.8520  224.0630 N   0  0  0  0  0  0  0  0  0  0  0  0
  138.5140   73.8860  223.0800 H   0  0  0  0  0  0  0  0  0  0  0  0
  137.7438   74.2473  220.3993 H   0  0  0  0  0  0  0  0  0  0  0  0
  138.3061   75.5574  221.6343 H   0  0  0  0  0  0  0  0  0  0  0  0
  142.1072   73.5358  221.0616 H   0  0  0  0  0  0  0  0  0  0  0  0
  141.3856   73.3767  219.3837 H   0  0  0  0  0  0  0  0  0  0  0  0
  143.9576   73.7040  219.8576 H   0  0  0  0  0  0  0  0  0  0  0  0
  143.0096   74.3676  218.3983 H   0  0  0  0  0  0  0  0  0  0  0  0
  144.2250   75.8003  220.6913 H   0  0  0  0  0  0  0  0  0  0  0  0
  144.4020   76.0267  218.8977 H   0  0  0  0  0  0  0  0  0  0  0  0
  143.0069   77.8116  219.9314 H   0  0  0  0  0  0  0  0  0  0  0  0
  142.0888   76.8766  218.7555 H   0  0  0  0  0  0  0  0  0  0  0  0
  142.2219   76.0816  221.7576 H   0  0  0  0  0  0  0  0  0  0  0  0
  140.7339   78.2251  220.5788 H   0  0  0  0  0  0  0  0  0  0  0  0
  139.8486   77.0404  221.6213 H   0  0  0  0  0  0  0  0  0  0  0  0
  141.9050   77.3410  223.0970 H   0  0  0  0  0  0  0  0  0  0  0  0
  143.0844   78.8956  221.7702 H   0  0  0  0  0  0  0  0  0  0  0  0
  142.4500   79.3517  224.4378 H   0  0  0  0  0  0  0  0  0  0  0  0
  143.7431   80.1319  223.4908 H   0  0  0  0  0  0  0  0  0  0  0  0
  141.6399   81.5250  224.6486 H   0  0  0  0  0  0  0  0  0  0  0  0
  142.4861   82.1246  223.2317 H   0  0  0  0  0  0  0  0  0  0  0  0
  139.9304   80.4288  223.3645 H   0  0  0  0  0  0  0  0  0  0  0  0
  140.1205   81.9277  222.5082 H   0  0  0  0  0  0  0  0  0  0  0  0
  140.4614   79.6994  221.0709 H   0  0  0  0  0  0  0  0  0  0  0  0
  141.7629   80.8548  220.8847 H   0  0  0  0  0  0  0  0  0  0  0  0
  138.6107   69.7782  221.8924 H   0  0  0  0  0  0  0  0  0  0  0  0
  138.9457   68.2601  223.8460 H   0  0  0  0  0  0  0  0  0  0  0  0
  139.7542   67.8825  226.1506 H   0  0  0  0  0  0  0  0  0  0  0  0
  141.5617   71.2015  228.2579 H   0  0  0  0  0  0  0  0  0  0  0  0
  141.1921   72.6780  226.2577 H   0  0  0  0  0  0  0  0  0  0  0  0
  1  2  2  0
  2  3  1  0
  3  4  1  0
  4  5  1  0
  5  6  2  0
  5  7  1  0
  7  8  1  0
  8  9  1  0
  9 10  1  0
 10 11  1  0
 11 12  1  0
 12 13  1  0
 13 14  1  0
 14 15  1  0
 15 16  1  0
 16 17  1  0
 17 18  1  0
 18 19  1  0
  2 20  1  0
 20 21  2  0
 21 22  1  0
 22 23  2  0
 23 24  1  0
 24 25  2  0
 25 26  1  0
 25 27  1  0
 27 28  2  0
 28 29  1  0
 29 30  2  0
 12  7  1  0
 19 15  1  0
 30 20  1  0
 29 23  1  0
  3 31  1  0
  4 32  1  0
  4 33  1  0
  8 34  1  0
  8 35  1  0
  9 36  1  0
  9 37  1  0
 10 38  1  0
 10 39  1  0
 11 40  1  0
 11 41  1  0
 12 42  1  1
 13 43  1  0
 13 44  1  0
 14 45  1  0
 15 46  1  0
 16 47  1  0
 16 48  1  0
 17 49  1  0
 17 50  1  0
 18 51  1  0
 18 52  1  0
 19 53  1  0
 19 54  1  0
 21 55  1  0
 22 56  1  0
 24 57  1  0
 27 58  1  0
 28 59  1  0
M  END
>  <smiles>  (47) 
O=C(NCC(=O)N1CCCC[C@H]1CNC1CCCC1)c1ccc2cc(Cl)ccc2n1

>  <score_type>  (47) 
oracle

>  <origin>  (47) 
autodockgpu

>  <m_score__min__energy>  (47) 
-9.1099999999999994

>  <m_primary>  (47) 
energy

>  <rmsd>  (47) 
2.3358504575046912

>  <m_score__min__rmsd>  (47) 
2.3358504575046912

>  <meeko>  (47) 
{"free_energy": -8.81, "intermolecular_energy": -10.89, "internal_energy": -1.67, "cluster_size": 38, "cluster_id": 1, "rank_in_cluster": 2}

>  <energy>  (47) 
-5.51

>  <cluster_rmsd>  (47) 
1.98

>  <cluster>  (47) 
5

$$$$

     RDKit          3D

 59 62  0  0  0  0  0  0  0  0999 V2000
  140.2060   72.2300  220.6700 O   0  0  0  0  0  0  0  0  0  0  0  0
  139.9910   72.5760  221.8630 C   0  0  0  0  0  0  0  0  0  0  0  0
  139.7420   73.9640  222.1900 N   0  0  0  0  0  0  0  0  0  0  0  0
  139.7220   75.0020  221.2120 C   0  0  0  0  0  0  0  0  0  0  0  0
  140.2820   76.3150  221.5060 C   0  0  0  0  0  0  0  0  0  0  0  0
  140.1330   76.6480  222.7620 O   0  0  0  0  0  0  0  0  0  0  0  0
  140.9300   77.2610  220.7180 N   0  0  0  0  0  0  0  0  0  0  0  0
  142.2340   76.9880  220.0630 C   0  0  0  0  0  0  0  0  0  0  0  0
  142.3720   77.5690  218.6990 C   0  0  0  0  0  0  0  0  0  0  0  0
  141.5680   78.7720  218.3750 C   0  0  0  0  0  0  0  0  0  0  0  0
  140.1840   78.7170  218.9890 C   0  0  0  0  0  0  0  0  0  0  0  0
  140.4380   78.6060  220.4860 C   0  0  1  0  0  0  0  0  0  0  0  0
  139.2860   79.0420  221.2920 C   0  0  0  0  0  0  0  0  0  0  0  0
  139.6260   79.1040  222.7050 N   0  0  0  0  0  0  0  0  0  0  0  0
  140.2380   80.3170  223.1310 C   0  0  0  0  0  0  0  0  0  0  0  0
  140.6850   81.2450  222.0490 C   0  0  0  0  0  0  0  0  0  0  0  0
  142.2120   81.2520  222.0480 C   0  0  0  0  0  0  0  0  0  0  0  0
  142.5740   79.9570  222.6970 C   0  0  0  0  0  0  0  0  0  0  0  0
  141.5410   79.9050  223.8320 C   0  0  0  0  0  0  0  0  0  0  0  0
  139.9820   71.6040  222.9550 C   0  0  0  0  0  0  0  0  0  0  0  0
  139.4840   70.3410  222.7450 C   0  0  0  0  0  0  0  0  0  0  0  0
  139.4930   69.4450  223.8150 C   0  0  0  0  0  0  0  0  0  0  0  0
  139.9840   69.7950  225.0560 C   0  0  0  0  0  0  0  0  0  0  0  0
  140.0030   68.9230  226.1300 C   0  0  0  0  0  0  0  0  0  0  0  0
  140.5180   69.3630  227.3520 C   0  0  0  0  0  0  0  0  0  0  0  0
  140.5570   68.2870  228.7290 Cl  0  0  0  0  0  0  0  0  0  0  0  0
  141.0090   70.6560  227.5000 C   0  0  0  0  0  0  0  0  0  0  0  0
  140.9910   71.5360  226.4170 C   0  0  0  0  0  0  0  0  0  0  0  0
  140.4770   71.0780  225.2230 C   0  0  0  0  0  0  0  0  0  0  0  0
  140.4530   71.9120  224.1750 N   0  0  0  0  0  0  0  0  0  0  0  0
  139.5700   74.1910  223.2150 H   0  0  0  0  0  0  0  0  0  0  0  0
  140.2654   74.6182  220.3360 H   0  0  0  0  0  0  0  0  0  0  0  0
  138.6481   75.2136  221.1025 H   0  0  0  0  0  0  0  0  0  0  0  0
  143.0309   77.4048  220.6965 H   0  0  0  0  0  0  0  0  0  0  0  0
  142.3042   75.8964  219.9473 H   0  0  0  0  0  0  0  0  0  0  0  0
  143.4304   77.8350  218.5613 H   0  0  0  0  0  0  0  0  0  0  0  0
  141.9869   76.7891  218.0256 H   0  0  0  0  0  0  0  0  0  0  0  0
  142.0905   79.6611  218.7579 H   0  0  0  0  0  0  0  0  0  0  0  0
  141.4514   78.8163  217.2821 H   0  0  0  0  0  0  0  0  0  0  0  0
  139.6186   79.6316  218.7569 H   0  0  0  0  0  0  0  0  0  0  0  0
  139.5866   77.8785  218.6018 H   0  0  0  0  0  0  0  0  0  0  0  0
  141.2082   79.3101  220.8340 H   0  0  0  0  0  0  0  0  0  0  0  0
  138.9695   80.0401  220.9550 H   0  0  0  0  0  0  0  0  0  0  0  0
  138.4731   78.3126  221.1610 H   0  0  0  0  0  0  0  0  0  0  0  0
  140.1500   78.2680  222.9780 H   0  0  0  0  0  0  0  0  0  0  0  0
  139.4803   80.8438  223.7296 H   0  0  0  0  0  0  0  0  0  0  0  0
  140.3109   80.8943  221.0758 H   0  0  0  0  0  0  0  0  0  0  0  0
  140.2943   82.2584  222.2235 H   0  0  0  0  0  0  0  0  0  0  0  0
  142.6031   81.2985  221.0209 H   0  0  0  0  0  0  0  0  0  0  0  0
  142.6340   82.1228  222.5711 H   0  0  0  0  0  0  0  0  0  0  0  0
  142.4572   79.1105  222.0043 H   0  0  0  0  0  0  0  0  0  0  0  0
  143.6203   79.8915  223.0302 H   0  0  0  0  0  0  0  0  0  0  0  0
  141.4621   78.8901  224.2488 H   0  0  0  0  0  0  0  0  0  0  0  0
  141.7989   80.5520  224.6834 H   0  0  0  0  0  0  0  0  0  0  0  0
  139.0895   70.0445  221.7619 H   0  0  0  0  0  0  0  0  0  0  0  0
  139.0970   68.4299  223.6645 H   0  0  0  0  0  0  0  0  0  0  0  0
  139.6182   67.8980  226.0233 H   0  0  0  0  0  0  0  0  0  0  0  0
  141.4111   70.9846  228.4697 H   0  0  0  0  0  0  0  0  0  0  0  0
  141.3748   72.5624  226.5133 H   0  0  0  0  0  0  0  0  0  0  0  0
  1  2  2  0
  2  3  1  0
  3  4  1  0
  4  5  1  0
  5  6  2  0
  5  7  1  0
  7  8  1  0
  8  9  1  0
  9 10  1  0
 10 11  1  0
 11 12  1  0
 12 13  1  0
 13 14  1  0
 14 15  1  0
 15 16  1  0
 16 17  1  0
 17 18  1  0
 18 19  1  0
  2 20  1  0
 20 21  2  0
 21 22  1  0
 22 23  2  0
 23 24  1  0
 24 25  2  0
 25 26  1  0
 25 27  1  0
 27 28  2  0
 28 29  1  0
 29 30  2  0
 12  7  1  0
 19 15  1  0
 30 20  1  0
 29 23  1  0
  3 31  1  0
  4 32  1  0
  4 33  1  0
  8 34  1  0
  8 35  1  0
  9 36  1  0
  9 37  1  0
 10 38  1  0
 10 39  1  0
 11 40  1  0
 11 41  1  0
 12 42  1  1
 13 43  1  0
 13 44  1  0
 14 45  1  0
 15 46  1  0
 16 47  1  0
 16 48  1  0
 17 49  1  0
 17 50  1  0
 18 51  1  0
 18 52  1  0
 19 53  1  0
 19 54  1  0
 21 55  1  0
 22 56  1  0
 24 57  1  0
 27 58  1  0
 28 59  1  0
M  END
>  <smiles>  (48) 
O=C(NCC(=O)N1CCCC[C@H]1CNC1CCCC1)c1ccc2cc(Cl)ccc2n1

>  <score_type>  (48) 
oracle

>  <origin>  (48) 
autodockgpu

>  <m_score__min__energy>  (48) 
-9.1099999999999994

>  <m_primary>  (48) 
energy

>  <rmsd>  (48) 
2.336185715917625

>  <m_score__min__rmsd>  (48) 
2.336185715917625

>  <meeko>  (48) 
{"free_energy": -8.13, "intermolecular_energy": -10.22, "internal_energy": -2.59, "cluster_size": 38, "cluster_id": 1, "rank_in_cluster": 23}

>  <energy>  (48) 
-6.48

>  <cluster_rmsd>  (48) 
0.0

>  <cluster>  (48) 
6

$$$$

     RDKit          3D

 59 62  0  0  0  0  0  0  0  0999 V2000
  140.9230   72.8260  221.0240 O   0  0  0  0  0  0  0  0  0  0  0  0
  140.1790   72.9440  222.0350 C   0  0  0  0  0  0  0  0  0  0  0  0
  139.3300   74.1060  222.1880 N   0  0  0  0  0  0  0  0  0  0  0  0
  139.2790   75.1640  221.2330 C   0  0  0  0  0  0  0  0  0  0  0  0
  140.4610   75.9650  220.9420 C   0  0  0  0  0  0  0  0  0  0  0  0
  141.4350   75.7350  221.7850 O   0  0  0  0  0  0  0  0  0  0  0  0
  140.7420   76.9090  219.9590 N   0  0  0  0  0  0  0  0  0  0  0  0
  140.1730   78.2800  219.9910 C   0  0  0  0  0  0  0  0  0  0  0  0
  141.1100   79.3450  219.5380 C   0  0  0  0  0  0  0  0  0  0  0  0
  142.1870   78.9640  218.5930 C   0  0  0  0  0  0  0  0  0  0  0  0
  142.7600   77.5960  218.9000 C   0  0  0  0  0  0  0  0  0  0  0  0
  141.5690   76.6540  218.7940 C   0  0  1  0  0  0  0  0  0  0  0  0
  141.9680   75.2570  218.5550 C   0  0  0  0  0  0  0  0  0  0  0  0
  142.8560   74.7760  219.6020 N   0  0  0  0  0  0  0  0  0  0  0  0
  143.9380   73.9640  219.1580 C   0  0  0  0  0  0  0  0  0  0  0  0
  143.6910   72.4920  219.1340 C   0  0  0  0  0  0  0  0  0  0  0  0
  144.5420   71.8620  220.2350 C   0  0  0  0  0  0  0  0  0  0  0  0
  144.7860   72.9890  221.1830 C   0  0  0  0  0  0  0  0  0  0  0  0
  145.0500   74.1400  220.2020 C   0  0  0  0  0  0  0  0  0  0  0  0
  140.1410   71.9260  223.0820 C   0  0  0  0  0  0  0  0  0  0  0  0
  139.6430   70.6750  222.8050 C   0  0  0  0  0  0  0  0  0  0  0  0
  139.6230   69.7320  223.8350 C   0  0  0  0  0  0  0  0  0  0  0  0
  140.0850   70.0260  225.1020 C   0  0  0  0  0  0  0  0  0  0  0  0
  140.0740   69.1080  226.1360 C   0  0  0  0  0  0  0  0  0  0  0  0
  140.5610   69.4910  227.3890 C   0  0  0  0  0  0  0  0  0  0  0  0
  140.5620   68.3560  228.7180 Cl  0  0  0  0  0  0  0  0  0  0  0  0
  141.0520   70.7750  227.6050 C   0  0  0  0  0  0  0  0  0  0  0  0
  141.0630   71.7010  226.5620 C   0  0  0  0  0  0  0  0  0  0  0  0
  140.5770   71.2980  225.3360 C   0  0  0  0  0  0  0  0  0  0  0  0
  140.5820   72.1780  224.3250 N   0  0  0  0  0  0  0  0  0  0  0  0
  138.7280   74.1470  223.0650 H   0  0  0  0  0  0  0  0  0  0  0  0
  138.9643   74.7120  220.2808 H   0  0  0  0  0  0  0  0  0  0  0  0
  138.6038   75.8900  221.7094 H   0  0  0  0  0  0  0  0  0  0  0  0
  139.2875   78.3004  219.3387 H   0  0  0  0  0  0  0  0  0  0  0  0
  139.9355   78.4971  221.0429 H   0  0  0  0  0  0  0  0  0  0  0  0
  140.5077   80.1261  219.0509 H   0  0  0  0  0  0  0  0  0  0  0  0
  141.6400   79.6535  220.4512 H   0  0  0  0  0  0  0  0  0  0  0  0
  141.7762   78.9552  217.5726 H   0  0  0  0  0  0  0  0  0  0  0  0
  142.9986   79.6999  218.6915 H   0  0  0  0  0  0  0  0  0  0  0  0
  143.5361   77.3260  218.1687 H   0  0  0  0  0  0  0  0  0  0  0  0
  143.2403   77.5549  219.8887 H   0  0  0  0  0  0  0  0  0  0  0  0
  140.9596   76.8484  217.8991 H   0  0  0  0  0  0  0  0  0  0  0  0
  141.0673   74.6260  218.5307 H   0  0  0  0  0  0  0  0  0  0  0  0
  142.5030   75.2074  217.5951 H   0  0  0  0  0  0  0  0  0  0  0  0
  142.3110   74.3480  220.3560 H   0  0  0  0  0  0  0  0  0  0  0  0
  144.1506   74.2823  218.1268 H   0  0  0  0  0  0  0  0  0  0  0  0
  142.6263   72.2874  219.3197 H   0  0  0  0  0  0  0  0  0  0  0  0
  143.9568   72.0720  218.1527 H   0  0  0  0  0  0  0  0  0  0  0  0
  143.9992   71.0435  220.7303 H   0  0  0  0  0  0  0  0  0  0  0  0
  145.4728   71.4179  219.8525 H   0  0  0  0  0  0  0  0  0  0  0  0
  143.9051   73.1870  221.8114 H   0  0  0  0  0  0  0  0  0  0  0  0
  145.5979   72.8099  221.9032 H   0  0  0  0  0  0  0  0  0  0  0  0
  144.9696   75.1149  220.7051 H   0  0  0  0  0  0  0  0  0  0  0  0
  146.0605   74.1172  219.7679 H   0  0  0  0  0  0  0  0  0  0  0  0
  139.2709   70.4239  221.8008 H   0  0  0  0  0  0  0  0  0  0  0  0
  139.2277   68.7260  223.6307 H   0  0  0  0  0  0  0  0  0  0  0  0
  139.6875   68.0908  225.9748 H   0  0  0  0  0  0  0  0  0  0  0  0
  141.4312   71.0595  228.5976 H   0  0  0  0  0  0  0  0  0  0  0  0
  141.4473   72.7206  226.7126 H   0  0  0  0  0  0  0  0  0  0  0  0
  1  2  2  0
  2  3  1  0
  3  4  1  0
  4  5  1  0
  5  6  2  0
  5  7  1  0
  7  8  1  0
  8  9  1  0
  9 10  1  0
 10 11  1  0
 11 12  1  0
 12 13  1  0
 13 14  1  0
 14 15  1  0
 15 16  1  0
 16 17  1  0
 17 18  1  0
 18 19  1  0
  2 20  1  0
 20 21  2  0
 21 22  1  0
 22 23  2  0
 23 24  1  0
 24 25  2  0
 25 26  1  0
 25 27  1  0
 27 28  2  0
 28 29  1  0
 29 30  2  0
 12  7  1  0
 19 15  1  0
 30 20  1  0
 29 23  1  0
  3 31  1  0
  4 32  1  0
  4 33  1  0
  8 34  1  0
  8 35  1  0
  9 36  1  0
  9 37  1  0
 10 38  1  0
 10 39  1  0
 11 40  1  0
 11 41  1  0
 12 42  1  6
 13 43  1  0
 13 44  1  0
 14 45  1  0
 15 46  1  0
 16 47  1  0
 16 48  1  0
 17 49  1  0
 17 50  1  0
 18 51  1  0
 18 52  1  0
 19 53  1  0
 19 54  1  0
 21 55  1  0
 22 56  1  0
 24 57  1  0
 27 58  1  0
 28 59  1  0
M  END
>  <smiles>  (49) 
O=C(NCC(=O)N1CCCC[C@H]1CNC1CCCC1)c1ccc2cc(Cl)ccc2n1

>  <score_type>  (49) 
oracle

>  <origin>  (49) 
autodockgpu

>  <m_score__min__energy>  (49) 
-9.1099999999999994

>  <m_primary>  (49) 
energy

>  <rmsd>  (49) 
4.508162207949157

>  <m_score__min__rmsd>  (49) 
4.508162207949157

>  <meeko>  (49) 
{"free_energy": -7.36, "intermolecular_energy": -9.45, "internal_energy": -3.24, "cluster_size": 38, "cluster_id": 1, "rank_in_cluster": 35}

>  <energy>  (49) 
-6.18

>  <cluster_rmsd>  (49) 
0.0

>  <cluster>  (49) 
7

$$$$

     RDKit          3D

 59 62  0  0  0  0  0  0  0  0999 V2000
  141.7980   72.3070  220.8790 O   0  0  0  0  0  0  0  0  0  0  0  0
  141.2010   73.1790  221.5670 C   0  0  0  0  0  0  0  0  0  0  0  0
  140.3420   72.7850  222.6630 N   0  0  0  0  0  0  0  0  0  0  0  0
  140.1200   71.4240  223.0280 C   0  0  0  0  0  0  0  0  0  0  0  0
  139.5990   71.0800  224.3440 C   0  0  0  0  0  0  0  0  0  0  0  0
  138.3780   71.5140  224.5230 O   0  0  0  0  0  0  0  0  0  0  0  0
  140.1440   70.3930  225.4250 N   0  0  0  0  0  0  0  0  0  0  0  0
  140.9840   71.0640  226.4480 C   0  0  0  0  0  0  0  0  0  0  0  0
  140.7630   70.5800  227.8390 C   0  0  0  0  0  0  0  0  0  0  0  0
  140.2610   69.1970  228.0200 C   0  0  0  0  0  0  0  0  0  0  0  0
  139.2460   68.8140  226.9620 C   0  0  0  0  0  0  0  0  0  0  0  0
  139.9930   68.9670  225.6460 C   0  0  1  0  0  0  0  0  0  0  0  0
  139.3890   68.1850  224.5550 C   0  0  0  0  0  0  0  0  0  0  0  0
  138.0300   68.6260  224.2800 N   0  0  0  0  0  0  0  0  0  0  0  0
  137.4920   68.2010  223.0320 C   0  0  0  0  0  0  0  0  0  0  0  0
  138.1860   67.0550  222.3720 C   0  0  0  0  0  0  0  0  0  0  0  0
  138.8890   67.5960  221.1280 C   0  0  0  0  0  0  0  0  0  0  0  0
  139.0570   69.0500  221.4190 C   0  0  0  0  0  0  0  0  0  0  0  0
  137.7020   69.3740  222.0640 C   0  0  0  0  0  0  0  0  0  0  0  0
  141.3500   74.6060  221.2930 C   0  0  0  0  0  0  0  0  0  0  0  0
  142.1420   75.0260  220.2520 C   0  0  0  0  0  0  0  0  0  0  0  0
  142.2580   76.3990  220.0260 C   0  0  0  0  0  0  0  0  0  0  0  0
  141.6050   77.3260  220.8120 C   0  0  0  0  0  0  0  0  0  0  0  0
  141.7070   78.6890  220.6070 C   0  0  0  0  0  0  0  0  0  0  0  0
  141.0110   79.5570  221.4530 C   0  0  0  0  0  0  0  0  0  0  0  0
  141.1160   81.2860  221.2220 Cl  0  0  0  0  0  0  0  0  0  0  0  0
  140.2240   79.0680  222.4910 C   0  0  0  0  0  0  0  0  0  0  0  0
  140.1220   77.6920  222.6990 C   0  0  0  0  0  0  0  0  0  0  0  0
  140.8180   76.8580  221.8510 C   0  0  0  0  0  0  0  0  0  0  0  0
  140.7290   75.5350  222.0390 N   0  0  0  0  0  0  0  0  0  0  0  0
  139.8650   73.5690  223.2030 H   0  0  0  0  0  0  0  0  0  0  0  0
  139.4117   71.0137  222.2932 H   0  0  0  0  0  0  0  0  0  0  0  0
  141.1383   71.0088  223.0526 H   0  0  0  0  0  0  0  0  0  0  0  0
  142.0401   70.8973  226.1894 H   0  0  0  0  0  0  0  0  0  0  0  0
  140.7027   72.1274  226.4371 H   0  0  0  0  0  0  0  0  0  0  0  0
  141.7251   70.6512  228.3675 H   0  0  0  0  0  0  0  0  0  0  0  0
  139.9574   71.2194  228.2292 H   0  0  0  0  0  0  0  0  0  0  0  0
  141.1112   68.5012  227.9638 H   0  0  0  0  0  0  0  0  0  0  0  0
  139.7643   69.1433  229.0000 H   0  0  0  0  0  0  0  0  0  0  0  0
  138.9121   67.7752  227.1013 H   0  0  0  0  0  0  0  0  0  0  0  0
  138.3410   69.4378  227.0047 H   0  0  0  0  0  0  0  0  0  0  0  0
  140.9993   68.5241  225.6817 H   0  0  0  0  0  0  0  0  0  0  0  0
  139.9968   68.3082  223.6464 H   0  0  0  0  0  0  0  0  0  0  0  0
  139.3569   67.1288  224.8605 H   0  0  0  0  0  0  0  0  0  0  0  0
  137.9510   69.6360  224.4330 H   0  0  0  0  0  0  0  0  0  0  0  0
  136.4576   67.8892  223.2390 H   0  0  0  0  0  0  0  0  0  0  0  0
  138.9245   66.6171  223.0597 H   0  0  0  0  0  0  0  0  0  0  0  0
  137.4640   66.2717  222.0981 H   0  0  0  0  0  0  0  0  0  0  0  0
  139.8652   67.1092  220.9865 H   0  0  0  0  0  0  0  0  0  0  0  0
  138.3223   67.4095  220.2038 H   0  0  0  0  0  0  0  0  0  0  0  0
  139.8897   69.2298  222.1149 H   0  0  0  0  0  0  0  0  0  0  0  0
  139.3011   69.6647  220.5400 H   0  0  0  0  0  0  0  0  0  0  0  0
  137.7402   70.3311  222.6048 H   0  0  0  0  0  0  0  0  0  0  0  0
  136.8882   69.4834  221.3320 H   0  0  0  0  0  0  0  0  0  0  0  0
  142.6698   74.3013  219.6146 H   0  0  0  0  0  0  0  0  0  0  0  0
  142.8887   76.7520  219.1968 H   0  0  0  0  0  0  0  0  0  0  0  0
  142.3273   79.0851  219.7895 H   0  0  0  0  0  0  0  0  0  0  0  0
  139.6827   79.7655  223.1471 H   0  0  0  0  0  0  0  0  0  0  0  0
  139.5054   77.2857  223.5143 H   0  0  0  0  0  0  0  0  0  0  0  0
  1  2  2  0
  2  3  1  0
  3  4  1  0
  4  5  1  0
  5  6  2  0
  5  7  1  0
  7  8  1  0
  8  9  1  0
  9 10  1  0
 10 11  1  0
 11 12  1  0
 12 13  1  0
 13 14  1  0
 14 15  1  0
 15 16  1  0
 16 17  1  0
 17 18  1  0
 18 19  1  0
  2 20  1  0
 20 21  2  0
 21 22  1  0
 22 23  2  0
 23 24  1  0
 24 25  2  0
 25 26  1  0
 25 27  1  0
 27 28  2  0
 28 29  1  0
 29 30  2  0
 12  7  1  0
 19 15  1  0
 30 20  1  0
 29 23  1  0
  3 31  1  0
  4 32  1  0
  4 33  1  0
  8 34  1  0
  8 35  1  0
  9 36  1  0
  9 37  1  0
 10 38  1  0
 10 39  1  0
 11 40  1  0
 11 41  1  0
 12 42  1  1
 13 43  1  0
 13 44  1  0
 14 45  1  0
 15 46  1  0
 16 47  1  0
 16 48  1  0
 17 49  1  0
 17 50  1  0
 18 51  1  0
 18 52  1  0
 19 53  1  0
 19 54  1  0
 21 55  1  0
 22 56  1  0
 24 57  1  0
 27 58  1  0
 28 59  1  0
M  END
>  <smiles>  (50) 
O=C(NCC(=O)N1CCCC[C@H]1CNC1CCCC1)c1ccc2cc(Cl)ccc2n1

>  <score_type>  (50) 
oracle

>  <origin>  (50) 
autodockgpu

>  <m_score__min__energy>  (50) 
-9.1099999999999994

>  <m_primary>  (50) 
energy

>  <rmsd>  (50) 
9.873033121224895

>  <m_score__min__rmsd>  (50) 
9.873033121224895

>  <meeko>  (50) 
{"free_energy": -7.04, "intermolecular_energy": -9.13, "internal_energy": -2.56, "cluster_size": 2, "cluster_id": 3, "rank_in_cluster": 2}

>  <energy>  (50) 
-5.4

>  <cluster_rmsd>  (50) 
0.0

>  <cluster>  (50) 
8

$$$$
