
     RDKit          3D

 48 51  0  0  0  0  0  0  0  0999 V2000
  138.0150   70.8400  221.8100 O   0  0  0  0  0  0  0  0  0  0  0  0
  138.7410   71.3240  222.7270 C   0  0  0  0  0  0  0  0  0  0  0  0
  139.2270   72.6620  222.7000 N   0  0  0  0  0  0  0  0  0  0  0  0
  138.8580   73.4970  221.5540 C   0  0  0  0  0  0  0  0  0  0  0  0
  139.8960   74.4950  221.2650 C   0  0  0  0  0  0  0  0  0  0  0  0
  140.8130   74.6110  222.1630 O   0  0  0  0  0  0  0  0  0  0  0  0
  140.0280   75.3340  220.1560 N   0  0  0  0  0  0  0  0  0  0  0  0
  139.5290   74.8350  218.8220 C   0  0  0  0  0  0  0  0  0  0  0  0
  139.0710   76.0640  218.0910 C   0  0  1  0  0  0  0  0  0  0  0  0
  137.7620   75.9880  217.6710 F   0  0  0  0  0  0  0  0  0  0  0  0
  139.2520   77.1910  219.1170 C   0  0  0  0  0  0  0  0  0  0  0  0
  140.4920   76.6290  219.8420 C   0  0  1  0  0  0  0  0  0  0  0  0
  140.9570   77.5290  220.8750 C   0  0  0  0  0  0  0  0  0  0  0  0
  140.7900   77.4100  222.2220 C   0  0  0  0  0  0  0  0  0  0  0  0
  141.2510   78.3230  223.1510 C   0  0  0  0  0  0  0  0  0  0  0  0
  141.9340   79.4410  222.7240 C   0  0  0  0  0  0  0  0  0  0  0  0
  142.5450   80.6380  223.8450 Cl  0  0  0  0  0  0  0  0  0  0  0  0
  142.1260   79.6010  221.3680 C   0  0  0  0  0  0  0  0  0  0  0  0
  141.6570   78.6800  220.4570 C   0  0  0  0  0  0  0  0  0  0  0  0
  139.1130   70.4830  223.8830 C   0  0  0  0  0  0  0  0  0  0  0  0
  138.8290   69.1280  223.8710 C   0  0  0  0  0  0  0  0  0  0  0  0
  139.1740   68.3240  224.9560 C   0  0  0  0  0  0  0  0  0  0  0  0
  139.8020   68.8720  226.0460 C   0  0  0  0  0  0  0  0  0  0  0  0
  140.1660   68.1290  227.1460 C   0  0  0  0  0  0  0  0  0  0  0  0
  140.7950   68.7540  228.2050 C   0  0  0  0  0  0  0  0  0  0  0  0
  141.1790   68.0700  229.3210 F   0  0  0  0  0  0  0  0  0  0  0  0
  141.0740   70.1170  228.2030 C   0  0  0  0  0  0  0  0  0  0  0  0
  140.6890   70.8230  227.0800 C   0  0  0  0  0  0  0  0  0  0  0  0
  140.0600   70.2320  226.0020 C   0  0  0  0  0  0  0  0  0  0  0  0
  139.7280   71.0020  224.9600 N   0  0  0  0  0  0  0  0  0  0  0  0
  139.8280   73.0280  223.4800 H   0  0  0  0  0  0  0  0  0  0  0  0
  138.7228   72.8546  220.6713 H   0  0  0  0  0  0  0  0  0  0  0  0
  137.9249   74.0266  221.7963 H   0  0  0  0  0  0  0  0  0  0  0  0
  140.3384   74.3360  218.2690 H   0  0  0  0  0  0  0  0  0  0  0  0
  138.7210   74.0970  218.9341 H   0  0  0  0  0  0  0  0  0  0  0  0
  139.6456   76.2158  217.1653 H   0  0  0  0  0  0  0  0  0  0  0  0
  139.4537   78.1608  218.6386 H   0  0  0  0  0  0  0  0  0  0  0  0
  138.3805   77.4086  219.7519 H   0  0  0  0  0  0  0  0  0  0  0  0
  141.4431   76.5486  219.2952 H   0  0  0  0  0  0  0  0  0  0  0  0
  140.2513   76.5266  222.5954 H   0  0  0  0  0  0  0  0  0  0  0  0
  141.0740   78.1585  224.2241 H   0  0  0  0  0  0  0  0  0  0  0  0
  142.6675   80.4867  221.0042 H   0  0  0  0  0  0  0  0  0  0  0  0
  141.8317   78.8454  219.3836 H   0  0  0  0  0  0  0  0  0  0  0  0
  138.3275   68.6828  222.9990 H   0  0  0  0  0  0  0  0  0  0  0  0
  138.9425   67.2488  224.9384 H   0  0  0  0  0  0  0  0  0  0  0  0
  139.9583   67.0494  227.1813 H   0  0  0  0  0  0  0  0  0  0  0  0
  141.5749   70.6066  229.0512 H   0  0  0  0  0  0  0  0  0  0  0  0
  140.8923   71.9034  227.0427 H   0  0  0  0  0  0  0  0  0  0  0  0
  1  2  2  0
  2  3  1  0
  3  4  1  0
  4  5  1  0
  5  6  2  0
  5  7  1  0
  7  8  1  0
  8  9  1  0
  9 10  1  0
  9 11  1  0
 11 12  1  0
 12 13  1  0
 13 14  2  0
 14 15  1  0
 15 16  2  0
 16 17  1  0
 16 18  1  0
 18 19  2  0
  2 20  1  0
 20 21  2  0
 21 22  1  0
 22 23  2  0
 23 24  1  0
 24 25  2  0
 25 26  1  0
 25 27  1  0
 27 28  2  0
 28 29  1  0
 29 30  2  0
 12  7  1  0
 19 13  1  0
 30 20  1  0
 29 23  1  0
  3 31  1  0
  4 32  1  0
  4 33  1  0
  8 34  1  0
  8 35  1  0
  9 36  1  6
 11 37  1  0
 11 38  1  0
 12 39  1  6
 14 40  1  0
 15 41  1  0
 18 42  1  0
 19 43  1  0
 21 44  1  0
 22 45  1  0
 24 46  1  0
 27 47  1  0
 28 48  1  0
M  END
>  <smiles>  (1) 
O=C(NCC(=O)N1C[C@@H](F)C[C@H]1c1ccc(Cl)cc1)c1ccc2cc(F)ccc2n1

>  <score_type>  (1) 
oracle

>  <origin>  (1) 
autodockgpu

>  <m_score__min__energy>  (1) 
-8.8800000000000008

>  <m_primary>  (1) 
energy

>  <rmsd>  (1) 
1.0046076985848569

>  <m_score__min__rmsd>  (1) 
1.0046076985848569

>  <meeko>  (1) 
{"free_energy": -8.24, "intermolecular_energy": -9.74, "internal_energy": -1.8, "cluster_size": 22, "cluster_id": 1, "rank_in_cluster": 12}

>  <energy>  (1) 
-8.88

>  <cluster_rmsd>  (1) 
0.0

>  <cluster>  (1) 
1

$$$$

     RDKit          3D

 48 51  0  0  0  0  0  0  0  0999 V2000
  133.9190   70.0190  227.2770 O   0  0  0  0  0  0  0  0  0  0  0  0
  133.9830   70.9730  226.4470 C   0  0  0  0  0  0  0  0  0  0  0  0
  134.7130   70.8860  225.2270 N   0  0  0  0  0  0  0  0  0  0  0  0
  135.4100   69.6290  224.9400 C   0  0  0  0  0  0  0  0  0  0  0  0
  136.0630   69.6700  223.6250 C   0  0  0  0  0  0  0  0  0  0  0  0
  135.5280   70.4720  222.7700 O   0  0  0  0  0  0  0  0  0  0  0  0
  137.1810   68.9640  223.1740 N   0  0  0  0  0  0  0  0  0  0  0  0
  137.0180   68.0620  221.9750 C   0  0  0  0  0  0  0  0  0  0  0  0
  138.3480   68.0900  221.2800 C   0  0  1  0  0  0  0  0  0  0  0  0
  138.2610   68.4720  219.9600 F   0  0  0  0  0  0  0  0  0  0  0  0
  139.1650   69.1060  222.0910 C   0  0  0  0  0  0  0  0  0  0  0  0
  138.5520   68.8220  223.4780 C   0  0  1  0  0  0  0  0  0  0  0  0
  139.1780   69.6200  224.5090 C   0  0  0  0  0  0  0  0  0  0  0  0
  139.8420   70.8020  224.3620 C   0  0  0  0  0  0  0  0  0  0  0  0
  140.4300   71.5020  225.3980 C   0  0  0  0  0  0  0  0  0  0  0  0
  140.3590   71.0060  226.6810 C   0  0  0  0  0  0  0  0  0  0  0  0
  141.0810   71.8400  228.0390 Cl  0  0  0  0  0  0  0  0  0  0  0  0
  139.6950   69.8130  226.8760 C   0  0  0  0  0  0  0  0  0  0  0  0
  139.1150   69.1280  225.8290 C   0  0  0  0  0  0  0  0  0  0  0  0
  133.2810   72.2390  226.7360 C   0  0  0  0  0  0  0  0  0  0  0  0
  132.0170   72.2150  227.2990 C   0  0  0  0  0  0  0  0  0  0  0  0
  131.3430   73.4040  227.5760 C   0  0  0  0  0  0  0  0  0  0  0  0
  131.9330   74.6100  227.2930 C   0  0  0  0  0  0  0  0  0  0  0  0
  131.3170   75.8160  227.5440 C   0  0  0  0  0  0  0  0  0  0  0  0
  131.9760   76.9890  227.2310 C   0  0  0  0  0  0  0  0  0  0  0  0
  131.4170   78.2120  227.4570 F   0  0  0  0  0  0  0  0  0  0  0  0
  133.2470   76.9970  226.6660 C   0  0  0  0  0  0  0  0  0  0  0  0
  133.8260   75.7650  226.4310 C   0  0  0  0  0  0  0  0  0  0  0  0
  133.1980   74.5730  226.7310 C   0  0  0  0  0  0  0  0  0  0  0  0
  133.8420   73.4310  226.4660 N   0  0  0  0  0  0  0  0  0  0  0  0
  134.7430   71.6990  224.5630 H   0  0  0  0  0  0  0  0  0  0  0  0
  136.1727   69.4573  225.7138 H   0  0  0  0  0  0  0  0  0  0  0  0
  134.6705   68.8147  224.9356 H   0  0  0  0  0  0  0  0  0  0  0  0
  136.7700   67.0385  222.2928 H   0  0  0  0  0  0  0  0  0  0  0  0
  136.2022   68.3954  221.3167 H   0  0  0  0  0  0  0  0  0  0  0  0
  138.8019   67.0886  221.2445 H   0  0  0  0  0  0  0  0  0  0  0  0
  140.2435   68.8915  222.0609 H   0  0  0  0  0  0  0  0  0  0  0  0
  139.1139   70.1495  221.7466 H   0  0  0  0  0  0  0  0  0  0  0  0
  138.7175   67.8416  223.9486 H   0  0  0  0  0  0  0  0  0  0  0  0
  139.9144   71.2270  223.3500 H   0  0  0  0  0  0  0  0  0  0  0  0
  140.9517   72.4498  225.1993 H   0  0  0  0  0  0  0  0  0  0  0  0
  139.6263   69.3975  227.8922 H   0  0  0  0  0  0  0  0  0  0  0  0
  138.5935   68.1800  226.0273 H   0  0  0  0  0  0  0  0  0  0  0  0
  131.5404   71.2508  227.5297 H   0  0  0  0  0  0  0  0  0  0  0  0
  130.3377   73.3750  228.0217 H   0  0  0  0  0  0  0  0  0  0  0  0
  130.3114   75.8448  227.9888 H   0  0  0  0  0  0  0  0  0  0  0  0
  133.7643   77.9358  226.4191 H   0  0  0  0  0  0  0  0  0  0  0  0
  134.8312   75.7325  225.9854 H   0  0  0  0  0  0  0  0  0  0  0  0
  1  2  2  0
  2  3  1  0
  3  4  1  0
  4  5  1  0
  5  6  2  0
  5  7  1  0
  7  8  1  0
  8  9  1  0
  9 10  1  0
  9 11  1  0
 11 12  1  0
 12 13  1  0
 13 14  2  0
 14 15  1  0
 15 16  2  0
 16 17  1  0
 16 18  1  0
 18 19  2  0
  2 20  1  0
 20 21  2  0
 21 22  1  0
 22 23  2  0
 23 24  1  0
 24 25  2  0
 25 26  1  0
 25 27  1  0
 27 28  2  0
 28 29  1  0
 29 30  2  0
 12  7  1  0
 19 13  1  0
 30 20  1  0
 29 23  1  0
  3 31  1  0
  4 32  1  0
  4 33  1  0
  8 34  1  0
  8 35  1  0
  9 36  1  6
 11 37  1  0
 11 38  1  0
 12 39  1  1
 14 40  1  0
 15 41  1  0
 18 42  1  0
 19 43  1  0
 21 44  1  0
 22 45  1  0
 24 46  1  0
 27 47  1  0
 28 48  1  0
M  END
>  <smiles>  (2) 
O=C(NCC(=O)N1C[C@@H](F)C[C@H]1c1ccc(Cl)cc1)c1ccc2cc(F)ccc2n1

>  <score_type>  (2) 
oracle

>  <origin>  (2) 
autodockgpu

>  <m_score__min__energy>  (2) 
-8.8800000000000008

>  <m_primary>  (2) 
energy

>  <rmsd>  (2) 
8.824665982790945

>  <m_score__min__rmsd>  (2) 
8.824665982790945

>  <meeko>  (2) 
{"free_energy": -7.88, "intermolecular_energy": -9.37, "internal_energy": -1.8, "cluster_size": 3, "cluster_id": 5, "rank_in_cluster": 2}

>  <energy>  (2) 
-8.76

>  <cluster_rmsd>  (2) 
0.74

>  <cluster>  (2) 
1

$$$$

     RDKit          3D

 48 51  0  0  0  0  0  0  0  0999 V2000
  141.1160   71.1920  221.2460 O   0  0  0  0  0  0  0  0  0  0  0  0
  140.5920   71.8430  222.1960 C   0  0  0  0  0  0  0  0  0  0  0  0
  140.2960   73.2330  222.1070 N   0  0  0  0  0  0  0  0  0  0  0  0
  140.6190   73.9190  220.8530 C   0  0  0  0  0  0  0  0  0  0  0  0
  140.3550   75.3600  220.9490 C   0  0  0  0  0  0  0  0  0  0  0  0
  141.3410   76.1230  220.6200 O   0  0  0  0  0  0  0  0  0  0  0  0
  139.1890   76.0180  221.3470 N   0  0  0  0  0  0  0  0  0  0  0  0
  137.8660   75.3350  221.1000 C   0  0  0  0  0  0  0  0  0  0  0  0
  136.9760   75.7870  222.2210 C   0  0  1  0  0  0  0  0  0  0  0  0
  136.4350   74.7430  222.9380 F   0  0  0  0  0  0  0  0  0  0  0  0
  137.9020   76.6360  223.1050 C   0  0  0  0  0  0  0  0  0  0  0  0
  138.7990   77.2120  221.9910 C   0  0  1  0  0  0  0  0  0  0  0  0
  139.7810   78.1310  222.5220 C   0  0  0  0  0  0  0  0  0  0  0  0
  141.0430   77.8470  222.9530 C   0  0  0  0  0  0  0  0  0  0  0  0
  141.9230   78.7820  223.4650 C   0  0  0  0  0  0  0  0  0  0  0  0
  141.5360   80.1000  223.5600 C   0  0  0  0  0  0  0  0  0  0  0  0
  142.5990   81.3350  224.1990 Cl  0  0  0  0  0  0  0  0  0  0  0  0
  140.2670   80.4320  223.1350 C   0  0  0  0  0  0  0  0  0  0  0  0
  139.4030   79.4860  222.6280 C   0  0  0  0  0  0  0  0  0  0  0  0
  140.2650   71.1520  223.4600 C   0  0  0  0  0  0  0  0  0  0  0  0
  139.5430   69.9720  223.4350 C   0  0  0  0  0  0  0  0  0  0  0  0
  139.2280   69.3110  224.6220 C   0  0  0  0  0  0  0  0  0  0  0  0
  139.6360   69.8280  225.8260 C   0  0  0  0  0  0  0  0  0  0  0  0
  139.3550   69.2200  227.0290 C   0  0  0  0  0  0  0  0  0  0  0  0
  139.8000   69.8030  228.2000 C   0  0  0  0  0  0  0  0  0  0  0  0
  139.5530   69.2470  229.4210 F   0  0  0  0  0  0  0  0  0  0  0  0
  140.5270   70.9890  228.2080 C   0  0  0  0  0  0  0  0  0  0  0  0
  140.7840   71.5640  226.9790 C   0  0  0  0  0  0  0  0  0  0  0  0
  140.3550   71.0100  225.7890 C   0  0  0  0  0  0  0  0  0  0  0  0
  140.6560   71.6420  224.6490 N   0  0  0  0  0  0  0  0  0  0  0  0
  139.8600   73.7390  222.9180 H   0  0  0  0  0  0  0  0  0  0  0  0
  141.6838   73.7644  220.6241 H   0  0  0  0  0  0  0  0  0  0  0  0
  139.9849   73.5025  220.0565 H   0  0  0  0  0  0  0  0  0  0  0  0
  137.4492   75.6406  220.1290 H   0  0  0  0  0  0  0  0  0  0  0  0
  137.9671   74.2401  221.0705 H   0  0  0  0  0  0  0  0  0  0  0  0
  136.1029   76.3378  221.8412 H   0  0  0  0  0  0  0  0  0  0  0  0
  137.3549   77.4217  223.6466 H   0  0  0  0  0  0  0  0  0  0  0  0
  138.4217   76.0995  223.9125 H   0  0  0  0  0  0  0  0  0  0  0  0
  138.3613   77.8960  221.2490 H   0  0  0  0  0  0  0  0  0  0  0  0
  141.3839   76.8031  222.8890 H   0  0  0  0  0  0  0  0  0  0  0  0
  142.9265   78.4749  223.7946 H   0  0  0  0  0  0  0  0  0  0  0  0
  139.9359   81.4788  223.2024 H   0  0  0  0  0  0  0  0  0  0  0  0
  138.3991   79.7932  222.2996 H   0  0  0  0  0  0  0  0  0  0  0  0
  139.2152   69.5524  222.4725 H   0  0  0  0  0  0  0  0  0  0  0  0
  138.6520   68.3743  224.5931 H   0  0  0  0  0  0  0  0  0  0  0  0
  138.7828   68.2810  227.0575 H   0  0  0  0  0  0  0  0  0  0  0  0
  140.8790   71.4453  229.1450 H   0  0  0  0  0  0  0  0  0  0  0  0
  141.3550   72.5037  226.9466 H   0  0  0  0  0  0  0  0  0  0  0  0
  1  2  2  0
  2  3  1  0
  3  4  1  0
  4  5  1  0
  5  6  2  0
  5  7  1  0
  7  8  1  0
  8  9  1  0
  9 10  1  0
  9 11  1  0
 11 12  1  0
 12 13  1  0
 13 14  2  0
 14 15  1  0
 15 16  2  0
 16 17  1  0
 16 18  1  0
 18 19  2  0
  2 20  1  0
 20 21  2  0
 21 22  1  0
 22 23  2  0
 23 24  1  0
 24 25  2  0
 25 26  1  0
 25 27  1  0
 27 28  2  0
 28 29  1  0
 29 30  2  0
 12  7  1  0
 19 13  1  0
 30 20  1  0
 29 23  1  0
  3 31  1  0
  4 32  1  0
  4 33  1  0
  8 34  1  0
  8 35  1  0
  9 36  1  6
 11 37  1  0
 11 38  1  0
 12 39  1  6
 14 40  1  0
 15 41  1  0
 18 42  1  0
 19 43  1  0
 21 44  1  0
 22 45  1  0
 24 46  1  0
 27 47  1  0
 28 48  1  0
M  END
>  <smiles>  (3) 
O=C(NCC(=O)N1C[C@@H](F)C[C@H]1c1ccc(Cl)cc1)c1ccc2cc(F)ccc2n1

>  <score_type>  (3) 
oracle

>  <origin>  (3) 
autodockgpu

>  <m_score__min__energy>  (3) 
-8.8800000000000008

>  <m_primary>  (3) 
energy

>  <rmsd>  (3) 
2.857845827426235

>  <m_score__min__rmsd>  (3) 
2.857845827426235

>  <meeko>  (3) 
{"free_energy": -8.21, "intermolecular_energy": -9.7, "internal_energy": -1.31, "cluster_size": 22, "cluster_id": 1, "rank_in_cluster": 13}

>  <energy>  (3) 
-8.74

>  <cluster_rmsd>  (3) 
0.74

>  <cluster>  (3) 
1

$$$$

     RDKit          3D

 48 51  0  0  0  0  0  0  0  0999 V2000
  139.1320   70.6840  221.4750 O   0  0  0  0  0  0  0  0  0  0  0  0
  139.4330   71.2270  222.5770 C   0  0  0  0  0  0  0  0  0  0  0  0
  139.6440   72.6280  222.7150 N   0  0  0  0  0  0  0  0  0  0  0  0
  139.4980   73.4590  221.5160 C   0  0  0  0  0  0  0  0  0  0  0  0
  139.5900   74.8880  221.8430 C   0  0  0  0  0  0  0  0  0  0  0  0
  140.7200   75.2690  222.3330 O   0  0  0  0  0  0  0  0  0  0  0  0
  138.6270   75.8890  221.6970 N   0  0  0  0  0  0  0  0  0  0  0  0
  137.2140   75.4760  221.3630 C   0  0  0  0  0  0  0  0  0  0  0  0
  136.3410   76.5100  222.0130 C   0  0  1  0  0  0  0  0  0  0  0  0
  135.4100   75.9690  222.8720 F   0  0  0  0  0  0  0  0  0  0  0  0
  137.3310   77.4040  222.7720 C   0  0  0  0  0  0  0  0  0  0  0  0
  138.5180   77.2930  221.7940 C   0  0  1  0  0  0  0  0  0  0  0  0
  139.6380   78.1030  222.2230 C   0  0  0  0  0  0  0  0  0  0  0  0
  140.8900   78.1480  221.6850 C   0  0  0  0  0  0  0  0  0  0  0  0
  141.9170   78.9390  222.1620 C   0  0  0  0  0  0  0  0  0  0  0  0
  141.6990   79.7540  223.2520 C   0  0  0  0  0  0  0  0  0  0  0  0
  142.9540   80.7820  223.9080 Cl  0  0  0  0  0  0  0  0  0  0  0  0
  140.4450   79.7400  223.8270 C   0  0  0  0  0  0  0  0  0  0  0  0
  139.4330   78.9430  223.3380 C   0  0  0  0  0  0  0  0  0  0  0  0
  139.5800   70.3900  223.7860 C   0  0  0  0  0  0  0  0  0  0  0  0
  139.1140   69.0870  223.7840 C   0  0  0  0  0  0  0  0  0  0  0  0
  139.2460   68.2880  224.9190 C   0  0  0  0  0  0  0  0  0  0  0  0
  139.8420   68.7900  226.0480 C   0  0  0  0  0  0  0  0  0  0  0  0
  140.0000   68.0480  227.1970 C   0  0  0  0  0  0  0  0  0  0  0  0
  140.6100   68.6250  228.2940 C   0  0  0  0  0  0  0  0  0  0  0  0
  140.7950   67.9400  229.4590 F   0  0  0  0  0  0  0  0  0  0  0  0
  141.0750   69.9360  228.2810 C   0  0  0  0  0  0  0  0  0  0  0  0
  140.8940   70.6420  227.1070 C   0  0  0  0  0  0  0  0  0  0  0  0
  140.2890   70.0990  225.9910 C   0  0  0  0  0  0  0  0  0  0  0  0
  140.1610   70.8640  224.9020 N   0  0  0  0  0  0  0  0  0  0  0  0
  139.8930   73.0430  223.6480 H   0  0  0  0  0  0  0  0  0  0  0  0
  140.2953   73.2025  220.8029 H   0  0  0  0  0  0  0  0  0  0  0  0
  138.5076   73.2660  221.0781 H   0  0  0  0  0  0  0  0  0  0  0  0
  137.0605   75.4702  220.2738 H   0  0  0  0  0  0  0  0  0  0  0  0
  136.9860   74.4606  221.7194 H   0  0  0  0  0  0  0  0  0  0  0  0
  135.7417   77.0530  221.2673 H   0  0  0  0  0  0  0  0  0  0  0  0
  136.9677   78.4376  222.8700 H   0  0  0  0  0  0  0  0  0  0  0  0
  137.5370   77.1182  223.8141 H   0  0  0  0  0  0  0  0  0  0  0  0
  138.4227   77.7183  220.7840 H   0  0  0  0  0  0  0  0  0  0  0  0
  141.0962   77.5113  220.8120 H   0  0  0  0  0  0  0  0  0  0  0  0
  142.9030   78.9186  221.6749 H   0  0  0  0  0  0  0  0  0  0  0  0
  140.2480   80.3817  224.6984 H   0  0  0  0  0  0  0  0  0  0  0  0
  138.4472   78.9619  223.8258 H   0  0  0  0  0  0  0  0  0  0  0  0
  138.6363   68.6789  222.8811 H   0  0  0  0  0  0  0  0  0  0  0  0
  138.8717   67.2537  224.9091 H   0  0  0  0  0  0  0  0  0  0  0  0
  139.6447   67.0079  227.2410 H   0  0  0  0  0  0  0  0  0  0  0  0
  141.5610   70.3868  229.1588 H   0  0  0  0  0  0  0  0  0  0  0  0
  141.2475   71.6826  227.0595 H   0  0  0  0  0  0  0  0  0  0  0  0
  1  2  2  0
  2  3  1  0
  3  4  1  0
  4  5  1  0
  5  6  2  0
  5  7  1  0
  7  8  1  0
  8  9  1  0
  9 10  1  0
  9 11  1  0
 11 12  1  0
 12 13  1  0
 13 14  2  0
 14 15  1  0
 15 16  2  0
 16 17  1  0
 16 18  1  0
 18 19  2  0
  2 20  1  0
 20 21  2  0
 21 22  1  0
 22 23  2  0
 23 24  1  0
 24 25  2  0
 25 26  1  0
 25 27  1  0
 27 28  2  0
 28 29  1  0
 29 30  2  0
 12  7  1  0
 19 13  1  0
 30 20  1  0
 29 23  1  0
  3 31  1  0
  4 32  1  0
  4 33  1  0
  8 34  1  0
  8 35  1  0
  9 36  1  6
 11 37  1  0
 11 38  1  0
 12 39  1  6
 14 40  1  0
 15 41  1  0
 18 42  1  0
 19 43  1  0
 21 44  1  0
 22 45  1  0
 24 46  1  0
 27 47  1  0
 28 48  1  0
M  END
>  <smiles>  (4) 
O=C(NCC(=O)N1C[C@@H](F)C[C@H]1c1ccc(Cl)cc1)c1ccc2cc(F)ccc2n1

>  <score_type>  (4) 
oracle

>  <origin>  (4) 
autodockgpu

>  <m_score__min__energy>  (4) 
-8.8800000000000008

>  <m_primary>  (4) 
energy

>  <rmsd>  (4) 
2.7326954567746893

>  <m_score__min__rmsd>  (4) 
2.7326954567746893

>  <meeko>  (4) 
{"free_energy": -8.76, "intermolecular_energy": -10.25, "internal_energy": -1.49, "cluster_size": 22, "cluster_id": 1, "rank_in_cluster": 2}

>  <energy>  (4) 
-8.71

>  <cluster_rmsd>  (4) 
0.8

>  <cluster>  (4) 
1

$$$$

     RDKit          3D

 48 51  0  0  0  0  0  0  0  0999 V2000
  140.6890   71.8250  221.0200 O   0  0  0  0  0  0  0  0  0  0  0  0
  140.2490   72.3650  222.0760 C   0  0  0  0  0  0  0  0  0  0  0  0
  139.9270   73.7490  222.1570 N   0  0  0  0  0  0  0  0  0  0  0  0
  140.1210   74.5650  220.9550 C   0  0  0  0  0  0  0  0  0  0  0  0
  141.5400   74.8800  220.7470 C   0  0  0  0  0  0  0  0  0  0  0  0
  142.3710   74.0430  221.2680 O   0  0  0  0  0  0  0  0  0  0  0  0
  142.1130   75.9550  220.0640 N   0  0  0  0  0  0  0  0  0  0  0  0
  142.9120   75.6630  218.8170 C   0  0  0  0  0  0  0  0  0  0  0  0
  142.7180   76.8650  217.9390 C   0  0  1  0  0  0  0  0  0  0  0  0
  142.2240   76.5500  216.6920 F   0  0  0  0  0  0  0  0  0  0  0  0
  141.7210   77.7340  218.7190 C   0  0  0  0  0  0  0  0  0  0  0  0
  142.1770   77.3630  220.1440 C   0  0  1  0  0  0  0  0  0  0  0  0
  141.4310   78.0910  221.1470 C   0  0  0  0  0  0  0  0  0  0  0  0
  141.9250   78.8450  222.1700 C   0  0  0  0  0  0  0  0  0  0  0  0
  141.1460   79.5020  223.1040 C   0  0  0  0  0  0  0  0  0  0  0  0
  139.7730   79.4140  223.0260 C   0  0  0  0  0  0  0  0  0  0  0  0
  138.7260   80.2200  224.1740 Cl  0  0  0  0  0  0  0  0  0  0  0  0
  139.2310   78.6620  222.0060 C   0  0  0  0  0  0  0  0  0  0  0  0
  140.0240   78.0130  221.0850 C   0  0  0  0  0  0  0  0  0  0  0  0
  140.0530   71.5440  223.2880 C   0  0  0  0  0  0  0  0  0  0  0  0
  139.3230   70.3700  223.2170 C   0  0  0  0  0  0  0  0  0  0  0  0
  139.1310   69.5860  224.3540 C   0  0  0  0  0  0  0  0  0  0  0  0
  139.6690   69.9750  225.5550 C   0  0  0  0  0  0  0  0  0  0  0  0
  139.5130   69.2420  226.7100 C   0  0  0  0  0  0  0  0  0  0  0  0
  140.0840   69.7000  227.8820 C   0  0  0  0  0  0  0  0  0  0  0  0
  139.9640   69.0180  229.0570 F   0  0  0  0  0  0  0  0  0  0  0  0
  140.8170   70.8820  227.9380 C   0  0  0  0  0  0  0  0  0  0  0  0
  140.9460   71.5840  226.7550 C   0  0  0  0  0  0  0  0  0  0  0  0
  140.3890   71.1570  225.5660 C   0  0  0  0  0  0  0  0  0  0  0  0
  140.5720   71.9070  224.4740 N   0  0  0  0  0  0  0  0  0  0  0  0
  139.5630   74.1620  223.0530 H   0  0  0  0  0  0  0  0  0  0  0  0
  139.7451   74.0116  220.0818 H   0  0  0  0  0  0  0  0  0  0  0  0
  139.5712   75.5090  221.0839 H   0  0  0  0  0  0  0  0  0  0  0  0
  143.9762   75.5313  219.0621 H   0  0  0  0  0  0  0  0  0  0  0  0
  142.5843   74.7354  218.3248 H   0  0  0  0  0  0  0  0  0  0  0  0
  143.6740   77.3692  217.7346 H   0  0  0  0  0  0  0  0  0  0  0  0
  141.8485   78.8058  218.5071 H   0  0  0  0  0  0  0  0  0  0  0  0
  140.6573   77.5658  218.4947 H   0  0  0  0  0  0  0  0  0  0  0  0
  143.1811   77.6600  220.4811 H   0  0  0  0  0  0  0  0  0  0  0  0
  143.0176   78.9367  222.2581 H   0  0  0  0  0  0  0  0  0  0  0  0
  141.6187   80.0909  223.9038 H   0  0  0  0  0  0  0  0  0  0  0  0
  138.1372   78.5778  221.9252 H   0  0  0  0  0  0  0  0  0  0  0  0
  139.5509   77.4229  220.2863 H   0  0  0  0  0  0  0  0  0  0  0  0
  138.8911   70.0531  222.2562 H   0  0  0  0  0  0  0  0  0  0  0  0
  138.5481   68.6554  224.2883 H   0  0  0  0  0  0  0  0  0  0  0  0
  138.9405   68.3028  226.6999 H   0  0  0  0  0  0  0  0  0  0  0  0
  141.2698   71.2385  228.8750 H   0  0  0  0  0  0  0  0  0  0  0  0
  141.5173   72.5240  226.7607 H   0  0  0  0  0  0  0  0  0  0  0  0
  1  2  2  0
  2  3  1  0
  3  4  1  0
  4  5  1  0
  5  6  2  0
  5  7  1  0
  7  8  1  0
  8  9  1  0
  9 10  1  0
  9 11  1  0
 11 12  1  0
 12 13  1  0
 13 14  2  0
 14 15  1  0
 15 16  2  0
 16 17  1  0
 16 18  1  0
 18 19  2  0
  2 20  1  0
 20 21  2  0
 21 22  1  0
 22 23  2  0
 23 24  1  0
 24 25  2  0
 25 26  1  0
 25 27  1  0
 27 28  2  0
 28 29  1  0
 29 30  2  0
 12  7  1  0
 19 13  1  0
 30 20  1  0
 29 23  1  0
  3 31  1  0
  4 32  1  0
  4 33  1  0
  8 34  1  0
  8 35  1  0
  9 36  1  6
 11 37  1  0
 11 38  1  0
 12 39  1  6
 14 40  1  0
 15 41  1  0
 18 42  1  0
 19 43  1  0
 21 44  1  0
 22 45  1  0
 24 46  1  0
 27 47  1  0
 28 48  1  0
M  END
>  <smiles>  (5) 
O=C(NCC(=O)N1C[C@@H](F)C[C@H]1c1ccc(Cl)cc1)c1ccc2cc(F)ccc2n1

>  <score_type>  (5) 
oracle

>  <origin>  (5) 
autodockgpu

>  <m_score__min__energy>  (5) 
-8.8800000000000008

>  <m_primary>  (5) 
energy

>  <rmsd>  (5) 
1.9929112201860864

>  <m_score__min__rmsd>  (5) 
1.9929112201860864

>  <meeko>  (5) 
{"free_energy": -8.17, "intermolecular_energy": -9.66, "internal_energy": -1.26, "cluster_size": 18, "cluster_id": 2, "rank_in_cluster": 18}

>  <energy>  (5) 
-8.69

>  <cluster_rmsd>  (5) 
0.83

>  <cluster>  (5) 
1

$$$$

     RDKit          3D

 48 51  0  0  0  0  0  0  0  0999 V2000
  139.8730   71.0320  221.4350 O   0  0  0  0  0  0  0  0  0  0  0  0
  139.3170   71.4970  222.4720 C   0  0  0  0  0  0  0  0  0  0  0  0
  138.2500   72.4380  222.4200 N   0  0  0  0  0  0  0  0  0  0  0  0
  137.7900   72.8720  221.0970 C   0  0  0  0  0  0  0  0  0  0  0  0
  138.8300   73.6370  220.3960 C   0  0  0  0  0  0  0  0  0  0  0  0
  139.3840   73.0300  219.4030 O   0  0  0  0  0  0  0  0  0  0  0  0
  139.2990   74.9270  220.6540 N   0  0  0  0  0  0  0  0  0  0  0  0
  138.2900   76.0010  220.9820 C   0  0  0  0  0  0  0  0  0  0  0  0
  139.0030   76.9350  221.9160 C   0  0  1  0  0  0  0  0  0  0  0  0
  138.3420   77.1150  223.1110 F   0  0  0  0  0  0  0  0  0  0  0  0
  140.3660   76.2630  222.1400 C   0  0  0  0  0  0  0  0  0  0  0  0
  140.5240   75.6230  220.7460 C   0  0  1  0  0  0  0  0  0  0  0  0
  141.7890   74.9320  220.6190 C   0  0  0  0  0  0  0  0  0  0  0  0
  142.0700   73.6390  220.9470 C   0  0  0  0  0  0  0  0  0  0  0  0
  143.3130   73.0510  220.8110 C   0  0  0  0  0  0  0  0  0  0  0  0
  144.3640   73.7890  220.3120 C   0  0  0  0  0  0  0  0  0  0  0  0
  145.9640   73.1080  220.1150 Cl  0  0  0  0  0  0  0  0  0  0  0  0
  144.1240   75.1020  219.9670 C   0  0  0  0  0  0  0  0  0  0  0  0
  142.8770   75.6720  220.1100 C   0  0  0  0  0  0  0  0  0  0  0  0
  139.7800   71.0600  223.8050 C   0  0  0  0  0  0  0  0  0  0  0  0
  140.5940   71.8860  224.5590 C   0  0  0  0  0  0  0  0  0  0  0  0
  141.0380   71.4840  225.8180 C   0  0  0  0  0  0  0  0  0  0  0  0
  140.6670   70.2620  226.3200 C   0  0  0  0  0  0  0  0  0  0  0  0
  141.0740   69.8110  227.5560 C   0  0  0  0  0  0  0  0  0  0  0  0
  140.6570   68.5680  227.9910 C   0  0  0  0  0  0  0  0  0  0  0  0
  141.0270   68.0680  229.2050 F   0  0  0  0  0  0  0  0  0  0  0  0
  139.8370   67.7480  227.2220 C   0  0  0  0  0  0  0  0  0  0  0  0
  139.4550   68.2410  225.9890 C   0  0  0  0  0  0  0  0  0  0  0  0
  139.8510   69.4780  225.5210 C   0  0  0  0  0  0  0  0  0  0  0  0
  139.4270   69.8660  224.3140 N   0  0  0  0  0  0  0  0  0  0  0  0
  137.8140   72.8020  223.3040 H   0  0  0  0  0  0  0  0  0  0  0  0
  137.5320   71.9858  220.4986 H   0  0  0  0  0  0  0  0  0  0  0  0
  136.9114   73.5204  221.2298 H   0  0  0  0  0  0  0  0  0  0  0  0
  137.9790   76.5304  220.0693 H   0  0  0  0  0  0  0  0  0  0  0  0
  137.3768   75.5850  221.4326 H   0  0  0  0  0  0  0  0  0  0  0  0
  139.0766   77.9465  221.4901 H   0  0  0  0  0  0  0  0  0  0  0  0
  141.1599   76.9934  222.3552 H   0  0  0  0  0  0  0  0  0  0  0  0
  140.4293   75.5751  222.9961 H   0  0  0  0  0  0  0  0  0  0  0  0
  140.6363   76.2736  219.8662 H   0  0  0  0  0  0  0  0  0  0  0  0
  141.2519   73.0220  221.3470 H   0  0  0  0  0  0  0  0  0  0  0  0
  143.4625   72.0001  221.0994 H   0  0  0  0  0  0  0  0  0  0  0  0
  144.9487   75.7104  219.5674 H   0  0  0  0  0  0  0  0  0  0  0  0
  142.7275   76.7230  219.8220 H   0  0  0  0  0  0  0  0  0  0  0  0
  140.8932   72.8674  224.1623 H   0  0  0  0  0  0  0  0  0  0  0  0
  141.6864   72.1471  226.4095 H   0  0  0  0  0  0  0  0  0  0  0  0
  141.7234   70.4332  228.1893 H   0  0  0  0  0  0  0  0  0  0  0  0
  139.5101   66.7595  227.5769 H   0  0  0  0  0  0  0  0  0  0  0  0
  138.8070   67.6207  225.3524 H   0  0  0  0  0  0  0  0  0  0  0  0
  1  2  2  0
  2  3  1  0
  3  4  1  0
  4  5  1  0
  5  6  2  0
  5  7  1  0
  7  8  1  0
  8  9  1  0
  9 10  1  0
  9 11  1  0
 11 12  1  0
 12 13  1  0
 13 14  2  0
 14 15  1  0
 15 16  2  0
 16 17  1  0
 16 18  1  0
 18 19  2  0
  2 20  1  0
 20 21  2  0
 21 22  1  0
 22 23  2  0
 23 24  1  0
 24 25  2  0
 25 26  1  0
 25 27  1  0
 27 28  2  0
 28 29  1  0
 29 30  2  0
 12  7  1  0
 19 13  1  0
 30 20  1  0
 29 23  1  0
  3 31  1  0
  4 32  1  0
  4 33  1  0
  8 34  1  0
  8 35  1  0
  9 36  1  6
 11 37  1  0
 11 38  1  0
 12 39  1  6
 14 40  1  0
 15 41  1  0
 18 42  1  0
 19 43  1  0
 21 44  1  0
 22 45  1  0
 24 46  1  0
 27 47  1  0
 28 48  1  0
M  END
>  <smiles>  (6) 
O=C(NCC(=O)N1C[C@@H](F)C[C@H]1c1ccc(Cl)cc1)c1ccc2cc(F)ccc2n1

>  <score_type>  (6) 
oracle

>  <origin>  (6) 
autodockgpu

>  <m_score__min__energy>  (6) 
-8.8800000000000008

>  <m_primary>  (6) 
energy

>  <rmsd>  (6) 
3.090084387623413

>  <m_score__min__rmsd>  (6) 
3.090084387623413

>  <meeko>  (6) 
{"free_energy": -7.99, "intermolecular_energy": -9.48, "internal_energy": -1.65, "cluster_size": 6, "cluster_id": 3, "rank_in_cluster": 3}

>  <energy>  (6) 
-8.67

>  <cluster_rmsd>  (6) 
0.85

>  <cluster>  (6) 
1

$$$$

     RDKit          3D

 48 51  0  0  0  0  0  0  0  0999 V2000
  137.9050   70.9460  221.9150 O   0  0  0  0  0  0  0  0  0  0  0  0
  138.7210   71.3760  222.7820 C   0  0  0  0  0  0  0  0  0  0  0  0
  139.2970   72.6770  222.7210 N   0  0  0  0  0  0  0  0  0  0  0  0
  138.9150   73.5380  221.5980 C   0  0  0  0  0  0  0  0  0  0  0  0
  140.0180   74.4240  221.2060 C   0  0  0  0  0  0  0  0  0  0  0  0
  141.0480   74.3960  221.9810 O   0  0  0  0  0  0  0  0  0  0  0  0
  140.1080   75.2890  220.1130 N   0  0  0  0  0  0  0  0  0  0  0  0
  139.5970   74.8060  218.7780 C   0  0  0  0  0  0  0  0  0  0  0  0
  139.0950   76.0380  218.0820 C   0  0  1  0  0  0  0  0  0  0  0  0
  137.7810   75.9370  217.6840 F   0  0  0  0  0  0  0  0  0  0  0  0
  139.2660   77.1480  219.1290 C   0  0  0  0  0  0  0  0  0  0  0  0
  140.5340   76.6020  219.8190 C   0  0  1  0  0  0  0  0  0  0  0  0
  140.9950   77.4920  220.8620 C   0  0  0  0  0  0  0  0  0  0  0  0
  140.7850   77.3820  222.2050 C   0  0  0  0  0  0  0  0  0  0  0  0
  141.2460   78.2850  223.1440 C   0  0  0  0  0  0  0  0  0  0  0  0
  141.9730   79.3810  222.7340 C   0  0  0  0  0  0  0  0  0  0  0  0
  142.5870   80.5630  223.8690 Cl  0  0  0  0  0  0  0  0  0  0  0  0
  142.2090   79.5310  221.3840 C   0  0  0  0  0  0  0  0  0  0  0  0
  141.7400   78.6210  220.4620 C   0  0  0  0  0  0  0  0  0  0  0  0
  139.1060   70.5090  223.9130 C   0  0  0  0  0  0  0  0  0  0  0  0
  138.8370   69.1520  223.8660 C   0  0  0  0  0  0  0  0  0  0  0  0
  139.1950   68.3230  224.9280 C   0  0  0  0  0  0  0  0  0  0  0  0
  139.8200   68.8490  226.0310 C   0  0  0  0  0  0  0  0  0  0  0  0
  140.1960   68.0800  227.1090 C   0  0  0  0  0  0  0  0  0  0  0  0
  140.8210   68.6840  228.1830 C   0  0  0  0  0  0  0  0  0  0  0  0
  141.2170   67.9740  229.2790 F   0  0  0  0  0  0  0  0  0  0  0  0
  141.0850   70.0500  228.2170 C   0  0  0  0  0  0  0  0  0  0  0  0
  140.6880   70.7810  227.1140 C   0  0  0  0  0  0  0  0  0  0  0  0
  140.0620   70.2120  226.0220 C   0  0  0  0  0  0  0  0  0  0  0  0
  139.7180   71.0050  225.0020 N   0  0  0  0  0  0  0  0  0  0  0  0
  139.9710   72.9980  223.4600 H   0  0  0  0  0  0  0  0  0  0  0  0
  138.6400   72.9069  220.7400 H   0  0  0  0  0  0  0  0  0  0  0  0
  138.0641   74.1607  221.9116 H   0  0  0  0  0  0  0  0  0  0  0  0
  140.4082   74.3394  218.1999 H   0  0  0  0  0  0  0  0  0  0  0  0
  138.8098   74.0457  218.8887 H   0  0  0  0  0  0  0  0  0  0  0  0
  139.6487   76.2241  217.1499 H   0  0  0  0  0  0  0  0  0  0  0  0
  139.4340   78.1326  218.6682 H   0  0  0  0  0  0  0  0  0  0  0  0
  138.4013   77.3300  219.7841 H   0  0  0  0  0  0  0  0  0  0  0  0
  141.4767   76.5566  219.2540 H   0  0  0  0  0  0  0  0  0  0  0  0
  140.2099   76.5162  222.5651 H   0  0  0  0  0  0  0  0  0  0  0  0
  141.0338   78.1297  224.2121 H   0  0  0  0  0  0  0  0  0  0  0  0
  142.7865   80.3994  221.0341 H   0  0  0  0  0  0  0  0  0  0  0  0
  141.9505   78.7778  219.3938 H   0  0  0  0  0  0  0  0  0  0  0  0
  138.3371   68.7247  222.9842 H   0  0  0  0  0  0  0  0  0  0  0  0
  138.9763   67.2459  224.8820 H   0  0  0  0  0  0  0  0  0  0  0  0
  140.0012   66.9974  227.1153 H   0  0  0  0  0  0  0  0  0  0  0  0
  141.5833   70.5225  229.0764 H   0  0  0  0  0  0  0  0  0  0  0  0
  140.8789   71.8643  227.1049 H   0  0  0  0  0  0  0  0  0  0  0  0
  1  2  2  0
  2  3  1  0
  3  4  1  0
  4  5  1  0
  5  6  2  0
  5  7  1  0
  7  8  1  0
  8  9  1  0
  9 10  1  0
  9 11  1  0
 11 12  1  0
 12 13  1  0
 13 14  2  0
 14 15  1  0
 15 16  2  0
 16 17  1  0
 16 18  1  0
 18 19  2  0
  2 20  1  0
 20 21  2  0
 21 22  1  0
 22 23  2  0
 23 24  1  0
 24 25  2  0
 25 26  1  0
 25 27  1  0
 27 28  2  0
 28 29  1  0
 29 30  2  0
 12  7  1  0
 19 13  1  0
 30 20  1  0
 29 23  1  0
  3 31  1  0
  4 32  1  0
  4 33  1  0
  8 34  1  0
  8 35  1  0
  9 36  1  6
 11 37  1  0
 11 38  1  0
 12 39  1  6
 14 40  1  0
 15 41  1  0
 18 42  1  0
 19 43  1  0
 21 44  1  0
 22 45  1  0
 24 46  1  0
 27 47  1  0
 28 48  1  0
M  END
>  <smiles>  (7) 
O=C(NCC(=O)N1C[C@@H](F)C[C@H]1c1ccc(Cl)cc1)c1ccc2cc(F)ccc2n1

>  <score_type>  (7) 
oracle

>  <origin>  (7) 
autodockgpu

>  <m_score__min__energy>  (7) 
-8.8800000000000008

>  <m_primary>  (7) 
energy

>  <rmsd>  (7) 
1.0410275131005846

>  <m_score__min__rmsd>  (7) 
1.0410275131005846

>  <meeko>  (7) 
{"free_energy": -8.18, "intermolecular_energy": -9.67, "internal_energy": -1.83, "cluster_size": 22, "cluster_id": 1, "rank_in_cluster": 16}

>  <energy>  (7) 
-8.65

>  <cluster_rmsd>  (7) 
0.74

>  <cluster>  (7) 
1

$$$$

     RDKit          3D

 48 51  0  0  0  0  0  0  0  0999 V2000
  140.7720   71.1460  221.3730 O   0  0  0  0  0  0  0  0  0  0  0  0
  140.3190   71.6710  222.4310 C   0  0  0  0  0  0  0  0  0  0  0  0
  139.9440   73.0420  222.5120 N   0  0  0  0  0  0  0  0  0  0  0  0
  140.0950   73.8610  221.3070 C   0  0  0  0  0  0  0  0  0  0  0  0
  139.5420   75.2070  221.5040 C   0  0  0  0  0  0  0  0  0  0  0  0
  139.1960   75.4880  222.7130 O   0  0  0  0  0  0  0  0  0  0  0  0
  139.3390   76.2230  220.5660 N   0  0  0  0  0  0  0  0  0  0  0  0
  138.4690   75.9240  219.3700 C   0  0  0  0  0  0  0  0  0  0  0  0
  137.8130   77.2310  219.0270 C   0  0  1  0  0  0  0  0  0  0  0  0
  136.4380   77.1560  218.9990 F   0  0  0  0  0  0  0  0  0  0  0  0
  138.2870   78.1820  220.1360 C   0  0  0  0  0  0  0  0  0  0  0  0
  139.6870   77.5750  220.3600 C   0  0  1  0  0  0  0  0  0  0  0  0
  140.4350   78.3150  221.3520 C   0  0  0  0  0  0  0  0  0  0  0  0
  140.3560   78.2060  222.7090 C   0  0  0  0  0  0  0  0  0  0  0  0
  141.0960   78.9630  223.5980 C   0  0  0  0  0  0  0  0  0  0  0  0
  141.9840   79.9010  223.1180 C   0  0  0  0  0  0  0  0  0  0  0  0
  142.9510   80.8930  224.1870 Cl  0  0  0  0  0  0  0  0  0  0  0  0
  142.0960   80.0440  221.7510 C   0  0  0  0  0  0  0  0  0  0  0  0
  141.3490   79.2800  220.8800 C   0  0  0  0  0  0  0  0  0  0  0  0
  140.1660   70.8450  223.6460 C   0  0  0  0  0  0  0  0  0  0  0  0
  139.5030   69.6320  223.5780 C   0  0  0  0  0  0  0  0  0  0  0  0
  139.3520   68.8440  224.7180 C   0  0  0  0  0  0  0  0  0  0  0  0
  139.8630   69.2680  225.9190 C   0  0  0  0  0  0  0  0  0  0  0  0
  139.7440   68.5330  227.0780 C   0  0  0  0  0  0  0  0  0  0  0  0
  140.2860   69.0270  228.2490 C   0  0  0  0  0  0  0  0  0  0  0  0
  140.2000   68.3440  229.4270 F   0  0  0  0  0  0  0  0  0  0  0  0
  140.9510   70.2480  228.3020 C   0  0  0  0  0  0  0  0  0  0  0  0
  141.0440   70.9510  227.1160 C   0  0  0  0  0  0  0  0  0  0  0  0
  140.5160   70.4880  225.9270 C   0  0  0  0  0  0  0  0  0  0  0  0
  140.6600   71.2420  224.8320 N   0  0  0  0  0  0  0  0  0  0  0  0
  139.5710   73.4420  223.4100 H   0  0  0  0  0  0  0  0  0  0  0  0
  141.1642   73.9451  221.0626 H   0  0  0  0  0  0  0  0  0  0  0  0
  139.5452   73.3764  220.4867 H   0  0  0  0  0  0  0  0  0  0  0  0
  139.0796   75.5657  218.5281 H   0  0  0  0  0  0  0  0  0  0  0  0
  137.7316   75.1361  219.5833 H   0  0  0  0  0  0  0  0  0  0  0  0
  138.0882   77.5633  218.0151 H   0  0  0  0  0  0  0  0  0  0  0  0
  138.3361   79.2268  219.7954 H   0  0  0  0  0  0  0  0  0  0  0  0
  137.6417   78.2451  221.0246 H   0  0  0  0  0  0  0  0  0  0  0  0
  140.4339   77.6369  219.5549 H   0  0  0  0  0  0  0  0  0  0  0  0
  139.6562   77.4658  223.1242 H   0  0  0  0  0  0  0  0  0  0  0  0
  140.9767   78.8175  224.6818 H   0  0  0  0  0  0  0  0  0  0  0  0
  142.7991   80.7864  221.3454 H   0  0  0  0  0  0  0  0  0  0  0  0
  141.4680   79.4257  219.7962 H   0  0  0  0  0  0  0  0  0  0  0  0
  139.0923   69.2873  222.6176 H   0  0  0  0  0  0  0  0  0  0  0  0
  138.8229   67.8817  224.6548 H   0  0  0  0  0  0  0  0  0  0  0  0
  139.2235   67.5640  227.0713 H   0  0  0  0  0  0  0  0  0  0  0  0
  141.3801   70.6334  229.2387 H   0  0  0  0  0  0  0  0  0  0  0  0
  141.5612   71.9218  227.1192 H   0  0  0  0  0  0  0  0  0  0  0  0
  1  2  2  0
  2  3  1  0
  3  4  1  0
  4  5  1  0
  5  6  2  0
  5  7  1  0
  7  8  1  0
  8  9  1  0
  9 10  1  0
  9 11  1  0
 11 12  1  0
 12 13  1  0
 13 14  2  0
 14 15  1  0
 15 16  2  0
 16 17  1  0
 16 18  1  0
 18 19  2  0
  2 20  1  0
 20 21  2  0
 21 22  1  0
 22 23  2  0
 23 24  1  0
 24 25  2  0
 25 26  1  0
 25 27  1  0
 27 28  2  0
 28 29  1  0
 29 30  2  0
 12  7  1  0
 19 13  1  0
 30 20  1  0
 29 23  1  0
  3 31  1  0
  4 32  1  0
  4 33  1  0
  8 34  1  0
  8 35  1  0
  9 36  1  6
 11 37  1  0
 11 38  1  0
 12 39  1  6
 14 40  1  0
 15 41  1  0
 18 42  1  0
 19 43  1  0
 21 44  1  0
 22 45  1  0
 24 46  1  0
 27 47  1  0
 28 48  1  0
M  END
>  <smiles>  (8) 
O=C(NCC(=O)N1C[C@@H](F)C[C@H]1c1ccc(Cl)cc1)c1ccc2cc(F)ccc2n1

>  <score_type>  (8) 
oracle

>  <origin>  (8) 
autodockgpu

>  <m_score__min__energy>  (8) 
-8.8800000000000008

>  <m_primary>  (8) 
energy

>  <rmsd>  (8) 
1.7525913501934565

>  <m_score__min__rmsd>  (8) 
1.7525913501934565

>  <meeko>  (8) 
{"free_energy": -8.2, "intermolecular_energy": -9.7, "internal_energy": -1.76, "cluster_size": 22, "cluster_id": 1, "rank_in_cluster": 14}

>  <energy>  (8) 
-8.59

>  <cluster_rmsd>  (8) 
1.15

>  <cluster>  (8) 
1

$$$$

     RDKit          3D

 48 51  0  0  0  0  0  0  0  0999 V2000
  141.0490   71.1840  221.4570 O   0  0  0  0  0  0  0  0  0  0  0  0
  140.4770   71.6760  222.4730 C   0  0  0  0  0  0  0  0  0  0  0  0
  140.0320   73.0270  222.5310 N   0  0  0  0  0  0  0  0  0  0  0  0
  140.2550   73.8670  221.3500 C   0  0  0  0  0  0  0  0  0  0  0  0
  140.3090   75.2890  221.7110 C   0  0  0  0  0  0  0  0  0  0  0  0
  139.5070   75.6490  222.6550 O   0  0  0  0  0  0  0  0  0  0  0  0
  141.1050   76.3050  221.1770 N   0  0  0  0  0  0  0  0  0  0  0  0
  142.1390   75.9300  220.1430 C   0  0  0  0  0  0  0  0  0  0  0  0
  142.2460   77.1270  219.2440 C   0  0  1  0  0  0  0  0  0  0  0  0
  142.0230   76.8290  217.9180 F   0  0  0  0  0  0  0  0  0  0  0  0
  141.1710   78.0850  219.7770 C   0  0  0  0  0  0  0  0  0  0  0  0
  141.2620   77.7050  221.2690 C   0  0  1  0  0  0  0  0  0  0  0  0
  140.3680   78.5060  222.0770 C   0  0  0  0  0  0  0  0  0  0  0  0
  139.0070   78.5490  222.0230 C   0  0  0  0  0  0  0  0  0  0  0  0
  138.2180   79.3560  222.8210 C   0  0  0  0  0  0  0  0  0  0  0  0
  138.8120   80.1850  223.7470 C   0  0  0  0  0  0  0  0  0  0  0  0
  137.8740   81.2330  224.7890 Cl  0  0  0  0  0  0  0  0  0  0  0  0
  140.1880   80.1730  223.8360 C   0  0  0  0  0  0  0  0  0  0  0  0
  140.9580   79.3620  223.0310 C   0  0  0  0  0  0  0  0  0  0  0  0
  140.2520   70.8290  223.6630 C   0  0  0  0  0  0  0  0  0  0  0  0
  139.5290   69.6550  223.5480 C   0  0  0  0  0  0  0  0  0  0  0  0
  139.3090   68.8480  224.6630 C   0  0  0  0  0  0  0  0  0  0  0  0
  139.8120   69.2130  225.8860 C   0  0  0  0  0  0  0  0  0  0  0  0
  139.6280   68.4570  227.0220 C   0  0  0  0  0  0  0  0  0  0  0  0
  140.1660   68.8930  228.2170 C   0  0  0  0  0  0  0  0  0  0  0  0
  140.0170   68.1860  229.3750 F   0  0  0  0  0  0  0  0  0  0  0  0
  140.8920   70.0760  228.3170 C   0  0  0  0  0  0  0  0  0  0  0  0
  141.0510   70.8020  227.1530 C   0  0  0  0  0  0  0  0  0  0  0  0
  140.5280   70.3970  225.9410 C   0  0  0  0  0  0  0  0  0  0  0  0
  140.7370   71.1700  224.8690 N   0  0  0  0  0  0  0  0  0  0  0  0
  139.5610   73.3990  223.3930 H   0  0  0  0  0  0  0  0  0  0  0  0
  141.2074   73.5798  220.8804 H   0  0  0  0  0  0  0  0  0  0  0  0
  139.4173   73.7167  220.6531 H   0  0  0  0  0  0  0  0  0  0  0  0
  143.1063   75.7199  220.6229 H   0  0  0  0  0  0  0  0  0  0  0  0
  141.8570   75.0226  219.5888 H   0  0  0  0  0  0  0  0  0  0  0  0
  143.2608   77.5510  219.2621 H   0  0  0  0  0  0  0  0  0  0  0  0
  141.4284   79.1397  219.5996 H   0  0  0  0  0  0  0  0  0  0  0  0
  140.1757   77.9964  219.3170 H   0  0  0  0  0  0  0  0  0  0  0  0
  142.1847   77.9295  221.8242 H   0  0  0  0  0  0  0  0  0  0  0  0
  138.5020   77.8972  221.2949 H   0  0  0  0  0  0  0  0  0  0  0  0
  137.1231   79.3364  222.7173 H   0  0  0  0  0  0  0  0  0  0  0  0
  140.6835   80.8275  224.5682 H   0  0  0  0  0  0  0  0  0  0  0  0
  142.0530   79.3823  223.1340 H   0  0  0  0  0  0  0  0  0  0  0  0
  139.1249   69.3563  222.5695 H   0  0  0  0  0  0  0  0  0  0  0  0
  138.7314   67.9173  224.5621 H   0  0  0  0  0  0  0  0  0  0  0  0
  139.0591   67.5166  226.9783 H   0  0  0  0  0  0  0  0  0  0  0  0
  141.3170   70.4151  229.2732 H   0  0  0  0  0  0  0  0  0  0  0  0
  141.6187   71.7433  227.1932 H   0  0  0  0  0  0  0  0  0  0  0  0
  1  2  2  0
  2  3  1  0
  3  4  1  0
  4  5  1  0
  5  6  2  0
  5  7  1  0
  7  8  1  0
  8  9  1  0
  9 10  1  0
  9 11  1  0
 11 12  1  0
 12 13  1  0
 13 14  2  0
 14 15  1  0
 15 16  2  0
 16 17  1  0
 16 18  1  0
 18 19  2  0
  2 20  1  0
 20 21  2  0
 21 22  1  0
 22 23  2  0
 23 24  1  0
 24 25  2  0
 25 26  1  0
 25 27  1  0
 27 28  2  0
 28 29  1  0
 29 30  2  0
 12  7  1  0
 19 13  1  0
 30 20  1  0
 29 23  1  0
  3 31  1  0
  4 32  1  0
  4 33  1  0
  8 34  1  0
  8 35  1  0
  9 36  1  6
 11 37  1  0
 11 38  1  0
 12 39  1  1
 14 40  1  0
 15 41  1  0
 18 42  1  0
 19 43  1  0
 21 44  1  0
 22 45  1  0
 24 46  1  0
 27 47  1  0
 28 48  1  0
M  END
>  <smiles>  (9) 
O=C(NCC(=O)N1C[C@@H](F)C[C@H]1c1ccc(Cl)cc1)c1ccc2cc(F)ccc2n1

>  <score_type>  (9) 
oracle

>  <origin>  (9) 
autodockgpu

>  <m_score__min__energy>  (9) 
-8.8800000000000008

>  <m_primary>  (9) 
energy

>  <rmsd>  (9) 
1.9668159390686608

>  <m_score__min__rmsd>  (9) 
1.9668159390686608

>  <meeko>  (9) 
{"free_energy": -8.42, "intermolecular_energy": -9.91, "internal_energy": -1.57, "cluster_size": 18, "cluster_id": 2, "rank_in_cluster": 12}

>  <energy>  (9) 
-8.56

>  <cluster_rmsd>  (9) 
1.1

>  <cluster>  (9) 
1

$$$$

     RDKit          3D

 48 51  0  0  0  0  0  0  0  0999 V2000
  138.0940   71.7070  222.2650 O   0  0  0  0  0  0  0  0  0  0  0  0
  139.2400   71.5940  222.7900 C   0  0  0  0  0  0  0  0  0  0  0  0
  140.3790   72.3020  222.3150 N   0  0  0  0  0  0  0  0  0  0  0  0
  140.1950   73.1960  221.1670 C   0  0  0  0  0  0  0  0  0  0  0  0
  140.0900   74.5970  221.5940 C   0  0  0  0  0  0  0  0  0  0  0  0
  141.1950   75.1380  221.9810 O   0  0  0  0  0  0  0  0  0  0  0  0
  138.9650   75.4230  221.6390 N   0  0  0  0  0  0  0  0  0  0  0  0
  137.6110   74.7940  221.4200 C   0  0  0  0  0  0  0  0  0  0  0  0
  136.6610   75.6120  222.2460 C   0  0  1  0  0  0  0  0  0  0  0  0
  135.9410   74.8590  223.1470 F   0  0  0  0  0  0  0  0  0  0  0  0
  137.5730   76.6110  222.9740 C   0  0  0  0  0  0  0  0  0  0  0  0
  138.6380   76.7760  221.8710 C   0  0  1  0  0  0  0  0  0  0  0  0
  139.6510   77.7370  222.2500 C   0  0  0  0  0  0  0  0  0  0  0  0
  140.9130   77.8600  221.7500 C   0  0  0  0  0  0  0  0  0  0  0  0
  141.8350   78.7980  222.1760 C   0  0  0  0  0  0  0  0  0  0  0  0
  141.4900   79.6870  223.1700 C   0  0  0  0  0  0  0  0  0  0  0  0
  142.6070   80.9000  223.7570 Cl  0  0  0  0  0  0  0  0  0  0  0  0
  140.2220   79.5990  223.7040 C   0  0  0  0  0  0  0  0  0  0  0  0
  139.3160   78.6560  223.2670 C   0  0  0  0  0  0  0  0  0  0  0  0
  139.4250   70.6940  223.9470 C   0  0  0  0  0  0  0  0  0  0  0  0
  138.9370   69.4000  223.9000 C   0  0  0  0  0  0  0  0  0  0  0  0
  139.1050   68.5410  224.9860 C   0  0  0  0  0  0  0  0  0  0  0  0
  139.7600   68.9760  226.1110 C   0  0  0  0  0  0  0  0  0  0  0  0
  139.9560   68.1740  227.2120 C   0  0  0  0  0  0  0  0  0  0  0  0
  140.6260   68.6840  228.3080 C   0  0  0  0  0  0  0  0  0  0  0  0
  140.8500   67.9370  229.4280 F   0  0  0  0  0  0  0  0  0  0  0  0
  141.1120   69.9870  228.3400 C   0  0  0  0  0  0  0  0  0  0  0  0
  140.8910   70.7550  227.2130 C   0  0  0  0  0  0  0  0  0  0  0  0
  140.2270   70.2790  226.1000 C   0  0  0  0  0  0  0  0  0  0  0  0
  140.0640   71.1010  225.0580 N   0  0  0  0  0  0  0  0  0  0  0  0
  141.3150   72.1820  222.7780 H   0  0  0  0  0  0  0  0  0  0  0  0
  141.0554   73.0913  220.4896 H   0  0  0  0  0  0  0  0  0  0  0  0
  139.2616   72.9176  220.6559 H   0  0  0  0  0  0  0  0  0  0  0  0
  137.3330   74.8364  220.3565 H   0  0  0  0  0  0  0  0  0  0  0  0
  137.5984   73.7325  221.7081 H   0  0  0  0  0  0  0  0  0  0  0  0
  135.8959   76.0916  221.6178 H   0  0  0  0  0  0  0  0  0  0  0  0
  137.0581   77.5563  223.2003 H   0  0  0  0  0  0  0  0  0  0  0  0
  137.9450   76.2943  223.9596 H   0  0  0  0  0  0  0  0  0  0  0  0
  138.3551   77.2469  220.9180 H   0  0  0  0  0  0  0  0  0  0  0  0
  141.2187   77.1658  220.9534 H   0  0  0  0  0  0  0  0  0  0  0  0
  142.8373   78.8341  221.7242 H   0  0  0  0  0  0  0  0  0  0  0  0
  139.9255   80.2990  224.4990 H   0  0  0  0  0  0  0  0  0  0  0  0
  138.3140   78.6194  223.7193 H   0  0  0  0  0  0  0  0  0  0  0  0
  138.4129   69.0463  222.9999 H   0  0  0  0  0  0  0  0  0  0  0  0
  138.7124   67.5145  224.9408 H   0  0  0  0  0  0  0  0  0  0  0  0
  139.5837   67.1390  227.2197 H   0  0  0  0  0  0  0  0  0  0  0  0
  141.6443   70.3850  229.2165 H   0  0  0  0  0  0  0  0  0  0  0  0
  141.2603   71.7911  227.2020 H   0  0  0  0  0  0  0  0  0  0  0  0
  1  2  2  0
  2  3  1  0
  3  4  1  0
  4  5  1  0
  5  6  2  0
  5  7  1  0
  7  8  1  0
  8  9  1  0
  9 10  1  0
  9 11  1  0
 11 12  1  0
 12 13  1  0
 13 14  2  0
 14 15  1  0
 15 16  2  0
 16 17  1  0
 16 18  1  0
 18 19  2  0
  2 20  1  0
 20 21  2  0
 21 22  1  0
 22 23  2  0
 23 24  1  0
 24 25  2  0
 25 26  1  0
 25 27  1  0
 27 28  2  0
 28 29  1  0
 29 30  2  0
 12  7  1  0
 19 13  1  0
 30 20  1  0
 29 23  1  0
  3 31  1  0
  4 32  1  0
  4 33  1  0
  8 34  1  0
  8 35  1  0
  9 36  1  6
 11 37  1  0
 11 38  1  0
 12 39  1  6
 14 40  1  0
 15 41  1  0
 18 42  1  0
 19 43  1  0
 21 44  1  0
 22 45  1  0
 24 46  1  0
 27 47  1  0
 28 48  1  0
M  END
>  <smiles>  (10) 
O=C(NCC(=O)N1C[C@@H](F)C[C@H]1c1ccc(Cl)cc1)c1ccc2cc(F)ccc2n1

>  <score_type>  (10) 
oracle

>  <origin>  (10) 
autodockgpu

>  <m_score__min__energy>  (10) 
-8.8800000000000008

>  <m_primary>  (10) 
energy

>  <rmsd>  (10) 
2.814020253780232

>  <m_score__min__rmsd>  (10) 
2.814020253780232

>  <meeko>  (10) 
{"free_energy": -8.59, "intermolecular_energy": -10.08, "internal_energy": -1.34, "cluster_size": 22, "cluster_id": 1, "rank_in_cluster": 8}

>  <energy>  (10) 
-8.46

>  <cluster_rmsd>  (10) 
0.93

>  <cluster>  (10) 
1

$$$$

     RDKit          3D

 48 51  0  0  0  0  0  0  0  0999 V2000
  141.4350   72.3070  221.6610 O   0  0  0  0  0  0  0  0  0  0  0  0
  140.4860   72.5140  222.4730 C   0  0  0  0  0  0  0  0  0  0  0  0
  139.6030   73.6250  222.3590 N   0  0  0  0  0  0  0  0  0  0  0  0
  139.8180   74.5550  221.2470 C   0  0  0  0  0  0  0  0  0  0  0  0
  138.7700   75.5810  221.1990 C   0  0  0  0  0  0  0  0  0  0  0  0
  137.8300   75.4480  222.0720 O   0  0  0  0  0  0  0  0  0  0  0  0
  138.6490   76.6790  220.3440 N   0  0  0  0  0  0  0  0  0  0  0  0
  137.6260   76.6110  219.2370 C   0  0  0  0  0  0  0  0  0  0  0  0
  137.1700   78.0270  219.0370 C   0  0  1  0  0  0  0  0  0  0  0  0
  135.8060   78.1790  219.1570 F   0  0  0  0  0  0  0  0  0  0  0  0
  137.9060   78.8090  220.1350 C   0  0  0  0  0  0  0  0  0  0  0  0
  139.1980   77.9680  220.1710 C   0  0  1  0  0  0  0  0  0  0  0  0
  140.1560   78.5060  221.1120 C   0  0  0  0  0  0  0  0  0  0  0  0
  140.4600   78.0340  222.3550 C   0  0  0  0  0  0  0  0  0  0  0  0
  141.3800   78.6150  223.2080 C   0  0  0  0  0  0  0  0  0  0  0  0
  142.0580   79.7460  222.8090 C   0  0  0  0  0  0  0  0  0  0  0  0
  143.2360   80.5320  223.8370 Cl  0  0  0  0  0  0  0  0  0  0  0  0
  141.7810   80.2570  221.5580 C   0  0  0  0  0  0  0  0  0  0  0  0
  140.8590   79.6650  220.7220 C   0  0  0  0  0  0  0  0  0  0  0  0
  140.2690   71.5770  223.5930 C   0  0  0  0  0  0  0  0  0  0  0  0
  139.5940   70.3880  223.3780 C   0  0  0  0  0  0  0  0  0  0  0  0
  139.3820   69.4950  224.4280 C   0  0  0  0  0  0  0  0  0  0  0  0
  139.8440   69.7910  225.6860 C   0  0  0  0  0  0  0  0  0  0  0  0
  139.6650   68.9490  226.7610 C   0  0  0  0  0  0  0  0  0  0  0  0
  140.1600   69.3180  227.9970 C   0  0  0  0  0  0  0  0  0  0  0  0
  140.0130   68.5260  229.0970 F   0  0  0  0  0  0  0  0  0  0  0  0
  140.8370   70.5170  228.1970 C   0  0  0  0  0  0  0  0  0  0  0  0
  140.9920   71.3300  227.0910 C   0  0  0  0  0  0  0  0  0  0  0  0
  140.5120   70.9940  225.8410 C   0  0  0  0  0  0  0  0  0  0  0  0
  140.7140   71.8490  224.8320 N   0  0  0  0  0  0  0  0  0  0  0  0
  138.8260   73.7630  223.0530 H   0  0  0  0  0  0  0  0  0  0  0  0
  140.7942   75.0458  221.3741 H   0  0  0  0  0  0  0  0  0  0  0  0
  139.7883   73.9845  220.3069 H   0  0  0  0  0  0  0  0  0  0  0  0
  138.0801   76.2179  218.3154 H   0  0  0  0  0  0  0  0  0  0  0  0
  136.7907   75.9411  219.4889 H   0  0  0  0  0  0  0  0  0  0  0  0
  137.3952   78.3793  218.0196 H   0  0  0  0  0  0  0  0  0  0  0  0
  138.0968   79.8530  219.8459 H   0  0  0  0  0  0  0  0  0  0  0  0
  137.3729   78.9146  221.0913 H   0  0  0  0  0  0  0  0  0  0  0  0
  139.8597   77.9631  219.2923 H   0  0  0  0  0  0  0  0  0  0  0  0
  139.9380   77.1301  222.7022 H   0  0  0  0  0  0  0  0  0  0  0  0
  141.5695   78.1769  224.1991 H   0  0  0  0  0  0  0  0  0  0  0  0
  142.3096   81.1601  221.2190 H   0  0  0  0  0  0  0  0  0  0  0  0
  140.6677   80.1046  219.7320 H   0  0  0  0  0  0  0  0  0  0  0  0
  139.2220   70.1456  222.3716 H   0  0  0  0  0  0  0  0  0  0  0  0
  138.8441   68.5526  224.2478 H   0  0  0  0  0  0  0  0  0  0  0  0
  139.1340   67.9937  226.6370 H   0  0  0  0  0  0  0  0  0  0  0  0
  141.2285   70.8027  229.1845 H   0  0  0  0  0  0  0  0  0  0  0  0
  141.5210   72.2869  227.2116 H   0  0  0  0  0  0  0  0  0  0  0  0
  1  2  2  0
  2  3  1  0
  3  4  1  0
  4  5  1  0
  5  6  2  0
  5  7  1  0
  7  8  1  0
  8  9  1  0
  9 10  1  0
  9 11  1  0
 11 12  1  0
 12 13  1  0
 13 14  2  0
 14 15  1  0
 15 16  2  0
 16 17  1  0
 16 18  1  0
 18 19  2  0
  2 20  1  0
 20 21  2  0
 21 22  1  0
 22 23  2  0
 23 24  1  0
 24 25  2  0
 25 26  1  0
 25 27  1  0
 27 28  2  0
 28 29  1  0
 29 30  2  0
 12  7  1  0
 19 13  1  0
 30 20  1  0
 29 23  1  0
  3 31  1  0
  4 32  1  0
  4 33  1  0
  8 34  1  0
  8 35  1  0
  9 36  1  6
 11 37  1  0
 11 38  1  0
 12 39  1  6
 14 40  1  0
 15 41  1  0
 18 42  1  0
 19 43  1  0
 21 44  1  0
 22 45  1  0
 24 46  1  0
 27 47  1  0
 28 48  1  0
M  END
>  <smiles>  (11) 
O=C(NCC(=O)N1C[C@@H](F)C[C@H]1c1ccc(Cl)cc1)c1ccc2cc(F)ccc2n1

>  <score_type>  (11) 
oracle

>  <origin>  (11) 
autodockgpu

>  <m_score__min__energy>  (11) 
-8.8800000000000008

>  <m_primary>  (11) 
energy

>  <rmsd>  (11) 
2.178881979312971

>  <m_score__min__rmsd>  (11) 
2.178881979312971

>  <meeko>  (11) 
{"free_energy": -7.96, "intermolecular_energy": -9.46, "internal_energy": -1.71, "cluster_size": 22, "cluster_id": 1, "rank_in_cluster": 21}

>  <energy>  (11) 
-8.28

>  <cluster_rmsd>  (11) 
1.17

>  <cluster>  (11) 
1

$$$$

     RDKit          3D

 48 51  0  0  0  0  0  0  0  0999 V2000
  141.1090   72.0190  221.8980 O   0  0  0  0  0  0  0  0  0  0  0  0
  140.0880   71.9780  222.6440 C   0  0  0  0  0  0  0  0  0  0  0  0
  138.9470   72.8030  222.4350 N   0  0  0  0  0  0  0  0  0  0  0  0
  138.9770   73.7320  221.3020 C   0  0  0  0  0  0  0  0  0  0  0  0
  139.1910   75.1140  221.7510 C   0  0  0  0  0  0  0  0  0  0  0  0
  140.3230   75.3360  222.3260 O   0  0  0  0  0  0  0  0  0  0  0  0
  138.3430   76.2180  221.6400 N   0  0  0  0  0  0  0  0  0  0  0  0
  136.8870   75.9700  221.3310 C   0  0  0  0  0  0  0  0  0  0  0  0
  136.1470   77.0830  222.0150 C   0  0  1  0  0  0  0  0  0  0  0  0
  135.1780   76.6330  222.8860 F   0  0  0  0  0  0  0  0  0  0  0  0
  137.2460   77.8480  222.7670 C   0  0  0  0  0  0  0  0  0  0  0  0
  138.3930   77.6230  221.7610 C   0  0  1  0  0  0  0  0  0  0  0  0
  139.6040   78.2960  222.1780 C   0  0  0  0  0  0  0  0  0  0  0  0
  140.8220   78.2790  221.5650 C   0  0  0  0  0  0  0  0  0  0  0  0
  141.9420   78.9380  222.0340 C   0  0  0  0  0  0  0  0  0  0  0  0
  141.8620   79.6750  223.1960 C   0  0  0  0  0  0  0  0  0  0  0  0
  143.2410   80.5330  223.8470 Cl  0  0  0  0  0  0  0  0  0  0  0  0
  140.6480   79.7200  223.8490 C   0  0  0  0  0  0  0  0  0  0  0  0
  139.5410   79.0550  223.3660 C   0  0  0  0  0  0  0  0  0  0  0  0
  140.0570   71.0410  223.7860 C   0  0  0  0  0  0  0  0  0  0  0  0
  139.5110   69.7790  223.6300 C   0  0  0  0  0  0  0  0  0  0  0  0
  139.4760   68.8860  224.7000 C   0  0  0  0  0  0  0  0  0  0  0  0
  139.9860   69.2550  225.9200 C   0  0  0  0  0  0  0  0  0  0  0  0
  139.9790   68.4170  227.0120 C   0  0  0  0  0  0  0  0  0  0  0  0
  140.5110   68.8620  228.2070 C   0  0  0  0  0  0  0  0  0  0  0  0
  140.5320   68.0770  229.3230 F   0  0  0  0  0  0  0  0  0  0  0  0
  141.0570   70.1340  228.3490 C   0  0  0  0  0  0  0  0  0  0  0  0
  141.0410   70.9400  227.2270 C   0  0  0  0  0  0  0  0  0  0  0  0
  140.5180   70.5290  226.0170 C   0  0  0  0  0  0  0  0  0  0  0  0
  140.5510   71.3840  224.9880 N   0  0  0  0  0  0  0  0  0  0  0  0
  138.1170   72.7400  223.0770 H   0  0  0  0  0  0  0  0  0  0  0  0
  139.7946   73.4446  220.6245 H   0  0  0  0  0  0  0  0  0  0  0  0
  138.0073   73.6809  220.7852 H   0  0  0  0  0  0  0  0  0  0  0  0
  136.7121   75.9999  220.2454 H   0  0  0  0  0  0  0  0  0  0  0  0
  136.5549   74.9802  221.6775 H   0  0  0  0  0  0  0  0  0  0  0  0
  135.5974   77.7024  221.2909 H   0  0  0  0  0  0  0  0  0  0  0  0
  137.0024   78.9137  222.8893 H   0  0  0  0  0  0  0  0  0  0  0  0
  137.4397   77.5226  223.7998 H   0  0  0  0  0  0  0  0  0  0  0  0
  138.3253   78.0735  220.7598 H   0  0  0  0  0  0  0  0  0  0  0  0
  140.9194   77.7014  220.6339 H   0  0  0  0  0  0  0  0  0  0  0  0
  142.8921   78.8749  221.4833 H   0  0  0  0  0  0  0  0  0  0  0  0
  140.5607   80.3012  224.7788 H   0  0  0  0  0  0  0  0  0  0  0  0
  138.5910   79.1172  223.9170 H   0  0  0  0  0  0  0  0  0  0  0  0
  139.1015   69.4782  222.6544 H   0  0  0  0  0  0  0  0  0  0  0  0
  139.0395   67.8852  224.5666 H   0  0  0  0  0  0  0  0  0  0  0  0
  139.5549   67.4050  226.9342 H   0  0  0  0  0  0  0  0  0  0  0  0
  141.4791   70.4796  229.3042 H   0  0  0  0  0  0  0  0  0  0  0  0
  141.4632   71.9531  227.3008 H   0  0  0  0  0  0  0  0  0  0  0  0
  1  2  2  0
  2  3  1  0
  3  4  1  0
  4  5  1  0
  5  6  2  0
  5  7  1  0
  7  8  1  0
  8  9  1  0
  9 10  1  0
  9 11  1  0
 11 12  1  0
 12 13  1  0
 13 14  2  0
 14 15  1  0
 15 16  2  0
 16 17  1  0
 16 18  1  0
 18 19  2  0
  2 20  1  0
 20 21  2  0
 21 22  1  0
 22 23  2  0
 23 24  1  0
 24 25  2  0
 25 26  1  0
 25 27  1  0
 27 28  2  0
 28 29  1  0
 29 30  2  0
 12  7  1  0
 19 13  1  0
 30 20  1  0
 29 23  1  0
  3 31  1  0
  4 32  1  0
  4 33  1  0
  8 34  1  0
  8 35  1  0
  9 36  1  6
 11 37  1  0
 11 38  1  0
 12 39  1  6
 14 40  1  0
 15 41  1  0
 18 42  1  0
 19 43  1  0
 21 44  1  0
 22 45  1  0
 24 46  1  0
 27 47  1  0
 28 48  1  0
M  END
>  <smiles>  (12) 
O=C(NCC(=O)N1C[C@@H](F)C[C@H]1c1ccc(Cl)cc1)c1ccc2cc(F)ccc2n1

>  <score_type>  (12) 
oracle

>  <origin>  (12) 
autodockgpu

>  <m_score__min__energy>  (12) 
-8.8800000000000008

>  <m_primary>  (12) 
energy

>  <rmsd>  (12) 
2.8305572555365304

>  <m_score__min__rmsd>  (12) 
2.8305572555365304

>  <meeko>  (12) 
{"free_energy": -8.88, "intermolecular_energy": -10.37, "internal_energy": -1.17, "cluster_size": 22, "cluster_id": 1, "rank_in_cluster": 1}

>  <energy>  (12) 
-8.24

>  <cluster_rmsd>  (12) 
1.87

>  <cluster>  (12) 
1

$$$$

     RDKit          3D

 48 51  0  0  0  0  0  0  0  0999 V2000
  141.2090   72.2440  221.4430 O   0  0  0  0  0  0  0  0  0  0  0  0
  140.3560   72.4940  222.3430 C   0  0  0  0  0  0  0  0  0  0  0  0
  139.5070   73.6350  222.3050 N   0  0  0  0  0  0  0  0  0  0  0  0
  139.6420   74.5460  221.1650 C   0  0  0  0  0  0  0  0  0  0  0  0
  140.7190   75.5190  221.3850 C   0  0  0  0  0  0  0  0  0  0  0  0
  140.6330   76.1990  222.4780 O   0  0  0  0  0  0  0  0  0  0  0  0
  141.8220   75.8110  220.5790 N   0  0  0  0  0  0  0  0  0  0  0  0
  142.5660   74.6600  219.9460 C   0  0  0  0  0  0  0  0  0  0  0  0
  143.0880   75.1990  218.6450 C   0  0  1  0  0  0  0  0  0  0  0  0
  142.6940   74.4570  217.5540 F   0  0  0  0  0  0  0  0  0  0  0  0
  142.5100   76.6210  218.5780 C   0  0  0  0  0  0  0  0  0  0  0  0
  142.5240   76.9330  220.0890 C   0  0  1  0  0  0  0  0  0  0  0  0
  142.0670   78.2780  220.3570 C   0  0  0  0  0  0  0  0  0  0  0  0
  141.7730   79.2560  219.4530 C   0  0  0  0  0  0  0  0  0  0  0  0
  141.3540   80.5300  219.7870 C   0  0  0  0  0  0  0  0  0  0  0  0
  141.2090   80.8710  221.1140 C   0  0  0  0  0  0  0  0  0  0  0  0
  140.6820   82.4660  221.6080 Cl  0  0  0  0  0  0  0  0  0  0  0  0
  141.4950   79.9120  222.0630 C   0  0  0  0  0  0  0  0  0  0  0  0
  141.9120   78.6470  221.7100 C   0  0  0  0  0  0  0  0  0  0  0  0
  140.2190   71.5750  223.4920 C   0  0  0  0  0  0  0  0  0  0  0  0
  139.5900   70.3530  223.3290 C   0  0  0  0  0  0  0  0  0  0  0  0
  139.4540   69.4780  224.4050 C   0  0  0  0  0  0  0  0  0  0  0  0
  139.9470   69.8240  225.6390 C   0  0  0  0  0  0  0  0  0  0  0  0
  139.8420   69.0020  226.7380 C   0  0  0  0  0  0  0  0  0  0  0  0
  140.3630   69.4210  227.9470 C   0  0  0  0  0  0  0  0  0  0  0  0
  140.2900   68.6500  229.0700 F   0  0  0  0  0  0  0  0  0  0  0  0
  140.9940   70.6530  228.0960 C   0  0  0  0  0  0  0  0  0  0  0  0
  141.0740   71.4440  226.9670 C   0  0  0  0  0  0  0  0  0  0  0  0
  140.5660   71.0580  225.7420 C   0  0  0  0  0  0  0  0  0  0  0  0
  140.6950   71.8960  224.7080 N   0  0  0  0  0  0  0  0  0  0  0  0
  138.8100   73.8090  223.0720 H   0  0  0  0  0  0  0  0  0  0  0  0
  139.8678   73.9594  220.2622 H   0  0  0  0  0  0  0  0  0  0  0  0
  138.6965   75.0954  221.0455 H   0  0  0  0  0  0  0  0  0  0  0  0
  143.3963   74.3359  220.5906 H   0  0  0  0  0  0  0  0  0  0  0  0
  141.9190   73.7827  219.7985 H   0  0  0  0  0  0  0  0  0  0  0  0
  144.1871   75.1688  218.6120 H   0  0  0  0  0  0  0  0  0  0  0  0
  143.1536   77.3053  218.0057 H   0  0  0  0  0  0  0  0  0  0  0  0
  141.5374   76.7224  218.0742 H   0  0  0  0  0  0  0  0  0  0  0  0
  143.4882   77.0113  220.6126 H   0  0  0  0  0  0  0  0  0  0  0  0
  141.8764   79.0143  218.3849 H   0  0  0  0  0  0  0  0  0  0  0  0
  141.1379   81.2664  218.9990 H   0  0  0  0  0  0  0  0  0  0  0  0
  141.3875   80.1633  223.1285 H   0  0  0  0  0  0  0  0  0  0  0  0
  142.1282   77.9107  222.4981 H   0  0  0  0  0  0  0  0  0  0  0  0
  139.1943   70.0702  222.3423 H   0  0  0  0  0  0  0  0  0  0  0  0
  138.9514   68.5095  224.2657 H   0  0  0  0  0  0  0  0  0  0  0  0
  139.3487   68.0223  226.6546 H   0  0  0  0  0  0  0  0  0  0  0  0
  141.4070   70.9791  229.0620 H   0  0  0  0  0  0  0  0  0  0  0  0
  141.5643   72.4255  227.0468 H   0  0  0  0  0  0  0  0  0  0  0  0
  1  2  2  0
  2  3  1  0
  3  4  1  0
  4  5  1  0
  5  6  2  0
  5  7  1  0
  7  8  1  0
  8  9  1  0
  9 10  1  0
  9 11  1  0
 11 12  1  0
 12 13  1  0
 13 14  2  0
 14 15  1  0
 15 16  2  0
 16 17  1  0
 16 18  1  0
 18 19  2  0
  2 20  1  0
 20 21  2  0
 21 22  1  0
 22 23  2  0
 23 24  1  0
 24 25  2  0
 25 26  1  0
 25 27  1  0
 27 28  2  0
 28 29  1  0
 29 30  2  0
 12  7  1  0
 19 13  1  0
 30 20  1  0
 29 23  1  0
  3 31  1  0
  4 32  1  0
  4 33  1  0
  8 34  1  0
  8 35  1  0
  9 36  1  1
 11 37  1  0
 11 38  1  0
 12 39  1  1
 14 40  1  0
 15 41  1  0
 18 42  1  0
 19 43  1  0
 21 44  1  0
 22 45  1  0
 24 46  1  0
 27 47  1  0
 28 48  1  0
M  END
>  <smiles>  (13) 
O=C(NCC(=O)N1C[C@@H](F)C[C@H]1c1ccc(Cl)cc1)c1ccc2cc(F)ccc2n1

>  <score_type>  (13) 
oracle

>  <origin>  (13) 
autodockgpu

>  <m_score__min__energy>  (13) 
-8.8800000000000008

>  <m_primary>  (13) 
energy

>  <rmsd>  (13) 
1.9960797244953954

>  <m_score__min__rmsd>  (13) 
1.9960797244953954

>  <meeko>  (13) 
{"free_energy": -8.45, "intermolecular_energy": -9.94, "internal_energy": -1.31, "cluster_size": 18, "cluster_id": 2, "rank_in_cluster": 11}

>  <energy>  (13) 
-8.21

>  <cluster_rmsd>  (13) 
1.17

>  <cluster>  (13) 
1

$$$$

     RDKit          3D

 48 51  0  0  0  0  0  0  0  0999 V2000
  139.8300   71.0800  221.2500 O   0  0  0  0  0  0  0  0  0  0  0  0
  139.3230   71.4440  222.3510 C   0  0  0  0  0  0  0  0  0  0  0  0
  138.5740   72.6450  222.4940 N   0  0  0  0  0  0  0  0  0  0  0  0
  138.3920   73.4810  221.3040 C   0  0  0  0  0  0  0  0  0  0  0  0
  139.1440   74.7370  221.4140 C   0  0  0  0  0  0  0  0  0  0  0  0
  139.3810   75.1330  222.6180 O   0  0  0  0  0  0  0  0  0  0  0  0
  139.6390   75.5610  220.4000 N   0  0  0  0  0  0  0  0  0  0  0  0
  138.7260   76.6230  219.8360 C   0  0  0  0  0  0  0  0  0  0  0  0
  139.6360   77.7480  219.4380 C   0  0  1  0  0  0  0  0  0  0  0  0
  139.3000   78.9490  220.0230 F   0  0  0  0  0  0  0  0  0  0  0  0
  141.0240   77.2830  219.9030 C   0  0  0  0  0  0  0  0  0  0  0  0
  140.8320   75.7690  219.6760 C   0  0  1  0  0  0  0  0  0  0  0  0
  142.0360   75.0290  219.9870 C   0  0  0  0  0  0  0  0  0  0  0  0
  142.1330   73.7500  220.4500 C   0  0  0  0  0  0  0  0  0  0  0  0
  143.3240   73.1130  220.7410 C   0  0  0  0  0  0  0  0  0  0  0  0
  144.5150   73.7820  220.5600 C   0  0  0  0  0  0  0  0  0  0  0  0
  146.0590   73.0350  220.9080 Cl  0  0  0  0  0  0  0  0  0  0  0  0
  144.4630   75.0780  220.0920 C   0  0  0  0  0  0  0  0  0  0  0  0
  143.2650   75.6980  219.8090 C   0  0  0  0  0  0  0  0  0  0  0  0
  139.5060   70.6020  223.5500 C   0  0  0  0  0  0  0  0  0  0  0  0
  139.0700   69.2880  223.5450 C   0  0  0  0  0  0  0  0  0  0  0  0
  139.2360   68.4840  224.6720 C   0  0  0  0  0  0  0  0  0  0  0  0
  139.8360   68.9910  225.7970 C   0  0  0  0  0  0  0  0  0  0  0  0
  140.0270   68.2450  226.9380 C   0  0  0  0  0  0  0  0  0  0  0  0
  140.6390   68.8280  228.0310 C   0  0  0  0  0  0  0  0  0  0  0  0
  140.8560   68.1400  229.1880 F   0  0  0  0  0  0  0  0  0  0  0  0
  141.0730   70.1500  228.0210 C   0  0  0  0  0  0  0  0  0  0  0  0
  140.8590   70.8600  226.8550 C   0  0  0  0  0  0  0  0  0  0  0  0
  140.2510   70.3110  225.7440 C   0  0  0  0  0  0  0  0  0  0  0  0
  140.0910   71.0810  224.6620 N   0  0  0  0  0  0  0  0  0  0  0  0
  138.1680   72.9140  223.4260 H   0  0  0  0  0  0  0  0  0  0  0  0
  138.7447   72.9285  220.4206 H   0  0  0  0  0  0  0  0  0  0  0  0
  137.3232   73.7235  221.2104 H   0  0  0  0  0  0  0  0  0  0  0  0
  138.1808   76.2390  218.9611 H   0  0  0  0  0  0  0  0  0  0  0  0
  137.9671   76.9442  220.5646 H   0  0  0  0  0  0  0  0  0  0  0  0
  139.5779   77.9446  218.3573 H   0  0  0  0  0  0  0  0  0  0  0  0
  141.8318   77.6980  219.2823 H   0  0  0  0  0  0  0  0  0  0  0  0
  141.3183   77.5848  220.9190 H   0  0  0  0  0  0  0  0  0  0  0  0
  140.7021   75.3914  218.6510 H   0  0  0  0  0  0  0  0  0  0  0  0
  141.2000   73.1875  220.6021 H   0  0  0  0  0  0  0  0  0  0  0  0
  143.3215   72.0784  221.1148 H   0  0  0  0  0  0  0  0  0  0  0  0
  145.4016   75.6312  219.9406 H   0  0  0  0  0  0  0  0  0  0  0  0
  143.2673   76.7334  219.4376 H   0  0  0  0  0  0  0  0  0  0  0  0
  138.5893   68.8754  222.6457 H   0  0  0  0  0  0  0  0  0  0  0  0
  138.8853   67.4415  224.6592 H   0  0  0  0  0  0  0  0  0  0  0  0
  139.6962   67.1967  226.9792 H   0  0  0  0  0  0  0  0  0  0  0  0
  141.5607   70.6059  228.8952 H   0  0  0  0  0  0  0  0  0  0  0  0
  141.1876   71.9088  226.8102 H   0  0  0  0  0  0  0  0  0  0  0  0
  1  2  2  0
  2  3  1  0
  3  4  1  0
  4  5  1  0
  5  6  2  0
  5  7  1  0
  7  8  1  0
  8  9  1  0
  9 10  1  0
  9 11  1  0
 11 12  1  0
 12 13  1  0
 13 14  2  0
 14 15  1  0
 15 16  2  0
 16 17  1  0
 16 18  1  0
 18 19  2  0
  2 20  1  0
 20 21  2  0
 21 22  1  0
 22 23  2  0
 23 24  1  0
 24 25  2  0
 25 26  1  0
 25 27  1  0
 27 28  2  0
 28 29  1  0
 29 30  2  0
 12  7  1  0
 19 13  1  0
 30 20  1  0
 29 23  1  0
  3 31  1  0
  4 32  1  0
  4 33  1  0
  8 34  1  0
  8 35  1  0
  9 36  1  6
 11 37  1  0
 11 38  1  0
 12 39  1  6
 14 40  1  0
 15 41  1  0
 18 42  1  0
 19 43  1  0
 21 44  1  0
 22 45  1  0
 24 46  1  0
 27 47  1  0
 28 48  1  0
M  END
>  <smiles>  (14) 
O=C(NCC(=O)N1C[C@@H](F)C[C@H]1c1ccc(Cl)cc1)c1ccc2cc(F)ccc2n1

>  <score_type>  (14) 
oracle

>  <origin>  (14) 
autodockgpu

>  <m_score__min__energy>  (14) 
-8.8800000000000008

>  <m_primary>  (14) 
energy

>  <rmsd>  (14) 
1.3735315811022761

>  <m_score__min__rmsd>  (14) 
1.3735315811022761

>  <meeko>  (14) 
{"free_energy": -7.95, "intermolecular_energy": -9.44, "internal_energy": -1.6, "cluster_size": 6, "cluster_id": 3, "rank_in_cluster": 4}

>  <energy>  (14) 
-8.2

>  <cluster_rmsd>  (14) 
1.32

>  <cluster>  (14) 
1

$$$$

     RDKit          3D

 48 51  0  0  0  0  0  0  0  0999 V2000
  133.4720   70.1060  226.8420 O   0  0  0  0  0  0  0  0  0  0  0  0
  133.6380   71.1580  226.1580 C   0  0  0  0  0  0  0  0  0  0  0  0
  134.3480   71.1720  224.9240 N   0  0  0  0  0  0  0  0  0  0  0  0
  134.9000   69.9020  224.4420 C   0  0  0  0  0  0  0  0  0  0  0  0
  136.2150   70.0950  223.8190 C   0  0  0  0  0  0  0  0  0  0  0  0
  136.4930   71.3090  223.4850 O   0  0  0  0  0  0  0  0  0  0  0  0
  137.2050   69.1500  223.5390 N   0  0  0  0  0  0  0  0  0  0  0  0
  136.9410   68.1450  222.4440 C   0  0  0  0  0  0  0  0  0  0  0  0
  138.2880   67.8470  221.8530 C   0  0  1  0  0  0  0  0  0  0  0  0
  138.3440   68.0660  220.4940 F   0  0  0  0  0  0  0  0  0  0  0  0
  139.2360   68.7960  222.6000 C   0  0  0  0  0  0  0  0  0  0  0  0
  138.5070   68.8050  223.9600 C   0  0  1  0  0  0  0  0  0  0  0  0
  139.2140   69.6050  224.9360 C   0  0  0  0  0  0  0  0  0  0  0  0
  139.9020   70.7640  224.7250 C   0  0  0  0  0  0  0  0  0  0  0  0
  140.5690   71.4660  225.7110 C   0  0  0  0  0  0  0  0  0  0  0  0
  140.5600   70.9970  227.0060 C   0  0  0  0  0  0  0  0  0  0  0  0
  141.3840   71.8360  228.3020 Cl  0  0  0  0  0  0  0  0  0  0  0  0
  139.8760   69.8280  227.2640 C   0  0  0  0  0  0  0  0  0  0  0  0
  139.2170   69.1400  226.2680 C   0  0  0  0  0  0  0  0  0  0  0  0
  133.0820   72.4370  226.6430 C   0  0  0  0  0  0  0  0  0  0  0  0
  131.8860   72.4510  227.3390 C   0  0  0  0  0  0  0  0  0  0  0  0
  131.3500   73.6520  227.8010 C   0  0  0  0  0  0  0  0  0  0  0  0
  132.0090   74.8330  227.5690 C   0  0  0  0  0  0  0  0  0  0  0  0
  131.5290   76.0490  228.0010 C   0  0  0  0  0  0  0  0  0  0  0  0
  132.2510   77.1950  227.7280 C   0  0  0  0  0  0  0  0  0  0  0  0
  131.8260   78.4280  228.1300 F   0  0  0  0  0  0  0  0  0  0  0  0
  133.4530   77.1660  227.0270 C   0  0  0  0  0  0  0  0  0  0  0  0
  133.8950   75.9240  226.6130 C   0  0  0  0  0  0  0  0  0  0  0  0
  133.2010   74.7580  226.8680 C   0  0  0  0  0  0  0  0  0  0  0  0
  133.7130   73.6050  226.4260 N   0  0  0  0  0  0  0  0  0  0  0  0
  134.4650   72.0660  224.3840 H   0  0  0  0  0  0  0  0  0  0  0  0
  135.0038   69.2109  225.2915 H   0  0  0  0  0  0  0  0  0  0  0  0
  134.2148   69.4897  223.6867 H   0  0  0  0  0  0  0  0  0  0  0  0
  136.4907   67.2312  222.8590 H   0  0  0  0  0  0  0  0  0  0  0  0
  136.2373   68.5308  221.6917 H   0  0  0  0  0  0  0  0  0  0  0  0
  138.5487   66.7846  221.9686 H   0  0  0  0  0  0  0  0  0  0  0  0
  140.2556   68.3904  222.6769 H   0  0  0  0  0  0  0  0  0  0  0  0
  139.3993   69.7791  222.1343 H   0  0  0  0  0  0  0  0  0  0  0  0
  138.4619   67.8784  224.5510 H   0  0  0  0  0  0  0  0  0  0  0  0
  139.9275   71.1667  223.7017 H   0  0  0  0  0  0  0  0  0  0  0  0
  141.1043   72.3944  225.4629 H   0  0  0  0  0  0  0  0  0  0  0  0
  139.8557   69.4344  228.2910 H   0  0  0  0  0  0  0  0  0  0  0  0
  138.6833   68.2108  226.5163 H   0  0  0  0  0  0  0  0  0  0  0  0
  131.3542   71.5071  227.5292 H   0  0  0  0  0  0  0  0  0  0  0  0
  130.3980   73.6530  228.3520 H   0  0  0  0  0  0  0  0  0  0  0  0
  130.5817   76.1075  228.5571 H   0  0  0  0  0  0  0  0  0  0  0  0
  134.0212   78.0834  226.8138 H   0  0  0  0  0  0  0  0  0  0  0  0
  134.8414   75.8615  226.0558 H   0  0  0  0  0  0  0  0  0  0  0  0
  1  2  2  0
  2  3  1  0
  3  4  1  0
  4  5  1  0
  5  6  2  0
  5  7  1  0
  7  8  1  0
  8  9  1  0
  9 10  1  0
  9 11  1  0
 11 12  1  0
 12 13  1  0
 13 14  2  0
 14 15  1  0
 15 16  2  0
 16 17  1  0
 16 18  1  0
 18 19  2  0
  2 20  1  0
 20 21  2  0
 21 22  1  0
 22 23  2  0
 23 24  1  0
 24 25  2  0
 25 26  1  0
 25 27  1  0
 27 28  2  0
 28 29  1  0
 29 30  2  0
 12  7  1  0
 19 13  1  0
 30 20  1  0
 29 23  1  0
  3 31  1  0
  4 32  1  0
  4 33  1  0
  8 34  1  0
  8 35  1  0
  9 36  1  6
 11 37  1  0
 11 38  1  0
 12 39  1  1
 14 40  1  0
 15 41  1  0
 18 42  1  0
 19 43  1  0
 21 44  1  0
 22 45  1  0
 24 46  1  0
 27 47  1  0
 28 48  1  0
M  END
>  <smiles>  (15) 
O=C(NCC(=O)N1C[C@@H](F)C[C@H]1c1ccc(Cl)cc1)c1ccc2cc(F)ccc2n1

>  <score_type>  (15) 
oracle

>  <origin>  (15) 
autodockgpu

>  <m_score__min__energy>  (15) 
-8.8800000000000008

>  <m_primary>  (15) 
energy

>  <rmsd>  (15) 
8.920414464061874

>  <m_score__min__rmsd>  (15) 
8.920414464061874

>  <meeko>  (15) 
{"free_energy": -8.0, "intermolecular_energy": -9.49, "internal_energy": -1.78, "cluster_size": 3, "cluster_id": 5, "rank_in_cluster": 1}

>  <energy>  (15) 
-8.19

>  <cluster_rmsd>  (15) 
1.31

>  <cluster>  (15) 
1

$$$$

     RDKit          3D

 48 51  0  0  0  0  0  0  0  0999 V2000
  141.3090   71.5720  221.3610 O   0  0  0  0  0  0  0  0  0  0  0  0
  140.6420   72.0380  222.3300 C   0  0  0  0  0  0  0  0  0  0  0  0
  140.1300   73.3660  222.3450 N   0  0  0  0  0  0  0  0  0  0  0  0
  140.3980   74.2120  221.1790 C   0  0  0  0  0  0  0  0  0  0  0  0
  140.4760   75.6300  221.5550 C   0  0  0  0  0  0  0  0  0  0  0  0
  139.7320   75.9770  222.5490 O   0  0  0  0  0  0  0  0  0  0  0  0
  141.2430   76.6510  220.9880 N   0  0  0  0  0  0  0  0  0  0  0  0
  142.2890   76.2740  219.9680 C   0  0  0  0  0  0  0  0  0  0  0  0
  142.3600   77.4450  219.0300 C   0  0  1  0  0  0  0  0  0  0  0  0
  142.1490   77.0980  217.7140 F   0  0  0  0  0  0  0  0  0  0  0  0
  141.2560   78.3860  219.5320 C   0  0  0  0  0  0  0  0  0  0  0  0
  141.3560   78.0570  221.0360 C   0  0  1  0  0  0  0  0  0  0  0  0
  140.4380   78.8570  221.8170 C   0  0  0  0  0  0  0  0  0  0  0  0
  139.3630   79.5670  221.3710 C   0  0  0  0  0  0  0  0  0  0  0  0
  138.5370   80.3240  222.1790 C   0  0  0  0  0  0  0  0  0  0  0  0
  138.7830   80.3880  223.5330 C   0  0  0  0  0  0  0  0  0  0  0  0
  137.7780   81.3280  224.6150 Cl  0  0  0  0  0  0  0  0  0  0  0  0
  139.8610   79.6840  224.0270 C   0  0  0  0  0  0  0  0  0  0  0  0
  140.6750   78.9350  223.2050 C   0  0  0  0  0  0  0  0  0  0  0  0
  140.3710   71.1860  223.5050 C   0  0  0  0  0  0  0  0  0  0  0  0
  139.6240   70.0290  223.3630 C   0  0  0  0  0  0  0  0  0  0  0  0
  139.3610   69.2170  224.4650 C   0  0  0  0  0  0  0  0  0  0  0  0
  139.8450   69.5590  225.7030 C   0  0  0  0  0  0  0  0  0  0  0  0
  139.6180   68.7970  226.8260 C   0  0  0  0  0  0  0  0  0  0  0  0
  140.1390   69.2090  228.0380 C   0  0  0  0  0  0  0  0  0  0  0  0
  139.9480   68.4950  229.1850 F   0  0  0  0  0  0  0  0  0  0  0  0
  140.8900   70.3740  228.1660 C   0  0  0  0  0  0  0  0  0  0  0  0
  141.0910   71.1070  227.0120 C   0  0  0  0  0  0  0  0  0  0  0  0
  140.5860   70.7260  225.7850 C   0  0  0  0  0  0  0  0  0  0  0  0
  140.8370   71.5040  224.7260 N   0  0  0  0  0  0  0  0  0  0  0  0
  139.5800   73.7180  223.1690 H   0  0  0  0  0  0  0  0  0  0  0  0
  141.3539   73.9078  220.7277 H   0  0  0  0  0  0  0  0  0  0  0  0
  139.5725   74.0876  220.4627 H   0  0  0  0  0  0  0  0  0  0  0  0
  143.2616   76.1095  220.4548 H   0  0  0  0  0  0  0  0  0  0  0  0
  142.0363   75.3405  219.4439 H   0  0  0  0  0  0  0  0  0  0  0  0
  143.3612   77.9006  219.0344 H   0  0  0  0  0  0  0  0  0  0  0  0
  141.4815   79.4418  219.3211 H   0  0  0  0  0  0  0  0  0  0  0  0
  140.2645   78.2521  219.0747 H   0  0  0  0  0  0  0  0  0  0  0  0
  142.2698   78.3266  221.5858 H   0  0  0  0  0  0  0  0  0  0  0  0
  139.1381   79.5349  220.2947 H   0  0  0  0  0  0  0  0  0  0  0  0
  137.6883   80.8722  221.7441 H   0  0  0  0  0  0  0  0  0  0  0  0
  140.0767   79.7212  225.1050 H   0  0  0  0  0  0  0  0  0  0  0  0
  141.5249   78.3882  223.6394 H   0  0  0  0  0  0  0  0  0  0  0  0
  139.2351   69.7484  222.3730 H   0  0  0  0  0  0  0  0  0  0  0  0
  138.7647   68.3008  224.3423 H   0  0  0  0  0  0  0  0  0  0  0  0
  139.0286   67.8706  226.7599 H   0  0  0  0  0  0  0  0  0  0  0  0
  141.3017   70.6942  229.1345 H   0  0  0  0  0  0  0  0  0  0  0  0
  141.6791   72.0346  227.0737 H   0  0  0  0  0  0  0  0  0  0  0  0
  1  2  2  0
  2  3  1  0
  3  4  1  0
  4  5  1  0
  5  6  2  0
  5  7  1  0
  7  8  1  0
  8  9  1  0
  9 10  1  0
  9 11  1  0
 11 12  1  0
 12 13  1  0
 13 14  2  0
 14 15  1  0
 15 16  2  0
 16 17  1  0
 16 18  1  0
 18 19  2  0
  2 20  1  0
 20 21  2  0
 21 22  1  0
 22 23  2  0
 23 24  1  0
 24 25  2  0
 25 26  1  0
 25 27  1  0
 27 28  2  0
 28 29  1  0
 29 30  2  0
 12  7  1  0
 19 13  1  0
 30 20  1  0
 29 23  1  0
  3 31  1  0
  4 32  1  0
  4 33  1  0
  8 34  1  0
  8 35  1  0
  9 36  1  6
 11 37  1  0
 11 38  1  0
 12 39  1  1
 14 40  1  0
 15 41  1  0
 18 42  1  0
 19 43  1  0
 21 44  1  0
 22 45  1  0
 24 46  1  0
 27 47  1  0
 28 48  1  0
M  END
>  <smiles>  (16) 
O=C(NCC(=O)N1C[C@@H](F)C[C@H]1c1ccc(Cl)cc1)c1ccc2cc(F)ccc2n1

>  <score_type>  (16) 
oracle

>  <origin>  (16) 
autodockgpu

>  <m_score__min__energy>  (16) 
-8.8800000000000008

>  <m_primary>  (16) 
energy

>  <rmsd>  (16) 
2.067728960432122

>  <m_score__min__rmsd>  (16) 
2.067728960432122

>  <meeko>  (16) 
{"free_energy": -8.28, "intermolecular_energy": -9.78, "internal_energy": -1.61, "cluster_size": 18, "cluster_id": 2, "rank_in_cluster": 16}

>  <energy>  (16) 
-8.18

>  <cluster_rmsd>  (16) 
1.9

>  <cluster>  (16) 
1

$$$$

     RDKit          3D

 48 51  0  0  0  0  0  0  0  0999 V2000
  141.5290   72.0190  221.9110 O   0  0  0  0  0  0  0  0  0  0  0  0
  140.4770   72.1040  222.6080 C   0  0  0  0  0  0  0  0  0  0  0  0
  139.4570   73.0640  222.3520 N   0  0  0  0  0  0  0  0  0  0  0  0
  139.6550   73.9820  221.2270 C   0  0  0  0  0  0  0  0  0  0  0  0
  140.0470   75.3190  221.6920 C   0  0  0  0  0  0  0  0  0  0  0  0
  139.3990   75.7570  222.7170 O   0  0  0  0  0  0  0  0  0  0  0  0
  141.0220   76.1790  221.1810 N   0  0  0  0  0  0  0  0  0  0  0  0
  141.9770   75.6390  220.1450 C   0  0  0  0  0  0  0  0  0  0  0  0
  142.3100   76.8120  219.2700 C   0  0  1  0  0  0  0  0  0  0  0  0
  142.0470   76.5850  217.9370 F   0  0  0  0  0  0  0  0  0  0  0  0
  141.4250   77.9420  219.8170 C   0  0  0  0  0  0  0  0  0  0  0  0
  141.4330   77.5240  221.3020 C   0  0  1  0  0  0  0  0  0  0  0  0
  140.6960   78.4620  222.1210 C   0  0  0  0  0  0  0  0  0  0  0  0
  141.1900   79.3050  223.0730 C   0  0  0  0  0  0  0  0  0  0  0  0
  140.4180   80.1650  223.8300 C   0  0  0  0  0  0  0  0  0  0  0  0
  139.0540   80.2050  223.6370 C   0  0  0  0  0  0  0  0  0  0  0  0
  138.0170   81.2700  224.5600 Cl  0  0  0  0  0  0  0  0  0  0  0  0
  138.5130   79.3690  222.6830 C   0  0  0  0  0  0  0  0  0  0  0  0
  139.2990   78.5160  221.9380 C   0  0  0  0  0  0  0  0  0  0  0  0
  140.2770   71.1780  223.7420 C   0  0  0  0  0  0  0  0  0  0  0  0
  139.5920   69.9910  223.5520 C   0  0  0  0  0  0  0  0  0  0  0  0
  139.3960   69.1090  224.6140 C   0  0  0  0  0  0  0  0  0  0  0  0
  139.8860   69.4140  225.8590 C   0  0  0  0  0  0  0  0  0  0  0  0
  139.7240   68.5830  226.9450 C   0  0  0  0  0  0  0  0  0  0  0  0
  140.2460   68.9600  228.1670 C   0  0  0  0  0  0  0  0  0  0  0  0
  140.1170   68.1790  229.2780 F   0  0  0  0  0  0  0  0  0  0  0  0
  140.9340   70.1570  228.3430 C   0  0  0  0  0  0  0  0  0  0  0  0
  141.0710   70.9590  227.2260 C   0  0  0  0  0  0  0  0  0  0  0  0
  140.5630   70.6150  225.9890 C   0  0  0  0  0  0  0  0  0  0  0  0
  140.7490   71.4590  224.9690 N   0  0  0  0  0  0  0  0  0  0  0  0
  138.5970   73.1040  222.9540 H   0  0  0  0  0  0  0  0  0  0  0  0
  140.4456   73.5835  220.5742 H   0  0  0  0  0  0  0  0  0  0  0  0
  138.7053   74.0696  220.6789 H   0  0  0  0  0  0  0  0  0  0  0  0
  142.8851   75.2453  220.6250 H   0  0  0  0  0  0  0  0  0  0  0  0
  141.5371   74.8095  219.5720 H   0  0  0  0  0  0  0  0  0  0  0  0
  143.3854   77.0411  219.3010 H   0  0  0  0  0  0  0  0  0  0  0  0
  141.8733   78.9344  219.6614 H   0  0  0  0  0  0  0  0  0  0  0  0
  140.4341   78.0467  219.3511 H   0  0  0  0  0  0  0  0  0  0  0  0
  142.3762   77.5634  221.8666 H   0  0  0  0  0  0  0  0  0  0  0  0
  142.2757   79.2996  223.2497 H   0  0  0  0  0  0  0  0  0  0  0  0
  140.8894   80.8142  224.5826 H   0  0  0  0  0  0  0  0  0  0  0  0
  137.4264   79.3832  222.5121 H   0  0  0  0  0  0  0  0  0  0  0  0
  138.8275   77.8654  221.1868 H   0  0  0  0  0  0  0  0  0  0  0  0
  139.1990   69.7412  222.5554 H   0  0  0  0  0  0  0  0  0  0  0  0
  138.8485   68.1685  224.4538 H   0  0  0  0  0  0  0  0  0  0  0  0
  139.1850   67.6298  226.8406 H   0  0  0  0  0  0  0  0  0  0  0  0
  141.3470   70.4492  229.3198 H   0  0  0  0  0  0  0  0  0  0  0  0
  141.6084   71.9135  227.3268 H   0  0  0  0  0  0  0  0  0  0  0  0
  1  2  2  0
  2  3  1  0
  3  4  1  0
  4  5  1  0
  5  6  2  0
  5  7  1  0
  7  8  1  0
  8  9  1  0
  9 10  1  0
  9 11  1  0
 11 12  1  0
 12 13  1  0
 13 14  2  0
 14 15  1  0
 15 16  2  0
 16 17  1  0
 16 18  1  0
 18 19  2  0
  2 20  1  0
 20 21  2  0
 21 22  1  0
 22 23  2  0
 23 24  1  0
 24 25  2  0
 25 26  1  0
 25 27  1  0
 27 28  2  0
 28 29  1  0
 29 30  2  0
 12  7  1  0
 19 13  1  0
 30 20  1  0
 29 23  1  0
  3 31  1  0
  4 32  1  0
  4 33  1  0
  8 34  1  0
  8 35  1  0
  9 36  1  6
 11 37  1  0
 11 38  1  0
 12 39  1  1
 14 40  1  0
 15 41  1  0
 18 42  1  0
 19 43  1  0
 21 44  1  0
 22 45  1  0
 24 46  1  0
 27 47  1  0
 28 48  1  0
M  END
>  <smiles>  (17) 
O=C(NCC(=O)N1C[C@@H](F)C[C@H]1c1ccc(Cl)cc1)c1ccc2cc(F)ccc2n1

>  <score_type>  (17) 
oracle

>  <origin>  (17) 
autodockgpu

>  <m_score__min__energy>  (17) 
-8.8800000000000008

>  <m_primary>  (17) 
energy

>  <rmsd>  (17) 
1.8835860807461915

>  <m_score__min__rmsd>  (17) 
1.8835860807461915

>  <meeko>  (17) 
{"free_energy": -8.71, "intermolecular_energy": -10.21, "internal_energy": -1.27, "cluster_size": 18, "cluster_id": 2, "rank_in_cluster": 1}

>  <energy>  (17) 
-8.14

>  <cluster_rmsd>  (17) 
1.26

>  <cluster>  (17) 
1

$$$$

     RDKit          3D

 48 51  0  0  0  0  0  0  0  0999 V2000
  138.7860   70.9460  221.1380 O   0  0  0  0  0  0  0  0  0  0  0  0
  139.1290   71.5330  222.2060 C   0  0  0  0  0  0  0  0  0  0  0  0
  139.2890   72.9450  222.2920 N   0  0  0  0  0  0  0  0  0  0  0  0
  139.0400   73.7330  221.0820 C   0  0  0  0  0  0  0  0  0  0  0  0
  139.2310   75.1680  221.3310 C   0  0  0  0  0  0  0  0  0  0  0  0
  139.9480   75.4560  222.3640 O   0  0  0  0  0  0  0  0  0  0  0  0
  138.7480   76.2600  220.6070 N   0  0  0  0  0  0  0  0  0  0  0  0
  137.6400   76.0210  219.6110 C   0  0  0  0  0  0  0  0  0  0  0  0
  136.8400   77.2920  219.6030 C   0  0  1  0  0  0  0  0  0  0  0  0
  135.5050   77.0930  219.8780 F   0  0  0  0  0  0  0  0  0  0  0  0
  137.5020   78.1500  220.6910 C   0  0  0  0  0  0  0  0  0  0  0  0
  138.9510   77.6530  220.5080 C   0  0  1  0  0  0  0  0  0  0  0  0
  139.8640   78.3430  221.3940 C   0  0  0  0  0  0  0  0  0  0  0  0
  139.7750   78.4700  222.7490 C   0  0  0  0  0  0  0  0  0  0  0  0
  140.6820   79.1610  223.5300 C   0  0  0  0  0  0  0  0  0  0  0  0
  141.7640   79.7730  222.9350 C   0  0  0  0  0  0  0  0  0  0  0  0
  142.9510   80.6630  223.8630 Cl  0  0  0  0  0  0  0  0  0  0  0  0
  141.8930   79.6680  221.5660 C   0  0  0  0  0  0  0  0  0  0  0  0
  140.9770   78.9760  220.8040 C   0  0  0  0  0  0  0  0  0  0  0  0
  139.3790   70.7390  223.4260 C   0  0  0  0  0  0  0  0  0  0  0  0
  139.0060   69.4070  223.4710 C   0  0  0  0  0  0  0  0  0  0  0  0
  139.2360   68.6470  224.6180 C   0  0  0  0  0  0  0  0  0  0  0  0
  139.8380   69.2170  225.7110 C   0  0  0  0  0  0  0  0  0  0  0  0
  140.0910   68.5170  226.8690 C   0  0  0  0  0  0  0  0  0  0  0  0
  140.7010   69.1620  227.9280 C   0  0  0  0  0  0  0  0  0  0  0  0
  140.9770   68.5210  229.1000 F   0  0  0  0  0  0  0  0  0  0  0  0
  141.0720   70.5020  227.8670 C   0  0  0  0  0  0  0  0  0  0  0  0
  140.7980   71.1640  226.6860 C   0  0  0  0  0  0  0  0  0  0  0  0
  140.1900   70.5520  225.6070 C   0  0  0  0  0  0  0  0  0  0  0  0
  139.9680   71.2790  224.5070 N   0  0  0  0  0  0  0  0  0  0  0  0
  139.5750   73.3960  223.1970 H   0  0  0  0  0  0  0  0  0  0  0  0
  139.7367   73.4101  220.2944 H   0  0  0  0  0  0  0  0  0  0  0  0
  137.9977   73.5704  220.7701 H   0  0  0  0  0  0  0  0  0  0  0  0
  138.0552   75.8198  218.6124 H   0  0  0  0  0  0  0  0  0  0  0  0
  137.0255   75.1490  219.8795 H   0  0  0  0  0  0  0  0  0  0  0  0
  136.8459   77.7623  218.6086 H   0  0  0  0  0  0  0  0  0  0  0  0
  137.4028   79.2269  220.4897 H   0  0  0  0  0  0  0  0  0  0  0  0
  137.0832   78.0517  221.7034 H   0  0  0  0  0  0  0  0  0  0  0  0
  139.4809   77.8735  219.5696 H   0  0  0  0  0  0  0  0  0  0  0  0
  138.9239   77.9901  223.2543 H   0  0  0  0  0  0  0  0  0  0  0  0
  140.5412   79.2221  224.6192 H   0  0  0  0  0  0  0  0  0  0  0  0
  142.7489   80.1489  221.0698 H   0  0  0  0  0  0  0  0  0  0  0  0
  141.1168   78.9163  219.7146 H   0  0  0  0  0  0  0  0  0  0  0  0
  138.5250   68.9445  222.5965 H   0  0  0  0  0  0  0  0  0  0  0  0
  138.9343   67.5896  224.6460 H   0  0  0  0  0  0  0  0  0  0  0  0
  139.8108   67.4564  226.9504 H   0  0  0  0  0  0  0  0  0  0  0  0
  141.5579   71.0073  228.7147 H   0  0  0  0  0  0  0  0  0  0  0  0
  141.0761   72.2249  226.6010 H   0  0  0  0  0  0  0  0  0  0  0  0
  1  2  2  0
  2  3  1  0
  3  4  1  0
  4  5  1  0
  5  6  2  0
  5  7  1  0
  7  8  1  0
  8  9  1  0
  9 10  1  0
  9 11  1  0
 11 12  1  0
 12 13  1  0
 13 14  2  0
 14 15  1  0
 15 16  2  0
 16 17  1  0
 16 18  1  0
 18 19  2  0
  2 20  1  0
 20 21  2  0
 21 22  1  0
 22 23  2  0
 23 24  1  0
 24 25  2  0
 25 26  1  0
 25 27  1  0
 27 28  2  0
 28 29  1  0
 29 30  2  0
 12  7  1  0
 19 13  1  0
 30 20  1  0
 29 23  1  0
  3 31  1  0
  4 32  1  0
  4 33  1  0
  8 34  1  0
  8 35  1  0
  9 36  1  6
 11 37  1  0
 11 38  1  0
 12 39  1  6
 14 40  1  0
 15 41  1  0
 18 42  1  0
 19 43  1  0
 21 44  1  0
 22 45  1  0
 24 46  1  0
 27 47  1  0
 28 48  1  0
M  END
>  <smiles>  (18) 
O=C(NCC(=O)N1C[C@@H](F)C[C@H]1c1ccc(Cl)cc1)c1ccc2cc(F)ccc2n1

>  <score_type>  (18) 
oracle

>  <origin>  (18) 
autodockgpu

>  <m_score__min__energy>  (18) 
-8.8800000000000008

>  <m_primary>  (18) 
energy

>  <rmsd>  (18) 
1.9321522384291276

>  <m_score__min__rmsd>  (18) 
1.9321522384291276

>  <meeko>  (18) 
{"free_energy": -8.04, "intermolecular_energy": -9.53, "internal_energy": -1.93, "cluster_size": 22, "cluster_id": 1, "rank_in_cluster": 20}

>  <energy>  (18) 
-8.07

>  <cluster_rmsd>  (18) 
1.75

>  <cluster>  (18) 
1

$$$$

     RDKit          3D

 48 51  0  0  0  0  0  0  0  0999 V2000
  138.9380   70.6280  221.5240 O   0  0  0  0  0  0  0  0  0  0  0  0
  139.2590   71.1820  222.6160 C   0  0  0  0  0  0  0  0  0  0  0  0
  139.4360   72.5880  222.7440 N   0  0  0  0  0  0  0  0  0  0  0  0
  139.2300   73.4120  221.5490 C   0  0  0  0  0  0  0  0  0  0  0  0
  139.3830   74.8400  221.8530 C   0  0  0  0  0  0  0  0  0  0  0  0
  140.5290   75.1810  222.3350 O   0  0  0  0  0  0  0  0  0  0  0  0
  138.4630   75.8790  221.6920 N   0  0  0  0  0  0  0  0  0  0  0  0
  137.0350   75.5210  221.3610 C   0  0  0  0  0  0  0  0  0  0  0  0
  136.2040   76.5990  221.9960 C   0  0  1  0  0  0  0  0  0  0  0  0
  135.2500   76.1080  222.8600 F   0  0  0  0  0  0  0  0  0  0  0  0
  137.2310   77.4610  222.7460 C   0  0  0  0  0  0  0  0  0  0  0  0
  138.4130   77.2870  221.7710 C   0  0  1  0  0  0  0  0  0  0  0  0
  139.5650   78.0550  222.1920 C   0  0  0  0  0  0  0  0  0  0  0  0
  140.8200   78.0370  221.6590 C   0  0  0  0  0  0  0  0  0  0  0  0
  141.8790   78.7910  222.1270 C   0  0  0  0  0  0  0  0  0  0  0  0
  141.6910   79.6330  223.2020 C   0  0  0  0  0  0  0  0  0  0  0  0
  142.9880   80.6160  223.8460 Cl  0  0  0  0  0  0  0  0  0  0  0  0
  140.4370   79.6830  223.7710 C   0  0  0  0  0  0  0  0  0  0  0  0
  139.3930   78.9220  223.2910 C   0  0  0  0  0  0  0  0  0  0  0  0
  139.4660   70.3520  223.8200 C   0  0  0  0  0  0  0  0  0  0  0  0
  139.0570   69.0300  223.8270 C   0  0  0  0  0  0  0  0  0  0  0  0
  139.2460   68.2370  224.9580 C   0  0  0  0  0  0  0  0  0  0  0  0
  139.8420   68.7650  226.0760 C   0  0  0  0  0  0  0  0  0  0  0  0
  140.0550   68.0310  227.2210 C   0  0  0  0  0  0  0  0  0  0  0  0
  140.6610   68.6340  228.3060 C   0  0  0  0  0  0  0  0  0  0  0  0
  140.8990   67.9580  229.4670 F   0  0  0  0  0  0  0  0  0  0  0  0
  141.0670   69.9650  228.2840 C   0  0  0  0  0  0  0  0  0  0  0  0
  140.8330   70.6620  227.1150 C   0  0  0  0  0  0  0  0  0  0  0  0
  140.2300   70.0920  226.0110 C   0  0  0  0  0  0  0  0  0  0  0  0
  140.0480   70.8510  224.9250 N   0  0  0  0  0  0  0  0  0  0  0  0
  139.7030   73.0120  223.6680 H   0  0  0  0  0  0  0  0  0  0  0  0
  139.9688   73.1270  220.7855 H   0  0  0  0  0  0  0  0  0  0  0  0
  138.2067   73.2427  221.1826 H   0  0  0  0  0  0  0  0  0  0  0  0
  136.8829   75.5074  220.2716 H   0  0  0  0  0  0  0  0  0  0  0  0
  136.7647   74.5208  221.7304 H   0  0  0  0  0  0  0  0  0  0  0  0
  135.6284   77.1570  221.2428 H   0  0  0  0  0  0  0  0  0  0  0  0
  136.9117   78.5103  222.8302 H   0  0  0  0  0  0  0  0  0  0  0  0
  137.4237   77.1805  223.7920 H   0  0  0  0  0  0  0  0  0  0  0  0
  138.3368   77.7020  220.7551 H   0  0  0  0  0  0  0  0  0  0  0  0
  141.0017   77.3772  220.7978 H   0  0  0  0  0  0  0  0  0  0  0  0
  142.8652   78.7198  221.6451 H   0  0  0  0  0  0  0  0  0  0  0  0
  140.2648   80.3475  224.6305 H   0  0  0  0  0  0  0  0  0  0  0  0
  138.4072   78.9921  223.7741 H   0  0  0  0  0  0  0  0  0  0  0  0
  138.5792   68.6016  222.9336 H   0  0  0  0  0  0  0  0  0  0  0  0
  138.9172   67.1873  224.9543 H   0  0  0  0  0  0  0  0  0  0  0  0
  139.7462   66.9764  227.2713 H   0  0  0  0  0  0  0  0  0  0  0  0
  141.5492   70.4373  229.1526 H   0  0  0  0  0  0  0  0  0  0  0  0
  141.1402   71.7169  227.0608 H   0  0  0  0  0  0  0  0  0  0  0  0
  1  2  2  0
  2  3  1  0
  3  4  1  0
  4  5  1  0
  5  6  2  0
  5  7  1  0
  7  8  1  0
  8  9  1  0
  9 10  1  0
  9 11  1  0
 11 12  1  0
 12 13  1  0
 13 14  2  0
 14 15  1  0
 15 16  2  0
 16 17  1  0
 16 18  1  0
 18 19  2  0
  2 20  1  0
 20 21  2  0
 21 22  1  0
 22 23  2  0
 23 24  1  0
 24 25  2  0
 25 26  1  0
 25 27  1  0
 27 28  2  0
 28 29  1  0
 29 30  2  0
 12  7  1  0
 19 13  1  0
 30 20  1  0
 29 23  1  0
  3 31  1  0
  4 32  1  0
  4 33  1  0
  8 34  1  0
  8 35  1  0
  9 36  1  6
 11 37  1  0
 11 38  1  0
 12 39  1  6
 14 40  1  0
 15 41  1  0
 18 42  1  0
 19 43  1  0
 21 44  1  0
 22 45  1  0
 24 46  1  0
 27 47  1  0
 28 48  1  0
M  END
>  <smiles>  (19) 
O=C(NCC(=O)N1C[C@@H](F)C[C@H]1c1ccc(Cl)cc1)c1ccc2cc(F)ccc2n1

>  <score_type>  (19) 
oracle

>  <origin>  (19) 
autodockgpu

>  <m_score__min__energy>  (19) 
-8.8800000000000008

>  <m_primary>  (19) 
energy

>  <rmsd>  (19) 
2.7535267688749263

>  <m_score__min__rmsd>  (19) 
2.7535267688749263

>  <meeko>  (19) 
{"free_energy": -8.74, "intermolecular_energy": -10.23, "internal_energy": -1.51, "cluster_size": 22, "cluster_id": 1, "rank_in_cluster": 3}

>  <energy>  (19) 
-8.06

>  <cluster_rmsd>  (19) 
0.91

>  <cluster>  (19) 
1

$$$$

     RDKit          3D

 48 51  0  0  0  0  0  0  0  0999 V2000
  137.8100   70.7970  221.9130 O   0  0  0  0  0  0  0  0  0  0  0  0
  138.5840   71.3020  222.7770 C   0  0  0  0  0  0  0  0  0  0  0  0
  139.0510   72.6450  222.7030 N   0  0  0  0  0  0  0  0  0  0  0  0
  138.6010   73.4600  221.5720 C   0  0  0  0  0  0  0  0  0  0  0  0
  139.5200   74.5780  221.3220 C   0  0  0  0  0  0  0  0  0  0  0  0
  140.4070   74.7770  222.2360 O   0  0  0  0  0  0  0  0  0  0  0  0
  139.5670   75.4550  220.2350 N   0  0  0  0  0  0  0  0  0  0  0  0
  138.9480   75.0080  218.9330 C   0  0  0  0  0  0  0  0  0  0  0  0
  138.4460   76.2670  218.2870 C   0  0  1  0  0  0  0  0  0  0  0  0
  137.1040   76.2190  217.9790 F   0  0  0  0  0  0  0  0  0  0  0  0
  138.7290   77.3550  219.3320 C   0  0  0  0  0  0  0  0  0  0  0  0
  140.0190   76.7550  219.9270 C   0  0  1  0  0  0  0  0  0  0  0  0
  140.5830   77.6130  220.9460 C   0  0  0  0  0  0  0  0  0  0  0  0
  140.2480   77.6730  222.2660 C   0  0  0  0  0  0  0  0  0  0  0  0
  140.8230   78.5340  223.1810 C   0  0  0  0  0  0  0  0  0  0  0  0
  141.8070   79.4050  222.7690 C   0  0  0  0  0  0  0  0  0  0  0  0
  142.5780   80.5230  223.8730 Cl  0  0  0  0  0  0  0  0  0  0  0  0
  142.1780   79.3780  221.4410 C   0  0  0  0  0  0  0  0  0  0  0  0
  141.5930   78.5130  220.5430 C   0  0  0  0  0  0  0  0  0  0  0  0
  139.0370   70.4800  223.9180 C   0  0  0  0  0  0  0  0  0  0  0  0
  138.8320   69.1120  223.9080 C   0  0  0  0  0  0  0  0  0  0  0  0
  139.2540   68.3260  224.9800 C   0  0  0  0  0  0  0  0  0  0  0  0
  139.8800   68.9070  226.0540 C   0  0  0  0  0  0  0  0  0  0  0  0
  140.3190   68.1830  227.1400 C   0  0  0  0  0  0  0  0  0  0  0  0
  140.9400   68.8410  228.1840 C   0  0  0  0  0  0  0  0  0  0  0  0
  141.3960   68.1770  229.2850 F   0  0  0  0  0  0  0  0  0  0  0  0
  141.1400   70.2180  228.1790 C   0  0  0  0  0  0  0  0  0  0  0  0
  140.6830   70.9030  227.0700 C   0  0  0  0  0  0  0  0  0  0  0  0
  140.0580   70.2790  226.0080 C   0  0  0  0  0  0  0  0  0  0  0  0
  139.6520   71.0310  224.9790 N   0  0  0  0  0  0  0  0  0  0  0  0
  139.6940   73.0290  223.4410 H   0  0  0  0  0  0  0  0  0  0  0  0
  138.5514   72.8287  220.6725 H   0  0  0  0  0  0  0  0  0  0  0  0
  137.6099   73.8719  221.8130 H   0  0  0  0  0  0  0  0  0  0  0  0
  139.6997   74.5198  218.2954 H   0  0  0  0  0  0  0  0  0  0  0  0
  138.1427   74.2751  219.0893 H   0  0  0  0  0  0  0  0  0  0  0  0
  138.9414   76.4460  217.3213 H   0  0  0  0  0  0  0  0  0  0  0  0
  138.9015   78.3392  218.8719 H   0  0  0  0  0  0  0  0  0  0  0  0
  137.9182   77.5587  220.0469 H   0  0  0  0  0  0  0  0  0  0  0  0
  140.9183   76.6841  219.2975 H   0  0  0  0  0  0  0  0  0  0  0  0
  139.4662   76.9889  222.6276 H   0  0  0  0  0  0  0  0  0  0  0  0
  140.4970   78.5238  224.2315 H   0  0  0  0  0  0  0  0  0  0  0  0
  142.9617   80.0654  221.0898 H   0  0  0  0  0  0  0  0  0  0  0  0
  141.9188   78.5237  219.4924 H   0  0  0  0  0  0  0  0  0  0  0  0
  138.3327   68.6408  223.0486 H   0  0  0  0  0  0  0  0  0  0  0  0
  139.0848   67.2392  224.9645 H   0  0  0  0  0  0  0  0  0  0  0  0
  140.1768   67.0928  227.1758 H   0  0  0  0  0  0  0  0  0  0  0  0
  141.6360   70.7340  229.0143 H   0  0  0  0  0  0  0  0  0  0  0  0
  140.8229   71.9934  227.0309 H   0  0  0  0  0  0  0  0  0  0  0  0
  1  2  2  0
  2  3  1  0
  3  4  1  0
  4  5  1  0
  5  6  2  0
  5  7  1  0
  7  8  1  0
  8  9  1  0
  9 10  1  0
  9 11  1  0
 11 12  1  0
 12 13  1  0
 13 14  2  0
 14 15  1  0
 15 16  2  0
 16 17  1  0
 16 18  1  0
 18 19  2  0
  2 20  1  0
 20 21  2  0
 21 22  1  0
 22 23  2  0
 23 24  1  0
 24 25  2  0
 25 26  1  0
 25 27  1  0
 27 28  2  0
 28 29  1  0
 29 30  2  0
 12  7  1  0
 19 13  1  0
 30 20  1  0
 29 23  1  0
  3 31  1  0
  4 32  1  0
  4 33  1  0
  8 34  1  0
  8 35  1  0
  9 36  1  6
 11 37  1  0
 11 38  1  0
 12 39  1  6
 14 40  1  0
 15 41  1  0
 18 42  1  0
 19 43  1  0
 21 44  1  0
 22 45  1  0
 24 46  1  0
 27 47  1  0
 28 48  1  0
M  END
>  <smiles>  (20) 
O=C(NCC(=O)N1C[C@@H](F)C[C@H]1c1ccc(Cl)cc1)c1ccc2cc(F)ccc2n1

>  <score_type>  (20) 
oracle

>  <origin>  (20) 
autodockgpu

>  <m_score__min__energy>  (20) 
-8.8800000000000008

>  <m_primary>  (20) 
energy

>  <rmsd>  (20) 
1.154489622429371

>  <m_score__min__rmsd>  (20) 
1.154489622429371

>  <meeko>  (20) 
{"free_energy": -8.07, "intermolecular_energy": -9.56, "internal_energy": -1.9, "cluster_size": 22, "cluster_id": 1, "rank_in_cluster": 18}

>  <energy>  (20) 
-8.04

>  <cluster_rmsd>  (20) 
1.16

>  <cluster>  (20) 
1

$$$$

     RDKit          3D

 48 51  0  0  0  0  0  0  0  0999 V2000
  133.0730   70.1160  226.4820 O   0  0  0  0  0  0  0  0  0  0  0  0
  133.4710   71.2110  225.9870 C   0  0  0  0  0  0  0  0  0  0  0  0
  134.3790   71.2780  224.8930 N   0  0  0  0  0  0  0  0  0  0  0  0
  134.8600   70.0130  224.3300 C   0  0  0  0  0  0  0  0  0  0  0  0
  136.2170   70.1530  223.7870 C   0  0  0  0  0  0  0  0  0  0  0  0
  136.5730   71.3580  223.4970 O   0  0  0  0  0  0  0  0  0  0  0  0
  137.1750   69.1650  223.5410 N   0  0  0  0  0  0  0  0  0  0  0  0
  136.8840   68.1410  222.4710 C   0  0  0  0  0  0  0  0  0  0  0  0
  138.2250   67.7790  221.9020 C   0  0  1  0  0  0  0  0  0  0  0  0
  138.3000   67.9590  220.5380 F   0  0  0  0  0  0  0  0  0  0  0  0
  139.1990   68.7140  222.6320 C   0  0  0  0  0  0  0  0  0  0  0  0
  138.4600   68.7870  223.9830 C   0  0  1  0  0  0  0  0  0  0  0  0
  139.1880   69.5870  224.9440 C   0  0  0  0  0  0  0  0  0  0  0  0
  139.8830   70.7370  224.7160 C   0  0  0  0  0  0  0  0  0  0  0  0
  140.5700   71.4410  225.6870 C   0  0  0  0  0  0  0  0  0  0  0  0
  140.5730   70.9810  226.9860 C   0  0  0  0  0  0  0  0  0  0  0  0
  141.4210   71.8220  228.2650 Cl  0  0  0  0  0  0  0  0  0  0  0  0
  139.8810   69.8210  227.2610 C   0  0  0  0  0  0  0  0  0  0  0  0
  139.2030   69.1320  226.2790 C   0  0  0  0  0  0  0  0  0  0  0  0
  132.9870   72.4850  226.5550 C   0  0  0  0  0  0  0  0  0  0  0  0
  131.8340   72.5070  227.3210 C   0  0  0  0  0  0  0  0  0  0  0  0
  131.3660   73.7030  227.8610 C   0  0  0  0  0  0  0  0  0  0  0  0
  132.0500   74.8720  227.6380 C   0  0  0  0  0  0  0  0  0  0  0  0
  131.6360   76.0830  228.1450 C   0  0  0  0  0  0  0  0  0  0  0  0
  132.3790   77.2170  227.8760 C   0  0  0  0  0  0  0  0  0  0  0  0
  132.0200   78.4440  228.3510 F   0  0  0  0  0  0  0  0  0  0  0  0
  133.5370   77.1800  227.1050 C   0  0  0  0  0  0  0  0  0  0  0  0
  133.9120   75.9440  226.6160 C   0  0  0  0  0  0  0  0  0  0  0  0
  133.1960   74.7900  226.8650 C   0  0  0  0  0  0  0  0  0  0  0  0
  133.6420   73.6410  226.3480 N   0  0  0  0  0  0  0  0  0  0  0  0
  134.6870   72.2060  224.5100 H   0  0  0  0  0  0  0  0  0  0  0  0
  134.8676   69.2486  225.1209 H   0  0  0  0  0  0  0  0  0  0  0  0
  134.1868   69.7189  223.5113 H   0  0  0  0  0  0  0  0  0  0  0  0
  136.3971   67.2556  222.9058 H   0  0  0  0  0  0  0  0  0  0  0  0
  136.2013   68.5310  221.7017 H   0  0  0  0  0  0  0  0  0  0  0  0
  138.4473   66.7118  222.0491 H   0  0  0  0  0  0  0  0  0  0  0  0
  140.2028   68.2749  222.7300 H   0  0  0  0  0  0  0  0  0  0  0  0
  139.4009   69.6774  222.1410 H   0  0  0  0  0  0  0  0  0  0  0  0
  138.3762   67.8798  224.5994 H   0  0  0  0  0  0  0  0  0  0  0  0
  139.8982   71.1317  223.6894 H   0  0  0  0  0  0  0  0  0  0  0  0
  141.1107   72.3623  225.4246 H   0  0  0  0  0  0  0  0  0  0  0  0
  139.8697   69.4353  228.2911 H   0  0  0  0  0  0  0  0  0  0  0  0
  138.6634   68.2100  226.5411 H   0  0  0  0  0  0  0  0  0  0  0  0
  131.2830   71.5728  227.5047 H   0  0  0  0  0  0  0  0  0  0  0  0
  130.4477   73.7105  228.4665 H   0  0  0  0  0  0  0  0  0  0  0  0
  130.7244   76.1474  228.7572 H   0  0  0  0  0  0  0  0  0  0  0  0
  134.1227   78.0873  226.8961 H   0  0  0  0  0  0  0  0  0  0  0  0
  134.8214   75.8759  226.0009 H   0  0  0  0  0  0  0  0  0  0  0  0
  1  2  2  0
  2  3  1  0
  3  4  1  0
  4  5  1  0
  5  6  2  0
  5  7  1  0
  7  8  1  0
  8  9  1  0
  9 10  1  0
  9 11  1  0
 11 12  1  0
 12 13  1  0
 13 14  2  0
 14 15  1  0
 15 16  2  0
 16 17  1  0
 16 18  1  0
 18 19  2  0
  2 20  1  0
 20 21  2  0
 21 22  1  0
 22 23  2  0
 23 24  1  0
 24 25  2  0
 25 26  1  0
 25 27  1  0
 27 28  2  0
 28 29  1  0
 29 30  2  0
 12  7  1  0
 19 13  1  0
 30 20  1  0
 29 23  1  0
  3 31  1  0
  4 32  1  0
  4 33  1  0
  8 34  1  0
  8 35  1  0
  9 36  1  6
 11 37  1  0
 11 38  1  0
 12 39  1  1
 14 40  1  0
 15 41  1  0
 18 42  1  0
 19 43  1  0
 21 44  1  0
 22 45  1  0
 24 46  1  0
 27 47  1  0
 28 48  1  0
M  END
>  <smiles>  (21) 
O=C(NCC(=O)N1C[C@@H](F)C[C@H]1c1ccc(Cl)cc1)c1ccc2cc(F)ccc2n1

>  <score_type>  (21) 
oracle

>  <origin>  (21) 
autodockgpu

>  <m_score__min__energy>  (21) 
-8.8800000000000008

>  <m_primary>  (21) 
energy

>  <rmsd>  (21) 
8.922128386786161

>  <m_score__min__rmsd>  (21) 
8.922128386786161

>  <meeko>  (21) 
{"free_energy": -7.85, "intermolecular_energy": -9.35, "internal_energy": -1.89, "cluster_size": 3, "cluster_id": 5, "rank_in_cluster": 3}

>  <energy>  (21) 
-7.96

>  <cluster_rmsd>  (21) 
1.43

>  <cluster>  (21) 
1

$$$$

     RDKit          3D

 48 51  0  0  0  0  0  0  0  0999 V2000
  140.3880   73.5960  222.2990 O   0  0  0  0  0  0  0  0  0  0  0  0
  140.2240   72.3480  222.1670 C   0  0  0  0  0  0  0  0  0  0  0  0
  140.1510   71.7100  220.8970 N   0  0  0  0  0  0  0  0  0  0  0  0
  140.2750   72.5520  219.7040 C   0  0  0  0  0  0  0  0  0  0  0  0
  141.6750   72.6630  219.2720 C   0  0  0  0  0  0  0  0  0  0  0  0
  141.9020   72.3260  218.0490 O   0  0  0  0  0  0  0  0  0  0  0  0
  142.7910   73.0820  220.0000 N   0  0  0  0  0  0  0  0  0  0  0  0
  143.7620   72.0320  220.4820 C   0  0  0  0  0  0  0  0  0  0  0  0
  145.1020   72.7110  220.4850 C   0  0  1  0  0  0  0  0  0  0  0  0
  146.0460   72.0470  219.7330 F   0  0  0  0  0  0  0  0  0  0  0  0
  144.8120   74.0990  219.8970 C   0  0  0  0  0  0  0  0  0  0  0  0
  143.3850   74.2780  220.4550 C   0  0  1  0  0  0  0  0  0  0  0  0
  142.8350   75.5690  220.1040 C   0  0  0  0  0  0  0  0  0  0  0  0
  141.8020   76.2270  220.7020 C   0  0  0  0  0  0  0  0  0  0  0  0
  141.3190   77.4570  220.2980 C   0  0  0  0  0  0  0  0  0  0  0  0
  141.8990   78.0940  219.2220 C   0  0  0  0  0  0  0  0  0  0  0  0
  141.3390   79.6530  218.6560 Cl  0  0  0  0  0  0  0  0  0  0  0  0
  142.9480   77.4650  218.5870 C   0  0  0  0  0  0  0  0  0  0  0  0
  143.4150   76.2370  219.0040 C   0  0  0  0  0  0  0  0  0  0  0  0
  140.1000   71.4990  223.3690 C   0  0  0  0  0  0  0  0  0  0  0  0
  139.4190   70.2960  223.2980 C   0  0  0  0  0  0  0  0  0  0  0  0
  139.2940   69.4860  224.4260 C   0  0  0  0  0  0  0  0  0  0  0  0
  139.8490   69.8780  225.6180 C   0  0  0  0  0  0  0  0  0  0  0  0
  139.7580   69.1200  226.7640 C   0  0  0  0  0  0  0  0  0  0  0  0
  140.3440   69.5830  227.9270 C   0  0  0  0  0  0  0  0  0  0  0  0
  140.2880   68.8770  229.0930 F   0  0  0  0  0  0  0  0  0  0  0  0
  141.0270   70.7940  227.9830 C   0  0  0  0  0  0  0  0  0  0  0  0
  141.0910   71.5200  226.8100 C   0  0  0  0  0  0  0  0  0  0  0  0
  140.5180   71.0900  225.6290 C   0  0  0  0  0  0  0  0  0  0  0  0
  140.6370   71.8650  224.5460 N   0  0  0  0  0  0  0  0  0  0  0  0
  140.0140   70.6700  220.8280 H   0  0  0  0  0  0  0  0  0  0  0  0
  139.6828   72.1091  218.8897 H   0  0  0  0  0  0  0  0  0  0  0  0
  139.9067   73.5589  219.9499 H   0  0  0  0  0  0  0  0  0  0  0  0
  143.4966   71.6966  221.4954 H   0  0  0  0  0  0  0  0  0  0  0  0
  143.7542   71.1379  219.8413 H   0  0  0  0  0  0  0  0  0  0  0  0
  145.5321   72.7434  221.4969 H   0  0  0  0  0  0  0  0  0  0  0  0
  145.5057   74.8644  220.2751 H   0  0  0  0  0  0  0  0  0  0  0  0
  144.9177   74.1916  218.8060 H   0  0  0  0  0  0  0  0  0  0  0  0
  143.2398   74.3616  221.5422 H   0  0  0  0  0  0  0  0  0  0  0  0
  141.3196   75.7458  221.5656 H   0  0  0  0  0  0  0  0  0  0  0  0
  140.4779   77.9243  220.8311 H   0  0  0  0  0  0  0  0  0  0  0  0
  143.4247   77.9554  217.7255 H   0  0  0  0  0  0  0  0  0  0  0  0
  144.2550   75.7690  218.4698 H   0  0  0  0  0  0  0  0  0  0  0  0
  138.9731   69.9766  222.3445 H   0  0  0  0  0  0  0  0  0  0  0  0
  138.7501   68.5321  224.3602 H   0  0  0  0  0  0  0  0  0  0  0  0
  139.2253   68.1576  226.7540 H   0  0  0  0  0  0  0  0  0  0  0  0
  141.4915   71.1541  228.9128 H   0  0  0  0  0  0  0  0  0  0  0  0
  141.6218   72.4834  226.8164 H   0  0  0  0  0  0  0  0  0  0  0  0
  1  2  2  0
  2  3  1  0
  3  4  1  0
  4  5  1  0
  5  6  2  0
  5  7  1  0
  7  8  1  0
  8  9  1  0
  9 10  1  0
  9 11  1  0
 11 12  1  0
 12 13  1  0
 13 14  2  0
 14 15  1  0
 15 16  2  0
 16 17  1  0
 16 18  1  0
 18 19  2  0
  2 20  1  0
 20 21  2  0
 21 22  1  0
 22 23  2  0
 23 24  1  0
 24 25  2  0
 25 26  1  0
 25 27  1  0
 27 28  2  0
 28 29  1  0
 29 30  2  0
 12  7  1  0
 19 13  1  0
 30 20  1  0
 29 23  1  0
  3 31  1  0
  4 32  1  0
  4 33  1  0
  8 34  1  0
  8 35  1  0
  9 36  1  1
 11 37  1  0
 11 38  1  0
 12 39  1  1
 14 40  1  0
 15 41  1  0
 18 42  1  0
 19 43  1  0
 21 44  1  0
 22 45  1  0
 24 46  1  0
 27 47  1  0
 28 48  1  0
M  END
>  <smiles>  (22) 
O=C(NCC(=O)N1C[C@@H](F)C[C@H]1c1ccc(Cl)cc1)c1ccc2cc(F)ccc2n1

>  <score_type>  (22) 
oracle

>  <origin>  (22) 
autodockgpu

>  <m_score__min__energy>  (22) 
-8.8800000000000008

>  <m_primary>  (22) 
energy

>  <rmsd>  (22) 
3.4919564427848586

>  <m_score__min__rmsd>  (22) 
3.4919564427848586

>  <meeko>  (22) 
{"free_energy": -8.02, "intermolecular_energy": -9.51, "internal_energy": -1.53, "cluster_size": 1, "cluster_id": 4, "rank_in_cluster": 1}

>  <energy>  (22) 
-7.69

>  <cluster_rmsd>  (22) 
1.84

>  <cluster>  (22) 
1

$$$$

     RDKit          3D

 48 51  0  0  0  0  0  0  0  0999 V2000
  141.2840   71.5420  221.3730 O   0  0  0  0  0  0  0  0  0  0  0  0
  140.6230   72.0230  222.3400 C   0  0  0  0  0  0  0  0  0  0  0  0
  140.1180   73.3530  222.3430 N   0  0  0  0  0  0  0  0  0  0  0  0
  140.3830   74.1840  221.1650 C   0  0  0  0  0  0  0  0  0  0  0  0
  140.5260   75.5990  221.5310 C   0  0  0  0  0  0  0  0  0  0  0  0
  139.7850   75.9910  222.5110 O   0  0  0  0  0  0  0  0  0  0  0  0
  141.3500   76.5770  220.9690 N   0  0  0  0  0  0  0  0  0  0  0  0
  142.2820   76.1670  219.8550 C   0  0  0  0  0  0  0  0  0  0  0  0
  142.4070   77.3830  218.9830 C   0  0  1  0  0  0  0  0  0  0  0  0
  142.0730   77.1430  217.6680 F   0  0  0  0  0  0  0  0  0  0  0  0
  141.4380   78.3920  219.6180 C   0  0  0  0  0  0  0  0  0  0  0  0
  141.6070   77.9590  221.0880 C   0  0  1  0  0  0  0  0  0  0  0  0
  140.8280   78.7920  221.9790 C   0  0  0  0  0  0  0  0  0  0  0  0
  141.2810   79.5700  223.0030 C   0  0  0  0  0  0  0  0  0  0  0  0
  140.4710   80.3290  223.8260 C   0  0  0  0  0  0  0  0  0  0  0  0
  139.1070   80.3280  223.6260 C   0  0  0  0  0  0  0  0  0  0  0  0
  138.0230   81.2660  224.6290 Cl  0  0  0  0  0  0  0  0  0  0  0  0
  138.6060   79.5550  222.6000 C   0  0  0  0  0  0  0  0  0  0  0  0
  139.4300   78.8030  221.7900 C   0  0  0  0  0  0  0  0  0  0  0  0
  140.3560   71.1850  223.5270 C   0  0  0  0  0  0  0  0  0  0  0  0
  139.6160   70.0230  223.3990 C   0  0  0  0  0  0  0  0  0  0  0  0
  139.3560   69.2240  224.5120 C   0  0  0  0  0  0  0  0  0  0  0  0
  139.8350   69.5870  225.7460 C   0  0  0  0  0  0  0  0  0  0  0  0
  139.6110   68.8390  226.8800 C   0  0  0  0  0  0  0  0  0  0  0  0
  140.1270   69.2710  228.0860 C   0  0  0  0  0  0  0  0  0  0  0  0
  139.9380   68.5730  229.2430 F   0  0  0  0  0  0  0  0  0  0  0  0
  140.8700   70.4420  228.1990 C   0  0  0  0  0  0  0  0  0  0  0  0
  141.0690   71.1600  227.0360 C   0  0  0  0  0  0  0  0  0  0  0  0
  140.5690   70.7590  225.8130 C   0  0  0  0  0  0  0  0  0  0  0  0
  140.8170   71.5240  224.7440 N   0  0  0  0  0  0  0  0  0  0  0  0
  139.5730   73.7170  223.1650 H   0  0  0  0  0  0  0  0  0  0  0  0
  141.3128   73.8419  220.6870 H   0  0  0  0  0  0  0  0  0  0  0  0
  139.5322   74.0884  220.4744 H   0  0  0  0  0  0  0  0  0  0  0  0
  143.2637   75.8788  220.2590 H   0  0  0  0  0  0  0  0  0  0  0  0
  141.9021   75.2976  219.2984 H   0  0  0  0  0  0  0  0  0  0  0  0
  143.4470   77.7389  218.9399 H   0  0  0  0  0  0  0  0  0  0  0  0
  141.7528   79.4328  219.4517 H   0  0  0  0  0  0  0  0  0  0  0  0
  140.4094   78.3834  219.2282 H   0  0  0  0  0  0  0  0  0  0  0  0
  142.5790   78.1033  221.5824 H   0  0  0  0  0  0  0  0  0  0  0  0
  142.3653   79.5952  223.1865 H   0  0  0  0  0  0  0  0  0  0  0  0
  140.9116   80.9299  224.6352 H   0  0  0  0  0  0  0  0  0  0  0  0
  137.5204   79.5379  222.4232 H   0  0  0  0  0  0  0  0  0  0  0  0
  138.9895   78.2007  220.9818 H   0  0  0  0  0  0  0  0  0  0  0  0
  139.2300   69.7273  222.4123 H   0  0  0  0  0  0  0  0  0  0  0  0
  138.7665   68.3020  224.4009 H   0  0  0  0  0  0  0  0  0  0  0  0
  139.0277   67.9079  226.8261 H   0  0  0  0  0  0  0  0  0  0  0  0
  141.2775   70.7782  229.1638 H   0  0  0  0  0  0  0  0  0  0  0  0
  141.6512   72.0919  227.0863 H   0  0  0  0  0  0  0  0  0  0  0  0
  1  2  2  0
  2  3  1  0
  3  4  1  0
  4  5  1  0
  5  6  2  0
  5  7  1  0
  7  8  1  0
  8  9  1  0
  9 10  1  0
  9 11  1  0
 11 12  1  0
 12 13  1  0
 13 14  2  0
 14 15  1  0
 15 16  2  0
 16 17  1  0
 16 18  1  0
 18 19  2  0
  2 20  1  0
 20 21  2  0
 21 22  1  0
 22 23  2  0
 23 24  1  0
 24 25  2  0
 25 26  1  0
 25 27  1  0
 27 28  2  0
 28 29  1  0
 29 30  2  0
 12  7  1  0
 19 13  1  0
 30 20  1  0
 29 23  1  0
  3 31  1  0
  4 32  1  0
  4 33  1  0
  8 34  1  0
  8 35  1  0
  9 36  1  6
 11 37  1  0
 11 38  1  0
 12 39  1  1
 14 40  1  0
 15 41  1  0
 18 42  1  0
 19 43  1  0
 21 44  1  0
 22 45  1  0
 24 46  1  0
 27 47  1  0
 28 48  1  0
M  END
>  <smiles>  (23) 
O=C(NCC(=O)N1C[C@@H](F)C[C@H]1c1ccc(Cl)cc1)c1ccc2cc(F)ccc2n1

>  <score_type>  (23) 
oracle

>  <origin>  (23) 
autodockgpu

>  <m_score__min__energy>  (23) 
-8.8800000000000008

>  <m_primary>  (23) 
energy

>  <rmsd>  (23) 
2.0472884762298

>  <m_score__min__rmsd>  (23) 
2.0472884762298

>  <meeko>  (23) 
{"free_energy": -8.6, "intermolecular_energy": -10.09, "internal_energy": -1.55, "cluster_size": 18, "cluster_id": 2, "rank_in_cluster": 4}

>  <energy>  (23) 
-8.71

>  <cluster_rmsd>  (23) 
0.0

>  <cluster>  (23) 
2

$$$$

     RDKit          3D

 48 51  0  0  0  0  0  0  0  0999 V2000
  141.1840   72.4160  221.5990 O   0  0  0  0  0  0  0  0  0  0  0  0
  140.1910   72.4600  222.3830 C   0  0  0  0  0  0  0  0  0  0  0  0
  139.1140   73.3750  222.2130 N   0  0  0  0  0  0  0  0  0  0  0  0
  139.1770   74.2950  221.0740 C   0  0  0  0  0  0  0  0  0  0  0  0
  139.8750   75.5370  221.4290 C   0  0  0  0  0  0  0  0  0  0  0  0
  139.9570   75.7790  222.6930 O   0  0  0  0  0  0  0  0  0  0  0  0
  140.4610   76.4890  220.5920 N   0  0  0  0  0  0  0  0  0  0  0  0
  139.8110   77.8480  220.4940 C   0  0  0  0  0  0  0  0  0  0  0  0
  140.9410   78.8050  220.2460 C   0  0  1  0  0  0  0  0  0  0  0  0
  141.0010   79.8220  221.1720 F   0  0  0  0  0  0  0  0  0  0  0  0
  142.1950   77.9210  220.3220 C   0  0  0  0  0  0  0  0  0  0  0  0
  141.5840   76.6270  219.7480 C   0  0  1  0  0  0  0  0  0  0  0  0
  142.5720   75.5760  219.6380 C   0  0  0  0  0  0  0  0  0  0  0  0
  143.2360   75.1690  218.5190 C   0  0  0  0  0  0  0  0  0  0  0  0
  144.1600   74.1410  218.4890 C   0  0  0  0  0  0  0  0  0  0  0  0
  144.4590   73.4610  219.6500 C   0  0  0  0  0  0  0  0  0  0  0  0
  145.6180   72.1510  219.6840 Cl  0  0  0  0  0  0  0  0  0  0  0  0
  143.8110   73.8420  220.8060 C   0  0  0  0  0  0  0  0  0  0  0  0
  142.8910   74.8680  220.8160 C   0  0  0  0  0  0  0  0  0  0  0  0
  140.1280   71.5320  223.5310 C   0  0  0  0  0  0  0  0  0  0  0  0
  139.5550   70.2820  223.3770 C   0  0  0  0  0  0  0  0  0  0  0  0
  139.4890   69.3970  224.4530 C   0  0  0  0  0  0  0  0  0  0  0  0
  139.9940   69.7630  225.6750 C   0  0  0  0  0  0  0  0  0  0  0  0
  139.9570   68.9330  226.7730 C   0  0  0  0  0  0  0  0  0  0  0  0
  140.4870   69.3730  227.9700 C   0  0  0  0  0  0  0  0  0  0  0  0
  140.4800   68.5960  229.0920 F   0  0  0  0  0  0  0  0  0  0  0  0
  141.0610   70.6330  228.1090 C   0  0  0  0  0  0  0  0  0  0  0  0
  141.0750   71.4310  226.9820 C   0  0  0  0  0  0  0  0  0  0  0  0
  140.5550   71.0250  225.7690 C   0  0  0  0  0  0  0  0  0  0  0  0
  140.6180   71.8710  224.7360 N   0  0  0  0  0  0  0  0  0  0  0  0
  138.3070   73.3810  222.8850 H   0  0  0  0  0  0  0  0  0  0  0  0
  139.7138   73.8060  220.2477 H   0  0  0  0  0  0  0  0  0  0  0  0
  138.1491   74.5479  220.7749 H   0  0  0  0  0  0  0  0  0  0  0  0
  139.0933   77.8736  219.6608 H   0  0  0  0  0  0  0  0  0  0  0  0
  139.2479   78.1021  221.4041 H   0  0  0  0  0  0  0  0  0  0  0  0
  140.8243   79.3205  219.2813 H   0  0  0  0  0  0  0  0  0  0  0  0
  143.0146   78.3067  219.6979 H   0  0  0  0  0  0  0  0  0  0  0  0
  142.6636   77.8339  221.3134 H   0  0  0  0  0  0  0  0  0  0  0  0
  141.2514   76.6094  218.6996 H   0  0  0  0  0  0  0  0  0  0  0  0
  143.0221   75.6940  217.5763 H   0  0  0  0  0  0  0  0  0  0  0  0
  144.6534   73.8676  217.5446 H   0  0  0  0  0  0  0  0  0  0  0  0
  144.0342   73.3133  221.7445 H   0  0  0  0  0  0  0  0  0  0  0  0
  142.3961   75.1400  221.7600 H   0  0  0  0  0  0  0  0  0  0  0  0
  139.1487   69.9842  222.3991 H   0  0  0  0  0  0  0  0  0  0  0  0
  139.0318   68.4051  224.3218 H   0  0  0  0  0  0  0  0  0  0  0  0
  139.5103   67.9306  226.6976 H   0  0  0  0  0  0  0  0  0  0  0  0
  141.4814   70.9753  229.0661 H   0  0  0  0  0  0  0  0  0  0  0  0
  141.5201   72.4344  227.0538 H   0  0  0  0  0  0  0  0  0  0  0  0
  1  2  2  0
  2  3  1  0
  3  4  1  0
  4  5  1  0
  5  6  2  0
  5  7  1  0
  7  8  1  0
  8  9  1  0
  9 10  1  0
  9 11  1  0
 11 12  1  0
 12 13  1  0
 13 14  2  0
 14 15  1  0
 15 16  2  0
 16 17  1  0
 16 18  1  0
 18 19  2  0
  2 20  1  0
 20 21  2  0
 21 22  1  0
 22 23  2  0
 23 24  1  0
 24 25  2  0
 25 26  1  0
 25 27  1  0
 27 28  2  0
 28 29  1  0
 29 30  2  0
 12  7  1  0
 19 13  1  0
 30 20  1  0
 29 23  1  0
  3 31  1  0
  4 32  1  0
  4 33  1  0
  8 34  1  0
  8 35  1  0
  9 36  1  6
 11 37  1  0
 11 38  1  0
 12 39  1  6
 14 40  1  0
 15 41  1  0
 18 42  1  0
 19 43  1  0
 21 44  1  0
 22 45  1  0
 24 46  1  0
 27 47  1  0
 28 48  1  0
M  END
>  <smiles>  (24) 
O=C(NCC(=O)N1C[C@@H](F)C[C@H]1c1ccc(Cl)cc1)c1ccc2cc(F)ccc2n1

>  <score_type>  (24) 
oracle

>  <origin>  (24) 
autodockgpu

>  <m_score__min__energy>  (24) 
-8.8800000000000008

>  <m_primary>  (24) 
energy

>  <rmsd>  (24) 
2.0468441785329334

>  <m_score__min__rmsd>  (24) 
2.0468441785329334

>  <meeko>  (24) 
{"free_energy": -8.02, "intermolecular_energy": -9.51, "internal_energy": -1.58, "cluster_size": 6, "cluster_id": 3, "rank_in_cluster": 2}

>  <energy>  (24) 
-8.65

>  <cluster_rmsd>  (24) 
0.4

>  <cluster>  (24) 
2

$$$$

     RDKit          3D

 48 51  0  0  0  0  0  0  0  0999 V2000
  141.3400   71.6650  221.6360 O   0  0  0  0  0  0  0  0  0  0  0  0
  140.4520   71.9180  222.5020 C   0  0  0  0  0  0  0  0  0  0  0  0
  139.5850   73.0440  222.4100 N   0  0  0  0  0  0  0  0  0  0  0  0
  139.7440   73.9330  221.2550 C   0  0  0  0  0  0  0  0  0  0  0  0
  140.0930   75.2960  221.6760 C   0  0  0  0  0  0  0  0  0  0  0  0
  139.4190   75.7530  222.6750 O   0  0  0  0  0  0  0  0  0  0  0  0
  141.0510   76.1640  221.1460 N   0  0  0  0  0  0  0  0  0  0  0  0
  141.9950   75.6280  220.0970 C   0  0  0  0  0  0  0  0  0  0  0  0
  142.3020   76.8020  219.2120 C   0  0  1  0  0  0  0  0  0  0  0  0
  142.0200   76.5660  217.8850 F   0  0  0  0  0  0  0  0  0  0  0  0
  141.4160   77.9250  219.7700 C   0  0  0  0  0  0  0  0  0  0  0  0
  141.4510   77.5130  221.2550 C   0  0  1  0  0  0  0  0  0  0  0  0
  140.7180   78.4460  222.0830 C   0  0  0  0  0  0  0  0  0  0  0  0
  141.2080   79.2450  223.0730 C   0  0  0  0  0  0  0  0  0  0  0  0
  140.4400   80.1050  223.8360 C   0  0  0  0  0  0  0  0  0  0  0  0
  139.0840   80.1900  223.6060 C   0  0  0  0  0  0  0  0  0  0  0  0
  138.0520   81.2570  224.5330 Cl  0  0  0  0  0  0  0  0  0  0  0  0
  138.5470   79.4000  222.6120 C   0  0  0  0  0  0  0  0  0  0  0  0
  139.3290   78.5470  221.8630 C   0  0  0  0  0  0  0  0  0  0  0  0
  140.2920   71.0230  223.6650 C   0  0  0  0  0  0  0  0  0  0  0  0
  139.6560   69.8030  223.5150 C   0  0  0  0  0  0  0  0  0  0  0  0
  139.4980   68.9490  224.6050 C   0  0  0  0  0  0  0  0  0  0  0  0
  139.9760   69.3130  225.8390 C   0  0  0  0  0  0  0  0  0  0  0  0
  139.8490   68.5120  226.9510 C   0  0  0  0  0  0  0  0  0  0  0  0
  140.3570   68.9500  228.1600 C   0  0  0  0  0  0  0  0  0  0  0  0
  140.2620   68.2000  229.2960 F   0  0  0  0  0  0  0  0  0  0  0  0
  140.9950   70.1790  228.2950 C   0  0  0  0  0  0  0  0  0  0  0  0
  141.0980   70.9490  227.1530 C   0  0  0  0  0  0  0  0  0  0  0  0
  140.6030   70.5440  225.9290 C   0  0  0  0  0  0  0  0  0  0  0  0
  140.7540   71.3620  224.8810 N   0  0  0  0  0  0  0  0  0  0  0  0
  138.8600   73.2210  223.1490 H   0  0  0  0  0  0  0  0  0  0  0  0
  140.5435   73.5416  220.6087 H   0  0  0  0  0  0  0  0  0  0  0  0
  138.7884   73.9710  220.7115 H   0  0  0  0  0  0  0  0  0  0  0  0
  142.9145   75.2453  220.5640 H   0  0  0  0  0  0  0  0  0  0  0  0
  141.5549   74.7913  219.5346 H   0  0  0  0  0  0  0  0  0  0  0  0
  143.3752   77.0432  219.2240 H   0  0  0  0  0  0  0  0  0  0  0  0
  141.8527   78.9209  219.6041 H   0  0  0  0  0  0  0  0  0  0  0  0
  140.4167   78.0186  219.3198 H   0  0  0  0  0  0  0  0  0  0  0  0
  142.4031   77.5642  221.8036 H   0  0  0  0  0  0  0  0  0  0  0  0
  142.2877   79.2026  223.2787 H   0  0  0  0  0  0  0  0  0  0  0  0
  140.9081   80.7170  224.6211 H   0  0  0  0  0  0  0  0  0  0  0  0
  137.4667   79.4517  222.4114 H   0  0  0  0  0  0  0  0  0  0  0  0
  138.8606   77.9337  221.0791 H   0  0  0  0  0  0  0  0  0  0  0  0
  139.2723   69.5051  222.5281 H   0  0  0  0  0  0  0  0  0  0  0  0
  138.9896   67.9821  224.4761 H   0  0  0  0  0  0  0  0  0  0  0  0
  139.3492   67.5348  226.8787 H   0  0  0  0  0  0  0  0  0  0  0  0
  141.3964   70.5197  229.2608 H   0  0  0  0  0  0  0  0  0  0  0  0
  141.5960   71.9274  227.2214 H   0  0  0  0  0  0  0  0  0  0  0  0
  1  2  2  0
  2  3  1  0
  3  4  1  0
  4  5  1  0
  5  6  2  0
  5  7  1  0
  7  8  1  0
  8  9  1  0
  9 10  1  0
  9 11  1  0
 11 12  1  0
 12 13  1  0
 13 14  2  0
 14 15  1  0
 15 16  2  0
 16 17  1  0
 16 18  1  0
 18 19  2  0
  2 20  1  0
 20 21  2  0
 21 22  1  0
 22 23  2  0
 23 24  1  0
 24 25  2  0
 25 26  1  0
 25 27  1  0
 27 28  2  0
 28 29  1  0
 29 30  2  0
 12  7  1  0
 19 13  1  0
 30 20  1  0
 29 23  1  0
  3 31  1  0
  4 32  1  0
  4 33  1  0
  8 34  1  0
  8 35  1  0
  9 36  1  6
 11 37  1  0
 11 38  1  0
 12 39  1  1
 14 40  1  0
 15 41  1  0
 18 42  1  0
 19 43  1  0
 21 44  1  0
 22 45  1  0
 24 46  1  0
 27 47  1  0
 28 48  1  0
M  END
>  <smiles>  (25) 
O=C(NCC(=O)N1C[C@@H](F)C[C@H]1c1ccc(Cl)cc1)c1ccc2cc(F)ccc2n1

>  <score_type>  (25) 
oracle

>  <origin>  (25) 
autodockgpu

>  <m_score__min__energy>  (25) 
-8.8800000000000008

>  <m_primary>  (25) 
energy

>  <rmsd>  (25) 
1.8452727925156642

>  <m_score__min__rmsd>  (25) 
1.8452727925156642

>  <meeko>  (25) 
{"free_energy": -8.62, "intermolecular_energy": -10.11, "internal_energy": -1.34, "cluster_size": 18, "cluster_id": 2, "rank_in_cluster": 3}

>  <energy>  (25) 
-8.62

>  <cluster_rmsd>  (25) 
0.15

>  <cluster>  (25) 
2

$$$$

     RDKit          3D

 48 51  0  0  0  0  0  0  0  0999 V2000
  140.5360   71.0360  221.3090 O   0  0  0  0  0  0  0  0  0  0  0  0
  140.2090   71.5750  222.4060 C   0  0  0  0  0  0  0  0  0  0  0  0
  139.9570   72.9700  222.5350 N   0  0  0  0  0  0  0  0  0  0  0  0
  140.0860   73.7990  221.3340 C   0  0  0  0  0  0  0  0  0  0  0  0
  140.3000   75.2100  221.6800 C   0  0  0  0  0  0  0  0  0  0  0  0
  139.6060   75.6430  222.6760 O   0  0  0  0  0  0  0  0  0  0  0  0
  141.1480   76.1460  221.0830 N   0  0  0  0  0  0  0  0  0  0  0  0
  142.0630   75.6750  219.9790 C   0  0  0  0  0  0  0  0  0  0  0  0
  142.2160   76.8580  219.0670 C   0  0  1  0  0  0  0  0  0  0  0  0
  141.8700   76.5850  217.7620 F   0  0  0  0  0  0  0  0  0  0  0  0
  141.2790   77.9130  219.6730 C   0  0  0  0  0  0  0  0  0  0  0  0
  141.4430   77.5240  221.1560 C   0  0  1  0  0  0  0  0  0  0  0  0
  140.6920   78.4060  222.0220 C   0  0  0  0  0  0  0  0  0  0  0  0
  141.1700   79.1940  223.0270 C   0  0  0  0  0  0  0  0  0  0  0  0
  140.3840   80.0030  223.8270 C   0  0  0  0  0  0  0  0  0  0  0  0
  139.0220   80.0430  223.6230 C   0  0  0  0  0  0  0  0  0  0  0  0
  137.9680   81.0440  224.5980 Cl  0  0  0  0  0  0  0  0  0  0  0  0
  138.4960   79.2620  222.6160 C   0  0  0  0  0  0  0  0  0  0  0  0
  139.2950   78.4610  221.8290 C   0  0  0  0  0  0  0  0  0  0  0  0
  140.0770   70.7390  223.6170 C   0  0  0  0  0  0  0  0  0  0  0  0
  139.3880   69.5410  223.5580 C   0  0  0  0  0  0  0  0  0  0  0  0
  139.2560   68.7440  224.6950 C   0  0  0  0  0  0  0  0  0  0  0  0
  139.8140   69.1440  225.8830 C   0  0  0  0  0  0  0  0  0  0  0  0
  139.7170   68.4000  227.0370 C   0  0  0  0  0  0  0  0  0  0  0  0
  140.3060   68.8700  228.1950 C   0  0  0  0  0  0  0  0  0  0  0  0
  140.2430   68.1770  229.3680 F   0  0  0  0  0  0  0  0  0  0  0  0
  140.9970   70.0770  228.2390 C   0  0  0  0  0  0  0  0  0  0  0  0
  141.0670   70.7900  227.0580 C   0  0  0  0  0  0  0  0  0  0  0  0
  140.4920   70.3510  225.8820 C   0  0  0  0  0  0  0  0  0  0  0  0
  140.6170   71.1140  224.7900 N   0  0  0  0  0  0  0  0  0  0  0  0
  139.6870   73.3810  223.4640 H   0  0  0  0  0  0  0  0  0  0  0  0
  140.9414   73.4415  220.7420 H   0  0  0  0  0  0  0  0  0  0  0  0
  139.1531   73.7208  220.7564 H   0  0  0  0  0  0  0  0  0  0  0  0
  143.0387   75.3739  220.3881 H   0  0  0  0  0  0  0  0  0  0  0  0
  141.6571   74.7985  219.4528 H   0  0  0  0  0  0  0  0  0  0  0  0
  143.2650   77.1837  219.0076 H   0  0  0  0  0  0  0  0  0  0  0  0
  141.6216   78.9387  219.4715 H   0  0  0  0  0  0  0  0  0  0  0  0
  140.2486   77.9199  219.2881 H   0  0  0  0  0  0  0  0  0  0  0  0
  142.4207   77.6581  221.6419 H   0  0  0  0  0  0  0  0  0  0  0  0
  142.2540   79.1856  223.2139 H   0  0  0  0  0  0  0  0  0  0  0  0
  140.8431   80.6105  224.6209 H   0  0  0  0  0  0  0  0  0  0  0  0
  137.4109   79.2786  222.4361 H   0  0  0  0  0  0  0  0  0  0  0  0
  138.8354   77.8532  221.0357 H   0  0  0  0  0  0  0  0  0  0  0  0
  138.9409   69.2145  222.6075 H   0  0  0  0  0  0  0  0  0  0  0  0
  138.7041   67.7941  224.6393 H   0  0  0  0  0  0  0  0  0  0  0  0
  139.1766   67.4419  227.0372 H   0  0  0  0  0  0  0  0  0  0  0  0
  141.4629   70.4440  229.1654 H   0  0  0  0  0  0  0  0  0  0  0  0
  141.6045   71.7497  227.0543 H   0  0  0  0  0  0  0  0  0  0  0  0
  1  2  2  0
  2  3  1  0
  3  4  1  0
  4  5  1  0
  5  6  2  0
  5  7  1  0
  7  8  1  0
  8  9  1  0
  9 10  1  0
  9 11  1  0
 11 12  1  0
 12 13  1  0
 13 14  2  0
 14 15  1  0
 15 16  2  0
 16 17  1  0
 16 18  1  0
 18 19  2  0
  2 20  1  0
 20 21  2  0
 21 22  1  0
 22 23  2  0
 23 24  1  0
 24 25  2  0
 25 26  1  0
 25 27  1  0
 27 28  2  0
 28 29  1  0
 29 30  2  0
 12  7  1  0
 19 13  1  0
 30 20  1  0
 29 23  1  0
  3 31  1  0
  4 32  1  0
  4 33  1  0
  8 34  1  0
  8 35  1  0
  9 36  1  6
 11 37  1  0
 11 38  1  0
 12 39  1  1
 14 40  1  0
 15 41  1  0
 18 42  1  0
 19 43  1  0
 21 44  1  0
 22 45  1  0
 24 46  1  0
 27 47  1  0
 28 48  1  0
M  END
>  <smiles>  (26) 
O=C(NCC(=O)N1C[C@@H](F)C[C@H]1c1ccc(Cl)cc1)c1ccc2cc(F)ccc2n1

>  <score_type>  (26) 
oracle

>  <origin>  (26) 
autodockgpu

>  <m_score__min__energy>  (26) 
-8.8800000000000008

>  <m_primary>  (26) 
energy

>  <rmsd>  (26) 
1.815125078545945

>  <m_score__min__rmsd>  (26) 
1.815125078545945

>  <meeko>  (26) 
{"free_energy": -8.51, "intermolecular_energy": -10.0, "internal_energy": -1.59, "cluster_size": 18, "cluster_id": 2, "rank_in_cluster": 9}

>  <energy>  (26) 
-8.6

>  <cluster_rmsd>  (26) 
0.48

>  <cluster>  (26) 
2

$$$$

     RDKit          3D

 48 51  0  0  0  0  0  0  0  0999 V2000
  141.0990   71.2790  221.5150 O   0  0  0  0  0  0  0  0  0  0  0  0
  140.4590   71.7480  222.5010 C   0  0  0  0  0  0  0  0  0  0  0  0
  139.9210   73.0660  222.5150 N   0  0  0  0  0  0  0  0  0  0  0  0
  140.1270   73.8970  221.3250 C   0  0  0  0  0  0  0  0  0  0  0  0
  139.5660   75.2420  221.5100 C   0  0  0  0  0  0  0  0  0  0  0  0
  139.2120   75.5290  222.7160 O   0  0  0  0  0  0  0  0  0  0  0  0
  139.3640   76.2500  220.5650 N   0  0  0  0  0  0  0  0  0  0  0  0
  138.5070   75.9390  219.3630 C   0  0  0  0  0  0  0  0  0  0  0  0
  137.8450   77.2390  219.0070 C   0  0  1  0  0  0  0  0  0  0  0  0
  136.4700   77.1530  218.9680 F   0  0  0  0  0  0  0  0  0  0  0  0
  138.3010   78.1990  220.1150 C   0  0  0  0  0  0  0  0  0  0  0  0
  139.7040   77.6040  220.3540 C   0  0  1  0  0  0  0  0  0  0  0  0
  140.4370   78.3560  221.3490 C   0  0  0  0  0  0  0  0  0  0  0  0
  140.2610   78.3450  222.7010 C   0  0  0  0  0  0  0  0  0  0  0  0
  140.9940   79.1070  223.5910 C   0  0  0  0  0  0  0  0  0  0  0  0
  141.9800   79.9450  223.1180 C   0  0  0  0  0  0  0  0  0  0  0  0
  142.9450   80.9370  224.1880 Cl  0  0  0  0  0  0  0  0  0  0  0  0
  142.1920   79.9860  221.7560 C   0  0  0  0  0  0  0  0  0  0  0  0
  141.4510   79.2200  220.8830 C   0  0  0  0  0  0  0  0  0  0  0  0
  140.2510   70.9100  223.7000 C   0  0  0  0  0  0  0  0  0  0  0  0
  139.5380   69.7280  223.6010 C   0  0  0  0  0  0  0  0  0  0  0  0
  139.3340   68.9290  224.7250 C   0  0  0  0  0  0  0  0  0  0  0  0
  139.8430   69.3110  225.9410 C   0  0  0  0  0  0  0  0  0  0  0  0
  139.6740   68.5640  227.0850 C   0  0  0  0  0  0  0  0  0  0  0  0
  140.2160   69.0160  228.2730 C   0  0  0  0  0  0  0  0  0  0  0  0
  140.0820   68.3190  229.4380 F   0  0  0  0  0  0  0  0  0  0  0  0
  140.9310   70.2060  228.3560 C   0  0  0  0  0  0  0  0  0  0  0  0
  141.0740   70.9230  227.1840 C   0  0  0  0  0  0  0  0  0  0  0  0
  140.5470   70.5030  225.9790 C   0  0  0  0  0  0  0  0  0  0  0  0
  140.7410   71.2670  224.9000 N   0  0  0  0  0  0  0  0  0  0  0  0
  139.3950   73.4200  223.3520 H   0  0  0  0  0  0  0  0  0  0  0  0
  141.2062   73.9825  221.1300 H   0  0  0  0  0  0  0  0  0  0  0  0
  139.6149   73.4208  220.4759 H   0  0  0  0  0  0  0  0  0  0  0  0
  139.1277   75.5806  218.5286 H   0  0  0  0  0  0  0  0  0  0  0  0
  137.7731   75.1473  219.5741 H   0  0  0  0  0  0  0  0  0  0  0  0
  138.1273   77.5680  217.9960 H   0  0  0  0  0  0  0  0  0  0  0  0
  138.3447   79.2425  219.7697 H   0  0  0  0  0  0  0  0  0  0  0  0
  137.6474   78.2615  220.9975 H   0  0  0  0  0  0  0  0  0  0  0  0
  140.4576   77.6666  219.5551 H   0  0  0  0  0  0  0  0  0  0  0  0
  139.4827   77.6848  223.1113 H   0  0  0  0  0  0  0  0  0  0  0  0
  140.7914   79.0448  224.6704 H   0  0  0  0  0  0  0  0  0  0  0  0
  142.9739   80.6482  221.3558 H   0  0  0  0  0  0  0  0  0  0  0  0
  141.6533   79.2829  219.8036 H   0  0  0  0  0  0  0  0  0  0  0  0
  139.1293   69.4167  222.6283 H   0  0  0  0  0  0  0  0  0  0  0  0
  138.7648   67.9918  224.6373 H   0  0  0  0  0  0  0  0  0  0  0  0
  139.1137   67.6179  227.0537 H   0  0  0  0  0  0  0  0  0  0  0  0
  141.3603   70.5580  229.3056 H   0  0  0  0  0  0  0  0  0  0  0  0
  141.6324   71.8703  227.2120 H   0  0  0  0  0  0  0  0  0  0  0  0
  1  2  2  0
  2  3  1  0
  3  4  1  0
  4  5  1  0
  5  6  2  0
  5  7  1  0
  7  8  1  0
  8  9  1  0
  9 10  1  0
  9 11  1  0
 11 12  1  0
 12 13  1  0
 13 14  2  0
 14 15  1  0
 15 16  2  0
 16 17  1  0
 16 18  1  0
 18 19  2  0
  2 20  1  0
 20 21  2  0
 21 22  1  0
 22 23  2  0
 23 24  1  0
 24 25  2  0
 25 26  1  0
 25 27  1  0
 27 28  2  0
 28 29  1  0
 29 30  2  0
 12  7  1  0
 19 13  1  0
 30 20  1  0
 29 23  1  0
  3 31  1  0
  4 32  1  0
  4 33  1  0
  8 34  1  0
  8 35  1  0
  9 36  1  6
 11 37  1  0
 11 38  1  0
 12 39  1  6
 14 40  1  0
 15 41  1  0
 18 42  1  0
 19 43  1  0
 21 44  1  0
 22 45  1  0
 24 46  1  0
 27 47  1  0
 28 48  1  0
M  END
>  <smiles>  (27) 
O=C(NCC(=O)N1C[C@@H](F)C[C@H]1c1ccc(Cl)cc1)c1ccc2cc(F)ccc2n1

>  <score_type>  (27) 
oracle

>  <origin>  (27) 
autodockgpu

>  <m_score__min__energy>  (27) 
-8.8800000000000008

>  <m_primary>  (27) 
energy

>  <rmsd>  (27) 
1.7822182095971693

>  <m_score__min__rmsd>  (27) 
1.7822182095971693

>  <meeko>  (27) 
{"free_energy": -8.19, "intermolecular_energy": -9.68, "internal_energy": -1.72, "cluster_size": 22, "cluster_id": 1, "rank_in_cluster": 15}

>  <energy>  (27) 
-8.59

>  <cluster_rmsd>  (27) 
0.48

>  <cluster>  (27) 
2

$$$$

     RDKit          3D

 48 51  0  0  0  0  0  0  0  0999 V2000
  141.2850   71.5540  221.3570 O   0  0  0  0  0  0  0  0  0  0  0  0
  140.6240   72.0260  222.3280 C   0  0  0  0  0  0  0  0  0  0  0  0
  140.1200   73.3570  222.3430 N   0  0  0  0  0  0  0  0  0  0  0  0
  140.3870   74.1990  221.1730 C   0  0  0  0  0  0  0  0  0  0  0  0
  140.5580   75.6060  221.5580 C   0  0  0  0  0  0  0  0  0  0  0  0
  139.8810   75.9810  222.5890 O   0  0  0  0  0  0  0  0  0  0  0  0
  141.3500   76.5920  220.9640 N   0  0  0  0  0  0  0  0  0  0  0  0
  142.2600   76.1880  219.8310 C   0  0  0  0  0  0  0  0  0  0  0  0
  142.3400   77.3960  218.9430 C   0  0  1  0  0  0  0  0  0  0  0  0
  141.9770   77.1360  217.6400 F   0  0  0  0  0  0  0  0  0  0  0  0
  141.3700   78.3940  219.5920 C   0  0  0  0  0  0  0  0  0  0  0  0
  141.5840   77.9810  221.0620 C   0  0  1  0  0  0  0  0  0  0  0  0
  140.8130   78.8080  221.9640 C   0  0  0  0  0  0  0  0  0  0  0  0
  141.2780   79.6120  222.9620 C   0  0  0  0  0  0  0  0  0  0  0  0
  140.4750   80.3650  223.7980 C   0  0  0  0  0  0  0  0  0  0  0  0
  139.1070   80.3290  223.6400 C   0  0  0  0  0  0  0  0  0  0  0  0
  138.0310   81.2570  224.6620 Cl  0  0  0  0  0  0  0  0  0  0  0  0
  138.5930   79.5290  222.6420 C   0  0  0  0  0  0  0  0  0  0  0  0
  139.4100   78.7840  221.8190 C   0  0  0  0  0  0  0  0  0  0  0  0
  140.3540   71.1770  223.5060 C   0  0  0  0  0  0  0  0  0  0  0  0
  139.6040   70.0220  223.3680 C   0  0  0  0  0  0  0  0  0  0  0  0
  139.3410   69.2130  224.4720 C   0  0  0  0  0  0  0  0  0  0  0  0
  139.8280   69.5570  225.7080 C   0  0  0  0  0  0  0  0  0  0  0  0
  139.6020   68.7980  226.8340 C   0  0  0  0  0  0  0  0  0  0  0  0
  140.1260   69.2120  228.0440 C   0  0  0  0  0  0  0  0  0  0  0  0
  139.9360   68.5020  229.1930 F   0  0  0  0  0  0  0  0  0  0  0  0
  140.8800   70.3750  228.1670 C   0  0  0  0  0  0  0  0  0  0  0  0
  141.0800   71.1050  227.0110 C   0  0  0  0  0  0  0  0  0  0  0  0
  140.5720   70.7230  225.7860 C   0  0  0  0  0  0  0  0  0  0  0  0
  140.8230   71.4970  224.7250 N   0  0  0  0  0  0  0  0  0  0  0  0
  139.5750   73.7130  223.1680 H   0  0  0  0  0  0  0  0  0  0  0  0
  141.3057   73.8477  220.6805 H   0  0  0  0  0  0  0  0  0  0  0  0
  139.5282   74.1272  220.4894 H   0  0  0  0  0  0  0  0  0  0  0  0
  143.2570   75.9225  220.2125 H   0  0  0  0  0  0  0  0  0  0  0  0
  141.8818   75.3060  219.2934 H   0  0  0  0  0  0  0  0  0  0  0  0
  143.3719   77.7697  218.8689 H   0  0  0  0  0  0  0  0  0  0  0  0
  141.6615   79.4383  219.4065 H   0  0  0  0  0  0  0  0  0  0  0  0
  140.3321   78.3623  219.2290 H   0  0  0  0  0  0  0  0  0  0  0  0
  142.5652   78.1498  221.5296 H   0  0  0  0  0  0  0  0  0  0  0  0
  142.3664   79.6651  223.1122 H   0  0  0  0  0  0  0  0  0  0  0  0
  140.9253   80.9888  224.5842 H   0  0  0  0  0  0  0  0  0  0  0  0
  137.5033   79.4840  222.4988 H   0  0  0  0  0  0  0  0  0  0  0  0
  138.9594   78.1588  221.0341 H   0  0  0  0  0  0  0  0  0  0  0  0
  139.2125   69.7404  222.3794 H   0  0  0  0  0  0  0  0  0  0  0  0
  138.7425   68.2979  224.3525 H   0  0  0  0  0  0  0  0  0  0  0  0
  139.0110   67.8724  226.7714 H   0  0  0  0  0  0  0  0  0  0  0  0
  141.2950   70.6963  229.1337 H   0  0  0  0  0  0  0  0  0  0  0  0
  141.6701   72.0315  227.0697 H   0  0  0  0  0  0  0  0  0  0  0  0
  1  2  2  0
  2  3  1  0
  3  4  1  0
  4  5  1  0
  5  6  2  0
  5  7  1  0
  7  8  1  0
  8  9  1  0
  9 10  1  0
  9 11  1  0
 11 12  1  0
 12 13  1  0
 13 14  2  0
 14 15  1  0
 15 16  2  0
 16 17  1  0
 16 18  1  0
 18 19  2  0
  2 20  1  0
 20 21  2  0
 21 22  1  0
 22 23  2  0
 23 24  1  0
 24 25  2  0
 25 26  1  0
 25 27  1  0
 27 28  2  0
 28 29  1  0
 29 30  2  0
 12  7  1  0
 19 13  1  0
 30 20  1  0
 29 23  1  0
  3 31  1  0
  4 32  1  0
  4 33  1  0
  8 34  1  0
  8 35  1  0
  9 36  1  6
 11 37  1  0
 11 38  1  0
 12 39  1  1
 14 40  1  0
 15 41  1  0
 18 42  1  0
 19 43  1  0
 21 44  1  0
 22 45  1  0
 24 46  1  0
 27 47  1  0
 28 48  1  0
M  END
>  <smiles>  (28) 
O=C(NCC(=O)N1C[C@@H](F)C[C@H]1c1ccc(Cl)cc1)c1ccc2cc(F)ccc2n1

>  <score_type>  (28) 
oracle

>  <origin>  (28) 
autodockgpu

>  <m_score__min__energy>  (28) 
-8.8800000000000008

>  <m_primary>  (28) 
energy

>  <rmsd>  (28) 
2.033505345507698

>  <m_score__min__rmsd>  (28) 
2.033505345507698

>  <meeko>  (28) 
{"free_energy": -8.59, "intermolecular_energy": -10.08, "internal_energy": -1.58, "cluster_size": 18, "cluster_id": 2, "rank_in_cluster": 5}

>  <energy>  (28) 
-8.58

>  <cluster_rmsd>  (28) 
0.48

>  <cluster>  (28) 
2

$$$$

     RDKit          3D

 48 51  0  0  0  0  0  0  0  0999 V2000
  141.3660   72.4300  221.6520 O   0  0  0  0  0  0  0  0  0  0  0  0
  140.3510   72.5160  222.4030 C   0  0  0  0  0  0  0  0  0  0  0  0
  139.3220   73.4790  222.2020 N   0  0  0  0  0  0  0  0  0  0  0  0
  139.4630   74.3980  221.0690 C   0  0  0  0  0  0  0  0  0  0  0  0
  140.5290   75.3790  221.3080 C   0  0  0  0  0  0  0  0  0  0  0  0
  140.4480   76.0180  222.4260 O   0  0  0  0  0  0  0  0  0  0  0  0
  141.6150   75.7160  220.4970 N   0  0  0  0  0  0  0  0  0  0  0  0
  142.2720   74.6190  219.6960 C   0  0  0  0  0  0  0  0  0  0  0  0
  142.7740   75.2920  218.4510 C   0  0  1  0  0  0  0  0  0  0  0  0
  142.3010   74.7130  217.2940 F   0  0  0  0  0  0  0  0  0  0  0  0
  142.2710   76.7370  218.5850 C   0  0  0  0  0  0  0  0  0  0  0  0
  142.3580   76.8550  220.1200 C   0  0  1  0  0  0  0  0  0  0  0  0
  141.9830   78.1770  220.5720 C   0  0  0  0  0  0  0  0  0  0  0  0
  141.8020   78.6000  221.8560 C   0  0  0  0  0  0  0  0  0  0  0  0
  141.4260   79.8820  222.2110 C   0  0  0  0  0  0  0  0  0  0  0  0
  141.2130   80.8250  221.2290 C   0  0  0  0  0  0  0  0  0  0  0  0
  140.7360   82.4650  221.6080 Cl  0  0  0  0  0  0  0  0  0  0  0  0
  141.3850   80.4400  219.9160 C   0  0  0  0  0  0  0  0  0  0  0  0
  141.7600   79.1560  219.5810 C   0  0  0  0  0  0  0  0  0  0  0  0
  140.2090   71.5890  223.5440 C   0  0  0  0  0  0  0  0  0  0  0  0
  139.5680   70.3740  223.3710 C   0  0  0  0  0  0  0  0  0  0  0  0
  139.4270   69.4910  224.4410 C   0  0  0  0  0  0  0  0  0  0  0  0
  139.9260   69.8210  225.6750 C   0  0  0  0  0  0  0  0  0  0  0  0
  139.8170   68.9900  226.7680 C   0  0  0  0  0  0  0  0  0  0  0  0
  140.3450   69.3940  227.9790 C   0  0  0  0  0  0  0  0  0  0  0  0
  140.2680   68.6130  229.0950 F   0  0  0  0  0  0  0  0  0  0  0  0
  140.9880   70.6180  228.1370 C   0  0  0  0  0  0  0  0  0  0  0  0
  141.0730   71.4190  227.0140 C   0  0  0  0  0  0  0  0  0  0  0  0
  140.5570   71.0480  225.7880 C   0  0  0  0  0  0  0  0  0  0  0  0
  140.6910   71.8940  224.7610 N   0  0  0  0  0  0  0  0  0  0  0  0
  138.4940   73.5190  222.8470 H   0  0  0  0  0  0  0  0  0  0  0  0
  139.7048   73.8188  220.1656 H   0  0  0  0  0  0  0  0  0  0  0  0
  138.5144   74.9400  220.9411 H   0  0  0  0  0  0  0  0  0  0  0  0
  143.1067   74.1763  220.2592 H   0  0  0  0  0  0  0  0  0  0  0  0
  141.5743   73.7993  219.4692 H   0  0  0  0  0  0  0  0  0  0  0  0
  143.8680   75.2133  218.3678 H   0  0  0  0  0  0  0  0  0  0  0  0
  142.9286   77.4558  218.0742 H   0  0  0  0  0  0  0  0  0  0  0  0
  141.2873   76.9482  218.1403 H   0  0  0  0  0  0  0  0  0  0  0  0
  143.3438   76.8196  220.6068 H   0  0  0  0  0  0  0  0  0  0  0  0
  141.9664   77.8717  222.6638 H   0  0  0  0  0  0  0  0  0  0  0  0
  141.2976   80.1477  223.2707 H   0  0  0  0  0  0  0  0  0  0  0  0
  141.2188   81.1759  219.1155 H   0  0  0  0  0  0  0  0  0  0  0  0
  141.8876   78.8901  218.5213 H   0  0  0  0  0  0  0  0  0  0  0  0
  139.1673   70.1035  222.3829 H   0  0  0  0  0  0  0  0  0  0  0  0
  138.9149   68.5285  224.2951 H   0  0  0  0  0  0  0  0  0  0  0  0
  139.3151   68.0154  226.6777 H   0  0  0  0  0  0  0  0  0  0  0  0
  141.4066   70.9314  229.1047 H   0  0  0  0  0  0  0  0  0  0  0  0
  141.5735   72.3947  227.1005 H   0  0  0  0  0  0  0  0  0  0  0  0
  1  2  2  0
  2  3  1  0
  3  4  1  0
  4  5  1  0
  5  6  2  0
  5  7  1  0
  7  8  1  0
  8  9  1  0
  9 10  1  0
  9 11  1  0
 11 12  1  0
 12 13  1  0
 13 14  2  0
 14 15  1  0
 15 16  2  0
 16 17  1  0
 16 18  1  0
 18 19  2  0
  2 20  1  0
 20 21  2  0
 21 22  1  0
 22 23  2  0
 23 24  1  0
 24 25  2  0
 25 26  1  0
 25 27  1  0
 27 28  2  0
 28 29  1  0
 29 30  2  0
 12  7  1  0
 19 13  1  0
 30 20  1  0
 29 23  1  0
  3 31  1  0
  4 32  1  0
  4 33  1  0
  8 34  1  0
  8 35  1  0
  9 36  1  6
 11 37  1  0
 11 38  1  0
 12 39  1  6
 14 40  1  0
 15 41  1  0
 18 42  1  0
 19 43  1  0
 21 44  1  0
 22 45  1  0
 24 46  1  0
 27 47  1  0
 28 48  1  0
M  END
>  <smiles>  (29) 
O=C(NCC(=O)N1C[C@@H](F)C[C@H]1c1ccc(Cl)cc1)c1ccc2cc(F)ccc2n1

>  <score_type>  (29) 
oracle

>  <origin>  (29) 
autodockgpu

>  <m_score__min__energy>  (29) 
-8.8800000000000008

>  <m_primary>  (29) 
energy

>  <rmsd>  (29) 
1.8386204131160415

>  <m_score__min__rmsd>  (29) 
1.8386204131160415

>  <meeko>  (29) 
{"free_energy": -8.47, "intermolecular_energy": -9.96, "internal_energy": -1.3, "cluster_size": 18, "cluster_id": 2, "rank_in_cluster": 10}

>  <energy>  (29) 
-8.57

>  <cluster_rmsd>  (29) 
0.49

>  <cluster>  (29) 
2

$$$$

     RDKit          3D

 48 51  0  0  0  0  0  0  0  0999 V2000
  140.9120   71.9000  221.2200 O   0  0  0  0  0  0  0  0  0  0  0  0
  140.1490   72.2030  222.1830 C   0  0  0  0  0  0  0  0  0  0  0  0
  139.3140   73.3560  222.1730 N   0  0  0  0  0  0  0  0  0  0  0  0
  139.3540   74.2140  220.9850 C   0  0  0  0  0  0  0  0  0  0  0  0
  140.3570   75.2760  221.1290 C   0  0  0  0  0  0  0  0  0  0  0  0
  140.6440   75.6020  222.3430 O   0  0  0  0  0  0  0  0  0  0  0  0
  141.0430   75.9810  220.1360 N   0  0  0  0  0  0  0  0  0  0  0  0
  140.5580   77.3660  219.7830 C   0  0  0  0  0  0  0  0  0  0  0  0
  141.7910   78.1200  219.3750 C   0  0  1  0  0  0  0  0  0  0  0  0
  141.9830   79.2760  220.0980 F   0  0  0  0  0  0  0  0  0  0  0  0
  142.9320   77.1220  219.6240 C   0  0  0  0  0  0  0  0  0  0  0  0
  142.1630   75.8260  219.2930 C   0  0  1  0  0  0  0  0  0  0  0  0
  143.0180   74.6630  219.3890 C   0  0  0  0  0  0  0  0  0  0  0  0
  143.8550   74.3250  220.4100 C   0  0  0  0  0  0  0  0  0  0  0  0
  144.6570   73.1990  220.4240 C   0  0  0  0  0  0  0  0  0  0  0  0
  144.6340   72.3350  219.3510 C   0  0  0  0  0  0  0  0  0  0  0  0
  145.6220   70.8920  219.3020 Cl  0  0  0  0  0  0  0  0  0  0  0  0
  143.8000   72.6390  218.2950 C   0  0  0  0  0  0  0  0  0  0  0  0
  143.0090   73.7670  218.2990 C   0  0  0  0  0  0  0  0  0  0  0  0
  140.1080   71.3380  223.3800 C   0  0  0  0  0  0  0  0  0  0  0  0
  139.5720   70.0650  223.2940 C   0  0  0  0  0  0  0  0  0  0  0  0
  139.5270   69.2390  224.4160 C   0  0  0  0  0  0  0  0  0  0  0  0
  140.0180   69.6850  225.6180 C   0  0  0  0  0  0  0  0  0  0  0  0
  140.0000   68.9160  226.7590 C   0  0  0  0  0  0  0  0  0  0  0  0
  140.5130   69.4360  227.9320 C   0  0  0  0  0  0  0  0  0  0  0  0
  140.5230   68.7210  229.0940 F   0  0  0  0  0  0  0  0  0  0  0  0
  141.0490   70.7180  228.0030 C   0  0  0  0  0  0  0  0  0  0  0  0
  141.0440   71.4540  226.8340 C   0  0  0  0  0  0  0  0  0  0  0  0
  140.5410   70.9670  225.6440 C   0  0  0  0  0  0  0  0  0  0  0  0
  140.5830   71.7570  224.5660 N   0  0  0  0  0  0  0  0  0  0  0  0
  138.6930   73.5740  222.9920 H   0  0  0  0  0  0  0  0  0  0  0  0
  139.6054   73.6000  220.1076 H   0  0  0  0  0  0  0  0  0  0  0  0
  138.3666   74.6828  220.8613 H   0  0  0  0  0  0  0  0  0  0  0  0
  139.8388   77.3232  218.9518 H   0  0  0  0  0  0  0  0  0  0  0  0
  140.0396   77.8482  220.6249 H   0  0  0  0  0  0  0  0  0  0  0  0
  141.7244   78.4599  218.3310 H   0  0  0  0  0  0  0  0  0  0  0  0
  143.7832   77.2855  218.9467 H   0  0  0  0  0  0  0  0  0  0  0  0
  143.4003   77.1638  220.6184 H   0  0  0  0  0  0  0  0  0  0  0  0
  141.8168   75.6549  218.2630 H   0  0  0  0  0  0  0  0  0  0  0  0
  143.8952   74.9937  221.2825 H   0  0  0  0  0  0  0  0  0  0  0  0
  145.3090   72.9943  221.2859 H   0  0  0  0  0  0  0  0  0  0  0  0
  143.7657   71.9635  217.4275 H   0  0  0  0  0  0  0  0  0  0  0  0
  142.3583   73.9730  217.4364 H   0  0  0  0  0  0  0  0  0  0  0  0
  139.1785   69.7022  222.3330 H   0  0  0  0  0  0  0  0  0  0  0  0
  139.0978   68.2292  224.3382 H   0  0  0  0  0  0  0  0  0  0  0  0
  139.5819   67.8988  226.7376 H   0  0  0  0  0  0  0  0  0  0  0  0
  141.4555   71.1242  228.9410 H   0  0  0  0  0  0  0  0  0  0  0  0
  141.4589   72.4726  226.8520 H   0  0  0  0  0  0  0  0  0  0  0  0
  1  2  2  0
  2  3  1  0
  3  4  1  0
  4  5  1  0
  5  6  2  0
  5  7  1  0
  7  8  1  0
  8  9  1  0
  9 10  1  0
  9 11  1  0
 11 12  1  0
 12 13  1  0
 13 14  2  0
 14 15  1  0
 15 16  2  0
 16 17  1  0
 16 18  1  0
 18 19  2  0
  2 20  1  0
 20 21  2  0
 21 22  1  0
 22 23  2  0
 23 24  1  0
 24 25  2  0
 25 26  1  0
 25 27  1  0
 27 28  2  0
 28 29  1  0
 29 30  2  0
 12  7  1  0
 19 13  1  0
 30 20  1  0
 29 23  1  0
  3 31  1  0
  4 32  1  0
  4 33  1  0
  8 34  1  0
  8 35  1  0
  9 36  1  6
 11 37  1  0
 11 38  1  0
 12 39  1  6
 14 40  1  0
 15 41  1  0
 18 42  1  0
 19 43  1  0
 21 44  1  0
 22 45  1  0
 24 46  1  0
 27 47  1  0
 28 48  1  0
M  END
>  <smiles>  (30) 
O=C(NCC(=O)N1C[C@@H](F)C[C@H]1c1ccc(Cl)cc1)c1ccc2cc(F)ccc2n1

>  <score_type>  (30) 
oracle

>  <origin>  (30) 
autodockgpu

>  <m_score__min__energy>  (30) 
-8.8800000000000008

>  <m_primary>  (30) 
energy

>  <rmsd>  (30) 
1.915698662453509

>  <m_score__min__rmsd>  (30) 
1.915698662453509

>  <meeko>  (30) 
{"free_energy": -7.94, "intermolecular_energy": -9.43, "internal_energy": -1.65, "cluster_size": 6, "cluster_id": 3, "rank_in_cluster": 5}

>  <energy>  (30) 
-8.53

>  <cluster_rmsd>  (30) 
0.4

>  <cluster>  (30) 
2

$$$$

     RDKit          3D

 48 51  0  0  0  0  0  0  0  0999 V2000
  138.3570   71.0940  221.8390 O   0  0  0  0  0  0  0  0  0  0  0  0
  139.2300   71.4060  222.7010 C   0  0  0  0  0  0  0  0  0  0  0  0
  140.0500   72.5640  222.5840 N   0  0  0  0  0  0  0  0  0  0  0  0
  139.8570   73.4190  221.4090 C   0  0  0  0  0  0  0  0  0  0  0  0
  139.8620   74.8400  221.7770 C   0  0  0  0  0  0  0  0  0  0  0  0
  140.9590   75.2690  222.3010 O   0  0  0  0  0  0  0  0  0  0  0  0
  138.8480   75.7910  221.6370 N   0  0  0  0  0  0  0  0  0  0  0  0
  137.4570   75.3050  221.3060 C   0  0  0  0  0  0  0  0  0  0  0  0
  136.5330   76.2890  221.9630 C   0  0  1  0  0  0  0  0  0  0  0  0
  135.6340   75.6970  222.8230 F   0  0  0  0  0  0  0  0  0  0  0  0
  137.4780   77.2320  222.7230 C   0  0  0  0  0  0  0  0  0  0  0  0
  138.6660   77.1860  221.7410 C   0  0  1  0  0  0  0  0  0  0  0  0
  139.7430   78.0520  222.1690 C   0  0  0  0  0  0  0  0  0  0  0  0
  140.9860   78.1700  221.6230 C   0  0  0  0  0  0  0  0  0  0  0  0
  141.9730   79.0120  222.1000 C   0  0  0  0  0  0  0  0  0  0  0  0
  141.7190   79.8030  223.1990 C   0  0  0  0  0  0  0  0  0  0  0  0
  142.9220   80.8920  223.8560 Cl  0  0  0  0  0  0  0  0  0  0  0  0
  140.4730   79.7160  223.7830 C   0  0  0  0  0  0  0  0  0  0  0  0
  139.5020   78.8690  223.2940 C   0  0  0  0  0  0  0  0  0  0  0  0
  139.4240   70.5460  223.8860 C   0  0  0  0  0  0  0  0  0  0  0  0
  138.9850   69.2330  223.8660 C   0  0  0  0  0  0  0  0  0  0  0  0
  139.1620   68.4110  224.9780 C   0  0  0  0  0  0  0  0  0  0  0  0
  139.7770   68.9000  226.1030 C   0  0  0  0  0  0  0  0  0  0  0  0
  139.9790   68.1360  227.2300 C   0  0  0  0  0  0  0  0  0  0  0  0
  140.6060   68.7010  228.3240 C   0  0  0  0  0  0  0  0  0  0  0  0
  140.8350   67.9940  229.4690 F   0  0  0  0  0  0  0  0  0  0  0  0
  141.0440   70.0220  228.3300 C   0  0  0  0  0  0  0  0  0  0  0  0
  140.8180   70.7500  227.1780 C   0  0  0  0  0  0  0  0  0  0  0  0
  140.1960   70.2190  226.0650 C   0  0  0  0  0  0  0  0  0  0  0  0
  140.0250   71.0060  224.9970 N   0  0  0  0  0  0  0  0  0  0  0  0
  140.7640   72.7900  223.3210 H   0  0  0  0  0  0  0  0  0  0  0  0
  140.6699   73.2316  220.6920 H   0  0  0  0  0  0  0  0  0  0  0  0
  138.8809   73.1795  220.9618 H   0  0  0  0  0  0  0  0  0  0  0  0
  137.3001   75.2952  220.2173 H   0  0  0  0  0  0  0  0  0  0  0  0
  137.2841   74.2777  221.6592 H   0  0  0  0  0  0  0  0  0  0  0  0
  135.9035   76.8022  221.2212 H   0  0  0  0  0  0  0  0  0  0  0  0
  137.0615   78.2450  222.8255 H   0  0  0  0  0  0  0  0  0  0  0  0
  137.7018   76.9543  223.7636 H   0  0  0  0  0  0  0  0  0  0  0  0
  138.5451   77.6091  220.7328 H   0  0  0  0  0  0  0  0  0  0  0  0
  141.2198   77.5532  220.7427 H   0  0  0  0  0  0  0  0  0  0  0  0
  142.9548   79.0502  221.6054 H   0  0  0  0  0  0  0  0  0  0  0  0
  140.2482   80.3385  224.6616 H   0  0  0  0  0  0  0  0  0  0  0  0
  138.5209   78.8291  223.7899 H   0  0  0  0  0  0  0  0  0  0  0  0
  138.4929   68.8355  222.9661 H   0  0  0  0  0  0  0  0  0  0  0  0
  138.8084   67.3697  224.9536 H   0  0  0  0  0  0  0  0  0  0  0  0
  139.6453   67.0883  227.2593 H   0  0  0  0  0  0  0  0  0  0  0  0
  141.5435   70.4628  229.2053 H   0  0  0  0  0  0  0  0  0  0  0  0
  141.1479   71.7989  227.1456 H   0  0  0  0  0  0  0  0  0  0  0  0
  1  2  2  0
  2  3  1  0
  3  4  1  0
  4  5  1  0
  5  6  2  0
  5  7  1  0
  7  8  1  0
  8  9  1  0
  9 10  1  0
  9 11  1  0
 11 12  1  0
 12 13  1  0
 13 14  2  0
 14 15  1  0
 15 16  2  0
 16 17  1  0
 16 18  1  0
 18 19  2  0
  2 20  1  0
 20 21  2  0
 21 22  1  0
 22 23  2  0
 23 24  1  0
 24 25  2  0
 25 26  1  0
 25 27  1  0
 27 28  2  0
 28 29  1  0
 29 30  2  0
 12  7  1  0
 19 13  1  0
 30 20  1  0
 29 23  1  0
  3 31  1  0
  4 32  1  0
  4 33  1  0
  8 34  1  0
  8 35  1  0
  9 36  1  6
 11 37  1  0
 11 38  1  0
 12 39  1  6
 14 40  1  0
 15 41  1  0
 18 42  1  0
 19 43  1  0
 21 44  1  0
 22 45  1  0
 24 46  1  0
 27 47  1  0
 28 48  1  0
M  END
>  <smiles>  (31) 
O=C(NCC(=O)N1C[C@@H](F)C[C@H]1c1ccc(Cl)cc1)c1ccc2cc(F)ccc2n1

>  <score_type>  (31) 
oracle

>  <origin>  (31) 
autodockgpu

>  <m_score__min__energy>  (31) 
-8.8800000000000008

>  <m_primary>  (31) 
energy

>  <rmsd>  (31) 
2.6919899959727718

>  <m_score__min__rmsd>  (31) 
2.6919899959727718

>  <meeko>  (31) 
{"free_energy": -8.46, "intermolecular_energy": -9.95, "internal_energy": -1.54, "cluster_size": 22, "cluster_id": 1, "rank_in_cluster": 10}

>  <energy>  (31) 
-8.51

>  <cluster_rmsd>  (31) 
0.46

>  <cluster>  (31) 
2

$$$$

     RDKit          3D

 48 51  0  0  0  0  0  0  0  0999 V2000
  141.2800   71.5710  221.3480 O   0  0  0  0  0  0  0  0  0  0  0  0
  140.6160   72.0310  222.3220 C   0  0  0  0  0  0  0  0  0  0  0  0
  140.1050   73.3600  222.3490 N   0  0  0  0  0  0  0  0  0  0  0  0
  140.3700   74.2140  221.1870 C   0  0  0  0  0  0  0  0  0  0  0  0
  140.4860   75.6250  221.5790 C   0  0  0  0  0  0  0  0  0  0  0  0
  139.8210   75.9600  222.6310 O   0  0  0  0  0  0  0  0  0  0  0  0
  141.2140   76.6510  220.9720 N   0  0  0  0  0  0  0  0  0  0  0  0
  142.2410   76.2770  219.9320 C   0  0  0  0  0  0  0  0  0  0  0  0
  142.2610   77.4290  218.9700 C   0  0  1  0  0  0  0  0  0  0  0  0
  142.0240   77.0500  217.6670 F   0  0  0  0  0  0  0  0  0  0  0  0
  141.1490   78.3560  219.4820 C   0  0  0  0  0  0  0  0  0  0  0  0
  141.2960   78.0600  220.9880 C   0  0  1  0  0  0  0  0  0  0  0  0
  140.3810   78.8550  221.7770 C   0  0  0  0  0  0  0  0  0  0  0  0
  139.3030   79.5660  221.3400 C   0  0  0  0  0  0  0  0  0  0  0  0
  138.4800   80.3190  222.1560 C   0  0  0  0  0  0  0  0  0  0  0  0
  138.7320   80.3760  223.5090 C   0  0  0  0  0  0  0  0  0  0  0  0
  137.7300   81.3080  224.6000 Cl  0  0  0  0  0  0  0  0  0  0  0  0
  139.8120   79.6700  223.9950 C   0  0  0  0  0  0  0  0  0  0  0  0
  140.6230   78.9250  223.1650 C   0  0  0  0  0  0  0  0  0  0  0  0
  140.3470   71.1700  223.4920 C   0  0  0  0  0  0  0  0  0  0  0  0
  139.6190   70.0030  223.3390 C   0  0  0  0  0  0  0  0  0  0  0  0
  139.3590   69.1830  224.4360 C   0  0  0  0  0  0  0  0  0  0  0  0
  139.8270   69.5280  225.6790 C   0  0  0  0  0  0  0  0  0  0  0  0
  139.6020   68.7580  226.7980 C   0  0  0  0  0  0  0  0  0  0  0  0
  140.1060   69.1740  228.0150 C   0  0  0  0  0  0  0  0  0  0  0  0
  139.9150   68.4530  229.1580 F   0  0  0  0  0  0  0  0  0  0  0  0
  140.8370   70.3490  228.1540 C   0  0  0  0  0  0  0  0  0  0  0  0
  141.0370   71.0900  227.0050 C   0  0  0  0  0  0  0  0  0  0  0  0
  140.5490   70.7060  225.7710 C   0  0  0  0  0  0  0  0  0  0  0  0
  140.7970   71.4910  224.7180 N   0  0  0  0  0  0  0  0  0  0  0  0
  139.5570   73.7060  223.1760 H   0  0  0  0  0  0  0  0  0  0  0  0
  141.3105   73.8946  220.7142 H   0  0  0  0  0  0  0  0  0  0  0  0
  139.5294   74.1161  220.4843 H   0  0  0  0  0  0  0  0  0  0  0  0
  143.2295   76.1440  220.3958 H   0  0  0  0  0  0  0  0  0  0  0  0
  141.9956   75.3278  219.4332 H   0  0  0  0  0  0  0  0  0  0  0  0
  143.2513   77.9069  218.9390 H   0  0  0  0  0  0  0  0  0  0  0  0
  141.3450   79.4120  219.2442 H   0  0  0  0  0  0  0  0  0  0  0  0
  140.1492   78.1913  219.0539 H   0  0  0  0  0  0  0  0  0  0  0  0
  142.2180   78.3609  221.5071 H   0  0  0  0  0  0  0  0  0  0  0  0
  139.0725   79.5385  220.2648 H   0  0  0  0  0  0  0  0  0  0  0  0
  137.6292   80.8692  221.7277 H   0  0  0  0  0  0  0  0  0  0  0  0
  140.0323   79.7018  225.0722 H   0  0  0  0  0  0  0  0  0  0  0  0
  141.4742   78.3753  223.5931 H   0  0  0  0  0  0  0  0  0  0  0  0
  139.2428   69.7204  222.3447 H   0  0  0  0  0  0  0  0  0  0  0  0
  138.7779   68.2582  224.3051 H   0  0  0  0  0  0  0  0  0  0  0  0
  139.0278   67.8227  226.7238 H   0  0  0  0  0  0  0  0  0  0  0  0
  141.2350   70.6715  229.1275 H   0  0  0  0  0  0  0  0  0  0  0  0
  141.6097   72.0264  227.0760 H   0  0  0  0  0  0  0  0  0  0  0  0
  1  2  2  0
  2  3  1  0
  3  4  1  0
  4  5  1  0
  5  6  2  0
  5  7  1  0
  7  8  1  0
  8  9  1  0
  9 10  1  0
  9 11  1  0
 11 12  1  0
 12 13  1  0
 13 14  2  0
 14 15  1  0
 15 16  2  0
 16 17  1  0
 16 18  1  0
 18 19  2  0
  2 20  1  0
 20 21  2  0
 21 22  1  0
 22 23  2  0
 23 24  1  0
 24 25  2  0
 25 26  1  0
 25 27  1  0
 27 28  2  0
 28 29  1  0
 29 30  2  0
 12  7  1  0
 19 13  1  0
 30 20  1  0
 29 23  1  0
  3 31  1  0
  4 32  1  0
  4 33  1  0
  8 34  1  0
  8 35  1  0
  9 36  1  6
 11 37  1  0
 11 38  1  0
 12 39  1  1
 14 40  1  0
 15 41  1  0
 18 42  1  0
 19 43  1  0
 21 44  1  0
 22 45  1  0
 24 46  1  0
 27 47  1  0
 28 48  1  0
M  END
>  <smiles>  (32) 
O=C(NCC(=O)N1C[C@@H](F)C[C@H]1c1ccc(Cl)cc1)c1ccc2cc(F)ccc2n1

>  <score_type>  (32) 
oracle

>  <origin>  (32) 
autodockgpu

>  <m_score__min__energy>  (32) 
-8.8800000000000008

>  <m_primary>  (32) 
energy

>  <rmsd>  (32) 
2.0306359965779692

>  <m_score__min__rmsd>  (32) 
2.0306359965779692

>  <meeko>  (32) 
{"free_energy": -8.26, "intermolecular_energy": -9.75, "internal_energy": -1.64, "cluster_size": 18, "cluster_id": 2, "rank_in_cluster": 17}

>  <energy>  (32) 
-8.47

>  <cluster_rmsd>  (32) 
1.43

>  <cluster>  (32) 
2

$$$$

     RDKit          3D

 48 51  0  0  0  0  0  0  0  0999 V2000
  138.9330   70.9900  221.2330 O   0  0  0  0  0  0  0  0  0  0  0  0
  139.2430   71.5220  222.3390 C   0  0  0  0  0  0  0  0  0  0  0  0
  139.4130   72.9260  222.4990 N   0  0  0  0  0  0  0  0  0  0  0  0
  139.2150   73.7740  221.3200 C   0  0  0  0  0  0  0  0  0  0  0  0
  139.1920   75.1970  221.6830 C   0  0  0  0  0  0  0  0  0  0  0  0
  139.8920   75.5110  222.7190 O   0  0  0  0  0  0  0  0  0  0  0  0
  138.5210   76.2540  221.0650 N   0  0  0  0  0  0  0  0  0  0  0  0
  137.2170   75.9580  220.3650 C   0  0  0  0  0  0  0  0  0  0  0  0
  136.4010   77.2100  220.5110 C   0  0  1  0  0  0  0  0  0  0  0  0
  135.1750   76.9910  221.0980 F   0  0  0  0  0  0  0  0  0  0  0  0
  137.2750   78.1180  221.3890 C   0  0  0  0  0  0  0  0  0  0  0  0
  138.6540   77.6470  220.8830 C   0  0  1  0  0  0  0  0  0  0  0  0
  139.7290   78.3850  221.5100 C   0  0  0  0  0  0  0  0  0  0  0  0
  140.8920   78.8100  220.9400 C   0  0  0  0  0  0  0  0  0  0  0  0
  141.8850   79.5000  221.6100 C   0  0  0  0  0  0  0  0  0  0  0  0
  141.7220   79.7990  222.9450 C   0  0  0  0  0  0  0  0  0  0  0  0
  142.9380   80.6690  223.8550 Cl  0  0  0  0  0  0  0  0  0  0  0  0
  140.5590   79.3880  223.5620 C   0  0  0  0  0  0  0  0  0  0  0  0
  139.5810   78.7000  222.8770 C   0  0  0  0  0  0  0  0  0  0  0  0
  139.4420   70.6680  223.5280 C   0  0  0  0  0  0  0  0  0  0  0  0
  139.0090   69.3540  223.5140 C   0  0  0  0  0  0  0  0  0  0  0  0
  139.1910   68.5380  224.6300 C   0  0  0  0  0  0  0  0  0  0  0  0
  139.8050   69.0350  225.7520 C   0  0  0  0  0  0  0  0  0  0  0  0
  140.0120   68.2770  226.8830 C   0  0  0  0  0  0  0  0  0  0  0  0
  140.6380   68.8500  227.9740 C   0  0  0  0  0  0  0  0  0  0  0  0
  140.8700   68.1490  229.1210 F   0  0  0  0  0  0  0  0  0  0  0  0
  141.0690   70.1730  227.9720 C   0  0  0  0  0  0  0  0  0  0  0  0
  140.8390   70.8940  226.8170 C   0  0  0  0  0  0  0  0  0  0  0  0
  140.2170   70.3560  225.7080 C   0  0  0  0  0  0  0  0  0  0  0  0
  140.0420   71.1360  224.6360 N   0  0  0  0  0  0  0  0  0  0  0  0
  139.6710   73.3310  223.4340 H   0  0  0  0  0  0  0  0  0  0  0  0
  140.0371   73.5986  220.6105 H   0  0  0  0  0  0  0  0  0  0  0  0
  138.2468   73.5162  220.8659 H   0  0  0  0  0  0  0  0  0  0  0  0
  137.3916   75.7327  219.3026 H   0  0  0  0  0  0  0  0  0  0  0  0
  136.7084   75.0824  220.7946 H   0  0  0  0  0  0  0  0  0  0  0  0
  136.1595   77.6471  219.5309 H   0  0  0  0  0  0  0  0  0  0  0  0
  137.1000   79.1852  221.1878 H   0  0  0  0  0  0  0  0  0  0  0  0
  137.1088   78.0441  222.4739 H   0  0  0  0  0  0  0  0  0  0  0  0
  138.9412   77.8481  219.8404 H   0  0  0  0  0  0  0  0  0  0  0  0
  141.0512   78.5888  219.8743 H   0  0  0  0  0  0  0  0  0  0  0  0
  142.7989   79.8082  221.0810 H   0  0  0  0  0  0  0  0  0  0  0  0
  140.4083   79.6151  224.6277 H   0  0  0  0  0  0  0  0  0  0  0  0
  138.6676   78.3906  223.4062 H   0  0  0  0  0  0  0  0  0  0  0  0
  138.5178   68.9503  222.6164 H   0  0  0  0  0  0  0  0  0  0  0  0
  138.8421   67.4950  224.6109 H   0  0  0  0  0  0  0  0  0  0  0  0
  139.6830   67.2279  226.9177 H   0  0  0  0  0  0  0  0  0  0  0  0
  141.5668   70.6210  228.8446 H   0  0  0  0  0  0  0  0  0  0  0  0
  141.1659   71.9436  226.7788 H   0  0  0  0  0  0  0  0  0  0  0  0
  1  2  2  0
  2  3  1  0
  3  4  1  0
  4  5  1  0
  5  6  2  0
  5  7  1  0
  7  8  1  0
  8  9  1  0
  9 10  1  0
  9 11  1  0
 11 12  1  0
 12 13  1  0
 13 14  2  0
 14 15  1  0
 15 16  2  0
 16 17  1  0
 16 18  1  0
 18 19  2  0
  2 20  1  0
 20 21  2  0
 21 22  1  0
 22 23  2  0
 23 24  1  0
 24 25  2  0
 25 26  1  0
 25 27  1  0
 27 28  2  0
 28 29  1  0
 29 30  2  0
 12  7  1  0
 19 13  1  0
 30 20  1  0
 29 23  1  0
  3 31  1  0
  4 32  1  0
  4 33  1  0
  8 34  1  0
  8 35  1  0
  9 36  1  6
 11 37  1  0
 11 38  1  0
 12 39  1  6
 14 40  1  0
 15 41  1  0
 18 42  1  0
 19 43  1  0
 21 44  1  0
 22 45  1  0
 24 46  1  0
 27 47  1  0
 28 48  1  0
M  END
>  <smiles>  (33) 
O=C(NCC(=O)N1C[C@@H](F)C[C@H]1c1ccc(Cl)cc1)c1ccc2cc(F)ccc2n1

>  <score_type>  (33) 
oracle

>  <origin>  (33) 
autodockgpu

>  <m_score__min__energy>  (33) 
-8.8800000000000008

>  <m_primary>  (33) 
energy

>  <rmsd>  (33) 
2.276583736384599

>  <m_score__min__rmsd>  (33) 
2.276583736384599

>  <meeko>  (33) 
{"free_energy": -8.06, "intermolecular_energy": -9.55, "internal_energy": -1.89, "cluster_size": 22, "cluster_id": 1, "rank_in_cluster": 19}

>  <energy>  (33) 
-8.45

>  <cluster_rmsd>  (33) 
1.5

>  <cluster>  (33) 
2

$$$$

     RDKit          3D

 48 51  0  0  0  0  0  0  0  0999 V2000
  138.3750   70.7230  221.6830 O   0  0  0  0  0  0  0  0  0  0  0  0
  138.9600   71.2420  222.6780 C   0  0  0  0  0  0  0  0  0  0  0  0
  139.3420   72.6130  222.7180 N   0  0  0  0  0  0  0  0  0  0  0  0
  139.0340   73.4400  221.5480 C   0  0  0  0  0  0  0  0  0  0  0  0
  139.2230   74.8670  221.8390 C   0  0  0  0  0  0  0  0  0  0  0  0
  140.3790   75.1830  222.3130 O   0  0  0  0  0  0  0  0  0  0  0  0
  138.3280   75.9270  221.6730 N   0  0  0  0  0  0  0  0  0  0  0  0
  136.8940   75.6020  221.3330 C   0  0  0  0  0  0  0  0  0  0  0  0
  136.0850   76.6980  221.9640 C   0  0  1  0  0  0  0  0  0  0  0  0
  135.1150   76.2300  222.8220 F   0  0  0  0  0  0  0  0  0  0  0  0
  137.1260   77.5360  222.7200 C   0  0  0  0  0  0  0  0  0  0  0  0
  138.3110   77.3360  221.7520 C   0  0  1  0  0  0  0  0  0  0  0  0
  139.4770   78.0770  222.1800 C   0  0  0  0  0  0  0  0  0  0  0  0
  140.7370   78.0210  221.6620 C   0  0  0  0  0  0  0  0  0  0  0  0
  141.8100   78.7520  222.1370 C   0  0  0  0  0  0  0  0  0  0  0  0
  141.6320   79.6070  223.2030 C   0  0  0  0  0  0  0  0  0  0  0  0
  142.9460   80.5610  223.8540 Cl  0  0  0  0  0  0  0  0  0  0  0  0
  140.3730   79.6950  223.7570 C   0  0  0  0  0  0  0  0  0  0  0  0
  139.3150   78.9580  223.2700 C   0  0  0  0  0  0  0  0  0  0  0  0
  139.2700   70.4090  223.8570 C   0  0  0  0  0  0  0  0  0  0  0  0
  138.9500   69.0630  223.8560 C   0  0  0  0  0  0  0  0  0  0  0  0
  139.2370   68.2660  224.9630 C   0  0  0  0  0  0  0  0  0  0  0  0
  139.8430   68.8140  226.0650 C   0  0  0  0  0  0  0  0  0  0  0  0
  140.1510   68.0780  227.1870 C   0  0  0  0  0  0  0  0  0  0  0  0
  140.7620   68.7020  228.2580 C   0  0  0  0  0  0  0  0  0  0  0  0
  141.0910   68.0250  229.3950 F   0  0  0  0  0  0  0  0  0  0  0  0
  141.0790   70.0570  228.2440 C   0  0  0  0  0  0  0  0  0  0  0  0
  140.7510   70.7560  227.0990 C   0  0  0  0  0  0  0  0  0  0  0  0
  140.1410   70.1650  226.0100 C   0  0  0  0  0  0  0  0  0  0  0  0
  139.8640   70.9280  224.9460 N   0  0  0  0  0  0  0  0  0  0  0  0
  139.8270   73.0090  223.5630 H   0  0  0  0  0  0  0  0  0  0  0  0
  139.6989   73.1519  220.7204 H   0  0  0  0  0  0  0  0  0  0  0  0
  137.9808   73.2776  221.2754 H   0  0  0  0  0  0  0  0  0  0  0  0
  136.7480   75.5928  220.2428 H   0  0  0  0  0  0  0  0  0  0  0  0
  136.5984   74.6079  221.6995 H   0  0  0  0  0  0  0  0  0  0  0  0
  135.5270   77.2687  221.2071 H   0  0  0  0  0  0  0  0  0  0  0  0
  136.8297   78.5921  222.8026 H   0  0  0  0  0  0  0  0  0  0  0  0
  137.3058   77.2506  223.7670 H   0  0  0  0  0  0  0  0  0  0  0  0
  138.2521   77.7535  220.7360 H   0  0  0  0  0  0  0  0  0  0  0  0
  140.9115   77.3490  220.8088 H   0  0  0  0  0  0  0  0  0  0  0  0
  142.7995   78.6518  221.6670 H   0  0  0  0  0  0  0  0  0  0  0  0
  140.2084   80.3705  224.6094 H   0  0  0  0  0  0  0  0  0  0  0  0
  138.3256   79.0586  223.7401 H   0  0  0  0  0  0  0  0  0  0  0  0
  138.4652   68.6182  222.9745 H   0  0  0  0  0  0  0  0  0  0  0  0
  138.9774   67.1971  224.9529 H   0  0  0  0  0  0  0  0  0  0  0  0
  139.9133   67.0049  227.2305 H   0  0  0  0  0  0  0  0  0  0  0  0
  141.5657   70.5460  229.1007 H   0  0  0  0  0  0  0  0  0  0  0  0
  140.9857   71.8297  227.0524 H   0  0  0  0  0  0  0  0  0  0  0  0
  1  2  2  0
  2  3  1  0
  3  4  1  0
  4  5  1  0
  5  6  2  0
  5  7  1  0
  7  8  1  0
  8  9  1  0
  9 10  1  0
  9 11  1  0
 11 12  1  0
 12 13  1  0
 13 14  2  0
 14 15  1  0
 15 16  2  0
 16 17  1  0
 16 18  1  0
 18 19  2  0
  2 20  1  0
 20 21  2  0
 21 22  1  0
 22 23  2  0
 23 24  1  0
 24 25  2  0
 25 26  1  0
 25 27  1  0
 27 28  2  0
 28 29  1  0
 29 30  2  0
 12  7  1  0
 19 13  1  0
 30 20  1  0
 29 23  1  0
  3 31  1  0
  4 32  1  0
  4 33  1  0
  8 34  1  0
  8 35  1  0
  9 36  1  6
 11 37  1  0
 11 38  1  0
 12 39  1  6
 14 40  1  0
 15 41  1  0
 18 42  1  0
 19 43  1  0
 21 44  1  0
 22 45  1  0
 24 46  1  0
 27 47  1  0
 28 48  1  0
M  END
>  <smiles>  (34) 
O=C(NCC(=O)N1C[C@@H](F)C[C@H]1c1ccc(Cl)cc1)c1ccc2cc(F)ccc2n1

>  <score_type>  (34) 
oracle

>  <origin>  (34) 
autodockgpu

>  <m_score__min__energy>  (34) 
-8.8800000000000008

>  <m_primary>  (34) 
energy

>  <rmsd>  (34) 
2.778196245769558

>  <m_score__min__rmsd>  (34) 
2.778196245769558

>  <meeko>  (34) 
{"free_energy": -8.71, "intermolecular_energy": -10.2, "internal_energy": -1.59, "cluster_size": 22, "cluster_id": 1, "rank_in_cluster": 4}

>  <energy>  (34) 
-8.42

>  <cluster_rmsd>  (34) 
0.4

>  <cluster>  (34) 
2

$$$$

     RDKit          3D

 48 51  0  0  0  0  0  0  0  0999 V2000
  138.0460   70.8000  221.8710 O   0  0  0  0  0  0  0  0  0  0  0  0
  138.7890   71.2860  222.7730 C   0  0  0  0  0  0  0  0  0  0  0  0
  139.2830   72.6210  222.7290 N   0  0  0  0  0  0  0  0  0  0  0  0
  138.9010   73.4490  221.5810 C   0  0  0  0  0  0  0  0  0  0  0  0
  139.1190   74.8750  221.8570 C   0  0  0  0  0  0  0  0  0  0  0  0
  140.2830   75.1740  222.3250 O   0  0  0  0  0  0  0  0  0  0  0  0
  138.2440   75.9500  221.6840 N   0  0  0  0  0  0  0  0  0  0  0  0
  136.8040   75.6500  221.3470 C   0  0  0  0  0  0  0  0  0  0  0  0
  136.0160   76.7660  221.9700 C   0  0  1  0  0  0  0  0  0  0  0  0
  135.0380   76.3220  222.8320 F   0  0  0  0  0  0  0  0  0  0  0  0
  137.0730   77.5900  222.7190 C   0  0  0  0  0  0  0  0  0  0  0  0
  138.2530   77.3600  221.7520 C   0  0  1  0  0  0  0  0  0  0  0  0
  139.4330   78.0820  222.1740 C   0  0  0  0  0  0  0  0  0  0  0  0
  140.6890   78.0070  221.6490 C   0  0  0  0  0  0  0  0  0  0  0  0
  141.7770   78.7200  222.1180 C   0  0  0  0  0  0  0  0  0  0  0  0
  141.6180   79.5770  223.1850 C   0  0  0  0  0  0  0  0  0  0  0  0
  142.9510   80.5100  223.8290 Cl  0  0  0  0  0  0  0  0  0  0  0  0
  140.3640   79.6850  223.7460 C   0  0  0  0  0  0  0  0  0  0  0  0
  139.2910   78.9650  223.2650 C   0  0  0  0  0  0  0  0  0  0  0  0
  139.1730   70.4520  223.9290 C   0  0  0  0  0  0  0  0  0  0  0  0
  138.9380   69.0880  223.9060 C   0  0  0  0  0  0  0  0  0  0  0  0
  139.2950   68.2900  224.9910 C   0  0  0  0  0  0  0  0  0  0  0  0
  139.8860   68.8540  226.0940 C   0  0  0  0  0  0  0  0  0  0  0  0
  140.2600   68.1160  227.1950 C   0  0  0  0  0  0  0  0  0  0  0  0
  140.8500   68.7570  228.2680 C   0  0  0  0  0  0  0  0  0  0  0  0
  141.2420   68.0800  229.3850 F   0  0  0  0  0  0  0  0  0  0  0  0
  141.0810   70.1290  228.2770 C   0  0  0  0  0  0  0  0  0  0  0  0
  140.6880   70.8280  227.1520 C   0  0  0  0  0  0  0  0  0  0  0  0
  140.0970   70.2220  226.0620 C   0  0  0  0  0  0  0  0  0  0  0  0
  139.7530   70.9850  225.0190 N   0  0  0  0  0  0  0  0  0  0  0  0
  139.8970   72.9890  223.4970 H   0  0  0  0  0  0  0  0  0  0  0  0
  139.5059   73.1557  220.7103 H   0  0  0  0  0  0  0  0  0  0  0  0
  137.8307   73.2932  221.3807 H   0  0  0  0  0  0  0  0  0  0  0  0
  136.6574   75.6354  220.2569 H   0  0  0  0  0  0  0  0  0  0  0  0
  136.4897   74.6645  221.7213 H   0  0  0  0  0  0  0  0  0  0  0  0
  135.4684   77.3418  221.2093 H   0  0  0  0  0  0  0  0  0  0  0  0
  136.7968   78.6522  222.7935 H   0  0  0  0  0  0  0  0  0  0  0  0
  137.2481   77.3096  223.7681 H   0  0  0  0  0  0  0  0  0  0  0  0
  138.2007   77.7705  220.7328 H   0  0  0  0  0  0  0  0  0  0  0  0
  140.8477   77.3333  220.7940 H   0  0  0  0  0  0  0  0  0  0  0  0
  142.7622   78.6038  221.6427 H   0  0  0  0  0  0  0  0  0  0  0  0
  140.2152   80.3629  224.5994 H   0  0  0  0  0  0  0  0  0  0  0  0
  138.3060   79.0812  223.7408 H   0  0  0  0  0  0  0  0  0  0  0  0
  138.4657   68.6305  223.0242 H   0  0  0  0  0  0  0  0  0  0  0  0
  139.1031   67.2072  224.9636 H   0  0  0  0  0  0  0  0  0  0  0  0
  140.0911   67.0293  227.2201 H   0  0  0  0  0  0  0  0  0  0  0  0
  141.5519   70.6310  229.1350 H   0  0  0  0  0  0  0  0  0  0  0  0
  140.8534   71.9151  227.1238 H   0  0  0  0  0  0  0  0  0  0  0  0
  1  2  2  0
  2  3  1  0
  3  4  1  0
  4  5  1  0
  5  6  2  0
  5  7  1  0
  7  8  1  0
  8  9  1  0
  9 10  1  0
  9 11  1  0
 11 12  1  0
 12 13  1  0
 13 14  2  0
 14 15  1  0
 15 16  2  0
 16 17  1  0
 16 18  1  0
 18 19  2  0
  2 20  1  0
 20 21  2  0
 21 22  1  0
 22 23  2  0
 23 24  1  0
 24 25  2  0
 25 26  1  0
 25 27  1  0
 27 28  2  0
 28 29  1  0
 29 30  2  0
 12  7  1  0
 19 13  1  0
 30 20  1  0
 29 23  1  0
  3 31  1  0
  4 32  1  0
  4 33  1  0
  8 34  1  0
  8 35  1  0
  9 36  1  6
 11 37  1  0
 11 38  1  0
 12 39  1  6
 14 40  1  0
 15 41  1  0
 18 42  1  0
 19 43  1  0
 21 44  1  0
 22 45  1  0
 24 46  1  0
 27 47  1  0
 28 48  1  0
M  END
>  <smiles>  (35) 
O=C(NCC(=O)N1C[C@@H](F)C[C@H]1c1ccc(Cl)cc1)c1ccc2cc(F)ccc2n1

>  <score_type>  (35) 
oracle

>  <origin>  (35) 
autodockgpu

>  <m_score__min__energy>  (35) 
-8.8800000000000008

>  <m_primary>  (35) 
energy

>  <rmsd>  (35) 
2.8100701370120182

>  <m_score__min__rmsd>  (35) 
2.8100701370120182

>  <meeko>  (35) 
{"free_energy": -8.67, "intermolecular_energy": -10.16, "internal_energy": -1.63, "cluster_size": 22, "cluster_id": 1, "rank_in_cluster": 6}

>  <energy>  (35) 
-8.38

>  <cluster_rmsd>  (35) 
0.53

>  <cluster>  (35) 
2

$$$$

     RDKit          3D

 48 51  0  0  0  0  0  0  0  0999 V2000
  138.1640   70.7670  221.7670 O   0  0  0  0  0  0  0  0  0  0  0  0
  138.8380   71.2650  222.7160 C   0  0  0  0  0  0  0  0  0  0  0  0
  139.2830   72.6170  222.7200 N   0  0  0  0  0  0  0  0  0  0  0  0
  138.9350   73.4510  221.5660 C   0  0  0  0  0  0  0  0  0  0  0  0
  139.1430   74.8760  221.8560 C   0  0  0  0  0  0  0  0  0  0  0  0
  140.3000   75.1750  222.3410 O   0  0  0  0  0  0  0  0  0  0  0  0
  138.2670   75.9490  221.6790 N   0  0  0  0  0  0  0  0  0  0  0  0
  136.8290   75.6450  221.3360 C   0  0  0  0  0  0  0  0  0  0  0  0
  136.0350   76.7580  221.9560 C   0  0  1  0  0  0  0  0  0  0  0  0
  135.0540   76.3110  222.8120 F   0  0  0  0  0  0  0  0  0  0  0  0
  137.0860   77.5840  222.7110 C   0  0  0  0  0  0  0  0  0  0  0  0
  138.2710   77.3580  221.7500 C   0  0  1  0  0  0  0  0  0  0  0  0
  139.4480   78.0830  222.1780 C   0  0  0  0  0  0  0  0  0  0  0  0
  140.7060   78.0140  221.6560 C   0  0  0  0  0  0  0  0  0  0  0  0
  141.7890   78.7290  222.1310 C   0  0  0  0  0  0  0  0  0  0  0  0
  141.6250   79.5820  223.2010 C   0  0  0  0  0  0  0  0  0  0  0  0
  142.9520   80.5170  223.8540 Cl  0  0  0  0  0  0  0  0  0  0  0  0
  140.3680   79.6820  223.7590 C   0  0  0  0  0  0  0  0  0  0  0  0
  139.3000   78.9600  223.2720 C   0  0  0  0  0  0  0  0  0  0  0  0
  139.1890   70.4240  223.8790 C   0  0  0  0  0  0  0  0  0  0  0  0
  138.9000   69.0710  223.8650 C   0  0  0  0  0  0  0  0  0  0  0  0
  139.2260   68.2670  224.9570 C   0  0  0  0  0  0  0  0  0  0  0  0
  139.8390   68.8150  226.0550 C   0  0  0  0  0  0  0  0  0  0  0  0
  140.1850   68.0720  227.1610 C   0  0  0  0  0  0  0  0  0  0  0  0
  140.8000   68.6970  228.2290 C   0  0  0  0  0  0  0  0  0  0  0  0
  141.1650   68.0130  229.3520 F   0  0  0  0  0  0  0  0  0  0  0  0
  141.0850   70.0590  228.2280 C   0  0  0  0  0  0  0  0  0  0  0  0
  140.7200   70.7640  227.0980 C   0  0  0  0  0  0  0  0  0  0  0  0
  140.1040   70.1740  226.0120 C   0  0  0  0  0  0  0  0  0  0  0  0
  139.7900   70.9430  224.9640 N   0  0  0  0  0  0  0  0  0  0  0  0
  139.8410   72.9940  223.5260 H   0  0  0  0  0  0  0  0  0  0  0  0
  139.5661   73.1631  220.7123 H   0  0  0  0  0  0  0  0  0  0  0  0
  137.8713   73.2955  221.3330 H   0  0  0  0  0  0  0  0  0  0  0  0
  136.6870   75.6305  220.2453 H   0  0  0  0  0  0  0  0  0  0  0  0
  136.5162   74.6585  221.7088 H   0  0  0  0  0  0  0  0  0  0  0  0
  135.4897   77.3330  221.1931 H   0  0  0  0  0  0  0  0  0  0  0  0
  136.8067   78.6454  222.7851 H   0  0  0  0  0  0  0  0  0  0  0  0
  137.2566   77.3031  223.7608 H   0  0  0  0  0  0  0  0  0  0  0  0
  138.2215   77.7700  220.7313 H   0  0  0  0  0  0  0  0  0  0  0  0
  140.8697   77.3440  220.7991 H   0  0  0  0  0  0  0  0  0  0  0  0
  142.7759   78.6180  221.6580 H   0  0  0  0  0  0  0  0  0  0  0  0
  140.2138   80.3555  224.6150 H   0  0  0  0  0  0  0  0  0  0  0  0
  138.3134   79.0700  223.7458 H   0  0  0  0  0  0  0  0  0  0  0  0
  138.4097   68.6263  222.9865 H   0  0  0  0  0  0  0  0  0  0  0  0
  138.9913   67.1925  224.9378 H   0  0  0  0  0  0  0  0  0  0  0  0
  139.9743   66.9929  227.1942 H   0  0  0  0  0  0  0  0  0  0  0  0
  141.5753   70.5484  229.0824 H   0  0  0  0  0  0  0  0  0  0  0  0
  140.9292   71.8433  227.0614 H   0  0  0  0  0  0  0  0  0  0  0  0
  1  2  2  0
  2  3  1  0
  3  4  1  0
  4  5  1  0
  5  6  2  0
  5  7  1  0
  7  8  1  0
  8  9  1  0
  9 10  1  0
  9 11  1  0
 11 12  1  0
 12 13  1  0
 13 14  2  0
 14 15  1  0
 15 16  2  0
 16 17  1  0
 16 18  1  0
 18 19  2  0
  2 20  1  0
 20 21  2  0
 21 22  1  0
 22 23  2  0
 23 24  1  0
 24 25  2  0
 25 26  1  0
 25 27  1  0
 27 28  2  0
 28 29  1  0
 29 30  2  0
 12  7  1  0
 19 13  1  0
 30 20  1  0
 29 23  1  0
  3 31  1  0
  4 32  1  0
  4 33  1  0
  8 34  1  0
  8 35  1  0
  9 36  1  6
 11 37  1  0
 11 38  1  0
 12 39  1  6
 14 40  1  0
 15 41  1  0
 18 42  1  0
 19 43  1  0
 21 44  1  0
 22 45  1  0
 24 46  1  0
 27 47  1  0
 28 48  1  0
M  END
>  <smiles>  (36) 
O=C(NCC(=O)N1C[C@@H](F)C[C@H]1c1ccc(Cl)cc1)c1ccc2cc(F)ccc2n1

>  <score_type>  (36) 
oracle

>  <origin>  (36) 
autodockgpu

>  <m_score__min__energy>  (36) 
-8.8800000000000008

>  <m_primary>  (36) 
energy

>  <rmsd>  (36) 
2.7949689004198874

>  <m_score__min__rmsd>  (36) 
2.7949689004198874

>  <meeko>  (36) 
{"free_energy": -8.69, "intermolecular_energy": -10.18, "internal_energy": -1.63, "cluster_size": 22, "cluster_id": 1, "rank_in_cluster": 5}

>  <energy>  (36) 
-8.35

>  <cluster_rmsd>  (36) 
1.57

>  <cluster>  (36) 
2

$$$$

     RDKit          3D

 48 51  0  0  0  0  0  0  0  0999 V2000
  141.1720   71.5790  221.3340 O   0  0  0  0  0  0  0  0  0  0  0  0
  140.5340   72.0190  222.3340 C   0  0  0  0  0  0  0  0  0  0  0  0
  140.0370   73.3510  222.4070 N   0  0  0  0  0  0  0  0  0  0  0  0
  140.2850   74.2340  221.2630 C   0  0  0  0  0  0  0  0  0  0  0  0
  140.3260   75.6420  221.6760 C   0  0  0  0  0  0  0  0  0  0  0  0
  139.5830   75.9420  222.6860 O   0  0  0  0  0  0  0  0  0  0  0  0
  141.0580   76.7000  221.1290 N   0  0  0  0  0  0  0  0  0  0  0  0
  142.0800   76.3830  220.0650 C   0  0  0  0  0  0  0  0  0  0  0  0
  142.1030   77.5910  219.1730 C   0  0  1  0  0  0  0  0  0  0  0  0
  141.8590   77.2920  217.8510 F   0  0  0  0  0  0  0  0  0  0  0  0
  140.9970   78.4910  219.7440 C   0  0  0  0  0  0  0  0  0  0  0  0
  141.1470   78.1040  221.2290 C   0  0  1  0  0  0  0  0  0  0  0  0
  140.2380   78.8550  222.0670 C   0  0  0  0  0  0  0  0  0  0  0  0
  138.8750   78.8200  222.0600 C   0  0  0  0  0  0  0  0  0  0  0  0
  138.0700   79.5830  222.8850 C   0  0  0  0  0  0  0  0  0  0  0  0
  138.6470   80.4460  223.7910 C   0  0  0  0  0  0  0  0  0  0  0  0
  137.6870   81.4400  224.8650 Cl  0  0  0  0  0  0  0  0  0  0  0  0
  140.0240   80.5120  223.8320 C   0  0  0  0  0  0  0  0  0  0  0  0
  140.8110   79.7450  223.0010 C   0  0  0  0  0  0  0  0  0  0  0  0
  140.2840   71.1300  223.4870 C   0  0  0  0  0  0  0  0  0  0  0  0
  139.5430   69.9740  223.3190 C   0  0  0  0  0  0  0  0  0  0  0  0
  139.2990   69.1270  224.4000 C   0  0  0  0  0  0  0  0  0  0  0  0
  139.7970   69.4360  225.6410 C   0  0  0  0  0  0  0  0  0  0  0  0
  139.5890   68.6380  226.7440 C   0  0  0  0  0  0  0  0  0  0  0  0
  140.1230   69.0180  227.9610 C   0  0  0  0  0  0  0  0  0  0  0  0
  139.9510   68.2690  229.0880 F   0  0  0  0  0  0  0  0  0  0  0  0
  140.8670   70.1830  228.1140 C   0  0  0  0  0  0  0  0  0  0  0  0
  141.0480   70.9520  226.9810 C   0  0  0  0  0  0  0  0  0  0  0  0
  140.5310   70.6050  225.7490 C   0  0  0  0  0  0  0  0  0  0  0  0
  140.7630   71.4150  224.7110 N   0  0  0  0  0  0  0  0  0  0  0  0
  139.5110   73.6800  223.2560 H   0  0  0  0  0  0  0  0  0  0  0  0
  141.2491   73.9663  220.8059 H   0  0  0  0  0  0  0  0  0  0  0  0
  139.4642   74.1072  220.5418 H   0  0  0  0  0  0  0  0  0  0  0  0
  143.0692   76.2175  220.5167 H   0  0  0  0  0  0  0  0  0  0  0  0
  141.8282   75.4664  219.5114 H   0  0  0  0  0  0  0  0  0  0  0  0
  143.0957   78.0648  219.1667 H   0  0  0  0  0  0  0  0  0  0  0  0
  141.1976   79.5584  219.5697 H   0  0  0  0  0  0  0  0  0  0  0  0
  139.9951   78.3572  219.3101 H   0  0  0  0  0  0  0  0  0  0  0  0
  142.0721   78.3683  221.7623 H   0  0  0  0  0  0  0  0  0  0  0  0
  138.3829   78.1388  221.3502 H   0  0  0  0  0  0  0  0  0  0  0  0
  136.9750   79.5017  222.8186 H   0  0  0  0  0  0  0  0  0  0  0  0
  140.5065   81.1948  224.5468 H   0  0  0  0  0  0  0  0  0  0  0  0
  141.9059   79.8277  223.0665 H   0  0  0  0  0  0  0  0  0  0  0  0
  139.1434   69.7210  222.3259 H   0  0  0  0  0  0  0  0  0  0  0  0
  138.7071   68.2108  224.2578 H   0  0  0  0  0  0  0  0  0  0  0  0
  139.0052   67.7097  226.6576 H   0  0  0  0  0  0  0  0  0  0  0  0
  141.2892   70.4766  229.0864 H   0  0  0  0  0  0  0  0  0  0  0  0
  141.6297   71.8819  227.0641 H   0  0  0  0  0  0  0  0  0  0  0  0
  1  2  2  0
  2  3  1  0
  3  4  1  0
  4  5  1  0
  5  6  2  0
  5  7  1  0
  7  8  1  0
  8  9  1  0
  9 10  1  0
  9 11  1  0
 11 12  1  0
 12 13  1  0
 13 14  2  0
 14 15  1  0
 15 16  2  0
 16 17  1  0
 16 18  1  0
 18 19  2  0
  2 20  1  0
 20 21  2  0
 21 22  1  0
 22 23  2  0
 23 24  1  0
 24 25  2  0
 25 26  1  0
 25 27  1  0
 27 28  2  0
 28 29  1  0
 29 30  2  0
 12  7  1  0
 19 13  1  0
 30 20  1  0
 29 23  1  0
  3 31  1  0
  4 32  1  0
  4 33  1  0
  8 34  1  0
  8 35  1  0
  9 36  1  6
 11 37  1  0
 11 38  1  0
 12 39  1  1
 14 40  1  0
 15 41  1  0
 18 42  1  0
 19 43  1  0
 21 44  1  0
 22 45  1  0
 24 46  1  0
 27 47  1  0
 28 48  1  0
M  END
>  <smiles>  (37) 
O=C(NCC(=O)N1C[C@@H](F)C[C@H]1c1ccc(Cl)cc1)c1ccc2cc(F)ccc2n1

>  <score_type>  (37) 
oracle

>  <origin>  (37) 
autodockgpu

>  <m_score__min__energy>  (37) 
-8.8800000000000008

>  <m_primary>  (37) 
energy

>  <rmsd>  (37) 
2.0472794351917796

>  <m_score__min__rmsd>  (37) 
2.0472794351917796

>  <meeko>  (37) 
{"free_energy": -8.38, "intermolecular_energy": -9.87, "internal_energy": -1.61, "cluster_size": 18, "cluster_id": 2, "rank_in_cluster": 13}

>  <energy>  (37) 
-8.34

>  <cluster_rmsd>  (37) 
0.41

>  <cluster>  (37) 
2

$$$$

     RDKit          3D

 48 51  0  0  0  0  0  0  0  0999 V2000
  140.6660   72.0840  221.2660 O   0  0  0  0  0  0  0  0  0  0  0  0
  139.8950   72.3200  222.2420 C   0  0  0  0  0  0  0  0  0  0  0  0
  138.9810   73.4110  222.2580 N   0  0  0  0  0  0  0  0  0  0  0  0
  138.9460   74.2860  221.0820 C   0  0  0  0  0  0  0  0  0  0  0  0
  138.5930   75.6620  221.4530 C   0  0  0  0  0  0  0  0  0  0  0  0
  137.3750   75.8330  221.8400 O   0  0  0  0  0  0  0  0  0  0  0  0
  139.3910   76.8090  221.4450 N   0  0  0  0  0  0  0  0  0  0  0  0
  138.7790   78.1060  221.9150 C   0  0  0  0  0  0  0  0  0  0  0  0
  139.9130   78.8740  222.5290 C   0  0  1  0  0  0  0  0  0  0  0  0
  139.6680   79.2520  223.8310 F   0  0  0  0  0  0  0  0  0  0  0  0
  141.0990   77.9010  222.4560 C   0  0  0  0  0  0  0  0  0  0  0  0
  140.7160   77.1900  221.1420 C   0  0  1  0  0  0  0  0  0  0  0  0
  141.7080   76.2100  220.7600 C   0  0  0  0  0  0  0  0  0  0  0  0
  141.8490   74.9380  221.2300 C   0  0  0  0  0  0  0  0  0  0  0  0
  142.8370   74.0600  220.8270 C   0  0  0  0  0  0  0  0  0  0  0  0
  143.7590   74.4610  219.8850 C   0  0  0  0  0  0  0  0  0  0  0  0
  145.0370   73.4010  219.3280 Cl  0  0  0  0  0  0  0  0  0  0  0  0
  143.6530   75.7400  219.3810 C   0  0  0  0  0  0  0  0  0  0  0  0
  142.6620   76.6020  219.7970 C   0  0  0  0  0  0  0  0  0  0  0  0
  139.9300   71.4380  223.4260 C   0  0  0  0  0  0  0  0  0  0  0  0
  139.4550   70.1410  223.3360 C   0  0  0  0  0  0  0  0  0  0  0  0
  139.4820   69.2990  224.4470 C   0  0  0  0  0  0  0  0  0  0  0  0
  139.9840   69.7530  225.6410 C   0  0  0  0  0  0  0  0  0  0  0  0
  140.0370   68.9680  226.7710 C   0  0  0  0  0  0  0  0  0  0  0  0
  140.5570   69.4970  227.9370 C   0  0  0  0  0  0  0  0  0  0  0  0
  140.6350   68.7680  229.0870 F   0  0  0  0  0  0  0  0  0  0  0  0
  141.0330   70.8030  228.0120 C   0  0  0  0  0  0  0  0  0  0  0  0
  140.9590   71.5530  226.8540 C   0  0  0  0  0  0  0  0  0  0  0  0
  140.4460   71.0580  225.6710 C   0  0  0  0  0  0  0  0  0  0  0  0
  140.4190   71.8630  224.6040 N   0  0  0  0  0  0  0  0  0  0  0  0
  138.3570   73.5730  223.0870 H   0  0  0  0  0  0  0  0  0  0  0  0
  139.9375   74.2862  220.6055 H   0  0  0  0  0  0  0  0  0  0  0  0
  138.1817   73.9058  220.3882 H   0  0  0  0  0  0  0  0  0  0  0  0
  138.3514   78.6608  221.0669 H   0  0  0  0  0  0  0  0  0  0  0  0
  137.9594   77.9397  222.6296 H   0  0  0  0  0  0  0  0  0  0  0  0
  140.0882   79.8212  221.9978 H   0  0  0  0  0  0  0  0  0  0  0  0
  142.0632   78.4250  222.3800 H   0  0  0  0  0  0  0  0  0  0  0  0
  141.2433   77.2507  223.3314 H   0  0  0  0  0  0  0  0  0  0  0  0
  140.7209   77.7605  220.2015 H   0  0  0  0  0  0  0  0  0  0  0  0
  141.1267   74.5866  221.9815 H   0  0  0  0  0  0  0  0  0  0  0  0
  142.8870   73.0480  221.2553 H   0  0  0  0  0  0  0  0  0  0  0  0
  144.3782   76.0809  218.6275 H   0  0  0  0  0  0  0  0  0  0  0  0
  142.6136   77.6148  219.3704 H   0  0  0  0  0  0  0  0  0  0  0  0
  139.0532   69.7718  222.3809 H   0  0  0  0  0  0  0  0  0  0  0  0
  139.1008   68.2703  224.3665 H   0  0  0  0  0  0  0  0  0  0  0  0
  139.6696   67.9315  226.7459 H   0  0  0  0  0  0  0  0  0  0  0  0
  141.4462   71.2161  228.9440 H   0  0  0  0  0  0  0  0  0  0  0  0
  141.3248   72.5902  226.8752 H   0  0  0  0  0  0  0  0  0  0  0  0
  1  2  2  0
  2  3  1  0
  3  4  1  0
  4  5  1  0
  5  6  2  0
  5  7  1  0
  7  8  1  0
  8  9  1  0
  9 10  1  0
  9 11  1  0
 11 12  1  0
 12 13  1  0
 13 14  2  0
 14 15  1  0
 15 16  2  0
 16 17  1  0
 16 18  1  0
 18 19  2  0
  2 20  1  0
 20 21  2  0
 21 22  1  0
 22 23  2  0
 23 24  1  0
 24 25  2  0
 25 26  1  0
 25 27  1  0
 27 28  2  0
 28 29  1  0
 29 30  2  0
 12  7  1  0
 19 13  1  0
 30 20  1  0
 29 23  1  0
  3 31  1  0
  4 32  1  0
  4 33  1  0
  8 34  1  0
  8 35  1  0
  9 36  1  6
 11 37  1  0
 11 38  1  0
 12 39  1  6
 14 40  1  0
 15 41  1  0
 18 42  1  0
 19 43  1  0
 21 44  1  0
 22 45  1  0
 24 46  1  0
 27 47  1  0
 28 48  1  0
M  END
>  <smiles>  (38) 
O=C(NCC(=O)N1C[C@@H](F)C[C@H]1c1ccc(Cl)cc1)c1ccc2cc(F)ccc2n1

>  <score_type>  (38) 
oracle

>  <origin>  (38) 
autodockgpu

>  <m_score__min__energy>  (38) 
-8.8800000000000008

>  <m_primary>  (38) 
energy

>  <rmsd>  (38) 
2.6806883001859725

>  <m_score__min__rmsd>  (38) 
2.6806883001859725

>  <meeko>  (38) 
{"free_energy": -8.29, "intermolecular_energy": -9.78, "internal_energy": -1.44, "cluster_size": 6, "cluster_id": 3, "rank_in_cluster": 1}

>  <energy>  (38) 
-8.28

>  <cluster_rmsd>  (38) 
0.59

>  <cluster>  (38) 
2

$$$$

     RDKit          3D

 48 51  0  0  0  0  0  0  0  0999 V2000
  140.7680   71.1230  221.3650 O   0  0  0  0  0  0  0  0  0  0  0  0
  140.3110   71.6360  222.4270 C   0  0  0  0  0  0  0  0  0  0  0  0
  139.9410   73.0070  222.5240 N   0  0  0  0  0  0  0  0  0  0  0  0
  140.1040   73.8420  221.3300 C   0  0  0  0  0  0  0  0  0  0  0  0
  140.3260   75.2480  221.6890 C   0  0  0  0  0  0  0  0  0  0  0  0
  139.6410   75.6750  222.6940 O   0  0  0  0  0  0  0  0  0  0  0  0
  141.1740   76.1860  221.0950 N   0  0  0  0  0  0  0  0  0  0  0  0
  142.0920   75.7180  219.9920 C   0  0  0  0  0  0  0  0  0  0  0  0
  142.2460   76.9030  219.0820 C   0  0  1  0  0  0  0  0  0  0  0  0
  141.9030   76.6310  217.7770 F   0  0  0  0  0  0  0  0  0  0  0  0
  141.3070   77.9560  219.6880 C   0  0  0  0  0  0  0  0  0  0  0  0
  141.4680   77.5640  221.1710 C   0  0  1  0  0  0  0  0  0  0  0  0
  140.7140   78.4440  222.0370 C   0  0  0  0  0  0  0  0  0  0  0  0
  141.1900   79.2360  223.0390 C   0  0  0  0  0  0  0  0  0  0  0  0
  140.4020   80.0420  223.8390 C   0  0  0  0  0  0  0  0  0  0  0  0
  139.0390   80.0760  223.6380 C   0  0  0  0  0  0  0  0  0  0  0  0
  137.9820   81.0730  224.6140 Cl  0  0  0  0  0  0  0  0  0  0  0  0
  138.5150   79.2900  222.6330 C   0  0  0  0  0  0  0  0  0  0  0  0
  139.3170   78.4920  221.8470 C   0  0  0  0  0  0  0  0  0  0  0  0
  140.1460   70.7950  223.6300 C   0  0  0  0  0  0  0  0  0  0  0  0
  139.4450   69.6050  223.5510 C   0  0  0  0  0  0  0  0  0  0  0  0
  139.2830   68.8030  224.6800 C   0  0  0  0  0  0  0  0  0  0  0  0
  139.8210   69.1900  225.8810 C   0  0  0  0  0  0  0  0  0  0  0  0
  139.6930   68.4400  227.0290 C   0  0  0  0  0  0  0  0  0  0  0  0
  140.2640   68.8980  228.2010 C   0  0  0  0  0  0  0  0  0  0  0  0
  140.1710   68.1990  229.3690 F   0  0  0  0  0  0  0  0  0  0  0  0
  140.9670   70.0970  228.2650 C   0  0  0  0  0  0  0  0  0  0  0  0
  141.0690   70.8160  227.0900 C   0  0  0  0  0  0  0  0  0  0  0  0
  140.5120   70.3900  225.9010 C   0  0  0  0  0  0  0  0  0  0  0  0
  140.6670   71.1570  224.8160 N   0  0  0  0  0  0  0  0  0  0  0  0
  139.5650   73.3980  223.4240 H   0  0  0  0  0  0  0  0  0  0  0  0
  140.9676   73.4786  220.7537 H   0  0  0  0  0  0  0  0  0  0  0  0
  139.1827   73.7774  220.7326 H   0  0  0  0  0  0  0  0  0  0  0  0
  143.0671   75.4172  220.4027 H   0  0  0  0  0  0  0  0  0  0  0  0
  141.6879   74.8421  219.4633 H   0  0  0  0  0  0  0  0  0  0  0  0
  143.2946   77.2304  219.0249 H   0  0  0  0  0  0  0  0  0  0  0  0
  141.6493   78.9823  219.4894 H   0  0  0  0  0  0  0  0  0  0  0  0
  140.2774   77.9629  219.3008 H   0  0  0  0  0  0  0  0  0  0  0  0
  142.4447   77.6977  221.6591 H   0  0  0  0  0  0  0  0  0  0  0  0
  142.2744   79.2336  223.2234 H   0  0  0  0  0  0  0  0  0  0  0  0
  140.8600   80.6525  224.6312 H   0  0  0  0  0  0  0  0  0  0  0  0
  137.4296   79.3006  222.4546 H   0  0  0  0  0  0  0  0  0  0  0  0
  138.8591   77.8803  221.0557 H   0  0  0  0  0  0  0  0  0  0  0  0
  139.0122   69.2891  222.5903 H   0  0  0  0  0  0  0  0  0  0  0  0
  138.7232   67.8589  224.6075 H   0  0  0  0  0  0  0  0  0  0  0  0
  139.1427   67.4877  227.0131 H   0  0  0  0  0  0  0  0  0  0  0  0
  141.4181   70.4538  229.2026 H   0  0  0  0  0  0  0  0  0  0  0  0
  141.6178   71.7692  227.1023 H   0  0  0  0  0  0  0  0  0  0  0  0
  1  2  2  0
  2  3  1  0
  3  4  1  0
  4  5  1  0
  5  6  2  0
  5  7  1  0
  7  8  1  0
  8  9  1  0
  9 10  1  0
  9 11  1  0
 11 12  1  0
 12 13  1  0
 13 14  2  0
 14 15  1  0
 15 16  2  0
 16 17  1  0
 16 18  1  0
 18 19  2  0
  2 20  1  0
 20 21  2  0
 21 22  1  0
 22 23  2  0
 23 24  1  0
 24 25  2  0
 25 26  1  0
 25 27  1  0
 27 28  2  0
 28 29  1  0
 29 30  2  0
 12  7  1  0
 19 13  1  0
 30 20  1  0
 29 23  1  0
  3 31  1  0
  4 32  1  0
  4 33  1  0
  8 34  1  0
  8 35  1  0
  9 36  1  6
 11 37  1  0
 11 38  1  0
 12 39  1  1
 14 40  1  0
 15 41  1  0
 18 42  1  0
 19 43  1  0
 21 44  1  0
 22 45  1  0
 24 46  1  0
 27 47  1  0
 28 48  1  0
M  END
>  <smiles>  (39) 
O=C(NCC(=O)N1C[C@@H](F)C[C@H]1c1ccc(Cl)cc1)c1ccc2cc(F)ccc2n1

>  <score_type>  (39) 
oracle

>  <origin>  (39) 
autodockgpu

>  <m_score__min__energy>  (39) 
-8.8800000000000008

>  <m_primary>  (39) 
energy

>  <rmsd>  (39) 
1.8482380523270323

>  <m_score__min__rmsd>  (39) 
1.8482380523270323

>  <meeko>  (39) 
{"free_energy": -8.53, "intermolecular_energy": -10.02, "internal_energy": -1.58, "cluster_size": 18, "cluster_id": 2, "rank_in_cluster": 8}

>  <energy>  (39) 
-8.26

>  <cluster_rmsd>  (39) 
0.6

>  <cluster>  (39) 
2

$$$$

     RDKit          3D

 48 51  0  0  0  0  0  0  0  0999 V2000
  139.3520   71.3860  221.0560 O   0  0  0  0  0  0  0  0  0  0  0  0
  139.4520   71.9310  222.1940 C   0  0  0  0  0  0  0  0  0  0  0  0
  139.4300   73.3420  222.3780 N   0  0  0  0  0  0  0  0  0  0  0  0
  139.2840   74.1820  221.1860 C   0  0  0  0  0  0  0  0  0  0  0  0
  140.4380   75.0750  221.0180 C   0  0  0  0  0  0  0  0  0  0  0  0
  141.3000   75.0460  221.9770 O   0  0  0  0  0  0  0  0  0  0  0  0
  140.7320   75.9480  219.9680 N   0  0  0  0  0  0  0  0  0  0  0  0
  140.4980   75.4680  218.5570 C   0  0  0  0  0  0  0  0  0  0  0  0
  140.1290   76.6990  217.7810 C   0  0  1  0  0  0  0  0  0  0  0  0
  138.9200   76.5880  217.1320 F   0  0  0  0  0  0  0  0  0  0  0  0
  140.0790   77.8040  218.8460 C   0  0  0  0  0  0  0  0  0  0  0  0
  141.1920   77.2670  219.7690 C   0  0  1  0  0  0  0  0  0  0  0  0
  141.4290   78.1540  220.8870 C   0  0  0  0  0  0  0  0  0  0  0  0
  141.3300   77.8670  222.2160 C   0  0  0  0  0  0  0  0  0  0  0  0
  141.5580   78.7760  223.2310 C   0  0  0  0  0  0  0  0  0  0  0  0
  141.9150   80.0700  222.9180 C   0  0  0  0  0  0  0  0  0  0  0  0
  142.2180   81.2720  224.1530 Cl  0  0  0  0  0  0  0  0  0  0  0  0
  142.0270   80.4040  221.5850 C   0  0  0  0  0  0  0  0  0  0  0  0
  141.7950   79.4830  220.5860 C   0  0  0  0  0  0  0  0  0  0  0  0
  139.5980   71.0840  223.3960 C   0  0  0  0  0  0  0  0  0  0  0  0
  139.1460   69.7760  223.3790 C   0  0  0  0  0  0  0  0  0  0  0  0
  139.2780   68.9680  224.5070 C   0  0  0  0  0  0  0  0  0  0  0  0
  139.8610   69.4660  225.6450 C   0  0  0  0  0  0  0  0  0  0  0  0
  140.0190   68.7150  226.7890 C   0  0  0  0  0  0  0  0  0  0  0  0
  140.6150   69.2890  227.8950 C   0  0  0  0  0  0  0  0  0  0  0  0
  140.7980   68.5950  229.0560 F   0  0  0  0  0  0  0  0  0  0  0  0
  141.0650   70.6050  227.8970 C   0  0  0  0  0  0  0  0  0  0  0  0
  140.8850   71.3200  226.7290 C   0  0  0  0  0  0  0  0  0  0  0  0
  140.2940   70.7800  225.6030 C   0  0  0  0  0  0  0  0  0  0  0  0
  140.1660   71.5540  224.5200 N   0  0  0  0  0  0  0  0  0  0  0  0
  139.5150   73.7570  223.3400 H   0  0  0  0  0  0  0  0  0  0  0  0
  139.1993   73.5354  220.3001 H   0  0  0  0  0  0  0  0  0  0  0  0
  138.3815   74.7995  221.3047 H   0  0  0  0  0  0  0  0  0  0  0  0
  141.4118   75.0129  218.1474 H   0  0  0  0  0  0  0  0  0  0  0  0
  139.7127   74.6993  218.5082 H   0  0  0  0  0  0  0  0  0  0  0  0
  140.8529   76.8960  216.9765 H   0  0  0  0  0  0  0  0  0  0  0  0
  140.3233   78.7931  218.4313 H   0  0  0  0  0  0  0  0  0  0  0  0
  139.1005   77.9730  219.3192 H   0  0  0  0  0  0  0  0  0  0  0  0
  142.2276   77.2359  219.3994 H   0  0  0  0  0  0  0  0  0  0  0  0
  141.0495   76.8418  222.4995 H   0  0  0  0  0  0  0  0  0  0  0  0
  141.4553   78.4691  224.2823 H   0  0  0  0  0  0  0  0  0  0  0  0
  142.3087   81.4316  221.3118 H   0  0  0  0  0  0  0  0  0  0  0  0
  141.8971   79.7898  219.5346 H   0  0  0  0  0  0  0  0  0  0  0  0
  138.6793   69.3712  222.4689 H   0  0  0  0  0  0  0  0  0  0  0  0
  138.9145   67.9300  224.4850 H   0  0  0  0  0  0  0  0  0  0  0  0
  139.6747   67.6708  226.8213 H   0  0  0  0  0  0  0  0  0  0  0  0
  141.5395   71.0530  228.7825 H   0  0  0  0  0  0  0  0  0  0  0  0
  141.2271   72.3649  226.6938 H   0  0  0  0  0  0  0  0  0  0  0  0
  1  2  2  0
  2  3  1  0
  3  4  1  0
  4  5  1  0
  5  6  2  0
  5  7  1  0
  7  8  1  0
  8  9  1  0
  9 10  1  0
  9 11  1  0
 11 12  1  0
 12 13  1  0
 13 14  2  0
 14 15  1  0
 15 16  2  0
 16 17  1  0
 16 18  1  0
 18 19  2  0
  2 20  1  0
 20 21  2  0
 21 22  1  0
 22 23  2  0
 23 24  1  0
 24 25  2  0
 25 26  1  0
 25 27  1  0
 27 28  2  0
 28 29  1  0
 29 30  2  0
 12  7  1  0
 19 13  1  0
 30 20  1  0
 29 23  1  0
  3 31  1  0
  4 32  1  0
  4 33  1  0
  8 34  1  0
  8 35  1  0
  9 36  1  6
 11 37  1  0
 11 38  1  0
 12 39  1  6
 14 40  1  0
 15 41  1  0
 18 42  1  0
 19 43  1  0
 21 44  1  0
 22 45  1  0
 24 46  1  0
 27 47  1  0
 28 48  1  0
M  END
>  <smiles>  (40) 
O=C(NCC(=O)N1C[C@@H](F)C[C@H]1c1ccc(Cl)cc1)c1ccc2cc(F)ccc2n1

>  <score_type>  (40) 
oracle

>  <origin>  (40) 
autodockgpu

>  <m_score__min__energy>  (40) 
-8.8800000000000008

>  <m_primary>  (40) 
energy

>  <rmsd>  (40) 
1.0167492970220453

>  <m_score__min__rmsd>  (40) 
1.0167492970220453

>  <meeko>  (40) 
{"free_energy": -8.35, "intermolecular_energy": -9.84, "internal_energy": -1.47, "cluster_size": 18, "cluster_id": 2, "rank_in_cluster": 14}

>  <energy>  (40) 
-8.17

>  <cluster_rmsd>  (40) 
1.07

>  <cluster>  (40) 
2

$$$$

     RDKit          3D

 48 51  0  0  0  0  0  0  0  0999 V2000
  141.3200   71.9810  221.3870 O   0  0  0  0  0  0  0  0  0  0  0  0
  140.5670   72.4150  222.3070 C   0  0  0  0  0  0  0  0  0  0  0  0
  139.9760   73.7100  222.2730 N   0  0  0  0  0  0  0  0  0  0  0  0
  140.2650   74.5590  221.1140 C   0  0  0  0  0  0  0  0  0  0  0  0
  139.0320   75.1110  220.5380 C   0  0  0  0  0  0  0  0  0  0  0  0
  138.8420   74.8480  219.2900 O   0  0  0  0  0  0  0  0  0  0  0  0
  138.0390   75.8790  221.1510 N   0  0  0  0  0  0  0  0  0  0  0  0
  136.6130   75.3910  221.0750 C   0  0  0  0  0  0  0  0  0  0  0  0
  135.9700   75.8640  222.3470 C   0  0  1  0  0  0  0  0  0  0  0  0
  135.4020   74.8440  223.0780 F   0  0  0  0  0  0  0  0  0  0  0  0
  137.1230   76.5170  223.1220 C   0  0  0  0  0  0  0  0  0  0  0  0
  137.9170   77.0590  221.9150 C   0  0  1  0  0  0  0  0  0  0  0  0
  139.0840   77.8020  222.3380 C   0  0  0  0  0  0  0  0  0  0  0  0
  140.3800   77.3800  222.3560 C   0  0  0  0  0  0  0  0  0  0  0  0
  141.4450   78.1460  222.7910 C   0  0  0  0  0  0  0  0  0  0  0  0
  141.2220   79.4290  223.2400 C   0  0  0  0  0  0  0  0  0  0  0  0
  142.5230   80.4530  223.8050 Cl  0  0  0  0  0  0  0  0  0  0  0  0
  139.9240   79.8960  223.2380 C   0  0  0  0  0  0  0  0  0  0  0  0
  138.8750   79.1170  222.8020 C   0  0  0  0  0  0  0  0  0  0  0  0
  140.2760   71.5600  223.4750 C   0  0  0  0  0  0  0  0  0  0  0  0
  139.5700   70.3810  223.3090 C   0  0  0  0  0  0  0  0  0  0  0  0
  139.2880   69.5650  224.4040 C   0  0  0  0  0  0  0  0  0  0  0  0
  139.7130   69.9260  225.6580 C   0  0  0  0  0  0  0  0  0  0  0  0
  139.4650   69.1620  226.7760 C   0  0  0  0  0  0  0  0  0  0  0  0
  139.9260   69.5930  228.0050 C   0  0  0  0  0  0  0  0  0  0  0  0
  139.7110   68.8780  229.1470 F   0  0  0  0  0  0  0  0  0  0  0  0
  140.6360   70.7800  228.1560 C   0  0  0  0  0  0  0  0  0  0  0  0
  140.8600   71.5150  227.0080 C   0  0  0  0  0  0  0  0  0  0  0  0
  140.4150   71.1150  225.7630 C   0  0  0  0  0  0  0  0  0  0  0  0
  140.6840   71.8960  224.7110 N   0  0  0  0  0  0  0  0  0  0  0  0
  139.3560   74.0350  223.0560 H   0  0  0  0  0  0  0  0  0  0  0  0
  140.9156   75.3878  221.4299 H   0  0  0  0  0  0  0  0  0  0  0  0
  140.7621   73.9451  220.3485 H   0  0  0  0  0  0  0  0  0  0  0  0
  136.1032   75.8223  220.2009 H   0  0  0  0  0  0  0  0  0  0  0  0
  136.5565   74.2979  220.9660 H   0  0  0  0  0  0  0  0  0  0  0  0
  135.1350   76.5500  222.1417 H   0  0  0  0  0  0  0  0  0  0  0  0
  136.7749   77.3216  223.7864 H   0  0  0  0  0  0  0  0  0  0  0  0
  137.6773   75.8582  223.8066 H   0  0  0  0  0  0  0  0  0  0  0  0
  137.4735   77.8485  221.2904 H   0  0  0  0  0  0  0  0  0  0  0  0
  140.5926   76.3610  222.0003 H   0  0  0  0  0  0  0  0  0  0  0  0
  142.4647   77.7335  222.7787 H   0  0  0  0  0  0  0  0  0  0  0  0
  139.7214   80.9170  223.5938 H   0  0  0  0  0  0  0  0  0  0  0  0
  137.8550   79.5285  222.8161 H   0  0  0  0  0  0  0  0  0  0  0  0
  139.2289   70.0856  222.3058 H   0  0  0  0  0  0  0  0  0  0  0  0
  138.7243   68.6310  224.2626 H   0  0  0  0  0  0  0  0  0  0  0  0
  138.9058   68.2185  226.6917 H   0  0  0  0  0  0  0  0  0  0  0  0
  141.0000   71.1157  229.1383 H   0  0  0  0  0  0  0  0  0  0  0  0
  141.4171   72.4601  227.0888 H   0  0  0  0  0  0  0  0  0  0  0  0
  1  2  2  0
  2  3  1  0
  3  4  1  0
  4  5  1  0
  5  6  2  0
  5  7  1  0
  7  8  1  0
  8  9  1  0
  9 10  1  0
  9 11  1  0
 11 12  1  0
 12 13  1  0
 13 14  2  0
 14 15  1  0
 15 16  2  0
 16 17  1  0
 16 18  1  0
 18 19  2  0
  2 20  1  0
 20 21  2  0
 21 22  1  0
 22 23  2  0
 23 24  1  0
 24 25  2  0
 25 26  1  0
 25 27  1  0
 27 28  2  0
 28 29  1  0
 29 30  2  0
 12  7  1  0
 19 13  1  0
 30 20  1  0
 29 23  1  0
  3 31  1  0
  4 32  1  0
  4 33  1  0
  8 34  1  0
  8 35  1  0
  9 36  1  6
 11 37  1  0
 11 38  1  0
 12 39  1  6
 14 40  1  0
 15 41  1  0
 18 42  1  0
 19 43  1  0
 21 44  1  0
 22 45  1  0
 24 46  1  0
 27 47  1  0
 28 48  1  0
M  END
>  <smiles>  (41) 
O=C(NCC(=O)N1C[C@@H](F)C[C@H]1c1ccc(Cl)cc1)c1ccc2cc(F)ccc2n1

>  <score_type>  (41) 
oracle

>  <origin>  (41) 
autodockgpu

>  <m_score__min__energy>  (41) 
-8.8800000000000008

>  <m_primary>  (41) 
energy

>  <rmsd>  (41) 
3.2046018765831805

>  <m_score__min__rmsd>  (41) 
3.2046018765831805

>  <meeko>  (41) 
{"free_energy": -8.28, "intermolecular_energy": -9.78, "internal_energy": -1.22, "cluster_size": 22, "cluster_id": 1, "rank_in_cluster": 11}

>  <energy>  (41) 
-8.29

>  <cluster_rmsd>  (41) 
0.0

>  <cluster>  (41) 
3

$$$$

     RDKit          3D

 48 51  0  0  0  0  0  0  0  0999 V2000
  141.3370   71.5730  221.3810 O   0  0  0  0  0  0  0  0  0  0  0  0
  140.6580   72.0400  222.3420 C   0  0  0  0  0  0  0  0  0  0  0  0
  140.1380   73.3650  222.3460 N   0  0  0  0  0  0  0  0  0  0  0  0
  140.4110   74.2070  221.1770 C   0  0  0  0  0  0  0  0  0  0  0  0
  140.5640   75.6160  221.5590 C   0  0  0  0  0  0  0  0  0  0  0  0
  139.8810   75.9840  222.5890 O   0  0  0  0  0  0  0  0  0  0  0  0
  141.3440   76.6110  220.9650 N   0  0  0  0  0  0  0  0  0  0  0  0
  142.2540   76.2190  219.8270 C   0  0  0  0  0  0  0  0  0  0  0  0
  142.3180   77.4300  218.9420 C   0  0  1  0  0  0  0  0  0  0  0  0
  141.9530   77.1680  217.6400 F   0  0  0  0  0  0  0  0  0  0  0  0
  141.3410   78.4160  219.5970 C   0  0  0  0  0  0  0  0  0  0  0  0
  141.5640   78.0020  221.0650 C   0  0  1  0  0  0  0  0  0  0  0  0
  140.7890   78.8200  221.9720 C   0  0  0  0  0  0  0  0  0  0  0  0
  141.2480   79.6030  222.9890 C   0  0  0  0  0  0  0  0  0  0  0  0
  140.4410   80.3480  223.8280 C   0  0  0  0  0  0  0  0  0  0  0  0
  139.0740   80.3260  223.6530 C   0  0  0  0  0  0  0  0  0  0  0  0
  137.9930   81.2450  224.6770 Cl  0  0  0  0  0  0  0  0  0  0  0  0
  138.5670   79.5470  222.6340 C   0  0  0  0  0  0  0  0  0  0  0  0
  139.3880   78.8100  221.8080 C   0  0  0  0  0  0  0  0  0  0  0  0
  140.3830   71.1920  223.5190 C   0  0  0  0  0  0  0  0  0  0  0  0
  139.6330   70.0370  223.3790 C   0  0  0  0  0  0  0  0  0  0  0  0
  139.3660   69.2290  224.4830 C   0  0  0  0  0  0  0  0  0  0  0  0
  139.8490   69.5740  225.7200 C   0  0  0  0  0  0  0  0  0  0  0  0
  139.6180   68.8150  226.8460 C   0  0  0  0  0  0  0  0  0  0  0  0
  140.1380   69.2290  228.0570 C   0  0  0  0  0  0  0  0  0  0  0  0
  139.9430   68.5200  229.2050 F   0  0  0  0  0  0  0  0  0  0  0  0
  140.8910   70.3920  228.1820 C   0  0  0  0  0  0  0  0  0  0  0  0
  141.0970   71.1210  227.0270 C   0  0  0  0  0  0  0  0  0  0  0  0
  140.5930   70.7390  225.8000 C   0  0  0  0  0  0  0  0  0  0  0  0
  140.8480   71.5130  224.7390 N   0  0  0  0  0  0  0  0  0  0  0  0
  139.5790   73.7170  223.1630 H   0  0  0  0  0  0  0  0  0  0  0  0
  141.3388   73.8632  220.6965 H   0  0  0  0  0  0  0  0  0  0  0  0
  139.5607   74.1254  220.4840 H   0  0  0  0  0  0  0  0  0  0  0  0
  143.2552   75.9628  220.2039 H   0  0  0  0  0  0  0  0  0  0  0  0
  141.8829   75.3344  219.2887 H   0  0  0  0  0  0  0  0  0  0  0  0
  143.3453   77.8157  218.8648 H   0  0  0  0  0  0  0  0  0  0  0  0
  141.6214   79.4636  219.4130 H   0  0  0  0  0  0  0  0  0  0  0  0
  140.3022   78.3745  219.2377 H   0  0  0  0  0  0  0  0  0  0  0  0
  142.5451   78.1793  221.5298 H   0  0  0  0  0  0  0  0  0  0  0  0
  142.3349   79.6448  223.1532 H   0  0  0  0  0  0  0  0  0  0  0  0
  140.8867   80.9545  224.6302 H   0  0  0  0  0  0  0  0  0  0  0  0
  137.4789   79.5130  222.4764 H   0  0  0  0  0  0  0  0  0  0  0  0
  138.9426   78.2028  221.0061 H   0  0  0  0  0  0  0  0  0  0  0  0
  139.2448   69.7547  222.3892 H   0  0  0  0  0  0  0  0  0  0  0  0
  138.7675   68.3140  224.3624 H   0  0  0  0  0  0  0  0  0  0  0  0
  139.0263   67.8899  226.7816 H   0  0  0  0  0  0  0  0  0  0  0  0
  141.3011   70.7144  229.1505 H   0  0  0  0  0  0  0  0  0  0  0  0
  141.6885   72.0464  227.0876 H   0  0  0  0  0  0  0  0  0  0  0  0
  1  2  2  0
  2  3  1  0
  3  4  1  0
  4  5  1  0
  5  6  2  0
  5  7  1  0
  7  8  1  0
  8  9  1  0
  9 10  1  0
  9 11  1  0
 11 12  1  0
 12 13  1  0
 13 14  2  0
 14 15  1  0
 15 16  2  0
 16 17  1  0
 16 18  1  0
 18 19  2  0
  2 20  1  0
 20 21  2  0
 21 22  1  0
 22 23  2  0
 23 24  1  0
 24 25  2  0
 25 26  1  0
 25 27  1  0
 27 28  2  0
 28 29  1  0
 29 30  2  0
 12  7  1  0
 19 13  1  0
 30 20  1  0
 29 23  1  0
  3 31  1  0
  4 32  1  0
  4 33  1  0
  8 34  1  0
  8 35  1  0
  9 36  1  6
 11 37  1  0
 11 38  1  0
 12 39  1  1
 14 40  1  0
 15 41  1  0
 18 42  1  0
 19 43  1  0
 21 44  1  0
 22 45  1  0
 24 46  1  0
 27 47  1  0
 28 48  1  0
M  END
>  <smiles>  (42) 
O=C(NCC(=O)N1C[C@@H](F)C[C@H]1c1ccc(Cl)cc1)c1ccc2cc(F)ccc2n1

>  <score_type>  (42) 
oracle

>  <origin>  (42) 
autodockgpu

>  <m_score__min__energy>  (42) 
-8.8800000000000008

>  <m_primary>  (42) 
energy

>  <rmsd>  (42) 
2.0465254747670025

>  <m_score__min__rmsd>  (42) 
2.0465254747670025

>  <meeko>  (42) 
{"free_energy": -8.57, "intermolecular_energy": -10.06, "internal_energy": -1.58, "cluster_size": 18, "cluster_id": 2, "rank_in_cluster": 7}

>  <energy>  (42) 
-8.02

>  <cluster_rmsd>  (42) 
1.17

>  <cluster>  (42) 
3

$$$$

     RDKit          3D

 48 51  0  0  0  0  0  0  0  0999 V2000
  137.7800   72.0170  222.7030 O   0  0  0  0  0  0  0  0  0  0  0  0
  138.9810   71.7030  222.9510 C   0  0  0  0  0  0  0  0  0  0  0  0
  140.0830   72.2350  222.2230 N   0  0  0  0  0  0  0  0  0  0  0  0
  139.7920   73.1850  221.1460 C   0  0  0  0  0  0  0  0  0  0  0  0
  139.7540   74.5650  221.6480 C   0  0  0  0  0  0  0  0  0  0  0  0
  140.8310   74.9680  222.2300 O   0  0  0  0  0  0  0  0  0  0  0  0
  138.7170   75.4990  221.5820 N   0  0  0  0  0  0  0  0  0  0  0  0
  137.3250   74.9980  221.2850 C   0  0  0  0  0  0  0  0  0  0  0  0
  136.4080   75.9380  222.0120 C   0  0  1  0  0  0  0  0  0  0  0  0
  135.5540   75.2970  222.8820 F   0  0  0  0  0  0  0  0  0  0  0  0
  137.3630   76.8710  222.7710 C   0  0  0  0  0  0  0  0  0  0  0  0
  138.5140   76.8860  221.7440 C   0  0  1  0  0  0  0  0  0  0  0  0
  139.5890   77.7570  222.1640 C   0  0  0  0  0  0  0  0  0  0  0  0
  140.8560   77.8200  221.6630 C   0  0  0  0  0  0  0  0  0  0  0  0
  141.8390   78.6720  222.1290 C   0  0  0  0  0  0  0  0  0  0  0  0
  141.5570   79.5330  223.1670 C   0  0  0  0  0  0  0  0  0  0  0  0
  142.7540   80.6380  223.8060 Cl  0  0  0  0  0  0  0  0  0  0  0  0
  140.2870   79.5030  223.7030 C   0  0  0  0  0  0  0  0  0  0  0  0
  139.3200   78.6460  223.2260 C   0  0  0  0  0  0  0  0  0  0  0  0
  139.2750   70.7460  224.0370 C   0  0  0  0  0  0  0  0  0  0  0  0
  138.9140   69.4170  223.9020 C   0  0  0  0  0  0  0  0  0  0  0  0
  139.1850   68.5030  224.9200 C   0  0  0  0  0  0  0  0  0  0  0  0
  139.8150   68.9190  226.0660 C   0  0  0  0  0  0  0  0  0  0  0  0
  140.1090   68.0640  227.1050 C   0  0  0  0  0  0  0  0  0  0  0  0
  140.7450   68.5580  228.2270 C   0  0  0  0  0  0  0  0  0  0  0  0
  141.0620   67.7600  229.2870 F   0  0  0  0  0  0  0  0  0  0  0  0
  141.1020   69.8980  228.3480 C   0  0  0  0  0  0  0  0  0  0  0  0
  140.7870   70.7180  227.2820 C   0  0  0  0  0  0  0  0  0  0  0  0
  140.1520   70.2600  226.1450 C   0  0  0  0  0  0  0  0  0  0  0  0
  139.8910   71.1340  225.1670 N   0  0  0  0  0  0  0  0  0  0  0  0
  141.0670   71.9500  222.4590 H   0  0  0  0  0  0  0  0  0  0  0  0
  140.5740   73.1049  220.3765 H   0  0  0  0  0  0  0  0  0  0  0  0
  138.8055   72.9412  220.7249 H   0  0  0  0  0  0  0  0  0  0  0  0
  137.1274   75.0251  220.2032 H   0  0  0  0  0  0  0  0  0  0  0  0
  137.1850   73.9551  221.6057 H   0  0  0  0  0  0  0  0  0  0  0  0
  135.7411   76.4649  221.3137 H   0  0  0  0  0  0  0  0  0  0  0  0
  136.9315   77.8707  222.9273 H   0  0  0  0  0  0  0  0  0  0  0  0
  137.6316   76.5593  223.7911 H   0  0  0  0  0  0  0  0  0  0  0  0
  138.3485   77.3436  220.7575 H   0  0  0  0  0  0  0  0  0  0  0  0
  141.1127   77.1470  220.8316 H   0  0  0  0  0  0  0  0  0  0  0  0
  142.8405   78.6629  221.6741 H   0  0  0  0  0  0  0  0  0  0  0  0
  140.0397   80.1811  224.5331 H   0  0  0  0  0  0  0  0  0  0  0  0
  138.3189   78.6549  223.6817 H   0  0  0  0  0  0  0  0  0  0  0  0
  138.4095   69.0789  222.9849 H   0  0  0  0  0  0  0  0  0  0  0  0
  138.8937   67.4486  224.8043 H   0  0  0  0  0  0  0  0  0  0  0  0
  139.8402   66.9992  227.0418 H   0  0  0  0  0  0  0  0  0  0  0  0
  141.6083   70.2836  229.2452 H   0  0  0  0  0  0  0  0  0  0  0  0
  141.0540   71.7834  227.3417 H   0  0  0  0  0  0  0  0  0  0  0  0
  1  2  2  0
  2  3  1  0
  3  4  1  0
  4  5  1  0
  5  6  2  0
  5  7  1  0
  7  8  1  0
  8  9  1  0
  9 10  1  0
  9 11  1  0
 11 12  1  0
 12 13  1  0
 13 14  2  0
 14 15  1  0
 15 16  2  0
 16 17  1  0
 16 18  1  0
 18 19  2  0
  2 20  1  0
 20 21  2  0
 21 22  1  0
 22 23  2  0
 23 24  1  0
 24 25  2  0
 25 26  1  0
 25 27  1  0
 27 28  2  0
 28 29  1  0
 29 30  2  0
 12  7  1  0
 19 13  1  0
 30 20  1  0
 29 23  1  0
  3 31  1  0
  4 32  1  0
  4 33  1  0
  8 34  1  0
  8 35  1  0
  9 36  1  6
 11 37  1  0
 11 38  1  0
 12 39  1  6
 14 40  1  0
 15 41  1  0
 18 42  1  0
 19 43  1  0
 21 44  1  0
 22 45  1  0
 24 46  1  0
 27 47  1  0
 28 48  1  0
M  END
>  <smiles>  (43) 
O=C(NCC(=O)N1C[C@@H](F)C[C@H]1c1ccc(Cl)cc1)c1ccc2cc(F)ccc2n1

>  <score_type>  (43) 
oracle

>  <origin>  (43) 
autodockgpu

>  <m_score__min__energy>  (43) 
-8.8800000000000008

>  <m_primary>  (43) 
energy

>  <rmsd>  (43) 
2.7802093930848772

>  <m_score__min__rmsd>  (43) 
2.7802093930848772

>  <meeko>  (43) 
{"free_energy": -8.56, "intermolecular_energy": -10.05, "internal_energy": -1.36, "cluster_size": 22, "cluster_id": 1, "rank_in_cluster": 9}

>  <energy>  (43) 
-7.99

>  <cluster_rmsd>  (43) 
1.32

>  <cluster>  (43) 
3

$$$$

     RDKit          3D

 48 51  0  0  0  0  0  0  0  0999 V2000
  139.6160   70.7540  221.3380 O   0  0  0  0  0  0  0  0  0  0  0  0
  139.2300   71.3970  222.3570 C   0  0  0  0  0  0  0  0  0  0  0  0
  138.3330   72.5000  222.2790 N   0  0  0  0  0  0  0  0  0  0  0  0
  137.8480   72.8900  220.9520 C   0  0  0  0  0  0  0  0  0  0  0  0
  138.8460   73.6940  220.2350 C   0  0  0  0  0  0  0  0  0  0  0  0
  139.2970   73.1690  219.1470 O   0  0  0  0  0  0  0  0  0  0  0  0
  139.3730   74.9450  220.5650 N   0  0  0  0  0  0  0  0  0  0  0  0
  138.4100   76.0540  220.9120 C   0  0  0  0  0  0  0  0  0  0  0  0
  139.1390   76.9080  221.9090 C   0  0  1  0  0  0  0  0  0  0  0  0
  138.4500   77.0690  223.0900 F   0  0  0  0  0  0  0  0  0  0  0  0
  140.4580   76.1560  222.1420 C   0  0  0  0  0  0  0  0  0  0  0  0
  140.6280   75.5700  220.7250 C   0  0  1  0  0  0  0  0  0  0  0  0
  141.8590   74.8210  220.6050 C   0  0  0  0  0  0  0  0  0  0  0  0
  142.0740   73.5120  220.9240 C   0  0  0  0  0  0  0  0  0  0  0  0
  143.2890   72.8660  220.7960 C   0  0  0  0  0  0  0  0  0  0  0  0
  144.3790   73.5570  220.3140 C   0  0  0  0  0  0  0  0  0  0  0  0
  145.9460   72.8010  220.1260 Cl  0  0  0  0  0  0  0  0  0  0  0  0
  144.2060   74.8830  219.9770 C   0  0  0  0  0  0  0  0  0  0  0  0
  142.9870   75.5110  220.1130 C   0  0  0  0  0  0  0  0  0  0  0  0
  139.7180   71.0040  223.6950 C   0  0  0  0  0  0  0  0  0  0  0  0
  140.5140   71.8710  224.4220 C   0  0  0  0  0  0  0  0  0  0  0  0
  140.9810   71.5110  225.6850 C   0  0  0  0  0  0  0  0  0  0  0  0
  140.6520   70.2900  226.2180 C   0  0  0  0  0  0  0  0  0  0  0  0
  141.0830   69.8800  227.4590 C   0  0  0  0  0  0  0  0  0  0  0  0
  140.7090   68.6350  227.9270 C   0  0  0  0  0  0  0  0  0  0  0  0
  141.1050   68.1740  229.1480 F   0  0  0  0  0  0  0  0  0  0  0  0
  139.9070   67.7740  227.1840 C   0  0  0  0  0  0  0  0  0  0  0  0
  139.4990   68.2270  225.9450 C   0  0  0  0  0  0  0  0  0  0  0  0
  139.8530   69.4650  225.4450 C   0  0  0  0  0  0  0  0  0  0  0  0
  139.4060   69.8120  224.2340 N   0  0  0  0  0  0  0  0  0  0  0  0
  138.0350   73.0090  223.1490 H   0  0  0  0  0  0  0  0  0  0  0  0
  137.6321   71.9829  220.3684 H   0  0  0  0  0  0  0  0  0  0  0  0
  136.9391   73.4964  221.0786 H   0  0  0  0  0  0  0  0  0  0  0  0
  138.1554   76.6388  220.0158 H   0  0  0  0  0  0  0  0  0  0  0  0
  137.4633   75.6661  221.3160 H   0  0  0  0  0  0  0  0  0  0  0  0
  139.2775   77.9324  221.5330 H   0  0  0  0  0  0  0  0  0  0  0  0
  141.2809   76.8335  222.4136 H   0  0  0  0  0  0  0  0  0  0  0  0
  140.4584   75.4286  222.9672 H   0  0  0  0  0  0  0  0  0  0  0  0
  140.8017   76.2510  219.8788 H   0  0  0  0  0  0  0  0  0  0  0  0
  141.2227   72.9315  221.3091 H   0  0  0  0  0  0  0  0  0  0  0  0
  143.3851   71.8069  221.0772 H   0  0  0  0  0  0  0  0  0  0  0  0
  145.0628   75.4539  219.5898 H   0  0  0  0  0  0  0  0  0  0  0  0
  142.8916   76.5704  219.8327 H   0  0  0  0  0  0  0  0  0  0  0  0
  140.7803   72.8515  224.0003 H   0  0  0  0  0  0  0  0  0  0  0  0
  141.6142   72.2066  226.2553 H   0  0  0  0  0  0  0  0  0  0  0  0
  141.7184   70.5364  228.0717 H   0  0  0  0  0  0  0  0  0  0  0  0
  139.6134   66.7843  227.5638 H   0  0  0  0  0  0  0  0  0  0  0  0
  138.8641   67.5732  225.3291 H   0  0  0  0  0  0  0  0  0  0  0  0
  1  2  2  0
  2  3  1  0
  3  4  1  0
  4  5  1  0
  5  6  2  0
  5  7  1  0
  7  8  1  0
  8  9  1  0
  9 10  1  0
  9 11  1  0
 11 12  1  0
 12 13  1  0
 13 14  2  0
 14 15  1  0
 15 16  2  0
 16 17  1  0
 16 18  1  0
 18 19  2  0
  2 20  1  0
 20 21  2  0
 21 22  1  0
 22 23  2  0
 23 24  1  0
 24 25  2  0
 25 26  1  0
 25 27  1  0
 27 28  2  0
 28 29  1  0
 29 30  2  0
 12  7  1  0
 19 13  1  0
 30 20  1  0
 29 23  1  0
  3 31  1  0
  4 32  1  0
  4 33  1  0
  8 34  1  0
  8 35  1  0
  9 36  1  6
 11 37  1  0
 11 38  1  0
 12 39  1  6
 14 40  1  0
 15 41  1  0
 18 42  1  0
 19 43  1  0
 21 44  1  0
 22 45  1  0
 24 46  1  0
 27 47  1  0
 28 48  1  0
M  END
>  <smiles>  (44) 
O=C(NCC(=O)N1C[C@@H](F)C[C@H]1c1ccc(Cl)cc1)c1ccc2cc(F)ccc2n1

>  <score_type>  (44) 
oracle

>  <origin>  (44) 
autodockgpu

>  <m_score__min__energy>  (44) 
-8.8800000000000008

>  <m_primary>  (44) 
energy

>  <rmsd>  (44) 
3.0747550122345135

>  <m_score__min__rmsd>  (44) 
3.0747550122345135

>  <meeko>  (44) 
{"free_energy": -7.93, "intermolecular_energy": -9.42, "internal_energy": -1.69, "cluster_size": 6, "cluster_id": 3, "rank_in_cluster": 6}

>  <energy>  (44) 
-7.95

>  <cluster_rmsd>  (44) 
1.37

>  <cluster>  (44) 
3

$$$$

     RDKit          3D

 48 51  0  0  0  0  0  0  0  0999 V2000
  140.2220   71.1130  221.1420 O   0  0  0  0  0  0  0  0  0  0  0  0
  139.9830   71.6580  222.2590 C   0  0  0  0  0  0  0  0  0  0  0  0
  139.7640   73.0580  222.4020 N   0  0  0  0  0  0  0  0  0  0  0  0
  139.8210   73.8830  221.1920 C   0  0  0  0  0  0  0  0  0  0  0  0
  139.4220   75.2680  221.4710 C   0  0  0  0  0  0  0  0  0  0  0  0
  139.2890   75.5610  222.7200 O   0  0  0  0  0  0  0  0  0  0  0  0
  139.1690   76.3100  220.5760 N   0  0  0  0  0  0  0  0  0  0  0  0
  138.2500   76.0400  219.4100 C   0  0  0  0  0  0  0  0  0  0  0  0
  137.5680   77.3500  219.1380 C   0  0  1  0  0  0  0  0  0  0  0  0
  136.1940   77.2610  219.1680 F   0  0  0  0  0  0  0  0  0  0  0  0
  138.0810   78.2710  220.2550 C   0  0  0  0  0  0  0  0  0  0  0  0
  139.4950   77.6720  220.3980 C   0  0  1  0  0  0  0  0  0  0  0  0
  140.2790   78.3890  221.3800 C   0  0  0  0  0  0  0  0  0  0  0  0
  140.1220   78.3900  222.7340 C   0  0  0  0  0  0  0  0  0  0  0  0
  140.9050   79.1170  223.6110 C   0  0  0  0  0  0  0  0  0  0  0  0
  141.9240   79.9040  223.1210 C   0  0  0  0  0  0  0  0  0  0  0  0
  142.9520   80.8500  224.1740 Cl  0  0  0  0  0  0  0  0  0  0  0  0
  142.1180   79.9320  221.7560 C   0  0  0  0  0  0  0  0  0  0  0  0
  141.3270   79.2010  220.8970 C   0  0  0  0  0  0  0  0  0  0  0  0
  139.9240   70.8270  223.4780 C   0  0  0  0  0  0  0  0  0  0  0  0
  139.3070   69.5890  223.4410 C   0  0  0  0  0  0  0  0  0  0  0  0
  139.2440   68.7960  224.5860 C   0  0  0  0  0  0  0  0  0  0  0  0
  139.7990   69.2380  225.7600 C   0  0  0  0  0  0  0  0  0  0  0  0
  139.7680   68.4990  226.9210 C   0  0  0  0  0  0  0  0  0  0  0  0
  140.3490   69.0140  228.0640 C   0  0  0  0  0  0  0  0  0  0  0  0
  140.3500   68.3290  229.2440 F   0  0  0  0  0  0  0  0  0  0  0  0
  140.9680   70.2600  228.0860 C   0  0  0  0  0  0  0  0  0  0  0  0
  140.9730   70.9660  226.8990 C   0  0  0  0  0  0  0  0  0  0  0  0
  140.4030   70.4840  225.7370 C   0  0  0  0  0  0  0  0  0  0  0  0
  140.4620   71.2430  224.6380 N   0  0  0  0  0  0  0  0  0  0  0  0
  139.5670   73.4740  223.3460 H   0  0  0  0  0  0  0  0  0  0  0  0
  140.8500   73.8780  220.8031 H   0  0  0  0  0  0  0  0  0  0  0  0
  139.1233   73.4631  220.4525 H   0  0  0  0  0  0  0  0  0  0  0  0
  138.8263   75.7149  218.5313 H   0  0  0  0  0  0  0  0  0  0  0  0
  137.5298   75.2382  219.6299 H   0  0  0  0  0  0  0  0  0  0  0  0
  137.7959   77.7169  218.1263 H   0  0  0  0  0  0  0  0  0  0  0  0
  138.1053   79.3264  219.9460 H   0  0  0  0  0  0  0  0  0  0  0  0
  137.4748   78.2996  221.1724 H   0  0  0  0  0  0  0  0  0  0  0  0
  140.2051   77.7667  219.5633 H   0  0  0  0  0  0  0  0  0  0  0  0
  139.3178   77.7704  223.1574 H   0  0  0  0  0  0  0  0  0  0  0  0
  140.7156   79.0674  224.6934 H   0  0  0  0  0  0  0  0  0  0  0  0
  142.9253   80.5542  221.3423 H   0  0  0  0  0  0  0  0  0  0  0  0
  141.5159   79.2513  219.8145 H   0  0  0  0  0  0  0  0  0  0  0  0
  138.8631   69.2279  222.5015 H   0  0  0  0  0  0  0  0  0  0  0  0
  138.7486   67.8146  224.5479 H   0  0  0  0  0  0  0  0  0  0  0  0
  139.2864   67.5102  226.9386 H   0  0  0  0  0  0  0  0  0  0  0  0
  141.4290   70.6615  229.0005 H   0  0  0  0  0  0  0  0  0  0  0  0
  141.4522   71.9559  226.8782 H   0  0  0  0  0  0  0  0  0  0  0  0
  1  2  2  0
  2  3  1  0
  3  4  1  0
  4  5  1  0
  5  6  2  0
  5  7  1  0
  7  8  1  0
  8  9  1  0
  9 10  1  0
  9 11  1  0
 11 12  1  0
 12 13  1  0
 13 14  2  0
 14 15  1  0
 15 16  2  0
 16 17  1  0
 16 18  1  0
 18 19  2  0
  2 20  1  0
 20 21  2  0
 21 22  1  0
 22 23  2  0
 23 24  1  0
 24 25  2  0
 25 26  1  0
 25 27  1  0
 27 28  2  0
 28 29  1  0
 29 30  2  0
 12  7  1  0
 19 13  1  0
 30 20  1  0
 29 23  1  0
  3 31  1  0
  4 32  1  0
  4 33  1  0
  8 34  1  0
  8 35  1  0
  9 36  1  6
 11 37  1  0
 11 38  1  0
 12 39  1  6
 14 40  1  0
 15 41  1  0
 18 42  1  0
 19 43  1  0
 21 44  1  0
 22 45  1  0
 24 46  1  0
 27 47  1  0
 28 48  1  0
M  END
>  <smiles>  (45) 
O=C(NCC(=O)N1C[C@@H](F)C[C@H]1c1ccc(Cl)cc1)c1ccc2cc(F)ccc2n1

>  <score_type>  (45) 
oracle

>  <origin>  (45) 
autodockgpu

>  <m_score__min__energy>  (45) 
-8.8800000000000008

>  <m_primary>  (45) 
energy

>  <rmsd>  (45) 
1.765763837006274

>  <m_score__min__rmsd>  (45) 
1.765763837006274

>  <meeko>  (45) 
{"free_energy": -8.14, "intermolecular_energy": -9.63, "internal_energy": -1.81, "cluster_size": 22, "cluster_id": 1, "rank_in_cluster": 17}

>  <energy>  (45) 
-7.94

>  <cluster_rmsd>  (45) 
1.67

>  <cluster>  (45) 
3

$$$$

     RDKit          3D

 48 51  0  0  0  0  0  0  0  0999 V2000
  141.3490   71.5490  221.4110 O   0  0  0  0  0  0  0  0  0  0  0  0
  140.6620   72.0240  222.3610 C   0  0  0  0  0  0  0  0  0  0  0  0
  140.1380   73.3480  222.3480 N   0  0  0  0  0  0  0  0  0  0  0  0
  140.4180   74.1780  221.1730 C   0  0  0  0  0  0  0  0  0  0  0  0
  140.5500   75.5940  221.5400 C   0  0  0  0  0  0  0  0  0  0  0  0
  139.8160   75.9770  222.5290 O   0  0  0  0  0  0  0  0  0  0  0  0
  141.3580   76.5810  220.9710 N   0  0  0  0  0  0  0  0  0  0  0  0
  142.2860   76.1820  219.8490 C   0  0  0  0  0  0  0  0  0  0  0  0
  142.3890   77.3980  218.9750 C   0  0  1  0  0  0  0  0  0  0  0  0
  142.0480   77.1530  217.6640 F   0  0  0  0  0  0  0  0  0  0  0  0
  141.4130   78.3960  219.6170 C   0  0  0  0  0  0  0  0  0  0  0  0
  141.5990   77.9670  221.0870 C   0  0  1  0  0  0  0  0  0  0  0  0
  140.8170   78.7900  221.9830 C   0  0  0  0  0  0  0  0  0  0  0  0
  141.2670   79.5560  223.0180 C   0  0  0  0  0  0  0  0  0  0  0  0
  140.4540   80.3080  223.8450 C   0  0  0  0  0  0  0  0  0  0  0  0
  139.0920   80.3110  223.6390 C   0  0  0  0  0  0  0  0  0  0  0  0
  138.0040   81.2400  224.6470 Cl  0  0  0  0  0  0  0  0  0  0  0  0
  138.5940   79.5500  222.6020 C   0  0  0  0  0  0  0  0  0  0  0  0
  139.4200   78.8060  221.7880 C   0  0  0  0  0  0  0  0  0  0  0  0
  140.3790   71.1870  223.5450 C   0  0  0  0  0  0  0  0  0  0  0  0
  139.6220   70.0360  223.4120 C   0  0  0  0  0  0  0  0  0  0  0  0
  139.3480   69.2380  224.5220 C   0  0  0  0  0  0  0  0  0  0  0  0
  139.8310   69.5900  225.7580 C   0  0  0  0  0  0  0  0  0  0  0  0
  139.5930   68.8420  226.8890 C   0  0  0  0  0  0  0  0  0  0  0  0
  140.1130   69.2620  228.0980 C   0  0  0  0  0  0  0  0  0  0  0  0
  139.9120   68.5630  229.2520 F   0  0  0  0  0  0  0  0  0  0  0  0
  140.8730   70.4210  228.2150 C   0  0  0  0  0  0  0  0  0  0  0  0
  141.0850   71.1400  227.0550 C   0  0  0  0  0  0  0  0  0  0  0  0
  140.5820   70.7510  225.8300 C   0  0  0  0  0  0  0  0  0  0  0  0
  140.8430   71.5150  224.7640 N   0  0  0  0  0  0  0  0  0  0  0  0
  139.5710   73.7070  223.1570 H   0  0  0  0  0  0  0  0  0  0  0  0
  141.3563   73.8388  220.7099 H   0  0  0  0  0  0  0  0  0  0  0  0
  139.5787   74.0782  220.4691 H   0  0  0  0  0  0  0  0  0  0  0  0
  143.2745   75.9063  220.2451 H   0  0  0  0  0  0  0  0  0  0  0  0
  141.9118   75.3078  219.2961 H   0  0  0  0  0  0  0  0  0  0  0  0
  143.4242   77.7663  218.9231 H   0  0  0  0  0  0  0  0  0  0  0  0
  141.7138   79.4403  219.4469 H   0  0  0  0  0  0  0  0  0  0  0  0
  140.3815   78.3742  219.2356 H   0  0  0  0  0  0  0  0  0  0  0  0
  142.5729   78.1247  221.5735 H   0  0  0  0  0  0  0  0  0  0  0  0
  142.3504   79.5767  223.2074 H   0  0  0  0  0  0  0  0  0  0  0  0
  140.8917   80.9001  224.6622 H   0  0  0  0  0  0  0  0  0  0  0  0
  137.5092   79.5367  222.4201 H   0  0  0  0  0  0  0  0  0  0  0  0
  138.9821   78.2136  220.9711 H   0  0  0  0  0  0  0  0  0  0  0  0
  139.2338   69.7488  222.4237 H   0  0  0  0  0  0  0  0  0  0  0  0
  138.7444   68.3256  224.4073 H   0  0  0  0  0  0  0  0  0  0  0  0
  138.9955   67.9203  226.8307 H   0  0  0  0  0  0  0  0  0  0  0  0
  141.2840   70.7481  229.1815 H   0  0  0  0  0  0  0  0  0  0  0  0
  141.6808   72.0630  227.1098 H   0  0  0  0  0  0  0  0  0  0  0  0
  1  2  2  0
  2  3  1  0
  3  4  1  0
  4  5  1  0
  5  6  2  0
  5  7  1  0
  7  8  1  0
  8  9  1  0
  9 10  1  0
  9 11  1  0
 11 12  1  0
 12 13  1  0
 13 14  2  0
 14 15  1  0
 15 16  2  0
 16 17  1  0
 16 18  1  0
 18 19  2  0
  2 20  1  0
 20 21  2  0
 21 22  1  0
 22 23  2  0
 23 24  1  0
 24 25  2  0
 25 26  1  0
 25 27  1  0
 27 28  2  0
 28 29  1  0
 29 30  2  0
 12  7  1  0
 19 13  1  0
 30 20  1  0
 29 23  1  0
  3 31  1  0
  4 32  1  0
  4 33  1  0
  8 34  1  0
  8 35  1  0
  9 36  1  6
 11 37  1  0
 11 38  1  0
 12 39  1  1
 14 40  1  0
 15 41  1  0
 18 42  1  0
 19 43  1  0
 21 44  1  0
 22 45  1  0
 24 46  1  0
 27 47  1  0
 28 48  1  0
M  END
>  <smiles>  (46) 
O=C(NCC(=O)N1C[C@@H](F)C[C@H]1c1ccc(Cl)cc1)c1ccc2cc(F)ccc2n1

>  <score_type>  (46) 
oracle

>  <origin>  (46) 
autodockgpu

>  <m_score__min__energy>  (46) 
-8.8800000000000008

>  <m_primary>  (46) 
energy

>  <rmsd>  (46) 
2.059361731098426

>  <m_score__min__rmsd>  (46) 
2.059361731098426

>  <meeko>  (46) 
{"free_energy": -8.58, "intermolecular_energy": -10.07, "internal_energy": -1.56, "cluster_size": 18, "cluster_id": 2, "rank_in_cluster": 6}

>  <energy>  (46) 
-7.93

>  <cluster_rmsd>  (46) 
1.36

>  <cluster>  (46) 
3

$$$$

     RDKit          3D

 48 51  0  0  0  0  0  0  0  0999 V2000
  140.9960   71.1760  221.4340 O   0  0  0  0  0  0  0  0  0  0  0  0
  140.4440   71.6800  222.4550 C   0  0  0  0  0  0  0  0  0  0  0  0
  140.0110   73.0350  222.5080 N   0  0  0  0  0  0  0  0  0  0  0  0
  140.2220   73.8630  221.3180 C   0  0  0  0  0  0  0  0  0  0  0  0
  140.3330   75.2850  221.6710 C   0  0  0  0  0  0  0  0  0  0  0  0
  139.5850   75.6690  222.6470 O   0  0  0  0  0  0  0  0  0  0  0  0
  141.1350   76.2750  221.0980 N   0  0  0  0  0  0  0  0  0  0  0  0
  142.1750   75.8540  220.0890 C   0  0  0  0  0  0  0  0  0  0  0  0
  142.2900   77.0110  219.1390 C   0  0  1  0  0  0  0  0  0  0  0  0
  142.0750   76.6570  217.8260 F   0  0  0  0  0  0  0  0  0  0  0  0
  141.2130   77.9930  219.6240 C   0  0  0  0  0  0  0  0  0  0  0  0
  141.2940   77.6770  221.1320 C   0  0  1  0  0  0  0  0  0  0  0  0
  140.3970   78.5140  221.8980 C   0  0  0  0  0  0  0  0  0  0  0  0
  139.0940   78.8110  221.6250 C   0  0  0  0  0  0  0  0  0  0  0  0
  138.3010   79.6360  222.4000 C   0  0  0  0  0  0  0  0  0  0  0  0
  138.8270   80.2130  223.5350 C   0  0  0  0  0  0  0  0  0  0  0  0
  137.8800   81.2670  224.5620 Cl  0  0  0  0  0  0  0  0  0  0  0  0
  140.1410   79.9380  223.8500 C   0  0  0  0  0  0  0  0  0  0  0  0
  140.9170   79.1140  223.0640 C   0  0  0  0  0  0  0  0  0  0  0  0
  140.2300   70.8440  223.6550 C   0  0  0  0  0  0  0  0  0  0  0  0
  139.5250   69.6580  223.5530 C   0  0  0  0  0  0  0  0  0  0  0  0
  139.3170   68.8610  224.6790 C   0  0  0  0  0  0  0  0  0  0  0  0
  139.8130   69.2500  225.8980 C   0  0  0  0  0  0  0  0  0  0  0  0
  139.6390   68.5050  227.0420 C   0  0  0  0  0  0  0  0  0  0  0  0
  140.1690   68.9630  228.2330 C   0  0  0  0  0  0  0  0  0  0  0  0
  140.0290   68.2690  229.3990 F   0  0  0  0  0  0  0  0  0  0  0  0
  140.8760   70.1580  228.3190 C   0  0  0  0  0  0  0  0  0  0  0  0
  141.0250   70.8720  227.1460 C   0  0  0  0  0  0  0  0  0  0  0  0
  140.5100   70.4450  225.9380 C   0  0  0  0  0  0  0  0  0  0  0  0
  140.7090   71.2080  224.8570 N   0  0  0  0  0  0  0  0  0  0  0  0
  139.5550   73.4170  223.3750 H   0  0  0  0  0  0  0  0  0  0  0  0
  141.1490   73.5441  220.8191 H   0  0  0  0  0  0  0  0  0  0  0  0
  139.3577   73.7373  220.6493 H   0  0  0  0  0  0  0  0  0  0  0  0
  143.1386   75.6638  220.5842 H   0  0  0  0  0  0  0  0  0  0  0  0
  141.8955   74.9236  219.5731 H   0  0  0  0  0  0  0  0  0  0  0  0
  143.3056   77.4334  219.1447 H   0  0  0  0  0  0  0  0  0  0  0  0
  141.4734   79.0387  219.4032 H   0  0  0  0  0  0  0  0  0  0  0  0
  140.2204   77.8862  219.1620 H   0  0  0  0  0  0  0  0  0  0  0  0
  142.2131   77.9226  221.6842 H   0  0  0  0  0  0  0  0  0  0  0  0
  138.6437   78.3634  220.7268 H   0  0  0  0  0  0  0  0  0  0  0  0
  137.2572   79.8305  222.1126 H   0  0  0  0  0  0  0  0  0  0  0  0
  140.5812   80.3880  224.7521 H   0  0  0  0  0  0  0  0  0  0  0  0
  141.9611   78.9206  223.3511 H   0  0  0  0  0  0  0  0  0  0  0  0
  139.1260   69.3415  222.5780 H   0  0  0  0  0  0  0  0  0  0  0  0
  138.7548   67.9197  224.5896 H   0  0  0  0  0  0  0  0  0  0  0  0
  139.0843   67.5557  227.0086 H   0  0  0  0  0  0  0  0  0  0  0  0
  141.2945   70.5156  229.2713 H   0  0  0  0  0  0  0  0  0  0  0  0
  141.5781   71.8224  227.1754 H   0  0  0  0  0  0  0  0  0  0  0  0
  1  2  2  0
  2  3  1  0
  3  4  1  0
  4  5  1  0
  5  6  2  0
  5  7  1  0
  7  8  1  0
  8  9  1  0
  9 10  1  0
  9 11  1  0
 11 12  1  0
 12 13  1  0
 13 14  2  0
 14 15  1  0
 15 16  2  0
 16 17  1  0
 16 18  1  0
 18 19  2  0
  2 20  1  0
 20 21  2  0
 21 22  1  0
 22 23  2  0
 23 24  1  0
 24 25  2  0
 25 26  1  0
 25 27  1  0
 27 28  2  0
 28 29  1  0
 29 30  2  0
 12  7  1  0
 19 13  1  0
 30 20  1  0
 29 23  1  0
  3 31  1  0
  4 32  1  0
  4 33  1  0
  8 34  1  0
  8 35  1  0
  9 36  1  6
 11 37  1  0
 11 38  1  0
 12 39  1  1
 14 40  1  0
 15 41  1  0
 18 42  1  0
 19 43  1  0
 21 44  1  0
 22 45  1  0
 24 46  1  0
 27 47  1  0
 28 48  1  0
M  END
>  <smiles>  (47) 
O=C(NCC(=O)N1C[C@@H](F)C[C@H]1c1ccc(Cl)cc1)c1ccc2cc(F)ccc2n1

>  <score_type>  (47) 
oracle

>  <origin>  (47) 
autodockgpu

>  <m_score__min__energy>  (47) 
-8.8800000000000008

>  <m_primary>  (47) 
energy

>  <rmsd>  (47) 
1.9241211446557187

>  <m_score__min__rmsd>  (47) 
1.9241211446557187

>  <meeko>  (47) 
{"free_energy": -8.34, "intermolecular_energy": -9.84, "internal_energy": -1.6, "cluster_size": 18, "cluster_id": 2, "rank_in_cluster": 15}

>  <energy>  (47) 
-8.02

>  <cluster_rmsd>  (47) 
0.0

>  <cluster>  (47) 
4

$$$$

     RDKit          3D

 48 51  0  0  0  0  0  0  0  0999 V2000
  137.8280   70.3840  221.9360 O   0  0  0  0  0  0  0  0  0  0  0  0
  138.5170   70.9600  222.8280 C   0  0  0  0  0  0  0  0  0  0  0  0
  138.8670   72.3380  222.7630 N   0  0  0  0  0  0  0  0  0  0  0  0
  138.3960   73.1060  221.6060 C   0  0  0  0  0  0  0  0  0  0  0  0
  139.3020   74.2200  221.3020 C   0  0  0  0  0  0  0  0  0  0  0  0
  140.1140   74.5440  222.2490 O   0  0  0  0  0  0  0  0  0  0  0  0
  139.4080   74.9760  220.1320 N   0  0  0  0  0  0  0  0  0  0  0  0
  138.8020   74.4190  218.8670 C   0  0  0  0  0  0  0  0  0  0  0  0
  138.3630   75.6210  218.0810 C   0  0  1  0  0  0  0  0  0  0  0  0
  137.0280   75.5900  217.7450 F   0  0  0  0  0  0  0  0  0  0  0  0
  138.6650   76.8020  219.0150 C   0  0  0  0  0  0  0  0  0  0  0  0
  139.9180   76.2200  219.7030 C   0  0  1  0  0  0  0  0  0  0  0  0
  140.4920   77.1590  220.6420 C   0  0  0  0  0  0  0  0  0  0  0  0
  141.6830   77.8150  220.5430 C   0  0  0  0  0  0  0  0  0  0  0  0
  142.1750   78.6890  221.4940 C   0  0  0  0  0  0  0  0  0  0  0  0
  141.4380   78.9420  222.6300 C   0  0  0  0  0  0  0  0  0  0  0  0
  142.0000   80.0380  223.8740 Cl  0  0  0  0  0  0  0  0  0  0  0  0
  140.2260   78.3000  222.7700 C   0  0  0  0  0  0  0  0  0  0  0  0
  139.7520   77.4310  221.8120 C   0  0  0  0  0  0  0  0  0  0  0  0
  138.9910   70.1870  223.9940 C   0  0  0  0  0  0  0  0  0  0  0  0
  138.8060   68.8160  224.0360 C   0  0  0  0  0  0  0  0  0  0  0  0
  139.2480   68.0760  225.1310 C   0  0  0  0  0  0  0  0  0  0  0  0
  139.8740   68.7040  226.1790 C   0  0  0  0  0  0  0  0  0  0  0  0
  140.3310   68.0260  227.2860 C   0  0  0  0  0  0  0  0  0  0  0  0
  140.9510   68.7300  228.3000 C   0  0  0  0  0  0  0  0  0  0  0  0
  141.4250   68.1130  229.4210 F   0  0  0  0  0  0  0  0  0  0  0  0
  141.1300   70.1090  228.2440 C   0  0  0  0  0  0  0  0  0  0  0  0
  140.6550   70.7470  227.1150 C   0  0  0  0  0  0  0  0  0  0  0  0
  140.0310   70.0760  226.0820 C   0  0  0  0  0  0  0  0  0  0  0  0
  139.6060   70.7840  225.0300 N   0  0  0  0  0  0  0  0  0  0  0  0
  139.4410   72.7810  223.5240 H   0  0  0  0  0  0  0  0  0  0  0  0
  138.3407   72.4402  220.7322 H   0  0  0  0  0  0  0  0  0  0  0  0
  137.4045   73.5191  221.8432 H   0  0  0  0  0  0  0  0  0  0  0  0
  139.5488   73.8406  218.3032 H   0  0  0  0  0  0  0  0  0  0  0  0
  137.9657   73.7359  219.0768 H   0  0  0  0  0  0  0  0  0  0  0  0
  138.8860   75.6796  217.1150 H   0  0  0  0  0  0  0  0  0  0  0  0
  138.8860   77.7257  218.4600 H   0  0  0  0  0  0  0  0  0  0  0  0
  137.8471   77.1091  219.6834 H   0  0  0  0  0  0  0  0  0  0  0  0
  140.8279   76.0505  219.1085 H   0  0  0  0  0  0  0  0  0  0  0  0
  142.2937   77.6367  219.6456 H   0  0  0  0  0  0  0  0  0  0  0  0
  143.1484   79.1792  221.3448 H   0  0  0  0  0  0  0  0  0  0  0  0
  139.6218   78.4865  223.6701 H   0  0  0  0  0  0  0  0  0  0  0  0
  138.7790   76.9403  221.9619 H   0  0  0  0  0  0  0  0  0  0  0  0
  138.3063   68.3067  223.1988 H   0  0  0  0  0  0  0  0  0  0  0  0
  139.0951   66.9870  225.1556 H   0  0  0  0  0  0  0  0  0  0  0  0
  140.2040   66.9360  227.3625 H   0  0  0  0  0  0  0  0  0  0  0  0
  141.6240   70.6619  229.0565 H   0  0  0  0  0  0  0  0  0  0  0  0
  140.7791   71.8371  227.0352 H   0  0  0  0  0  0  0  0  0  0  0  0
  1  2  2  0
  2  3  1  0
  3  4  1  0
  4  5  1  0
  5  6  2  0
  5  7  1  0
  7  8  1  0
  8  9  1  0
  9 10  1  0
  9 11  1  0
 11 12  1  0
 12 13  1  0
 13 14  2  0
 14 15  1  0
 15 16  2  0
 16 17  1  0
 16 18  1  0
 18 19  2  0
  2 20  1  0
 20 21  2  0
 21 22  1  0
 22 23  2  0
 23 24  1  0
 24 25  2  0
 25 26  1  0
 25 27  1  0
 27 28  2  0
 28 29  1  0
 29 30  2  0
 12  7  1  0
 19 13  1  0
 30 20  1  0
 29 23  1  0
  3 31  1  0
  4 32  1  0
  4 33  1  0
  8 34  1  0
  8 35  1  0
  9 36  1  6
 11 37  1  0
 11 38  1  0
 12 39  1  6
 14 40  1  0
 15 41  1  0
 18 42  1  0
 19 43  1  0
 21 44  1  0
 22 45  1  0
 24 46  1  0
 27 47  1  0
 28 48  1  0
M  END
>  <smiles>  (48) 
O=C(NCC(=O)N1C[C@@H](F)C[C@H]1c1ccc(Cl)cc1)c1ccc2cc(F)ccc2n1

>  <score_type>  (48) 
oracle

>  <origin>  (48) 
autodockgpu

>  <m_score__min__energy>  (48) 
-8.8800000000000008

>  <m_primary>  (48) 
energy

>  <rmsd>  (48) 
1.2310182718533722

>  <m_score__min__rmsd>  (48) 
1.2310182718533722

>  <meeko>  (48) 
{"free_energy": -7.69, "intermolecular_energy": -9.18, "internal_energy": -1.9, "cluster_size": 22, "cluster_id": 1, "rank_in_cluster": 22}

>  <energy>  (48) 
-8.0

>  <cluster_rmsd>  (48) 
0.0

>  <cluster>  (48) 
5

$$$$

     RDKit          3D

 48 51  0  0  0  0  0  0  0  0999 V2000
  141.3680   71.6810  221.4680 O   0  0  0  0  0  0  0  0  0  0  0  0
  140.5840   72.0690  222.3830 C   0  0  0  0  0  0  0  0  0  0  0  0
  139.9310   73.3330  222.3540 N   0  0  0  0  0  0  0  0  0  0  0  0
  140.1910   74.2080  221.2070 C   0  0  0  0  0  0  0  0  0  0  0  0
  140.4010   75.5970  221.6320 C   0  0  0  0  0  0  0  0  0  0  0  0
  139.7460   75.9560  222.6830 O   0  0  0  0  0  0  0  0  0  0  0  0
  141.2080   76.5820  221.0590 N   0  0  0  0  0  0  0  0  0  0  0  0
  142.1490   76.1770  219.9500 C   0  0  0  0  0  0  0  0  0  0  0  0
  142.2530   77.3840  219.0640 C   0  0  1  0  0  0  0  0  0  0  0  0
  141.9250   77.1220  217.7520 F   0  0  0  0  0  0  0  0  0  0  0  0
  141.2660   78.3830  219.6860 C   0  0  0  0  0  0  0  0  0  0  0  0
  141.4410   77.9710  221.1620 C   0  0  1  0  0  0  0  0  0  0  0  0
  140.6460   78.8000  222.0420 C   0  0  0  0  0  0  0  0  0  0  0  0
  141.0890   79.6440  223.0170 C   0  0  0  0  0  0  0  0  0  0  0  0
  140.2650   80.3950  223.8330 C   0  0  0  0  0  0  0  0  0  0  0  0
  138.8980   80.3150  223.6790 C   0  0  0  0  0  0  0  0  0  0  0  0
  137.7960   81.2390  224.6770 Cl  0  0  0  0  0  0  0  0  0  0  0  0
  138.4070   79.4740  222.7030 C   0  0  0  0  0  0  0  0  0  0  0  0
  139.2450   78.7310  221.8990 C   0  0  0  0  0  0  0  0  0  0  0  0
  140.3210   71.1880  223.5390 C   0  0  0  0  0  0  0  0  0  0  0  0
  139.5670   70.0390  223.3740 C   0  0  0  0  0  0  0  0  0  0  0  0
  139.3120   69.2000  224.4580 C   0  0  0  0  0  0  0  0  0  0  0  0
  139.8100   69.5080  225.6990 C   0  0  0  0  0  0  0  0  0  0  0  0
  139.5910   68.7180  226.8050 C   0  0  0  0  0  0  0  0  0  0  0  0
  140.1270   69.0960  228.0210 C   0  0  0  0  0  0  0  0  0  0  0  0
  139.9440   68.3540  229.1510 F   0  0  0  0  0  0  0  0  0  0  0  0
  140.8840   70.2540  228.1710 C   0  0  0  0  0  0  0  0  0  0  0  0
  141.0770   71.0160  227.0340 C   0  0  0  0  0  0  0  0  0  0  0  0
  140.5580   70.6690  225.8030 C   0  0  0  0  0  0  0  0  0  0  0  0
  140.8010   71.4730  224.7620 N   0  0  0  0  0  0  0  0  0  0  0  0
  139.2860   73.6200  223.1320 H   0  0  0  0  0  0  0  0  0  0  0  0
  141.0909   73.8538  220.6830 H   0  0  0  0  0  0  0  0  0  0  0  0
  139.3155   74.1773  220.5417 H   0  0  0  0  0  0  0  0  0  0  0  0
  143.1354   75.9117  220.3583 H   0  0  0  0  0  0  0  0  0  0  0  0
  141.7853   75.2947  219.4029 H   0  0  0  0  0  0  0  0  0  0  0  0
  143.2864   77.7581  219.0174 H   0  0  0  0  0  0  0  0  0  0  0  0
  141.5625   79.4271  219.5073 H   0  0  0  0  0  0  0  0  0  0  0  0
  140.2381   78.3513  219.2956 H   0  0  0  0  0  0  0  0  0  0  0  0
  142.4097   78.1390  221.6554 H   0  0  0  0  0  0  0  0  0  0  0  0
  142.1755   79.7329  223.1638 H   0  0  0  0  0  0  0  0  0  0  0  0
  140.6976   81.0529  224.6011 H   0  0  0  0  0  0  0  0  0  0  0  0
  137.3190   79.3938  222.5622 H   0  0  0  0  0  0  0  0  0  0  0  0
  138.8126   78.0721  221.1317 H   0  0  0  0  0  0  0  0  0  0  0  0
  139.1664   69.7862  222.3812 H   0  0  0  0  0  0  0  0  0  0  0  0
  138.7106   68.2896  224.3181 H   0  0  0  0  0  0  0  0  0  0  0  0
  138.9962   67.7965  226.7215 H   0  0  0  0  0  0  0  0  0  0  0  0
  141.3066   70.5475  229.1433 H   0  0  0  0  0  0  0  0  0  0  0  0
  141.6700   71.9391  227.1137 H   0  0  0  0  0  0  0  0  0  0  0  0
  1  2  2  0
  2  3  1  0
  3  4  1  0
  4  5  1  0
  5  6  2  0
  5  7  1  0
  7  8  1  0
  8  9  1  0
  9 10  1  0
  9 11  1  0
 11 12  1  0
 12 13  1  0
 13 14  2  0
 14 15  1  0
 15 16  2  0
 16 17  1  0
 16 18  1  0
 18 19  2  0
  2 20  1  0
 20 21  2  0
 21 22  1  0
 22 23  2  0
 23 24  1  0
 24 25  2  0
 25 26  1  0
 25 27  1  0
 27 28  2  0
 28 29  1  0
 29 30  2  0
 12  7  1  0
 19 13  1  0
 30 20  1  0
 29 23  1  0
  3 31  1  0
  4 32  1  0
  4 33  1  0
  8 34  1  0
  8 35  1  0
  9 36  1  6
 11 37  1  0
 11 38  1  0
 12 39  1  1
 14 40  1  0
 15 41  1  0
 18 42  1  0
 19 43  1  0
 21 44  1  0
 22 45  1  0
 24 46  1  0
 27 47  1  0
 28 48  1  0
M  END
>  <smiles>  (49) 
O=C(NCC(=O)N1C[C@@H](F)C[C@H]1c1ccc(Cl)cc1)c1ccc2cc(F)ccc2n1

>  <score_type>  (49) 
oracle

>  <origin>  (49) 
autodockgpu

>  <m_score__min__energy>  (49) 
-8.8800000000000008

>  <m_primary>  (49) 
energy

>  <rmsd>  (49) 
2.005340350977813

>  <m_score__min__rmsd>  (49) 
2.005340350977813

>  <meeko>  (49) 
{"free_energy": -8.65, "intermolecular_energy": -10.15, "internal_energy": -1.49, "cluster_size": 18, "cluster_id": 2, "rank_in_cluster": 2}

>  <energy>  (49) 
-7.88

>  <cluster_rmsd>  (49) 
0.55

>  <cluster>  (49) 
5

$$$$

     RDKit          3D

 48 51  0  0  0  0  0  0  0  0999 V2000
  138.7100   70.7830  221.5820 O   0  0  0  0  0  0  0  0  0  0  0  0
  139.1800   71.3140  222.6310 C   0  0  0  0  0  0  0  0  0  0  0  0
  139.5040   72.6980  222.7160 N   0  0  0  0  0  0  0  0  0  0  0  0
  139.2740   73.5250  221.5270 C   0  0  0  0  0  0  0  0  0  0  0  0
  139.4070   74.9540  221.8380 C   0  0  0  0  0  0  0  0  0  0  0  0
  140.5450   75.3060  222.3310 O   0  0  0  0  0  0  0  0  0  0  0  0
  138.4760   75.9820  221.6740 N   0  0  0  0  0  0  0  0  0  0  0  0
  137.0680   75.6110  221.2740 C   0  0  0  0  0  0  0  0  0  0  0  0
  136.1940   76.6530  221.9100 C   0  0  1  0  0  0  0  0  0  0  0  0
  135.2160   76.1190  222.7190 F   0  0  0  0  0  0  0  0  0  0  0  0
  137.1740   77.5070  222.7270 C   0  0  0  0  0  0  0  0  0  0  0  0
  138.3970   77.3860  221.7960 C   0  0  1  0  0  0  0  0  0  0  0  0
  139.5170   78.1580  222.2870 C   0  0  0  0  0  0  0  0  0  0  0  0
  139.5710   78.9280  223.4110 C   0  0  0  0  0  0  0  0  0  0  0  0
  140.6780   79.6540  223.8090 C   0  0  0  0  0  0  0  0  0  0  0  0
  141.8240   79.6200  223.0450 C   0  0  0  0  0  0  0  0  0  0  0  0
  143.2610   80.5150  223.4900 Cl  0  0  0  0  0  0  0  0  0  0  0  0
  141.8130   78.8530  221.8990 C   0  0  0  0  0  0  0  0  0  0  0  0
  140.7000   78.1370  221.5180 C   0  0  0  0  0  0  0  0  0  0  0  0
  139.4110   70.4820  223.8280 C   0  0  0  0  0  0  0  0  0  0  0  0
  139.0250   69.1530  223.8310 C   0  0  0  0  0  0  0  0  0  0  0  0
  139.2370   68.3560  224.9560 C   0  0  0  0  0  0  0  0  0  0  0  0
  139.8340   68.8880  226.0710 C   0  0  0  0  0  0  0  0  0  0  0  0
  140.0680   68.1510  227.2100 C   0  0  0  0  0  0  0  0  0  0  0  0
  140.6740   68.7580  228.2940 C   0  0  0  0  0  0  0  0  0  0  0  0
  140.9320   68.0800  229.4490 F   0  0  0  0  0  0  0  0  0  0  0  0
  141.0570   70.0960  228.2770 C   0  0  0  0  0  0  0  0  0  0  0  0
  140.8010   70.7960  227.1130 C   0  0  0  0  0  0  0  0  0  0  0  0
  140.1980   70.2220  226.0110 C   0  0  0  0  0  0  0  0  0  0  0  0
  139.9940   70.9840  224.9310 N   0  0  0  0  0  0  0  0  0  0  0  0
  139.8920   73.1030  223.6040 H   0  0  0  0  0  0  0  0  0  0  0  0
  140.0104   73.2560  220.7554 H   0  0  0  0  0  0  0  0  0  0  0  0
  138.2504   73.3412  221.1685 H   0  0  0  0  0  0  0  0  0  0  0  0
  136.9593   75.6312  220.1796 H   0  0  0  0  0  0  0  0  0  0  0  0
  136.8012   74.5946  221.5991 H   0  0  0  0  0  0  0  0  0  0  0  0
  135.6386   77.2252  221.1523 H   0  0  0  0  0  0  0  0  0  0  0  0
  136.8321   78.5472  222.8318 H   0  0  0  0  0  0  0  0  0  0  0  0
  137.3303   77.1953  223.7703 H   0  0  0  0  0  0  0  0  0  0  0  0
  138.3535   77.8339  220.7923 H   0  0  0  0  0  0  0  0  0  0  0  0
  138.6726   78.9747  224.0441 H   0  0  0  0  0  0  0  0  0  0  0  0
  140.6441   80.2549  224.7297 H   0  0  0  0  0  0  0  0  0  0  0  0
  142.7166   78.8120  221.2730 H   0  0  0  0  0  0  0  0  0  0  0  0
  140.7338   77.5372  220.5965 H   0  0  0  0  0  0  0  0  0  0  0  0
  138.5471   68.7217  222.9390 H   0  0  0  0  0  0  0  0  0  0  0  0
  138.9256   67.3010  224.9493 H   0  0  0  0  0  0  0  0  0  0  0  0
  139.7761   67.0915  227.2569 H   0  0  0  0  0  0  0  0  0  0  0  0
  141.5382   70.5714  229.1444 H   0  0  0  0  0  0  0  0  0  0  0  0
  141.0900   71.8561  227.0621 H   0  0  0  0  0  0  0  0  0  0  0  0
  1  2  2  0
  2  3  1  0
  3  4  1  0
  4  5  1  0
  5  6  2  0
  5  7  1  0
  7  8  1  0
  8  9  1  0
  9 10  1  0
  9 11  1  0
 11 12  1  0
 12 13  1  0
 13 14  2  0
 14 15  1  0
 15 16  2  0
 16 17  1  0
 16 18  1  0
 18 19  2  0
  2 20  1  0
 20 21  2  0
 21 22  1  0
 22 23  2  0
 23 24  1  0
 24 25  2  0
 25 26  1  0
 25 27  1  0
 27 28  2  0
 28 29  1  0
 29 30  2  0
 12  7  1  0
 19 13  1  0
 30 20  1  0
 29 23  1  0
  3 31  1  0
  4 32  1  0
  4 33  1  0
  8 34  1  0
  8 35  1  0
  9 36  1  6
 11 37  1  0
 11 38  1  0
 12 39  1  6
 14 40  1  0
 15 41  1  0
 18 42  1  0
 19 43  1  0
 21 44  1  0
 22 45  1  0
 24 46  1  0
 27 47  1  0
 28 48  1  0
M  END
>  <smiles>  (50) 
O=C(NCC(=O)N1C[C@@H](F)C[C@H]1c1ccc(Cl)cc1)c1ccc2cc(F)ccc2n1

>  <score_type>  (50) 
oracle

>  <origin>  (50) 
autodockgpu

>  <m_score__min__energy>  (50) 
-8.8800000000000008

>  <m_primary>  (50) 
energy

>  <rmsd>  (50) 
2.7458432819979057

>  <m_score__min__rmsd>  (50) 
2.7458432819979057

>  <meeko>  (50) 
{"free_energy": -8.65, "intermolecular_energy": -10.14, "internal_energy": -1.57, "cluster_size": 22, "cluster_id": 1, "rank_in_cluster": 7}

>  <energy>  (50) 
-7.85

>  <cluster_rmsd>  (50) 
0.16

>  <cluster>  (50) 
5

$$$$
