
     RDKit          3D

 52 55  0  0  0  0  0  0  0  0999 V2000
  138.7530   71.6940  220.7720 O   0  0  0  0  0  0  0  0  0  0  0  0
  138.9650   72.2380  221.8660 C   0  0  0  0  0  0  0  0  0  0  0  0
  138.9300   73.6370  222.0780 N   0  0  0  0  0  0  0  0  0  0  0  0
  138.6350   74.5600  221.0000 C   0  0  0  0  0  0  0  0  0  0  0  0
  139.6470   74.3320  219.9320 C   0  0  0  0  0  0  0  0  0  0  0  0
  139.2080   74.0950  218.7810 O   0  0  0  0  0  0  0  0  0  0  0  0
  141.0180   74.3950  220.2750 N   0  0  0  0  0  0  0  0  0  0  0  0
  141.9450   73.2530  220.3950 C   0  0  0  0  0  0  0  0  0  0  0  0
  143.0870   73.7900  219.5640 C   0  0  2  0  0  0  0  0  0  0  0  0
  144.2240   73.0580  219.8850 O   0  0  0  0  0  0  0  0  0  0  0  0
  143.2430   75.1940  220.0980 C   0  0  0  0  0  0  0  0  0  0  0  0
  141.8620   75.5380  220.5890 C   0  0  1  0  0  0  0  0  0  0  0  0
  141.3220   76.8250  220.0490 C   0  0  0  0  0  0  0  0  0  0  0  0
  141.5230   78.0030  220.8940 C   0  0  0  0  0  0  0  0  0  0  0  0
  141.8350   79.2670  220.4270 C   0  0  0  0  0  0  0  0  0  0  0  0
  142.0230   80.3400  221.2980 C   0  0  0  0  0  0  0  0  0  0  0  0
  141.9010   80.1670  222.6570 C   0  0  0  0  0  0  0  0  0  0  0  0
  142.1180   81.4530  223.8150 Cl  0  0  0  0  0  0  0  0  0  0  0  0
  141.5900   78.9140  223.1450 C   0  0  0  0  0  0  0  0  0  0  0  0
  141.4100   77.8680  222.2630 C   0  0  0  0  0  0  0  0  0  0  0  0
  139.2750   71.3910  223.0310 C   0  0  0  0  0  0  0  0  0  0  0  0
  138.9290   70.0470  223.0370 C   0  0  0  0  0  0  0  0  0  0  0  0
  139.1870   69.2030  224.0850 C   0  0  0  0  0  0  0  0  0  0  0  0
  139.8210   69.7160  225.1850 C   0  0  0  0  0  0  0  0  0  0  0  0
  140.0910   68.9000  226.2420 C   0  0  0  0  0  0  0  0  0  0  0  0
  140.7320   69.4040  227.3610 C   0  0  0  0  0  0  0  0  0  0  0  0
  141.0680   68.3380  228.7080 Cl  0  0  0  0  0  0  0  0  0  0  0  0
  141.0680   70.7280  227.3440 C   0  0  0  0  0  0  0  0  0  0  0  0
  140.8070   71.5770  226.2880 C   0  0  0  0  0  0  0  0  0  0  0  0
  140.1600   71.0590  225.1630 C   0  0  0  0  0  0  0  0  0  0  0  0
  139.8960   71.8670  224.1220 N   0  0  0  0  0  0  0  0  0  0  0  0
  139.1200   74.0350  223.0360 H   0  0  0  0  0  0  0  0  0  0  0  0
  137.6249   74.3703  220.6080 H   0  0  0  0  0  0  0  0  0  0  0  0
  138.6729   75.5999  221.3566 H   0  0  0  0  0  0  0  0  0  0  0  0
  142.2433   73.0713  221.4381 H   0  0  0  0  0  0  0  0  0  0  0  0
  141.5427   72.2804  220.0752 H   0  0  0  0  0  0  0  0  0  0  0  0
  142.9283   73.7444  218.4765 H   0  0  0  0  0  0  0  0  0  0  0  0
  144.3150   72.9390  220.8620 H   0  0  0  0  0  0  0  0  0  0  0  0
  143.9717   75.2229  220.9215 H   0  0  0  0  0  0  0  0  0  0  0  0
  143.6179   75.9006  219.3430 H   0  0  0  0  0  0  0  0  0  0  0  0
  141.8903   75.7229  221.6730 H   0  0  0  0  0  0  0  0  0  0  0  0
  141.8092   77.0162  219.0815 H   0  0  0  0  0  0  0  0  0  0  0  0
  140.2327   76.6876  219.9811 H   0  0  0  0  0  0  0  0  0  0  0  0
  141.9372   79.4297  219.3439 H   0  0  0  0  0  0  0  0  0  0  0  0
  142.2709   81.3329  220.8947 H   0  0  0  0  0  0  0  0  0  0  0  0
  141.4865   78.7505  224.2278 H   0  0  0  0  0  0  0  0  0  0  0  0
  141.1641   76.8767  222.6716 H   0  0  0  0  0  0  0  0  0  0  0  0
  138.4199   69.6370  222.1522 H   0  0  0  0  0  0  0  0  0  0  0  0
  138.8933   68.1437  224.0440 H   0  0  0  0  0  0  0  0  0  0  0  0
  139.7995   67.8399  226.2064 H   0  0  0  0  0  0  0  0  0  0  0  0
  141.5778   71.1427  228.2261 H   0  0  0  0  0  0  0  0  0  0  0  0
  141.1012   72.6361  226.3308 H   0  0  0  0  0  0  0  0  0  0  0  0
  1  2  2  0
  2  3  1  0
  3  4  1  0
  4  5  1  0
  5  6  2  0
  5  7  1  0
  7  8  1  0
  8  9  1  0
  9 10  1  0
  9 11  1  0
 11 12  1  0
 12 13  1  0
 13 14  1  0
 14 15  2  0
 15 16  1  0
 16 17  2  0
 17 18  1  0
 17 19  1  0
 19 20  2  0
  2 21  1  0
 21 22  2  0
 22 23  1  0
 23 24  2  0
 24 25  1  0
 25 26  2  0
 26 27  1  0
 26 28  1  0
 28 29  2  0
 29 30  1  0
 30 31  2  0
 12  7  1  0
 20 14  1  0
 31 21  1  0
 30 24  1  0
  3 32  1  0
  4 33  1  0
  4 34  1  0
  8 35  1  0
  8 36  1  0
  9 37  1  6
 10 38  1  0
 11 39  1  0
 11 40  1  0
 12 41  1  1
 13 42  1  0
 13 43  1  0
 15 44  1  0
 16 45  1  0
 19 46  1  0
 20 47  1  0
 22 48  1  0
 23 49  1  0
 25 50  1  0
 28 51  1  0
 29 52  1  0
M  END
>  <smiles>  (1) 
O=C(NCC(=O)N1C[C@H](O)C[C@H]1Cc1ccc(Cl)cc1)c1ccc2cc(Cl)ccc2n1

>  <score_type>  (1) 
oracle

>  <origin>  (1) 
autodockgpu

>  <m_score__min__energy>  (1) 
-8.9499999999999993

>  <m_primary>  (1) 
energy

>  <rmsd>  (1) 
2.2055391633333556

>  <m_score__min__rmsd>  (1) 
2.2055391633333556

>  <meeko>  (1) 
{"free_energy": -8.3, "intermolecular_energy": -10.39, "internal_energy": -1.72, "cluster_size": 8, "cluster_id": 1, "rank_in_cluster": 7}

>  <energy>  (1) 
-8.95

>  <cluster_rmsd>  (1) 
0.0

>  <cluster>  (1) 
1

$$$$

     RDKit          3D

 52 55  0  0  0  0  0  0  0  0999 V2000
  139.0930   72.9840  220.0750 O   0  0  0  0  0  0  0  0  0  0  0  0
  138.7330   73.5870  221.0980 C   0  0  0  0  0  0  0  0  0  0  0  0
  137.6970   73.1480  221.9560 N   0  0  0  0  0  0  0  0  0  0  0  0
  136.9610   71.9270  221.6930 C   0  0  0  0  0  0  0  0  0  0  0  0
  136.8600   71.1840  222.9790 C   0  0  0  0  0  0  0  0  0  0  0  0
  136.8560   71.8710  224.0280 O   0  0  0  0  0  0  0  0  0  0  0  0
  136.7780   69.7730  222.9390 N   0  0  0  0  0  0  0  0  0  0  0  0
  135.6160   68.9740  222.4980 C   0  0  0  0  0  0  0  0  0  0  0  0
  136.3270   68.0290  221.5570 C   0  0  2  0  0  0  0  0  0  0  0  0
  135.4960   66.9330  221.3530 O   0  0  0  0  0  0  0  0  0  0  0  0
  137.5180   67.5920  222.3750 C   0  0  0  0  0  0  0  0  0  0  0  0
  137.7570   68.7580  223.2970 C   0  0  1  0  0  0  0  0  0  0  0  0
  139.1610   69.2750  223.2810 C   0  0  0  0  0  0  0  0  0  0  0  0
  139.6530   69.8210  224.5470 C   0  0  0  0  0  0  0  0  0  0  0  0
  139.5390   69.1970  225.7750 C   0  0  0  0  0  0  0  0  0  0  0  0
  140.0240   69.7870  226.9410 C   0  0  0  0  0  0  0  0  0  0  0  0
  140.6360   71.0190  226.8990 C   0  0  0  0  0  0  0  0  0  0  0  0
  141.2710   71.8270  228.3080 Cl  0  0  0  0  0  0  0  0  0  0  0  0
  140.7600   71.6600  225.6840 C   0  0  0  0  0  0  0  0  0  0  0  0
  140.2720   71.0550  224.5440 C   0  0  0  0  0  0  0  0  0  0  0  0
  139.4160   74.8420  221.4580 C   0  0  0  0  0  0  0  0  0  0  0  0
  140.7520   75.0360  221.1350 C   0  0  0  0  0  0  0  0  0  0  0  0
  141.4470   76.1760  221.4380 C   0  0  0  0  0  0  0  0  0  0  0  0
  140.7860   77.1780  222.0980 C   0  0  0  0  0  0  0  0  0  0  0  0
  141.4530   78.3240  222.4120 C   0  0  0  0  0  0  0  0  0  0  0  0
  140.7980   79.3460  223.0790 C   0  0  0  0  0  0  0  0  0  0  0  0
  141.6730   80.8080  223.4740 Cl  0  0  0  0  0  0  0  0  0  0  0  0
  139.4830   79.1450  223.3910 C   0  0  0  0  0  0  0  0  0  0  0  0
  138.7840   77.9960  223.0850 C   0  0  0  0  0  0  0  0  0  0  0  0
  139.4540   76.9690  222.4130 C   0  0  0  0  0  0  0  0  0  0  0  0
  138.7930   75.8400  222.1030 N   0  0  0  0  0  0  0  0  0  0  0  0
  137.4410   73.7090  222.8110 H   0  0  0  0  0  0  0  0  0  0  0  0
  135.9554   72.1673  221.3174 H   0  0  0  0  0  0  0  0  0  0  0  0
  137.4737   71.3200  220.9323 H   0  0  0  0  0  0  0  0  0  0  0  0
  135.1388   68.4425  223.3345 H   0  0  0  0  0  0  0  0  0  0  0  0
  134.7861   69.5464  222.0581 H   0  0  0  0  0  0  0  0  0  0  0  0
  136.5943   68.4624  220.5820 H   0  0  0  0  0  0  0  0  0  0  0  0
  135.8140   66.3700  220.6050 H   0  0  0  0  0  0  0  0  0  0  0  0
  137.2898   66.6797  222.9456 H   0  0  0  0  0  0  0  0  0  0  0  0
  138.3950   67.3464  221.7581 H   0  0  0  0  0  0  0  0  0  0  0  0
  137.6288   68.4353  224.3408 H   0  0  0  0  0  0  0  0  0  0  0  0
  139.8228   68.4456  222.9912 H   0  0  0  0  0  0  0  0  0  0  0  0
  139.1616   70.1163  222.5723 H   0  0  0  0  0  0  0  0  0  0  0  0
  139.0540   68.2114  225.8335 H   0  0  0  0  0  0  0  0  0  0  0  0
  139.9167   69.2637  227.9026 H   0  0  0  0  0  0  0  0  0  0  0  0
  141.2442   72.6459  225.6244 H   0  0  0  0  0  0  0  0  0  0  0  0
  140.3816   71.5822  223.5848 H   0  0  0  0  0  0  0  0  0  0  0  0
  141.2814   74.2295  220.6065 H   0  0  0  0  0  0  0  0  0  0  0  0
  142.5057   76.2842  221.1595 H   0  0  0  0  0  0  0  0  0  0  0  0
  142.5117   78.4374  222.1357 H   0  0  0  0  0  0  0  0  0  0  0  0
  138.9490   79.9490  223.9187 H   0  0  0  0  0  0  0  0  0  0  0  0
  137.7250   77.8901  223.3629 H   0  0  0  0  0  0  0  0  0  0  0  0
  1  2  2  0
  2  3  1  0
  3  4  1  0
  4  5  1  0
  5  6  2  0
  5  7  1  0
  7  8  1  0
  8  9  1  0
  9 10  1  0
  9 11  1  0
 11 12  1  0
 12 13  1  0
 13 14  1  0
 14 15  2  0
 15 16  1  0
 16 17  2  0
 17 18  1  0
 17 19  1  0
 19 20  2  0
  2 21  1  0
 21 22  2  0
 22 23  1  0
 23 24  2  0
 24 25  1  0
 25 26  2  0
 26 27  1  0
 26 28  1  0
 28 29  2  0
 29 30  1  0
 30 31  2  0
 12  7  1  0
 20 14  1  0
 31 21  1  0
 30 24  1  0
  3 32  1  0
  4 33  1  0
  4 34  1  0
  8 35  1  0
  8 36  1  0
  9 37  1  6
 10 38  1  0
 11 39  1  0
 11 40  1  0
 12 41  1  1
 13 42  1  0
 13 43  1  0
 15 44  1  0
 16 45  1  0
 19 46  1  0
 20 47  1  0
 22 48  1  0
 23 49  1  0
 25 50  1  0
 28 51  1  0
 29 52  1  0
M  END
>  <smiles>  (2) 
O=C(NCC(=O)N1C[C@H](O)C[C@H]1Cc1ccc(Cl)cc1)c1ccc2cc(Cl)ccc2n1

>  <score_type>  (2) 
oracle

>  <origin>  (2) 
autodockgpu

>  <m_score__min__energy>  (2) 
-8.9499999999999993

>  <m_primary>  (2) 
energy

>  <rmsd>  (2) 
7.984915898880718

>  <m_score__min__rmsd>  (2) 
7.984915898880718

>  <meeko>  (2) 
{"free_energy": -7.24, "intermolecular_energy": -9.33, "internal_energy": -2.3, "cluster_size": 1, "cluster_id": 9, "rank_in_cluster": 1}

>  <energy>  (2) 
-8.71

>  <cluster_rmsd>  (2) 
0.44

>  <cluster>  (2) 
1

$$$$

     RDKit          3D

 52 55  0  0  0  0  0  0  0  0999 V2000
  138.6090   71.2400  221.0300 O   0  0  0  0  0  0  0  0  0  0  0  0
  138.9910   71.8160  222.0610 C   0  0  0  0  0  0  0  0  0  0  0  0
  139.1570   73.2170  222.1730 N   0  0  0  0  0  0  0  0  0  0  0  0
  138.8860   74.1050  221.0580 C   0  0  0  0  0  0  0  0  0  0  0  0
  138.9940   75.5000  221.5660 C   0  0  0  0  0  0  0  0  0  0  0  0
  139.3730   75.6410  222.7530 O   0  0  0  0  0  0  0  0  0  0  0  0
  138.6670   76.5640  220.6920 N   0  0  0  0  0  0  0  0  0  0  0  0
  137.3220   77.1250  220.4590 C   0  0  0  0  0  0  0  0  0  0  0  0
  137.6500   78.5920  220.6180 C   0  0  2  0  0  0  0  0  0  0  0  0
  136.6210   79.3200  220.0320 O   0  0  0  0  0  0  0  0  0  0  0  0
  138.8940   78.7380  219.7740 C   0  0  0  0  0  0  0  0  0  0  0  0
  139.5140   77.3660  219.8230 C   0  0  1  0  0  0  0  0  0  0  0  0
  140.9500   77.3570  220.2400 C   0  0  0  0  0  0  0  0  0  0  0  0
  141.3200   78.3300  221.2680 C   0  0  0  0  0  0  0  0  0  0  0  0
  141.1710   78.1390  222.6290 C   0  0  0  0  0  0  0  0  0  0  0  0
  141.5380   79.1210  223.5480 C   0  0  0  0  0  0  0  0  0  0  0  0
  142.0640   80.3180  223.1200 C   0  0  0  0  0  0  0  0  0  0  0  0
  142.5500   81.5980  224.2010 Cl  0  0  0  0  0  0  0  0  0  0  0  0
  142.2220   80.5300  221.7660 C   0  0  0  0  0  0  0  0  0  0  0  0
  141.8510   79.5430  220.8760 C   0  0  0  0  0  0  0  0  0  0  0  0
  139.2950   71.0080  223.2540 C   0  0  0  0  0  0  0  0  0  0  0  0
  138.9740   69.6580  223.2920 C   0  0  0  0  0  0  0  0  0  0  0  0
  139.2280   68.8480  224.3660 C   0  0  0  0  0  0  0  0  0  0  0  0
  139.8320   69.4030  225.4630 C   0  0  0  0  0  0  0  0  0  0  0  0
  140.0970   68.6210  226.5470 C   0  0  0  0  0  0  0  0  0  0  0  0
  140.7080   69.1680  227.6630 C   0  0  0  0  0  0  0  0  0  0  0  0
  141.0390   68.1460  229.0440 Cl  0  0  0  0  0  0  0  0  0  0  0  0
  141.0210   70.4970  227.6150 C   0  0  0  0  0  0  0  0  0  0  0  0
  140.7640   71.3120  226.5320 C   0  0  0  0  0  0  0  0  0  0  0  0
  140.1460   70.7510  225.4100 C   0  0  0  0  0  0  0  0  0  0  0  0
  139.8870   71.5250  224.3420 N   0  0  0  0  0  0  0  0  0  0  0  0
  139.4840   73.6430  223.0790 H   0  0  0  0  0  0  0  0  0  0  0  0
  139.6211   73.9383  220.2568 H   0  0  0  0  0  0  0  0  0  0  0  0
  137.8836   73.9174  220.6458 H   0  0  0  0  0  0  0  0  0  0  0  0
  136.9466   76.8927  219.4515 H   0  0  0  0  0  0  0  0  0  0  0  0
  136.5282   76.7426  221.1175 H   0  0  0  0  0  0  0  0  0  0  0  0
  137.7780   78.9273  221.6578 H   0  0  0  0  0  0  0  0  0  0  0  0
  135.9100   79.5350  220.6840 H   0  0  0  0  0  0  0  0  0  0  0  0
  138.6381   79.0174  218.7413 H   0  0  0  0  0  0  0  0  0  0  0  0
  139.5689   79.5268  220.1378 H   0  0  0  0  0  0  0  0  0  0  0  0
  139.5544   76.9413  218.8091 H   0  0  0  0  0  0  0  0  0  0  0  0
  141.1834   76.3535  220.6254 H   0  0  0  0  0  0  0  0  0  0  0  0
  141.5234   77.6363  219.3438 H   0  0  0  0  0  0  0  0  0  0  0  0
  140.7530   77.1898  222.9955 H   0  0  0  0  0  0  0  0  0  0  0  0
  141.4059   78.9372  224.6245 H   0  0  0  0  0  0  0  0  0  0  0  0
  142.6406   81.4786  221.3987 H   0  0  0  0  0  0  0  0  0  0  0  0
  141.9849   79.7318  219.8006 H   0  0  0  0  0  0  0  0  0  0  0  0
  138.4886   69.2145  222.4102 H   0  0  0  0  0  0  0  0  0  0  0  0
  138.9550   67.7826  224.3485 H   0  0  0  0  0  0  0  0  0  0  0  0
  139.8256   67.5551  226.5356 H   0  0  0  0  0  0  0  0  0  0  0  0
  141.5078   70.9447  228.4939 H   0  0  0  0  0  0  0  0  0  0  0  0
  141.0385   72.3770  226.5506 H   0  0  0  0  0  0  0  0  0  0  0  0
  1  2  2  0
  2  3  1  0
  3  4  1  0
  4  5  1  0
  5  6  2  0
  5  7  1  0
  7  8  1  0
  8  9  1  0
  9 10  1  0
  9 11  1  0
 11 12  1  0
 12 13  1  0
 13 14  1  0
 14 15  2  0
 15 16  1  0
 16 17  2  0
 17 18  1  0
 17 19  1  0
 19 20  2  0
  2 21  1  0
 21 22  2  0
 22 23  1  0
 23 24  2  0
 24 25  1  0
 25 26  2  0
 26 27  1  0
 26 28  1  0
 28 29  2  0
 29 30  1  0
 30 31  2  0
 12  7  1  0
 20 14  1  0
 31 21  1  0
 30 24  1  0
  3 32  1  0
  4 33  1  0
  4 34  1  0
  8 35  1  0
  8 36  1  0
  9 37  1  1
 10 38  1  0
 11 39  1  0
 11 40  1  0
 12 41  1  6
 13 42  1  0
 13 43  1  0
 15 44  1  0
 16 45  1  0
 19 46  1  0
 20 47  1  0
 22 48  1  0
 23 49  1  0
 25 50  1  0
 28 51  1  0
 29 52  1  0
M  END
>  <smiles>  (3) 
O=C(NCC(=O)N1C[C@H](O)C[C@H]1Cc1ccc(Cl)cc1)c1ccc2cc(Cl)ccc2n1

>  <score_type>  (3) 
oracle

>  <origin>  (3) 
autodockgpu

>  <m_score__min__energy>  (3) 
-8.9499999999999993

>  <m_primary>  (3) 
energy

>  <rmsd>  (3) 
2.04831797845596

>  <m_score__min__rmsd>  (3) 
2.04831797845596

>  <meeko>  (3) 
{"free_energy": -8.09, "intermolecular_energy": -10.18, "internal_energy": -2.3, "cluster_size": 20, "cluster_id": 4, "rank_in_cluster": 9}

>  <energy>  (3) 
-8.43

>  <cluster_rmsd>  (3) 
1.78

>  <cluster>  (3) 
1

$$$$

     RDKit          3D

 52 55  0  0  0  0  0  0  0  0999 V2000
  138.5970   71.1790  221.0430 O   0  0  0  0  0  0  0  0  0  0  0  0
  139.0060   71.7540  222.0640 C   0  0  0  0  0  0  0  0  0  0  0  0
  139.1990   73.1520  222.1650 N   0  0  0  0  0  0  0  0  0  0  0  0
  138.9240   74.0380  221.0500 C   0  0  0  0  0  0  0  0  0  0  0  0
  139.9280   73.7430  219.9910 C   0  0  0  0  0  0  0  0  0  0  0  0
  139.4950   73.2330  218.9300 O   0  0  0  0  0  0  0  0  0  0  0  0
  141.2850   74.0510  220.2430 N   0  0  0  0  0  0  0  0  0  0  0  0
  142.4390   73.1510  220.0470 C   0  0  0  0  0  0  0  0  0  0  0  0
  143.3380   74.0900  219.2740 C   0  0  2  0  0  0  0  0  0  0  0  0
  144.6330   73.5900  219.3480 O   0  0  0  0  0  0  0  0  0  0  0  0
  143.2570   75.3590  220.0880 C   0  0  0  0  0  0  0  0  0  0  0  0
  141.9010   75.2730  220.7380 C   0  0  1  0  0  0  0  0  0  0  0  0
  141.0440   76.4810  220.5300 C   0  0  0  0  0  0  0  0  0  0  0  0
  141.3150   77.6140  221.4170 C   0  0  0  0  0  0  0  0  0  0  0  0
  141.1110   77.6140  222.7840 C   0  0  0  0  0  0  0  0  0  0  0  0
  141.3840   78.7390  223.5620 C   0  0  0  0  0  0  0  0  0  0  0  0
  141.8690   79.8890  222.9820 C   0  0  0  0  0  0  0  0  0  0  0  0
  142.2380   81.3380  223.8800 Cl  0  0  0  0  0  0  0  0  0  0  0  0
  142.0800   79.9100  221.6190 C   0  0  0  0  0  0  0  0  0  0  0  0
  141.8020   78.7850  220.8710 C   0  0  0  0  0  0  0  0  0  0  0  0
  139.3170   70.9460  223.2560 C   0  0  0  0  0  0  0  0  0  0  0  0
  138.9980   69.5960  223.2960 C   0  0  0  0  0  0  0  0  0  0  0  0
  139.2580   68.7870  224.3700 C   0  0  0  0  0  0  0  0  0  0  0  0
  139.8650   69.3440  225.4640 C   0  0  0  0  0  0  0  0  0  0  0  0
  140.1360   68.5630  226.5470 C   0  0  0  0  0  0  0  0  0  0  0  0
  140.7510   69.1110  227.6610 C   0  0  0  0  0  0  0  0  0  0  0  0
  141.0890   68.0910  229.0410 Cl  0  0  0  0  0  0  0  0  0  0  0  0
  141.0600   70.4420  227.6110 C   0  0  0  0  0  0  0  0  0  0  0  0
  140.7970   71.2550  226.5280 C   0  0  0  0  0  0  0  0  0  0  0  0
  140.1770   70.6930  225.4090 C   0  0  0  0  0  0  0  0  0  0  0  0
  139.9110   71.4650  224.3410 N   0  0  0  0  0  0  0  0  0  0  0  0
  139.5490   73.5770  223.0630 H   0  0  0  0  0  0  0  0  0  0  0  0
  137.9088   73.8569  220.6670 H   0  0  0  0  0  0  0  0  0  0  0  0
  138.9877   75.0902  221.3643 H   0  0  0  0  0  0  0  0  0  0  0  0
  142.8885   72.8417  221.0021 H   0  0  0  0  0  0  0  0  0  0  0  0
  142.2157   72.1939  219.5529 H   0  0  0  0  0  0  0  0  0  0  0  0
  143.0663   74.2242  218.2166 H   0  0  0  0  0  0  0  0  0  0  0  0
  144.7360   72.9580  220.1010 H   0  0  0  0  0  0  0  0  0  0  0  0
  144.0545   75.3924  220.8448 H   0  0  0  0  0  0  0  0  0  0  0  0
  143.3843   76.2670  219.4803 H   0  0  0  0  0  0  0  0  0  0  0  0
  142.0163   75.2429  221.8315 H   0  0  0  0  0  0  0  0  0  0  0  0
  141.1865   76.8217  219.4939 H   0  0  0  0  0  0  0  0  0  0  0  0
  140.0164   76.1616  220.7582 H   0  0  0  0  0  0  0  0  0  0  0  0
  140.7244   76.7058  223.2696 H   0  0  0  0  0  0  0  0  0  0  0  0
  141.2103   78.7068  224.6477 H   0  0  0  0  0  0  0  0  0  0  0  0
  142.4671   80.8173  221.1322 H   0  0  0  0  0  0  0  0  0  0  0  0
  141.9769   78.8225  219.7857 H   0  0  0  0  0  0  0  0  0  0  0  0
  138.5094   69.1512  222.4166 H   0  0  0  0  0  0  0  0  0  0  0  0
  138.9872   67.7210  224.3544 H   0  0  0  0  0  0  0  0  0  0  0  0
  139.8663   67.4966  226.5369 H   0  0  0  0  0  0  0  0  0  0  0  0
  141.5482   70.8921  228.4880 H   0  0  0  0  0  0  0  0  0  0  0  0
  141.0690   72.3207  226.5450 H   0  0  0  0  0  0  0  0  0  0  0  0
  1  2  2  0
  2  3  1  0
  3  4  1  0
  4  5  1  0
  5  6  2  0
  5  7  1  0
  7  8  1  0
  8  9  1  0
  9 10  1  0
  9 11  1  0
 11 12  1  0
 12 13  1  0
 13 14  1  0
 14 15  2  0
 15 16  1  0
 16 17  2  0
 17 18  1  0
 17 19  1  0
 19 20  2  0
  2 21  1  0
 21 22  2  0
 22 23  1  0
 23 24  2  0
 24 25  1  0
 25 26  2  0
 26 27  1  0
 26 28  1  0
 28 29  2  0
 29 30  1  0
 30 31  2  0
 12  7  1  0
 20 14  1  0
 31 21  1  0
 30 24  1  0
  3 32  1  0
  4 33  1  0
  4 34  1  0
  8 35  1  0
  8 36  1  0
  9 37  1  6
 10 38  1  0
 11 39  1  0
 11 40  1  0
 12 41  1  1
 13 42  1  0
 13 43  1  0
 15 44  1  0
 16 45  1  0
 19 46  1  0
 20 47  1  0
 22 48  1  0
 23 49  1  0
 25 50  1  0
 28 51  1  0
 29 52  1  0
M  END
>  <smiles>  (4) 
O=C(NCC(=O)N1C[C@H](O)C[C@H]1Cc1ccc(Cl)cc1)c1ccc2cc(Cl)ccc2n1

>  <score_type>  (4) 
oracle

>  <origin>  (4) 
autodockgpu

>  <m_score__min__energy>  (4) 
-8.9499999999999993

>  <m_primary>  (4) 
energy

>  <rmsd>  (4) 
2.1929951727113823

>  <m_score__min__rmsd>  (4) 
2.1929951727113823

>  <meeko>  (4) 
{"free_energy": -8.36, "intermolecular_energy": -10.45, "internal_energy": -1.65, "cluster_size": 8, "cluster_id": 1, "rank_in_cluster": 6}

>  <energy>  (4) 
-8.39

>  <cluster_rmsd>  (4) 
1.95

>  <cluster>  (4) 
1

$$$$

     RDKit          3D

 52 55  0  0  0  0  0  0  0  0999 V2000
  139.4200   72.2310  220.5750 O   0  0  0  0  0  0  0  0  0  0  0  0
  139.5290   72.7330  221.7040 C   0  0  0  0  0  0  0  0  0  0  0  0
  139.4900   74.1240  221.9630 N   0  0  0  0  0  0  0  0  0  0  0  0
  139.3140   75.0890  220.8960 C   0  0  0  0  0  0  0  0  0  0  0  0
  140.5020   75.9860  220.9100 C   0  0  0  0  0  0  0  0  0  0  0  0
  141.0600   76.1670  222.0180 O   0  0  0  0  0  0  0  0  0  0  0  0
  140.9210   76.5700  219.6910 N   0  0  0  0  0  0  0  0  0  0  0  0
  141.1120   78.0110  219.4290 C   0  0  0  0  0  0  0  0  0  0  0  0
  142.4830   77.9530  218.7940 C   0  0  2  0  0  0  0  0  0  0  0  0
  142.6750   79.1400  218.0980 O   0  0  0  0  0  0  0  0  0  0  0  0
  142.3320   76.8240  217.8020 C   0  0  0  0  0  0  0  0  0  0  0  0
  141.2660   75.9560  218.4180 C   0  0  1  0  0  0  0  0  0  0  0  0
  141.6500   74.5160  218.5530 C   0  0  0  0  0  0  0  0  0  0  0  0
  142.8500   74.2500  219.3470 C   0  0  0  0  0  0  0  0  0  0  0  0
  143.7870   75.2000  219.7090 C   0  0  0  0  0  0  0  0  0  0  0  0
  144.9130   74.8660  220.4600 C   0  0  0  0  0  0  0  0  0  0  0  0
  145.1230   73.5680  220.8650 C   0  0  0  0  0  0  0  0  0  0  0  0
  146.5020   73.0640  221.8070 Cl  0  0  0  0  0  0  0  0  0  0  0  0
  144.2010   72.6030  220.5150 C   0  0  0  0  0  0  0  0  0  0  0  0
  143.0950   72.9590  219.7710 C   0  0  0  0  0  0  0  0  0  0  0  0
  139.7130   71.8400  222.8620 C   0  0  0  0  0  0  0  0  0  0  0  0
  139.3400   70.5050  222.7890 C   0  0  0  0  0  0  0  0  0  0  0  0
  139.4820   69.6210  223.8250 C   0  0  0  0  0  0  0  0  0  0  0  0
  140.0210   70.0820  224.9960 C   0  0  0  0  0  0  0  0  0  0  0  0
  140.1750   69.2240  226.0430 C   0  0  0  0  0  0  0  0  0  0  0  0
  140.7190   69.6750  227.2350 C   0  0  0  0  0  0  0  0  0  0  0  0
  140.9070   68.5570  228.5670 Cl  0  0  0  0  0  0  0  0  0  0  0  0
  141.0830   70.9910  227.2960 C   0  0  0  0  0  0  0  0  0  0  0  0
  140.9390   71.8800  226.2510 C   0  0  0  0  0  0  0  0  0  0  0  0
  140.3880   71.4160  225.0530 C   0  0  0  0  0  0  0  0  0  0  0  0
  140.2390   72.2640  224.0210 N   0  0  0  0  0  0  0  0  0  0  0  0
  139.5880   74.4840  222.9490 H   0  0  0  0  0  0  0  0  0  0  0  0
  139.2446   74.5713  219.9279 H   0  0  0  0  0  0  0  0  0  0  0  0
  138.3887   75.6658  221.0413 H   0  0  0  0  0  0  0  0  0  0  0  0
  140.3537   78.4093  218.7388 H   0  0  0  0  0  0  0  0  0  0  0  0
  141.0232   78.6684  220.3064 H   0  0  0  0  0  0  0  0  0  0  0  0
  143.3146   77.8139  219.5004 H   0  0  0  0  0  0  0  0  0  0  0  0
  143.4380   79.0750  217.4720 H   0  0  0  0  0  0  0  0  0  0  0  0
  142.0118   77.2032  216.8203 H   0  0  0  0  0  0  0  0  0  0  0  0
  143.2729   76.2839  217.6206 H   0  0  0  0  0  0  0  0  0  0  0  0
  140.3930   75.9128  217.7501 H   0  0  0  0  0  0  0  0  0  0  0  0
  140.8093   73.9849  219.0232 H   0  0  0  0  0  0  0  0  0  0  0  0
  141.8824   74.1714  217.5345 H   0  0  0  0  0  0  0  0  0  0  0  0
  143.6405   76.2446  219.3969 H   0  0  0  0  0  0  0  0  0  0  0  0
  145.6393   75.6464  220.7309 H   0  0  0  0  0  0  0  0  0  0  0  0
  144.3466   71.5582  220.8267 H   0  0  0  0  0  0  0  0  0  0  0  0
  142.3720   72.1748  219.5021 H   0  0  0  0  0  0  0  0  0  0  0  0
  138.9066   70.1370  221.8473 H   0  0  0  0  0  0  0  0  0  0  0  0
  139.1720   68.5709  223.7194 H   0  0  0  0  0  0  0  0  0  0  0  0
  139.8674   68.1727  225.9421 H   0  0  0  0  0  0  0  0  0  0  0  0
  141.5171   71.3639  228.2354 H   0  0  0  0  0  0  0  0  0  0  0  0
  141.2505   72.9295  226.3580 H   0  0  0  0  0  0  0  0  0  0  0  0
  1  2  2  0
  2  3  1  0
  3  4  1  0
  4  5  1  0
  5  6  2  0
  5  7  1  0
  7  8  1  0
  8  9  1  0
  9 10  1  0
  9 11  1  0
 11 12  1  0
 12 13  1  0
 13 14  1  0
 14 15  2  0
 15 16  1  0
 16 17  2  0
 17 18  1  0
 17 19  1  0
 19 20  2  0
  2 21  1  0
 21 22  2  0
 22 23  1  0
 23 24  2  0
 24 25  1  0
 25 26  2  0
 26 27  1  0
 26 28  1  0
 28 29  2  0
 29 30  1  0
 30 31  2  0
 12  7  1  0
 20 14  1  0
 31 21  1  0
 30 24  1  0
  3 32  1  0
  4 33  1  0
  4 34  1  0
  8 35  1  0
  8 36  1  0
  9 37  1  1
 10 38  1  0
 11 39  1  0
 11 40  1  0
 12 41  1  6
 13 42  1  0
 13 43  1  0
 15 44  1  0
 16 45  1  0
 19 46  1  0
 20 47  1  0
 22 48  1  0
 23 49  1  0
 25 50  1  0
 28 51  1  0
 29 52  1  0
M  END
>  <smiles>  (5) 
O=C(NCC(=O)N1C[C@H](O)C[C@H]1Cc1ccc(Cl)cc1)c1ccc2cc(Cl)ccc2n1

>  <score_type>  (5) 
oracle

>  <origin>  (5) 
autodockgpu

>  <m_score__min__energy>  (5) 
-8.9499999999999993

>  <m_primary>  (5) 
energy

>  <rmsd>  (5) 
2.202279253738705

>  <m_score__min__rmsd>  (5) 
2.202279253738705

>  <meeko>  (5) 
{"free_energy": -8.41, "intermolecular_energy": -10.5, "internal_energy": -2.24, "cluster_size": 13, "cluster_id": 2, "rank_in_cluster": 4}

>  <energy>  (5) 
-8.39

>  <cluster_rmsd>  (5) 
1.75

>  <cluster>  (5) 
1

$$$$

     RDKit          3D

 52 55  0  0  0  0  0  0  0  0999 V2000
  137.5210   72.4530  221.7160 O   0  0  0  0  0  0  0  0  0  0  0  0
  138.7100   72.2670  222.0160 C   0  0  0  0  0  0  0  0  0  0  0  0
  139.8040   72.8190  221.3070 N   0  0  0  0  0  0  0  0  0  0  0  0
  139.6060   73.6650  220.1460 C   0  0  0  0  0  0  0  0  0  0  0  0
  140.2360   74.9810  220.4430 C   0  0  0  0  0  0  0  0  0  0  0  0
  139.4950   75.8620  220.9390 O   0  0  0  0  0  0  0  0  0  0  0  0
  141.6100   75.1530  220.1510 N   0  0  0  0  0  0  0  0  0  0  0  0
  142.5800   74.0850  219.8370 C   0  0  0  0  0  0  0  0  0  0  0  0
  143.1980   74.6890  218.5970 C   0  0  2  0  0  0  0  0  0  0  0  0
  144.4130   74.0500  218.3770 O   0  0  0  0  0  0  0  0  0  0  0  0
  143.4650   76.1110  219.0280 C   0  0  0  0  0  0  0  0  0  0  0  0
  142.4160   76.3620  220.0800 C   0  0  1  0  0  0  0  0  0  0  0  0
  141.5980   77.5930  219.8490 C   0  0  0  0  0  0  0  0  0  0  0  0
  141.7430   78.6490  220.8510 C   0  0  0  0  0  0  0  0  0  0  0  0
  141.8630   79.9970  220.5690 C   0  0  0  0  0  0  0  0  0  0  0  0
  142.0080   80.9450  221.5810 C   0  0  0  0  0  0  0  0  0  0  0  0
  142.0350   80.5590  222.9010 C   0  0  0  0  0  0  0  0  0  0  0  0
  142.2110   81.6770  224.2290 Cl  0  0  0  0  0  0  0  0  0  0  0  0
  141.9160   79.2180  223.2070 C   0  0  0  0  0  0  0  0  0  0  0  0
  141.7740   78.3000  222.1870 C   0  0  0  0  0  0  0  0  0  0  0  0
  139.0250   71.4210  223.1800 C   0  0  0  0  0  0  0  0  0  0  0  0
  138.4160   70.1830  223.3360 C   0  0  0  0  0  0  0  0  0  0  0  0
  138.6610   69.3470  224.3920 C   0  0  0  0  0  0  0  0  0  0  0  0
  139.5560   69.7560  225.3450 C   0  0  0  0  0  0  0  0  0  0  0  0
  139.8200   68.9440  226.4060 C   0  0  0  0  0  0  0  0  0  0  0  0
  140.7230   69.3440  227.3780 C   0  0  0  0  0  0  0  0  0  0  0  0
  141.0460   68.2860  228.7330 Cl  0  0  0  0  0  0  0  0  0  0  0  0
  141.3160   70.5640  227.2140 C   0  0  0  0  0  0  0  0  0  0  0  0
  141.0670   71.4060  226.1490 C   0  0  0  0  0  0  0  0  0  0  0  0
  140.1550   70.9940  225.1740 C   0  0  0  0  0  0  0  0  0  0  0  0
  139.8970   71.7970  224.1280 N   0  0  0  0  0  0  0  0  0  0  0  0
  140.7920   72.6220  221.6160 H   0  0  0  0  0  0  0  0  0  0  0  0
  140.0813   73.2108  219.2641 H   0  0  0  0  0  0  0  0  0  0  0  0
  138.5340   73.7865  219.9316 H   0  0  0  0  0  0  0  0  0  0  0  0
  143.3178   73.9476  220.6412 H   0  0  0  0  0  0  0  0  0  0  0  0
  142.1538   73.0786  219.7126 H   0  0  0  0  0  0  0  0  0  0  0  0
  142.5827   74.6098  217.6886 H   0  0  0  0  0  0  0  0  0  0  0  0
  145.1230   74.6940  218.1340 H   0  0  0  0  0  0  0  0  0  0  0  0
  144.4762   76.2110  219.4492 H   0  0  0  0  0  0  0  0  0  0  0  0
  143.4166   76.8277  218.1949 H   0  0  0  0  0  0  0  0  0  0  0  0
  142.9015   76.5717  221.0445 H   0  0  0  0  0  0  0  0  0  0  0  0
  141.8855   78.0114  218.8732 H   0  0  0  0  0  0  0  0  0  0  0  0
  140.5480   77.2697  219.9043 H   0  0  0  0  0  0  0  0  0  0  0  0
  141.8436   80.3298  219.5207 H   0  0  0  0  0  0  0  0  0  0  0  0
  142.1015   82.0099  221.3218 H   0  0  0  0  0  0  0  0  0  0  0  0
  141.9342   78.8844  224.2550 H   0  0  0  0  0  0  0  0  0  0  0  0
  141.6808   77.2363  222.4511 H   0  0  0  0  0  0  0  0  0  0  0  0
  137.6978   69.8563  222.5696 H   0  0  0  0  0  0  0  0  0  0  0  0
  138.1536   68.3744  224.4730 H   0  0  0  0  0  0  0  0  0  0  0  0
  139.3161   67.9700  226.4914 H   0  0  0  0  0  0  0  0  0  0  0  0
  142.0356   70.8953  227.9772 H   0  0  0  0  0  0  0  0  0  0  0  0
  141.5747   72.3786  226.0697 H   0  0  0  0  0  0  0  0  0  0  0  0
  1  2  2  0
  2  3  1  0
  3  4  1  0
  4  5  1  0
  5  6  2  0
  5  7  1  0
  7  8  1  0
  8  9  1  0
  9 10  1  0
  9 11  1  0
 11 12  1  0
 12 13  1  0
 13 14  1  0
 14 15  2  0
 15 16  1  0
 16 17  2  0
 17 18  1  0
 17 19  1  0
 19 20  2  0
  2 21  1  0
 21 22  2  0
 22 23  1  0
 23 24  2  0
 24 25  1  0
 25 26  2  0
 26 27  1  0
 26 28  1  0
 28 29  2  0
 29 30  1  0
 30 31  2  0
 12  7  1  0
 20 14  1  0
 31 21  1  0
 30 24  1  0
  3 32  1  0
  4 33  1  0
  4 34  1  0
  8 35  1  0
  8 36  1  0
  9 37  1  6
 10 38  1  0
 11 39  1  0
 11 40  1  0
 12 41  1  1
 13 42  1  0
 13 43  1  0
 15 44  1  0
 16 45  1  0
 19 46  1  0
 20 47  1  0
 22 48  1  0
 23 49  1  0
 25 50  1  0
 28 51  1  0
 29 52  1  0
M  END
>  <smiles>  (6) 
O=C(NCC(=O)N1C[C@H](O)C[C@H]1Cc1ccc(Cl)cc1)c1ccc2cc(Cl)ccc2n1

>  <score_type>  (6) 
oracle

>  <origin>  (6) 
autodockgpu

>  <m_score__min__energy>  (6) 
-8.9499999999999993

>  <m_primary>  (6) 
energy

>  <rmsd>  (6) 
2.094684009807459

>  <m_score__min__rmsd>  (6) 
2.094684009807459

>  <meeko>  (6) 
{"free_energy": -8.14, "intermolecular_energy": -10.23, "internal_energy": -1.33, "cluster_size": 8, "cluster_id": 1, "rank_in_cluster": 8}

>  <energy>  (6) 
-8.36

>  <cluster_rmsd>  (6) 
1.65

>  <cluster>  (6) 
1

$$$$

     RDKit          3D

 52 55  0  0  0  0  0  0  0  0999 V2000
  137.1520   76.9660  221.1710 O   0  0  0  0  0  0  0  0  0  0  0  0
  137.2240   75.9840  221.9260 C   0  0  0  0  0  0  0  0  0  0  0  0
  138.2020   74.9670  221.8150 N   0  0  0  0  0  0  0  0  0  0  0  0
  139.2170   75.0000  220.7810 C   0  0  0  0  0  0  0  0  0  0  0  0
  140.4410   74.3620  221.3390 C   0  0  0  0  0  0  0  0  0  0  0  0
  140.2800   73.5950  222.3190 O   0  0  0  0  0  0  0  0  0  0  0  0
  141.6890   74.6560  220.7410 N   0  0  0  0  0  0  0  0  0  0  0  0
  142.6720   73.6770  220.2370 C   0  0  0  0  0  0  0  0  0  0  0  0
  142.9300   74.2840  218.8770 C   0  0  2  0  0  0  0  0  0  0  0  0
  144.1260   73.7590  218.4020 O   0  0  0  0  0  0  0  0  0  0  0  0
  143.1350   75.7430  219.2080 C   0  0  0  0  0  0  0  0  0  0  0  0
  142.3260   75.9340  220.4650 C   0  0  1  0  0  0  0  0  0  0  0  0
  141.3520   77.0680  220.4000 C   0  0  0  0  0  0  0  0  0  0  0  0
  141.5330   78.1190  221.4020 C   0  0  0  0  0  0  0  0  0  0  0  0
  141.3570   77.9540  222.7630 C   0  0  0  0  0  0  0  0  0  0  0  0
  141.5380   79.0100  223.6560 C   0  0  0  0  0  0  0  0  0  0  0  0
  141.9010   80.2560  223.2000 C   0  0  0  0  0  0  0  0  0  0  0  0
  142.1490   81.6300  224.2460 Cl  0  0  0  0  0  0  0  0  0  0  0  0
  142.0810   80.4440  221.8450 C   0  0  0  0  0  0  0  0  0  0  0  0
  141.8960   79.3840  220.9820 C   0  0  0  0  0  0  0  0  0  0  0  0
  136.2390   75.8520  223.0130 C   0  0  0  0  0  0  0  0  0  0  0  0
  135.5910   76.9710  223.5170 C   0  0  0  0  0  0  0  0  0  0  0  0
  134.6650   76.9200  224.5250 C   0  0  0  0  0  0  0  0  0  0  0  0
  134.3640   75.6970  225.0640 C   0  0  0  0  0  0  0  0  0  0  0  0
  133.4470   75.6170  226.0670 C   0  0  0  0  0  0  0  0  0  0  0  0
  133.1320   74.3880  226.6220 C   0  0  0  0  0  0  0  0  0  0  0  0
  131.9520   74.3070  227.9110 Cl  0  0  0  0  0  0  0  0  0  0  0  0
  133.7760   73.2930  226.1190 C   0  0  0  0  0  0  0  0  0  0  0  0
  134.7090   73.3460  225.1030 C   0  0  0  0  0  0  0  0  0  0  0  0
  135.0200   74.5910  224.5500 C   0  0  0  0  0  0  0  0  0  0  0  0
  135.9250   74.6670  223.5590 N   0  0  0  0  0  0  0  0  0  0  0  0
  138.2070   74.1590  222.4920 H   0  0  0  0  0  0  0  0  0  0  0  0
  138.8720   74.4430  219.8974 H   0  0  0  0  0  0  0  0  0  0  0  0
  139.4244   76.0354  220.4729 H   0  0  0  0  0  0  0  0  0  0  0  0
  143.5811   73.6487  220.8557 H   0  0  0  0  0  0  0  0  0  0  0  0
  142.3380   72.6289  220.2328 H   0  0  0  0  0  0  0  0  0  0  0  0
  142.1397   74.1051  218.1330 H   0  0  0  0  0  0  0  0  0  0  0  0
  144.8150   74.4610  218.2980 H   0  0  0  0  0  0  0  0  0  0  0  0
  144.1983   75.9600  219.3877 H   0  0  0  0  0  0  0  0  0  0  0  0
  142.8272   76.4151  218.3934 H   0  0  0  0  0  0  0  0  0  0  0  0
  142.9890   76.2313  221.2909 H   0  0  0  0  0  0  0  0  0  0  0  0
  141.4381   77.5307  219.4058 H   0  0  0  0  0  0  0  0  0  0  0  0
  140.3650   76.6271  220.6033 H   0  0  0  0  0  0  0  0  0  0  0  0
  141.0673   76.9663  223.1511 H   0  0  0  0  0  0  0  0  0  0  0  0
  141.3893   78.8452  224.7334 H   0  0  0  0  0  0  0  0  0  0  0  0
  142.3698   81.4316  221.4560 H   0  0  0  0  0  0  0  0  0  0  0  0
  142.0449   79.5545  219.9055 H   0  0  0  0  0  0  0  0  0  0  0  0
  135.8343   77.9522  223.0834 H   0  0  0  0  0  0  0  0  0  0  0  0
  134.1768   77.8351  224.8913 H   0  0  0  0  0  0  0  0  0  0  0  0
  132.9560   76.5292  226.4368 H   0  0  0  0  0  0  0  0  0  0  0  0
  133.5365   72.3096  226.5498 H   0  0  0  0  0  0  0  0  0  0  0  0
  135.1960   72.4300  224.7374 H   0  0  0  0  0  0  0  0  0  0  0  0
  1  2  2  0
  2  3  1  0
  3  4  1  0
  4  5  1  0
  5  6  2  0
  5  7  1  0
  7  8  1  0
  8  9  1  0
  9 10  1  0
  9 11  1  0
 11 12  1  0
 12 13  1  0
 13 14  1  0
 14 15  2  0
 15 16  1  0
 16 17  2  0
 17 18  1  0
 17 19  1  0
 19 20  2  0
  2 21  1  0
 21 22  2  0
 22 23  1  0
 23 24  2  0
 24 25  1  0
 25 26  2  0
 26 27  1  0
 26 28  1  0
 28 29  2  0
 29 30  1  0
 30 31  2  0
 12  7  1  0
 20 14  1  0
 31 21  1  0
 30 24  1  0
  3 32  1  0
  4 33  1  0
  4 34  1  0
  8 35  1  0
  8 36  1  0
  9 37  1  6
 10 38  1  0
 11 39  1  0
 11 40  1  0
 12 41  1  1
 13 42  1  0
 13 43  1  0
 15 44  1  0
 16 45  1  0
 19 46  1  0
 20 47  1  0
 22 48  1  0
 23 49  1  0
 25 50  1  0
 28 51  1  0
 29 52  1  0
M  END
>  <smiles>  (7) 
O=C(NCC(=O)N1C[C@H](O)C[C@H]1Cc1ccc(Cl)cc1)c1ccc2cc(Cl)ccc2n1

>  <score_type>  (7) 
oracle

>  <origin>  (7) 
autodockgpu

>  <m_score__min__energy>  (7) 
-8.9499999999999993

>  <m_primary>  (7) 
energy

>  <rmsd>  (7) 
5.976140688755661

>  <m_score__min__rmsd>  (7) 
5.976140688755661

>  <meeko>  (7) 
{"free_energy": -7.54, "intermolecular_energy": -9.63, "internal_energy": -2.12, "cluster_size": 1, "cluster_id": 8, "rank_in_cluster": 1}

>  <energy>  (7) 
-8.3

>  <cluster_rmsd>  (7) 
1.72

>  <cluster>  (7) 
1

$$$$

     RDKit          3D

 52 55  0  0  0  0  0  0  0  0999 V2000
  139.1570   71.8800  220.7910 O   0  0  0  0  0  0  0  0  0  0  0  0
  139.3610   72.3800  221.9080 C   0  0  0  0  0  0  0  0  0  0  0  0
  139.4010   73.7720  222.1600 N   0  0  0  0  0  0  0  0  0  0  0  0
  139.2010   74.7410  221.1000 C   0  0  0  0  0  0  0  0  0  0  0  0
  140.3040   75.7360  221.1950 C   0  0  0  0  0  0  0  0  0  0  0  0
  140.8810   75.8340  222.3040 O   0  0  0  0  0  0  0  0  0  0  0  0
  140.6270   76.4970  220.0470 N   0  0  0  0  0  0  0  0  0  0  0  0
  140.7170   77.9690  219.9670 C   0  0  0  0  0  0  0  0  0  0  0  0
  142.0570   78.0830  219.2750 C   0  0  2  0  0  0  0  0  0  0  0  0
  142.1430   79.3600  218.7320 O   0  0  0  0  0  0  0  0  0  0  0  0
  141.9270   77.0820  218.1520 C   0  0  0  0  0  0  0  0  0  0  0  0
  140.9480   76.0740  218.6920 C   0  0  1  0  0  0  0  0  0  0  0  0
  141.4250   74.6580  218.6230 C   0  0  0  0  0  0  0  0  0  0  0  0
  142.6320   74.3550  219.3930 C   0  0  0  0  0  0  0  0  0  0  0  0
  143.6120   75.2730  219.7220 C   0  0  0  0  0  0  0  0  0  0  0  0
  144.7410   74.9050  220.4510 C   0  0  0  0  0  0  0  0  0  0  0  0
  144.9110   73.6050  220.8670 C   0  0  0  0  0  0  0  0  0  0  0  0
  146.2920   73.0600  221.7840 Cl  0  0  0  0  0  0  0  0  0  0  0  0
  143.9460   72.6710  220.5510 C   0  0  0  0  0  0  0  0  0  0  0  0
  142.8370   73.0610  219.8280 C   0  0  0  0  0  0  0  0  0  0  0  0
  139.5780   71.4840  223.0570 C   0  0  0  0  0  0  0  0  0  0  0  0
  139.2260   70.1430  222.9820 C   0  0  0  0  0  0  0  0  0  0  0  0
  139.3990   69.2560  224.0100 C   0  0  0  0  0  0  0  0  0  0  0  0
  139.9500   69.7190  225.1760 C   0  0  0  0  0  0  0  0  0  0  0  0
  140.1350   68.8580  226.2150 C   0  0  0  0  0  0  0  0  0  0  0  0
  140.6900   69.3110  227.4000 C   0  0  0  0  0  0  0  0  0  0  0  0
  140.9170   68.1890  228.7230 Cl  0  0  0  0  0  0  0  0  0  0  0  0
  141.0330   70.6330  227.4640 C   0  0  0  0  0  0  0  0  0  0  0  0
  140.8570   71.5260  226.4260 C   0  0  0  0  0  0  0  0  0  0  0  0
  140.2950   71.0590  225.2350 C   0  0  0  0  0  0  0  0  0  0  0  0
  140.1150   71.9110  224.2100 N   0  0  0  0  0  0  0  0  0  0  0  0
  139.5780   74.1310  223.1350 H   0  0  0  0  0  0  0  0  0  0  0  0
  139.2298   74.2395  220.1214 H   0  0  0  0  0  0  0  0  0  0  0  0
  138.2228   75.2335  221.2025 H   0  0  0  0  0  0  0  0  0  0  0  0
  139.9034   78.4005  219.3654 H   0  0  0  0  0  0  0  0  0  0  0  0
  140.6309   78.5024  220.9251 H   0  0  0  0  0  0  0  0  0  0  0  0
  142.9288   77.9104  219.9232 H   0  0  0  0  0  0  0  0  0  0  0  0
  143.0760   79.5970  218.5080 H   0  0  0  0  0  0  0  0  0  0  0  0
  141.5368   77.5607  217.2417 H   0  0  0  0  0  0  0  0  0  0  0  0
  142.8892   76.6334  217.8641 H   0  0  0  0  0  0  0  0  0  0  0  0
  140.0481   76.0577  218.0595 H   0  0  0  0  0  0  0  0  0  0  0  0
  140.6165   74.0109  218.9940 H   0  0  0  0  0  0  0  0  0  0  0  0
  141.6902   74.4828  217.5699 H   0  0  0  0  0  0  0  0  0  0  0  0
  143.4977   76.3188  219.4006 H   0  0  0  0  0  0  0  0  0  0  0  0
  145.5024   75.6602  220.6958 H   0  0  0  0  0  0  0  0  0  0  0  0
  144.0595   71.6251  220.8723 H   0  0  0  0  0  0  0  0  0  0  0  0
  142.0781   72.3024  219.5861 H   0  0  0  0  0  0  0  0  0  0  0  0
  138.7839   69.7732  222.0451 H   0  0  0  0  0  0  0  0  0  0  0  0
  139.1041   68.2016  223.9032 H   0  0  0  0  0  0  0  0  0  0  0  0
  139.8434   67.8023  226.1127 H   0  0  0  0  0  0  0  0  0  0  0  0
  141.4758   71.0075  228.3987 H   0  0  0  0  0  0  0  0  0  0  0  0
  141.1522   72.5801  226.5340 H   0  0  0  0  0  0  0  0  0  0  0  0
  1  2  2  0
  2  3  1  0
  3  4  1  0
  4  5  1  0
  5  6  2  0
  5  7  1  0
  7  8  1  0
  8  9  1  0
  9 10  1  0
  9 11  1  0
 11 12  1  0
 12 13  1  0
 13 14  1  0
 14 15  2  0
 15 16  1  0
 16 17  2  0
 17 18  1  0
 17 19  1  0
 19 20  2  0
  2 21  1  0
 21 22  2  0
 22 23  1  0
 23 24  2  0
 24 25  1  0
 25 26  2  0
 26 27  1  0
 26 28  1  0
 28 29  2  0
 29 30  1  0
 30 31  2  0
 12  7  1  0
 20 14  1  0
 31 21  1  0
 30 24  1  0
  3 32  1  0
  4 33  1  0
  4 34  1  0
  8 35  1  0
  8 36  1  0
  9 37  1  1
 10 38  1  0
 11 39  1  0
 11 40  1  0
 12 41  1  6
 13 42  1  0
 13 43  1  0
 15 44  1  0
 16 45  1  0
 19 46  1  0
 20 47  1  0
 22 48  1  0
 23 49  1  0
 25 50  1  0
 28 51  1  0
 29 52  1  0
M  END
>  <smiles>  (8) 
O=C(NCC(=O)N1C[C@H](O)C[C@H]1Cc1ccc(Cl)cc1)c1ccc2cc(Cl)ccc2n1

>  <score_type>  (8) 
oracle

>  <origin>  (8) 
autodockgpu

>  <m_score__min__energy>  (8) 
-8.9499999999999993

>  <m_primary>  (8) 
energy

>  <rmsd>  (8) 
2.0084023018076347

>  <m_score__min__rmsd>  (8) 
2.0084023018076347

>  <meeko>  (8) 
{"free_energy": -8.17, "intermolecular_energy": -10.26, "internal_energy": -2.39, "cluster_size": 13, "cluster_id": 2, "rank_in_cluster": 9}

>  <energy>  (8) 
-8.14

>  <cluster_rmsd>  (8) 
1.77

>  <cluster>  (8) 
1

$$$$

     RDKit          3D

 52 55  0  0  0  0  0  0  0  0999 V2000
  138.4840   71.2490  221.1090 O   0  0  0  0  0  0  0  0  0  0  0  0
  138.9130   71.8220  222.1220 C   0  0  0  0  0  0  0  0  0  0  0  0
  139.1090   73.2200  222.2210 N   0  0  0  0  0  0  0  0  0  0  0  0
  138.8140   74.1080  221.1130 C   0  0  0  0  0  0  0  0  0  0  0  0
  138.9780   75.5030  221.6070 C   0  0  0  0  0  0  0  0  0  0  0  0
  139.5630   75.6470  222.7060 O   0  0  0  0  0  0  0  0  0  0  0  0
  138.4700   76.5620  220.8180 N   0  0  0  0  0  0  0  0  0  0  0  0
  137.0840   77.0720  220.8220 C   0  0  0  0  0  0  0  0  0  0  0  0
  137.3800   78.5490  220.9500 C   0  0  2  0  0  0  0  0  0  0  0  0
  136.2410   79.2420  220.5550 O   0  0  0  0  0  0  0  0  0  0  0  0
  138.4590   78.7530  219.9130 C   0  0  0  0  0  0  0  0  0  0  0  0
  139.1290   77.4070  219.8340 C   0  0  1  0  0  0  0  0  0  0  0  0
  140.6140   77.4500  220.0060 C   0  0  0  0  0  0  0  0  0  0  0  0
  141.1150   78.4390  220.9610 C   0  0  0  0  0  0  0  0  0  0  0  0
  141.6910   79.6490  220.6180 C   0  0  0  0  0  0  0  0  0  0  0  0
  142.1560   80.5360  221.5870 C   0  0  0  0  0  0  0  0  0  0  0  0
  142.0510   80.2280  222.9250 C   0  0  0  0  0  0  0  0  0  0  0  0
  142.6050   81.2800  224.2010 Cl  0  0  0  0  0  0  0  0  0  0  0  0
  141.4800   79.0270  223.2890 C   0  0  0  0  0  0  0  0  0  0  0  0
  141.0280   78.1650  222.3110 C   0  0  0  0  0  0  0  0  0  0  0  0
  139.2450   71.0130  223.3080 C   0  0  0  0  0  0  0  0  0  0  0  0
  138.9340   69.6600  223.3470 C   0  0  0  0  0  0  0  0  0  0  0  0
  139.2140   68.8500  224.4150 C   0  0  0  0  0  0  0  0  0  0  0  0
  139.8330   69.4070  225.5030 C   0  0  0  0  0  0  0  0  0  0  0  0
  140.1240   68.6240  226.5790 C   0  0  0  0  0  0  0  0  0  0  0  0
  140.7500   69.1730  227.6860 C   0  0  0  0  0  0  0  0  0  0  0  0
  141.1130   68.1500  229.0580 Cl  0  0  0  0  0  0  0  0  0  0  0  0
  141.0510   70.5050  227.6360 C   0  0  0  0  0  0  0  0  0  0  0  0
  140.7680   71.3200  226.5590 C   0  0  0  0  0  0  0  0  0  0  0  0
  140.1360   70.7570  225.4470 C   0  0  0  0  0  0  0  0  0  0  0  0
  139.8510   71.5320  224.3860 N   0  0  0  0  0  0  0  0  0  0  0  0
  139.4760   73.6440  223.1140 H   0  0  0  0  0  0  0  0  0  0  0  0
  139.5105   73.9184  220.2830 H   0  0  0  0  0  0  0  0  0  0  0  0
  137.7908   73.9435  220.7442 H   0  0  0  0  0  0  0  0  0  0  0  0
  136.5544   76.8363  219.8871 H   0  0  0  0  0  0  0  0  0  0  0  0
  136.4258   76.6511  221.5963 H   0  0  0  0  0  0  0  0  0  0  0  0
  137.6675   78.8777  221.9596 H   0  0  0  0  0  0  0  0  0  0  0  0
  135.5950   79.3320  221.2980 H   0  0  0  0  0  0  0  0  0  0  0  0
  138.0237   79.0332  218.9424 H   0  0  0  0  0  0  0  0  0  0  0  0
  139.1554   79.5638  220.1729 H   0  0  0  0  0  0  0  0  0  0  0  0
  139.0149   76.9961  218.8200 H   0  0  0  0  0  0  0  0  0  0  0  0
  140.9437   76.4566  220.3443 H   0  0  0  0  0  0  0  0  0  0  0  0
  141.0201   77.7463  219.0276 H   0  0  0  0  0  0  0  0  0  0  0  0
  141.7842   79.9174  219.5553 H   0  0  0  0  0  0  0  0  0  0  0  0
  142.6105   81.4897  221.2806 H   0  0  0  0  0  0  0  0  0  0  0  0
  141.3855   78.7580  224.3514 H   0  0  0  0  0  0  0  0  0  0  0  0
  140.5758   77.2119  222.6227 H   0  0  0  0  0  0  0  0  0  0  0  0
  138.4360   69.2151  222.4729 H   0  0  0  0  0  0  0  0  0  0  0  0
  138.9495   67.7824  224.3998 H   0  0  0  0  0  0  0  0  0  0  0  0
  139.8619   67.5557  226.5688 H   0  0  0  0  0  0  0  0  0  0  0  0
  141.5492   70.9550  228.5074 H   0  0  0  0  0  0  0  0  0  0  0  0
  141.0336   72.3873  226.5754 H   0  0  0  0  0  0  0  0  0  0  0  0
  1  2  2  0
  2  3  1  0
  3  4  1  0
  4  5  1  0
  5  6  2  0
  5  7  1  0
  7  8  1  0
  8  9  1  0
  9 10  1  0
  9 11  1  0
 11 12  1  0
 12 13  1  0
 13 14  1  0
 14 15  2  0
 15 16  1  0
 16 17  2  0
 17 18  1  0
 17 19  1  0
 19 20  2  0
  2 21  1  0
 21 22  2  0
 22 23  1  0
 23 24  2  0
 24 25  1  0
 25 26  2  0
 26 27  1  0
 26 28  1  0
 28 29  2  0
 29 30  1  0
 30 31  2  0
 12  7  1  0
 20 14  1  0
 31 21  1  0
 30 24  1  0
  3 32  1  0
  4 33  1  0
  4 34  1  0
  8 35  1  0
  8 36  1  0
  9 37  1  1
 10 38  1  0
 11 39  1  0
 11 40  1  0
 12 41  1  6
 13 42  1  0
 13 43  1  0
 15 44  1  0
 16 45  1  0
 19 46  1  0
 20 47  1  0
 22 48  1  0
 23 49  1  0
 25 50  1  0
 28 51  1  0
 29 52  1  0
M  END
>  <smiles>  (9) 
O=C(NCC(=O)N1C[C@H](O)C[C@H]1Cc1ccc(Cl)cc1)c1ccc2cc(Cl)ccc2n1

>  <score_type>  (9) 
oracle

>  <origin>  (9) 
autodockgpu

>  <m_score__min__energy>  (9) 
-8.9499999999999993

>  <m_primary>  (9) 
energy

>  <rmsd>  (9) 
2.2171971351886284

>  <m_score__min__rmsd>  (9) 
2.2171971351886284

>  <meeko>  (9) 
{"free_energy": -8.05, "intermolecular_energy": -10.14, "internal_energy": -2.31, "cluster_size": 20, "cluster_id": 4, "rank_in_cluster": 12}

>  <energy>  (9) 
-8.74

>  <cluster_rmsd>  (9) 
0.0

>  <cluster>  (9) 
2

$$$$

     RDKit          3D

 52 55  0  0  0  0  0  0  0  0999 V2000
  137.6320   70.7560  221.8980 O   0  0  0  0  0  0  0  0  0  0  0  0
  138.4320   71.2870  222.6830 C   0  0  0  0  0  0  0  0  0  0  0  0
  138.9070   72.6150  222.5560 N   0  0  0  0  0  0  0  0  0  0  0  0
  138.4800   73.4720  221.4670 C   0  0  0  0  0  0  0  0  0  0  0  0
  139.0670   74.8190  221.7070 C   0  0  0  0  0  0  0  0  0  0  0  0
  140.2770   74.8570  222.0330 O   0  0  0  0  0  0  0  0  0  0  0  0
  138.2370   75.9540  221.5560 N   0  0  0  0  0  0  0  0  0  0  0  0
  136.9330   76.1810  222.2100 C   0  0  0  0  0  0  0  0  0  0  0  0
  137.1710   77.5810  222.7270 C   0  0  2  0  0  0  0  0  0  0  0  0
  135.9310   78.1420  223.0110 O   0  0  0  0  0  0  0  0  0  0  0  0
  137.7560   78.2760  221.5200 C   0  0  0  0  0  0  0  0  0  0  0  0
  138.4180   77.1580  220.7590 C   0  0  1  0  0  0  0  0  0  0  0  0
  139.8510   77.4160  220.4140 C   0  0  0  0  0  0  0  0  0  0  0  0
  140.6110   78.1950  221.3930 C   0  0  0  0  0  0  0  0  0  0  0  0
  140.8940   77.7850  222.6820 C   0  0  0  0  0  0  0  0  0  0  0  0
  141.6160   78.5910  223.5620 C   0  0  0  0  0  0  0  0  0  0  0  0
  142.0700   79.8280  223.1640 C   0  0  0  0  0  0  0  0  0  0  0  0
  142.9810   80.8970  224.1990 Cl  0  0  0  0  0  0  0  0  0  0  0  0
  141.7990   80.2570  221.8820 C   0  0  0  0  0  0  0  0  0  0  0  0
  141.0820   79.4420  221.0310 C   0  0  0  0  0  0  0  0  0  0  0  0
  138.9310   70.5030  223.8260 C   0  0  0  0  0  0  0  0  0  0  0  0
  138.7660   69.1260  223.8610 C   0  0  0  0  0  0  0  0  0  0  0  0
  139.2050   68.3360  224.8900 C   0  0  0  0  0  0  0  0  0  0  0  0
  139.8410   68.9410  225.9410 C   0  0  0  0  0  0  0  0  0  0  0  0
  140.2880   68.1810  226.9790 C   0  0  0  0  0  0  0  0  0  0  0  0
  140.9330   68.7780  228.0490 C   0  0  0  0  0  0  0  0  0  0  0  0
  141.4990   67.7830  229.3720 Cl  0  0  0  0  0  0  0  0  0  0  0  0
  141.0900   70.1350  228.0040 C   0  0  0  0  0  0  0  0  0  0  0  0
  140.6470   70.9290  226.9660 C   0  0  0  0  0  0  0  0  0  0  0  0
  139.9970   70.3170  225.8910 C   0  0  0  0  0  0  0  0  0  0  0  0
  139.5570   71.0700  224.8680 N   0  0  0  0  0  0  0  0  0  0  0  0
  139.5870   73.0060  223.2600 H   0  0  0  0  0  0  0  0  0  0  0  0
  138.8398   73.0700  220.5084 H   0  0  0  0  0  0  0  0  0  0  0  0
  137.3823   73.5279  221.4230 H   0  0  0  0  0  0  0  0  0  0  0  0
  136.0994   76.1417  221.4934 H   0  0  0  0  0  0  0  0  0  0  0  0
  136.6476   75.4376  222.9689 H   0  0  0  0  0  0  0  0  0  0  0  0
  137.8050   77.6411  223.6239 H   0  0  0  0  0  0  0  0  0  0  0  0
  135.2650   77.4510  223.2470 H   0  0  0  0  0  0  0  0  0  0  0  0
  136.9666   78.7488  220.9172 H   0  0  0  0  0  0  0  0  0  0  0  0
  138.4523   79.0849  221.7863 H   0  0  0  0  0  0  0  0  0  0  0  0
  137.9453   77.0529  219.7713 H   0  0  0  0  0  0  0  0  0  0  0  0
  140.3503   76.4430  220.2958 H   0  0  0  0  0  0  0  0  0  0  0  0
  139.8332   78.0236  219.4972 H   0  0  0  0  0  0  0  0  0  0  0  0
  140.5416   76.8000  223.0219 H   0  0  0  0  0  0  0  0  0  0  0  0
  141.8242   78.2354  224.5819 H   0  0  0  0  0  0  0  0  0  0  0  0
  142.1518   81.2414  221.5406 H   0  0  0  0  0  0  0  0  0  0  0  0
  140.8749   79.8033  220.0129 H   0  0  0  0  0  0  0  0  0  0  0  0
  138.2545   68.6421  223.0159 H   0  0  0  0  0  0  0  0  0  0  0  0
  139.0511   67.2469  224.8727 H   0  0  0  0  0  0  0  0  0  0  0  0
  140.1364   67.0916  226.9673 H   0  0  0  0  0  0  0  0  0  0  0  0
  141.6007   70.6240  228.8467 H   0  0  0  0  0  0  0  0  0  0  0  0
  140.8019   72.0179  226.9843 H   0  0  0  0  0  0  0  0  0  0  0  0
  1  2  2  0
  2  3  1  0
  3  4  1  0
  4  5  1  0
  5  6  2  0
  5  7  1  0
  7  8  1  0
  8  9  1  0
  9 10  1  0
  9 11  1  0
 11 12  1  0
 12 13  1  0
 13 14  1  0
 14 15  2  0
 15 16  1  0
 16 17  2  0
 17 18  1  0
 17 19  1  0
 19 20  2  0
  2 21  1  0
 21 22  2  0
 22 23  1  0
 23 24  2  0
 24 25  1  0
 25 26  2  0
 26 27  1  0
 26 28  1  0
 28 29  2  0
 29 30  1  0
 30 31  2  0
 12  7  1  0
 20 14  1  0
 31 21  1  0
 30 24  1  0
  3 32  1  0
  4 33  1  0
  4 34  1  0
  8 35  1  0
  8 36  1  0
  9 37  1  1
 10 38  1  0
 11 39  1  0
 11 40  1  0
 12 41  1  6
 13 42  1  0
 13 43  1  0
 15 44  1  0
 16 45  1  0
 19 46  1  0
 20 47  1  0
 22 48  1  0
 23 49  1  0
 25 50  1  0
 28 51  1  0
 29 52  1  0
M  END
>  <smiles>  (10) 
O=C(NCC(=O)N1C[C@H](O)C[C@H]1Cc1ccc(Cl)cc1)c1ccc2cc(Cl)ccc2n1

>  <score_type>  (10) 
oracle

>  <origin>  (10) 
autodockgpu

>  <m_score__min__energy>  (10) 
-8.9499999999999993

>  <m_primary>  (10) 
energy

>  <rmsd>  (10) 
2.736838699226252

>  <m_score__min__rmsd>  (10) 
2.736838699226252

>  <meeko>  (10) 
{"free_energy": -8.32, "intermolecular_energy": -10.41, "internal_energy": -2.1, "cluster_size": 20, "cluster_id": 4, "rank_in_cluster": 3}

>  <energy>  (10) 
-8.55

>  <cluster_rmsd>  (10) 
1.89

>  <cluster>  (10) 
2

$$$$

     RDKit          3D

 52 55  0  0  0  0  0  0  0  0999 V2000
  140.1860   72.3160  220.6700 O   0  0  0  0  0  0  0  0  0  0  0  0
  139.8840   72.7580  221.7890 C   0  0  0  0  0  0  0  0  0  0  0  0
  139.4650   74.0890  222.0310 N   0  0  0  0  0  0  0  0  0  0  0  0
  139.3570   75.0570  220.9570 C   0  0  0  0  0  0  0  0  0  0  0  0
  140.5300   75.9680  221.0620 C   0  0  0  0  0  0  0  0  0  0  0  0
  140.7110   76.5290  222.1690 O   0  0  0  0  0  0  0  0  0  0  0  0
  141.3540   76.1420  219.9250 N   0  0  0  0  0  0  0  0  0  0  0  0
  141.1930   77.1670  218.8740 C   0  0  0  0  0  0  0  0  0  0  0  0
  142.6150   77.6770  218.8270 C   0  0  2  0  0  0  0  0  0  0  0  0
  142.7810   78.3520  217.6230 O   0  0  0  0  0  0  0  0  0  0  0  0
  143.4170   76.3980  218.7840 C   0  0  0  0  0  0  0  0  0  0  0  0
  142.5300   75.4050  219.4880 C   0  0  1  0  0  0  0  0  0  0  0  0
  143.2010   74.6670  220.6040 C   0  0  0  0  0  0  0  0  0  0  0  0
  143.9380   73.4630  220.2180 C   0  0  0  0  0  0  0  0  0  0  0  0
  145.3120   73.3830  220.0950 C   0  0  0  0  0  0  0  0  0  0  0  0
  145.9420   72.2000  219.7110 C   0  0  0  0  0  0  0  0  0  0  0  0
  145.2040   71.0700  219.4430 C   0  0  0  0  0  0  0  0  0  0  0  0
  145.9110   69.5500  218.9590 Cl  0  0  0  0  0  0  0  0  0  0  0  0
  143.8300   71.1280  219.5590 C   0  0  0  0  0  0  0  0  0  0  0  0
  143.2310   72.3100  219.9400 C   0  0  0  0  0  0  0  0  0  0  0  0
  139.9590   71.8570  222.9520 C   0  0  0  0  0  0  0  0  0  0  0  0
  139.5110   70.5470  222.8580 C   0  0  0  0  0  0  0  0  0  0  0  0
  139.5520   69.6560  223.8980 C   0  0  0  0  0  0  0  0  0  0  0  0
  140.0620   70.0850  225.0950 C   0  0  0  0  0  0  0  0  0  0  0  0
  140.1150   69.2200  226.1460 C   0  0  0  0  0  0  0  0  0  0  0  0
  140.6290   69.6390  227.3620 C   0  0  0  0  0  0  0  0  0  0  0  0
  140.6870   68.5130  228.7000 Cl  0  0  0  0  0  0  0  0  0  0  0  0
  141.0670   70.9310  227.4430 C   0  0  0  0  0  0  0  0  0  0  0  0
  141.0250   71.8270  226.3950 C   0  0  0  0  0  0  0  0  0  0  0  0
  140.5040   71.3950  225.1710 C   0  0  0  0  0  0  0  0  0  0  0  0
  140.4540   72.2500  224.1350 N   0  0  0  0  0  0  0  0  0  0  0  0
  139.2220   74.4000  223.0080 H   0  0  0  0  0  0  0  0  0  0  0  0
  139.3656   74.5428  219.9846 H   0  0  0  0  0  0  0  0  0  0  0  0
  138.4167   75.6224  221.0356 H   0  0  0  0  0  0  0  0  0  0  0  0
  140.8791   76.7294  217.9148 H   0  0  0  0  0  0  0  0  0  0  0  0
  140.4222   77.9276  219.0670 H   0  0  0  0  0  0  0  0  0  0  0  0
  142.8932   78.3465  219.6542 H   0  0  0  0  0  0  0  0  0  0  0  0
  143.6980   78.7100  217.5300 H   0  0  0  0  0  0  0  0  0  0  0  0
  143.6082   76.0881  217.7460 H   0  0  0  0  0  0  0  0  0  0  0  0
  144.4073   76.4965  219.2526 H   0  0  0  0  0  0  0  0  0  0  0  0
  142.2551   74.5974  218.7936 H   0  0  0  0  0  0  0  0  0  0  0  0
  143.9094   75.3563  221.0867 H   0  0  0  0  0  0  0  0  0  0  0  0
  142.3914   74.3232  221.2645 H   0  0  0  0  0  0  0  0  0  0  0  0
  145.9229   74.2734  220.3049 H   0  0  0  0  0  0  0  0  0  0  0  0
  147.0379   72.1697  219.6216 H   0  0  0  0  0  0  0  0  0  0  0  0
  143.2178   70.2385  219.3492 H   0  0  0  0  0  0  0  0  0  0  0  0
  142.1347   72.3357  220.0269 H   0  0  0  0  0  0  0  0  0  0  0  0
  139.1007   70.2054  221.8963 H   0  0  0  0  0  0  0  0  0  0  0  0
  139.1860   68.6259  223.7754 H   0  0  0  0  0  0  0  0  0  0  0  0
  139.7497   68.1890  226.0290 H   0  0  0  0  0  0  0  0  0  0  0  0
  141.4782   71.2776  228.4026 H   0  0  0  0  0  0  0  0  0  0  0  0
  141.3924   72.8564  226.5190 H   0  0  0  0  0  0  0  0  0  0  0  0
  1  2  2  0
  2  3  1  0
  3  4  1  0
  4  5  1  0
  5  6  2  0
  5  7  1  0
  7  8  1  0
  8  9  1  0
  9 10  1  0
  9 11  1  0
 11 12  1  0
 12 13  1  0
 13 14  1  0
 14 15  2  0
 15 16  1  0
 16 17  2  0
 17 18  1  0
 17 19  1  0
 19 20  2  0
  2 21  1  0
 21 22  2  0
 22 23  1  0
 23 24  2  0
 24 25  1  0
 25 26  2  0
 26 27  1  0
 26 28  1  0
 28 29  2  0
 29 30  1  0
 30 31  2  0
 12  7  1  0
 20 14  1  0
 31 21  1  0
 30 24  1  0
  3 32  1  0
  4 33  1  0
  4 34  1  0
  8 35  1  0
  8 36  1  0
  9 37  1  1
 10 38  1  0
 11 39  1  0
 11 40  1  0
 12 41  1  6
 13 42  1  0
 13 43  1  0
 15 44  1  0
 16 45  1  0
 19 46  1  0
 20 47  1  0
 22 48  1  0
 23 49  1  0
 25 50  1  0
 28 51  1  0
 29 52  1  0
M  END
>  <smiles>  (11) 
O=C(NCC(=O)N1C[C@H](O)C[C@H]1Cc1ccc(Cl)cc1)c1ccc2cc(Cl)ccc2n1

>  <score_type>  (11) 
oracle

>  <origin>  (11) 
autodockgpu

>  <m_score__min__energy>  (11) 
-8.9499999999999993

>  <m_primary>  (11) 
energy

>  <rmsd>  (11) 
2.160939527681352

>  <m_score__min__rmsd>  (11) 
2.160939527681352

>  <meeko>  (11) 
{"free_energy": -8.74, "intermolecular_energy": -10.83, "internal_energy": -1.99, "cluster_size": 13, "cluster_id": 2, "rank_in_cluster": 1}

>  <energy>  (11) 
-8.53

>  <cluster_rmsd>  (11) 
0.28

>  <cluster>  (11) 
2

$$$$

     RDKit          3D

 52 55  0  0  0  0  0  0  0  0999 V2000
  138.4240   71.5140  221.3160 O   0  0  0  0  0  0  0  0  0  0  0  0
  138.9710   72.0330  222.3010 C   0  0  0  0  0  0  0  0  0  0  0  0
  139.2890   73.4090  222.4010 N   0  0  0  0  0  0  0  0  0  0  0  0
  138.9900   74.3360  221.3270 C   0  0  0  0  0  0  0  0  0  0  0  0
  139.8050   73.9290  220.1500 C   0  0  0  0  0  0  0  0  0  0  0  0
  139.2780   73.1170  219.3530 O   0  0  0  0  0  0  0  0  0  0  0  0
  141.1020   74.4750  220.0050 N   0  0  0  0  0  0  0  0  0  0  0  0
  142.2360   73.8630  219.2850 C   0  0  0  0  0  0  0  0  0  0  0  0
  142.6550   75.0550  218.4540 C   0  0  2  0  0  0  0  0  0  0  0  0
  143.9540   74.8260  218.0140 O   0  0  0  0  0  0  0  0  0  0  0  0
  142.6740   76.1690  219.4730 C   0  0  0  0  0  0  0  0  0  0  0  0
  141.6600   75.7260  220.4950 C   0  0  1  0  0  0  0  0  0  0  0  0
  140.6130   76.7500  220.8030 C   0  0  0  0  0  0  0  0  0  0  0  0
  141.0630   77.9090  221.5750 C   0  0  0  0  0  0  0  0  0  0  0  0
  142.1960   78.6510  221.2990 C   0  0  0  0  0  0  0  0  0  0  0  0
  142.5660   79.7380  222.0900 C   0  0  0  0  0  0  0  0  0  0  0  0
  141.8040   80.1040  223.1750 C   0  0  0  0  0  0  0  0  0  0  0  0
  142.1930   81.4500  224.2150 Cl  0  0  0  0  0  0  0  0  0  0  0  0
  140.6690   79.3780  223.4690 C   0  0  0  0  0  0  0  0  0  0  0  0
  140.3240   78.3060  222.6720 C   0  0  0  0  0  0  0  0  0  0  0  0
  139.3190   71.1790  223.4500 C   0  0  0  0  0  0  0  0  0  0  0  0
  139.0760   69.8140  223.4130 C   0  0  0  0  0  0  0  0  0  0  0  0
  139.3750   68.9620  224.4430 C   0  0  0  0  0  0  0  0  0  0  0  0
  139.9440   69.4910  225.5720 C   0  0  0  0  0  0  0  0  0  0  0  0
  140.2520   68.6670  226.6120 C   0  0  0  0  0  0  0  0  0  0  0  0
  140.8280   69.1870  227.7600 C   0  0  0  0  0  0  0  0  0  0  0  0
  141.2150   68.1120  229.0850 Cl  0  0  0  0  0  0  0  0  0  0  0  0
  141.0640   70.5330  227.7860 C   0  0  0  0  0  0  0  0  0  0  0  0
  140.7620   71.3890  226.7460 C   0  0  0  0  0  0  0  0  0  0  0  0
  140.1800   70.8550  225.5930 C   0  0  0  0  0  0  0  0  0  0  0  0
  139.8780   71.6700  224.5670 N   0  0  0  0  0  0  0  0  0  0  0  0
  139.7530   73.7860  223.2680 H   0  0  0  0  0  0  0  0  0  0  0  0
  137.9197   74.2902  221.0775 H   0  0  0  0  0  0  0  0  0  0  0  0
  139.2270   75.3676  221.6263 H   0  0  0  0  0  0  0  0  0  0  0  0
  143.0324   73.5366  219.9700 H   0  0  0  0  0  0  0  0  0  0  0  0
  142.0012   72.9493  218.7193 H   0  0  0  0  0  0  0  0  0  0  0  0
  142.0136   75.2610  217.5844 H   0  0  0  0  0  0  0  0  0  0  0  0
  144.4840   75.6600  218.0000 H   0  0  0  0  0  0  0  0  0  0  0  0
  143.6711   76.2705  219.9264 H   0  0  0  0  0  0  0  0  0  0  0  0
  142.4430   77.1525  219.0378 H   0  0  0  0  0  0  0  0  0  0  0  0
  142.1528   75.5836  221.4681 H   0  0  0  0  0  0  0  0  0  0  0  0
  140.2086   77.1170  219.8481 H   0  0  0  0  0  0  0  0  0  0  0  0
  139.8724   76.2390  221.4357 H   0  0  0  0  0  0  0  0  0  0  0  0
  142.8202   78.3777  220.4354 H   0  0  0  0  0  0  0  0  0  0  0  0
  143.4745   80.3074  221.8443 H   0  0  0  0  0  0  0  0  0  0  0  0
  140.0439   79.6514  224.3318 H   0  0  0  0  0  0  0  0  0  0  0  0
  139.4151   77.7394  222.9228 H   0  0  0  0  0  0  0  0  0  0  0  0
  138.6178   69.3923  222.5063 H   0  0  0  0  0  0  0  0  0  0  0  0
  139.1646   67.8850  224.3662 H   0  0  0  0  0  0  0  0  0  0  0  0
  140.0436   67.5893  226.5406 H   0  0  0  0  0  0  0  0  0  0  0  0
  141.5223   70.9599  228.6903 H   0  0  0  0  0  0  0  0  0  0  0  0
  140.9743   72.4656  226.8229 H   0  0  0  0  0  0  0  0  0  0  0  0
  1  2  2  0
  2  3  1  0
  3  4  1  0
  4  5  1  0
  5  6  2  0
  5  7  1  0
  7  8  1  0
  8  9  1  0
  9 10  1  0
  9 11  1  0
 11 12  1  0
 12 13  1  0
 13 14  1  0
 14 15  2  0
 15 16  1  0
 16 17  2  0
 17 18  1  0
 17 19  1  0
 19 20  2  0
  2 21  1  0
 21 22  2  0
 22 23  1  0
 23 24  2  0
 24 25  1  0
 25 26  2  0
 26 27  1  0
 26 28  1  0
 28 29  2  0
 29 30  1  0
 30 31  2  0
 12  7  1  0
 20 14  1  0
 31 21  1  0
 30 24  1  0
  3 32  1  0
  4 33  1  0
  4 34  1  0
  8 35  1  0
  8 36  1  0
  9 37  1  6
 10 38  1  0
 11 39  1  0
 11 40  1  0
 12 41  1  1
 13 42  1  0
 13 43  1  0
 15 44  1  0
 16 45  1  0
 19 46  1  0
 20 47  1  0
 22 48  1  0
 23 49  1  0
 25 50  1  0
 28 51  1  0
 29 52  1  0
M  END
>  <smiles>  (12) 
O=C(NCC(=O)N1C[C@H](O)C[C@H]1Cc1ccc(Cl)cc1)c1ccc2cc(Cl)ccc2n1

>  <score_type>  (12) 
oracle

>  <origin>  (12) 
autodockgpu

>  <m_score__min__energy>  (12) 
-8.9499999999999993

>  <m_primary>  (12) 
energy

>  <rmsd>  (12) 
1.8018473938295272

>  <m_score__min__rmsd>  (12) 
1.8018473938295272

>  <meeko>  (12) 
{"free_energy": -8.39, "intermolecular_energy": -10.48, "internal_energy": -1.29, "cluster_size": 8, "cluster_id": 1, "rank_in_cluster": 4}

>  <energy>  (12) 
-8.41

>  <cluster_rmsd>  (12) 
1.12

>  <cluster>  (12) 
2

$$$$

     RDKit          3D

 52 55  0  0  0  0  0  0  0  0999 V2000
  138.6260   72.8800  220.9380 O   0  0  0  0  0  0  0  0  0  0  0  0
  139.7070   72.7650  221.5360 C   0  0  0  0  0  0  0  0  0  0  0  0
  140.8980   73.4300  221.1600 N   0  0  0  0  0  0  0  0  0  0  0  0
  140.9420   74.3180  220.0150 C   0  0  0  0  0  0  0  0  0  0  0  0
  142.2880   74.9520  219.9970 C   0  0  0  0  0  0  0  0  0  0  0  0
  143.2760   74.1810  220.0380 O   0  0  0  0  0  0  0  0  0  0  0  0
  142.3690   76.3640  219.9360 N   0  0  0  0  0  0  0  0  0  0  0  0
  143.0730   77.1580  218.9110 C   0  0  0  0  0  0  0  0  0  0  0  0
  141.9720   78.1390  218.5780 C   0  0  2  0  0  0  0  0  0  0  0  0
  142.5550   79.2280  217.9410 O   0  0  0  0  0  0  0  0  0  0  0  0
  141.4980   78.5690  219.9460 C   0  0  0  0  0  0  0  0  0  0  0  0
  141.8130   77.3800  220.8160 C   0  0  1  0  0  0  0  0  0  0  0  0
  140.6520   76.8830  221.6180 C   0  0  0  0  0  0  0  0  0  0  0  0
  139.8950   77.9050  222.3420 C   0  0  0  0  0  0  0  0  0  0  0  0
  138.5190   78.0350  222.3180 C   0  0  0  0  0  0  0  0  0  0  0  0
  137.8690   79.0440  223.0280 C   0  0  0  0  0  0  0  0  0  0  0  0
  138.5890   79.9450  223.7790 C   0  0  0  0  0  0  0  0  0  0  0  0
  137.8560   81.2350  224.6970 Cl  0  0  0  0  0  0  0  0  0  0  0  0
  139.9630   79.8340  223.8170 C   0  0  0  0  0  0  0  0  0  0  0  0
  140.5830   78.8270  223.1060 C   0  0  0  0  0  0  0  0  0  0  0  0
  139.7740   71.8840  222.7160 C   0  0  0  0  0  0  0  0  0  0  0  0
  139.2080   70.6170  222.6820 C   0  0  0  0  0  0  0  0  0  0  0  0
  139.2350   69.7480  223.7400 C   0  0  0  0  0  0  0  0  0  0  0  0
  139.8530   70.1530  224.8930 C   0  0  0  0  0  0  0  0  0  0  0  0
  139.8950   69.3090  225.9610 C   0  0  0  0  0  0  0  0  0  0  0  0
  140.5160   69.7050  227.1340 C   0  0  0  0  0  0  0  0  0  0  0  0
  140.5570   68.6050  228.4940 Cl  0  0  0  0  0  0  0  0  0  0  0  0
  141.0700   70.9540  227.1560 C   0  0  0  0  0  0  0  0  0  0  0  0
  141.0420   71.8290  226.0890 C   0  0  0  0  0  0  0  0  0  0  0  0
  140.4120   71.4210  224.9100 C   0  0  0  0  0  0  0  0  0  0  0  0
  140.3740   72.2550  223.8570 N   0  0  0  0  0  0  0  0  0  0  0  0
  141.7840   73.2880  221.7140 H   0  0  0  0  0  0  0  0  0  0  0  0
  140.7831   73.7460  219.0889 H   0  0  0  0  0  0  0  0  0  0  0  0
  140.1532   75.0816  220.0843 H   0  0  0  0  0  0  0  0  0  0  0  0
  143.9639   77.6594  219.3170 H   0  0  0  0  0  0  0  0  0  0  0  0
  143.4720   76.5865  218.0600 H   0  0  0  0  0  0  0  0  0  0  0  0
  141.1727   77.7371  217.9380 H   0  0  0  0  0  0  0  0  0  0  0  0
  143.3480   78.9600  217.4160 H   0  0  0  0  0  0  0  0  0  0  0  0
  142.0419   79.4618  220.2881 H   0  0  0  0  0  0  0  0  0  0  0  0
  140.4330   78.8435  219.9641 H   0  0  0  0  0  0  0  0  0  0  0  0
  142.5368   77.6699  221.5919 H   0  0  0  0  0  0  0  0  0  0  0  0
  139.9602   76.3738  220.9309 H   0  0  0  0  0  0  0  0  0  0  0  0
  141.0805   76.2258  222.3890 H   0  0  0  0  0  0  0  0  0  0  0  0
  137.9228   77.3259  221.7249 H   0  0  0  0  0  0  0  0  0  0  0  0
  136.7724   79.1204  222.9875 H   0  0  0  0  0  0  0  0  0  0  0  0
  140.5601   80.5428  224.4095 H   0  0  0  0  0  0  0  0  0  0  0  0
  141.6798   78.7551  223.1499 H   0  0  0  0  0  0  0  0  0  0  0  0
  138.7111   70.2936  221.7554 H   0  0  0  0  0  0  0  0  0  0  0  0
  138.7732   68.7524  223.6658 H   0  0  0  0  0  0  0  0  0  0  0  0
  139.4354   68.3120  225.8920 H   0  0  0  0  0  0  0  0  0  0  0  0
  141.5685   71.2819  228.0801 H   0  0  0  0  0  0  0  0  0  0  0  0
  141.5047   72.8241  226.1647 H   0  0  0  0  0  0  0  0  0  0  0  0
  1  2  2  0
  2  3  1  0
  3  4  1  0
  4  5  1  0
  5  6  2  0
  5  7  1  0
  7  8  1  0
  8  9  1  0
  9 10  1  0
  9 11  1  0
 11 12  1  0
 12 13  1  0
 13 14  1  0
 14 15  2  0
 15 16  1  0
 16 17  2  0
 17 18  1  0
 17 19  1  0
 19 20  2  0
  2 21  1  0
 21 22  2  0
 22 23  1  0
 23 24  2  0
 24 25  1  0
 25 26  2  0
 26 27  1  0
 26 28  1  0
 28 29  2  0
 29 30  1  0
 30 31  2  0
 12  7  1  0
 20 14  1  0
 31 21  1  0
 30 24  1  0
  3 32  1  0
  4 33  1  0
  4 34  1  0
  8 35  1  0
  8 36  1  0
  9 37  1  6
 10 38  1  0
 11 39  1  0
 11 40  1  0
 12 41  1  1
 13 42  1  0
 13 43  1  0
 15 44  1  0
 16 45  1  0
 19 46  1  0
 20 47  1  0
 22 48  1  0
 23 49  1  0
 25 50  1  0
 28 51  1  0
 29 52  1  0
M  END
>  <smiles>  (13) 
O=C(NCC(=O)N1C[C@H](O)C[C@H]1Cc1ccc(Cl)cc1)c1ccc2cc(Cl)ccc2n1

>  <score_type>  (13) 
oracle

>  <origin>  (13) 
autodockgpu

>  <m_score__min__energy>  (13) 
-8.9499999999999993

>  <m_primary>  (13) 
energy

>  <rmsd>  (13) 
2.51641875716919

>  <m_score__min__rmsd>  (13) 
2.51641875716919

>  <meeko>  (13) 
{"free_energy": -8.13, "intermolecular_energy": -10.22, "internal_energy": -1.67, "cluster_size": 3, "cluster_id": 5, "rank_in_cluster": 3}

>  <energy>  (13) 
-8.28

>  <cluster_rmsd>  (13) 
1.22

>  <cluster>  (13) 
2

$$$$

     RDKit          3D

 52 55  0  0  0  0  0  0  0  0999 V2000
  139.4150   71.7970  220.7090 O   0  0  0  0  0  0  0  0  0  0  0  0
  139.6230   72.3190  221.8150 C   0  0  0  0  0  0  0  0  0  0  0  0
  139.7350   73.7150  222.0270 N   0  0  0  0  0  0  0  0  0  0  0  0
  139.6100   74.6600  220.9350 C   0  0  0  0  0  0  0  0  0  0  0  0
  140.6820   75.6780  221.1050 C   0  0  0  0  0  0  0  0  0  0  0  0
  140.8670   76.1140  222.2670 O   0  0  0  0  0  0  0  0  0  0  0  0
  141.4140   76.0860  219.9650 N   0  0  0  0  0  0  0  0  0  0  0  0
  141.0460   77.1630  219.0260 C   0  0  0  0  0  0  0  0  0  0  0  0
  142.3660   77.8980  218.9830 C   0  0  2  0  0  0  0  0  0  0  0  0
  142.3680   78.6970  217.8460 O   0  0  0  0  0  0  0  0  0  0  0  0
  143.3560   76.7730  218.7900 C   0  0  0  0  0  0  0  0  0  0  0  0
  142.6700   75.5900  219.4220 C   0  0  1  0  0  0  0  0  0  0  0  0
  143.4990   74.8710  220.4380 C   0  0  0  0  0  0  0  0  0  0  0  0
  143.6410   73.4280  220.2370 C   0  0  0  0  0  0  0  0  0  0  0  0
  142.6190   72.5060  220.3710 C   0  0  0  0  0  0  0  0  0  0  0  0
  142.8360   71.1430  220.1730 C   0  0  0  0  0  0  0  0  0  0  0  0
  144.0850   70.6760  219.8350 C   0  0  0  0  0  0  0  0  0  0  0  0
  144.4430   68.9890  219.5680 Cl  0  0  0  0  0  0  0  0  0  0  0  0
  145.1200   71.5780  219.6950 C   0  0  0  0  0  0  0  0  0  0  0  0
  144.8800   72.9220  219.8970 C   0  0  0  0  0  0  0  0  0  0  0  0
  139.7670   71.4490  222.9950 C   0  0  0  0  0  0  0  0  0  0  0  0
  139.3350   70.1300  222.9540 C   0  0  0  0  0  0  0  0  0  0  0  0
  139.4380   69.2660  224.0120 C   0  0  0  0  0  0  0  0  0  0  0  0
  139.9980   69.7320  225.1730 C   0  0  0  0  0  0  0  0  0  0  0  0
  140.1130   68.8940  226.2410 C   0  0  0  0  0  0  0  0  0  0  0  0
  140.6770   69.3500  227.4210 C   0  0  0  0  0  0  0  0  0  0  0  0
  140.8150   68.2580  228.7810 Cl  0  0  0  0  0  0  0  0  0  0  0  0
  141.0990   70.6500  227.4500 C   0  0  0  0  0  0  0  0  0  0  0  0
  140.9940   71.5190  226.3830 C   0  0  0  0  0  0  0  0  0  0  0  0
  140.4230   71.0500  225.1970 C   0  0  0  0  0  0  0  0  0  0  0  0
  140.3110   71.8780  224.1440 N   0  0  0  0  0  0  0  0  0  0  0  0
  139.9120   74.0930  222.9950 H   0  0  0  0  0  0  0  0  0  0  0  0
  139.7327   74.1414  219.9727 H   0  0  0  0  0  0  0  0  0  0  0  0
  138.6177   75.1347  220.9428 H   0  0  0  0  0  0  0  0  0  0  0  0
  140.7599   76.7703  218.0391 H   0  0  0  0  0  0  0  0  0  0  0  0
  140.1756   77.7690  219.3178 H   0  0  0  0  0  0  0  0  0  0  0  0
  142.5735   78.5262  219.8618 H   0  0  0  0  0  0  0  0  0  0  0  0
  143.2880   78.9210  217.5600 H   0  0  0  0  0  0  0  0  0  0  0  0
  143.5443   76.5937  217.7212 H   0  0  0  0  0  0  0  0  0  0  0  0
  144.3394   76.9862  219.2343 H   0  0  0  0  0  0  0  0  0  0  0  0
  142.4937   74.8149  218.6617 H   0  0  0  0  0  0  0  0  0  0  0  0
  144.5057   75.3142  220.4273 H   0  0  0  0  0  0  0  0  0  0  0  0
  142.9690   74.9892  221.3946 H   0  0  0  0  0  0  0  0  0  0  0  0
  141.6115   72.8561  220.6400 H   0  0  0  0  0  0  0  0  0  0  0  0
  142.0017   70.4354  220.2880 H   0  0  0  0  0  0  0  0  0  0  0  0
  146.1275   71.2288  219.4248 H   0  0  0  0  0  0  0  0  0  0  0  0
  145.7178   73.6254  219.7814 H   0  0  0  0  0  0  0  0  0  0  0  0
  138.8856   69.7587  222.0212 H   0  0  0  0  0  0  0  0  0  0  0  0
  139.0817   68.2284  223.9322 H   0  0  0  0  0  0  0  0  0  0  0  0
  139.7581   67.8555  226.1662 H   0  0  0  0  0  0  0  0  0  0  0  0
  141.5496   71.0262  228.3803 H   0  0  0  0  0  0  0  0  0  0  0  0
  141.3513   72.5562  226.4642 H   0  0  0  0  0  0  0  0  0  0  0  0
  1  2  2  0
  2  3  1  0
  3  4  1  0
  4  5  1  0
  5  6  2  0
  5  7  1  0
  7  8  1  0
  8  9  1  0
  9 10  1  0
  9 11  1  0
 11 12  1  0
 12 13  1  0
 13 14  1  0
 14 15  2  0
 15 16  1  0
 16 17  2  0
 17 18  1  0
 17 19  1  0
 19 20  2  0
  2 21  1  0
 21 22  2  0
 22 23  1  0
 23 24  2  0
 24 25  1  0
 25 26  2  0
 26 27  1  0
 26 28  1  0
 28 29  2  0
 29 30  1  0
 30 31  2  0
 12  7  1  0
 20 14  1  0
 31 21  1  0
 30 24  1  0
  3 32  1  0
  4 33  1  0
  4 34  1  0
  8 35  1  0
  8 36  1  0
  9 37  1  1
 10 38  1  0
 11 39  1  0
 11 40  1  0
 12 41  1  6
 13 42  1  0
 13 43  1  0
 15 44  1  0
 16 45  1  0
 19 46  1  0
 20 47  1  0
 22 48  1  0
 23 49  1  0
 25 50  1  0
 28 51  1  0
 29 52  1  0
M  END
>  <smiles>  (14) 
O=C(NCC(=O)N1C[C@H](O)C[C@H]1Cc1ccc(Cl)cc1)c1ccc2cc(Cl)ccc2n1

>  <score_type>  (14) 
oracle

>  <origin>  (14) 
autodockgpu

>  <m_score__min__energy>  (14) 
-8.9499999999999993

>  <m_primary>  (14) 
energy

>  <rmsd>  (14) 
2.028311353800549

>  <m_score__min__rmsd>  (14) 
2.028311353800549

>  <meeko>  (14) 
{"free_energy": -8.03, "intermolecular_energy": -10.11, "internal_energy": -2.5, "cluster_size": 13, "cluster_id": 2, "rank_in_cluster": 11}

>  <energy>  (14) 
-8.26

>  <cluster_rmsd>  (14) 
1.22

>  <cluster>  (14) 
2

$$$$

     RDKit          3D

 52 55  0  0  0  0  0  0  0  0999 V2000
  140.1930   72.1900  220.7670 O   0  0  0  0  0  0  0  0  0  0  0  0
  139.7920   72.5780  221.8750 C   0  0  0  0  0  0  0  0  0  0  0  0
  139.2460   73.8620  222.1170 N   0  0  0  0  0  0  0  0  0  0  0  0
  139.1130   74.8420  221.0570 C   0  0  0  0  0  0  0  0  0  0  0  0
  139.3630   76.1810  221.6560 C   0  0  0  0  0  0  0  0  0  0  0  0
  139.0080   76.3400  222.8490 O   0  0  0  0  0  0  0  0  0  0  0  0
  139.9740   77.1760  220.8570 N   0  0  0  0  0  0  0  0  0  0  0  0
  140.3430   78.5400  221.2840 C   0  0  0  0  0  0  0  0  0  0  0  0
  141.7620   78.5720  220.7650 C   0  0  2  0  0  0  0  0  0  0  0  0
  142.1540   79.9030  220.6910 O   0  0  0  0  0  0  0  0  0  0  0  0
  141.6050   78.0300  219.3640 C   0  0  0  0  0  0  0  0  0  0  0  0
  140.3930   77.1430  219.4640 C   0  0  1  0  0  0  0  0  0  0  0  0
  140.6070   75.7520  218.9540 C   0  0  0  0  0  0  0  0  0  0  0  0
  141.9270   75.1770  219.2110 C   0  0  0  0  0  0  0  0  0  0  0  0
  142.8990   74.9640  218.2500 C   0  0  0  0  0  0  0  0  0  0  0  0
  144.1320   74.4000  218.5720 C   0  0  0  0  0  0  0  0  0  0  0  0
  144.4170   74.0370  219.8690 C   0  0  0  0  0  0  0  0  0  0  0  0
  145.9340   73.3260  220.3580 Cl  0  0  0  0  0  0  0  0  0  0  0  0
  143.4630   74.2400  220.8440 C   0  0  0  0  0  0  0  0  0  0  0  0
  142.2500   74.8000  220.5000 C   0  0  0  0  0  0  0  0  0  0  0  0
  139.8810   71.6610  223.0240 C   0  0  0  0  0  0  0  0  0  0  0  0
  139.4510   70.3460  222.9110 C   0  0  0  0  0  0  0  0  0  0  0  0
  139.5050   69.4400  223.9370 C   0  0  0  0  0  0  0  0  0  0  0  0
  140.0120   69.8570  225.1390 C   0  0  0  0  0  0  0  0  0  0  0  0
  140.0790   68.9770  226.1770 C   0  0  0  0  0  0  0  0  0  0  0  0
  140.5890   69.3840  227.3990 C   0  0  0  0  0  0  0  0  0  0  0  0
  140.6650   68.2380  228.7190 Cl  0  0  0  0  0  0  0  0  0  0  0  0
  141.0100   70.6800  227.4990 C   0  0  0  0  0  0  0  0  0  0  0  0
  140.9540   71.5920  226.4640 C   0  0  0  0  0  0  0  0  0  0  0  0
  140.4370   71.1720  225.2350 C   0  0  0  0  0  0  0  0  0  0  0  0
  140.3740   72.0420  224.2130 N   0  0  0  0  0  0  0  0  0  0  0  0
  138.9220   74.1280  223.0840 H   0  0  0  0  0  0  0  0  0  0  0  0
  139.8490   74.6411  220.2646 H   0  0  0  0  0  0  0  0  0  0  0  0
  138.1088   74.7974  220.6102 H   0  0  0  0  0  0  0  0  0  0  0  0
  139.7124   79.3060  220.8091 H   0  0  0  0  0  0  0  0  0  0  0  0
  140.2263   78.7483  222.3578 H   0  0  0  0  0  0  0  0  0  0  0  0
  142.4906   78.0185  221.3755 H   0  0  0  0  0  0  0  0  0  0  0  0
  143.0550   80.0390  221.0750 H   0  0  0  0  0  0  0  0  0  0  0  0
  141.4378   78.8445  218.6438 H   0  0  0  0  0  0  0  0  0  0  0  0
  142.4986   77.4959  219.0087 H   0  0  0  0  0  0  0  0  0  0  0  0
  139.6003   77.5240  218.8033 H   0  0  0  0  0  0  0  0  0  0  0  0
  139.8570   75.1002  219.4259 H   0  0  0  0  0  0  0  0  0  0  0  0
  140.5170   75.8174  217.8596 H   0  0  0  0  0  0  0  0  0  0  0  0
  142.6938   75.2465  217.2069 H   0  0  0  0  0  0  0  0  0  0  0  0
  144.8832   74.2437  217.7838 H   0  0  0  0  0  0  0  0  0  0  0  0
  143.6675   73.9577  221.8873 H   0  0  0  0  0  0  0  0  0  0  0  0
  141.5024   74.9540  221.2921 H   0  0  0  0  0  0  0  0  0  0  0  0
  139.0446   70.0132  221.9445 H   0  0  0  0  0  0  0  0  0  0  0  0
  139.1514   68.4075  223.7995 H   0  0  0  0  0  0  0  0  0  0  0  0
  139.7280   67.9429  226.0446 H   0  0  0  0  0  0  0  0  0  0  0  0
  141.4185   71.0174  228.4630 H   0  0  0  0  0  0  0  0  0  0  0  0
  141.3077   72.6243  226.6031 H   0  0  0  0  0  0  0  0  0  0  0  0
  1  2  2  0
  2  3  1  0
  3  4  1  0
  4  5  1  0
  5  6  2  0
  5  7  1  0
  7  8  1  0
  8  9  1  0
  9 10  1  0
  9 11  1  0
 11 12  1  0
 12 13  1  0
 13 14  1  0
 14 15  2  0
 15 16  1  0
 16 17  2  0
 17 18  1  0
 17 19  1  0
 19 20  2  0
  2 21  1  0
 21 22  2  0
 22 23  1  0
 23 24  2  0
 24 25  1  0
 25 26  2  0
 26 27  1  0
 26 28  1  0
 28 29  2  0
 29 30  1  0
 30 31  2  0
 12  7  1  0
 20 14  1  0
 31 21  1  0
 30 24  1  0
  3 32  1  0
  4 33  1  0
  4 34  1  0
  8 35  1  0
  8 36  1  0
  9 37  1  1
 10 38  1  0
 11 39  1  0
 11 40  1  0
 12 41  1  6
 13 42  1  0
 13 43  1  0
 15 44  1  0
 16 45  1  0
 19 46  1  0
 20 47  1  0
 22 48  1  0
 23 49  1  0
 25 50  1  0
 28 51  1  0
 29 52  1  0
M  END
>  <smiles>  (15) 
O=C(NCC(=O)N1C[C@H](O)C[C@H]1Cc1ccc(Cl)cc1)c1ccc2cc(Cl)ccc2n1

>  <score_type>  (15) 
oracle

>  <origin>  (15) 
autodockgpu

>  <m_score__min__energy>  (15) 
-8.9499999999999993

>  <m_primary>  (15) 
energy

>  <rmsd>  (15) 
2.367645201518197

>  <m_score__min__rmsd>  (15) 
2.367645201518197

>  <meeko>  (15) 
{"free_energy": -8.14, "intermolecular_energy": -10.22, "internal_energy": -1.95, "cluster_size": 13, "cluster_id": 2, "rank_in_cluster": 10}

>  <energy>  (15) 
-8.2

>  <cluster_rmsd>  (15) 
0.53

>  <cluster>  (15) 
2

$$$$

     RDKit          3D

 52 55  0  0  0  0  0  0  0  0999 V2000
  139.9250   73.8030  221.9840 O   0  0  0  0  0  0  0  0  0  0  0  0
  140.1160   72.5910  221.8000 C   0  0  0  0  0  0  0  0  0  0  0  0
  140.3380   72.0050  220.5310 N   0  0  0  0  0  0  0  0  0  0  0  0
  140.3580   72.8030  219.3200 C   0  0  0  0  0  0  0  0  0  0  0  0
  141.7570   72.8060  218.8130 C   0  0  0  0  0  0  0  0  0  0  0  0
  141.9230   72.4830  217.6130 O   0  0  0  0  0  0  0  0  0  0  0  0
  142.7970   73.1670  219.7020 N   0  0  0  0  0  0  0  0  0  0  0  0
  143.8680   72.2830  220.2040 C   0  0  0  0  0  0  0  0  0  0  0  0
  145.0560   73.1770  219.9300 C   0  0  2  0  0  0  0  0  0  0  0  0
  146.1160   72.7170  220.7020 O   0  0  0  0  0  0  0  0  0  0  0  0
  144.5930   74.5060  220.4780 C   0  0  0  0  0  0  0  0  0  0  0  0
  143.0950   74.4400  220.3400 C   0  0  1  0  0  0  0  0  0  0  0  0
  142.4930   75.6060  219.6210 C   0  0  0  0  0  0  0  0  0  0  0  0
  141.9270   76.6540  220.4710 C   0  0  0  0  0  0  0  0  0  0  0  0
  142.0970   78.0120  220.2730 C   0  0  0  0  0  0  0  0  0  0  0  0
  141.5330   78.9510  221.1350 C   0  0  0  0  0  0  0  0  0  0  0  0
  140.7840   78.5470  222.2160 C   0  0  0  0  0  0  0  0  0  0  0  0
  140.0420   79.6540  223.3420 Cl  0  0  0  0  0  0  0  0  0  0  0  0
  140.6000   77.1970  222.4330 C   0  0  0  0  0  0  0  0  0  0  0  0
  141.1690   76.2870  221.5660 C   0  0  0  0  0  0  0  0  0  0  0  0
  140.1160   71.6880  222.9640 C   0  0  0  0  0  0  0  0  0  0  0  0
  139.5900   70.4080  222.8630 C   0  0  0  0  0  0  0  0  0  0  0  0
  139.5580   69.5170  223.9030 C   0  0  0  0  0  0  0  0  0  0  0  0
  140.0740   69.9150  225.1080 C   0  0  0  0  0  0  0  0  0  0  0  0
  140.0550   69.0500  226.1600 C   0  0  0  0  0  0  0  0  0  0  0  0
  140.5730   69.4370  227.3850 C   0  0  0  0  0  0  0  0  0  0  0  0
  140.5390   68.3110  228.7230 Cl  0  0  0  0  0  0  0  0  0  0  0  0
  141.0880   70.7000  227.4740 C   0  0  0  0  0  0  0  0  0  0  0  0
  141.1200   71.5960  226.4240 C   0  0  0  0  0  0  0  0  0  0  0  0
  140.5940   71.1960  225.1920 C   0  0  0  0  0  0  0  0  0  0  0  0
  140.6150   72.0510  224.1560 N   0  0  0  0  0  0  0  0  0  0  0  0
  140.4960   70.9670  220.4440 H   0  0  0  0  0  0  0  0  0  0  0  0
  139.6865   72.3626  218.5683 H   0  0  0  0  0  0  0  0  0  0  0  0
  140.0165   73.8284  219.5246 H   0  0  0  0  0  0  0  0  0  0  0  0
  143.7543   72.0642  221.2760 H   0  0  0  0  0  0  0  0  0  0  0  0
  143.9112   71.2835  219.7468 H   0  0  0  0  0  0  0  0  0  0  0  0
  145.3716   73.2176  218.8770 H   0  0  0  0  0  0  0  0  0  0  0  0
  145.8600   71.9270  221.2370 H   0  0  0  0  0  0  0  0  0  0  0  0
  144.8862   74.6204  221.5320 H   0  0  0  0  0  0  0  0  0  0  0  0
  145.0346   75.3644  219.9506 H   0  0  0  0  0  0  0  0  0  0  0  0
  142.6291   74.5025  221.3345 H   0  0  0  0  0  0  0  0  0  0  0  0
  143.2783   76.0621  219.0003 H   0  0  0  0  0  0  0  0  0  0  0  0
  141.6485   75.1990  219.0455 H   0  0  0  0  0  0  0  0  0  0  0  0
  142.6913   78.3594  219.4150 H   0  0  0  0  0  0  0  0  0  0  0  0
  141.6881   80.0241  220.9494 H   0  0  0  0  0  0  0  0  0  0  0  0
  140.0047   76.8491  223.2900 H   0  0  0  0  0  0  0  0  0  0  0  0
  141.0111   75.2152  221.7563 H   0  0  0  0  0  0  0  0  0  0  0  0
  139.1759   70.0913  221.8944 H   0  0  0  0  0  0  0  0  0  0  0  0
  139.1306   68.5116  223.7743 H   0  0  0  0  0  0  0  0  0  0  0  0
  139.6281   68.0437  226.0367 H   0  0  0  0  0  0  0  0  0  0  0  0
  141.5021   71.0221  228.4408 H   0  0  0  0  0  0  0  0  0  0  0  0
  141.5491   72.6005  226.5537 H   0  0  0  0  0  0  0  0  0  0  0  0
  1  2  2  0
  2  3  1  0
  3  4  1  0
  4  5  1  0
  5  6  2  0
  5  7  1  0
  7  8  1  0
  8  9  1  0
  9 10  1  0
  9 11  1  0
 11 12  1  0
 12 13  1  0
 13 14  1  0
 14 15  2  0
 15 16  1  0
 16 17  2  0
 17 18  1  0
 17 19  1  0
 19 20  2  0
  2 21  1  0
 21 22  2  0
 22 23  1  0
 23 24  2  0
 24 25  1  0
 25 26  2  0
 26 27  1  0
 26 28  1  0
 28 29  2  0
 29 30  1  0
 30 31  2  0
 12  7  1  0
 20 14  1  0
 31 21  1  0
 30 24  1  0
  3 32  1  0
  4 33  1  0
  4 34  1  0
  8 35  1  0
  8 36  1  0
  9 37  1  6
 10 38  1  0
 11 39  1  0
 11 40  1  0
 12 41  1  1
 13 42  1  0
 13 43  1  0
 15 44  1  0
 16 45  1  0
 19 46  1  0
 20 47  1  0
 22 48  1  0
 23 49  1  0
 25 50  1  0
 28 51  1  0
 29 52  1  0
M  END
>  <smiles>  (16) 
O=C(NCC(=O)N1C[C@H](O)C[C@H]1Cc1ccc(Cl)cc1)c1ccc2cc(Cl)ccc2n1

>  <score_type>  (16) 
oracle

>  <origin>  (16) 
autodockgpu

>  <m_score__min__energy>  (16) 
-8.9499999999999993

>  <m_primary>  (16) 
energy

>  <rmsd>  (16) 
3.4368994991203325

>  <m_score__min__rmsd>  (16) 
3.4368994991203325

>  <meeko>  (16) 
{"free_energy": -8.95, "intermolecular_energy": -11.04, "internal_energy": -1.71, "cluster_size": 8, "cluster_id": 1, "rank_in_cluster": 1}

>  <energy>  (16) 
-8.2

>  <cluster_rmsd>  (16) 
0.48

>  <cluster>  (16) 
2

$$$$

     RDKit          3D

 52 55  0  0  0  0  0  0  0  0999 V2000
  137.2450   70.9450  221.7840 O   0  0  0  0  0  0  0  0  0  0  0  0
  138.0340   71.5060  222.5600 C   0  0  0  0  0  0  0  0  0  0  0  0
  138.4480   72.8540  222.4350 N   0  0  0  0  0  0  0  0  0  0  0  0
  137.9660   73.6990  221.3600 C   0  0  0  0  0  0  0  0  0  0  0  0
  138.9220   74.8330  221.2250 C   0  0  0  0  0  0  0  0  0  0  0  0
  140.1110   74.6100  221.5540 O   0  0  0  0  0  0  0  0  0  0  0  0
  138.4370   76.0710  220.7420 N   0  0  0  0  0  0  0  0  0  0  0  0
  137.0550   76.5770  220.8590 C   0  0  0  0  0  0  0  0  0  0  0  0
  137.3570   77.9620  221.3850 C   0  0  2  0  0  0  0  0  0  0  0  0
  136.2310   78.7490  221.1720 O   0  0  0  0  0  0  0  0  0  0  0  0
  138.4580   78.4250  220.4600 C   0  0  0  0  0  0  0  0  0  0  0  0
  139.1210   77.1420  220.0330 C   0  0  1  0  0  0  0  0  0  0  0  0
  140.6030   77.1200  220.2360 C   0  0  0  0  0  0  0  0  0  0  0  0
  141.1370   78.1430  221.1360 C   0  0  0  0  0  0  0  0  0  0  0  0
  141.6850   79.3450  220.7290 C   0  0  0  0  0  0  0  0  0  0  0  0
  142.1840   80.2670  221.6490 C   0  0  0  0  0  0  0  0  0  0  0  0
  142.1420   80.0010  222.9980 C   0  0  0  0  0  0  0  0  0  0  0  0
  142.7420   81.0980  224.2150 Cl  0  0  0  0  0  0  0  0  0  0  0  0
  141.5990   78.8080  223.4260 C   0  0  0  0  0  0  0  0  0  0  0  0
  141.1120   77.9120  222.4970 C   0  0  0  0  0  0  0  0  0  0  0  0
  138.5860   70.7370  223.6890 C   0  0  0  0  0  0  0  0  0  0  0  0
  138.3390   69.3760  223.8020 C   0  0  0  0  0  0  0  0  0  0  0  0
  138.8200   68.6010  224.8230 C   0  0  0  0  0  0  0  0  0  0  0  0
  139.5860   69.2040  225.7850 C   0  0  0  0  0  0  0  0  0  0  0  0
  140.0780   68.4570  226.8120 C   0  0  0  0  0  0  0  0  0  0  0  0
  140.8550   69.0530  227.7920 C   0  0  0  0  0  0  0  0  0  0  0  0
  141.4760   68.0760  229.1040 Cl  0  0  0  0  0  0  0  0  0  0  0  0
  141.0920   70.3940  227.6710 C   0  0  0  0  0  0  0  0  0  0  0  0
  140.6060   71.1730  226.6410 C   0  0  0  0  0  0  0  0  0  0  0  0
  139.8230   70.5630  225.6580 C   0  0  0  0  0  0  0  0  0  0  0  0
  139.3390   71.3020  224.6440 N   0  0  0  0  0  0  0  0  0  0  0  0
  139.1220   73.2700  223.1310 H   0  0  0  0  0  0  0  0  0  0  0  0
  137.9254   73.1272  220.4212 H   0  0  0  0  0  0  0  0  0  0  0  0
  136.9530   74.0677  221.5790 H   0  0  0  0  0  0  0  0  0  0  0  0
  136.5427   76.6074  219.8861 H   0  0  0  0  0  0  0  0  0  0  0  0
  136.3791   75.9709  221.4801 H   0  0  0  0  0  0  0  0  0  0  0  0
  137.6259   78.0036  222.4508 H   0  0  0  0  0  0  0  0  0  0  0  0
  136.2190   79.5350  221.7710 H   0  0  0  0  0  0  0  0  0  0  0  0
  138.0439   78.9610  219.5933 H   0  0  0  0  0  0  0  0  0  0  0  0
  139.1543   79.1278  220.9408 H   0  0  0  0  0  0  0  0  0  0  0  0
  139.0245   77.0204  218.9440 H   0  0  0  0  0  0  0  0  0  0  0  0
  140.8731   76.1355  220.6457 H   0  0  0  0  0  0  0  0  0  0  0  0
  141.0431   77.3298  219.2500 H   0  0  0  0  0  0  0  0  0  0  0  0
  141.7285   79.5797  219.6552 H   0  0  0  0  0  0  0  0  0  0  0  0
  142.6146   81.2145  221.2929 H   0  0  0  0  0  0  0  0  0  0  0  0
  141.5545   78.5726  224.4996 H   0  0  0  0  0  0  0  0  0  0  0  0
  140.6823   76.9662  222.8586 H   0  0  0  0  0  0  0  0  0  0  0  0
  137.7230   68.8935  223.0289 H   0  0  0  0  0  0  0  0  0  0  0  0
  138.5976   67.5247  224.8694 H   0  0  0  0  0  0  0  0  0  0  0  0
  139.8585   67.3804  226.8634 H   0  0  0  0  0  0  0  0  0  0  0  0
  141.7074   70.8815  228.4415 H   0  0  0  0  0  0  0  0  0  0  0  0
  140.8299   72.2490  226.5950 H   0  0  0  0  0  0  0  0  0  0  0  0
  1  2  2  0
  2  3  1  0
  3  4  1  0
  4  5  1  0
  5  6  2  0
  5  7  1  0
  7  8  1  0
  8  9  1  0
  9 10  1  0
  9 11  1  0
 11 12  1  0
 12 13  1  0
 13 14  1  0
 14 15  2  0
 15 16  1  0
 16 17  2  0
 17 18  1  0
 17 19  1  0
 19 20  2  0
  2 21  1  0
 21 22  2  0
 22 23  1  0
 23 24  2  0
 24 25  1  0
 25 26  2  0
 26 27  1  0
 26 28  1  0
 28 29  2  0
 29 30  1  0
 30 31  2  0
 12  7  1  0
 20 14  1  0
 31 21  1  0
 30 24  1  0
  3 32  1  0
  4 33  1  0
  4 34  1  0
  8 35  1  0
  8 36  1  0
  9 37  1  1
 10 38  1  0
 11 39  1  0
 11 40  1  0
 12 41  1  6
 13 42  1  0
 13 43  1  0
 15 44  1  0
 16 45  1  0
 19 46  1  0
 20 47  1  0
 22 48  1  0
 23 49  1  0
 25 50  1  0
 28 51  1  0
 29 52  1  0
M  END
>  <smiles>  (17) 
O=C(NCC(=O)N1C[C@H](O)C[C@H]1Cc1ccc(Cl)cc1)c1ccc2cc(Cl)ccc2n1

>  <score_type>  (17) 
oracle

>  <origin>  (17) 
autodockgpu

>  <m_score__min__energy>  (17) 
-8.9499999999999993

>  <m_primary>  (17) 
energy

>  <rmsd>  (17) 
2.230657379746576

>  <m_score__min__rmsd>  (17) 
2.230657379746576

>  <meeko>  (17) 
{"free_energy": -7.83, "intermolecular_energy": -9.91, "internal_energy": -2.08, "cluster_size": 20, "cluster_id": 4, "rank_in_cluster": 20}

>  <energy>  (17) 
-8.17

>  <cluster_rmsd>  (17) 
1.23

>  <cluster>  (17) 
2

$$$$

     RDKit          3D

 52 55  0  0  0  0  0  0  0  0999 V2000
  138.6750   72.8620  220.9450 O   0  0  0  0  0  0  0  0  0  0  0  0
  139.7460   72.7520  221.5610 C   0  0  0  0  0  0  0  0  0  0  0  0
  140.9380   73.4300  221.2090 N   0  0  0  0  0  0  0  0  0  0  0  0
  140.9930   74.3260  220.0710 C   0  0  0  0  0  0  0  0  0  0  0  0
  142.3440   74.9500  220.0620 C   0  0  0  0  0  0  0  0  0  0  0  0
  143.3250   74.1720  220.1210 O   0  0  0  0  0  0  0  0  0  0  0  0
  142.4370   76.3600  219.9900 N   0  0  0  0  0  0  0  0  0  0  0  0
  143.2070   77.1390  219.0000 C   0  0  0  0  0  0  0  0  0  0  0  0
  142.1330   78.1200  218.5880 C   0  0  2  0  0  0  0  0  0  0  0  0
  142.7600   79.1990  217.9760 O   0  0  0  0  0  0  0  0  0  0  0  0
  141.5780   78.5700  219.9190 C   0  0  0  0  0  0  0  0  0  0  0  0
  141.8330   77.3910  220.8210 C   0  0  1  0  0  0  0  0  0  0  0  0
  140.6220   76.9090  221.5560 C   0  0  0  0  0  0  0  0  0  0  0  0
  139.8950   77.9240  222.3190 C   0  0  0  0  0  0  0  0  0  0  0  0
  138.5220   78.0840  222.3160 C   0  0  0  0  0  0  0  0  0  0  0  0
  137.9020   79.0840  223.0640 C   0  0  0  0  0  0  0  0  0  0  0  0
  138.6500   79.9470  223.8320 C   0  0  0  0  0  0  0  0  0  0  0  0
  137.9560   81.2240  224.7970 Cl  0  0  0  0  0  0  0  0  0  0  0  0
  140.0220   79.8060  223.8500 C   0  0  0  0  0  0  0  0  0  0  0  0
  140.6110   78.8080  223.1020 C   0  0  0  0  0  0  0  0  0  0  0  0
  139.8010   71.8650  222.7360 C   0  0  0  0  0  0  0  0  0  0  0  0
  139.2140   70.6070  222.6970 C   0  0  0  0  0  0  0  0  0  0  0  0
  139.2280   69.7320  223.7500 C   0  0  0  0  0  0  0  0  0  0  0  0
  139.8560   70.1220  224.9040 C   0  0  0  0  0  0  0  0  0  0  0  0
  139.8860   69.2710  225.9670 C   0  0  0  0  0  0  0  0  0  0  0  0
  140.5170   69.6500  227.1410 C   0  0  0  0  0  0  0  0  0  0  0  0
  140.5430   68.5430  228.4950 Cl  0  0  0  0  0  0  0  0  0  0  0  0
  141.0920   70.8900  227.1670 C   0  0  0  0  0  0  0  0  0  0  0  0
  141.0760   71.7710  226.1050 C   0  0  0  0  0  0  0  0  0  0  0  0
  140.4370   71.3790  224.9260 C   0  0  0  0  0  0  0  0  0  0  0  0
  140.4100   72.2200  223.8770 N   0  0  0  0  0  0  0  0  0  0  0  0
  141.8150   73.2930  221.7770 H   0  0  0  0  0  0  0  0  0  0  0  0
  140.8329   73.7621  219.1402 H   0  0  0  0  0  0  0  0  0  0  0  0
  140.2100   75.0951  220.1435 H   0  0  0  0  0  0  0  0  0  0  0  0
  144.0735   77.6420  219.4540 H   0  0  0  0  0  0  0  0  0  0  0  0
  143.6550   76.5554  218.1822 H   0  0  0  0  0  0  0  0  0  0  0  0
  141.3728   77.7129  217.9051 H   0  0  0  0  0  0  0  0  0  0  0  0
  143.3840   78.9030  217.2680 H   0  0  0  0  0  0  0  0  0  0  0  0
  142.1045   79.4647  220.2826 H   0  0  0  0  0  0  0  0  0  0  0  0
  140.5154   78.8497  219.8684 H   0  0  0  0  0  0  0  0  0  0  0  0
  142.5096   77.6884  221.6357 H   0  0  0  0  0  0  0  0  0  0  0  0
  139.9280   76.4797  220.8184 H   0  0  0  0  0  0  0  0  0  0  0  0
  140.9907   76.1848  222.2973 H   0  0  0  0  0  0  0  0  0  0  0  0
  137.9038   77.4062  221.7090 H   0  0  0  0  0  0  0  0  0  0  0  0
  136.8068   79.1839  223.0401 H   0  0  0  0  0  0  0  0  0  0  0  0
  140.6413   80.4838  224.4559 H   0  0  0  0  0  0  0  0  0  0  0  0
  141.7064   78.7113  223.1306 H   0  0  0  0  0  0  0  0  0  0  0  0
  138.7104   70.2966  221.7696 H   0  0  0  0  0  0  0  0  0  0  0  0
  138.7491   68.7448  223.6720 H   0  0  0  0  0  0  0  0  0  0  0  0
  139.4091   68.2825  225.8935 H   0  0  0  0  0  0  0  0  0  0  0  0
  141.5985   71.2048  228.0913 H   0  0  0  0  0  0  0  0  0  0  0  0
  141.5548   72.7581  226.1848 H   0  0  0  0  0  0  0  0  0  0  0  0
  1  2  2  0
  2  3  1  0
  3  4  1  0
  4  5  1  0
  5  6  2  0
  5  7  1  0
  7  8  1  0
  8  9  1  0
  9 10  1  0
  9 11  1  0
 11 12  1  0
 12 13  1  0
 13 14  1  0
 14 15  2  0
 15 16  1  0
 16 17  2  0
 17 18  1  0
 17 19  1  0
 19 20  2  0
  2 21  1  0
 21 22  2  0
 22 23  1  0
 23 24  2  0
 24 25  1  0
 25 26  2  0
 26 27  1  0
 26 28  1  0
 28 29  2  0
 29 30  1  0
 30 31  2  0
 12  7  1  0
 20 14  1  0
 31 21  1  0
 30 24  1  0
  3 32  1  0
  4 33  1  0
  4 34  1  0
  8 35  1  0
  8 36  1  0
  9 37  1  6
 10 38  1  0
 11 39  1  0
 11 40  1  0
 12 41  1  1
 13 42  1  0
 13 43  1  0
 15 44  1  0
 16 45  1  0
 19 46  1  0
 20 47  1  0
 22 48  1  0
 23 49  1  0
 25 50  1  0
 28 51  1  0
 29 52  1  0
M  END
>  <smiles>  (18) 
O=C(NCC(=O)N1C[C@H](O)C[C@H]1Cc1ccc(Cl)cc1)c1ccc2cc(Cl)ccc2n1

>  <score_type>  (18) 
oracle

>  <origin>  (18) 
autodockgpu

>  <m_score__min__energy>  (18) 
-8.9499999999999993

>  <m_primary>  (18) 
energy

>  <rmsd>  (18) 
2.5436611745123656

>  <m_score__min__rmsd>  (18) 
2.5436611745123656

>  <meeko>  (18) 
{"free_energy": -8.15, "intermolecular_energy": -10.24, "internal_energy": -1.65, "cluster_size": 3, "cluster_id": 5, "rank_in_cluster": 2}

>  <energy>  (18) 
-8.14

>  <cluster_rmsd>  (18) 
1.7

>  <cluster>  (18) 
2

$$$$

     RDKit          3D

 52 55  0  0  0  0  0  0  0  0999 V2000
  139.6790   71.8840  220.7260 O   0  0  0  0  0  0  0  0  0  0  0  0
  139.6750   72.3850  221.8610 C   0  0  0  0  0  0  0  0  0  0  0  0
  139.5540   73.7710  222.1170 N   0  0  0  0  0  0  0  0  0  0  0  0
  139.4230   74.7330  221.0400 C   0  0  0  0  0  0  0  0  0  0  0  0
  140.6610   75.5600  221.0310 C   0  0  0  0  0  0  0  0  0  0  0  0
  141.4070   75.4710  222.0350 O   0  0  0  0  0  0  0  0  0  0  0  0
  140.9160   76.3810  219.9070 N   0  0  0  0  0  0  0  0  0  0  0  0
  140.9940   77.8560  219.8990 C   0  0  0  0  0  0  0  0  0  0  0  0
  142.2920   78.0160  219.1410 C   0  0  2  0  0  0  0  0  0  0  0  0
  142.3410   79.3200  218.6610 O   0  0  0  0  0  0  0  0  0  0  0  0
  142.1050   77.0740  217.9760 C   0  0  0  0  0  0  0  0  0  0  0  0
  141.1620   76.0310  218.5170 C   0  0  1  0  0  0  0  0  0  0  0  0
  141.6420   74.6240  218.3480 C   0  0  0  0  0  0  0  0  0  0  0  0
  142.7520   74.2220  219.2130 C   0  0  0  0  0  0  0  0  0  0  0  0
  142.9260   72.9560  219.7390 C   0  0  0  0  0  0  0  0  0  0  0  0
  144.0060   72.6520  220.5670 C   0  0  0  0  0  0  0  0  0  0  0  0
  144.9370   73.6150  220.8830 C   0  0  0  0  0  0  0  0  0  0  0  0
  146.3170   73.3210  221.9090 Cl  0  0  0  0  0  0  0  0  0  0  0  0
  144.7830   74.8860  220.3690 C   0  0  0  0  0  0  0  0  0  0  0  0
  143.7050   75.1610  219.5530 C   0  0  0  0  0  0  0  0  0  0  0  0
  139.8030   71.4960  223.0300 C   0  0  0  0  0  0  0  0  0  0  0  0
  139.3870   70.1740  222.9580 C   0  0  0  0  0  0  0  0  0  0  0  0
  139.4760   69.2940  224.0030 C   0  0  0  0  0  0  0  0  0  0  0  0
  140.0060   69.7460  225.1830 C   0  0  0  0  0  0  0  0  0  0  0  0
  140.1080   68.8920  226.2400 C   0  0  0  0  0  0  0  0  0  0  0  0
  140.6410   69.3340  227.4390 C   0  0  0  0  0  0  0  0  0  0  0  0
  140.7620   68.2210  228.7840 Cl  0  0  0  0  0  0  0  0  0  0  0  0
  141.0480   70.6370  227.4980 C   0  0  0  0  0  0  0  0  0  0  0  0
  140.9560   71.5230  226.4440 C   0  0  0  0  0  0  0  0  0  0  0  0
  140.4160   71.0670  225.2380 C   0  0  0  0  0  0  0  0  0  0  0  0
  140.3180   71.9120  224.1970 N   0  0  0  0  0  0  0  0  0  0  0  0
  139.5570   74.1310  223.1080 H   0  0  0  0  0  0  0  0  0  0  0  0
  139.3134   74.2093  220.0789 H   0  0  0  0  0  0  0  0  0  0  0  0
  138.5344   75.3643  221.1880 H   0  0  0  0  0  0  0  0  0  0  0  0
  140.1460   78.3117  219.3668 H   0  0  0  0  0  0  0  0  0  0  0  0
  140.9588   78.3385  220.8869 H   0  0  0  0  0  0  0  0  0  0  0  0
  143.1992   77.8167  219.7303 H   0  0  0  0  0  0  0  0  0  0  0  0
  142.9840   79.4080  217.9150 H   0  0  0  0  0  0  0  0  0  0  0  0
  141.6622   77.5961  217.1150 H   0  0  0  0  0  0  0  0  0  0  0  0
  143.0518   76.6488  217.6118 H   0  0  0  0  0  0  0  0  0  0  0  0
  140.2280   76.0399  217.9360 H   0  0  0  0  0  0  0  0  0  0  0  0
  140.7953   73.9518  218.5509 H   0  0  0  0  0  0  0  0  0  0  0  0
  142.0265   74.5608  217.3193 H   0  0  0  0  0  0  0  0  0  0  0  0
  142.1953   72.1696  219.4989 H   0  0  0  0  0  0  0  0  0  0  0  0
  144.1147   71.6346  220.9707 H   0  0  0  0  0  0  0  0  0  0  0  0
  145.5133   75.6732  220.6077 H   0  0  0  0  0  0  0  0  0  0  0  0
  143.5996   76.1803  219.1530 H   0  0  0  0  0  0  0  0  0  0  0  0
  138.9625   69.8135  222.0094 H   0  0  0  0  0  0  0  0  0  0  0  0
  139.1321   68.2544  223.8984 H   0  0  0  0  0  0  0  0  0  0  0  0
  139.7667   67.8510  226.1406 H   0  0  0  0  0  0  0  0  0  0  0  0
  141.4752   71.0021  228.4436 H   0  0  0  0  0  0  0  0  0  0  0  0
  141.2992   72.5627  226.5503 H   0  0  0  0  0  0  0  0  0  0  0  0
  1  2  2  0
  2  3  1  0
  3  4  1  0
  4  5  1  0
  5  6  2  0
  5  7  1  0
  7  8  1  0
  8  9  1  0
  9 10  1  0
  9 11  1  0
 11 12  1  0
 12 13  1  0
 13 14  1  0
 14 15  2  0
 15 16  1  0
 16 17  2  0
 17 18  1  0
 17 19  1  0
 19 20  2  0
  2 21  1  0
 21 22  2  0
 22 23  1  0
 23 24  2  0
 24 25  1  0
 25 26  2  0
 26 27  1  0
 26 28  1  0
 28 29  2  0
 29 30  1  0
 30 31  2  0
 12  7  1  0
 20 14  1  0
 31 21  1  0
 30 24  1  0
  3 32  1  0
  4 33  1  0
  4 34  1  0
  8 35  1  0
  8 36  1  0
  9 37  1  1
 10 38  1  0
 11 39  1  0
 11 40  1  0
 12 41  1  6
 13 42  1  0
 13 43  1  0
 15 44  1  0
 16 45  1  0
 19 46  1  0
 20 47  1  0
 22 48  1  0
 23 49  1  0
 25 50  1  0
 28 51  1  0
 29 52  1  0
M  END
>  <smiles>  (19) 
O=C(NCC(=O)N1C[C@H](O)C[C@H]1Cc1ccc(Cl)cc1)c1ccc2cc(Cl)ccc2n1

>  <score_type>  (19) 
oracle

>  <origin>  (19) 
autodockgpu

>  <m_score__min__energy>  (19) 
-8.9499999999999993

>  <m_primary>  (19) 
energy

>  <rmsd>  (19) 
2.0682236445580413

>  <m_score__min__rmsd>  (19) 
2.0682236445580413

>  <meeko>  (19) 
{"free_energy": -8.28, "intermolecular_energy": -10.37, "internal_energy": -2.17, "cluster_size": 13, "cluster_id": 2, "rank_in_cluster": 5}

>  <energy>  (19) 
-8.03

>  <cluster_rmsd>  (19) 
0.58

>  <cluster>  (19) 
2

$$$$

     RDKit          3D

 52 55  0  0  0  0  0  0  0  0999 V2000
  137.5570   70.2180  221.9020 O   0  0  0  0  0  0  0  0  0  0  0  0
  138.2120   70.8620  222.7360 C   0  0  0  0  0  0  0  0  0  0  0  0
  138.4410   72.2570  222.6600 N   0  0  0  0  0  0  0  0  0  0  0  0
  137.9110   73.0550  221.5720 C   0  0  0  0  0  0  0  0  0  0  0  0
  138.5880   74.3800  221.6230 C   0  0  0  0  0  0  0  0  0  0  0  0
  139.5990   74.4690  222.3590 O   0  0  0  0  0  0  0  0  0  0  0  0
  138.0560   75.4400  220.8520 N   0  0  0  0  0  0  0  0  0  0  0  0
  137.3260   75.3150  219.5740 C   0  0  0  0  0  0  0  0  0  0  0  0
  136.1390   76.1930  219.8970 C   0  0  2  0  0  0  0  0  0  0  0  0
  135.5380   76.5490  218.6940 O   0  0  0  0  0  0  0  0  0  0  0  0
  136.7940   77.4160  220.4950 C   0  0  0  0  0  0  0  0  0  0  0  0
  138.0710   76.8770  221.0820 C   0  0  1  0  0  0  0  0  0  0  0  0
  138.2830   77.2330  222.5200 C   0  0  0  0  0  0  0  0  0  0  0  0
  139.4540   78.0640  222.8040 C   0  0  0  0  0  0  0  0  0  0  0  0
  140.7610   77.7090  222.5300 C   0  0  0  0  0  0  0  0  0  0  0  0
  141.8270   78.5530  222.8400 C   0  0  0  0  0  0  0  0  0  0  0  0
  141.6010   79.7740  223.4330 C   0  0  0  0  0  0  0  0  0  0  0  0
  142.8740   80.8900  223.8530 Cl  0  0  0  0  0  0  0  0  0  0  0  0
  140.3040   80.1490  223.7150 C   0  0  0  0  0  0  0  0  0  0  0  0
  139.2670   79.2960  223.3980 C   0  0  0  0  0  0  0  0  0  0  0  0
  138.7970   70.1480  223.8840 C   0  0  0  0  0  0  0  0  0  0  0  0
  138.7390   68.7630  223.9560 C   0  0  0  0  0  0  0  0  0  0  0  0
  139.2610   68.0360  224.9920 C   0  0  0  0  0  0  0  0  0  0  0  0
  139.8740   68.7150  226.0120 C   0  0  0  0  0  0  0  0  0  0  0  0
  140.4030   68.0170  227.0550 C   0  0  0  0  0  0  0  0  0  0  0  0
  141.0260   68.6900  228.0940 C   0  0  0  0  0  0  0  0  0  0  0  0
  141.6990   67.7740  229.4250 Cl  0  0  0  0  0  0  0  0  0  0  0  0
  141.0780   70.0530  228.0120 C   0  0  0  0  0  0  0  0  0  0  0  0
  140.5510   70.7840  226.9670 C   0  0  0  0  0  0  0  0  0  0  0  0
  139.9240   70.0960  225.9250 C   0  0  0  0  0  0  0  0  0  0  0  0
  139.4030   70.7870  224.8960 N   0  0  0  0  0  0  0  0  0  0  0  0
  139.0070   72.7440  223.4040 H   0  0  0  0  0  0  0  0  0  0  0  0
  138.1175   72.5637  220.6097 H   0  0  0  0  0  0  0  0  0  0  0  0
  136.8214   73.1708  221.6693 H   0  0  0  0  0  0  0  0  0  0  0  0
  137.9086   75.7037  218.7258 H   0  0  0  0  0  0  0  0  0  0  0  0
  137.0855   74.2875  219.2636 H   0  0  0  0  0  0  0  0  0  0  0  0
  135.3856   75.7291  220.5506 H   0  0  0  0  0  0  0  0  0  0  0  0
  134.8810   75.8700  218.4020 H   0  0  0  0  0  0  0  0  0  0  0  0
  137.0038   78.1684  219.7205 H   0  0  0  0  0  0  0  0  0  0  0  0
  136.1603   77.9222  221.2381 H   0  0  0  0  0  0  0  0  0  0  0  0
  138.9327   77.3474  220.5858 H   0  0  0  0  0  0  0  0  0  0  0  0
  137.3917   77.7753  222.8685 H   0  0  0  0  0  0  0  0  0  0  0  0
  138.4589   76.2804  223.0411 H   0  0  0  0  0  0  0  0  0  0  0  0
  140.9655   76.7376  222.0561 H   0  0  0  0  0  0  0  0  0  0  0  0
  142.8560   78.2404  222.6088 H   0  0  0  0  0  0  0  0  0  0  0  0
  140.0981   81.1202  224.1887 H   0  0  0  0  0  0  0  0  0  0  0  0
  138.2397   79.6135  223.6302 H   0  0  0  0  0  0  0  0  0  0  0  0
  138.2467   68.2199  223.1358 H   0  0  0  0  0  0  0  0  0  0  0  0
  139.1903   66.9384  225.0051 H   0  0  0  0  0  0  0  0  0  0  0  0
  140.3358   66.9192  227.0727 H   0  0  0  0  0  0  0  0  0  0  0  0
  141.5701   70.6010  228.8290 H   0  0  0  0  0  0  0  0  0  0  0  0
  140.6228   71.8816  226.9546 H   0  0  0  0  0  0  0  0  0  0  0  0
  1  2  2  0
  2  3  1  0
  3  4  1  0
  4  5  1  0
  5  6  2  0
  5  7  1  0
  7  8  1  0
  8  9  1  0
  9 10  1  0
  9 11  1  0
 11 12  1  0
 12 13  1  0
 13 14  1  0
 14 15  2  0
 15 16  1  0
 16 17  2  0
 17 18  1  0
 17 19  1  0
 19 20  2  0
  2 21  1  0
 21 22  2  0
 22 23  1  0
 23 24  2  0
 24 25  1  0
 25 26  2  0
 26 27  1  0
 26 28  1  0
 28 29  2  0
 29 30  1  0
 30 31  2  0
 12  7  1  0
 20 14  1  0
 31 21  1  0
 30 24  1  0
  3 32  1  0
  4 33  1  0
  4 34  1  0
  8 35  1  0
  8 36  1  0
  9 37  1  1
 10 38  1  0
 11 39  1  0
 11 40  1  0
 12 41  1  6
 13 42  1  0
 13 43  1  0
 15 44  1  0
 16 45  1  0
 19 46  1  0
 20 47  1  0
 22 48  1  0
 23 49  1  0
 25 50  1  0
 28 51  1  0
 29 52  1  0
M  END
>  <smiles>  (20) 
O=C(NCC(=O)N1C[C@H](O)C[C@H]1Cc1ccc(Cl)cc1)c1ccc2cc(Cl)ccc2n1

>  <score_type>  (20) 
oracle

>  <origin>  (20) 
autodockgpu

>  <m_score__min__energy>  (20) 
-8.9499999999999993

>  <m_primary>  (20) 
energy

>  <rmsd>  (20) 
2.3271012137017237

>  <m_score__min__rmsd>  (20) 
2.3271012137017237

>  <meeko>  (20) 
{"free_energy": -8.02, "intermolecular_energy": -10.1, "internal_energy": -2.1, "cluster_size": 20, "cluster_id": 4, "rank_in_cluster": 14}

>  <energy>  (20) 
-7.55

>  <cluster_rmsd>  (20) 
0.9

>  <cluster>  (20) 
2

$$$$

     RDKit          3D

 52 55  0  0  0  0  0  0  0  0999 V2000
  137.5980   70.5350  222.0110 O   0  0  0  0  0  0  0  0  0  0  0  0
  138.3640   71.1100  222.8000 C   0  0  0  0  0  0  0  0  0  0  0  0
  138.7610   72.4640  222.6780 N   0  0  0  0  0  0  0  0  0  0  0  0
  138.2870   73.2980  221.5910 C   0  0  0  0  0  0  0  0  0  0  0  0
  139.0960   74.5480  221.6070 C   0  0  0  0  0  0  0  0  0  0  0  0
  140.3280   74.4200  221.8030 O   0  0  0  0  0  0  0  0  0  0  0  0
  138.4350   75.7820  221.4030 N   0  0  0  0  0  0  0  0  0  0  0  0
  137.0420   76.1020  221.7720 C   0  0  0  0  0  0  0  0  0  0  0  0
  137.2840   77.4140  222.4830 C   0  0  2  0  0  0  0  0  0  0  0  0
  136.0710   78.0900  222.5460 O   0  0  0  0  0  0  0  0  0  0  0  0
  138.1970   78.1380  221.5230 C   0  0  0  0  0  0  0  0  0  0  0  0
  138.9100   77.0210  220.8070 C   0  0  1  0  0  0  0  0  0  0  0  0
  140.4020   77.1380  220.8200 C   0  0  0  0  0  0  0  0  0  0  0  0
  140.9520   78.1570  221.7150 C   0  0  0  0  0  0  0  0  0  0  0  0
  141.1660   77.9870  223.0700 C   0  0  0  0  0  0  0  0  0  0  0  0
  141.6860   79.0110  223.8610 C   0  0  0  0  0  0  0  0  0  0  0  0
  142.0020   80.2300  223.3060 C   0  0  0  0  0  0  0  0  0  0  0  0
  142.6570   81.5640  224.2210 Cl  0  0  0  0  0  0  0  0  0  0  0  0
  141.7970   80.4220  221.9550 C   0  0  0  0  0  0  0  0  0  0  0  0
  141.2820   79.3930  221.1950 C   0  0  0  0  0  0  0  0  0  0  0  0
  138.9060   70.3530  223.9420 C   0  0  0  0  0  0  0  0  0  0  0  0
  138.7590   68.9740  224.0070 C   0  0  0  0  0  0  0  0  0  0  0  0
  139.2360   68.2090  225.0370 C   0  0  0  0  0  0  0  0  0  0  0  0
  139.8950   68.8410  226.0580 C   0  0  0  0  0  0  0  0  0  0  0  0
  140.3810   68.1050  227.0960 C   0  0  0  0  0  0  0  0  0  0  0  0
  141.0490   68.7300  228.1360 C   0  0  0  0  0  0  0  0  0  0  0  0
  141.6650   67.7650  229.4600 Cl  0  0  0  0  0  0  0  0  0  0  0  0
  141.1880   70.0870  228.0630 C   0  0  0  0  0  0  0  0  0  0  0  0
  140.7050   70.8570  227.0240 C   0  0  0  0  0  0  0  0  0  0  0  0
  140.0320   70.2170  225.9790 C   0  0  0  0  0  0  0  0  0  0  0  0
  139.5540   70.9460  224.9560 N   0  0  0  0  0  0  0  0  0  0  0  0
  139.4150   72.8910  223.3850 H   0  0  0  0  0  0  0  0  0  0  0  0
  138.4187   72.7766  220.6314 H   0  0  0  0  0  0  0  0  0  0  0  0
  137.2174   73.5247  221.7118 H   0  0  0  0  0  0  0  0  0  0  0  0
  136.3984   76.2238  220.8883 H   0  0  0  0  0  0  0  0  0  0  0  0
  136.5189   75.3335  222.3601 H   0  0  0  0  0  0  0  0  0  0  0  0
  137.6940   77.3201  223.4994 H   0  0  0  0  0  0  0  0  0  0  0  0
  135.7870   78.4100  221.6550 H   0  0  0  0  0  0  0  0  0  0  0  0
  137.6183   78.7516  220.8169 H   0  0  0  0  0  0  0  0  0  0  0  0
  138.8853   78.8324  222.0270 H   0  0  0  0  0  0  0  0  0  0  0  0
  138.6734   77.0594  219.7334 H   0  0  0  0  0  0  0  0  0  0  0  0
  140.8145   76.1643  221.1229 H   0  0  0  0  0  0  0  0  0  0  0  0
  140.6868   77.4472  219.8035 H   0  0  0  0  0  0  0  0  0  0  0  0
  140.9203   77.0211  223.5354 H   0  0  0  0  0  0  0  0  0  0  0  0
  141.8448   78.8431  224.9365 H   0  0  0  0  0  0  0  0  0  0  0  0
  142.0422   81.3874  221.4883 H   0  0  0  0  0  0  0  0  0  0  0  0
  141.1261   79.5655  220.1199 H   0  0  0  0  0  0  0  0  0  0  0  0
  138.2301   68.4684  223.1856 H   0  0  0  0  0  0  0  0  0  0  0  0
  139.0942   67.1182  225.0446 H   0  0  0  0  0  0  0  0  0  0  0  0
  140.2429   67.0138  227.1083 H   0  0  0  0  0  0  0  0  0  0  0  0
  141.7168   70.5970  228.8817 H   0  0  0  0  0  0  0  0  0  0  0  0
  140.8463   71.9479  227.0184 H   0  0  0  0  0  0  0  0  0  0  0  0
  1  2  2  0
  2  3  1  0
  3  4  1  0
  4  5  1  0
  5  6  2  0
  5  7  1  0
  7  8  1  0
  8  9  1  0
  9 10  1  0
  9 11  1  0
 11 12  1  0
 12 13  1  0
 13 14  1  0
 14 15  2  0
 15 16  1  0
 16 17  2  0
 17 18  1  0
 17 19  1  0
 19 20  2  0
  2 21  1  0
 21 22  2  0
 22 23  1  0
 23 24  2  0
 24 25  1  0
 25 26  2  0
 26 27  1  0
 26 28  1  0
 28 29  2  0
 29 30  1  0
 30 31  2  0
 12  7  1  0
 20 14  1  0
 31 21  1  0
 30 24  1  0
  3 32  1  0
  4 33  1  0
  4 34  1  0
  8 35  1  0
  8 36  1  0
  9 37  1  1
 10 38  1  0
 11 39  1  0
 11 40  1  0
 12 41  1  6
 13 42  1  0
 13 43  1  0
 15 44  1  0
 16 45  1  0
 19 46  1  0
 20 47  1  0
 22 48  1  0
 23 49  1  0
 25 50  1  0
 28 51  1  0
 29 52  1  0
M  END
>  <smiles>  (21) 
O=C(NCC(=O)N1C[C@H](O)C[C@H]1Cc1ccc(Cl)cc1)c1ccc2cc(Cl)ccc2n1

>  <score_type>  (21) 
oracle

>  <origin>  (21) 
autodockgpu

>  <m_score__min__energy>  (21) 
-8.9499999999999993

>  <m_primary>  (21) 
energy

>  <rmsd>  (21) 
2.5679516538829135

>  <m_score__min__rmsd>  (21) 
2.5679516538829135

>  <meeko>  (21) 
{"free_energy": -8.33, "intermolecular_energy": -10.42, "internal_energy": -1.93, "cluster_size": 20, "cluster_id": 4, "rank_in_cluster": 2}

>  <energy>  (21) 
-6.83

>  <cluster_rmsd>  (21) 
1.09

>  <cluster>  (21) 
2

$$$$

     RDKit          3D

 52 55  0  0  0  0  0  0  0  0999 V2000
  139.4220   71.7750  220.7800 O   0  0  0  0  0  0  0  0  0  0  0  0
  139.6150   72.2930  221.8910 C   0  0  0  0  0  0  0  0  0  0  0  0
  139.7120   73.6870  222.1120 N   0  0  0  0  0  0  0  0  0  0  0  0
  139.5890   74.6380  221.0240 C   0  0  0  0  0  0  0  0  0  0  0  0
  140.6950   75.6240  221.1700 C   0  0  0  0  0  0  0  0  0  0  0  0
  141.0770   75.8740  222.3380 O   0  0  0  0  0  0  0  0  0  0  0  0
  141.2360   76.2100  220.0010 N   0  0  0  0  0  0  0  0  0  0  0  0
  140.6280   77.2900  219.1990 C   0  0  0  0  0  0  0  0  0  0  0  0
  141.8290   78.2010  219.0870 C   0  0  2  0  0  0  0  0  0  0  0  0
  141.6000   79.0730  218.0290 O   0  0  0  0  0  0  0  0  0  0  0  0
  142.9290   77.2410  218.7000 C   0  0  0  0  0  0  0  0  0  0  0  0
  142.4770   75.9330  219.2940 C   0  0  1  0  0  0  0  0  0  0  0  0
  143.5010   75.2650  220.1560 C   0  0  0  0  0  0  0  0  0  0  0  0
  143.5610   73.8060  220.0580 C   0  0  0  0  0  0  0  0  0  0  0  0
  142.4760   72.9590  220.1890 C   0  0  0  0  0  0  0  0  0  0  0  0
  142.6160   71.5750  220.0930 C   0  0  0  0  0  0  0  0  0  0  0  0
  143.8500   71.0110  219.8620 C   0  0  0  0  0  0  0  0  0  0  0  0
  144.1130   69.2920  219.7260 Cl  0  0  0  0  0  0  0  0  0  0  0  0
  144.9460   71.8380  219.7270 C   0  0  0  0  0  0  0  0  0  0  0  0
  144.7820   73.2040  219.8270 C   0  0  0  0  0  0  0  0  0  0  0  0
  139.7560   71.4160  223.0660 C   0  0  0  0  0  0  0  0  0  0  0  0
  139.3350   70.0940  223.0140 C   0  0  0  0  0  0  0  0  0  0  0  0
  139.4350   69.2250  224.0680 C   0  0  0  0  0  0  0  0  0  0  0  0
  139.9820   69.6880  225.2360 C   0  0  0  0  0  0  0  0  0  0  0  0
  140.0950   68.8450  226.3000 C   0  0  0  0  0  0  0  0  0  0  0  0
  140.6450   69.2980  227.4870 C   0  0  0  0  0  0  0  0  0  0  0  0
  140.7800   68.2000  228.8420 Cl  0  0  0  0  0  0  0  0  0  0  0  0
  141.0570   70.6010  227.5270 C   0  0  0  0  0  0  0  0  0  0  0  0
  140.9540   71.4750  226.4650 C   0  0  0  0  0  0  0  0  0  0  0  0
  140.3970   71.0090  225.2710 C   0  0  0  0  0  0  0  0  0  0  0  0
  140.2870   71.8430  224.2220 N   0  0  0  0  0  0  0  0  0  0  0  0
  139.8760   74.0610  223.0830 H   0  0  0  0  0  0  0  0  0  0  0  0
  139.6734   74.1180  220.0583 H   0  0  0  0  0  0  0  0  0  0  0  0
  138.6117   75.1418  221.0560 H   0  0  0  0  0  0  0  0  0  0  0  0
  140.2874   76.9328  218.2159 H   0  0  0  0  0  0  0  0  0  0  0  0
  139.7238   77.7474  219.6271 H   0  0  0  0  0  0  0  0  0  0  0  0
  142.0505   78.7867  219.9914 H   0  0  0  0  0  0  0  0  0  0  0  0
  140.6900   79.4570  218.0650 H   0  0  0  0  0  0  0  0  0  0  0  0
  143.0191   77.1662  217.6063 H   0  0  0  0  0  0  0  0  0  0  0  0
  143.9196   77.5560  219.0597 H   0  0  0  0  0  0  0  0  0  0  0  0
  142.3188   75.1972  218.4917 H   0  0  0  0  0  0  0  0  0  0  0  0
  144.4880   75.6630  219.8779 H   0  0  0  0  0  0  0  0  0  0  0  0
  143.2072   75.4833  221.1933 H   0  0  0  0  0  0  0  0  0  0  0  0
  141.4795   73.3868  220.3732 H   0  0  0  0  0  0  0  0  0  0  0  0
  141.7328   70.9285  220.2028 H   0  0  0  0  0  0  0  0  0  0  0  0
  145.9428   71.4115  219.5411 H   0  0  0  0  0  0  0  0  0  0  0  0
  145.6685   73.8460  219.7172 H   0  0  0  0  0  0  0  0  0  0  0  0
  138.8972   69.7243  222.0750 H   0  0  0  0  0  0  0  0  0  0  0  0
  139.0863   68.1855  223.9794 H   0  0  0  0  0  0  0  0  0  0  0  0
  139.7492   67.8041  226.2161 H   0  0  0  0  0  0  0  0  0  0  0  0
  141.4974   70.9750  228.4630 H   0  0  0  0  0  0  0  0  0  0  0  0
  141.3021   72.5145  226.5557 H   0  0  0  0  0  0  0  0  0  0  0  0
  1  2  2  0
  2  3  1  0
  3  4  1  0
  4  5  1  0
  5  6  2  0
  5  7  1  0
  7  8  1  0
  8  9  1  0
  9 10  1  0
  9 11  1  0
 11 12  1  0
 12 13  1  0
 13 14  1  0
 14 15  2  0
 15 16  1  0
 16 17  2  0
 17 18  1  0
 17 19  1  0
 19 20  2  0
  2 21  1  0
 21 22  2  0
 22 23  1  0
 23 24  2  0
 24 25  1  0
 25 26  2  0
 26 27  1  0
 26 28  1  0
 28 29  2  0
 29 30  1  0
 30 31  2  0
 12  7  1  0
 20 14  1  0
 31 21  1  0
 30 24  1  0
  3 32  1  0
  4 33  1  0
  4 34  1  0
  8 35  1  0
  8 36  1  0
  9 37  1  1
 10 38  1  0
 11 39  1  0
 11 40  1  0
 12 41  1  6
 13 42  1  0
 13 43  1  0
 15 44  1  0
 16 45  1  0
 19 46  1  0
 20 47  1  0
 22 48  1  0
 23 49  1  0
 25 50  1  0
 28 51  1  0
 29 52  1  0
M  END
>  <smiles>  (22) 
O=C(NCC(=O)N1C[C@H](O)C[C@H]1Cc1ccc(Cl)cc1)c1ccc2cc(Cl)ccc2n1

>  <score_type>  (22) 
oracle

>  <origin>  (22) 
autodockgpu

>  <m_score__min__energy>  (22) 
-8.9499999999999993

>  <m_primary>  (22) 
energy

>  <rmsd>  (22) 
1.9070722456312181

>  <m_score__min__rmsd>  (22) 
1.9070722456312181

>  <meeko>  (22) 
{"free_energy": -7.55, "intermolecular_energy": -9.64, "internal_energy": -2.57, "cluster_size": 13, "cluster_id": 2, "rank_in_cluster": 12}

>  <energy>  (22) 
-8.72

>  <cluster_rmsd>  (22) 
0.0

>  <cluster>  (22) 
3

$$$$

     RDKit          3D

 52 55  0  0  0  0  0  0  0  0999 V2000
  137.7440   70.6700  221.7600 O   0  0  0  0  0  0  0  0  0  0  0  0
  138.4810   71.2260  222.5890 C   0  0  0  0  0  0  0  0  0  0  0  0
  138.8990   72.5760  222.5020 N   0  0  0  0  0  0  0  0  0  0  0  0
  138.4830   73.4300  221.4060 C   0  0  0  0  0  0  0  0  0  0  0  0
  139.0470   74.7830  221.6600 C   0  0  0  0  0  0  0  0  0  0  0  0
  140.2610   74.8390  221.9700 O   0  0  0  0  0  0  0  0  0  0  0  0
  138.1930   75.9050  221.5370 N   0  0  0  0  0  0  0  0  0  0  0  0
  136.9040   76.1050  222.2280 C   0  0  0  0  0  0  0  0  0  0  0  0
  137.1310   77.5060  222.7460 C   0  0  2  0  0  0  0  0  0  0  0  0
  135.8900   78.0440  223.0670 O   0  0  0  0  0  0  0  0  0  0  0  0
  137.6710   78.2180  221.5290 C   0  0  0  0  0  0  0  0  0  0  0  0
  138.3320   77.1160  220.7430 C   0  0  1  0  0  0  0  0  0  0  0  0
  139.7510   77.4010  220.3610 C   0  0  0  0  0  0  0  0  0  0  0  0
  140.5260   78.1770  221.3300 C   0  0  0  0  0  0  0  0  0  0  0  0
  140.7840   77.7870  222.6310 C   0  0  0  0  0  0  0  0  0  0  0  0
  141.5240   78.5880  223.5000 C   0  0  0  0  0  0  0  0  0  0  0  0
  142.0230   79.8000  223.0790 C   0  0  0  0  0  0  0  0  0  0  0  0
  142.9590   80.8620  224.0990 Cl  0  0  0  0  0  0  0  0  0  0  0  0
  141.7780   80.2090  221.7850 C   0  0  0  0  0  0  0  0  0  0  0  0
  141.0430   79.3980  220.9450 C   0  0  0  0  0  0  0  0  0  0  0  0
  138.9640   70.4480  223.7440 C   0  0  0  0  0  0  0  0  0  0  0  0
  138.7890   69.0720  223.7880 C   0  0  0  0  0  0  0  0  0  0  0  0
  139.2120   68.2880  224.8290 C   0  0  0  0  0  0  0  0  0  0  0  0
  139.8410   68.8990  225.8810 C   0  0  0  0  0  0  0  0  0  0  0  0
  140.2730   68.1430  226.9300 C   0  0  0  0  0  0  0  0  0  0  0  0
  140.9110   68.7460  228.0010 C   0  0  0  0  0  0  0  0  0  0  0  0
  141.4570   67.7580  229.3380 Cl  0  0  0  0  0  0  0  0  0  0  0  0
  141.0790   70.1010  227.9460 C   0  0  0  0  0  0  0  0  0  0  0  0
  140.6510   70.8890  226.8970 C   0  0  0  0  0  0  0  0  0  0  0  0
  140.0080   70.2720  225.8210 C   0  0  0  0  0  0  0  0  0  0  0  0
  139.5840   71.0200  224.7870 N   0  0  0  0  0  0  0  0  0  0  0  0
  139.5260   72.9870  223.2420 H   0  0  0  0  0  0  0  0  0  0  0  0
  138.8673   73.0347  220.4541 H   0  0  0  0  0  0  0  0  0  0  0  0
  137.3858   73.4718  221.3400 H   0  0  0  0  0  0  0  0  0  0  0  0
  136.0516   76.0543  221.5345 H   0  0  0  0  0  0  0  0  0  0  0  0
  136.6532   75.3527  222.9903 H   0  0  0  0  0  0  0  0  0  0  0  0
  137.7878   77.5719  223.6259 H   0  0  0  0  0  0  0  0  0  0  0  0
  135.6010   78.7140  222.4010 H   0  0  0  0  0  0  0  0  0  0  0  0
  136.8576   78.6805  220.9506 H   0  0  0  0  0  0  0  0  0  0  0  0
  138.3601   79.0373  221.7819 H   0  0  0  0  0  0  0  0  0  0  0  0
  137.8353   77.0085  219.7674 H   0  0  0  0  0  0  0  0  0  0  0  0
  140.2613   76.4377  220.2140 H   0  0  0  0  0  0  0  0  0  0  0  0
  139.6983   78.0212  219.4540 H   0  0  0  0  0  0  0  0  0  0  0  0
  140.3963   76.8219  222.9891 H   0  0  0  0  0  0  0  0  0  0  0  0
  141.7105   78.2489  224.5297 H   0  0  0  0  0  0  0  0  0  0  0  0
  142.1653   81.1738  221.4256 H   0  0  0  0  0  0  0  0  0  0  0  0
  140.8596   79.7416  219.9163 H   0  0  0  0  0  0  0  0  0  0  0  0
  138.2834   68.5845  222.9414 H   0  0  0  0  0  0  0  0  0  0  0  0
  139.0511   67.1999  224.8201 H   0  0  0  0  0  0  0  0  0  0  0  0
  140.1148   67.0544  226.9257 H   0  0  0  0  0  0  0  0  0  0  0  0
  141.5861   70.5935  228.7888 H   0  0  0  0  0  0  0  0  0  0  0  0
  140.8123   71.9771  226.9078 H   0  0  0  0  0  0  0  0  0  0  0  0
  1  2  2  0
  2  3  1  0
  3  4  1  0
  4  5  1  0
  5  6  2  0
  5  7  1  0
  7  8  1  0
  8  9  1  0
  9 10  1  0
  9 11  1  0
 11 12  1  0
 12 13  1  0
 13 14  1  0
 14 15  2  0
 15 16  1  0
 16 17  2  0
 17 18  1  0
 17 19  1  0
 19 20  2  0
  2 21  1  0
 21 22  2  0
 22 23  1  0
 23 24  2  0
 24 25  1  0
 25 26  2  0
 26 27  1  0
 26 28  1  0
 28 29  2  0
 29 30  1  0
 30 31  2  0
 12  7  1  0
 20 14  1  0
 31 21  1  0
 30 24  1  0
  3 32  1  0
  4 33  1  0
  4 34  1  0
  8 35  1  0
  8 36  1  0
  9 37  1  1
 10 38  1  0
 11 39  1  0
 11 40  1  0
 12 41  1  6
 13 42  1  0
 13 43  1  0
 15 44  1  0
 16 45  1  0
 19 46  1  0
 20 47  1  0
 22 48  1  0
 23 49  1  0
 25 50  1  0
 28 51  1  0
 29 52  1  0
M  END
>  <smiles>  (23) 
O=C(NCC(=O)N1C[C@H](O)C[C@H]1Cc1ccc(Cl)cc1)c1ccc2cc(Cl)ccc2n1

>  <score_type>  (23) 
oracle

>  <origin>  (23) 
autodockgpu

>  <m_score__min__energy>  (23) 
-8.9499999999999993

>  <m_primary>  (23) 
energy

>  <rmsd>  (23) 
2.7466383251001965

>  <m_score__min__rmsd>  (23) 
2.7466383251001965

>  <meeko>  (23) 
{"free_energy": -8.33, "intermolecular_energy": -10.42, "internal_energy": -2.07, "cluster_size": 20, "cluster_id": 4, "rank_in_cluster": 1}

>  <energy>  (23) 
-8.61

>  <cluster_rmsd>  (23) 
1.13

>  <cluster>  (23) 
3

$$$$

     RDKit          3D

 52 55  0  0  0  0  0  0  0  0999 V2000
  139.8310   71.8300  220.7280 O   0  0  0  0  0  0  0  0  0  0  0  0
  139.7530   72.3360  221.8580 C   0  0  0  0  0  0  0  0  0  0  0  0
  139.5560   73.7170  222.0990 N   0  0  0  0  0  0  0  0  0  0  0  0
  139.4270   74.6650  221.0100 C   0  0  0  0  0  0  0  0  0  0  0  0
  138.9820   75.9580  221.5980 C   0  0  0  0  0  0  0  0  0  0  0  0
  139.0940   76.0800  222.8410 O   0  0  0  0  0  0  0  0  0  0  0  0
  138.4680   76.9520  220.7330 N   0  0  0  0  0  0  0  0  0  0  0  0
  137.0860   77.4720  220.7170 C   0  0  0  0  0  0  0  0  0  0  0  0
  137.3940   78.9520  220.7170 C   0  0  2  0  0  0  0  0  0  0  0  0
  136.2530   79.6190  220.2850 O   0  0  0  0  0  0  0  0  0  0  0  0
  138.4560   79.0610  219.6490 C   0  0  0  0  0  0  0  0  0  0  0  0
  139.1160   77.7080  219.6710 C   0  0  1  0  0  0  0  0  0  0  0  0
  140.6040   77.7530  219.8150 C   0  0  0  0  0  0  0  0  0  0  0  0
  141.1180   78.6780  220.8260 C   0  0  0  0  0  0  0  0  0  0  0  0
  141.5570   79.9640  220.5710 C   0  0  0  0  0  0  0  0  0  0  0  0
  142.0440   80.7830  221.5890 C   0  0  0  0  0  0  0  0  0  0  0  0
  142.1000   80.3280  222.8860 C   0  0  0  0  0  0  0  0  0  0  0  0
  142.6930   81.2860  224.2180 Cl  0  0  0  0  0  0  0  0  0  0  0  0
  141.6670   79.0480  223.1630 C   0  0  0  0  0  0  0  0  0  0  0  0
  141.1900   78.2560  222.1390 C   0  0  0  0  0  0  0  0  0  0  0  0
  139.8720   71.4600  223.0380 C   0  0  0  0  0  0  0  0  0  0  0  0
  139.4560   70.1370  222.9770 C   0  0  0  0  0  0  0  0  0  0  0  0
  139.5380   69.2690  224.0330 C   0  0  0  0  0  0  0  0  0  0  0  0
  140.0580   69.7340  225.2120 C   0  0  0  0  0  0  0  0  0  0  0  0
  140.1510   68.8920  226.2790 C   0  0  0  0  0  0  0  0  0  0  0  0
  140.6740   69.3480  227.4780 C   0  0  0  0  0  0  0  0  0  0  0  0
  140.7840   68.2510  228.8360 Cl  0  0  0  0  0  0  0  0  0  0  0  0
  141.0810   70.6520  227.5260 C   0  0  0  0  0  0  0  0  0  0  0  0
  140.9980   71.5260  226.4610 C   0  0  0  0  0  0  0  0  0  0  0  0
  140.4670   71.0570  225.2560 C   0  0  0  0  0  0  0  0  0  0  0  0
  140.3770   71.8890  224.2040 N   0  0  0  0  0  0  0  0  0  0  0  0
  139.4980   74.0810  223.0860 H   0  0  0  0  0  0  0  0  0  0  0  0
  140.3966   74.7943  220.5069 H   0  0  0  0  0  0  0  0  0  0  0  0
  138.7013   74.3059  220.2654 H   0  0  0  0  0  0  0  0  0  0  0  0
  136.5392   77.1639  219.8136 H   0  0  0  0  0  0  0  0  0  0  0  0
  136.4381   77.1223  221.5342 H   0  0  0  0  0  0  0  0  0  0  0  0
  137.7012   79.3607  221.6910 H   0  0  0  0  0  0  0  0  0  0  0  0
  136.3270   80.5950  220.4280 H   0  0  0  0  0  0  0  0  0  0  0  0
  138.0058   79.2630  218.6659 H   0  0  0  0  0  0  0  0  0  0  0  0
  139.1619   79.8852  219.8290 H   0  0  0  0  0  0  0  0  0  0  0  0
  138.9821   77.2160  218.6963 H   0  0  0  0  0  0  0  0  0  0  0  0
  140.9486   76.7416  220.0765 H   0  0  0  0  0  0  0  0  0  0  0  0
  140.9866   78.1206  218.8514 H   0  0  0  0  0  0  0  0  0  0  0  0
  141.5213   80.3499  219.5415 H   0  0  0  0  0  0  0  0  0  0  0  0
  142.3863   81.8014  221.3530 H   0  0  0  0  0  0  0  0  0  0  0  0
  141.7018   78.6617  224.1923 H   0  0  0  0  0  0  0  0  0  0  0  0
  140.8502   77.2380  222.3803 H   0  0  0  0  0  0  0  0  0  0  0  0
  139.0380   69.7660  222.0296 H   0  0  0  0  0  0  0  0  0  0  0  0
  139.1960   68.2279  223.9373 H   0  0  0  0  0  0  0  0  0  0  0  0
  139.8107   67.8499  226.1884 H   0  0  0  0  0  0  0  0  0  0  0  0
  141.5002   71.0277  228.4710 H   0  0  0  0  0  0  0  0  0  0  0  0
  141.3414   72.5665  226.5581 H   0  0  0  0  0  0  0  0  0  0  0  0
  1  2  2  0
  2  3  1  0
  3  4  1  0
  4  5  1  0
  5  6  2  0
  5  7  1  0
  7  8  1  0
  8  9  1  0
  9 10  1  0
  9 11  1  0
 11 12  1  0
 12 13  1  0
 13 14  1  0
 14 15  2  0
 15 16  1  0
 16 17  2  0
 17 18  1  0
 17 19  1  0
 19 20  2  0
  2 21  1  0
 21 22  2  0
 22 23  1  0
 23 24  2  0
 24 25  1  0
 25 26  2  0
 26 27  1  0
 26 28  1  0
 28 29  2  0
 29 30  1  0
 30 31  2  0
 12  7  1  0
 20 14  1  0
 31 21  1  0
 30 24  1  0
  3 32  1  0
  4 33  1  0
  4 34  1  0
  8 35  1  0
  8 36  1  0
  9 37  1  1
 10 38  1  0
 11 39  1  0
 11 40  1  0
 12 41  1  6
 13 42  1  0
 13 43  1  0
 15 44  1  0
 16 45  1  0
 19 46  1  0
 20 47  1  0
 22 48  1  0
 23 49  1  0
 25 50  1  0
 28 51  1  0
 29 52  1  0
M  END
>  <smiles>  (24) 
O=C(NCC(=O)N1C[C@H](O)C[C@H]1Cc1ccc(Cl)cc1)c1ccc2cc(Cl)ccc2n1

>  <score_type>  (24) 
oracle

>  <origin>  (24) 
autodockgpu

>  <m_score__min__energy>  (24) 
-8.9499999999999993

>  <m_primary>  (24) 
energy

>  <rmsd>  (24) 
2.412191544774524

>  <m_score__min__rmsd>  (24) 
2.412191544774524

>  <meeko>  (24) 
{"free_energy": -7.85, "intermolecular_energy": -9.94, "internal_energy": -2.24, "cluster_size": 20, "cluster_id": 4, "rank_in_cluster": 19}

>  <energy>  (24) 
-8.33

>  <cluster_rmsd>  (24) 
0.0

>  <cluster>  (24) 
4

$$$$

     RDKit          3D

 52 55  0  0  0  0  0  0  0  0999 V2000
  137.9050   71.0350  221.4050 O   0  0  0  0  0  0  0  0  0  0  0  0
  138.5240   71.6100  222.3130 C   0  0  0  0  0  0  0  0  0  0  0  0
  138.8300   72.9920  222.3150 N   0  0  0  0  0  0  0  0  0  0  0  0
  138.4300   73.8590  221.2230 C   0  0  0  0  0  0  0  0  0  0  0  0
  139.0800   75.1790  221.4440 C   0  0  0  0  0  0  0  0  0  0  0  0
  140.0400   75.2080  222.2510 O   0  0  0  0  0  0  0  0  0  0  0  0
  138.5830   76.3030  220.7420 N   0  0  0  0  0  0  0  0  0  0  0  0
  137.1880   76.7870  220.7370 C   0  0  0  0  0  0  0  0  0  0  0  0
  137.4470   78.2480  221.0210 C   0  0  2  0  0  0  0  0  0  0  0  0
  136.3110   78.9580  220.6490 O   0  0  0  0  0  0  0  0  0  0  0  0
  138.5630   78.5730  220.0570 C   0  0  0  0  0  0  0  0  0  0  0  0
  139.2630   77.2520  219.8750 C   0  0  1  0  0  0  0  0  0  0  0  0
  140.7400   77.3030  220.1140 C   0  0  0  0  0  0  0  0  0  0  0  0
  141.1810   78.2050  221.1780 C   0  0  0  0  0  0  0  0  0  0  0  0
  141.0760   77.9440  222.5310 C   0  0  0  0  0  0  0  0  0  0  0  0
  141.5110   78.8600  223.4870 C   0  0  0  0  0  0  0  0  0  0  0  0
  142.0620   80.0620  223.1040 C   0  0  0  0  0  0  0  0  0  0  0  0
  142.6320   81.2640  224.2330 Cl  0  0  0  0  0  0  0  0  0  0  0  0
  142.1770   80.3440  221.7580 C   0  0  0  0  0  0  0  0  0  0  0  0
  141.7390   79.4200  220.8320 C   0  0  0  0  0  0  0  0  0  0  0  0
  138.9780   70.8220  223.4720 C   0  0  0  0  0  0  0  0  0  0  0  0
  138.7630   69.4510  223.5200 C   0  0  0  0  0  0  0  0  0  0  0  0
  139.1580   68.6580  224.5640 C   0  0  0  0  0  0  0  0  0  0  0  0
  139.8000   69.2530  225.6180 C   0  0  0  0  0  0  0  0  0  0  0  0
  140.2050   68.4880  226.6700 C   0  0  0  0  0  0  0  0  0  0  0  0
  140.8550   69.0750  227.7440 C   0  0  0  0  0  0  0  0  0  0  0  0
  141.3660   68.0750  229.0850 Cl  0  0  0  0  0  0  0  0  0  0  0  0
  141.0610   70.4250  227.6860 C   0  0  0  0  0  0  0  0  0  0  0  0
  140.6620   71.2220  226.6330 C   0  0  0  0  0  0  0  0  0  0  0  0
  140.0060   70.6210  225.5550 C   0  0  0  0  0  0  0  0  0  0  0  0
  139.6090   71.3780  224.5180 N   0  0  0  0  0  0  0  0  0  0  0  0
  139.3590   73.4190  223.1200 H   0  0  0  0  0  0  0  0  0  0  0  0
  138.7600   73.4329  220.2640 H   0  0  0  0  0  0  0  0  0  0  0  0
  137.3356   73.9648  221.1911 H   0  0  0  0  0  0  0  0  0  0  0  0
  136.7019   76.6357  219.7619 H   0  0  0  0  0  0  0  0  0  0  0  0
  136.5080   76.2809  221.4380 H   0  0  0  0  0  0  0  0  0  0  0  0
  137.6861   78.4792  222.0695 H   0  0  0  0  0  0  0  0  0  0  0  0
  136.5440   79.7940  220.1760 H   0  0  0  0  0  0  0  0  0  0  0  0
  138.1625   78.9412  219.1010 H   0  0  0  0  0  0  0  0  0  0  0  0
  139.2309   79.3658  220.4249 H   0  0  0  0  0  0  0  0  0  0  0  0
  139.1979   76.9413  218.8218 H   0  0  0  0  0  0  0  0  0  0  0  0
  141.0757   76.2876  220.3714 H   0  0  0  0  0  0  0  0  0  0  0  0
  141.1798   77.6973  219.1860 H   0  0  0  0  0  0  0  0  0  0  0  0
  140.6386   76.9903  222.8613 H   0  0  0  0  0  0  0  0  0  0  0  0
  141.4133   78.6206  224.5562 H   0  0  0  0  0  0  0  0  0  0  0  0
  142.6142   81.2974  221.4263 H   0  0  0  0  0  0  0  0  0  0  0  0
  141.8393   79.6633  219.7639 H   0  0  0  0  0  0  0  0  0  0  0  0
  138.2470   68.9759  222.6727 H   0  0  0  0  0  0  0  0  0  0  0  0
  138.9655   67.5750  224.5567 H   0  0  0  0  0  0  0  0  0  0  0  0
  140.0161   67.4043  226.6669 H   0  0  0  0  0  0  0  0  0  0  0  0
  141.5765   70.9054  228.5307 H   0  0  0  0  0  0  0  0  0  0  0  0
  140.8555   72.3048  226.6416 H   0  0  0  0  0  0  0  0  0  0  0  0
  1  2  2  0
  2  3  1  0
  3  4  1  0
  4  5  1  0
  5  6  2  0
  5  7  1  0
  7  8  1  0
  8  9  1  0
  9 10  1  0
  9 11  1  0
 11 12  1  0
 12 13  1  0
 13 14  1  0
 14 15  2  0
 15 16  1  0
 16 17  2  0
 17 18  1  0
 17 19  1  0
 19 20  2  0
  2 21  1  0
 21 22  2  0
 22 23  1  0
 23 24  2  0
 24 25  1  0
 25 26  2  0
 26 27  1  0
 26 28  1  0
 28 29  2  0
 29 30  1  0
 30 31  2  0
 12  7  1  0
 20 14  1  0
 31 21  1  0
 30 24  1  0
  3 32  1  0
  4 33  1  0
  4 34  1  0
  8 35  1  0
  8 36  1  0
  9 37  1  1
 10 38  1  0
 11 39  1  0
 11 40  1  0
 12 41  1  6
 13 42  1  0
 13 43  1  0
 15 44  1  0
 16 45  1  0
 19 46  1  0
 20 47  1  0
 22 48  1  0
 23 49  1  0
 25 50  1  0
 28 51  1  0
 29 52  1  0
M  END
>  <smiles>  (25) 
O=C(NCC(=O)N1C[C@H](O)C[C@H]1Cc1ccc(Cl)cc1)c1ccc2cc(Cl)ccc2n1

>  <score_type>  (25) 
oracle

>  <origin>  (25) 
autodockgpu

>  <m_score__min__energy>  (25) 
-8.9499999999999993

>  <m_primary>  (25) 
energy

>  <rmsd>  (25) 
2.1098750816561065

>  <m_score__min__rmsd>  (25) 
2.1098750816561065

>  <meeko>  (25) 
{"free_energy": -8.26, "intermolecular_energy": -10.35, "internal_energy": -2.28, "cluster_size": 20, "cluster_id": 4, "rank_in_cluster": 5}

>  <energy>  (25) 
-8.33

>  <cluster_rmsd>  (25) 
0.42

>  <cluster>  (25) 
4

$$$$

     RDKit          3D

 52 55  0  0  0  0  0  0  0  0999 V2000
  140.5160   72.7050  220.9440 O   0  0  0  0  0  0  0  0  0  0  0  0
  139.8730   72.9250  221.9820 C   0  0  0  0  0  0  0  0  0  0  0  0
  139.0550   74.0620  222.1840 N   0  0  0  0  0  0  0  0  0  0  0  0
  138.9070   75.0810  221.1630 C   0  0  0  0  0  0  0  0  0  0  0  0
  138.3940   76.3080  221.8320 C   0  0  0  0  0  0  0  0  0  0  0  0
  137.1480   76.4360  221.8970 O   0  0  0  0  0  0  0  0  0  0  0  0
  139.3290   77.2390  222.3440 N   0  0  0  0  0  0  0  0  0  0  0  0
  140.7990   77.1450  222.2540 C   0  0  0  0  0  0  0  0  0  0  0  0
  141.0920   78.5400  221.7500 C   0  0  2  0  0  0  0  0  0  0  0  0
  142.4350   78.8020  221.9910 O   0  0  0  0  0  0  0  0  0  0  0  0
  140.2540   79.3970  222.6690 C   0  0  0  0  0  0  0  0  0  0  0  0
  139.1220   78.4860  223.0640 C   0  0  1  0  0  0  0  0  0  0  0  0
  137.7610   79.0670  222.8420 C   0  0  0  0  0  0  0  0  0  0  0  0
  137.2890   79.9920  223.8730 C   0  0  0  0  0  0  0  0  0  0  0  0
  138.1020   80.8100  224.6350 C   0  0  0  0  0  0  0  0  0  0  0  0
  137.5760   81.6580  225.6080 C   0  0  0  0  0  0  0  0  0  0  0  0
  136.2200   81.7050  225.8360 C   0  0  0  0  0  0  0  0  0  0  0  0
  135.4800   82.7380  227.0320 Cl  0  0  0  0  0  0  0  0  0  0  0  0
  135.3900   80.8980  225.0870 C   0  0  0  0  0  0  0  0  0  0  0  0
  135.9340   80.0660  224.1300 C   0  0  0  0  0  0  0  0  0  0  0  0
  139.9540   71.9520  223.0850 C   0  0  0  0  0  0  0  0  0  0  0  0
  139.5170   70.6460  222.9070 C   0  0  0  0  0  0  0  0  0  0  0  0
  139.5630   69.6920  223.8880 C   0  0  0  0  0  0  0  0  0  0  0  0
  140.0670   70.0480  225.1110 C   0  0  0  0  0  0  0  0  0  0  0  0
  140.1250   69.1180  226.1050 C   0  0  0  0  0  0  0  0  0  0  0  0
  140.6320   69.4630  227.3470 C   0  0  0  0  0  0  0  0  0  0  0  0
  140.6970   68.2540  228.6100 Cl  0  0  0  0  0  0  0  0  0  0  0  0
  141.0590   70.7510  227.5120 C   0  0  0  0  0  0  0  0  0  0  0  0
  141.0120   71.7110  226.5220 C   0  0  0  0  0  0  0  0  0  0  0  0
  140.4980   71.3540  225.2720 C   0  0  0  0  0  0  0  0  0  0  0  0
  140.4430   72.2730  224.2930 N   0  0  0  0  0  0  0  0  0  0  0  0
  138.5350   74.1880  223.0910 H   0  0  0  0  0  0  0  0  0  0  0  0
  139.8801   75.2873  220.6935 H   0  0  0  0  0  0  0  0  0  0  0  0
  138.2130   74.7470  220.3776 H   0  0  0  0  0  0  0  0  0  0  0  0
  141.2613   76.9544  223.2338 H   0  0  0  0  0  0  0  0  0  0  0  0
  141.1843   76.3249  221.6303 H   0  0  0  0  0  0  0  0  0  0  0  0
  140.8832   78.6996  220.6819 H   0  0  0  0  0  0  0  0  0  0  0  0
  142.9450   78.8940  221.1490 H   0  0  0  0  0  0  0  0  0  0  0  0
  140.8325   79.7103  223.5506 H   0  0  0  0  0  0  0  0  0  0  0  0
  139.9095   80.3265  222.1922 H   0  0  0  0  0  0  0  0  0  0  0  0
  139.1406   78.3226  224.1516 H   0  0  0  0  0  0  0  0  0  0  0  0
  137.7768   79.6081  221.8844 H   0  0  0  0  0  0  0  0  0  0  0  0
  137.0650   78.2155  222.8624 H   0  0  0  0  0  0  0  0  0  0  0  0
  139.1893   80.7912  224.4696 H   0  0  0  0  0  0  0  0  0  0  0  0
  138.2507   82.2951  226.1987 H   0  0  0  0  0  0  0  0  0  0  0  0
  134.3025   80.9173  225.2511 H   0  0  0  0  0  0  0  0  0  0  0  0
  135.2550   79.4303  223.5428 H   0  0  0  0  0  0  0  0  0  0  0  0
  139.1118   70.3625  221.9244 H   0  0  0  0  0  0  0  0  0  0  0  0
  139.2055   68.6690  223.6995 H   0  0  0  0  0  0  0  0  0  0  0  0
  139.7693   68.0934  225.9212 H   0  0  0  0  0  0  0  0  0  0  0  0
  141.4645   71.0395  228.4930 H   0  0  0  0  0  0  0  0  0  0  0  0
  141.3706   72.7334  226.7120 H   0  0  0  0  0  0  0  0  0  0  0  0
  1  2  2  0
  2  3  1  0
  3  4  1  0
  4  5  1  0
  5  6  2  0
  5  7  1  0
  7  8  1  0
  8  9  1  0
  9 10  1  0
  9 11  1  0
 11 12  1  0
 12 13  1  0
 13 14  1  0
 14 15  2  0
 15 16  1  0
 16 17  2  0
 17 18  1  0
 17 19  1  0
 19 20  2  0
  2 21  1  0
 21 22  2  0
 22 23  1  0
 23 24  2  0
 24 25  1  0
 25 26  2  0
 26 27  1  0
 26 28  1  0
 28 29  2  0
 29 30  1  0
 30 31  2  0
 12  7  1  0
 20 14  1  0
 31 21  1  0
 30 24  1  0
  3 32  1  0
  4 33  1  0
  4 34  1  0
  8 35  1  0
  8 36  1  0
  9 37  1  6
 10 38  1  0
 11 39  1  0
 11 40  1  0
 12 41  1  1
 13 42  1  0
 13 43  1  0
 15 44  1  0
 16 45  1  0
 19 46  1  0
 20 47  1  0
 22 48  1  0
 23 49  1  0
 25 50  1  0
 28 51  1  0
 29 52  1  0
M  END
>  <smiles>  (26) 
O=C(NCC(=O)N1C[C@H](O)C[C@H]1Cc1ccc(Cl)cc1)c1ccc2cc(Cl)ccc2n1

>  <score_type>  (26) 
oracle

>  <origin>  (26) 
autodockgpu

>  <m_score__min__energy>  (26) 
-8.9499999999999993

>  <m_primary>  (26) 
energy

>  <rmsd>  (26) 
3.0450873937247716

>  <m_score__min__rmsd>  (26) 
3.0450873937247716

>  <meeko>  (26) 
{"free_energy": -8.61, "intermolecular_energy": -10.7, "internal_energy": -1.23, "cluster_size": 2, "cluster_id": 3, "rank_in_cluster": 2}

>  <energy>  (26) 
-8.32

>  <cluster_rmsd>  (26) 
0.29

>  <cluster>  (26) 
4

$$$$

     RDKit          3D

 52 55  0  0  0  0  0  0  0  0999 V2000
  141.0580   73.7780  221.0140 O   0  0  0  0  0  0  0  0  0  0  0  0
  140.2380   73.8400  221.9430 C   0  0  0  0  0  0  0  0  0  0  0  0
  139.5380   75.0150  222.3090 N   0  0  0  0  0  0  0  0  0  0  0  0
  139.7360   76.2660  221.6030 C   0  0  0  0  0  0  0  0  0  0  0  0
  139.1450   77.3450  222.4400 C   0  0  0  0  0  0  0  0  0  0  0  0
  137.9500   77.1960  222.7920 O   0  0  0  0  0  0  0  0  0  0  0  0
  139.9540   78.4550  222.7800 N   0  0  0  0  0  0  0  0  0  0  0  0
  141.4260   78.5250  222.6980 C   0  0  0  0  0  0  0  0  0  0  0  0
  141.5570   79.8400  221.9630 C   0  0  2  0  0  0  0  0  0  0  0  0
  142.8560   80.2990  222.1480 O   0  0  0  0  0  0  0  0  0  0  0  0
  140.6090   80.7330  222.7280 C   0  0  0  0  0  0  0  0  0  0  0  0
  139.5890   79.7730  223.2790 C   0  0  1  0  0  0  0  0  0  0  0  0
  138.1720   80.1390  222.9700 C   0  0  0  0  0  0  0  0  0  0  0  0
  137.3810   80.6320  224.0980 C   0  0  0  0  0  0  0  0  0  0  0  0
  136.0360   80.3790  224.2920 C   0  0  0  0  0  0  0  0  0  0  0  0
  135.3480   80.8930  225.3900 C   0  0  0  0  0  0  0  0  0  0  0  0
  135.9970   81.6740  226.3190 C   0  0  0  0  0  0  0  0  0  0  0  0
  135.2130   82.3560  227.7210 Cl  0  0  0  0  0  0  0  0  0  0  0  0
  137.3400   81.9390  226.1450 C   0  0  0  0  0  0  0  0  0  0  0  0
  137.9980   81.4190  225.0510 C   0  0  0  0  0  0  0  0  0  0  0  0
  139.9620   72.6240  222.7280 C   0  0  0  0  0  0  0  0  0  0  0  0
  138.9130   71.7840  222.3800 C   0  0  0  0  0  0  0  0  0  0  0  0
  138.6000   70.6390  223.0640 C   0  0  0  0  0  0  0  0  0  0  0  0
  139.3660   70.3070  224.1500 C   0  0  0  0  0  0  0  0  0  0  0  0
  139.0790   69.1740  224.8490 C   0  0  0  0  0  0  0  0  0  0  0  0
  139.8440   68.8250  225.9490 C   0  0  0  0  0  0  0  0  0  0  0  0
  139.4570   67.3660  226.8330 Cl  0  0  0  0  0  0  0  0  0  0  0  0
  140.8740   69.6590  226.2820 C   0  0  0  0  0  0  0  0  0  0  0  0
  141.1870   70.8120  225.5920 C   0  0  0  0  0  0  0  0  0  0  0  0
  140.4090   71.1560  224.4840 C   0  0  0  0  0  0  0  0  0  0  0  0
  140.6960   72.2750  223.7950 N   0  0  0  0  0  0  0  0  0  0  0  0
  138.8530   74.9980  223.1090 H   0  0  0  0  0  0  0  0  0  0  0  0
  140.8106   76.4494  221.4562 H   0  0  0  0  0  0  0  0  0  0  0  0
  139.2571   76.2345  220.6132 H   0  0  0  0  0  0  0  0  0  0  0  0
  141.8938   78.5597  223.6930 H   0  0  0  0  0  0  0  0  0  0  0  0
  141.9156   77.6638  222.2199 H   0  0  0  0  0  0  0  0  0  0  0  0
  141.3460   79.7904  220.8846 H   0  0  0  0  0  0  0  0  0  0  0  0
  143.5200   79.5840  221.9910 H   0  0  0  0  0  0  0  0  0  0  0  0
  141.1330   81.2587  223.5399 H   0  0  0  0  0  0  0  0  0  0  0  0
  140.1625   81.5197  222.1021 H   0  0  0  0  0  0  0  0  0  0  0  0
  139.6118   79.8005  224.3784 H   0  0  0  0  0  0  0  0  0  0  0  0
  138.1865   80.9238  222.1994 H   0  0  0  0  0  0  0  0  0  0  0  0
  137.6856   79.2059  222.6493 H   0  0  0  0  0  0  0  0  0  0  0  0
  135.4958   79.7574  223.5627 H   0  0  0  0  0  0  0  0  0  0  0  0
  134.2776   80.6726  225.5150 H   0  0  0  0  0  0  0  0  0  0  0  0
  137.8813   82.5604  226.8736 H   0  0  0  0  0  0  0  0  0  0  0  0
  139.0684   81.6420  224.9308 H   0  0  0  0  0  0  0  0  0  0  0  0
  138.2995   72.0524  221.5073 H   0  0  0  0  0  0  0  0  0  0  0  0
  137.7579   70.0046  222.7502 H   0  0  0  0  0  0  0  0  0  0  0  0
  138.2385   68.5355  224.5394 H   0  0  0  0  0  0  0  0  0  0  0  0
  141.4912   69.3949  227.1534 H   0  0  0  0  0  0  0  0  0  0  0  0
  142.0293   71.4454  225.9069 H   0  0  0  0  0  0  0  0  0  0  0  0
  1  2  2  0
  2  3  1  0
  3  4  1  0
  4  5  1  0
  5  6  2  0
  5  7  1  0
  7  8  1  0
  8  9  1  0
  9 10  1  0
  9 11  1  0
 11 12  1  0
 12 13  1  0
 13 14  1  0
 14 15  2  0
 15 16  1  0
 16 17  2  0
 17 18  1  0
 17 19  1  0
 19 20  2  0
  2 21  1  0
 21 22  2  0
 22 23  1  0
 23 24  2  0
 24 25  1  0
 25 26  2  0
 26 27  1  0
 26 28  1  0
 28 29  2  0
 29 30  1  0
 30 31  2  0
 12  7  1  0
 20 14  1  0
 31 21  1  0
 30 24  1  0
  3 32  1  0
  4 33  1  0
  4 34  1  0
  8 35  1  0
  8 36  1  0
  9 37  1  6
 10 38  1  0
 11 39  1  0
 11 40  1  0
 12 41  1  1
 13 42  1  0
 13 43  1  0
 15 44  1  0
 16 45  1  0
 19 46  1  0
 20 47  1  0
 22 48  1  0
 23 49  1  0
 25 50  1  0
 28 51  1  0
 29 52  1  0
M  END
>  <smiles>  (27) 
O=C(NCC(=O)N1C[C@H](O)C[C@H]1Cc1ccc(Cl)cc1)c1ccc2cc(Cl)ccc2n1

>  <score_type>  (27) 
oracle

>  <origin>  (27) 
autodockgpu

>  <m_score__min__energy>  (27) 
-8.9499999999999993

>  <m_primary>  (27) 
energy

>  <rmsd>  (27) 
3.9213239365571146

>  <m_score__min__rmsd>  (27) 
3.9213239365571146

>  <meeko>  (27) 
{"free_energy": -8.72, "intermolecular_energy": -10.81, "internal_energy": -1.51, "cluster_size": 2, "cluster_id": 3, "rank_in_cluster": 1}

>  <energy>  (27) 
-8.3

>  <cluster_rmsd>  (27) 
0.34

>  <cluster>  (27) 
4

$$$$

     RDKit          3D

 52 55  0  0  0  0  0  0  0  0999 V2000
  139.3490   71.9860  220.4990 O   0  0  0  0  0  0  0  0  0  0  0  0
  139.6570   72.5110  221.5790 C   0  0  0  0  0  0  0  0  0  0  0  0
  139.9010   73.8950  221.7490 N   0  0  0  0  0  0  0  0  0  0  0  0
  139.8050   74.8240  220.6400 C   0  0  0  0  0  0  0  0  0  0  0  0
  140.8550   75.8600  220.8370 C   0  0  0  0  0  0  0  0  0  0  0  0
  141.1220   76.1740  222.0210 O   0  0  0  0  0  0  0  0  0  0  0  0
  141.4760   76.4180  219.6940 N   0  0  0  0  0  0  0  0  0  0  0  0
  141.1200   77.6900  219.0360 C   0  0  0  0  0  0  0  0  0  0  0  0
  142.5020   78.2940  218.9320 C   0  0  2  0  0  0  0  0  0  0  0  0
  142.4510   79.3010  217.9740 O   0  0  0  0  0  0  0  0  0  0  0  0
  143.3160   77.1440  218.3880 C   0  0  0  0  0  0  0  0  0  0  0  0
  142.5820   75.9280  218.8860 C   0  0  1  0  0  0  0  0  0  0  0  0
  143.4450   74.9470  219.6160 C   0  0  0  0  0  0  0  0  0  0  0  0
  143.0170   73.5490  219.5460 C   0  0  0  0  0  0  0  0  0  0  0  0
  142.1760   73.0260  218.5810 C   0  0  0  0  0  0  0  0  0  0  0  0
  141.8050   71.6820  218.5880 C   0  0  0  0  0  0  0  0  0  0  0  0
  142.2720   70.8330  219.5650 C   0  0  0  0  0  0  0  0  0  0  0  0
  141.8590   69.1400  219.6470 Cl  0  0  0  0  0  0  0  0  0  0  0  0
  143.1130   71.3330  220.5380 C   0  0  0  0  0  0  0  0  0  0  0  0
  143.4650   72.6670  220.5090 C   0  0  0  0  0  0  0  0  0  0  0  0
  139.7830   71.6570  222.7730 C   0  0  0  0  0  0  0  0  0  0  0  0
  139.3290   70.3450  222.7520 C   0  0  0  0  0  0  0  0  0  0  0  0
  139.4150   69.4970  223.8240 C   0  0  0  0  0  0  0  0  0  0  0  0
  139.9800   69.9710  224.9780 C   0  0  0  0  0  0  0  0  0  0  0  0
  140.0780   69.1490  226.0600 C   0  0  0  0  0  0  0  0  0  0  0  0
  140.6470   69.6140  227.2340 C   0  0  0  0  0  0  0  0  0  0  0  0
  140.7630   68.5420  228.6120 Cl  0  0  0  0  0  0  0  0  0  0  0  0
  141.0910   70.9060  227.2430 C   0  0  0  0  0  0  0  0  0  0  0  0
  141.0030   71.7600  226.1630 C   0  0  0  0  0  0  0  0  0  0  0  0
  140.4270   71.2820  224.9830 C   0  0  0  0  0  0  0  0  0  0  0  0
  140.3320   72.0950  223.9160 N   0  0  0  0  0  0  0  0  0  0  0  0
  140.1580   74.2770  222.6970 H   0  0  0  0  0  0  0  0  0  0  0  0
  139.9721   74.2947  219.6903 H   0  0  0  0  0  0  0  0  0  0  0  0
  138.8065   75.2842  220.6034 H   0  0  0  0  0  0  0  0  0  0  0  0
  140.6638   77.5302  218.0479 H   0  0  0  0  0  0  0  0  0  0  0  0
  140.3730   78.3029  219.5616 H   0  0  0  0  0  0  0  0  0  0  0  0
  142.8961   78.7121  219.8700 H   0  0  0  0  0  0  0  0  0  0  0  0
  143.3100   79.3890  217.4940 H   0  0  0  0  0  0  0  0  0  0  0  0
  143.3410   77.1654  217.2885 H   0  0  0  0  0  0  0  0  0  0  0  0
  144.3671   77.1723  218.7110 H   0  0  0  0  0  0  0  0  0  0  0  0
  142.2170   75.3405  218.0307 H   0  0  0  0  0  0  0  0  0  0  0  0
  144.4595   75.0112  219.1956 H   0  0  0  0  0  0  0  0  0  0  0  0
  143.3834   75.2263  220.6782 H   0  0  0  0  0  0  0  0  0  0  0  0
  141.7907   73.6856  217.7894 H   0  0  0  0  0  0  0  0  0  0  0  0
  141.1336   71.2973  217.8062 H   0  0  0  0  0  0  0  0  0  0  0  0
  143.4994   70.6742  221.3296 H   0  0  0  0  0  0  0  0  0  0  0  0
  144.1366   73.0469  221.2930 H   0  0  0  0  0  0  0  0  0  0  0  0
  138.8757   69.9662  221.8241 H   0  0  0  0  0  0  0  0  0  0  0  0
  139.0409   68.4646  223.7600 H   0  0  0  0  0  0  0  0  0  0  0  0
  139.7052   68.1158  226.0012 H   0  0  0  0  0  0  0  0  0  0  0  0
  141.5466   71.2889  228.1681 H   0  0  0  0  0  0  0  0  0  0  0  0
  141.3772   72.7923  226.2292 H   0  0  0  0  0  0  0  0  0  0  0  0
  1  2  2  0
  2  3  1  0
  3  4  1  0
  4  5  1  0
  5  6  2  0
  5  7  1  0
  7  8  1  0
  8  9  1  0
  9 10  1  0
  9 11  1  0
 11 12  1  0
 12 13  1  0
 13 14  1  0
 14 15  2  0
 15 16  1  0
 16 17  2  0
 17 18  1  0
 17 19  1  0
 19 20  2  0
  2 21  1  0
 21 22  2  0
 22 23  1  0
 23 24  2  0
 24 25  1  0
 25 26  2  0
 26 27  1  0
 26 28  1  0
 28 29  2  0
 29 30  1  0
 30 31  2  0
 12  7  1  0
 20 14  1  0
 31 21  1  0
 30 24  1  0
  3 32  1  0
  4 33  1  0
  4 34  1  0
  8 35  1  0
  8 36  1  0
  9 37  1  1
 10 38  1  0
 11 39  1  0
 11 40  1  0
 12 41  1  6
 13 42  1  0
 13 43  1  0
 15 44  1  0
 16 45  1  0
 19 46  1  0
 20 47  1  0
 22 48  1  0
 23 49  1  0
 25 50  1  0
 28 51  1  0
 29 52  1  0
M  END
>  <smiles>  (28) 
O=C(NCC(=O)N1C[C@H](O)C[C@H]1Cc1ccc(Cl)cc1)c1ccc2cc(Cl)ccc2n1

>  <score_type>  (28) 
oracle

>  <origin>  (28) 
autodockgpu

>  <m_score__min__energy>  (28) 
-8.9499999999999993

>  <m_primary>  (28) 
energy

>  <rmsd>  (28) 
2.2276209413389214

>  <m_score__min__rmsd>  (28) 
2.2276209413389214

>  <meeko>  (28) 
{"free_energy": -6.83, "intermolecular_energy": -8.92, "internal_energy": -3.21, "cluster_size": 13, "cluster_id": 2, "rank_in_cluster": 13}

>  <energy>  (28) 
-8.26

>  <cluster_rmsd>  (28) 
0.89

>  <cluster>  (28) 
4

$$$$

     RDKit          3D

 52 55  0  0  0  0  0  0  0  0999 V2000
  139.7620   71.9450  220.6820 O   0  0  0  0  0  0  0  0  0  0  0  0
  139.7480   72.4610  221.8100 C   0  0  0  0  0  0  0  0  0  0  0  0
  139.6310   73.8520  222.0470 N   0  0  0  0  0  0  0  0  0  0  0  0
  139.5160   74.8000  220.9560 C   0  0  0  0  0  0  0  0  0  0  0  0
  140.6090   75.7960  221.1160 C   0  0  0  0  0  0  0  0  0  0  0  0
  140.7870   76.2580  222.2680 O   0  0  0  0  0  0  0  0  0  0  0  0
  141.3680   76.1560  219.9770 N   0  0  0  0  0  0  0  0  0  0  0  0
  141.0500   77.2280  219.0140 C   0  0  0  0  0  0  0  0  0  0  0  0
  142.3970   77.9130  218.9740 C   0  0  2  0  0  0  0  0  0  0  0  0
  142.4400   78.6910  217.8220 O   0  0  0  0  0  0  0  0  0  0  0  0
  143.3470   76.7500  218.8130 C   0  0  0  0  0  0  0  0  0  0  0  0
  142.6110   75.6050  219.4580 C   0  0  1  0  0  0  0  0  0  0  0  0
  143.4020   74.8750  220.4970 C   0  0  0  0  0  0  0  0  0  0  0  0
  143.9350   73.5730  220.0920 C   0  0  0  0  0  0  0  0  0  0  0  0
  143.1680   72.4870  219.7140 C   0  0  0  0  0  0  0  0  0  0  0  0
  143.7500   71.2740  219.3510 C   0  0  0  0  0  0  0  0  0  0  0  0
  145.1180   71.1250  219.3600 C   0  0  0  0  0  0  0  0  0  0  0  0
  145.9280   69.6430  218.9200 Cl  0  0  0  0  0  0  0  0  0  0  0  0
  145.9040   72.1950  219.7340 C   0  0  0  0  0  0  0  0  0  0  0  0
  145.3030   73.3860  220.0890 C   0  0  0  0  0  0  0  0  0  0  0  0
  139.8610   71.5870  222.9910 C   0  0  0  0  0  0  0  0  0  0  0  0
  139.4300   70.2690  222.9350 C   0  0  0  0  0  0  0  0  0  0  0  0
  139.5040   69.4020  223.9930 C   0  0  0  0  0  0  0  0  0  0  0  0
  140.0340   69.8640  225.1690 C   0  0  0  0  0  0  0  0  0  0  0  0
  140.1210   69.0240  226.2370 C   0  0  0  0  0  0  0  0  0  0  0  0
  140.6540   69.4770  227.4330 C   0  0  0  0  0  0  0  0  0  0  0  0
  140.7560   68.3810  228.7940 Cl  0  0  0  0  0  0  0  0  0  0  0  0
  141.0760   70.7760  227.4760 C   0  0  0  0  0  0  0  0  0  0  0  0
  140.9990   71.6480  226.4100 C   0  0  0  0  0  0  0  0  0  0  0  0
  140.4590   71.1820  225.2070 C   0  0  0  0  0  0  0  0  0  0  0  0
  140.3750   72.0130  224.1540 N   0  0  0  0  0  0  0  0  0  0  0  0
  139.6260   74.2250  223.0320 H   0  0  0  0  0  0  0  0  0  0  0  0
  139.6198   74.2792  219.9927 H   0  0  0  0  0  0  0  0  0  0  0  0
  138.5337   75.2948  220.9730 H   0  0  0  0  0  0  0  0  0  0  0  0
  140.7609   76.8277  218.0311 H   0  0  0  0  0  0  0  0  0  0  0  0
  140.1990   77.8707  219.2838 H   0  0  0  0  0  0  0  0  0  0  0  0
  142.6183   78.5487  219.8440 H   0  0  0  0  0  0  0  0  0  0  0  0
  143.3700   78.9110  217.5680 H   0  0  0  0  0  0  0  0  0  0  0  0
  143.5405   76.5443  217.7499 H   0  0  0  0  0  0  0  0  0  0  0  0
  144.3327   76.9354  219.2648 H   0  0  0  0  0  0  0  0  0  0  0  0
  142.4148   74.8231  218.7096 H   0  0  0  0  0  0  0  0  0  0  0  0
  144.2508   75.5126  220.7851 H   0  0  0  0  0  0  0  0  0  0  0  0
  142.6995   74.6687  221.3179 H   0  0  0  0  0  0  0  0  0  0  0  0
  142.0723   72.5825  219.6994 H   0  0  0  0  0  0  0  0  0  0  0  0
  143.1109   70.4290  219.0550 H   0  0  0  0  0  0  0  0  0  0  0  0
  146.9998   72.1001  219.7492 H   0  0  0  0  0  0  0  0  0  0  0  0
  145.9461   74.2282  220.3843 H   0  0  0  0  0  0  0  0  0  0  0  0
  139.0058   69.9004  221.9894 H   0  0  0  0  0  0  0  0  0  0  0  0
  139.1483   68.3652  223.9011 H   0  0  0  0  0  0  0  0  0  0  0  0
  139.7681   67.9857  226.1503 H   0  0  0  0  0  0  0  0  0  0  0  0
  141.5033   71.1491  228.4184 H   0  0  0  0  0  0  0  0  0  0  0  0
  141.3538   72.6850  226.5038 H   0  0  0  0  0  0  0  0  0  0  0  0
  1  2  2  0
  2  3  1  0
  3  4  1  0
  4  5  1  0
  5  6  2  0
  5  7  1  0
  7  8  1  0
  8  9  1  0
  9 10  1  0
  9 11  1  0
 11 12  1  0
 12 13  1  0
 13 14  1  0
 14 15  2  0
 15 16  1  0
 16 17  2  0
 17 18  1  0
 17 19  1  0
 19 20  2  0
  2 21  1  0
 21 22  2  0
 22 23  1  0
 23 24  2  0
 24 25  1  0
 25 26  2  0
 26 27  1  0
 26 28  1  0
 28 29  2  0
 29 30  1  0
 30 31  2  0
 12  7  1  0
 20 14  1  0
 31 21  1  0
 30 24  1  0
  3 32  1  0
  4 33  1  0
  4 34  1  0
  8 35  1  0
  8 36  1  0
  9 37  1  1
 10 38  1  0
 11 39  1  0
 11 40  1  0
 12 41  1  6
 13 42  1  0
 13 43  1  0
 15 44  1  0
 16 45  1  0
 19 46  1  0
 20 47  1  0
 22 48  1  0
 23 49  1  0
 25 50  1  0
 28 51  1  0
 29 52  1  0
M  END
>  <smiles>  (29) 
O=C(NCC(=O)N1C[C@H](O)C[C@H]1Cc1ccc(Cl)cc1)c1ccc2cc(Cl)ccc2n1

>  <score_type>  (29) 
oracle

>  <origin>  (29) 
autodockgpu

>  <m_score__min__energy>  (29) 
-8.9499999999999993

>  <m_primary>  (29) 
energy

>  <rmsd>  (29) 
2.060855030231474

>  <m_score__min__rmsd>  (29) 
2.060855030231474

>  <meeko>  (29) 
{"free_energy": -8.53, "intermolecular_energy": -10.62, "internal_energy": -2.11, "cluster_size": 13, "cluster_id": 2, "rank_in_cluster": 3}

>  <energy>  (29) 
-8.26

>  <cluster_rmsd>  (29) 
0.84

>  <cluster>  (29) 
4

$$$$

     RDKit          3D

 52 55  0  0  0  0  0  0  0  0999 V2000
  138.7330   71.7000  220.8520 O   0  0  0  0  0  0  0  0  0  0  0  0
  138.9880   72.2280  221.9450 C   0  0  0  0  0  0  0  0  0  0  0  0
  139.0250   73.6260  222.1630 N   0  0  0  0  0  0  0  0  0  0  0  0
  138.7600   74.5670  221.0930 C   0  0  0  0  0  0  0  0  0  0  0  0
  139.7260   74.2780  219.9980 C   0  0  0  0  0  0  0  0  0  0  0  0
  139.2440   73.8850  218.9090 O   0  0  0  0  0  0  0  0  0  0  0  0
  141.1060   74.4610  220.2500 N   0  0  0  0  0  0  0  0  0  0  0  0
  142.1720   73.4560  220.0670 C   0  0  0  0  0  0  0  0  0  0  0  0
  143.1550   74.2980  219.2860 C   0  0  2  0  0  0  0  0  0  0  0  0
  144.3980   73.6800  219.3690 O   0  0  0  0  0  0  0  0  0  0  0  0
  143.1920   75.5780  220.0860 C   0  0  0  0  0  0  0  0  0  0  0  0
  141.8330   75.6260  220.7330 C   0  0  1  0  0  0  0  0  0  0  0  0
  141.0920   76.9070  220.5090 C   0  0  0  0  0  0  0  0  0  0  0  0
  141.3530   77.9710  221.4790 C   0  0  0  0  0  0  0  0  0  0  0  0
  141.1730   77.8570  222.8450 C   0  0  0  0  0  0  0  0  0  0  0  0
  141.4340   78.9220  223.7070 C   0  0  0  0  0  0  0  0  0  0  0  0
  141.8830   80.1260  223.2140 C   0  0  0  0  0  0  0  0  0  0  0  0
  142.2340   81.5070  224.2200 Cl  0  0  0  0  0  0  0  0  0  0  0  0
  142.0690   80.2610  221.8530 C   0  0  0  0  0  0  0  0  0  0  0  0
  141.8030   79.1930  221.0220 C   0  0  0  0  0  0  0  0  0  0  0  0
  139.2730   71.3610  223.1020 C   0  0  0  0  0  0  0  0  0  0  0  0
  138.8760   70.0310  223.1010 C   0  0  0  0  0  0  0  0  0  0  0  0
  139.1080   69.1710  224.1410 C   0  0  0  0  0  0  0  0  0  0  0  0
  139.7690   69.6510  225.2410 C   0  0  0  0  0  0  0  0  0  0  0  0
  140.0140   68.8170  226.2890 C   0  0  0  0  0  0  0  0  0  0  0  0
  140.6810   69.2890  227.4080 C   0  0  0  0  0  0  0  0  0  0  0  0
  140.9850   68.2010  228.7440 Cl  0  0  0  0  0  0  0  0  0  0  0  0
  141.0680   70.5990  227.3980 C   0  0  0  0  0  0  0  0  0  0  0  0
  140.8330   71.4650  226.3490 C   0  0  0  0  0  0  0  0  0  0  0  0
  140.1580   70.9810  225.2250 C   0  0  0  0  0  0  0  0  0  0  0  0
  139.9190   71.8050  224.1910 N   0  0  0  0  0  0  0  0  0  0  0  0
  139.2470   74.0090  223.1190 H   0  0  0  0  0  0  0  0  0  0  0  0
  137.7297   74.4418  220.7285 H   0  0  0  0  0  0  0  0  0  0  0  0
  138.8733   75.6018  221.4484 H   0  0  0  0  0  0  0  0  0  0  0  0
  142.5895   73.1174  221.0267 H   0  0  0  0  0  0  0  0  0  0  0  0
  141.8616   72.5182  219.5831 H   0  0  0  0  0  0  0  0  0  0  0  0
  142.8982   74.4452  218.2266 H   0  0  0  0  0  0  0  0  0  0  0  0
  144.3420   72.7190  219.1470 H   0  0  0  0  0  0  0  0  0  0  0  0
  143.9879   75.5450  220.8446 H   0  0  0  0  0  0  0  0  0  0  0  0
  143.4049   76.4635  219.4690 H   0  0  0  0  0  0  0  0  0  0  0  0
  141.9435   75.5976  221.8271 H   0  0  0  0  0  0  0  0  0  0  0  0
  141.3641   77.2846  219.5123 H   0  0  0  0  0  0  0  0  0  0  0  0
  140.0259   76.6586  220.6173 H   0  0  0  0  0  0  0  0  0  0  0  0
  140.8155   76.9039  223.2619 H   0  0  0  0  0  0  0  0  0  0  0  0
  141.2798   78.7987  224.7891 H   0  0  0  0  0  0  0  0  0  0  0  0
  142.4267   81.2132  221.4343 H   0  0  0  0  0  0  0  0  0  0  0  0
  141.9573   79.3216  219.9405 H   0  0  0  0  0  0  0  0  0  0  0  0
  138.3463   69.6470  222.2167 H   0  0  0  0  0  0  0  0  0  0  0  0
  138.7731   68.1242  224.0947 H   0  0  0  0  0  0  0  0  0  0  0  0
  139.6826   67.7690  226.2473 H   0  0  0  0  0  0  0  0  0  0  0  0
  141.5992   70.9874  228.2794 H   0  0  0  0  0  0  0  0  0  0  0  0
  141.1691   72.5113  226.3966 H   0  0  0  0  0  0  0  0  0  0  0  0
  1  2  2  0
  2  3  1  0
  3  4  1  0
  4  5  1  0
  5  6  2  0
  5  7  1  0
  7  8  1  0
  8  9  1  0
  9 10  1  0
  9 11  1  0
 11 12  1  0
 12 13  1  0
 13 14  1  0
 14 15  2  0
 15 16  1  0
 16 17  2  0
 17 18  1  0
 17 19  1  0
 19 20  2  0
  2 21  1  0
 21 22  2  0
 22 23  1  0
 23 24  2  0
 24 25  1  0
 25 26  2  0
 26 27  1  0
 26 28  1  0
 28 29  2  0
 29 30  1  0
 30 31  2  0
 12  7  1  0
 20 14  1  0
 31 21  1  0
 30 24  1  0
  3 32  1  0
  4 33  1  0
  4 34  1  0
  8 35  1  0
  8 36  1  0
  9 37  1  6
 10 38  1  0
 11 39  1  0
 11 40  1  0
 12 41  1  1
 13 42  1  0
 13 43  1  0
 15 44  1  0
 16 45  1  0
 19 46  1  0
 20 47  1  0
 22 48  1  0
 23 49  1  0
 25 50  1  0
 28 51  1  0
 29 52  1  0
M  END
>  <smiles>  (30) 
O=C(NCC(=O)N1C[C@H](O)C[C@H]1Cc1ccc(Cl)cc1)c1ccc2cc(Cl)ccc2n1

>  <score_type>  (30) 
oracle

>  <origin>  (30) 
autodockgpu

>  <m_score__min__energy>  (30) 
-8.9499999999999993

>  <m_primary>  (30) 
energy

>  <rmsd>  (30) 
2.1146321208456693

>  <m_score__min__rmsd>  (30) 
2.1146321208456693

>  <meeko>  (30) 
{"free_energy": -8.43, "intermolecular_energy": -10.52, "internal_energy": -1.65, "cluster_size": 8, "cluster_id": 1, "rank_in_cluster": 3}

>  <energy>  (30) 
-8.25

>  <cluster_rmsd>  (30) 
0.79

>  <cluster>  (30) 
4

$$$$

     RDKit          3D

 52 55  0  0  0  0  0  0  0  0999 V2000
  137.8350   70.7470  221.3480 O   0  0  0  0  0  0  0  0  0  0  0  0
  138.3390   71.3820  222.2860 C   0  0  0  0  0  0  0  0  0  0  0  0
  138.4680   72.7920  222.3130 N   0  0  0  0  0  0  0  0  0  0  0  0
  138.0060   73.6170  221.2140 C   0  0  0  0  0  0  0  0  0  0  0  0
  138.7440   74.9070  221.2870 C   0  0  0  0  0  0  0  0  0  0  0  0
  139.6700   74.9800  222.1300 O   0  0  0  0  0  0  0  0  0  0  0  0
  138.3620   75.9540  220.4160 N   0  0  0  0  0  0  0  0  0  0  0  0
  137.8670   75.8080  219.0330 C   0  0  0  0  0  0  0  0  0  0  0  0
  136.6460   76.6940  219.1260 C   0  0  2  0  0  0  0  0  0  0  0  0
  136.2680   77.0290  217.8310 O   0  0  0  0  0  0  0  0  0  0  0  0
  137.1920   77.9260  219.8090 C   0  0  0  0  0  0  0  0  0  0  0  0
  138.3440   77.3950  220.6210 C   0  0  1  0  0  0  0  0  0  0  0  0
  138.3020   77.7760  222.0670 C   0  0  0  0  0  0  0  0  0  0  0  0
  139.4820   78.4780  222.5750 C   0  0  0  0  0  0  0  0  0  0  0  0
  140.7410   77.9210  222.7010 C   0  0  0  0  0  0  0  0  0  0  0  0
  141.8150   78.6520  223.2040 C   0  0  0  0  0  0  0  0  0  0  0  0
  141.6480   79.9620  223.5920 C   0  0  0  0  0  0  0  0  0  0  0  0
  142.9380   80.9490  224.2300 Cl  0  0  0  0  0  0  0  0  0  0  0  0
  140.4010   80.5390  223.4740 C   0  0  0  0  0  0  0  0  0  0  0  0
  139.3530   79.7940  222.9730 C   0  0  0  0  0  0  0  0  0  0  0  0
  138.8420   70.6410  223.4560 C   0  0  0  0  0  0  0  0  0  0  0  0
  138.6540   69.2690  223.5550 C   0  0  0  0  0  0  0  0  0  0  0  0
  139.0950   68.5190  224.6120 C   0  0  0  0  0  0  0  0  0  0  0  0
  139.7570   69.1590  225.6260 C   0  0  0  0  0  0  0  0  0  0  0  0
  140.2070   68.4370  226.6900 C   0  0  0  0  0  0  0  0  0  0  0  0
  140.8780   69.0700  227.7230 C   0  0  0  0  0  0  0  0  0  0  0  0
  141.4470   68.1240  229.0800 Cl  0  0  0  0  0  0  0  0  0  0  0  0
  141.0580   70.4210  227.6150 C   0  0  0  0  0  0  0  0  0  0  0  0
  140.6130   71.1750  226.5490 C   0  0  0  0  0  0  0  0  0  0  0  0
  139.9360   70.5280  225.5120 C   0  0  0  0  0  0  0  0  0  0  0  0
  139.4940   71.2420  224.4630 N   0  0  0  0  0  0  0  0  0  0  0  0
  138.9060   73.2700  223.1440 H   0  0  0  0  0  0  0  0  0  0  0  0
  138.2140   73.1183  220.2559 H   0  0  0  0  0  0  0  0  0  0  0  0
  136.9211   73.7851  221.2831 H   0  0  0  0  0  0  0  0  0  0  0  0
  138.5917   76.1801  218.2938 H   0  0  0  0  0  0  0  0  0  0  0  0
  137.6791   74.7754  218.7036 H   0  0  0  0  0  0  0  0  0  0  0  0
  135.7866   76.2436  219.6442 H   0  0  0  0  0  0  0  0  0  0  0  0
  135.4940   77.6440  217.8260 H   0  0  0  0  0  0  0  0  0  0  0  0
  137.5384   78.6642  219.0707 H   0  0  0  0  0  0  0  0  0  0  0  0
  136.4400   78.4462  220.4205 H   0  0  0  0  0  0  0  0  0  0  0  0
  139.2820   77.8549  220.2765 H   0  0  0  0  0  0  0  0  0  0  0  0
  137.4296   78.4285  222.2190 H   0  0  0  0  0  0  0  0  0  0  0  0
  138.2546   76.8289  222.6244 H   0  0  0  0  0  0  0  0  0  0  0  0
  140.8985   76.8757  222.3969 H   0  0  0  0  0  0  0  0  0  0  0  0
  142.8041   78.1786  223.2917 H   0  0  0  0  0  0  0  0  0  0  0  0
  140.2430   81.5846  223.7768 H   0  0  0  0  0  0  0  0  0  0  0  0
  138.3661   80.2721  222.8864 H   0  0  0  0  0  0  0  0  0  0  0  0
  138.1218   68.7568  222.7399 H   0  0  0  0  0  0  0  0  0  0  0  0
  138.9226   67.4331  224.6460 H   0  0  0  0  0  0  0  0  0  0  0  0
  140.0373   67.3508  226.7287 H   0  0  0  0  0  0  0  0  0  0  0  0
  141.5898   70.9380  228.4273 H   0  0  0  0  0  0  0  0  0  0  0  0
  140.7871   72.2606  226.5161 H   0  0  0  0  0  0  0  0  0  0  0  0
  1  2  2  0
  2  3  1  0
  3  4  1  0
  4  5  1  0
  5  6  2  0
  5  7  1  0
  7  8  1  0
  8  9  1  0
  9 10  1  0
  9 11  1  0
 11 12  1  0
 12 13  1  0
 13 14  1  0
 14 15  2  0
 15 16  1  0
 16 17  2  0
 17 18  1  0
 17 19  1  0
 19 20  2  0
  2 21  1  0
 21 22  2  0
 22 23  1  0
 23 24  2  0
 24 25  1  0
 25 26  2  0
 26 27  1  0
 26 28  1  0
 28 29  2  0
 29 30  1  0
 30 31  2  0
 12  7  1  0
 20 14  1  0
 31 21  1  0
 30 24  1  0
  3 32  1  0
  4 33  1  0
  4 34  1  0
  8 35  1  0
  8 36  1  0
  9 37  1  1
 10 38  1  0
 11 39  1  0
 11 40  1  0
 12 41  1  6
 13 42  1  0
 13 43  1  0
 15 44  1  0
 16 45  1  0
 19 46  1  0
 20 47  1  0
 22 48  1  0
 23 49  1  0
 25 50  1  0
 28 51  1  0
 29 52  1  0
M  END
>  <smiles>  (31) 
O=C(NCC(=O)N1C[C@H](O)C[C@H]1Cc1ccc(Cl)cc1)c1ccc2cc(Cl)ccc2n1

>  <score_type>  (31) 
oracle

>  <origin>  (31) 
autodockgpu

>  <m_score__min__energy>  (31) 
-8.9499999999999993

>  <m_primary>  (31) 
energy

>  <rmsd>  (31) 
1.9677536294687312

>  <m_score__min__rmsd>  (31) 
1.9677536294687312

>  <meeko>  (31) 
{"free_energy": -8.01, "intermolecular_energy": -10.1, "internal_energy": -2.12, "cluster_size": 20, "cluster_id": 4, "rank_in_cluster": 15}

>  <energy>  (31) 
-8.2

>  <cluster_rmsd>  (31) 
0.44

>  <cluster>  (31) 
4

$$$$

     RDKit          3D

 52 55  0  0  0  0  0  0  0  0999 V2000
  137.9530   70.9920  221.3650 O   0  0  0  0  0  0  0  0  0  0  0  0
  138.5310   71.5850  222.2890 C   0  0  0  0  0  0  0  0  0  0  0  0
  138.7880   72.9770  222.3010 N   0  0  0  0  0  0  0  0  0  0  0  0
  138.3810   73.8330  221.2040 C   0  0  0  0  0  0  0  0  0  0  0  0
  139.1410   75.1070  221.3300 C   0  0  0  0  0  0  0  0  0  0  0  0
  140.1670   75.0830  222.0510 O   0  0  0  0  0  0  0  0  0  0  0  0
  138.6680   76.2470  220.6390 N   0  0  0  0  0  0  0  0  0  0  0  0
  137.2740   76.7330  220.6010 C   0  0  0  0  0  0  0  0  0  0  0  0
  137.5240   78.1870  220.9280 C   0  0  2  0  0  0  0  0  0  0  0  0
  136.4010   78.9070  220.5370 O   0  0  0  0  0  0  0  0  0  0  0  0
  138.6710   78.5330  220.0080 C   0  0  0  0  0  0  0  0  0  0  0  0
  139.3760   77.2160  219.8170 C   0  0  1  0  0  0  0  0  0  0  0  0
  140.8440   77.2590  220.1040 C   0  0  0  0  0  0  0  0  0  0  0  0
  141.2790   78.3000  221.0370 C   0  0  0  0  0  0  0  0  0  0  0  0
  141.8080   79.5230  220.6670 C   0  0  0  0  0  0  0  0  0  0  0  0
  142.2110   80.4610  221.6170 C   0  0  0  0  0  0  0  0  0  0  0  0
  142.0900   80.1900  222.9610 C   0  0  0  0  0  0  0  0  0  0  0  0
  142.5680   81.3060  224.2140 Cl  0  0  0  0  0  0  0  0  0  0  0  0
  141.5650   78.9760  223.3530 C   0  0  0  0  0  0  0  0  0  0  0  0
  141.1740   78.0650  222.3930 C   0  0  0  0  0  0  0  0  0  0  0  0
  138.9880   70.8090  223.4550 C   0  0  0  0  0  0  0  0  0  0  0  0
  138.7620   69.4410  223.5220 C   0  0  0  0  0  0  0  0  0  0  0  0
  139.1590   68.6590  224.5740 C   0  0  0  0  0  0  0  0  0  0  0  0
  139.8140   69.2620  225.6150 C   0  0  0  0  0  0  0  0  0  0  0  0
  140.2200   68.5090  226.6750 C   0  0  0  0  0  0  0  0  0  0  0  0
  140.8830   69.1050  227.7350 C   0  0  0  0  0  0  0  0  0  0  0  0
  141.3960   68.1190  229.0860 Cl  0  0  0  0  0  0  0  0  0  0  0  0
  141.1000   70.4520  227.6580 C   0  0  0  0  0  0  0  0  0  0  0  0
  140.6990   71.2380  226.5970 C   0  0  0  0  0  0  0  0  0  0  0  0
  140.0300   70.6280  225.5320 C   0  0  0  0  0  0  0  0  0  0  0  0
  139.6310   71.3740  224.4880 N   0  0  0  0  0  0  0  0  0  0  0  0
  139.2840   73.4190  223.1190 H   0  0  0  0  0  0  0  0  0  0  0  0
  138.6132   73.3498  220.2435 H   0  0  0  0  0  0  0  0  0  0  0  0
  137.2977   74.0211  221.2384 H   0  0  0  0  0  0  0  0  0  0  0  0
  136.8193   76.6056  219.6075 H   0  0  0  0  0  0  0  0  0  0  0  0
  136.5718   76.2112  221.2679 H   0  0  0  0  0  0  0  0  0  0  0  0
  137.7291   78.3933  221.9888 H   0  0  0  0  0  0  0  0  0  0  0  0
  135.5810   78.5630  220.9680 H   0  0  0  0  0  0  0  0  0  0  0  0
  138.3016   78.9243  219.0486 H   0  0  0  0  0  0  0  0  0  0  0  0
  139.3273   79.3158  220.4161 H   0  0  0  0  0  0  0  0  0  0  0  0
  139.3446   76.9311  218.7550 H   0  0  0  0  0  0  0  0  0  0  0  0
  141.1346   76.2852  220.5250 H   0  0  0  0  0  0  0  0  0  0  0  0
  141.3298   77.4939  219.1455 H   0  0  0  0  0  0  0  0  0  0  0  0
  141.9134   79.7615  219.5984 H   0  0  0  0  0  0  0  0  0  0  0  0
  142.6287   81.4246  221.2898 H   0  0  0  0  0  0  0  0  0  0  0  0
  141.4590   78.7363  224.4213 H   0  0  0  0  0  0  0  0  0  0  0  0
  140.7575   77.1027  222.7254 H   0  0  0  0  0  0  0  0  0  0  0  0
  138.2356   68.9590  222.6850 H   0  0  0  0  0  0  0  0  0  0  0  0
  138.9576   67.5776  224.5827 H   0  0  0  0  0  0  0  0  0  0  0  0
  140.0213   67.4272  226.6892 H   0  0  0  0  0  0  0  0  0  0  0  0
  141.6261   70.9392  228.4922 H   0  0  0  0  0  0  0  0  0  0  0  0
  140.9011   72.3192  226.5895 H   0  0  0  0  0  0  0  0  0  0  0  0
  1  2  2  0
  2  3  1  0
  3  4  1  0
  4  5  1  0
  5  6  2  0
  5  7  1  0
  7  8  1  0
  8  9  1  0
  9 10  1  0
  9 11  1  0
 11 12  1  0
 12 13  1  0
 13 14  1  0
 14 15  2  0
 15 16  1  0
 16 17  2  0
 17 18  1  0
 17 19  1  0
 19 20  2  0
  2 21  1  0
 21 22  2  0
 22 23  1  0
 23 24  2  0
 24 25  1  0
 25 26  2  0
 26 27  1  0
 26 28  1  0
 28 29  2  0
 29 30  1  0
 30 31  2  0
 12  7  1  0
 20 14  1  0
 31 21  1  0
 30 24  1  0
  3 32  1  0
  4 33  1  0
  4 34  1  0
  8 35  1  0
  8 36  1  0
  9 37  1  1
 10 38  1  0
 11 39  1  0
 11 40  1  0
 12 41  1  6
 13 42  1  0
 13 43  1  0
 15 44  1  0
 16 45  1  0
 19 46  1  0
 20 47  1  0
 22 48  1  0
 23 49  1  0
 25 50  1  0
 28 51  1  0
 29 52  1  0
M  END
>  <smiles>  (32) 
O=C(NCC(=O)N1C[C@H](O)C[C@H]1Cc1ccc(Cl)cc1)c1ccc2cc(Cl)ccc2n1

>  <score_type>  (32) 
oracle

>  <origin>  (32) 
autodockgpu

>  <m_score__min__energy>  (32) 
-8.9499999999999993

>  <m_primary>  (32) 
energy

>  <rmsd>  (32) 
2.0381527078261126

>  <m_score__min__rmsd>  (32) 
2.0381527078261126

>  <meeko>  (32) 
{"free_energy": -8.26, "intermolecular_energy": -10.35, "internal_energy": -2.27, "cluster_size": 20, "cluster_id": 4, "rank_in_cluster": 6}

>  <energy>  (32) 
-8.09

>  <cluster_rmsd>  (32) 
1.08

>  <cluster>  (32) 
4

$$$$

     RDKit          3D

 52 55  0  0  0  0  0  0  0  0999 V2000
  137.9170   70.7290  221.7020 O   0  0  0  0  0  0  0  0  0  0  0  0
  138.6070   71.2860  222.5700 C   0  0  0  0  0  0  0  0  0  0  0  0
  139.0050   72.6430  222.5190 N   0  0  0  0  0  0  0  0  0  0  0  0
  138.6220   73.5050  221.4180 C   0  0  0  0  0  0  0  0  0  0  0  0
  139.1750   74.8580  221.7000 C   0  0  0  0  0  0  0  0  0  0  0  0
  140.2620   74.9040  222.3250 O   0  0  0  0  0  0  0  0  0  0  0  0
  138.4520   75.9900  221.2550 N   0  0  0  0  0  0  0  0  0  0  0  0
  137.0560   76.3280  221.5950 C   0  0  0  0  0  0  0  0  0  0  0  0
  137.2560   77.7730  221.9920 C   0  0  2  0  0  0  0  0  0  0  0  0
  136.0150   78.3980  221.9490 O   0  0  0  0  0  0  0  0  0  0  0  0
  138.1080   78.3030  220.8640 C   0  0  0  0  0  0  0  0  0  0  0  0
  138.8530   77.0850  220.3850 C   0  0  1  0  0  0  0  0  0  0  0  0
  140.3380   77.2600  220.3180 C   0  0  0  0  0  0  0  0  0  0  0  0
  140.9200   78.1420  221.3310 C   0  0  0  0  0  0  0  0  0  0  0  0
  141.0090   77.8470  222.6790 C   0  0  0  0  0  0  0  0  0  0  0  0
  141.5690   78.7450  223.5870 C   0  0  0  0  0  0  0  0  0  0  0  0
  142.0530   79.9610  223.1590 C   0  0  0  0  0  0  0  0  0  0  0  0
  142.7690   81.1410  224.2260 Cl  0  0  0  0  0  0  0  0  0  0  0  0
  141.9740   80.2760  221.8180 C   0  0  0  0  0  0  0  0  0  0  0  0
  141.4150   79.3700  220.9410 C   0  0  0  0  0  0  0  0  0  0  0  0
  139.0520   70.5000  223.7340 C   0  0  0  0  0  0  0  0  0  0  0  0
  138.8520   69.1270  223.7750 C   0  0  0  0  0  0  0  0  0  0  0  0
  139.2390   68.3360  224.8240 C   0  0  0  0  0  0  0  0  0  0  0  0
  139.8580   68.9350  225.8890 C   0  0  0  0  0  0  0  0  0  0  0  0
  140.2550   68.1730  226.9460 C   0  0  0  0  0  0  0  0  0  0  0  0
  140.8820   68.7640  228.0300 C   0  0  0  0  0  0  0  0  0  0  0  0
  141.3830   67.7670  229.3780 Cl  0  0  0  0  0  0  0  0  0  0  0  0
  141.0750   70.1160  227.9790 C   0  0  0  0  0  0  0  0  0  0  0  0
  140.6830   70.9120  226.9210 C   0  0  0  0  0  0  0  0  0  0  0  0
  140.0510   70.3060  225.8320 C   0  0  0  0  0  0  0  0  0  0  0  0
  139.6610   71.0600  224.7900 N   0  0  0  0  0  0  0  0  0  0  0  0
  139.5920   73.0540  223.2920 H   0  0  0  0  0  0  0  0  0  0  0  0
  139.0367   73.1181  220.4755 H   0  0  0  0  0  0  0  0  0  0  0  0
  137.5272   73.5454  221.3185 H   0  0  0  0  0  0  0  0  0  0  0  0
  136.3841   76.2266  220.7300 H   0  0  0  0  0  0  0  0  0  0  0  0
  136.5848   75.6880  222.3555 H   0  0  0  0  0  0  0  0  0  0  0  0
  137.6971   77.9216  222.9887 H   0  0  0  0  0  0  0  0  0  0  0  0
  135.2840   77.7450  221.8210 H   0  0  0  0  0  0  0  0  0  0  0  0
  137.4825   78.7221  220.0621 H   0  0  0  0  0  0  0  0  0  0  0  0
  138.7763   79.1184  221.1780 H   0  0  0  0  0  0  0  0  0  0  0  0
  138.5865   76.8771  219.3382 H   0  0  0  0  0  0  0  0  0  0  0  0
  140.8004   76.2680  220.4278 H   0  0  0  0  0  0  0  0  0  0  0  0
  140.5396   77.7417  219.3498 H   0  0  0  0  0  0  0  0  0  0  0  0
  140.6291   76.8812  223.0436 H   0  0  0  0  0  0  0  0  0  0  0  0
  141.6245   78.4800  224.6532 H   0  0  0  0  0  0  0  0  0  0  0  0
  142.3535   81.2412  221.4515 H   0  0  0  0  0  0  0  0  0  0  0  0
  141.3609   79.6400  219.8760 H   0  0  0  0  0  0  0  0  0  0  0  0
  138.3556   68.6481  222.9181 H   0  0  0  0  0  0  0  0  0  0  0  0
  139.0579   67.2511  224.8116 H   0  0  0  0  0  0  0  0  0  0  0  0
  140.0774   67.0875  226.9384 H   0  0  0  0  0  0  0  0  0  0  0  0
  141.5728   70.5994  228.8325 H   0  0  0  0  0  0  0  0  0  0  0  0
  140.8639   71.9969  226.9351 H   0  0  0  0  0  0  0  0  0  0  0  0
  1  2  2  0
  2  3  1  0
  3  4  1  0
  4  5  1  0
  5  6  2  0
  5  7  1  0
  7  8  1  0
  8  9  1  0
  9 10  1  0
  9 11  1  0
 11 12  1  0
 12 13  1  0
 13 14  1  0
 14 15  2  0
 15 16  1  0
 16 17  2  0
 17 18  1  0
 17 19  1  0
 19 20  2  0
  2 21  1  0
 21 22  2  0
 22 23  1  0
 23 24  2  0
 24 25  1  0
 25 26  2  0
 26 27  1  0
 26 28  1  0
 28 29  2  0
 29 30  1  0
 30 31  2  0
 12  7  1  0
 20 14  1  0
 31 21  1  0
 30 24  1  0
  3 32  1  0
  4 33  1  0
  4 34  1  0
  8 35  1  0
  8 36  1  0
  9 37  1  1
 10 38  1  0
 11 39  1  0
 11 40  1  0
 12 41  1  6
 13 42  1  0
 13 43  1  0
 15 44  1  0
 16 45  1  0
 19 46  1  0
 20 47  1  0
 22 48  1  0
 23 49  1  0
 25 50  1  0
 28 51  1  0
 29 52  1  0
M  END
>  <smiles>  (33) 
O=C(NCC(=O)N1C[C@H](O)C[C@H]1Cc1ccc(Cl)cc1)c1ccc2cc(Cl)ccc2n1

>  <score_type>  (33) 
oracle

>  <origin>  (33) 
autodockgpu

>  <m_score__min__energy>  (33) 
-8.9499999999999993

>  <m_primary>  (33) 
energy

>  <rmsd>  (33) 
2.426583841400841

>  <m_score__min__rmsd>  (33) 
2.426583841400841

>  <meeko>  (33) 
{"free_energy": -8.2, "intermolecular_energy": -10.29, "internal_energy": -2.27, "cluster_size": 20, "cluster_id": 4, "rank_in_cluster": 8}

>  <energy>  (33) 
-8.07

>  <cluster_rmsd>  (33) 
1.77

>  <cluster>  (33) 
4

$$$$

     RDKit          3D

 52 55  0  0  0  0  0  0  0  0999 V2000
  137.9710   70.8970  221.3340 O   0  0  0  0  0  0  0  0  0  0  0  0
  138.4600   71.5160  222.2920 C   0  0  0  0  0  0  0  0  0  0  0  0
  138.5950   72.9240  222.3430 N   0  0  0  0  0  0  0  0  0  0  0  0
  138.1590   73.7680  221.2480 C   0  0  0  0  0  0  0  0  0  0  0  0
  139.0170   74.9840  221.2560 C   0  0  0  0  0  0  0  0  0  0  0  0
  139.8010   75.1140  222.2270 O   0  0  0  0  0  0  0  0  0  0  0  0
  138.8970   75.9020  220.1870 N   0  0  0  0  0  0  0  0  0  0  0  0
  137.6390   76.4010  219.5960 C   0  0  0  0  0  0  0  0  0  0  0  0
  137.9490   77.8810  219.6030 C   0  0  2  0  0  0  0  0  0  0  0  0
  137.0770   78.4980  218.7130 O   0  0  0  0  0  0  0  0  0  0  0  0
  139.3440   77.9220  219.0280 C   0  0  0  0  0  0  0  0  0  0  0  0
  139.9200   76.5830  219.4070 C   0  0  1  0  0  0  0  0  0  0  0  0
  141.2360   76.6590  220.1140 C   0  0  0  0  0  0  0  0  0  0  0  0
  141.4380   77.8380  220.9560 C   0  0  0  0  0  0  0  0  0  0  0  0
  141.8350   79.0800  220.4960 C   0  0  0  0  0  0  0  0  0  0  0  0
  142.0170   80.1550  221.3650 C   0  0  0  0  0  0  0  0  0  0  0  0
  141.8040   80.0060  222.7160 C   0  0  0  0  0  0  0  0  0  0  0  0
  142.0070   81.2980  223.8710 Cl  0  0  0  0  0  0  0  0  0  0  0  0
  141.4080   78.7760  223.1970 C   0  0  0  0  0  0  0  0  0  0  0  0
  141.2350   77.7270  222.3180 C   0  0  0  0  0  0  0  0  0  0  0  0
  138.9370   70.7530  223.4590 C   0  0  0  0  0  0  0  0  0  0  0  0
  138.7350   69.3820  223.5360 C   0  0  0  0  0  0  0  0  0  0  0  0
  139.1510   68.6130  224.5890 C   0  0  0  0  0  0  0  0  0  0  0  0
  139.8020   69.2330  225.6230 C   0  0  0  0  0  0  0  0  0  0  0  0
  140.2280   68.4920  226.6840 C   0  0  0  0  0  0  0  0  0  0  0  0
  140.8870   69.1050  227.7370 C   0  0  0  0  0  0  0  0  0  0  0  0
  141.4250   68.1350  229.0900 Cl  0  0  0  0  0  0  0  0  0  0  0  0
  141.0810   70.4550  227.6510 C   0  0  0  0  0  0  0  0  0  0  0  0
  140.6600   71.2290  226.5880 C   0  0  0  0  0  0  0  0  0  0  0  0
  139.9950   70.6020  225.5310 C   0  0  0  0  0  0  0  0  0  0  0  0
  139.5770   71.3350  224.4850 N   0  0  0  0  0  0  0  0  0  0  0  0
  139.0190   73.3860  223.1900 H   0  0  0  0  0  0  0  0  0  0  0  0
  138.2724   73.2338  220.2931 H   0  0  0  0  0  0  0  0  0  0  0  0
  137.0992   74.0390  221.3640 H   0  0  0  0  0  0  0  0  0  0  0  0
  137.4804   76.0171  218.5774 H   0  0  0  0  0  0  0  0  0  0  0  0
  136.7186   76.1067  220.1215 H   0  0  0  0  0  0  0  0  0  0  0  0
  137.8608   78.3675  220.5856 H   0  0  0  0  0  0  0  0  0  0  0  0
  137.3720   79.4150  218.4940 H   0  0  0  0  0  0  0  0  0  0  0  0
  139.3154   78.0426  217.9350 H   0  0  0  0  0  0  0  0  0  0  0  0
  139.9386   78.7667  219.4061 H   0  0  0  0  0  0  0  0  0  0  0  0
  140.1669   76.0158  218.4974 H   0  0  0  0  0  0  0  0  0  0  0  0
  141.3282   75.7681  220.7526 H   0  0  0  0  0  0  0  0  0  0  0  0
  141.9975   76.7223  219.3228 H   0  0  0  0  0  0  0  0  0  0  0  0
  142.0113   79.2233  219.4197 H   0  0  0  0  0  0  0  0  0  0  0  0
  142.3335   81.1304  220.9671 H   0  0  0  0  0  0  0  0  0  0  0  0
  141.2314   78.6323  224.2732 H   0  0  0  0  0  0  0  0  0  0  0  0
  140.9197   76.7536  222.7217 H   0  0  0  0  0  0  0  0  0  0  0  0
  138.2118   68.8862  222.7050 H   0  0  0  0  0  0  0  0  0  0  0  0
  138.9680   67.5284  224.6047 H   0  0  0  0  0  0  0  0  0  0  0  0
  140.0486   67.4069  226.7044 H   0  0  0  0  0  0  0  0  0  0  0  0
  141.6044   70.9554  228.4790 H   0  0  0  0  0  0  0  0  0  0  0  0
  140.8437   72.3134  226.5735 H   0  0  0  0  0  0  0  0  0  0  0  0
  1  2  2  0
  2  3  1  0
  3  4  1  0
  4  5  1  0
  5  6  2  0
  5  7  1  0
  7  8  1  0
  8  9  1  0
  9 10  1  0
  9 11  1  0
 11 12  1  0
 12 13  1  0
 13 14  1  0
 14 15  2  0
 15 16  1  0
 16 17  2  0
 17 18  1  0
 17 19  1  0
 19 20  2  0
  2 21  1  0
 21 22  2  0
 22 23  1  0
 23 24  2  0
 24 25  1  0
 25 26  2  0
 26 27  1  0
 26 28  1  0
 28 29  2  0
 29 30  1  0
 30 31  2  0
 12  7  1  0
 20 14  1  0
 31 21  1  0
 30 24  1  0
  3 32  1  0
  4 33  1  0
  4 34  1  0
  8 35  1  0
  8 36  1  0
  9 37  1  1
 10 38  1  0
 11 39  1  0
 11 40  1  0
 12 41  1  6
 13 42  1  0
 13 43  1  0
 15 44  1  0
 16 45  1  0
 19 46  1  0
 20 47  1  0
 22 48  1  0
 23 49  1  0
 25 50  1  0
 28 51  1  0
 29 52  1  0
M  END
>  <smiles>  (34) 
O=C(NCC(=O)N1C[C@H](O)C[C@H]1Cc1ccc(Cl)cc1)c1ccc2cc(Cl)ccc2n1

>  <score_type>  (34) 
oracle

>  <origin>  (34) 
autodockgpu

>  <m_score__min__energy>  (34) 
-8.9499999999999993

>  <m_primary>  (34) 
energy

>  <rmsd>  (34) 
1.524255036316119

>  <m_score__min__rmsd>  (34) 
1.524255036316119

>  <meeko>  (34) 
{"free_energy": -8.01, "intermolecular_energy": -10.09, "internal_energy": -2.21, "cluster_size": 20, "cluster_id": 4, "rank_in_cluster": 16}

>  <energy>  (34) 
-8.06

>  <cluster_rmsd>  (34) 
1.62

>  <cluster>  (34) 
4

$$$$

     RDKit          3D

 52 55  0  0  0  0  0  0  0  0999 V2000
  133.1910   69.9640  226.8040 O   0  0  0  0  0  0  0  0  0  0  0  0
  133.6420   70.9940  226.2810 C   0  0  0  0  0  0  0  0  0  0  0  0
  134.6490   71.0050  225.2860 N   0  0  0  0  0  0  0  0  0  0  0  0
  135.2410   69.7770  224.7930 C   0  0  0  0  0  0  0  0  0  0  0  0
  136.2490   70.1520  223.7630 C   0  0  0  0  0  0  0  0  0  0  0  0
  136.4420   71.3780  223.5850 O   0  0  0  0  0  0  0  0  0  0  0  0
  136.9140   69.1190  223.0620 N   0  0  0  0  0  0  0  0  0  0  0  0
  136.3240   68.2330  222.0390 C   0  0  0  0  0  0  0  0  0  0  0  0
  137.3850   68.3700  220.9710 C   0  0  2  0  0  0  0  0  0  0  0  0
  137.2410   67.3010  220.0940 O   0  0  0  0  0  0  0  0  0  0  0  0
  138.6610   68.1870  221.7580 C   0  0  0  0  0  0  0  0  0  0  0  0
  138.2930   68.6600  223.1390 C   0  0  1  0  0  0  0  0  0  0  0  0
  139.2180   69.6930  223.7010 C   0  0  0  0  0  0  0  0  0  0  0  0
  139.7730   69.3980  225.0220 C   0  0  0  0  0  0  0  0  0  0  0  0
  140.4440   70.3070  225.8200 C   0  0  0  0  0  0  0  0  0  0  0  0
  140.9540   69.9470  227.0660 C   0  0  0  0  0  0  0  0  0  0  0  0
  140.8020   68.6640  227.5390 C   0  0  0  0  0  0  0  0  0  0  0  0
  141.4080   68.1300  229.0860 Cl  0  0  0  0  0  0  0  0  0  0  0  0
  140.1360   67.7400  226.7610 C   0  0  0  0  0  0  0  0  0  0  0  0
  139.6400   68.1210  225.5310 C   0  0  0  0  0  0  0  0  0  0  0  0
  133.1100   72.2990  226.7100 C   0  0  0  0  0  0  0  0  0  0  0  0
  131.9120   72.3770  227.4060 C   0  0  0  0  0  0  0  0  0  0  0  0
  131.3600   73.5550  227.8350 C   0  0  0  0  0  0  0  0  0  0  0  0
  132.0290   74.7180  227.5600 C   0  0  0  0  0  0  0  0  0  0  0  0
  131.5030   75.9040  227.9750 C   0  0  0  0  0  0  0  0  0  0  0  0
  132.1680   77.0890  227.7050 C   0  0  0  0  0  0  0  0  0  0  0  0
  131.4750   78.6020  228.2460 Cl  0  0  0  0  0  0  0  0  0  0  0  0
  133.3470   77.0010  227.0190 C   0  0  0  0  0  0  0  0  0  0  0  0
  133.9010   75.8130  226.5880 C   0  0  0  0  0  0  0  0  0  0  0  0
  133.2230   74.6230  226.8640 C   0  0  0  0  0  0  0  0  0  0  0  0
  133.7440   73.4540  226.4550 N   0  0  0  0  0  0  0  0  0  0  0  0
  134.9870   71.9170  224.8820 H   0  0  0  0  0  0  0  0  0  0  0  0
  135.7290   69.2370  225.6178 H   0  0  0  0  0  0  0  0  0  0  0  0
  134.4712   69.1197  224.3625 H   0  0  0  0  0  0  0  0  0  0  0  0
  136.2285   67.1968  222.3956 H   0  0  0  0  0  0  0  0  0  0  0  0
  135.3005   68.4864  221.7257 H   0  0  0  0  0  0  0  0  0  0  0  0
  137.3473   69.3092  220.3996 H   0  0  0  0  0  0  0  0  0  0  0  0
  136.3960   66.8130  220.2510 H   0  0  0  0  0  0  0  0  0  0  0  0
  138.9658   67.1302  221.7726 H   0  0  0  0  0  0  0  0  0  0  0  0
  139.5115   68.7372  221.3291 H   0  0  0  0  0  0  0  0  0  0  0  0
  138.3948   67.8295  223.8531 H   0  0  0  0  0  0  0  0  0  0  0  0
  140.0579   69.8111  223.0005 H   0  0  0  0  0  0  0  0  0  0  0  0
  138.6107   70.6013  223.8276 H   0  0  0  0  0  0  0  0  0  0  0  0
  140.5783   71.3386  225.4626 H   0  0  0  0  0  0  0  0  0  0  0  0
  141.4822   70.6945  227.6761 H   0  0  0  0  0  0  0  0  0  0  0  0
  140.0014   66.7083  227.1180 H   0  0  0  0  0  0  0  0  0  0  0  0
  139.1120   67.3697  224.9253 H   0  0  0  0  0  0  0  0  0  0  0  0
  131.3763   71.4416  227.6252 H   0  0  0  0  0  0  0  0  0  0  0  0
  130.4071   73.5665  228.3844 H   0  0  0  0  0  0  0  0  0  0  0  0
  130.5502   75.9209  228.5245 H   0  0  0  0  0  0  0  0  0  0  0  0
  133.8867   77.9335  226.7971 H   0  0  0  0  0  0  0  0  0  0  0  0
  134.8546   75.8031  226.0397 H   0  0  0  0  0  0  0  0  0  0  0  0
  1  2  2  0
  2  3  1  0
  3  4  1  0
  4  5  1  0
  5  6  2  0
  5  7  1  0
  7  8  1  0
  8  9  1  0
  9 10  1  0
  9 11  1  0
 11 12  1  0
 12 13  1  0
 13 14  1  0
 14 15  2  0
 15 16  1  0
 16 17  2  0
 17 18  1  0
 17 19  1  0
 19 20  2  0
  2 21  1  0
 21 22  2  0
 22 23  1  0
 23 24  2  0
 24 25  1  0
 25 26  2  0
 26 27  1  0
 26 28  1  0
 28 29  2  0
 29 30  1  0
 30 31  2  0
 12  7  1  0
 20 14  1  0
 31 21  1  0
 30 24  1  0
  3 32  1  0
  4 33  1  0
  4 34  1  0
  8 35  1  0
  8 36  1  0
  9 37  1  6
 10 38  1  0
 11 39  1  0
 11 40  1  0
 12 41  1  1
 13 42  1  0
 13 43  1  0
 15 44  1  0
 16 45  1  0
 19 46  1  0
 20 47  1  0
 22 48  1  0
 23 49  1  0
 25 50  1  0
 28 51  1  0
 29 52  1  0
M  END
>  <smiles>  (35) 
O=C(NCC(=O)N1C[C@H](O)C[C@H]1Cc1ccc(Cl)cc1)c1ccc2cc(Cl)ccc2n1

>  <score_type>  (35) 
oracle

>  <origin>  (35) 
autodockgpu

>  <m_score__min__energy>  (35) 
-8.9499999999999993

>  <m_primary>  (35) 
energy

>  <rmsd>  (35) 
8.686229075133172

>  <m_score__min__rmsd>  (35) 
8.686229075133172

>  <meeko>  (35) 
{"free_energy": -7.8, "intermolecular_energy": -9.89, "internal_energy": -2.13, "cluster_size": 1, "cluster_id": 6, "rank_in_cluster": 1}

>  <energy>  (35) 
-8.05

>  <cluster_rmsd>  (35) 
0.96

>  <cluster>  (35) 
4

$$$$

     RDKit          3D

 52 55  0  0  0  0  0  0  0  0999 V2000
  139.7920   72.1830  220.8110 O   0  0  0  0  0  0  0  0  0  0  0  0
  139.6540   72.6170  221.9650 C   0  0  0  0  0  0  0  0  0  0  0  0
  139.3590   73.9660  222.2770 N   0  0  0  0  0  0  0  0  0  0  0  0
  139.1920   74.9650  221.2400 C   0  0  0  0  0  0  0  0  0  0  0  0
  139.1310   76.2930  221.9090 C   0  0  0  0  0  0  0  0  0  0  0  0
  138.3760   76.3880  222.9060 O   0  0  0  0  0  0  0  0  0  0  0  0
  139.9140   77.3490  221.3880 N   0  0  0  0  0  0  0  0  0  0  0  0
  140.3650   78.5510  222.1180 C   0  0  0  0  0  0  0  0  0  0  0  0
  141.8280   78.5210  221.7360 C   0  0  2  0  0  0  0  0  0  0  0  0
  142.3510   79.7870  221.9730 O   0  0  0  0  0  0  0  0  0  0  0  0
  141.7680   78.2890  220.2450 C   0  0  0  0  0  0  0  0  0  0  0  0
  140.4720   77.5450  220.0580 C   0  0  1  0  0  0  0  0  0  0  0  0
  140.6040   76.2670  219.2900 C   0  0  0  0  0  0  0  0  0  0  0  0
  141.8880   75.5780  219.4180 C   0  0  0  0  0  0  0  0  0  0  0  0
  142.8410   75.4870  218.4200 C   0  0  0  0  0  0  0  0  0  0  0  0
  144.0390   74.8020  218.6160 C   0  0  0  0  0  0  0  0  0  0  0  0
  144.3080   74.1930  219.8200 C   0  0  0  0  0  0  0  0  0  0  0  0
  145.7800   73.3170  220.1490 Cl  0  0  0  0  0  0  0  0  0  0  0  0
  143.3710   74.2710  220.8300 C   0  0  0  0  0  0  0  0  0  0  0  0
  142.1930   74.9540  220.6120 C   0  0  0  0  0  0  0  0  0  0  0  0
  139.8050   71.6850  223.0960 C   0  0  0  0  0  0  0  0  0  0  0  0
  139.4260   70.3560  222.9680 C   0  0  0  0  0  0  0  0  0  0  0  0
  139.5380   69.4360  223.9770 C   0  0  0  0  0  0  0  0  0  0  0  0
  140.0520   69.8540  225.1760 C   0  0  0  0  0  0  0  0  0  0  0  0
  140.1750   68.9600  226.1970 C   0  0  0  0  0  0  0  0  0  0  0  0
  140.6940   69.3670  227.4150 C   0  0  0  0  0  0  0  0  0  0  0  0
  140.8430   68.2040  228.7130 Cl  0  0  0  0  0  0  0  0  0  0  0  0
  141.0640   70.6780  227.5300 C   0  0  0  0  0  0  0  0  0  0  0  0
  140.9500   71.6030  226.5120 C   0  0  0  0  0  0  0  0  0  0  0  0
  140.4250   71.1830  225.2870 C   0  0  0  0  0  0  0  0  0  0  0  0
  140.3050   72.0670  224.2810 N   0  0  0  0  0  0  0  0  0  0  0  0
  139.2540   74.2690  223.2810 H   0  0  0  0  0  0  0  0  0  0  0  0
  140.0444   74.9324  220.5454 H   0  0  0  0  0  0  0  0  0  0  0  0
  138.2742   74.7774  220.6634 H   0  0  0  0  0  0  0  0  0  0  0  0
  139.8637   79.4630  221.7615 H   0  0  0  0  0  0  0  0  0  0  0  0
  140.1569   78.5557  223.1981 H   0  0  0  0  0  0  0  0  0  0  0  0
  142.4320   77.7772  222.2762 H   0  0  0  0  0  0  0  0  0  0  0  0
  143.3390   79.7850  221.9290 H   0  0  0  0  0  0  0  0  0  0  0  0
  141.7560   79.2436  219.6985 H   0  0  0  0  0  0  0  0  0  0  0  0
  142.6387   77.7369  219.8615 H   0  0  0  0  0  0  0  0  0  0  0  0
  139.7933   78.1386  219.4279 H   0  0  0  0  0  0  0  0  0  0  0  0
  139.8169   75.5815  219.6373 H   0  0  0  0  0  0  0  0  0  0  0  0
  140.5183   76.5453  218.2292 H   0  0  0  0  0  0  0  0  0  0  0  0
  142.6491   75.9664  217.4487 H   0  0  0  0  0  0  0  0  0  0  0  0
  144.7758   74.7479  217.8010 H   0  0  0  0  0  0  0  0  0  0  0  0
  143.5623   73.7920  221.8016 H   0  0  0  0  0  0  0  0  0  0  0  0
  141.4593   75.0044  221.4301 H   0  0  0  0  0  0  0  0  0  0  0  0
  139.0133   70.0233  222.0042 H   0  0  0  0  0  0  0  0  0  0  0  0
  139.2243   68.3922  223.8287 H   0  0  0  0  0  0  0  0  0  0  0  0
  139.8621   67.9152  226.0539 H   0  0  0  0  0  0  0  0  0  0  0  0
  141.4774   71.0160  228.4917 H   0  0  0  0  0  0  0  0  0  0  0  0
  141.2650   72.6463  226.6614 H   0  0  0  0  0  0  0  0  0  0  0  0
  1  2  2  0
  2  3  1  0
  3  4  1  0
  4  5  1  0
  5  6  2  0
  5  7  1  0
  7  8  1  0
  8  9  1  0
  9 10  1  0
  9 11  1  0
 11 12  1  0
 12 13  1  0
 13 14  1  0
 14 15  2  0
 15 16  1  0
 16 17  2  0
 17 18  1  0
 17 19  1  0
 19 20  2  0
  2 21  1  0
 21 22  2  0
 22 23  1  0
 23 24  2  0
 24 25  1  0
 25 26  2  0
 26 27  1  0
 26 28  1  0
 28 29  2  0
 29 30  1  0
 30 31  2  0
 12  7  1  0
 20 14  1  0
 31 21  1  0
 30 24  1  0
  3 32  1  0
  4 33  1  0
  4 34  1  0
  8 35  1  0
  8 36  1  0
  9 37  1  1
 10 38  1  0
 11 39  1  0
 11 40  1  0
 12 41  1  6
 13 42  1  0
 13 43  1  0
 15 44  1  0
 16 45  1  0
 19 46  1  0
 20 47  1  0
 22 48  1  0
 23 49  1  0
 25 50  1  0
 28 51  1  0
 29 52  1  0
M  END
>  <smiles>  (36) 
O=C(NCC(=O)N1C[C@H](O)C[C@H]1Cc1ccc(Cl)cc1)c1ccc2cc(Cl)ccc2n1

>  <score_type>  (36) 
oracle

>  <origin>  (36) 
autodockgpu

>  <m_score__min__energy>  (36) 
-8.9499999999999993

>  <m_primary>  (36) 
energy

>  <rmsd>  (36) 
2.63439362456363

>  <m_score__min__rmsd>  (36) 
2.63439362456363

>  <meeko>  (36) 
{"free_energy": -8.55, "intermolecular_energy": -10.64, "internal_energy": -1.77, "cluster_size": 13, "cluster_id": 2, "rank_in_cluster": 2}

>  <energy>  (36) 
-8.04

>  <cluster_rmsd>  (36) 
1.07

>  <cluster>  (36) 
4

$$$$

     RDKit          3D

 52 55  0  0  0  0  0  0  0  0999 V2000
  138.7960   71.2290  220.7850 O   0  0  0  0  0  0  0  0  0  0  0  0
  138.9680   71.8070  221.8690 C   0  0  0  0  0  0  0  0  0  0  0  0
  138.8810   73.2090  222.0450 N   0  0  0  0  0  0  0  0  0  0  0  0
  138.5760   74.0950  220.9380 C   0  0  0  0  0  0  0  0  0  0  0  0
  138.5600   75.4840  221.4730 C   0  0  0  0  0  0  0  0  0  0  0  0
  138.6670   75.6110  222.7160 O   0  0  0  0  0  0  0  0  0  0  0  0
  138.4250   76.5570  220.5610 N   0  0  0  0  0  0  0  0  0  0  0  0
  137.1750   77.2640  220.2180 C   0  0  0  0  0  0  0  0  0  0  0  0
  137.6600   78.6870  220.3790 C   0  0  2  0  0  0  0  0  0  0  0  0
  136.7700   79.5150  219.7060 O   0  0  0  0  0  0  0  0  0  0  0  0
  138.9710   78.6680  219.6310 C   0  0  0  0  0  0  0  0  0  0  0  0
  139.4210   77.2360  219.7470 C   0  0  1  0  0  0  0  0  0  0  0  0
  140.8120   77.0710  220.2720 C   0  0  0  0  0  0  0  0  0  0  0  0
  141.2240   78.0330  221.2950 C   0  0  0  0  0  0  0  0  0  0  0  0
  141.0820   77.8500  222.6580 C   0  0  0  0  0  0  0  0  0  0  0  0
  141.4900   78.8200  223.5710 C   0  0  0  0  0  0  0  0  0  0  0  0
  142.0520   79.9990  223.1350 C   0  0  0  0  0  0  0  0  0  0  0  0
  142.5910   81.2640  224.2080 Cl  0  0  0  0  0  0  0  0  0  0  0  0
  142.2040   80.2030  221.7790 C   0  0  0  0  0  0  0  0  0  0  0  0
  141.7910   79.2270  220.8950 C   0  0  0  0  0  0  0  0  0  0  0  0
  139.2840   71.0010  223.0610 C   0  0  0  0  0  0  0  0  0  0  0  0
  138.9700   69.6490  223.1010 C   0  0  0  0  0  0  0  0  0  0  0  0
  139.2350   68.8410  224.1740 C   0  0  0  0  0  0  0  0  0  0  0  0
  139.8430   69.4000  225.2670 C   0  0  0  0  0  0  0  0  0  0  0  0
  140.1190   68.6190  226.3490 C   0  0  0  0  0  0  0  0  0  0  0  0
  140.7330   69.1700  227.4620 C   0  0  0  0  0  0  0  0  0  0  0  0
  141.0780   68.1500  228.8410 Cl  0  0  0  0  0  0  0  0  0  0  0  0
  141.0380   70.5010  227.4120 C   0  0  0  0  0  0  0  0  0  0  0  0
  140.7700   71.3140  226.3290 C   0  0  0  0  0  0  0  0  0  0  0  0
  140.1490   70.7490  225.2110 C   0  0  0  0  0  0  0  0  0  0  0  0
  139.8790   71.5220  224.1450 N   0  0  0  0  0  0  0  0  0  0  0  0
  139.0380   73.6370  222.9950 H   0  0  0  0  0  0  0  0  0  0  0  0
  139.3458   74.0011  220.1578 H   0  0  0  0  0  0  0  0  0  0  0  0
  137.6040   73.8390  220.4912 H   0  0  0  0  0  0  0  0  0  0  0  0
  136.8500   77.0524  219.1886 H   0  0  0  0  0  0  0  0  0  0  0  0
  136.2956   76.9917  220.8201 H   0  0  0  0  0  0  0  0  0  0  0  0
  137.7490   79.0300  221.4204 H   0  0  0  0  0  0  0  0  0  0  0  0
  136.2270   79.0100  219.0520 H   0  0  0  0  0  0  0  0  0  0  0  0
  138.8269   78.9508  218.5778 H   0  0  0  0  0  0  0  0  0  0  0  0
  139.7046   79.3817  220.0340 H   0  0  0  0  0  0  0  0  0  0  0  0
  139.4857   76.7864  218.7451 H   0  0  0  0  0  0  0  0  0  0  0  0
  140.8922   76.0629  220.7047 H   0  0  0  0  0  0  0  0  0  0  0  0
  141.4781   77.2433  219.4137 H   0  0  0  0  0  0  0  0  0  0  0  0
  140.6361   76.9160  223.0306 H   0  0  0  0  0  0  0  0  0  0  0  0
  141.3621   78.6426  224.6490 H   0  0  0  0  0  0  0  0  0  0  0  0
  142.6508   81.1362  221.4054 H   0  0  0  0  0  0  0  0  0  0  0  0
  141.9199   79.4092  219.8179 H   0  0  0  0  0  0  0  0  0  0  0  0
  138.4815   69.2026  222.2223 H   0  0  0  0  0  0  0  0  0  0  0  0
  138.9675   67.7741  224.1589 H   0  0  0  0  0  0  0  0  0  0  0  0
  139.8544   67.5514  226.3387 H   0  0  0  0  0  0  0  0  0  0  0  0
  141.5268   70.9521  228.2881 H   0  0  0  0  0  0  0  0  0  0  0  0
  141.0386   72.3806  226.3452 H   0  0  0  0  0  0  0  0  0  0  0  0
  1  2  2  0
  2  3  1  0
  3  4  1  0
  4  5  1  0
  5  6  2  0
  5  7  1  0
  7  8  1  0
  8  9  1  0
  9 10  1  0
  9 11  1  0
 11 12  1  0
 12 13  1  0
 13 14  1  0
 14 15  2  0
 15 16  1  0
 16 17  2  0
 17 18  1  0
 17 19  1  0
 19 20  2  0
  2 21  1  0
 21 22  2  0
 22 23  1  0
 23 24  2  0
 24 25  1  0
 25 26  2  0
 26 27  1  0
 26 28  1  0
 28 29  2  0
 29 30  1  0
 30 31  2  0
 12  7  1  0
 20 14  1  0
 31 21  1  0
 30 24  1  0
  3 32  1  0
  4 33  1  0
  4 34  1  0
  8 35  1  0
  8 36  1  0
  9 37  1  1
 10 38  1  0
 11 39  1  0
 11 40  1  0
 12 41  1  6
 13 42  1  0
 13 43  1  0
 15 44  1  0
 16 45  1  0
 19 46  1  0
 20 47  1  0
 22 48  1  0
 23 49  1  0
 25 50  1  0
 28 51  1  0
 29 52  1  0
M  END
>  <smiles>  (37) 
O=C(NCC(=O)N1C[C@H](O)C[C@H]1Cc1ccc(Cl)cc1)c1ccc2cc(Cl)ccc2n1

>  <score_type>  (37) 
oracle

>  <origin>  (37) 
autodockgpu

>  <m_score__min__energy>  (37) 
-8.9499999999999993

>  <m_primary>  (37) 
energy

>  <rmsd>  (37) 
2.035909229251259

>  <m_score__min__rmsd>  (37) 
2.035909229251259

>  <meeko>  (37) 
{"free_energy": -7.96, "intermolecular_energy": -10.05, "internal_energy": -2.25, "cluster_size": 20, "cluster_id": 4, "rank_in_cluster": 18}

>  <energy>  (37) 
-8.02

>  <cluster_rmsd>  (37) 
1.53

>  <cluster>  (37) 
4

$$$$

     RDKit          3D

 52 55  0  0  0  0  0  0  0  0999 V2000
  139.4990   71.8830  220.6570 O   0  0  0  0  0  0  0  0  0  0  0  0
  139.6190   72.4040  221.7760 C   0  0  0  0  0  0  0  0  0  0  0  0
  139.6370   73.8000  222.0050 N   0  0  0  0  0  0  0  0  0  0  0  0
  139.5120   74.7490  220.9160 C   0  0  0  0  0  0  0  0  0  0  0  0
  140.5890   75.7620  221.0840 C   0  0  0  0  0  0  0  0  0  0  0  0
  140.7520   76.2260  222.2380 O   0  0  0  0  0  0  0  0  0  0  0  0
  141.3500   76.1340  219.9510 N   0  0  0  0  0  0  0  0  0  0  0  0
  141.0220   77.2040  218.9870 C   0  0  0  0  0  0  0  0  0  0  0  0
  142.3600   77.9080  218.9570 C   0  0  2  0  0  0  0  0  0  0  0  0
  142.3990   78.6880  217.8070 O   0  0  0  0  0  0  0  0  0  0  0  0
  143.3270   76.7580  218.7990 C   0  0  0  0  0  0  0  0  0  0  0  0
  142.6030   75.6020  219.4380 C   0  0  1  0  0  0  0  0  0  0  0  0
  143.3980   74.8810  220.4800 C   0  0  0  0  0  0  0  0  0  0  0  0
  143.6600   73.4660  220.2150 C   0  0  0  0  0  0  0  0  0  0  0  0
  142.7430   72.4460  220.3890 C   0  0  0  0  0  0  0  0  0  0  0  0
  143.0710   71.1170  220.1240 C   0  0  0  0  0  0  0  0  0  0  0  0
  144.3290   70.7830  219.6780 C   0  0  0  0  0  0  0  0  0  0  0  0
  144.8220   69.1480  219.3220 Cl  0  0  0  0  0  0  0  0  0  0  0  0
  145.2600   71.7850  219.4970 C   0  0  0  0  0  0  0  0  0  0  0  0
  144.9110   73.0920  219.7660 C   0  0  0  0  0  0  0  0  0  0  0  0
  139.7550   71.5290  222.9550 C   0  0  0  0  0  0  0  0  0  0  0  0
  139.3390   70.2060  222.9020 C   0  0  0  0  0  0  0  0  0  0  0  0
  139.4350   69.3390  223.9570 C   0  0  0  0  0  0  0  0  0  0  0  0
  139.9710   69.8060  225.1280 C   0  0  0  0  0  0  0  0  0  0  0  0
  140.0790   68.9650  226.1950 C   0  0  0  0  0  0  0  0  0  0  0  0
  140.6180   69.4230  227.3860 C   0  0  0  0  0  0  0  0  0  0  0  0
  140.7480   68.3270  228.7440 Cl  0  0  0  0  0  0  0  0  0  0  0  0
  141.0250   70.7270  227.4270 C   0  0  0  0  0  0  0  0  0  0  0  0
  140.9260   71.5990  226.3620 C   0  0  0  0  0  0  0  0  0  0  0  0
  140.3800   71.1290  225.1650 C   0  0  0  0  0  0  0  0  0  0  0  0
  140.2750   71.9600  224.1140 N   0  0  0  0  0  0  0  0  0  0  0  0
  139.7420   74.1770  222.9840 H   0  0  0  0  0  0  0  0  0  0  0  0
  139.6284   74.2326  219.9518 H   0  0  0  0  0  0  0  0  0  0  0  0
  138.5220   75.2282  220.9296 H   0  0  0  0  0  0  0  0  0  0  0  0
  140.7448   76.8015  218.0015 H   0  0  0  0  0  0  0  0  0  0  0  0
  140.1601   77.8339  219.2522 H   0  0  0  0  0  0  0  0  0  0  0  0
  142.5673   78.5448  219.8296 H   0  0  0  0  0  0  0  0  0  0  0  0
  143.3250   78.9440  217.5730 H   0  0  0  0  0  0  0  0  0  0  0  0
  143.5291   76.5569  217.7366 H   0  0  0  0  0  0  0  0  0  0  0  0
  144.3076   76.9559  219.2564 H   0  0  0  0  0  0  0  0  0  0  0  0
  142.4217   74.8192  218.6867 H   0  0  0  0  0  0  0  0  0  0  0  0
  144.3676   75.3912  220.5778 H   0  0  0  0  0  0  0  0  0  0  0  0
  142.7854   74.9055  221.3933 H   0  0  0  0  0  0  0  0  0  0  0  0
  141.7308   72.6887  220.7449 H   0  0  0  0  0  0  0  0  0  0  0  0
  142.3179   70.3291  220.2727 H   0  0  0  0  0  0  0  0  0  0  0  0
  146.2724   71.5435  219.1410 H   0  0  0  0  0  0  0  0  0  0  0  0
  145.6676   73.8761  219.6152 H   0  0  0  0  0  0  0  0  0  0  0  0
  138.9086   69.8337  221.9607 H   0  0  0  0  0  0  0  0  0  0  0  0
  139.0918   68.2978  223.8671 H   0  0  0  0  0  0  0  0  0  0  0  0
  139.7382   67.9226  226.1104 H   0  0  0  0  0  0  0  0  0  0  0  0
  141.4575   71.1042  228.3654 H   0  0  0  0  0  0  0  0  0  0  0  0
  141.2691   72.6401  226.4535 H   0  0  0  0  0  0  0  0  0  0  0  0
  1  2  2  0
  2  3  1  0
  3  4  1  0
  4  5  1  0
  5  6  2  0
  5  7  1  0
  7  8  1  0
  8  9  1  0
  9 10  1  0
  9 11  1  0
 11 12  1  0
 12 13  1  0
 13 14  1  0
 14 15  2  0
 15 16  1  0
 16 17  2  0
 17 18  1  0
 17 19  1  0
 19 20  2  0
  2 21  1  0
 21 22  2  0
 22 23  1  0
 23 24  2  0
 24 25  1  0
 25 26  2  0
 26 27  1  0
 26 28  1  0
 28 29  2  0
 29 30  1  0
 30 31  2  0
 12  7  1  0
 20 14  1  0
 31 21  1  0
 30 24  1  0
  3 32  1  0
  4 33  1  0
  4 34  1  0
  8 35  1  0
  8 36  1  0
  9 37  1  1
 10 38  1  0
 11 39  1  0
 11 40  1  0
 12 41  1  6
 13 42  1  0
 13 43  1  0
 15 44  1  0
 16 45  1  0
 19 46  1  0
 20 47  1  0
 22 48  1  0
 23 49  1  0
 25 50  1  0
 28 51  1  0
 29 52  1  0
M  END
>  <smiles>  (38) 
O=C(NCC(=O)N1C[C@H](O)C[C@H]1Cc1ccc(Cl)cc1)c1ccc2cc(Cl)ccc2n1

>  <score_type>  (38) 
oracle

>  <origin>  (38) 
autodockgpu

>  <m_score__min__energy>  (38) 
-8.9499999999999993

>  <m_primary>  (38) 
energy

>  <rmsd>  (38) 
2.0300731997336023

>  <m_score__min__rmsd>  (38) 
2.0300731997336023

>  <meeko>  (38) 
{"free_energy": -8.2, "intermolecular_energy": -10.29, "internal_energy": -2.39, "cluster_size": 13, "cluster_id": 2, "rank_in_cluster": 8}

>  <energy>  (38) 
-8.01

>  <cluster_rmsd>  (38) 
1.58

>  <cluster>  (38) 
4

$$$$

     RDKit          3D

 52 55  0  0  0  0  0  0  0  0999 V2000
  140.4840   72.1580  220.8630 O   0  0  0  0  0  0  0  0  0  0  0  0
  139.8810   72.4570  221.9050 C   0  0  0  0  0  0  0  0  0  0  0  0
  139.1040   73.6290  222.0650 N   0  0  0  0  0  0  0  0  0  0  0  0
  138.9550   74.5930  220.9920 C   0  0  0  0  0  0  0  0  0  0  0  0
  138.6440   75.9080  221.6170 C   0  0  0  0  0  0  0  0  0  0  0  0
  138.7610   75.9820  222.8630 O   0  0  0  0  0  0  0  0  0  0  0  0
  138.2410   76.9740  220.7800 N   0  0  0  0  0  0  0  0  0  0  0  0
  136.9220   77.6380  220.7780 C   0  0  0  0  0  0  0  0  0  0  0  0
  137.3850   79.0770  220.8190 C   0  0  2  0  0  0  0  0  0  0  0  0
  136.3230   79.8730  220.4060 O   0  0  0  0  0  0  0  0  0  0  0  0
  138.4560   79.1020  219.7550 C   0  0  0  0  0  0  0  0  0  0  0  0
  138.9680   77.6850  219.7390 C   0  0  1  0  0  0  0  0  0  0  0  0
  140.4520   77.5680  219.8840 C   0  0  0  0  0  0  0  0  0  0  0  0
  141.0440   78.3140  220.9950 C   0  0  0  0  0  0  0  0  0  0  0  0
  141.0920   77.8750  222.3060 C   0  0  0  0  0  0  0  0  0  0  0  0
  141.6640   78.6500  223.3140 C   0  0  0  0  0  0  0  0  0  0  0  0
  142.2030   79.8830  223.0270 C   0  0  0  0  0  0  0  0  0  0  0  0
  142.9390   80.9150  224.2260 Cl  0  0  0  0  0  0  0  0  0  0  0  0
  142.1660   80.3410  221.7260 C   0  0  0  0  0  0  0  0  0  0  0  0
  141.5940   79.5560  220.7460 C   0  0  0  0  0  0  0  0  0  0  0  0
  139.9660   71.5460  223.0600 C   0  0  0  0  0  0  0  0  0  0  0  0
  139.5070   70.2400  222.9630 C   0  0  0  0  0  0  0  0  0  0  0  0
  139.5550   69.3410  223.9950 C   0  0  0  0  0  0  0  0  0  0  0  0
  140.0870   69.7560  225.1870 C   0  0  0  0  0  0  0  0  0  0  0  0
  140.1490   68.8830  226.2300 C   0  0  0  0  0  0  0  0  0  0  0  0
  140.6840   69.2880  227.4420 C   0  0  0  0  0  0  0  0  0  0  0  0
  140.7530   68.1510  228.7700 Cl  0  0  0  0  0  0  0  0  0  0  0  0
  141.1340   70.5750  227.5270 C   0  0  0  0  0  0  0  0  0  0  0  0
  141.0830   71.4800  226.4860 C   0  0  0  0  0  0  0  0  0  0  0  0
  140.5410   71.0620  225.2670 C   0  0  0  0  0  0  0  0  0  0  0  0
  140.4820   71.9260  224.2390 N   0  0  0  0  0  0  0  0  0  0  0  0
  138.6160   73.8220  222.9790 H   0  0  0  0  0  0  0  0  0  0  0  0
  139.8894   74.6619  220.4157 H   0  0  0  0  0  0  0  0  0  0  0  0
  138.1516   74.2891  220.3048 H   0  0  0  0  0  0  0  0  0  0  0  0
  136.3485   77.4145  219.8663 H   0  0  0  0  0  0  0  0  0  0  0  0
  136.2382   77.3367  221.5852 H   0  0  0  0  0  0  0  0  0  0  0  0
  137.7305   79.4239  221.8040 H   0  0  0  0  0  0  0  0  0  0  0  0
  135.4690   79.3760  220.4220 H   0  0  0  0  0  0  0  0  0  0  0  0
  138.0333   79.3785  218.7778 H   0  0  0  0  0  0  0  0  0  0  0  0
  139.2452   79.8408  219.9584 H   0  0  0  0  0  0  0  0  0  0  0  0
  138.7846   77.2366  218.7514 H   0  0  0  0  0  0  0  0  0  0  0  0
  140.6946   76.5043  220.0244 H   0  0  0  0  0  0  0  0  0  0  0  0
  140.8771   78.0068  218.9693 H   0  0  0  0  0  0  0  0  0  0  0  0
  140.6690   76.8916  222.5591 H   0  0  0  0  0  0  0  0  0  0  0  0
  141.6846   78.2727  224.3471 H   0  0  0  0  0  0  0  0  0  0  0  0
  142.5891   81.3241  221.4721 H   0  0  0  0  0  0  0  0  0  0  0  0
  141.5751   79.9386  219.7149 H   0  0  0  0  0  0  0  0  0  0  0  0
  139.0812   69.9086  222.0044 H   0  0  0  0  0  0  0  0  0  0  0  0
  139.1773   68.3154  223.8703 H   0  0  0  0  0  0  0  0  0  0  0  0
  139.7742   67.8558  226.1102 H   0  0  0  0  0  0  0  0  0  0  0  0
  141.5629   70.9104  228.4828 H   0  0  0  0  0  0  0  0  0  0  0  0
  141.4598   72.5057  226.6125 H   0  0  0  0  0  0  0  0  0  0  0  0
  1  2  2  0
  2  3  1  0
  3  4  1  0
  4  5  1  0
  5  6  2  0
  5  7  1  0
  7  8  1  0
  8  9  1  0
  9 10  1  0
  9 11  1  0
 11 12  1  0
 12 13  1  0
 13 14  1  0
 14 15  2  0
 15 16  1  0
 16 17  2  0
 17 18  1  0
 17 19  1  0
 19 20  2  0
  2 21  1  0
 21 22  2  0
 22 23  1  0
 23 24  2  0
 24 25  1  0
 25 26  2  0
 26 27  1  0
 26 28  1  0
 28 29  2  0
 29 30  1  0
 30 31  2  0
 12  7  1  0
 20 14  1  0
 31 21  1  0
 30 24  1  0
  3 32  1  0
  4 33  1  0
  4 34  1  0
  8 35  1  0
  8 36  1  0
  9 37  1  1
 10 38  1  0
 11 39  1  0
 11 40  1  0
 12 41  1  6
 13 42  1  0
 13 43  1  0
 15 44  1  0
 16 45  1  0
 19 46  1  0
 20 47  1  0
 22 48  1  0
 23 49  1  0
 25 50  1  0
 28 51  1  0
 29 52  1  0
M  END
>  <smiles>  (39) 
O=C(NCC(=O)N1C[C@H](O)C[C@H]1Cc1ccc(Cl)cc1)c1ccc2cc(Cl)ccc2n1

>  <score_type>  (39) 
oracle

>  <origin>  (39) 
autodockgpu

>  <m_score__min__energy>  (39) 
-8.9499999999999993

>  <m_primary>  (39) 
energy

>  <rmsd>  (39) 
2.4793456273769516

>  <m_score__min__rmsd>  (39) 
2.4793456273769516

>  <meeko>  (39) 
{"free_energy": -7.99, "intermolecular_energy": -10.08, "internal_energy": -2.12, "cluster_size": 20, "cluster_id": 4, "rank_in_cluster": 17}

>  <energy>  (39) 
-8.01

>  <cluster_rmsd>  (39) 
1.36

>  <cluster>  (39) 
4

$$$$

     RDKit          3D

 52 55  0  0  0  0  0  0  0  0999 V2000
  139.4720   73.9170  222.2260 O   0  0  0  0  0  0  0  0  0  0  0  0
  139.9540   72.7940  222.0130 C   0  0  0  0  0  0  0  0  0  0  0  0
  140.4490   72.3660  220.7580 N   0  0  0  0  0  0  0  0  0  0  0  0
  140.4270   73.2350  219.5980 C   0  0  0  0  0  0  0  0  0  0  0  0
  141.7230   73.0590  218.8870 C   0  0  0  0  0  0  0  0  0  0  0  0
  141.6640   72.8010  217.6610 O   0  0  0  0  0  0  0  0  0  0  0  0
  142.9220   73.1910  219.6260 N   0  0  0  0  0  0  0  0  0  0  0  0
  143.8730   72.1100  219.9550 C   0  0  0  0  0  0  0  0  0  0  0  0
  145.1550   72.7910  219.5320 C   0  0  2  0  0  0  0  0  0  0  0  0
  146.2100   72.1170  220.1370 O   0  0  0  0  0  0  0  0  0  0  0  0
  145.0200   74.1560  220.1640 C   0  0  0  0  0  0  0  0  0  0  0  0
  143.5300   74.3620  220.2390 C   0  0  1  0  0  0  0  0  0  0  0  0
  143.0580   75.6460  219.6340 C   0  0  0  0  0  0  0  0  0  0  0  0
  142.1280   76.4290  220.4490 C   0  0  0  0  0  0  0  0  0  0  0  0
  141.3930   75.9320  221.5080 C   0  0  0  0  0  0  0  0  0  0  0  0
  140.5170   76.7400  222.2320 C   0  0  0  0  0  0  0  0  0  0  0  0
  140.3610   78.0680  221.9070 C   0  0  0  0  0  0  0  0  0  0  0  0
  139.2900   79.1490  222.7590 Cl  0  0  0  0  0  0  0  0  0  0  0  0
  141.0860   78.5860  220.8530 C   0  0  0  0  0  0  0  0  0  0  0  0
  141.9450   77.7650  220.1520 C   0  0  0  0  0  0  0  0  0  0  0  0
  140.0230   71.8300  223.1250 C   0  0  0  0  0  0  0  0  0  0  0  0
  139.5810   70.5250  222.9550 C   0  0  0  0  0  0  0  0  0  0  0  0
  139.6170   69.5780  223.9440 C   0  0  0  0  0  0  0  0  0  0  0  0
  140.1160   69.9410  225.1670 C   0  0  0  0  0  0  0  0  0  0  0  0
  140.1640   69.0200  226.1690 C   0  0  0  0  0  0  0  0  0  0  0  0
  140.6660   69.3720  227.4110 C   0  0  0  0  0  0  0  0  0  0  0  0
  140.7180   68.1740  228.6840 Cl  0  0  0  0  0  0  0  0  0  0  0  0
  141.0990   70.6590  227.5670 C   0  0  0  0  0  0  0  0  0  0  0  0
  141.0620   71.6120  226.5690 C   0  0  0  0  0  0  0  0  0  0  0  0
  140.5530   71.2470  225.3200 C   0  0  0  0  0  0  0  0  0  0  0  0
  140.5080   72.1580  224.3320 N   0  0  0  0  0  0  0  0  0  0  0  0
  140.8470   71.3970  220.6460 H   0  0  0  0  0  0  0  0  0  0  0  0
  139.5938   72.9574  218.9357 H   0  0  0  0  0  0  0  0  0  0  0  0
  140.2883   74.2836  219.9001 H   0  0  0  0  0  0  0  0  0  0  0  0
  143.8684   71.8682  221.0281 H   0  0  0  0  0  0  0  0  0  0  0  0
  143.6716   71.1395  219.4780 H   0  0  0  0  0  0  0  0  0  0  0  0
  145.3261   72.8210  218.4458 H   0  0  0  0  0  0  0  0  0  0  0  0
  145.9960   71.8720  221.0710 H   0  0  0  0  0  0  0  0  0  0  0  0
  145.4701   74.1710  221.1676 H   0  0  0  0  0  0  0  0  0  0  0  0
  145.5338   74.9447  219.5948 H   0  0  0  0  0  0  0  0  0  0  0  0
  143.2227   74.4620  221.2905 H   0  0  0  0  0  0  0  0  0  0  0  0
  143.9414   76.2706  219.4355 H   0  0  0  0  0  0  0  0  0  0  0  0
  142.4986   75.3631  218.7301 H   0  0  0  0  0  0  0  0  0  0  0  0
  141.5014   74.8734  221.7867 H   0  0  0  0  0  0  0  0  0  0  0  0
  139.9462   76.3125  223.0695 H   0  0  0  0  0  0  0  0  0  0  0  0
  140.9798   79.6448  220.5742 H   0  0  0  0  0  0  0  0  0  0  0  0
  142.5127   78.1964  219.3143 H   0  0  0  0  0  0  0  0  0  0  0  0
  139.1800   70.2357  221.9724 H   0  0  0  0  0  0  0  0  0  0  0  0
  139.2556   68.5553  223.7614 H   0  0  0  0  0  0  0  0  0  0  0  0
  139.8039   67.9958  225.9919 H   0  0  0  0  0  0  0  0  0  0  0  0
  141.5015   70.9533  228.5475 H   0  0  0  0  0  0  0  0  0  0  0  0
  141.4245   72.6342  226.7526 H   0  0  0  0  0  0  0  0  0  0  0  0
  1  2  2  0
  2  3  1  0
  3  4  1  0
  4  5  1  0
  5  6  2  0
  5  7  1  0
  7  8  1  0
  8  9  1  0
  9 10  1  0
  9 11  1  0
 11 12  1  0
 12 13  1  0
 13 14  1  0
 14 15  2  0
 15 16  1  0
 16 17  2  0
 17 18  1  0
 17 19  1  0
 19 20  2  0
  2 21  1  0
 21 22  2  0
 22 23  1  0
 23 24  2  0
 24 25  1  0
 25 26  2  0
 26 27  1  0
 26 28  1  0
 28 29  2  0
 29 30  1  0
 30 31  2  0
 12  7  1  0
 20 14  1  0
 31 21  1  0
 30 24  1  0
  3 32  1  0
  4 33  1  0
  4 34  1  0
  8 35  1  0
  8 36  1  0
  9 37  1  6
 10 38  1  0
 11 39  1  0
 11 40  1  0
 12 41  1  1
 13 42  1  0
 13 43  1  0
 15 44  1  0
 16 45  1  0
 19 46  1  0
 20 47  1  0
 22 48  1  0
 23 49  1  0
 25 50  1  0
 28 51  1  0
 29 52  1  0
M  END
>  <smiles>  (40) 
O=C(NCC(=O)N1C[C@H](O)C[C@H]1Cc1ccc(Cl)cc1)c1ccc2cc(Cl)ccc2n1

>  <score_type>  (40) 
oracle

>  <origin>  (40) 
autodockgpu

>  <m_score__min__energy>  (40) 
-8.9499999999999993

>  <m_primary>  (40) 
energy

>  <rmsd>  (40) 
3.499464629313035

>  <m_score__min__rmsd>  (40) 
3.499464629313035

>  <meeko>  (40) 
{"free_energy": -8.71, "intermolecular_energy": -10.8, "internal_energy": -1.72, "cluster_size": 8, "cluster_id": 1, "rank_in_cluster": 2}

>  <energy>  (40) 
-7.99

>  <cluster_rmsd>  (40) 
1.34

>  <cluster>  (40) 
4

$$$$

     RDKit          3D

 52 55  0  0  0  0  0  0  0  0999 V2000
  139.5720   71.7090  220.7600 O   0  0  0  0  0  0  0  0  0  0  0  0
  139.6070   72.2270  221.8860 C   0  0  0  0  0  0  0  0  0  0  0  0
  139.5020   73.6180  222.1250 N   0  0  0  0  0  0  0  0  0  0  0  0
  139.3430   74.5640  221.0380 C   0  0  0  0  0  0  0  0  0  0  0  0
  140.3500   75.6420  221.2370 C   0  0  0  0  0  0  0  0  0  0  0  0
  140.3620   76.2030  222.3580 O   0  0  0  0  0  0  0  0  0  0  0  0
  141.2170   75.9620  220.1660 N   0  0  0  0  0  0  0  0  0  0  0  0
  141.0560   77.0750  219.2090 C   0  0  0  0  0  0  0  0  0  0  0  0
  142.4520   77.6510  219.2840 C   0  0  2  0  0  0  0  0  0  0  0  0
  142.6410   78.4460  218.1600 O   0  0  0  0  0  0  0  0  0  0  0  0
  143.3170   76.4190  219.1630 C   0  0  0  0  0  0  0  0  0  0  0  0
  142.4480   75.3240  219.7230 C   0  0  1  0  0  0  0  0  0  0  0  0
  143.1010   74.5130  220.7980 C   0  0  0  0  0  0  0  0  0  0  0  0
  143.8870   73.3660  220.3400 C   0  0  0  0  0  0  0  0  0  0  0  0
  145.2610   73.3600  220.1880 C   0  0  0  0  0  0  0  0  0  0  0  0
  145.9390   72.2290  219.7350 C   0  0  0  0  0  0  0  0  0  0  0  0
  145.2510   71.0780  219.4260 C   0  0  0  0  0  0  0  0  0  0  0  0
  146.0200   69.6200  218.8560 Cl  0  0  0  0  0  0  0  0  0  0  0  0
  143.8790   71.0620  219.5710 C   0  0  0  0  0  0  0  0  0  0  0  0
  143.2310   72.1940  220.0200 C   0  0  0  0  0  0  0  0  0  0  0  0
  139.7670   71.3550  223.0630 C   0  0  0  0  0  0  0  0  0  0  0  0
  139.3790   70.0230  223.0120 C   0  0  0  0  0  0  0  0  0  0  0  0
  139.4990   69.1580  224.0660 C   0  0  0  0  0  0  0  0  0  0  0  0
  140.0320   69.6350  225.2340 C   0  0  0  0  0  0  0  0  0  0  0  0
  140.1640   68.7960  226.3000 C   0  0  0  0  0  0  0  0  0  0  0  0
  140.7000   69.2640  227.4880 C   0  0  0  0  0  0  0  0  0  0  0  0
  140.8600   68.1700  228.8440 Cl  0  0  0  0  0  0  0  0  0  0  0  0
  141.0790   70.5760  227.5270 C   0  0  0  0  0  0  0  0  0  0  0  0
  140.9570   71.4470  226.4640 C   0  0  0  0  0  0  0  0  0  0  0  0
  140.4140   70.9660  225.2690 C   0  0  0  0  0  0  0  0  0  0  0  0
  140.2860   71.7950  224.2200 N   0  0  0  0  0  0  0  0  0  0  0  0
  139.5390   73.9930  223.1090 H   0  0  0  0  0  0  0  0  0  0  0  0
  139.5146   74.0621  220.0743 H   0  0  0  0  0  0  0  0  0  0  0  0
  138.3246   74.9797  221.0300 H   0  0  0  0  0  0  0  0  0  0  0  0
  140.8103   76.7180  218.1980 H   0  0  0  0  0  0  0  0  0  0  0  0
  140.2402   77.7782  219.4323 H   0  0  0  0  0  0  0  0  0  0  0  0
  142.6576   78.2497  220.1836 H   0  0  0  0  0  0  0  0  0  0  0  0
  142.1600   79.3060  218.2370 H   0  0  0  0  0  0  0  0  0  0  0  0
  143.5726   76.2195  218.1119 H   0  0  0  0  0  0  0  0  0  0  0  0
  144.2775   76.5160  219.6902 H   0  0  0  0  0  0  0  0  0  0  0  0
  142.2468   74.5758  218.9421 H   0  0  0  0  0  0  0  0  0  0  0  0
  143.7711   75.1778  221.3628 H   0  0  0  0  0  0  0  0  0  0  0  0
  142.2796   74.0931  221.3972 H   0  0  0  0  0  0  0  0  0  0  0  0
  145.8325   74.2682  220.4300 H   0  0  0  0  0  0  0  0  0  0  0  0
  147.0330   72.2570  219.6237 H   0  0  0  0  0  0  0  0  0  0  0  0
  143.3066   70.1540  219.3305 H   0  0  0  0  0  0  0  0  0  0  0  0
  142.1369   72.1613  220.1285 H   0  0  0  0  0  0  0  0  0  0  0  0
  138.9516   69.6418  222.0728 H   0  0  0  0  0  0  0  0  0  0  0  0
  139.1767   68.1100  223.9775 H   0  0  0  0  0  0  0  0  0  0  0  0
  139.8446   67.7467  226.2166 H   0  0  0  0  0  0  0  0  0  0  0  0
  141.5079   70.9617  228.4636 H   0  0  0  0  0  0  0  0  0  0  0  0
  141.2793   72.4948  226.5546 H   0  0  0  0  0  0  0  0  0  0  0  0
  1  2  2  0
  2  3  1  0
  3  4  1  0
  4  5  1  0
  5  6  2  0
  5  7  1  0
  7  8  1  0
  8  9  1  0
  9 10  1  0
  9 11  1  0
 11 12  1  0
 12 13  1  0
 13 14  1  0
 14 15  2  0
 15 16  1  0
 16 17  2  0
 17 18  1  0
 17 19  1  0
 19 20  2  0
  2 21  1  0
 21 22  2  0
 22 23  1  0
 23 24  2  0
 24 25  1  0
 25 26  2  0
 26 27  1  0
 26 28  1  0
 28 29  2  0
 29 30  1  0
 30 31  2  0
 12  7  1  0
 20 14  1  0
 31 21  1  0
 30 24  1  0
  3 32  1  0
  4 33  1  0
  4 34  1  0
  8 35  1  0
  8 36  1  0
  9 37  1  1
 10 38  1  0
 11 39  1  0
 11 40  1  0
 12 41  1  6
 13 42  1  0
 13 43  1  0
 15 44  1  0
 16 45  1  0
 19 46  1  0
 20 47  1  0
 22 48  1  0
 23 49  1  0
 25 50  1  0
 28 51  1  0
 29 52  1  0
M  END
>  <smiles>  (41) 
O=C(NCC(=O)N1C[C@H](O)C[C@H]1Cc1ccc(Cl)cc1)c1ccc2cc(Cl)ccc2n1

>  <score_type>  (41) 
oracle

>  <origin>  (41) 
autodockgpu

>  <m_score__min__energy>  (41) 
-8.9499999999999993

>  <m_primary>  (41) 
energy

>  <rmsd>  (41) 
2.0025802924318667

>  <m_score__min__rmsd>  (41) 
2.0025802924318667

>  <meeko>  (41) 
{"free_energy": -8.2, "intermolecular_energy": -10.29, "internal_energy": -2.11, "cluster_size": 13, "cluster_id": 2, "rank_in_cluster": 7}

>  <energy>  (41) 
-7.96

>  <cluster_rmsd>  (41) 
1.27

>  <cluster>  (41) 
4

$$$$

     RDKit          3D

 52 55  0  0  0  0  0  0  0  0999 V2000
  137.5710   70.4880  221.9400 O   0  0  0  0  0  0  0  0  0  0  0  0
  138.2830   71.0820  222.7630 C   0  0  0  0  0  0  0  0  0  0  0  0
  138.6190   72.4550  222.6790 N   0  0  0  0  0  0  0  0  0  0  0  0
  138.1400   73.2880  221.5930 C   0  0  0  0  0  0  0  0  0  0  0  0
  139.1510   74.3580  221.3750 C   0  0  0  0  0  0  0  0  0  0  0  0
  140.2490   74.2240  221.9660 O   0  0  0  0  0  0  0  0  0  0  0  0
  138.8160   75.4420  220.5300 N   0  0  0  0  0  0  0  0  0  0  0  0
  138.3470   75.3520  219.1330 C   0  0  0  0  0  0  0  0  0  0  0  0
  137.1490   76.2700  219.2300 C   0  0  2  0  0  0  0  0  0  0  0  0
  136.8080   76.6550  217.9380 O   0  0  0  0  0  0  0  0  0  0  0  0
  137.7150   77.4630  219.9610 C   0  0  0  0  0  0  0  0  0  0  0  0
  138.8350   76.8750  220.7790 C   0  0  1  0  0  0  0  0  0  0  0  0
  138.7730   77.2130  222.2360 C   0  0  0  0  0  0  0  0  0  0  0  0
  139.7500   78.1980  222.7020 C   0  0  0  0  0  0  0  0  0  0  0  0
  141.0960   77.9490  222.8920 C   0  0  0  0  0  0  0  0  0  0  0  0
  141.9640   78.9390  223.3510 C   0  0  0  0  0  0  0  0  0  0  0  0
  141.4970   80.2040  223.6280 C   0  0  0  0  0  0  0  0  0  0  0  0
  142.5130   81.5000  224.2030 Cl  0  0  0  0  0  0  0  0  0  0  0  0
  140.1570   80.4750  223.4450 C   0  0  0  0  0  0  0  0  0  0  0  0
  139.3190   79.4780  222.9900 C   0  0  0  0  0  0  0  0  0  0  0  0
  138.8250   70.3280  223.9070 C   0  0  0  0  0  0  0  0  0  0  0  0
  138.6860   68.9490  223.9720 C   0  0  0  0  0  0  0  0  0  0  0  0
  139.1640   68.1870  225.0040 C   0  0  0  0  0  0  0  0  0  0  0  0
  139.8150   68.8230  226.0280 C   0  0  0  0  0  0  0  0  0  0  0  0
  140.3010   68.0900  227.0680 C   0  0  0  0  0  0  0  0  0  0  0  0
  140.9620   68.7190  228.1100 C   0  0  0  0  0  0  0  0  0  0  0  0
  141.5780   67.7590  229.4360 Cl  0  0  0  0  0  0  0  0  0  0  0  0
  141.0930   70.0770  228.0360 C   0  0  0  0  0  0  0  0  0  0  0  0
  140.6100   70.8440  226.9950 C   0  0  0  0  0  0  0  0  0  0  0  0
  139.9450   70.2000  225.9480 C   0  0  0  0  0  0  0  0  0  0  0  0
  139.4660   70.9260  224.9230 N   0  0  0  0  0  0  0  0  0  0  0  0
  139.2300   72.8990  223.4140 H   0  0  0  0  0  0  0  0  0  0  0  0
  138.0262   72.6862  220.6793 H   0  0  0  0  0  0  0  0  0  0  0  0
  137.1603   73.7232  221.8397 H   0  0  0  0  0  0  0  0  0  0  0  0
  139.0972   75.7257  218.4205 H   0  0  0  0  0  0  0  0  0  0  0  0
  138.1378   74.3359  218.7673 H   0  0  0  0  0  0  0  0  0  0  0  0
  136.2666   75.8294  219.7171 H   0  0  0  0  0  0  0  0  0  0  0  0
  135.9060   76.3350  217.6910 H   0  0  0  0  0  0  0  0  0  0  0  0
  138.0971   78.2131  219.2529 H   0  0  0  0  0  0  0  0  0  0  0  0
  136.9654   77.9854  220.5736 H   0  0  0  0  0  0  0  0  0  0  0  0
  139.7927   77.3179  220.4681 H   0  0  0  0  0  0  0  0  0  0  0  0
  137.7683   77.6070  222.4489 H   0  0  0  0  0  0  0  0  0  0  0  0
  139.0096   76.2808  222.7700 H   0  0  0  0  0  0  0  0  0  0  0  0
  141.4921   76.9458  222.6760 H   0  0  0  0  0  0  0  0  0  0  0  0
  143.0300   78.7075  223.4928 H   0  0  0  0  0  0  0  0  0  0  0  0
  139.7597   81.4779  223.6601 H   0  0  0  0  0  0  0  0  0  0  0  0
  138.2539   79.7145  222.8496 H   0  0  0  0  0  0  0  0  0  0  0  0
  138.1629   68.4400  223.1490 H   0  0  0  0  0  0  0  0  0  0  0  0
  139.0292   67.0953  225.0108 H   0  0  0  0  0  0  0  0  0  0  0  0
  140.1685   66.9981  227.0804 H   0  0  0  0  0  0  0  0  0  0  0  0
  141.6155   70.5907  228.8565 H   0  0  0  0  0  0  0  0  0  0  0  0
  140.7452   71.9356  226.9896 H   0  0  0  0  0  0  0  0  0  0  0  0
  1  2  2  0
  2  3  1  0
  3  4  1  0
  4  5  1  0
  5  6  2  0
  5  7  1  0
  7  8  1  0
  8  9  1  0
  9 10  1  0
  9 11  1  0
 11 12  1  0
 12 13  1  0
 13 14  1  0
 14 15  2  0
 15 16  1  0
 16 17  2  0
 17 18  1  0
 17 19  1  0
 19 20  2  0
  2 21  1  0
 21 22  2  0
 22 23  1  0
 23 24  2  0
 24 25  1  0
 25 26  2  0
 26 27  1  0
 26 28  1  0
 28 29  2  0
 29 30  1  0
 30 31  2  0
 12  7  1  0
 20 14  1  0
 31 21  1  0
 30 24  1  0
  3 32  1  0
  4 33  1  0
  4 34  1  0
  8 35  1  0
  8 36  1  0
  9 37  1  1
 10 38  1  0
 11 39  1  0
 11 40  1  0
 12 41  1  6
 13 42  1  0
 13 43  1  0
 15 44  1  0
 16 45  1  0
 19 46  1  0
 20 47  1  0
 22 48  1  0
 23 49  1  0
 25 50  1  0
 28 51  1  0
 29 52  1  0
M  END
>  <smiles>  (42) 
O=C(NCC(=O)N1C[C@H](O)C[C@H]1Cc1ccc(Cl)cc1)c1ccc2cc(Cl)ccc2n1

>  <score_type>  (42) 
oracle

>  <origin>  (42) 
autodockgpu

>  <m_score__min__energy>  (42) 
-8.9499999999999993

>  <m_primary>  (42) 
energy

>  <rmsd>  (42) 
1.8123422989266487

>  <m_score__min__rmsd>  (42) 
1.8123422989266487

>  <meeko>  (42) 
{"free_energy": -8.06, "intermolecular_energy": -10.14, "internal_energy": -2.04, "cluster_size": 20, "cluster_id": 4, "rank_in_cluster": 11}

>  <energy>  (42) 
-7.85

>  <cluster_rmsd>  (42) 
1.37

>  <cluster>  (42) 
4

$$$$

     RDKit          3D

 52 55  0  0  0  0  0  0  0  0999 V2000
  138.8470   71.2020  220.9860 O   0  0  0  0  0  0  0  0  0  0  0  0
  139.1610   71.7860  222.0350 C   0  0  0  0  0  0  0  0  0  0  0  0
  139.2710   73.1920  222.1590 N   0  0  0  0  0  0  0  0  0  0  0  0
  139.0160   74.0740  221.0380 C   0  0  0  0  0  0  0  0  0  0  0  0
  138.9170   75.4590  221.5760 C   0  0  0  0  0  0  0  0  0  0  0  0
  139.1600   75.6070  222.7970 O   0  0  0  0  0  0  0  0  0  0  0  0
  138.5600   76.5030  220.6910 N   0  0  0  0  0  0  0  0  0  0  0  0
  137.2120   77.0760  220.5100 C   0  0  0  0  0  0  0  0  0  0  0  0
  137.5650   78.5420  220.6130 C   0  0  2  0  0  0  0  0  0  0  0  0
  136.5180   79.2690  220.0590 O   0  0  0  0  0  0  0  0  0  0  0  0
  138.7680   78.6500  219.7060 C   0  0  0  0  0  0  0  0  0  0  0  0
  139.3720   77.2720  219.7600 C   0  0  1  0  0  0  0  0  0  0  0  0
  140.8280   77.2540  220.1060 C   0  0  0  0  0  0  0  0  0  0  0  0
  141.2400   78.1700  221.1700 C   0  0  0  0  0  0  0  0  0  0  0  0
  141.1360   77.9090  222.5240 C   0  0  0  0  0  0  0  0  0  0  0  0
  141.5410   78.8400  223.4800 C   0  0  0  0  0  0  0  0  0  0  0  0
  142.0610   80.0550  223.0960 C   0  0  0  0  0  0  0  0  0  0  0  0
  142.5920   81.2740  224.2250 Cl  0  0  0  0  0  0  0  0  0  0  0  0
  142.1740   80.3370  221.7500 C   0  0  0  0  0  0  0  0  0  0  0  0
  141.7650   79.3990  220.8240 C   0  0  0  0  0  0  0  0  0  0  0  0
  139.4430   70.9820  223.2380 C   0  0  0  0  0  0  0  0  0  0  0  0
  139.1150   69.6340  223.2770 C   0  0  0  0  0  0  0  0  0  0  0  0
  139.3480   68.8290  224.3600 C   0  0  0  0  0  0  0  0  0  0  0  0
  139.9360   69.3880  225.4640 C   0  0  0  0  0  0  0  0  0  0  0  0
  140.1800   68.6110  226.5560 C   0  0  0  0  0  0  0  0  0  0  0  0
  140.7750   69.1610  227.6790 C   0  0  0  0  0  0  0  0  0  0  0  0
  141.0780   68.1450  229.0710 Cl  0  0  0  0  0  0  0  0  0  0  0  0
  141.0930   70.4890  227.6300 C   0  0  0  0  0  0  0  0  0  0  0  0
  140.8570   71.2990  226.5370 C   0  0  0  0  0  0  0  0  0  0  0  0
  140.2570   70.7340  225.4080 C   0  0  0  0  0  0  0  0  0  0  0  0
  140.0180   71.5030  224.3320 N   0  0  0  0  0  0  0  0  0  0  0  0
  139.5410   73.6240  223.0810 H   0  0  0  0  0  0  0  0  0  0  0  0
  139.8413   74.0099  220.3136 H   0  0  0  0  0  0  0  0  0  0  0  0
  138.0866   73.7895  220.5230 H   0  0  0  0  0  0  0  0  0  0  0  0
  136.7839   76.8224  219.5290 H   0  0  0  0  0  0  0  0  0  0  0  0
  136.4476   76.7218  221.2172 H   0  0  0  0  0  0  0  0  0  0  0  0
  137.7476   78.9019  221.6363 H   0  0  0  0  0  0  0  0  0  0  0  0
  135.7700   79.3730  220.6970 H   0  0  0  0  0  0  0  0  0  0  0  0
  138.4654   78.9070  218.6801 H   0  0  0  0  0  0  0  0  0  0  0  0
  139.4697   79.4384  220.0161 H   0  0  0  0  0  0  0  0  0  0  0  0
  139.3556   76.8217  218.7565 H   0  0  0  0  0  0  0  0  0  0  0  0
  141.0878   76.2324  220.4205 H   0  0  0  0  0  0  0  0  0  0  0  0
  141.3548   77.5904  219.2009 H   0  0  0  0  0  0  0  0  0  0  0  0
  140.7241   76.9442  222.8548 H   0  0  0  0  0  0  0  0  0  0  0  0
  141.4441   78.6014  224.5494 H   0  0  0  0  0  0  0  0  0  0  0  0
  142.5865   81.3011  221.4179 H   0  0  0  0  0  0  0  0  0  0  0  0
  141.8623   79.6431  219.7558 H   0  0  0  0  0  0  0  0  0  0  0  0
  138.6421   69.1880  222.3896 H   0  0  0  0  0  0  0  0  0  0  0  0
  139.0711   67.7645  224.3440 H   0  0  0  0  0  0  0  0  0  0  0  0
  139.9042   67.5462  226.5457 H   0  0  0  0  0  0  0  0  0  0  0  0
  141.5657   70.9401  228.5149 H   0  0  0  0  0  0  0  0  0  0  0  0
  141.1345   72.3633  226.5543 H   0  0  0  0  0  0  0  0  0  0  0  0
  1  2  2  0
  2  3  1  0
  3  4  1  0
  4  5  1  0
  5  6  2  0
  5  7  1  0
  7  8  1  0
  8  9  1  0
  9 10  1  0
  9 11  1  0
 11 12  1  0
 12 13  1  0
 13 14  1  0
 14 15  2  0
 15 16  1  0
 16 17  2  0
 17 18  1  0
 17 19  1  0
 19 20  2  0
  2 21  1  0
 21 22  2  0
 22 23  1  0
 23 24  2  0
 24 25  1  0
 25 26  2  0
 26 27  1  0
 26 28  1  0
 28 29  2  0
 29 30  1  0
 30 31  2  0
 12  7  1  0
 20 14  1  0
 31 21  1  0
 30 24  1  0
  3 32  1  0
  4 33  1  0
  4 34  1  0
  8 35  1  0
  8 36  1  0
  9 37  1  1
 10 38  1  0
 11 39  1  0
 11 40  1  0
 12 41  1  6
 13 42  1  0
 13 43  1  0
 15 44  1  0
 16 45  1  0
 19 46  1  0
 20 47  1  0
 22 48  1  0
 23 49  1  0
 25 50  1  0
 28 51  1  0
 29 52  1  0
M  END
>  <smiles>  (43) 
O=C(NCC(=O)N1C[C@H](O)C[C@H]1Cc1ccc(Cl)cc1)c1ccc2cc(Cl)ccc2n1

>  <score_type>  (43) 
oracle

>  <origin>  (43) 
autodockgpu

>  <m_score__min__energy>  (43) 
-8.9499999999999993

>  <m_primary>  (43) 
energy

>  <rmsd>  (43) 
2.08267875838439

>  <m_score__min__rmsd>  (43) 
2.08267875838439

>  <meeko>  (43) 
{"free_energy": -8.04, "intermolecular_energy": -10.13, "internal_energy": -2.32, "cluster_size": 20, "cluster_id": 4, "rank_in_cluster": 13}

>  <energy>  (43) 
-7.83

>  <cluster_rmsd>  (43) 
0.72

>  <cluster>  (43) 
4

$$$$

     RDKit          3D

 52 55  0  0  0  0  0  0  0  0999 V2000
  139.3680   71.8710  220.7390 O   0  0  0  0  0  0  0  0  0  0  0  0
  139.5320   72.3800  221.8580 C   0  0  0  0  0  0  0  0  0  0  0  0
  139.5380   73.7740  222.1040 N   0  0  0  0  0  0  0  0  0  0  0  0
  139.3480   74.7340  221.0330 C   0  0  0  0  0  0  0  0  0  0  0  0
  140.4210   75.7580  221.1600 C   0  0  0  0  0  0  0  0  0  0  0  0
  140.9020   75.9320  222.3050 O   0  0  0  0  0  0  0  0  0  0  0  0
  140.8240   76.4600  220.0000 N   0  0  0  0  0  0  0  0  0  0  0  0
  141.0170   77.9190  219.8810 C   0  0  0  0  0  0  0  0  0  0  0  0
  142.3780   77.9220  219.2230 C   0  0  2  0  0  0  0  0  0  0  0  0
  142.5640   79.1730  218.6460 O   0  0  0  0  0  0  0  0  0  0  0  0
  142.2080   76.8990  218.1250 C   0  0  0  0  0  0  0  0  0  0  0  0
  141.1490   75.9760  218.6670 C   0  0  1  0  0  0  0  0  0  0  0  0
  141.5290   74.5290  218.6510 C   0  0  0  0  0  0  0  0  0  0  0  0
  142.6940   74.1690  219.4600 C   0  0  0  0  0  0  0  0  0  0  0  0
  142.8990   72.9340  220.0460 C   0  0  0  0  0  0  0  0  0  0  0  0
  144.0320   72.6700  220.8140 C   0  0  0  0  0  0  0  0  0  0  0  0
  144.9860   73.6420  221.0100 C   0  0  0  0  0  0  0  0  0  0  0  0
  146.4320   73.3960  221.9540 Cl  0  0  0  0  0  0  0  0  0  0  0  0
  144.8020   74.8820  220.4340 C   0  0  0  0  0  0  0  0  0  0  0  0
  143.6720   75.1190  219.6790 C   0  0  0  0  0  0  0  0  0  0  0  0
  139.7350   71.4940  223.0180 C   0  0  0  0  0  0  0  0  0  0  0  0
  139.3890   70.1520  222.9480 C   0  0  0  0  0  0  0  0  0  0  0  0
  139.5510   69.2730  223.9860 C   0  0  0  0  0  0  0  0  0  0  0  0
  140.0830   69.7480  225.1560 C   0  0  0  0  0  0  0  0  0  0  0  0
  140.2550   68.8960  226.2040 C   0  0  0  0  0  0  0  0  0  0  0  0
  140.7920   69.3600  227.3940 C   0  0  0  0  0  0  0  0  0  0  0  0
  141.0040   68.2500  228.7290 Cl  0  0  0  0  0  0  0  0  0  0  0  0
  141.1290   70.6840  227.4510 C   0  0  0  0  0  0  0  0  0  0  0  0
  140.9650   71.5680  226.4040 C   0  0  0  0  0  0  0  0  0  0  0  0
  140.4220   71.0890  225.2090 C   0  0  0  0  0  0  0  0  0  0  0  0
  140.2540   71.9320  224.1750 N   0  0  0  0  0  0  0  0  0  0  0  0
  139.6820   74.1410  223.0810 H   0  0  0  0  0  0  0  0  0  0  0  0
  139.4224   74.2299  220.0582 H   0  0  0  0  0  0  0  0  0  0  0  0
  138.3544   75.2010  221.1007 H   0  0  0  0  0  0  0  0  0  0  0  0
  140.2502   78.3864  219.2457 H   0  0  0  0  0  0  0  0  0  0  0  0
  140.9438   78.4851  220.8213 H   0  0  0  0  0  0  0  0  0  0  0  0
  143.2193   77.7109  219.8995 H   0  0  0  0  0  0  0  0  0  0  0  0
  142.7600   79.1020  217.6800 H   0  0  0  0  0  0  0  0  0  0  0  0
  141.8741   77.3756  217.1915 H   0  0  0  0  0  0  0  0  0  0  0  0
  143.1441   76.3781  217.8755 H   0  0  0  0  0  0  0  0  0  0  0  0
  140.2664   76.0018  218.0110 H   0  0  0  0  0  0  0  0  0  0  0  0
  140.6696   73.9500  219.0199 H   0  0  0  0  0  0  0  0  0  0  0  0
  141.8058   74.3036  217.6105 H   0  0  0  0  0  0  0  0  0  0  0  0
  142.1504   72.1408  219.9029 H   0  0  0  0  0  0  0  0  0  0  0  0
  144.1645   71.6764  221.2671 H   0  0  0  0  0  0  0  0  0  0  0  0
  145.5505   75.6755  220.5757 H   0  0  0  0  0  0  0  0  0  0  0  0
  143.5436   76.1145  219.2289 H   0  0  0  0  0  0  0  0  0  0  0  0
  138.9614   69.7735  222.0078 H   0  0  0  0  0  0  0  0  0  0  0  0
  139.2624   68.2165  223.8833 H   0  0  0  0  0  0  0  0  0  0  0  0
  139.9675   67.8388  226.1059 H   0  0  0  0  0  0  0  0  0  0  0  0
  141.5570   71.0680  228.3888 H   0  0  0  0  0  0  0  0  0  0  0  0
  141.2547   72.6241  226.5077 H   0  0  0  0  0  0  0  0  0  0  0  0
  1  2  2  0
  2  3  1  0
  3  4  1  0
  4  5  1  0
  5  6  2  0
  5  7  1  0
  7  8  1  0
  8  9  1  0
  9 10  1  0
  9 11  1  0
 11 12  1  0
 12 13  1  0
 13 14  1  0
 14 15  2  0
 15 16  1  0
 16 17  2  0
 17 18  1  0
 17 19  1  0
 19 20  2  0
  2 21  1  0
 21 22  2  0
 22 23  1  0
 23 24  2  0
 24 25  1  0
 25 26  2  0
 26 27  1  0
 26 28  1  0
 28 29  2  0
 29 30  1  0
 30 31  2  0
 12  7  1  0
 20 14  1  0
 31 21  1  0
 30 24  1  0
  3 32  1  0
  4 33  1  0
  4 34  1  0
  8 35  1  0
  8 36  1  0
  9 37  1  1
 10 38  1  0
 11 39  1  0
 11 40  1  0
 12 41  1  6
 13 42  1  0
 13 43  1  0
 15 44  1  0
 16 45  1  0
 19 46  1  0
 20 47  1  0
 22 48  1  0
 23 49  1  0
 25 50  1  0
 28 51  1  0
 29 52  1  0
M  END
>  <smiles>  (44) 
O=C(NCC(=O)N1C[C@H](O)C[C@H]1Cc1ccc(Cl)cc1)c1ccc2cc(Cl)ccc2n1

>  <score_type>  (44) 
oracle

>  <origin>  (44) 
autodockgpu

>  <m_score__min__energy>  (44) 
-8.9499999999999993

>  <m_primary>  (44) 
energy

>  <rmsd>  (44) 
2.0790038249834715

>  <m_score__min__rmsd>  (44) 
2.0790038249834715

>  <meeko>  (44) 
{"free_energy": -8.26, "intermolecular_energy": -10.35, "internal_energy": -2.17, "cluster_size": 13, "cluster_id": 2, "rank_in_cluster": 6}

>  <energy>  (44) 
-8.19

>  <cluster_rmsd>  (44) 
0.0

>  <cluster>  (44) 
5

$$$$

     RDKit          3D

 52 55  0  0  0  0  0  0  0  0999 V2000
  140.2030   72.2240  220.7120 O   0  0  0  0  0  0  0  0  0  0  0  0
  139.9760   72.6780  221.8440 C   0  0  0  0  0  0  0  0  0  0  0  0
  139.6730   74.0350  222.1110 N   0  0  0  0  0  0  0  0  0  0  0  0
  139.6060   75.0200  221.0490 C   0  0  0  0  0  0  0  0  0  0  0  0
  140.0070   76.3290  221.6330 C   0  0  0  0  0  0  0  0  0  0  0  0
  139.4910   76.6370  222.7340 O   0  0  0  0  0  0  0  0  0  0  0  0
  140.9280   77.1330  220.9210 N   0  0  0  0  0  0  0  0  0  0  0  0
  142.2150   76.6930  220.3470 C   0  0  0  0  0  0  0  0  0  0  0  0
  142.0620   77.2730  218.9600 C   0  0  2  0  0  0  0  0  0  0  0  0
  143.3280   77.3360  218.3870 O   0  0  0  0  0  0  0  0  0  0  0  0
  141.5860   78.6770  219.2460 C   0  0  0  0  0  0  0  0  0  0  0  0
  140.8740   78.5430  220.5670 C   0  0  1  0  0  0  0  0  0  0  0  0
  139.4820   79.0910  220.5710 C   0  0  0  0  0  0  0  0  0  0  0  0
  139.0340   79.6790  221.8340 C   0  0  0  0  0  0  0  0  0  0  0  0
  139.8510   80.3360  222.7350 C   0  0  0  0  0  0  0  0  0  0  0  0
  139.3500   80.8610  223.9250 C   0  0  0  0  0  0  0  0  0  0  0  0
  138.0150   80.7380  224.2370 C   0  0  0  0  0  0  0  0  0  0  0  0
  137.3070   81.3670  225.7020 Cl  0  0  0  0  0  0  0  0  0  0  0  0
  137.1810   80.0870  223.3520 C   0  0  0  0  0  0  0  0  0  0  0  0
  137.7010   79.5760  222.1810 C   0  0  0  0  0  0  0  0  0  0  0  0
  140.0180   71.7610  222.9970 C   0  0  0  0  0  0  0  0  0  0  0  0
  139.5310   70.4670  222.8860 C   0  0  0  0  0  0  0  0  0  0  0  0
  139.5400   69.5630  223.9160 C   0  0  0  0  0  0  0  0  0  0  0  0
  140.0580   69.9620  225.1190 C   0  0  0  0  0  0  0  0  0  0  0  0
  140.0810   69.0840  226.1610 C   0  0  0  0  0  0  0  0  0  0  0  0
  140.6020   69.4730  227.3840 C   0  0  0  0  0  0  0  0  0  0  0  0
  140.6200   68.3300  228.7080 Cl  0  0  0  0  0  0  0  0  0  0  0  0
  141.0790   70.7500  227.4810 C   0  0  0  0  0  0  0  0  0  0  0  0
  141.0690   71.6590  226.4430 C   0  0  0  0  0  0  0  0  0  0  0  0
  140.5400   71.2570  225.2130 C   0  0  0  0  0  0  0  0  0  0  0  0
  140.5210   72.1250  224.1870 N   0  0  0  0  0  0  0  0  0  0  0  0
  139.4890   74.3540  223.0980 H   0  0  0  0  0  0  0  0  0  0  0  0
  140.2936   74.7442  220.2359 H   0  0  0  0  0  0  0  0  0  0  0  0
  138.5894   75.0747  220.6323 H   0  0  0  0  0  0  0  0  0  0  0  0
  143.0744   77.1232  220.8821 H   0  0  0  0  0  0  0  0  0  0  0  0
  142.4083   75.6110  220.3900 H   0  0  0  0  0  0  0  0  0  0  0  0
  141.3950   76.7063  218.2937 H   0  0  0  0  0  0  0  0  0  0  0  0
  144.0130   77.6010  219.0490 H   0  0  0  0  0  0  0  0  0  0  0  0
  142.4351   79.3718  219.3254 H   0  0  0  0  0  0  0  0  0  0  0  0
  140.9427   79.0823  218.4510 H   0  0  0  0  0  0  0  0  0  0  0  0
  141.3793   79.1602  221.3245 H   0  0  0  0  0  0  0  0  0  0  0  0
  139.4234   79.8697  219.7963 H   0  0  0  0  0  0  0  0  0  0  0  0
  138.8210   78.2305  220.3903 H   0  0  0  0  0  0  0  0  0  0  0  0
  140.9215   80.4471  222.5075 H   0  0  0  0  0  0  0  0  0  0  0  0
  140.0272   81.3780  224.6207 H   0  0  0  0  0  0  0  0  0  0  0  0
  136.1102   79.9763  223.5781 H   0  0  0  0  0  0  0  0  0  0  0  0
  137.0196   79.0603  221.4884 H   0  0  0  0  0  0  0  0  0  0  0  0
  139.1149   70.1491  221.9186 H   0  0  0  0  0  0  0  0  0  0  0  0
  139.1426   68.5463  223.7802 H   0  0  0  0  0  0  0  0  0  0  0  0
  139.6856   68.0658  226.0307 H   0  0  0  0  0  0  0  0  0  0  0  0
  141.4966   71.0731  228.4460 H   0  0  0  0  0  0  0  0  0  0  0  0
  141.4675   72.6751  226.5799 H   0  0  0  0  0  0  0  0  0  0  0  0
  1  2  2  0
  2  3  1  0
  3  4  1  0
  4  5  1  0
  5  6  2  0
  5  7  1  0
  7  8  1  0
  8  9  1  0
  9 10  1  0
  9 11  1  0
 11 12  1  0
 12 13  1  0
 13 14  1  0
 14 15  2  0
 15 16  1  0
 16 17  2  0
 17 18  1  0
 17 19  1  0
 19 20  2  0
  2 21  1  0
 21 22  2  0
 22 23  1  0
 23 24  2  0
 24 25  1  0
 25 26  2  0
 26 27  1  0
 26 28  1  0
 28 29  2  0
 29 30  1  0
 30 31  2  0
 12  7  1  0
 20 14  1  0
 31 21  1  0
 30 24  1  0
  3 32  1  0
  4 33  1  0
  4 34  1  0
  8 35  1  0
  8 36  1  0
  9 37  1  6
 10 38  1  0
 11 39  1  0
 11 40  1  0
 12 41  1  1
 13 42  1  0
 13 43  1  0
 15 44  1  0
 16 45  1  0
 19 46  1  0
 20 47  1  0
 22 48  1  0
 23 49  1  0
 25 50  1  0
 28 51  1  0
 29 52  1  0
M  END
>  <smiles>  (45) 
O=C(NCC(=O)N1C[C@H](O)C[C@H]1Cc1ccc(Cl)cc1)c1ccc2cc(Cl)ccc2n1

>  <score_type>  (45) 
oracle

>  <origin>  (45) 
autodockgpu

>  <m_score__min__energy>  (45) 
-8.9499999999999993

>  <m_primary>  (45) 
energy

>  <rmsd>  (45) 
2.11657362644217

>  <m_score__min__rmsd>  (45) 
2.11657362644217

>  <meeko>  (45) 
{"free_energy": -8.19, "intermolecular_energy": -10.28, "internal_energy": -1.95, "cluster_size": 3, "cluster_id": 5, "rank_in_cluster": 1}

>  <energy>  (45) 
-8.15

>  <cluster_rmsd>  (45) 
1.43

>  <cluster>  (45) 
5

$$$$

     RDKit          3D

 52 55  0  0  0  0  0  0  0  0999 V2000
  137.0890   74.5380  220.2460 O   0  0  0  0  0  0  0  0  0  0  0  0
  137.2620   74.6850  221.4650 C   0  0  0  0  0  0  0  0  0  0  0  0
  136.8510   73.7500  222.4450 N   0  0  0  0  0  0  0  0  0  0  0  0
  136.1780   72.5180  222.0820 C   0  0  0  0  0  0  0  0  0  0  0  0
  137.1680   71.6650  221.3700 C   0  0  0  0  0  0  0  0  0  0  0  0
  136.7140   70.8740  220.5090 O   0  0  0  0  0  0  0  0  0  0  0  0
  138.5360   71.7960  221.7040 N   0  0  0  0  0  0  0  0  0  0  0  0
  139.5550   72.5510  220.9470 C   0  0  0  0  0  0  0  0  0  0  0  0
  140.1620   73.3330  222.0890 C   0  0  2  0  0  0  0  0  0  0  0  0
  141.4060   73.7930  221.6720 O   0  0  0  0  0  0  0  0  0  0  0  0
  140.3630   72.2680  223.1400 C   0  0  0  0  0  0  0  0  0  0  0  0
  139.2910   71.2570  222.8250 C   0  0  1  0  0  0  0  0  0  0  0  0
  138.4250   70.8980  223.9900 C   0  0  0  0  0  0  0  0  0  0  0  0
  139.1160   70.3180  225.1420 C   0  0  0  0  0  0  0  0  0  0  0  0
  139.9770   71.0070  225.9770 C   0  0  0  0  0  0  0  0  0  0  0  0
  140.6080   70.3810  227.0510 C   0  0  0  0  0  0  0  0  0  0  0  0
  140.3870   69.0480  227.3110 C   0  0  0  0  0  0  0  0  0  0  0  0
  141.1340   68.1880  228.6330 Cl  0  0  0  0  0  0  0  0  0  0  0  0
  139.5320   68.3410  226.4910 C   0  0  0  0  0  0  0  0  0  0  0  0
  138.9200   68.9830  225.4340 C   0  0  0  0  0  0  0  0  0  0  0  0
  137.9370   75.9050  221.9440 C   0  0  0  0  0  0  0  0  0  0  0  0
  137.2250   76.8840  222.6210 C   0  0  0  0  0  0  0  0  0  0  0  0
  137.7880   78.0400  223.0930 C   0  0  0  0  0  0  0  0  0  0  0  0
  139.1270   78.2380  222.8830 C   0  0  0  0  0  0  0  0  0  0  0  0
  139.7130   79.3780  223.3420 C   0  0  0  0  0  0  0  0  0  0  0  0
  141.0660   79.5920  223.1380 C   0  0  0  0  0  0  0  0  0  0  0  0
  141.8000   81.0640  223.7350 Cl  0  0  0  0  0  0  0  0  0  0  0  0
  141.7580   78.6210  222.4700 C   0  0  0  0  0  0  0  0  0  0  0  0
  141.1890   77.4570  221.9950 C   0  0  0  0  0  0  0  0  0  0  0  0
  139.8230   77.2510  222.2050 C   0  0  0  0  0  0  0  0  0  0  0  0
  139.2470   76.1240  221.7520 N   0  0  0  0  0  0  0  0  0  0  0  0
  137.0310   73.9370  223.4670 H   0  0  0  0  0  0  0  0  0  0  0  0
  135.8201   72.0042  222.9864 H   0  0  0  0  0  0  0  0  0  0  0  0
  135.3089   72.7241  221.4399 H   0  0  0  0  0  0  0  0  0  0  0  0
  140.2880   71.8869  220.4656 H   0  0  0  0  0  0  0  0  0  0  0  0
  139.1737   73.1536  220.1094 H   0  0  0  0  0  0  0  0  0  0  0  0
  139.5617   74.1880  222.4335 H   0  0  0  0  0  0  0  0  0  0  0  0
  141.3850   74.7590  221.4640 H   0  0  0  0  0  0  0  0  0  0  0  0
  141.3637   71.8186  223.0582 H   0  0  0  0  0  0  0  0  0  0  0  0
  140.2948   72.6596  224.1657 H   0  0  0  0  0  0  0  0  0  0  0  0
  139.7553   70.2947  222.5635 H   0  0  0  0  0  0  0  0  0  0  0  0
  137.9163   71.8132  224.3272 H   0  0  0  0  0  0  0  0  0  0  0  0
  137.7430   70.1156  223.6256 H   0  0  0  0  0  0  0  0  0  0  0  0
  140.1683   72.0738  225.7892 H   0  0  0  0  0  0  0  0  0  0  0  0
  141.2880   70.9572  227.6957 H   0  0  0  0  0  0  0  0  0  0  0  0
  139.3397   67.2742  226.6783 H   0  0  0  0  0  0  0  0  0  0  0  0
  138.2419   68.4019  224.7918 H   0  0  0  0  0  0  0  0  0  0  0  0
  136.1497   76.7233  222.7879 H   0  0  0  0  0  0  0  0  0  0  0  0
  137.1822   78.7880  223.6255 H   0  0  0  0  0  0  0  0  0  0  0  0
  139.1117   80.1292  223.8750 H   0  0  0  0  0  0  0  0  0  0  0  0
  142.8337   78.7768  222.3008 H   0  0  0  0  0  0  0  0  0  0  0  0
  141.7962   76.7093  221.4638 H   0  0  0  0  0  0  0  0  0  0  0  0
  1  2  2  0
  2  3  1  0
  3  4  1  0
  4  5  1  0
  5  6  2  0
  5  7  1  0
  7  8  1  0
  8  9  1  0
  9 10  1  0
  9 11  1  0
 11 12  1  0
 12 13  1  0
 13 14  1  0
 14 15  2  0
 15 16  1  0
 16 17  2  0
 17 18  1  0
 17 19  1  0
 19 20  2  0
  2 21  1  0
 21 22  2  0
 22 23  1  0
 23 24  2  0
 24 25  1  0
 25 26  2  0
 26 27  1  0
 26 28  1  0
 28 29  2  0
 29 30  1  0
 30 31  2  0
 12  7  1  0
 20 14  1  0
 31 21  1  0
 30 24  1  0
  3 32  1  0
  4 33  1  0
  4 34  1  0
  8 35  1  0
  8 36  1  0
  9 37  1  1
 10 38  1  0
 11 39  1  0
 11 40  1  0
 12 41  1  6
 13 42  1  0
 13 43  1  0
 15 44  1  0
 16 45  1  0
 19 46  1  0
 20 47  1  0
 22 48  1  0
 23 49  1  0
 25 50  1  0
 28 51  1  0
 29 52  1  0
M  END
>  <smiles>  (46) 
O=C(NCC(=O)N1C[C@H](O)C[C@H]1Cc1ccc(Cl)cc1)c1ccc2cc(Cl)ccc2n1

>  <score_type>  (46) 
oracle

>  <origin>  (46) 
autodockgpu

>  <m_score__min__energy>  (46) 
-8.9499999999999993

>  <m_primary>  (46) 
energy

>  <rmsd>  (46) 
7.128671421334203

>  <m_score__min__rmsd>  (46) 
7.128671421334203

>  <meeko>  (46) 
{"free_energy": -7.65, "intermolecular_energy": -9.74, "internal_energy": -1.99, "cluster_size": 1, "cluster_id": 7, "rank_in_cluster": 1}

>  <energy>  (46) 
-8.13

>  <cluster_rmsd>  (46) 
1.43

>  <cluster>  (46) 
5

$$$$

     RDKit          3D

 52 55  0  0  0  0  0  0  0  0999 V2000
  137.1190   71.0540  221.2980 O   0  0  0  0  0  0  0  0  0  0  0  0
  137.7220   71.6870  222.1790 C   0  0  0  0  0  0  0  0  0  0  0  0
  137.9010   73.0910  222.1670 N   0  0  0  0  0  0  0  0  0  0  0  0
  137.3770   73.9130  221.0950 C   0  0  0  0  0  0  0  0  0  0  0  0
  138.5330   74.5990  220.4560 C   0  0  0  0  0  0  0  0  0  0  0  0
  138.2720   75.3910  219.5190 O   0  0  0  0  0  0  0  0  0  0  0  0
  139.8340   74.3180  220.9360 N   0  0  0  0  0  0  0  0  0  0  0  0
  140.4310   72.9800  221.1200 C   0  0  0  0  0  0  0  0  0  0  0  0
  141.7500   73.2150  220.4200 C   0  0  2  0  0  0  0  0  0  0  0  0
  142.6310   72.2230  220.8350 O   0  0  0  0  0  0  0  0  0  0  0  0
  142.1940   74.5360  221.0020 C   0  0  0  0  0  0  0  0  0  0  0  0
  140.8980   75.2140  221.3610 C   0  0  1  0  0  0  0  0  0  0  0  0
  140.7530   76.5950  220.8020 C   0  0  0  0  0  0  0  0  0  0  0  0
  141.1760   77.6850  221.6820 C   0  0  0  0  0  0  0  0  0  0  0  0
  141.0780   77.6710  223.0620 C   0  0  0  0  0  0  0  0  0  0  0  0
  141.4940   78.7560  223.8330 C   0  0  0  0  0  0  0  0  0  0  0  0
  142.0180   79.8790  223.2350 C   0  0  0  0  0  0  0  0  0  0  0  0
  142.5630   81.2780  224.1240 Cl  0  0  0  0  0  0  0  0  0  0  0  0
  142.1250   79.9140  221.8600 C   0  0  0  0  0  0  0  0  0  0  0  0
  141.7070   78.8280  221.1190 C   0  0  0  0  0  0  0  0  0  0  0  0
  138.2960   70.9470  223.3160 C   0  0  0  0  0  0  0  0  0  0  0  0
  137.9480   69.6230  223.5440 C   0  0  0  0  0  0  0  0  0  0  0  0
  138.4420   68.8760  224.5800 C   0  0  0  0  0  0  0  0  0  0  0  0
  139.3290   69.4720  225.4370 C   0  0  0  0  0  0  0  0  0  0  0  0
  139.8380   68.7530  226.4770 C   0  0  0  0  0  0  0  0  0  0  0  0
  140.7350   69.3410  227.3520 C   0  0  0  0  0  0  0  0  0  0  0  0
  141.3760   68.4000  228.6810 Cl  0  0  0  0  0  0  0  0  0  0  0  0
  141.0720   70.6450  227.1190 C   0  0  0  0  0  0  0  0  0  0  0  0
  140.5720   71.3960  226.0750 C   0  0  0  0  0  0  0  0  0  0  0  0
  139.6660   70.7940  225.1970 C   0  0  0  0  0  0  0  0  0  0  0  0
  139.1670   71.5050  224.1710 N   0  0  0  0  0  0  0  0  0  0  0  0
  138.4230   73.5660  222.9490 H   0  0  0  0  0  0  0  0  0  0  0  0
  136.8585   73.2832  220.3571 H   0  0  0  0  0  0  0  0  0  0  0  0
  136.6561   74.6469  221.4845 H   0  0  0  0  0  0  0  0  0  0  0  0
  140.5661   72.7307  222.1828 H   0  0  0  0  0  0  0  0  0  0  0  0
  139.8348   72.1380  220.7383 H   0  0  0  0  0  0  0  0  0  0  0  0
  141.6972   73.2096  219.3213 H   0  0  0  0  0  0  0  0  0  0  0  0
  142.9910   71.7130  220.0690 H   0  0  0  0  0  0  0  0  0  0  0  0
  142.8182   74.3827  221.8947 H   0  0  0  0  0  0  0  0  0  0  0  0
  142.8085   75.1263  220.3064 H   0  0  0  0  0  0  0  0  0  0  0  0
  140.8594   75.3865  222.4467 H   0  0  0  0  0  0  0  0  0  0  0  0
  141.3532   76.6516  219.8819 H   0  0  0  0  0  0  0  0  0  0  0  0
  139.6746   76.7412  220.6418 H   0  0  0  0  0  0  0  0  0  0  0  0
  140.6625   76.7839  223.5624 H   0  0  0  0  0  0  0  0  0  0  0  0
  141.4025   78.7137  224.9284 H   0  0  0  0  0  0  0  0  0  0  0  0
  142.5402   80.8006  221.3586 H   0  0  0  0  0  0  0  0  0  0  0  0
  141.8017   78.8753  220.0241 H   0  0  0  0  0  0  0  0  0  0  0  0
  137.2356   69.1471  222.8541 H   0  0  0  0  0  0  0  0  0  0  0  0
  138.1357   67.8288  224.7198 H   0  0  0  0  0  0  0  0  0  0  0  0
  139.5359   67.7052  226.6210 H   0  0  0  0  0  0  0  0  0  0  0  0
  141.7851   71.1249  227.8054 H   0  0  0  0  0  0  0  0  0  0  0  0
  140.8790   72.4432  225.9369 H   0  0  0  0  0  0  0  0  0  0  0  0
  1  2  2  0
  2  3  1  0
  3  4  1  0
  4  5  1  0
  5  6  2  0
  5  7  1  0
  7  8  1  0
  8  9  1  0
  9 10  1  0
  9 11  1  0
 11 12  1  0
 12 13  1  0
 13 14  1  0
 14 15  2  0
 15 16  1  0
 16 17  2  0
 17 18  1  0
 17 19  1  0
 19 20  2  0
  2 21  1  0
 21 22  2  0
 22 23  1  0
 23 24  2  0
 24 25  1  0
 25 26  2  0
 26 27  1  0
 26 28  1  0
 28 29  2  0
 29 30  1  0
 30 31  2  0
 12  7  1  0
 20 14  1  0
 31 21  1  0
 30 24  1  0
  3 32  1  0
  4 33  1  0
  4 34  1  0
  8 35  1  0
  8 36  1  0
  9 37  1  6
 10 38  1  0
 11 39  1  0
 11 40  1  0
 12 41  1  1
 13 42  1  0
 13 43  1  0
 15 44  1  0
 16 45  1  0
 19 46  1  0
 20 47  1  0
 22 48  1  0
 23 49  1  0
 25 50  1  0
 28 51  1  0
 29 52  1  0
M  END
>  <smiles>  (47) 
O=C(NCC(=O)N1C[C@H](O)C[C@H]1Cc1ccc(Cl)cc1)c1ccc2cc(Cl)ccc2n1

>  <score_type>  (47) 
oracle

>  <origin>  (47) 
autodockgpu

>  <m_score__min__energy>  (47) 
-8.9499999999999993

>  <m_primary>  (47) 
energy

>  <rmsd>  (47) 
2.27624886610926

>  <m_score__min__rmsd>  (47) 
2.27624886610926

>  <meeko>  (47) 
{"free_energy": -8.07, "intermolecular_energy": -10.16, "internal_energy": -1.59, "cluster_size": 20, "cluster_id": 4, "rank_in_cluster": 10}

>  <energy>  (47) 
-7.8

>  <cluster_rmsd>  (47) 
0.0

>  <cluster>  (47) 
6

$$$$

     RDKit          3D

 52 55  0  0  0  0  0  0  0  0999 V2000
  137.9030   70.9150  221.3580 O   0  0  0  0  0  0  0  0  0  0  0  0
  138.4620   71.5110  222.2920 C   0  0  0  0  0  0  0  0  0  0  0  0
  138.7000   72.9060  222.3160 N   0  0  0  0  0  0  0  0  0  0  0  0
  138.2960   73.7630  221.2180 C   0  0  0  0  0  0  0  0  0  0  0  0
  139.0330   75.0470  221.3640 C   0  0  0  0  0  0  0  0  0  0  0  0
  140.0890   75.0180  222.0400 O   0  0  0  0  0  0  0  0  0  0  0  0
  138.5060   76.2030  220.7410 N   0  0  0  0  0  0  0  0  0  0  0  0
  137.1050   76.6660  220.7940 C   0  0  0  0  0  0  0  0  0  0  0  0
  137.3510   78.1120  221.1600 C   0  0  2  0  0  0  0  0  0  0  0  0
  136.1980   78.8260  220.8550 O   0  0  0  0  0  0  0  0  0  0  0  0
  138.4410   78.5090  220.1930 C   0  0  0  0  0  0  0  0  0  0  0  0
  139.1550   77.2120  219.9170 C   0  0  1  0  0  0  0  0  0  0  0  0
  140.6350   77.2700  220.1280 C   0  0  0  0  0  0  0  0  0  0  0  0
  141.0930   78.1760  221.1820 C   0  0  0  0  0  0  0  0  0  0  0  0
  141.0150   77.9160  222.5380 C   0  0  0  0  0  0  0  0  0  0  0  0
  141.4640   78.8360  223.4840 C   0  0  0  0  0  0  0  0  0  0  0  0
  142.0030   80.0390  223.0880 C   0  0  0  0  0  0  0  0  0  0  0  0
  142.5890   81.2440  224.2050 Cl  0  0  0  0  0  0  0  0  0  0  0  0
  142.0910   80.3190  221.7400 C   0  0  0  0  0  0  0  0  0  0  0  0
  141.6390   79.3920  220.8240 C   0  0  0  0  0  0  0  0  0  0  0  0
  138.9140   70.7340  223.4590 C   0  0  0  0  0  0  0  0  0  0  0  0
  138.6750   69.3680  223.5320 C   0  0  0  0  0  0  0  0  0  0  0  0
  139.0670   68.5860  224.5850 C   0  0  0  0  0  0  0  0  0  0  0  0
  139.7310   69.1860  225.6230 C   0  0  0  0  0  0  0  0  0  0  0  0
  140.1340   68.4320  226.6830 C   0  0  0  0  0  0  0  0  0  0  0  0
  140.8060   69.0250  227.7400 C   0  0  0  0  0  0  0  0  0  0  0  0
  141.3130   68.0380  229.0930 Cl  0  0  0  0  0  0  0  0  0  0  0  0
  141.0350   70.3690  227.6570 C   0  0  0  0  0  0  0  0  0  0  0  0
  140.6390   71.1560  226.5950 C   0  0  0  0  0  0  0  0  0  0  0  0
  139.9610   70.5490  225.5350 C   0  0  0  0  0  0  0  0  0  0  0  0
  139.5660   71.2950  224.4890 N   0  0  0  0  0  0  0  0  0  0  0  0
  139.1800   73.3490  223.1420 H   0  0  0  0  0  0  0  0  0  0  0  0
  138.5506   73.2900  220.2581 H   0  0  0  0  0  0  0  0  0  0  0  0
  137.2095   73.9336  221.2368 H   0  0  0  0  0  0  0  0  0  0  0  0
  136.6000   76.5662  219.8219 H   0  0  0  0  0  0  0  0  0  0  0  0
  136.4470   76.1091  221.4773 H   0  0  0  0  0  0  0  0  0  0  0  0
  137.6100   78.2843  222.2151 H   0  0  0  0  0  0  0  0  0  0  0  0
  136.3790   79.7960  220.7830 H   0  0  0  0  0  0  0  0  0  0  0  0
  138.0142   78.9272  219.2694 H   0  0  0  0  0  0  0  0  0  0  0  0
  139.1065   79.2879  220.5935 H   0  0  0  0  0  0  0  0  0  0  0  0
  139.0719   76.9640  218.8486 H   0  0  0  0  0  0  0  0  0  0  0  0
  140.9798   76.2565  220.3808 H   0  0  0  0  0  0  0  0  0  0  0  0
  141.0551   77.6649  219.1912 H   0  0  0  0  0  0  0  0  0  0  0  0
  140.5886   76.9607  222.8780 H   0  0  0  0  0  0  0  0  0  0  0  0
  141.3870   78.5988  224.5553 H   0  0  0  0  0  0  0  0  0  0  0  0
  142.5180   81.2735  221.3985 H   0  0  0  0  0  0  0  0  0  0  0  0
  141.7177   79.6342  219.7539 H   0  0  0  0  0  0  0  0  0  0  0  0
  138.1416   68.8881  222.6982 H   0  0  0  0  0  0  0  0  0  0  0  0
  138.8551   67.5067  224.5977 H   0  0  0  0  0  0  0  0  0  0  0  0
  139.9261   67.3520  226.7002 H   0  0  0  0  0  0  0  0  0  0  0  0
  141.5680   70.8539  228.4881 H   0  0  0  0  0  0  0  0  0  0  0  0
  140.8520   72.2351  226.5833 H   0  0  0  0  0  0  0  0  0  0  0  0
  1  2  2  0
  2  3  1  0
  3  4  1  0
  4  5  1  0
  5  6  2  0
  5  7  1  0
  7  8  1  0
  8  9  1  0
  9 10  1  0
  9 11  1  0
 11 12  1  0
 12 13  1  0
 13 14  1  0
 14 15  2  0
 15 16  1  0
 16 17  2  0
 17 18  1  0
 17 19  1  0
 19 20  2  0
  2 21  1  0
 21 22  2  0
 22 23  1  0
 23 24  2  0
 24 25  1  0
 25 26  2  0
 26 27  1  0
 26 28  1  0
 28 29  2  0
 29 30  1  0
 30 31  2  0
 12  7  1  0
 20 14  1  0
 31 21  1  0
 30 24  1  0
  3 32  1  0
  4 33  1  0
  4 34  1  0
  8 35  1  0
  8 36  1  0
  9 37  1  1
 10 38  1  0
 11 39  1  0
 11 40  1  0
 12 41  1  6
 13 42  1  0
 13 43  1  0
 15 44  1  0
 16 45  1  0
 19 46  1  0
 20 47  1  0
 22 48  1  0
 23 49  1  0
 25 50  1  0
 28 51  1  0
 29 52  1  0
M  END
>  <smiles>  (48) 
O=C(NCC(=O)N1C[C@H](O)C[C@H]1Cc1ccc(Cl)cc1)c1ccc2cc(Cl)ccc2n1

>  <score_type>  (48) 
oracle

>  <origin>  (48) 
autodockgpu

>  <m_score__min__energy>  (48) 
-8.9499999999999993

>  <m_primary>  (48) 
energy

>  <rmsd>  (48) 
2.1457131785659973

>  <m_score__min__rmsd>  (48) 
2.1457131785659973

>  <meeko>  (48) 
{"free_energy": -8.25, "intermolecular_energy": -10.34, "internal_energy": -2.25, "cluster_size": 20, "cluster_id": 4, "rank_in_cluster": 7}

>  <energy>  (48) 
-7.65

>  <cluster_rmsd>  (48) 
0.0

>  <cluster>  (48) 
7

$$$$

     RDKit          3D

 52 55  0  0  0  0  0  0  0  0999 V2000
  138.5380   71.2680  220.8850 O   0  0  0  0  0  0  0  0  0  0  0  0
  138.7760   71.8400  221.9600 C   0  0  0  0  0  0  0  0  0  0  0  0
  138.7240   73.2430  222.1410 N   0  0  0  0  0  0  0  0  0  0  0  0
  138.3800   74.1370  221.0530 C   0  0  0  0  0  0  0  0  0  0  0  0
  139.4450   74.0080  220.0200 C   0  0  0  0  0  0  0  0  0  0  0  0
  139.0650   73.8800  218.8320 O   0  0  0  0  0  0  0  0  0  0  0  0
  140.7970   74.0370  220.4360 N   0  0  0  0  0  0  0  0  0  0  0  0
  141.7210   72.8870  220.4950 C   0  0  0  0  0  0  0  0  0  0  0  0
  142.9010   73.4980  219.7760 C   0  0  2  0  0  0  0  0  0  0  0  0
  144.0230   72.7380  220.0840 O   0  0  0  0  0  0  0  0  0  0  0  0
  143.0250   74.8460  220.4470 C   0  0  0  0  0  0  0  0  0  0  0  0
  141.6200   75.1440  220.8980 C   0  0  1  0  0  0  0  0  0  0  0  0
  141.1030   76.4760  220.4550 C   0  0  0  0  0  0  0  0  0  0  0  0
  141.3620   77.5930  221.3650 C   0  0  0  0  0  0  0  0  0  0  0  0
  141.1530   77.5650  222.7320 C   0  0  0  0  0  0  0  0  0  0  0  0
  141.4140   78.6760  223.5320 C   0  0  0  0  0  0  0  0  0  0  0  0
  141.8920   79.8410  222.9770 C   0  0  0  0  0  0  0  0  0  0  0  0
  142.2460   81.2760  223.9050 Cl  0  0  0  0  0  0  0  0  0  0  0  0
  142.1080   79.8920  221.6150 C   0  0  0  0  0  0  0  0  0  0  0  0
  141.8410   78.7790  220.8440 C   0  0  0  0  0  0  0  0  0  0  0  0
  139.1360   71.0250  223.1330 C   0  0  0  0  0  0  0  0  0  0  0  0
  138.8350   69.6710  223.1690 C   0  0  0  0  0  0  0  0  0  0  0  0
  139.1410   68.8550  224.2260 C   0  0  0  0  0  0  0  0  0  0  0  0
  139.7790   69.4090  225.3040 C   0  0  0  0  0  0  0  0  0  0  0  0
  140.0960   68.6210  226.3690 C   0  0  0  0  0  0  0  0  0  0  0  0
  140.7410   69.1660  227.4670 C   0  0  0  0  0  0  0  0  0  0  0  0
  141.1380   68.1360  228.8250 Cl  0  0  0  0  0  0  0  0  0  0  0  0
  141.0330   70.5000  227.4210 C   0  0  0  0  0  0  0  0  0  0  0  0
  140.7230   71.3210  226.3550 C   0  0  0  0  0  0  0  0  0  0  0  0
  140.0720   70.7620  225.2520 C   0  0  0  0  0  0  0  0  0  0  0  0
  139.7610   71.5410  224.2020 N   0  0  0  0  0  0  0  0  0  0  0  0
  138.9370   73.6660  223.0830 H   0  0  0  0  0  0  0  0  0  0  0  0
  137.4061   73.8541  220.6269 H   0  0  0  0  0  0  0  0  0  0  0  0
  138.3075   75.1749  221.4100 H   0  0  0  0  0  0  0  0  0  0  0  0
  141.9675   72.6081  221.5301 H   0  0  0  0  0  0  0  0  0  0  0  0
  141.3384   71.9491  220.0661 H   0  0  0  0  0  0  0  0  0  0  0  0
  142.7972   73.5546  218.6824 H   0  0  0  0  0  0  0  0  0  0  0  0
  143.8620   72.1520  220.8640 H   0  0  0  0  0  0  0  0  0  0  0  0
  143.7113   74.7965  221.3052 H   0  0  0  0  0  0  0  0  0  0  0  0
  143.4348   75.6200  219.7815 H   0  0  0  0  0  0  0  0  0  0  0  0
  141.5936   75.2262  221.9946 H   0  0  0  0  0  0  0  0  0  0  0  0
  141.5682   76.7140  219.4871 H   0  0  0  0  0  0  0  0  0  0  0  0
  140.0087   76.3730  220.4112 H   0  0  0  0  0  0  0  0  0  0  0  0
  140.7720   76.6446  223.1985 H   0  0  0  0  0  0  0  0  0  0  0  0
  141.2364   78.6212  224.6162 H   0  0  0  0  0  0  0  0  0  0  0  0
  142.4897   80.8119  221.1479 H   0  0  0  0  0  0  0  0  0  0  0  0
  142.0186   78.8395  219.7601 H   0  0  0  0  0  0  0  0  0  0  0  0
  138.3229   69.2288  222.3017 H   0  0  0  0  0  0  0  0  0  0  0  0
  138.8819   67.7861  224.2095 H   0  0  0  0  0  0  0  0  0  0  0  0
  139.8396   67.5514  226.3570 H   0  0  0  0  0  0  0  0  0  0  0  0
  141.5460   70.9469  228.2854 H   0  0  0  0  0  0  0  0  0  0  0  0
  140.9824   72.3898  226.3735 H   0  0  0  0  0  0  0  0  0  0  0  0
  1  2  2  0
  2  3  1  0
  3  4  1  0
  4  5  1  0
  5  6  2  0
  5  7  1  0
  7  8  1  0
  8  9  1  0
  9 10  1  0
  9 11  1  0
 11 12  1  0
 12 13  1  0
 13 14  1  0
 14 15  2  0
 15 16  1  0
 16 17  2  0
 17 18  1  0
 17 19  1  0
 19 20  2  0
  2 21  1  0
 21 22  2  0
 22 23  1  0
 23 24  2  0
 24 25  1  0
 25 26  2  0
 26 27  1  0
 26 28  1  0
 28 29  2  0
 29 30  1  0
 30 31  2  0
 12  7  1  0
 20 14  1  0
 31 21  1  0
 30 24  1  0
  3 32  1  0
  4 33  1  0
  4 34  1  0
  8 35  1  0
  8 36  1  0
  9 37  1  6
 10 38  1  0
 11 39  1  0
 11 40  1  0
 12 41  1  1
 13 42  1  0
 13 43  1  0
 15 44  1  0
 16 45  1  0
 19 46  1  0
 20 47  1  0
 22 48  1  0
 23 49  1  0
 25 50  1  0
 28 51  1  0
 29 52  1  0
M  END
>  <smiles>  (49) 
O=C(NCC(=O)N1C[C@H](O)C[C@H]1Cc1ccc(Cl)cc1)c1ccc2cc(Cl)ccc2n1

>  <score_type>  (49) 
oracle

>  <origin>  (49) 
autodockgpu

>  <m_score__min__energy>  (49) 
-8.9499999999999993

>  <m_primary>  (49) 
energy

>  <rmsd>  (49) 
2.227885068837662

>  <m_score__min__rmsd>  (49) 
2.227885068837662

>  <meeko>  (49) 
{"free_energy": -8.39, "intermolecular_energy": -10.48, "internal_energy": -1.76, "cluster_size": 8, "cluster_id": 1, "rank_in_cluster": 5}

>  <energy>  (49) 
-7.54

>  <cluster_rmsd>  (49) 
0.0

>  <cluster>  (49) 
8

$$$$

     RDKit          3D

 52 55  0  0  0  0  0  0  0  0999 V2000
  137.8540   70.7590  221.6770 O   0  0  0  0  0  0  0  0  0  0  0  0
  138.5520   71.3140  222.5400 C   0  0  0  0  0  0  0  0  0  0  0  0
  138.9390   72.6740  222.4950 N   0  0  0  0  0  0  0  0  0  0  0  0
  138.5350   73.5420  221.4050 C   0  0  0  0  0  0  0  0  0  0  0  0
  139.1040   74.8900  221.6770 C   0  0  0  0  0  0  0  0  0  0  0  0
  140.2380   74.9260  222.2110 O   0  0  0  0  0  0  0  0  0  0  0  0
  138.3430   76.0290  221.3230 N   0  0  0  0  0  0  0  0  0  0  0  0
  136.9790   76.3500  221.7870 C   0  0  0  0  0  0  0  0  0  0  0  0
  137.2060   77.7860  222.2030 C   0  0  2  0  0  0  0  0  0  0  0  0
  135.9630   78.4040  222.2800 O   0  0  0  0  0  0  0  0  0  0  0  0
  137.9600   78.3490  221.0220 C   0  0  0  0  0  0  0  0  0  0  0  0
  138.6660   77.1480  220.4520 C   0  0  1  0  0  0  0  0  0  0  0  0
  140.1400   77.3340  220.2670 C   0  0  0  0  0  0  0  0  0  0  0  0
  140.8120   78.1380  221.2880 C   0  0  0  0  0  0  0  0  0  0  0  0
  140.9000   77.8040  222.6270 C   0  0  0  0  0  0  0  0  0  0  0  0
  141.5510   78.6300  223.5430 C   0  0  0  0  0  0  0  0  0  0  0  0
  142.1280   79.8100  223.1330 C   0  0  0  0  0  0  0  0  0  0  0  0
  142.9610   80.8990  224.2120 Cl  0  0  0  0  0  0  0  0  0  0  0  0
  142.0520   80.1630  221.8020 C   0  0  0  0  0  0  0  0  0  0  0  0
  141.4030   79.3290  220.9150 C   0  0  0  0  0  0  0  0  0  0  0  0
  139.0180   70.5220  223.6920 C   0  0  0  0  0  0  0  0  0  0  0  0
  138.8200   69.1490  223.7300 C   0  0  0  0  0  0  0  0  0  0  0  0
  139.2270   68.3530  224.7670 C   0  0  0  0  0  0  0  0  0  0  0  0
  139.8640   68.9470  225.8240 C   0  0  0  0  0  0  0  0  0  0  0  0
  140.2800   68.1800  226.8700 C   0  0  0  0  0  0  0  0  0  0  0  0
  140.9260   68.7660  227.9460 C   0  0  0  0  0  0  0  0  0  0  0  0
  141.4510   67.7630  229.2790 Cl  0  0  0  0  0  0  0  0  0  0  0  0
  141.1160   70.1190  227.8980 C   0  0  0  0  0  0  0  0  0  0  0  0
  140.7040   70.9190  226.8520 C   0  0  0  0  0  0  0  0  0  0  0  0
  140.0530   70.3180  225.7710 C   0  0  0  0  0  0  0  0  0  0  0  0
  139.6440   71.0780  224.7400 N   0  0  0  0  0  0  0  0  0  0  0  0
  139.5330   73.0840  223.2620 H   0  0  0  0  0  0  0  0  0  0  0  0
  138.9240   73.1548  220.4517 H   0  0  0  0  0  0  0  0  0  0  0  0
  137.4385   73.5901  221.3321 H   0  0  0  0  0  0  0  0  0  0  0  0
  136.2375   76.2664  220.9788 H   0  0  0  0  0  0  0  0  0  0  0  0
  136.5755   75.6882  222.5676 H   0  0  0  0  0  0  0  0  0  0  0  0
  137.7280   77.9128  223.1629 H   0  0  0  0  0  0  0  0  0  0  0  0
  135.4130   78.2150  221.4800 H   0  0  0  0  0  0  0  0  0  0  0  0
  137.2689   78.7851  220.2857 H   0  0  0  0  0  0  0  0  0  0  0  0
  138.6495   79.1596  221.3004 H   0  0  0  0  0  0  0  0  0  0  0  0
  138.3136   76.9646  219.4262 H   0  0  0  0  0  0  0  0  0  0  0  0
  140.6077   76.3384  220.2591 H   0  0  0  0  0  0  0  0  0  0  0  0
  140.2557   77.8893  219.3245 H   0  0  0  0  0  0  0  0  0  0  0  0
  140.4462   76.8654  222.9777 H   0  0  0  0  0  0  0  0  0  0  0  0
  141.6036   78.3358  224.6016 H   0  0  0  0  0  0  0  0  0  0  0  0
  142.5051   81.1017  221.4505 H   0  0  0  0  0  0  0  0  0  0  0  0
  141.3539   79.6278  219.8575 H   0  0  0  0  0  0  0  0  0  0  0  0
  138.3079   68.6740  222.8802 H   0  0  0  0  0  0  0  0  0  0  0  0
  139.0476   67.2678  224.7516 H   0  0  0  0  0  0  0  0  0  0  0  0
  140.1028   67.0944  226.8601 H   0  0  0  0  0  0  0  0  0  0  0  0
  141.6285   70.5990  228.7447 H   0  0  0  0  0  0  0  0  0  0  0  0
  140.8836   72.0041  226.8685 H   0  0  0  0  0  0  0  0  0  0  0  0
  1  2  2  0
  2  3  1  0
  3  4  1  0
  4  5  1  0
  5  6  2  0
  5  7  1  0
  7  8  1  0
  8  9  1  0
  9 10  1  0
  9 11  1  0
 11 12  1  0
 12 13  1  0
 13 14  1  0
 14 15  2  0
 15 16  1  0
 16 17  2  0
 17 18  1  0
 17 19  1  0
 19 20  2  0
  2 21  1  0
 21 22  2  0
 22 23  1  0
 23 24  2  0
 24 25  1  0
 25 26  2  0
 26 27  1  0
 26 28  1  0
 28 29  2  0
 29 30  1  0
 30 31  2  0
 12  7  1  0
 20 14  1  0
 31 21  1  0
 30 24  1  0
  3 32  1  0
  4 33  1  0
  4 34  1  0
  8 35  1  0
  8 36  1  0
  9 37  1  1
 10 38  1  0
 11 39  1  0
 11 40  1  0
 12 41  1  6
 13 42  1  0
 13 43  1  0
 15 44  1  0
 16 45  1  0
 19 46  1  0
 20 47  1  0
 22 48  1  0
 23 49  1  0
 25 50  1  0
 28 51  1  0
 29 52  1  0
M  END
>  <smiles>  (50) 
O=C(NCC(=O)N1C[C@H](O)C[C@H]1Cc1ccc(Cl)cc1)c1ccc2cc(Cl)ccc2n1

>  <score_type>  (50) 
oracle

>  <origin>  (50) 
autodockgpu

>  <m_score__min__energy>  (50) 
-8.9499999999999993

>  <m_primary>  (50) 
energy

>  <rmsd>  (50) 
2.527856286604703

>  <m_score__min__rmsd>  (50) 
2.527856286604703

>  <meeko>  (50) 
{"free_energy": -8.3, "intermolecular_energy": -10.39, "internal_energy": -2.23, "cluster_size": 20, "cluster_id": 4, "rank_in_cluster": 4}

>  <energy>  (50) 
-7.24

>  <cluster_rmsd>  (50) 
0.0

>  <cluster>  (50) 
9

$$$$
