
     RDKit          3D

 56 59  0  0  0  0  0  0  0  0999 V2000
  139.3890   76.0140  222.7910 O   0  0  0  0  0  0  0  0  0  0  0  0
  140.4560   76.4560  222.2960 C   0  0  0  0  0  0  0  0  0  0  0  0
  141.3860   75.5800  221.6700 N   0  0  0  0  0  0  0  0  0  0  0  0
  141.1450   74.1640  221.5790 C   0  0  0  0  0  0  0  0  0  0  0  0
  141.6490   73.5790  220.3090 C   0  0  0  0  0  0  0  0  0  0  0  0
  140.8330   73.0340  219.5560 O   0  0  0  0  0  0  0  0  0  0  0  0
  143.0450   73.6950  220.0590 N   0  0  0  0  0  0  0  0  0  0  0  0
  144.1290   72.8150  220.4600 C   0  0  0  0  0  0  0  0  0  0  0  0
  145.0370   72.8400  219.2350 C   0  0  2  0  0  0  0  0  0  0  0  0
  146.3250   73.2350  219.5460 O   0  0  0  0  0  0  0  0  0  0  0  0
  144.4560   73.9090  218.3040 C   0  0  0  0  0  0  0  0  0  0  0  0
  143.7300   74.7740  219.3110 C   0  0  1  0  0  0  0  0  0  0  0  0
  142.7600   75.7090  218.6920 C   0  0  0  0  0  0  0  0  0  0  0  0
  142.7550   76.9210  219.3490 O   0  0  0  0  0  0  0  0  0  0  0  0
  141.6350   77.7000  219.1930 C   0  0  0  0  0  0  0  0  0  0  0  0
  141.9560   78.9760  218.4510 C   0  0  0  0  0  0  0  0  0  0  0  0
  142.2960   80.1330  219.1210 C   0  0  0  0  0  0  0  0  0  0  0  0
  142.5710   81.2430  218.3710 C   0  0  0  0  0  0  0  0  0  0  0  0
  142.5280   81.2680  216.9880 C   0  0  0  0  0  0  0  0  0  0  0  0
  142.8940   82.7280  216.0880 Cl  0  0  0  0  0  0  0  0  0  0  0  0
  142.1860   80.1040  216.3260 C   0  0  0  0  0  0  0  0  0  0  0  0
  141.9000   78.9560  217.0550 C   0  0  0  0  0  0  0  0  0  0  0  0
  140.7780   77.8860  222.3460 C   0  0  0  0  0  0  0  0  0  0  0  0
  141.7880   78.3770  223.1350 C   0  0  0  0  0  0  0  0  0  0  0  0
  142.0870   79.7360  223.1760 C   0  0  0  0  0  0  0  0  0  0  0  0
  141.3480   80.6130  222.4040 C   0  0  0  0  0  0  0  0  0  0  0  0
  141.5950   81.9820  222.4000 C   0  0  0  0  0  0  0  0  0  0  0  0
  140.8320   82.8040  221.6150 C   0  0  0  0  0  0  0  0  0  0  0  0
  141.0410   84.1560  221.5800 F   0  0  0  0  0  0  0  0  0  0  0  0
  139.8300   82.2680  220.8410 C   0  0  0  0  0  0  0  0  0  0  0  0
  139.5520   80.9150  220.8170 C   0  0  0  0  0  0  0  0  0  0  0  0
  140.3360   80.1070  221.6170 C   0  0  0  0  0  0  0  0  0  0  0  0
  140.0870   78.7880  221.6120 N   0  0  0  0  0  0  0  0  0  0  0  0
  142.2740   76.0030  221.2650 H   0  0  0  0  0  0  0  0  0  0  0  0
  141.6488   73.6661  222.4206 H   0  0  0  0  0  0  0  0  0  0  0  0
  140.0564   74.0087  221.6085 H   0  0  0  0  0  0  0  0  0  0  0  0
  144.6484   73.2021  221.3490 H   0  0  0  0  0  0  0  0  0  0  0  0
  143.7958   71.8051  220.7411 H   0  0  0  0  0  0  0  0  0  0  0  0
  145.0819   71.8321  218.7967 H   0  0  0  0  0  0  0  0  0  0  0  0
  146.5310   74.1730  219.3430 H   0  0  0  0  0  0  0  0  0  0  0  0
  145.2465   74.4677  217.7816 H   0  0  0  0  0  0  0  0  0  0  0  0
  143.8261   73.5198  217.4905 H   0  0  0  0  0  0  0  0  0  0  0  0
  144.3728   75.4498  219.8942 H   0  0  0  0  0  0  0  0  0  0  0  0
  143.0375   75.8711  217.6400 H   0  0  0  0  0  0  0  0  0  0  0  0
  141.7546   75.2682  218.7614 H   0  0  0  0  0  0  0  0  0  0  0  0
  140.8811   77.1348  218.6253 H   0  0  0  0  0  0  0  0  0  0  0  0
  141.2525   77.9637  220.1901 H   0  0  0  0  0  0  0  0  0  0  0  0
  142.3442   80.1617  220.2196 H   0  0  0  0  0  0  0  0  0  0  0  0
  142.8421   82.1699  218.8977 H   0  0  0  0  0  0  0  0  0  0  0  0
  142.1404   80.0864  215.2271 H   0  0  0  0  0  0  0  0  0  0  0  0
  141.6284   78.0278  216.5309 H   0  0  0  0  0  0  0  0  0  0  0  0
  142.3756   77.6796  223.7500 H   0  0  0  0  0  0  0  0  0  0  0  0
  142.9016   80.1076  223.8150 H   0  0  0  0  0  0  0  0  0  0  0  0
  142.3983   82.4013  223.0236 H   0  0  0  0  0  0  0  0  0  0  0  0
  139.2262   82.9428  220.2165 H   0  0  0  0  0  0  0  0  0  0  0  0
  138.7466   80.5019  220.1920 H   0  0  0  0  0  0  0  0  0  0  0  0
  1  2  2  0
  2  3  1  0
  3  4  1  0
  4  5  1  0
  5  6  2  0
  5  7  1  0
  7  8  1  0
  8  9  1  0
  9 10  1  0
  9 11  1  0
 11 12  1  0
 12 13  1  0
 13 14  1  0
 14 15  1  0
 15 16  1  0
 16 17  2  0
 17 18  1  0
 18 19  2  0
 19 20  1  0
 19 21  1  0
 21 22  2  0
  2 23  1  0
 23 24  2  0
 24 25  1  0
 25 26  2  0
 26 27  1  0
 27 28  2  0
 28 29  1  0
 28 30  1  0
 30 31  2  0
 31 32  1  0
 32 33  2  0
 12  7  1  0
 22 16  1  0
 33 23  1  0
 32 26  1  0
  3 34  1  0
  4 35  1  0
  4 36  1  0
  8 37  1  0
  8 38  1  0
  9 39  1  6
 10 40  1  0
 11 41  1  0
 11 42  1  0
 12 43  1  1
 13 44  1  0
 13 45  1  0
 15 46  1  0
 15 47  1  0
 17 48  1  0
 18 49  1  0
 21 50  1  0
 22 51  1  0
 24 52  1  0
 25 53  1  0
 27 54  1  0
 30 55  1  0
 31 56  1  0
M  END
>  <smiles>  (1) 
O=C(NCC(=O)N1C[C@H](O)C[C@H]1COCc1ccc(Cl)cc1)c1ccc2cc(F)ccc2n1

>  <score_type>  (1) 
oracle

>  <origin>  (1) 
autodockgpu

>  <m_score__min__energy>  (1) 
-9.4600000000000009

>  <m_primary>  (1) 
energy

>  <rmsd>  (1) 
8.940967995683554

>  <m_score__min__rmsd>  (1) 
8.940967995683554

>  <meeko>  (1) 
{"free_energy": -6.83, "intermolecular_energy": -9.51, "internal_energy": -3.21, "cluster_size": 14, "cluster_id": 9, "rank_in_cluster": 3}

>  <energy>  (1) 
-9.46

>  <cluster_rmsd>  (1) 
0.0

>  <cluster>  (1) 
1

$$$$

     RDKit          3D

 56 59  0  0  0  0  0  0  0  0999 V2000
  139.5860   73.6410  222.4780 O   0  0  0  0  0  0  0  0  0  0  0  0
  139.9800   72.4560  222.3400 C   0  0  0  0  0  0  0  0  0  0  0  0
  140.4400   71.9830  221.0790 N   0  0  0  0  0  0  0  0  0  0  0  0
  140.4730   72.8360  219.9200 C   0  0  0  0  0  0  0  0  0  0  0  0
  141.8020   72.8450  219.2550 C   0  0  0  0  0  0  0  0  0  0  0  0
  141.8460   72.6320  218.0370 O   0  0  0  0  0  0  0  0  0  0  0  0
  142.9310   73.1020  220.0830 N   0  0  0  0  0  0  0  0  0  0  0  0
  143.8320   72.1630  220.7300 C   0  0  0  0  0  0  0  0  0  0  0  0
  145.1830   72.8540  220.5780 C   0  0  2  0  0  0  0  0  0  0  0  0
  145.8130   73.0460  221.7940 O   0  0  0  0  0  0  0  0  0  0  0  0
  144.8830   74.2440  220.0070 C   0  0  0  0  0  0  0  0  0  0  0  0
  143.4580   74.4260  220.4850 C   0  0  1  0  0  0  0  0  0  0  0  0
  142.7450   75.5290  219.7980 C   0  0  0  0  0  0  0  0  0  0  0  0
  141.4650   75.6710  220.2910 O   0  0  0  0  0  0  0  0  0  0  0  0
  141.3220   75.6030  221.6560 C   0  0  0  0  0  0  0  0  0  0  0  0
  140.6800   76.8570  222.2010 C   0  0  0  0  0  0  0  0  0  0  0  0
  141.4390   77.9220  222.6400 C   0  0  0  0  0  0  0  0  0  0  0  0
  140.7750   79.0190  223.1180 C   0  0  0  0  0  0  0  0  0  0  0  0
  139.3970   79.1160  223.1840 C   0  0  0  0  0  0  0  0  0  0  0  0
  138.6110   80.5540  223.8100 Cl  0  0  0  0  0  0  0  0  0  0  0  0
  138.6460   78.0440  222.7430 C   0  0  0  0  0  0  0  0  0  0  0  0
  139.2850   76.9120  222.2500 C   0  0  0  0  0  0  0  0  0  0  0  0
  139.9800   71.5220  223.4710 C   0  0  0  0  0  0  0  0  0  0  0  0
  139.4690   70.2520  223.3640 C   0  0  0  0  0  0  0  0  0  0  0  0
  139.4730   69.3720  224.4440 C   0  0  0  0  0  0  0  0  0  0  0  0
  140.0030   69.7870  225.6510 C   0  0  0  0  0  0  0  0  0  0  0  0
  140.0360   68.9570  226.7660 C   0  0  0  0  0  0  0  0  0  0  0  0
  140.5740   69.4210  227.9370 C   0  0  0  0  0  0  0  0  0  0  0  0
  140.6270   68.6380  229.0590 F   0  0  0  0  0  0  0  0  0  0  0  0
  141.0740   70.7000  227.9980 C   0  0  0  0  0  0  0  0  0  0  0  0
  141.0590   71.5560  226.9130 C   0  0  0  0  0  0  0  0  0  0  0  0
  140.5120   71.0640  225.7430 C   0  0  0  0  0  0  0  0  0  0  0  0
  140.4850   71.8750  224.6740 N   0  0  0  0  0  0  0  0  0  0  0  0
  140.7640   70.9720  221.0140 H   0  0  0  0  0  0  0  0  0  0  0  0
  139.7211   72.4812  219.1998 H   0  0  0  0  0  0  0  0  0  0  0  0
  140.2611   73.8620  220.2552 H   0  0  0  0  0  0  0  0  0  0  0  0
  143.5713   72.0261  221.7898 H   0  0  0  0  0  0  0  0  0  0  0  0
  143.8021   71.1526  220.2961 H   0  0  0  0  0  0  0  0  0  0  0  0
  145.8364   72.2353  219.9452 H   0  0  0  0  0  0  0  0  0  0  0  0
  145.9530   72.2300  222.3210 H   0  0  0  0  0  0  0  0  0  0  0  0
  145.5538   75.0096  220.4240 H   0  0  0  0  0  0  0  0  0  0  0  0
  145.0211   74.3366  218.9196 H   0  0  0  0  0  0  0  0  0  0  0  0
  143.3528   74.6988  221.5454 H   0  0  0  0  0  0  0  0  0  0  0  0
  143.2973   76.4673  219.9547 H   0  0  0  0  0  0  0  0  0  0  0  0
  142.6839   75.2931  218.7253 H   0  0  0  0  0  0  0  0  0  0  0  0
  140.6908   74.7381  221.9080 H   0  0  0  0  0  0  0  0  0  0  0  0
  142.3203   75.4988  222.1061 H   0  0  0  0  0  0  0  0  0  0  0  0
  142.5381   77.8906  222.6070 H   0  0  0  0  0  0  0  0  0  0  0  0
  141.3719   79.8732  223.4701 H   0  0  0  0  0  0  0  0  0  0  0  0
  137.5475   78.0857  222.7817 H   0  0  0  0  0  0  0  0  0  0  0  0
  138.6901   76.0567  221.8973 H   0  0  0  0  0  0  0  0  0  0  0  0
  139.0467   69.9218  222.4034 H   0  0  0  0  0  0  0  0  0  0  0  0
  139.0591   68.3585  224.3373 H   0  0  0  0  0  0  0  0  0  0  0  0
  139.6329   67.9351  226.7081 H   0  0  0  0  0  0  0  0  0  0  0  0
  141.5024   71.0558  228.9466 H   0  0  0  0  0  0  0  0  0  0  0  0
  141.4621   72.5774  226.9774 H   0  0  0  0  0  0  0  0  0  0  0  0
  1  2  2  0
  2  3  1  0
  3  4  1  0
  4  5  1  0
  5  6  2  0
  5  7  1  0
  7  8  1  0
  8  9  1  0
  9 10  1  0
  9 11  1  0
 11 12  1  0
 12 13  1  0
 13 14  1  0
 14 15  1  0
 15 16  1  0
 16 17  2  0
 17 18  1  0
 18 19  2  0
 19 20  1  0
 19 21  1  0
 21 22  2  0
  2 23  1  0
 23 24  2  0
 24 25  1  0
 25 26  2  0
 26 27  1  0
 27 28  2  0
 28 29  1  0
 28 30  1  0
 30 31  2  0
 31 32  1  0
 32 33  2  0
 12  7  1  0
 22 16  1  0
 33 23  1  0
 32 26  1  0
  3 34  1  0
  4 35  1  0
  4 36  1  0
  8 37  1  0
  8 38  1  0
  9 39  1  6
 10 40  1  0
 11 41  1  0
 11 42  1  0
 12 43  1  1
 13 44  1  0
 13 45  1  0
 15 46  1  0
 15 47  1  0
 17 48  1  0
 18 49  1  0
 21 50  1  0
 22 51  1  0
 24 52  1  0
 25 53  1  0
 27 54  1  0
 30 55  1  0
 31 56  1  0
M  END
>  <smiles>  (2) 
O=C(NCC(=O)N1C[C@H](O)C[C@H]1COCc1ccc(Cl)cc1)c1ccc2cc(F)ccc2n1

>  <score_type>  (2) 
oracle

>  <origin>  (2) 
autodockgpu

>  <m_score__min__energy>  (2) 
-9.4600000000000009

>  <m_primary>  (2) 
energy

>  <rmsd>  (2) 
3.4734236988579132

>  <m_score__min__rmsd>  (2) 
3.4734236988579132

>  <meeko>  (2) 
{"free_energy": -8.63, "intermolecular_energy": -11.32, "internal_energy": -1.85, "cluster_size": 20, "cluster_id": 1, "rank_in_cluster": 8}

>  <energy>  (2) 
-9.35

>  <cluster_rmsd>  (2) 
0.69

>  <cluster>  (2) 
1

$$$$

     RDKit          3D

 56 59  0  0  0  0  0  0  0  0999 V2000
  138.2420   77.6740  222.3960 O   0  0  0  0  0  0  0  0  0  0  0  0
  138.4360   76.4330  222.4050 C   0  0  0  0  0  0  0  0  0  0  0  0
  137.4500   75.5450  222.9200 N   0  0  0  0  0  0  0  0  0  0  0  0
  136.2010   76.0280  223.4480 C   0  0  0  0  0  0  0  0  0  0  0  0
  135.1010   75.0400  223.3090 C   0  0  0  0  0  0  0  0  0  0  0  0
  134.4940   74.9910  222.2310 O   0  0  0  0  0  0  0  0  0  0  0  0
  134.8300   74.2190  224.4390 N   0  0  0  0  0  0  0  0  0  0  0  0
  134.1880   74.5640  225.6960 C   0  0  0  0  0  0  0  0  0  0  0  0
  133.3560   73.3190  225.9870 C   0  0  2  0  0  0  0  0  0  0  0  0
  133.6500   72.7700  227.2220 O   0  0  0  0  0  0  0  0  0  0  0  0
  133.7630   72.2860  224.9320 C   0  0  0  0  0  0  0  0  0  0  0  0
  135.1520   72.7820  224.5950 C   0  0  1  0  0  0  0  0  0  0  0  0
  135.6940   72.2050  223.3400 C   0  0  0  0  0  0  0  0  0  0  0  0
  137.0020   72.5940  223.1440 O   0  0  0  0  0  0  0  0  0  0  0  0
  137.8800   71.6150  222.7470 C   0  0  0  0  0  0  0  0  0  0  0  0
  138.6020   71.0150  223.9290 C   0  0  0  0  0  0  0  0  0  0  0  0
  139.7950   71.5370  224.3850 C   0  0  0  0  0  0  0  0  0  0  0  0
  140.3810   70.9320  225.4620 C   0  0  0  0  0  0  0  0  0  0  0  0
  139.8470   69.8340  226.1140 C   0  0  0  0  0  0  0  0  0  0  0  0
  140.6540   69.1070  227.4920 Cl  0  0  0  0  0  0  0  0  0  0  0  0
  138.6530   69.3190  225.6500 C   0  0  0  0  0  0  0  0  0  0  0  0
  138.0270   69.9080  224.5570 C   0  0  0  0  0  0  0  0  0  0  0  0
  139.6810   75.8570  221.8860 C   0  0  0  0  0  0  0  0  0  0  0  0
  140.6480   76.6310  221.2930 C   0  0  0  0  0  0  0  0  0  0  0  0
  141.8280   76.0760  220.8030 C   0  0  0  0  0  0  0  0  0  0  0  0
  142.0290   74.7130  220.9150 C   0  0  0  0  0  0  0  0  0  0  0  0
  143.1840   74.0970  220.4450 C   0  0  0  0  0  0  0  0  0  0  0  0
  143.3300   72.7420  220.5830 C   0  0  0  0  0  0  0  0  0  0  0  0
  144.4510   72.0950  220.1360 F   0  0  0  0  0  0  0  0  0  0  0  0
  142.3350   72.0070  221.1820 C   0  0  0  0  0  0  0  0  0  0  0  0
  141.1730   72.5810  221.6620 C   0  0  0  0  0  0  0  0  0  0  0  0
  141.0500   73.9480  221.5110 C   0  0  0  0  0  0  0  0  0  0  0  0
  139.9300   74.5300  221.9680 N   0  0  0  0  0  0  0  0  0  0  0  0
  137.6610   74.5030  222.9060 H   0  0  0  0  0  0  0  0  0  0  0  0
  136.3352   76.2577  224.5153 H   0  0  0  0  0  0  0  0  0  0  0  0
  135.9199   76.9222  222.8723 H   0  0  0  0  0  0  0  0  0  0  0  0
  134.9310   74.7409  226.4876 H   0  0  0  0  0  0  0  0  0  0  0  0
  133.5952   75.4894  225.6490 H   0  0  0  0  0  0  0  0  0  0  0  0
  132.2888   73.5851  225.9731 H   0  0  0  0  0  0  0  0  0  0  0  0
  133.0470   73.0390  227.9490 H   0  0  0  0  0  0  0  0  0  0  0  0
  133.7833   71.2670  225.3459 H   0  0  0  0  0  0  0  0  0  0  0  0
  133.0794   72.2086  224.0737 H   0  0  0  0  0  0  0  0  0  0  0  0
  135.9293   72.5260  225.3300 H   0  0  0  0  0  0  0  0  0  0  0  0
  135.6498   71.1075  223.3998 H   0  0  0  0  0  0  0  0  0  0  0  0
  135.0892   72.5687  222.4962 H   0  0  0  0  0  0  0  0  0  0  0  0
  137.3219   70.8221  222.2276 H   0  0  0  0  0  0  0  0  0  0  0  0
  138.6260   72.0678  222.0773 H   0  0  0  0  0  0  0  0  0  0  0  0
  140.2581   72.4087  223.8995 H   0  0  0  0  0  0  0  0  0  0  0  0
  141.3324   71.3418  225.8320 H   0  0  0  0  0  0  0  0  0  0  0  0
  138.1990   68.4466  226.1428 H   0  0  0  0  0  0  0  0  0  0  0  0
  137.0752   69.5005  224.1855 H   0  0  0  0  0  0  0  0  0  0  0  0
  140.4869   77.7154  221.2027 H   0  0  0  0  0  0  0  0  0  0  0  0
  142.5904   76.7145  220.3328 H   0  0  0  0  0  0  0  0  0  0  0  0
  143.9744   74.6935  219.9660 H   0  0  0  0  0  0  0  0  0  0  0  0
  142.4687   70.9199  221.2833 H   0  0  0  0  0  0  0  0  0  0  0  0
  140.3860   71.9793  222.1401 H   0  0  0  0  0  0  0  0  0  0  0  0
  1  2  2  0
  2  3  1  0
  3  4  1  0
  4  5  1  0
  5  6  2  0
  5  7  1  0
  7  8  1  0
  8  9  1  0
  9 10  1  0
  9 11  1  0
 11 12  1  0
 12 13  1  0
 13 14  1  0
 14 15  1  0
 15 16  1  0
 16 17  2  0
 17 18  1  0
 18 19  2  0
 19 20  1  0
 19 21  1  0
 21 22  2  0
  2 23  1  0
 23 24  2  0
 24 25  1  0
 25 26  2  0
 26 27  1  0
 27 28  2  0
 28 29  1  0
 28 30  1  0
 30 31  2  0
 31 32  1  0
 32 33  2  0
 12  7  1  0
 22 16  1  0
 33 23  1  0
 32 26  1  0
  3 34  1  0
  4 35  1  0
  4 36  1  0
  8 37  1  0
  8 38  1  0
  9 39  1  1
 10 40  1  0
 11 41  1  0
 11 42  1  0
 12 43  1  1
 13 44  1  0
 13 45  1  0
 15 46  1  0
 15 47  1  0
 17 48  1  0
 18 49  1  0
 21 50  1  0
 22 51  1  0
 24 52  1  0
 25 53  1  0
 27 54  1  0
 30 55  1  0
 31 56  1  0
M  END
>  <smiles>  (3) 
O=C(NCC(=O)N1C[C@H](O)C[C@H]1COCc1ccc(Cl)cc1)c1ccc2cc(F)ccc2n1

>  <score_type>  (3) 
oracle

>  <origin>  (3) 
autodockgpu

>  <m_score__min__energy>  (3) 
-9.4600000000000009

>  <m_primary>  (3) 
energy

>  <rmsd>  (3) 
7.9571219984700745

>  <m_score__min__rmsd>  (3) 
7.9571219984700745

>  <meeko>  (3) 
{"free_energy": -7.33, "intermolecular_energy": -10.01, "internal_energy": -3.18, "cluster_size": 3, "cluster_id": 7, "rank_in_cluster": 2}

>  <energy>  (3) 
-9.31

>  <cluster_rmsd>  (3) 
0.51

>  <cluster>  (3) 
1

$$$$

     RDKit          3D

 56 59  0  0  0  0  0  0  0  0999 V2000
  140.9880   72.0060  221.0480 O   0  0  0  0  0  0  0  0  0  0  0  0
  140.4240   72.4800  222.0650 C   0  0  0  0  0  0  0  0  0  0  0  0
  140.0550   73.8530  222.1210 N   0  0  0  0  0  0  0  0  0  0  0  0
  140.3100   74.7480  221.0220 C   0  0  0  0  0  0  0  0  0  0  0  0
  141.7550   75.0460  220.8510 C   0  0  0  0  0  0  0  0  0  0  0  0
  142.5730   74.1840  221.1940 O   0  0  0  0  0  0  0  0  0  0  0  0
  142.0870   76.3160  220.3000 N   0  0  0  0  0  0  0  0  0  0  0  0
  142.8660   76.6310  219.1150 C   0  0  0  0  0  0  0  0  0  0  0  0
  142.1070   77.8200  218.5350 C   0  0  2  0  0  0  0  0  0  0  0  0
  142.9160   78.9300  218.3720 O   0  0  0  0  0  0  0  0  0  0  0  0
  141.0470   78.1910  219.5770 C   0  0  0  0  0  0  0  0  0  0  0  0
  141.7020   77.6450  220.8280 C   0  0  1  0  0  0  0  0  0  0  0  0
  140.7690   77.5270  221.9750 C   0  0  0  0  0  0  0  0  0  0  0  0
  141.3970   77.8590  223.1560 O   0  0  0  0  0  0  0  0  0  0  0  0
  142.2130   78.9640  223.1280 C   0  0  0  0  0  0  0  0  0  0  0  0
  141.4630   80.1850  222.6520 C   0  0  0  0  0  0  0  0  0  0  0  0
  140.2190   80.5080  223.1540 C   0  0  0  0  0  0  0  0  0  0  0  0
  139.6120   81.6320  222.6660 C   0  0  0  0  0  0  0  0  0  0  0  0
  140.1720   82.4560  221.7070 C   0  0  0  0  0  0  0  0  0  0  0  0
  139.3360   83.8850  221.1260 Cl  0  0  0  0  0  0  0  0  0  0  0  0
  141.4180   82.1240  221.2110 C   0  0  0  0  0  0  0  0  0  0  0  0
  142.0670   80.9890  221.6820 C   0  0  0  0  0  0  0  0  0  0  0  0
  140.1280   71.6370  223.2290 C   0  0  0  0  0  0  0  0  0  0  0  0
  139.3110   70.5380  223.1400 C   0  0  0  0  0  0  0  0  0  0  0  0
  139.0350   69.7430  224.2500 C   0  0  0  0  0  0  0  0  0  0  0  0
  139.5970   70.0700  225.4700 C   0  0  0  0  0  0  0  0  0  0  0  0
  139.3620   69.3180  226.6160 C   0  0  0  0  0  0  0  0  0  0  0  0
  139.9450   69.6880  227.7990 C   0  0  0  0  0  0  0  0  0  0  0  0
  139.7410   68.9770  228.9510 F   0  0  0  0  0  0  0  0  0  0  0  0
  140.7570   70.7980  227.8400 C   0  0  0  0  0  0  0  0  0  0  0  0
  141.0160   71.5710  226.7240 C   0  0  0  0  0  0  0  0  0  0  0  0
  140.4150   71.1770  225.5440 C   0  0  0  0  0  0  0  0  0  0  0  0
  140.6510   71.9110  224.4460 N   0  0  0  0  0  0  0  0  0  0  0  0
  139.5800   74.2070  223.0040 H   0  0  0  0  0  0  0  0  0  0  0  0
  139.9337   74.2863  220.0972 H   0  0  0  0  0  0  0  0  0  0  0  0
  139.7978   75.6969  221.2396 H   0  0  0  0  0  0  0  0  0  0  0  0
  143.8979   76.9068  219.3781 H   0  0  0  0  0  0  0  0  0  0  0  0
  142.9653   75.7877  218.4157 H   0  0  0  0  0  0  0  0  0  0  0  0
  141.6994   77.5434  217.5515 H   0  0  0  0  0  0  0  0  0  0  0  0
  143.3590   78.9940  217.4980 H   0  0  0  0  0  0  0  0  0  0  0  0
  140.8972   79.2791  219.6368 H   0  0  0  0  0  0  0  0  0  0  0  0
  140.0403   77.7975  219.3728 H   0  0  0  0  0  0  0  0  0  0  0  0
  142.5103   78.2664  221.2409 H   0  0  0  0  0  0  0  0  0  0  0  0
  139.9169   78.2046  221.8173 H   0  0  0  0  0  0  0  0  0  0  0  0
  140.4238   76.4847  222.0415 H   0  0  0  0  0  0  0  0  0  0  0  0
  142.5977   79.1517  224.1413 H   0  0  0  0  0  0  0  0  0  0  0  0
  143.0397   78.7687  222.4292 H   0  0  0  0  0  0  0  0  0  0  0  0
  139.7333   79.8842  223.9188 H   0  0  0  0  0  0  0  0  0  0  0  0
  138.6194   81.8964  223.0596 H   0  0  0  0  0  0  0  0  0  0  0  0
  141.8943   82.7554  220.4465 H   0  0  0  0  0  0  0  0  0  0  0  0
  143.0596   80.7227  221.2898 H   0  0  0  0  0  0  0  0  0  0  0  0
  138.8635   70.2788  222.1692 H   0  0  0  0  0  0  0  0  0  0  0  0
  138.3779   68.8657  224.1570 H   0  0  0  0  0  0  0  0  0  0  0  0
  138.7120   68.4316  226.5727 H   0  0  0  0  0  0  0  0  0  0  0  0
  141.2178   71.0811  228.7979 H   0  0  0  0  0  0  0  0  0  0  0  0
  141.6680   72.4556  226.7728 H   0  0  0  0  0  0  0  0  0  0  0  0
  1  2  2  0
  2  3  1  0
  3  4  1  0
  4  5  1  0
  5  6  2  0
  5  7  1  0
  7  8  1  0
  8  9  1  0
  9 10  1  0
  9 11  1  0
 11 12  1  0
 12 13  1  0
 13 14  1  0
 14 15  1  0
 15 16  1  0
 16 17  2  0
 17 18  1  0
 18 19  2  0
 19 20  1  0
 19 21  1  0
 21 22  2  0
  2 23  1  0
 23 24  2  0
 24 25  1  0
 25 26  2  0
 26 27  1  0
 27 28  2  0
 28 29  1  0
 28 30  1  0
 30 31  2  0
 31 32  1  0
 32 33  2  0
 12  7  1  0
 22 16  1  0
 33 23  1  0
 32 26  1  0
  3 34  1  0
  4 35  1  0
  4 36  1  0
  8 37  1  0
  8 38  1  0
  9 39  1  6
 10 40  1  0
 11 41  1  0
 11 42  1  0
 12 43  1  1
 13 44  1  0
 13 45  1  0
 15 46  1  0
 15 47  1  0
 17 48  1  0
 18 49  1  0
 21 50  1  0
 22 51  1  0
 24 52  1  0
 25 53  1  0
 27 54  1  0
 30 55  1  0
 31 56  1  0
M  END
>  <smiles>  (4) 
O=C(NCC(=O)N1C[C@H](O)C[C@H]1COCc1ccc(Cl)cc1)c1ccc2cc(F)ccc2n1

>  <score_type>  (4) 
oracle

>  <origin>  (4) 
autodockgpu

>  <m_score__min__energy>  (4) 
-9.4600000000000009

>  <m_primary>  (4) 
energy

>  <rmsd>  (4) 
2.133677957183224

>  <m_score__min__rmsd>  (4) 
2.133677957183224

>  <meeko>  (4) 
{"free_energy": -8.41, "intermolecular_energy": -11.1, "internal_energy": -1.44, "cluster_size": 3, "cluster_id": 2, "rank_in_cluster": 1}

>  <energy>  (4) 
-8.69

>  <cluster_rmsd>  (4) 
1.27

>  <cluster>  (4) 
1

$$$$

     RDKit          3D

 56 59  0  0  0  0  0  0  0  0999 V2000
  139.2900   70.3820  221.5930 O   0  0  0  0  0  0  0  0  0  0  0  0
  139.4510   71.2780  222.4590 C   0  0  0  0  0  0  0  0  0  0  0  0
  139.2200   72.6460  222.1430 N   0  0  0  0  0  0  0  0  0  0  0  0
  138.7970   73.0570  220.8300 C   0  0  0  0  0  0  0  0  0  0  0  0
  139.9250   73.1450  219.8680 C   0  0  0  0  0  0  0  0  0  0  0  0
  139.6570   73.2660  218.6660 O   0  0  0  0  0  0  0  0  0  0  0  0
  141.2390   73.0830  220.4120 N   0  0  0  0  0  0  0  0  0  0  0  0
  142.2040   71.9980  220.3660 C   0  0  0  0  0  0  0  0  0  0  0  0
  143.5210   72.7440  220.1730 C   0  0  2  0  0  0  0  0  0  0  0  0
  144.4430   72.4420  221.1580 O   0  0  0  0  0  0  0  0  0  0  0  0
  143.1850   74.2320  220.3190 C   0  0  0  0  0  0  0  0  0  0  0  0
  141.9390   74.1420  221.1730 C   0  0  1  0  0  0  0  0  0  0  0  0
  141.1560   75.4010  221.2040 C   0  0  0  0  0  0  0  0  0  0  0  0
  140.2330   75.3810  222.2280 O   0  0  0  0  0  0  0  0  0  0  0  0
  139.3830   76.4570  222.3090 C   0  0  0  0  0  0  0  0  0  0  0  0
  140.1210   77.7070  222.7250 C   0  0  0  0  0  0  0  0  0  0  0  0
  141.4360   77.6630  223.1370 C   0  0  0  0  0  0  0  0  0  0  0  0
  142.0280   78.8430  223.4960 C   0  0  0  0  0  0  0  0  0  0  0  0
  141.3840   80.0680  223.4670 C   0  0  0  0  0  0  0  0  0  0  0  0
  142.2040   81.5440  223.9420 Cl  0  0  0  0  0  0  0  0  0  0  0  0
  140.0660   80.1010  223.0530 C   0  0  0  0  0  0  0  0  0  0  0  0
  139.4310   78.9220  222.6800 C   0  0  0  0  0  0  0  0  0  0  0  0
  139.8800   70.9450  223.8210 C   0  0  0  0  0  0  0  0  0  0  0  0
  140.5560   71.8430  224.6100 C   0  0  0  0  0  0  0  0  0  0  0  0
  140.9590   71.5190  225.9030 C   0  0  0  0  0  0  0  0  0  0  0  0
  140.6740   70.2620  226.4030 C   0  0  0  0  0  0  0  0  0  0  0  0
  141.0500   69.8760  227.6850 C   0  0  0  0  0  0  0  0  0  0  0  0
  140.7410   68.6170  228.1290 C   0  0  0  0  0  0  0  0  0  0  0  0
  141.0910   68.1960  229.3840 F   0  0  0  0  0  0  0  0  0  0  0  0
  140.0630   67.7510  227.3040 C   0  0  0  0  0  0  0  0  0  0  0  0
  139.6730   68.0970  226.0240 C   0  0  0  0  0  0  0  0  0  0  0  0
  139.9960   69.3710  225.6000 C   0  0  0  0  0  0  0  0  0  0  0  0
  139.6280   69.7310  224.3610 N   0  0  0  0  0  0  0  0  0  0  0  0
  139.3690   73.3670  222.9110 H   0  0  0  0  0  0  0  0  0  0  0  0
  138.0666   72.3272  220.4507 H   0  0  0  0  0  0  0  0  0  0  0  0
  138.3575   74.0613  220.9208 H   0  0  0  0  0  0  0  0  0  0  0  0
  142.2044   71.4249  221.3049 H   0  0  0  0  0  0  0  0  0  0  0  0
  141.9975   71.2572  219.5795 H   0  0  0  0  0  0  0  0  0  0  0  0
  143.9539   72.4693  219.1998 H   0  0  0  0  0  0  0  0  0  0  0  0
  144.6140   71.4840  221.2850 H   0  0  0  0  0  0  0  0  0  0  0  0
  143.9892   74.7833  220.8283 H   0  0  0  0  0  0  0  0  0  0  0  0
  143.0556   74.7714  219.3691 H   0  0  0  0  0  0  0  0  0  0  0  0
  142.1182   73.9472  222.2407 H   0  0  0  0  0  0  0  0  0  0  0  0
  141.8417   76.2480  221.3536 H   0  0  0  0  0  0  0  0  0  0  0  0
  140.6197   75.5050  220.2493 H   0  0  0  0  0  0  0  0  0  0  0  0
  138.9211   76.6240  221.3248 H   0  0  0  0  0  0  0  0  0  0  0  0
  138.6156   76.2379  223.0660 H   0  0  0  0  0  0  0  0  0  0  0  0
  141.9894   76.7131  223.1757 H   0  0  0  0  0  0  0  0  0  0  0  0
  143.0767   78.8168  223.8269 H   0  0  0  0  0  0  0  0  0  0  0  0
  139.5216   81.0562  223.0187 H   0  0  0  0  0  0  0  0  0  0  0  0
  138.3824   78.9451  222.3484 H   0  0  0  0  0  0  0  0  0  0  0  0
  140.7846   72.8423  224.2110 H   0  0  0  0  0  0  0  0  0  0  0  0
  141.4975   72.2542  226.5190 H   0  0  0  0  0  0  0  0  0  0  0  0
  141.5916   70.5763  228.3379 H   0  0  0  0  0  0  0  0  0  0  0  0
  139.8218   66.7446  227.6768 H   0  0  0  0  0  0  0  0  0  0  0  0
  139.1321   67.3925  225.3751 H   0  0  0  0  0  0  0  0  0  0  0  0
  1  2  2  0
  2  3  1  0
  3  4  1  0
  4  5  1  0
  5  6  2  0
  5  7  1  0
  7  8  1  0
  8  9  1  0
  9 10  1  0
  9 11  1  0
 11 12  1  0
 12 13  1  0
 13 14  1  0
 14 15  1  0
 15 16  1  0
 16 17  2  0
 17 18  1  0
 18 19  2  0
 19 20  1  0
 19 21  1  0
 21 22  2  0
  2 23  1  0
 23 24  2  0
 24 25  1  0
 25 26  2  0
 26 27  1  0
 27 28  2  0
 28 29  1  0
 28 30  1  0
 30 31  2  0
 31 32  1  0
 32 33  2  0
 12  7  1  0
 22 16  1  0
 33 23  1  0
 32 26  1  0
  3 34  1  0
  4 35  1  0
  4 36  1  0
  8 37  1  0
  8 38  1  0
  9 39  1  6
 10 40  1  0
 11 41  1  0
 11 42  1  0
 12 43  1  1
 13 44  1  0
 13 45  1  0
 15 46  1  0
 15 47  1  0
 17 48  1  0
 18 49  1  0
 21 50  1  0
 22 51  1  0
 24 52  1  0
 25 53  1  0
 27 54  1  0
 30 55  1  0
 31 56  1  0
M  END
>  <smiles>  (5) 
O=C(NCC(=O)N1C[C@H](O)C[C@H]1COCc1ccc(Cl)cc1)c1ccc2cc(F)ccc2n1

>  <score_type>  (5) 
oracle

>  <origin>  (5) 
autodockgpu

>  <m_score__min__energy>  (5) 
-9.4600000000000009

>  <m_primary>  (5) 
energy

>  <rmsd>  (5) 
3.4097513186191075

>  <m_score__min__rmsd>  (5) 
3.4097513186191075

>  <meeko>  (5) 
{"free_energy": -8.64, "intermolecular_energy": -11.32, "internal_energy": -2.24, "cluster_size": 20, "cluster_id": 1, "rank_in_cluster": 7}

>  <energy>  (5) 
-8.69

>  <cluster_rmsd>  (5) 
1.67

>  <cluster>  (5) 
1

$$$$

     RDKit          3D

 56 59  0  0  0  0  0  0  0  0999 V2000
  140.5640   71.7410  220.9250 O   0  0  0  0  0  0  0  0  0  0  0  0
  140.1870   72.2340  222.0180 C   0  0  0  0  0  0  0  0  0  0  0  0
  139.8330   73.6080  222.1140 N   0  0  0  0  0  0  0  0  0  0  0  0
  139.8900   74.4840  220.9730 C   0  0  0  0  0  0  0  0  0  0  0  0
  140.8080   75.6340  221.1810 C   0  0  0  0  0  0  0  0  0  0  0  0
  141.0760   75.9630  222.3430 O   0  0  0  0  0  0  0  0  0  0  0  0
  141.3120   76.2710  220.0120 N   0  0  0  0  0  0  0  0  0  0  0  0
  141.0420   77.6040  219.5010 C   0  0  0  0  0  0  0  0  0  0  0  0
  142.4070   78.0310  218.9730 C   0  0  2  0  0  0  0  0  0  0  0  0
  142.3630   78.3900  217.6380 O   0  0  0  0  0  0  0  0  0  0  0  0
  143.3020   76.7920  219.0720 C   0  0  0  0  0  0  0  0  0  0  0  0
  142.2540   75.7010  219.0220 C   0  0  1  0  0  0  0  0  0  0  0  0
  142.7640   74.3770  219.4540 C   0  0  0  0  0  0  0  0  0  0  0  0
  144.0830   74.4610  219.8450 O   0  0  0  0  0  0  0  0  0  0  0  0
  144.4870   73.5960  220.8320 C   0  0  0  0  0  0  0  0  0  0  0  0
  144.6810   72.2000  220.2900 C   0  0  0  0  0  0  0  0  0  0  0  0
  145.8570   71.8240  219.6730 C   0  0  0  0  0  0  0  0  0  0  0  0
  145.9480   70.5400  219.2120 C   0  0  0  0  0  0  0  0  0  0  0  0
  144.9350   69.6050  219.3300 C   0  0  0  0  0  0  0  0  0  0  0  0
  145.1200   67.9730  218.7150 Cl  0  0  0  0  0  0  0  0  0  0  0  0
  143.7620   69.9910  219.9490 C   0  0  0  0  0  0  0  0  0  0  0  0
  143.6320   71.2890  220.4310 C   0  0  0  0  0  0  0  0  0  0  0  0
  140.1000   71.4100  223.2290 C   0  0  0  0  0  0  0  0  0  0  0  0
  139.5290   70.1620  223.2190 C   0  0  0  0  0  0  0  0  0  0  0  0
  139.4500   69.3870  224.3740 C   0  0  0  0  0  0  0  0  0  0  0  0
  139.9590   69.8880  225.5580 C   0  0  0  0  0  0  0  0  0  0  0  0
  139.9110   69.1650  226.7450 C   0  0  0  0  0  0  0  0  0  0  0  0
  140.4310   69.7100  227.8890 C   0  0  0  0  0  0  0  0  0  0  0  0
  140.4060   69.0340  229.0790 F   0  0  0  0  0  0  0  0  0  0  0  0
  140.9930   70.9650  227.8520 C   0  0  0  0  0  0  0  0  0  0  0  0
  141.0600   71.7150  226.6920 C   0  0  0  0  0  0  0  0  0  0  0  0
  140.5290   71.1430  225.5530 C   0  0  0  0  0  0  0  0  0  0  0  0
  140.5810   71.8500  224.4140 N   0  0  0  0  0  0  0  0  0  0  0  0
  139.5190   73.9770  223.0610 H   0  0  0  0  0  0  0  0  0  0  0  0
  140.2387   73.9077  220.1034 H   0  0  0  0  0  0  0  0  0  0  0  0
  138.8798   74.8887  220.8128 H   0  0  0  0  0  0  0  0  0  0  0  0
  140.2934   77.5780  218.6954 H   0  0  0  0  0  0  0  0  0  0  0  0
  140.6267   78.2893  220.2546 H   0  0  0  0  0  0  0  0  0  0  0  0
  142.7645   78.8960  219.5510 H   0  0  0  0  0  0  0  0  0  0  0  0
  143.1670   78.8460  217.3060 H   0  0  0  0  0  0  0  0  0  0  0  0
  144.0006   76.7252  218.2250 H   0  0  0  0  0  0  0  0  0  0  0  0
  143.9558   76.7641  219.9562 H   0  0  0  0  0  0  0  0  0  0  0  0
  141.8508   75.4863  218.0213 H   0  0  0  0  0  0  0  0  0  0  0  0
  142.1600   74.0170  220.2999 H   0  0  0  0  0  0  0  0  0  0  0  0
  142.6928   73.6796  218.6063 H   0  0  0  0  0  0  0  0  0  0  0  0
  145.4383   73.9524  221.2539 H   0  0  0  0  0  0  0  0  0  0  0  0
  143.7068   73.5632  221.6067 H   0  0  0  0  0  0  0  0  0  0  0  0
  146.6909   72.5318  219.5564 H   0  0  0  0  0  0  0  0  0  0  0  0
  146.8815   70.2322  218.7182 H   0  0  0  0  0  0  0  0  0  0  0  0
  142.9344   69.2749  220.0602 H   0  0  0  0  0  0  0  0  0  0  0  0
  142.6995   71.5992  220.9251 H   0  0  0  0  0  0  0  0  0  0  0  0
  139.1242   69.7643  222.2767 H   0  0  0  0  0  0  0  0  0  0  0  0
  138.9884   68.3890  224.3444 H   0  0  0  0  0  0  0  0  0  0  0  0
  139.4586   68.1625  226.7650 H   0  0  0  0  0  0  0  0  0  0  0  0
  141.4047   71.3880  228.7802 H   0  0  0  0  0  0  0  0  0  0  0  0
  141.5136   72.7170  226.6775 H   0  0  0  0  0  0  0  0  0  0  0  0
  1  2  2  0
  2  3  1  0
  3  4  1  0
  4  5  1  0
  5  6  2  0
  5  7  1  0
  7  8  1  0
  8  9  1  0
  9 10  1  0
  9 11  1  0
 11 12  1  0
 12 13  1  0
 13 14  1  0
 14 15  1  0
 15 16  1  0
 16 17  2  0
 17 18  1  0
 18 19  2  0
 19 20  1  0
 19 21  1  0
 21 22  2  0
  2 23  1  0
 23 24  2  0
 24 25  1  0
 25 26  2  0
 26 27  1  0
 27 28  2  0
 28 29  1  0
 28 30  1  0
 30 31  2  0
 31 32  1  0
 32 33  2  0
 12  7  1  0
 22 16  1  0
 33 23  1  0
 32 26  1  0
  3 34  1  0
  4 35  1  0
  4 36  1  0
  8 37  1  0
  8 38  1  0
  9 39  1  1
 10 40  1  0
 11 41  1  0
 11 42  1  0
 12 43  1  6
 13 44  1  0
 13 45  1  0
 15 46  1  0
 15 47  1  0
 17 48  1  0
 18 49  1  0
 21 50  1  0
 22 51  1  0
 24 52  1  0
 25 53  1  0
 27 54  1  0
 30 55  1  0
 31 56  1  0
M  END
>  <smiles>  (6) 
O=C(NCC(=O)N1C[C@H](O)C[C@H]1COCc1ccc(Cl)cc1)c1ccc2cc(F)ccc2n1

>  <score_type>  (6) 
oracle

>  <origin>  (6) 
autodockgpu

>  <m_score__min__energy>  (6) 
-9.4600000000000009

>  <m_primary>  (6) 
energy

>  <rmsd>  (6) 
2.172850521325164

>  <m_score__min__rmsd>  (6) 
2.172850521325164

>  <meeko>  (6) 
{"free_energy": -7.98, "intermolecular_energy": -10.67, "internal_energy": -2.1, "cluster_size": 3, "cluster_id": 3, "rank_in_cluster": 3}

>  <energy>  (6) 
-8.66

>  <cluster_rmsd>  (6) 
1.13

>  <cluster>  (6) 
1

$$$$

     RDKit          3D

 56 59  0  0  0  0  0  0  0  0999 V2000
  138.2270   70.2940  221.4740 O   0  0  0  0  0  0  0  0  0  0  0  0
  138.6480   70.8920  222.4950 C   0  0  0  0  0  0  0  0  0  0  0  0
  138.7380   72.3110  222.5230 N   0  0  0  0  0  0  0  0  0  0  0  0
  138.3550   73.1140  221.3920 C   0  0  0  0  0  0  0  0  0  0  0  0
  139.3940   73.1410  220.3300 C   0  0  0  0  0  0  0  0  0  0  0  0
  139.0450   73.4340  219.1800 O   0  0  0  0  0  0  0  0  0  0  0  0
  140.7230   72.8220  220.7270 N   0  0  0  0  0  0  0  0  0  0  0  0
  141.3850   71.5290  220.7750 C   0  0  0  0  0  0  0  0  0  0  0  0
  142.7950   71.8700  220.3020 C   0  0  2  0  0  0  0  0  0  0  0  0
  143.7600   71.4900  221.2160 O   0  0  0  0  0  0  0  0  0  0  0  0
  142.8480   73.3980  220.2050 C   0  0  0  0  0  0  0  0  0  0  0  0
  141.7640   73.7650  221.1950 C   0  0  1  0  0  0  0  0  0  0  0  0
  141.3150   75.1740  221.0800 C   0  0  0  0  0  0  0  0  0  0  0  0
  140.3010   75.4430  221.9740 O   0  0  0  0  0  0  0  0  0  0  0  0
  139.5420   76.5590  221.7240 C   0  0  0  0  0  0  0  0  0  0  0  0
  140.1870   77.7990  222.2940 C   0  0  0  0  0  0  0  0  0  0  0  0
  139.5230   78.6090  223.1920 C   0  0  0  0  0  0  0  0  0  0  0  0
  140.1820   79.7130  223.6590 C   0  0  0  0  0  0  0  0  0  0  0  0
  141.4680   80.0580  223.2820 C   0  0  0  0  0  0  0  0  0  0  0  0
  142.2550   81.4900  223.9210 Cl  0  0  0  0  0  0  0  0  0  0  0  0
  142.1250   79.2410  222.3820 C   0  0  0  0  0  0  0  0  0  0  0  0
  141.4870   78.1100  221.8860 C   0  0  0  0  0  0  0  0  0  0  0  0
  139.0590   70.1490  223.6910 C   0  0  0  0  0  0  0  0  0  0  0  0
  138.8640   68.7950  223.8090 C   0  0  0  0  0  0  0  0  0  0  0  0
  139.2580   68.0980  224.9490 C   0  0  0  0  0  0  0  0  0  0  0  0
  139.8590   68.7860  225.9860 C   0  0  0  0  0  0  0  0  0  0  0  0
  140.2750   68.1490  227.1510 C   0  0  0  0  0  0  0  0  0  0  0  0
  140.8650   68.8810  228.1470 C   0  0  0  0  0  0  0  0  0  0  0  0
  141.2900   68.2950  229.3090 F   0  0  0  0  0  0  0  0  0  0  0  0
  141.0400   70.2350  227.9850 C   0  0  0  0  0  0  0  0  0  0  0  0
  140.6410   70.9050  226.8440 C   0  0  0  0  0  0  0  0  0  0  0  0
  140.0480   70.1450  225.8550 C   0  0  0  0  0  0  0  0  0  0  0  0
  139.6520   70.7710  224.7360 N   0  0  0  0  0  0  0  0  0  0  0  0
  139.1000   72.7710  223.4110 H   0  0  0  0  0  0  0  0  0  0  0  0
  137.4275   72.7032  220.9666 H   0  0  0  0  0  0  0  0  0  0  0  0
  138.2170   74.1455  221.7482 H   0  0  0  0  0  0  0  0  0  0  0  0
  141.3946   71.1237  221.7976 H   0  0  0  0  0  0  0  0  0  0  0  0
  140.8903   70.7572  220.1671 H   0  0  0  0  0  0  0  0  0  0  0  0
  142.9949   71.3490  219.3541 H   0  0  0  0  0  0  0  0  0  0  0  0
  144.6830   71.6960  220.9530 H   0  0  0  0  0  0  0  0  0  0  0  0
  143.8288   73.7921  220.5096 H   0  0  0  0  0  0  0  0  0  0  0  0
  142.7047   73.8020  219.1920 H   0  0  0  0  0  0  0  0  0  0  0  0
  142.0563   73.6939  222.2531 H   0  0  0  0  0  0  0  0  0  0  0  0
  142.1648   75.8407  221.2884 H   0  0  0  0  0  0  0  0  0  0  0  0
  140.9369   75.3396  220.0604 H   0  0  0  0  0  0  0  0  0  0  0  0
  139.4307   76.6805  220.6364 H   0  0  0  0  0  0  0  0  0  0  0  0
  138.5607   76.4263  222.2029 H   0  0  0  0  0  0  0  0  0  0  0  0
  138.4997   78.3753  223.5209 H   0  0  0  0  0  0  0  0  0  0  0  0
  139.6596   80.3640  224.3755 H   0  0  0  0  0  0  0  0  0  0  0  0
  143.1481   79.4844  222.0595 H   0  0  0  0  0  0  0  0  0  0  0  0
  142.0073   77.4573  221.1696 H   0  0  0  0  0  0  0  0  0  0  0  0
  138.3852   68.2476  222.9837 H   0  0  0  0  0  0  0  0  0  0  0  0
  139.0927   67.0130  225.0229 H   0  0  0  0  0  0  0  0  0  0  0  0
  140.1310   67.0651  227.2713 H   0  0  0  0  0  0  0  0  0  0  0  0
  141.5160   70.8072  228.7949 H   0  0  0  0  0  0  0  0  0  0  0  0
  140.7883   71.9890  226.7293 H   0  0  0  0  0  0  0  0  0  0  0  0
  1  2  2  0
  2  3  1  0
  3  4  1  0
  4  5  1  0
  5  6  2  0
  5  7  1  0
  7  8  1  0
  8  9  1  0
  9 10  1  0
  9 11  1  0
 11 12  1  0
 12 13  1  0
 13 14  1  0
 14 15  1  0
 15 16  1  0
 16 17  2  0
 17 18  1  0
 18 19  2  0
 19 20  1  0
 19 21  1  0
 21 22  2  0
  2 23  1  0
 23 24  2  0
 24 25  1  0
 25 26  2  0
 26 27  1  0
 27 28  2  0
 28 29  1  0
 28 30  1  0
 30 31  2  0
 31 32  1  0
 32 33  2  0
 12  7  1  0
 22 16  1  0
 33 23  1  0
 32 26  1  0
  3 34  1  0
  4 35  1  0
  4 36  1  0
  8 37  1  0
  8 38  1  0
  9 39  1  6
 10 40  1  0
 11 41  1  0
 11 42  1  0
 12 43  1  1
 13 44  1  0
 13 45  1  0
 15 46  1  0
 15 47  1  0
 17 48  1  0
 18 49  1  0
 21 50  1  0
 22 51  1  0
 24 52  1  0
 25 53  1  0
 27 54  1  0
 30 55  1  0
 31 56  1  0
M  END
>  <smiles>  (7) 
O=C(NCC(=O)N1C[C@H](O)C[C@H]1COCc1ccc(Cl)cc1)c1ccc2cc(F)ccc2n1

>  <score_type>  (7) 
oracle

>  <origin>  (7) 
autodockgpu

>  <m_score__min__energy>  (7) 
-9.4600000000000009

>  <m_primary>  (7) 
energy

>  <rmsd>  (7) 
2.733695415665826

>  <m_score__min__rmsd>  (7) 
2.733695415665826

>  <meeko>  (7) 
{"free_energy": -8.12, "intermolecular_energy": -10.81, "internal_energy": -2.0, "cluster_size": 20, "cluster_id": 1, "rank_in_cluster": 13}

>  <energy>  (7) 
-8.64

>  <cluster_rmsd>  (7) 
1.82

>  <cluster>  (7) 
1

$$$$

     RDKit          3D

 56 59  0  0  0  0  0  0  0  0999 V2000
  139.8960   76.7940  221.1830 O   0  0  0  0  0  0  0  0  0  0  0  0
  139.8060   75.6190  221.6200 C   0  0  0  0  0  0  0  0  0  0  0  0
  138.6900   75.2170  222.4060 N   0  0  0  0  0  0  0  0  0  0  0  0
  137.6270   76.1310  222.7300 C   0  0  0  0  0  0  0  0  0  0  0  0
  136.2810   75.5200  222.5790 C   0  0  0  0  0  0  0  0  0  0  0  0
  135.6770   75.6960  221.5140 O   0  0  0  0  0  0  0  0  0  0  0  0
  135.7890   74.7720  223.6860 N   0  0  0  0  0  0  0  0  0  0  0  0
  135.1470   75.2410  224.9020 C   0  0  0  0  0  0  0  0  0  0  0  0
  134.0780   74.1790  225.1350 C   0  0  2  0  0  0  0  0  0  0  0  0
  134.1840   73.5920  226.3820 O   0  0  0  0  0  0  0  0  0  0  0  0
  134.3460   73.0800  224.1010 C   0  0  0  0  0  0  0  0  0  0  0  0
  135.8230   73.3010  223.8540 C   0  0  1  0  0  0  0  0  0  0  0  0
  136.3220   72.6240  222.6330 C   0  0  0  0  0  0  0  0  0  0  0  0
  137.6850   72.4290  222.7000 O   0  0  0  0  0  0  0  0  0  0  0  0
  138.1190   71.1260  222.7050 C   0  0  0  0  0  0  0  0  0  0  0  0
  138.8040   70.7830  224.0060 C   0  0  0  0  0  0  0  0  0  0  0  0
  138.3290   69.7830  224.8280 C   0  0  0  0  0  0  0  0  0  0  0  0
  139.0110   69.5380  225.9880 C   0  0  0  0  0  0  0  0  0  0  0  0
  140.1430   70.2330  226.3780 C   0  0  0  0  0  0  0  0  0  0  0  0
  140.9690   69.8660  227.8810 Cl  0  0  0  0  0  0  0  0  0  0  0  0
  140.6100   71.2330  225.5480 C   0  0  0  0  0  0  0  0  0  0  0  0
  139.9430   71.5110  224.3600 C   0  0  0  0  0  0  0  0  0  0  0  0
  140.8460   74.6240  221.3340 C   0  0  0  0  0  0  0  0  0  0  0  0
  140.6170   73.2760  221.4630 C   0  0  0  0  0  0  0  0  0  0  0  0
  141.6100   72.3390  221.1900 C   0  0  0  0  0  0  0  0  0  0  0  0
  142.8560   72.7760  220.7810 C   0  0  0  0  0  0  0  0  0  0  0  0
  143.8900   71.8920  220.4940 C   0  0  0  0  0  0  0  0  0  0  0  0
  145.1050   72.3810  220.0920 C   0  0  0  0  0  0  0  0  0  0  0  0
  146.1500   71.5470  219.7980 F   0  0  0  0  0  0  0  0  0  0  0  0
  145.2890   73.7390  219.9780 C   0  0  0  0  0  0  0  0  0  0  0  0
  144.2870   74.6500  220.2540 C   0  0  0  0  0  0  0  0  0  0  0  0
  143.0720   74.1320  220.6570 C   0  0  0  0  0  0  0  0  0  0  0  0
  142.0820   74.9960  220.9310 N   0  0  0  0  0  0  0  0  0  0  0  0
  138.6600   74.2110  222.7510 H   0  0  0  0  0  0  0  0  0  0  0  0
  137.7500   76.4587  223.7728 H   0  0  0  0  0  0  0  0  0  0  0  0
  137.6894   76.9761  222.0286 H   0  0  0  0  0  0  0  0  0  0  0  0
  135.8594   75.2796  225.7392 H   0  0  0  0  0  0  0  0  0  0  0  0
  134.7442   76.2615  224.8222 H   0  0  0  0  0  0  0  0  0  0  0  0
  133.0840   74.6436  225.0571 H   0  0  0  0  0  0  0  0  0  0  0  0
  134.1030   72.6140  226.3880 H   0  0  0  0  0  0  0  0  0  0  0  0
  134.1464   72.0784  224.5096 H   0  0  0  0  0  0  0  0  0  0  0  0
  133.7149   73.1283  223.2014 H   0  0  0  0  0  0  0  0  0  0  0  0
  136.4907   72.9070  224.6344 H   0  0  0  0  0  0  0  0  0  0  0  0
  135.8233   71.6487  222.5328 H   0  0  0  0  0  0  0  0  0  0  0  0
  136.1007   73.2603  221.7634 H   0  0  0  0  0  0  0  0  0  0  0  0
  137.2547   70.4595  222.5681 H   0  0  0  0  0  0  0  0  0  0  0  0
  138.8422   70.9969  221.8863 H   0  0  0  0  0  0  0  0  0  0  0  0
  137.4335   69.2030  224.5604 H   0  0  0  0  0  0  0  0  0  0  0  0
  138.6383   68.7422  226.6497 H   0  0  0  0  0  0  0  0  0  0  0  0
  141.5061   71.8074  225.8256 H   0  0  0  0  0  0  0  0  0  0  0  0
  140.3132   72.3066  223.6967 H   0  0  0  0  0  0  0  0  0  0  0  0
  139.6258   72.9284  221.7897 H   0  0  0  0  0  0  0  0  0  0  0  0
  141.4054   71.2637  221.2985 H   0  0  0  0  0  0  0  0  0  0  0  0
  143.7336   70.8073  220.5891 H   0  0  0  0  0  0  0  0  0  0  0  0
  146.2711   74.1145  219.6548 H   0  0  0  0  0  0  0  0  0  0  0  0
  144.4492   75.7337  220.1575 H   0  0  0  0  0  0  0  0  0  0  0  0
  1  2  2  0
  2  3  1  0
  3  4  1  0
  4  5  1  0
  5  6  2  0
  5  7  1  0
  7  8  1  0
  8  9  1  0
  9 10  1  0
  9 11  1  0
 11 12  1  0
 12 13  1  0
 13 14  1  0
 14 15  1  0
 15 16  1  0
 16 17  2  0
 17 18  1  0
 18 19  2  0
 19 20  1  0
 19 21  1  0
 21 22  2  0
  2 23  1  0
 23 24  2  0
 24 25  1  0
 25 26  2  0
 26 27  1  0
 27 28  2  0
 28 29  1  0
 28 30  1  0
 30 31  2  0
 31 32  1  0
 32 33  2  0
 12  7  1  0
 22 16  1  0
 33 23  1  0
 32 26  1  0
  3 34  1  0
  4 35  1  0
  4 36  1  0
  8 37  1  0
  8 38  1  0
  9 39  1  6
 10 40  1  0
 11 41  1  0
 11 42  1  0
 12 43  1  1
 13 44  1  0
 13 45  1  0
 15 46  1  0
 15 47  1  0
 17 48  1  0
 18 49  1  0
 21 50  1  0
 22 51  1  0
 24 52  1  0
 25 53  1  0
 27 54  1  0
 30 55  1  0
 31 56  1  0
M  END
>  <smiles>  (8) 
O=C(NCC(=O)N1C[C@H](O)C[C@H]1COCc1ccc(Cl)cc1)c1ccc2cc(F)ccc2n1

>  <score_type>  (8) 
oracle

>  <origin>  (8) 
autodockgpu

>  <m_score__min__energy>  (8) 
-9.4600000000000009

>  <m_primary>  (8) 
energy

>  <rmsd>  (8) 
7.2537809875349515

>  <m_score__min__rmsd>  (8) 
7.2537809875349515

>  <meeko>  (8) 
{"free_energy": -7.13, "intermolecular_energy": -9.81, "internal_energy": -2.76, "cluster_size": 3, "cluster_id": 7, "rank_in_cluster": 3}

>  <energy>  (8) 
-8.63

>  <cluster_rmsd>  (8) 
1.63

>  <cluster>  (8) 
1

$$$$

     RDKit          3D

 56 59  0  0  0  0  0  0  0  0999 V2000
  138.8420   70.0390  220.2610 O   0  0  0  0  0  0  0  0  0  0  0  0
  139.4200   70.7930  221.0840 C   0  0  0  0  0  0  0  0  0  0  0  0
  139.9770   72.0340  220.6670 N   0  0  0  0  0  0  0  0  0  0  0  0
  139.9020   72.4740  219.2990 C   0  0  0  0  0  0  0  0  0  0  0  0
  141.1030   73.2410  218.8780 C   0  0  0  0  0  0  0  0  0  0  0  0
  141.0260   73.9280  217.8520 O   0  0  0  0  0  0  0  0  0  0  0  0
  142.2600   73.1200  219.6980 N   0  0  0  0  0  0  0  0  0  0  0  0
  143.3660   72.1820  219.6000 C   0  0  0  0  0  0  0  0  0  0  0  0
  144.5640   73.0540  219.9610 C   0  0  2  0  0  0  0  0  0  0  0  0
  145.2840   72.5400  221.0250 O   0  0  0  0  0  0  0  0  0  0  0  0
  143.9830   74.3950  220.4230 C   0  0  0  0  0  0  0  0  0  0  0  0
  142.6090   73.9490  220.8750 C   0  0  1  0  0  0  0  0  0  0  0  0
  141.6570   75.0710  221.0530 C   0  0  0  0  0  0  0  0  0  0  0  0
  140.6610   74.7350  221.9460 O   0  0  0  0  0  0  0  0  0  0  0  0
  139.6360   75.6380  222.0900 C   0  0  0  0  0  0  0  0  0  0  0  0
  140.1590   77.0530  222.1610 C   0  0  0  0  0  0  0  0  0  0  0  0
  141.0930   77.4290  223.1040 C   0  0  0  0  0  0  0  0  0  0  0  0
  141.5120   78.7310  223.0970 C   0  0  0  0  0  0  0  0  0  0  0  0
  141.0530   79.6830  222.2030 C   0  0  0  0  0  0  0  0  0  0  0  0
  141.6340   81.3370  222.2500 Cl  0  0  0  0  0  0  0  0  0  0  0  0
  140.1170   79.2960  221.2630 C   0  0  0  0  0  0  0  0  0  0  0  0
  139.6680   77.9810  221.2390 C   0  0  0  0  0  0  0  0  0  0  0  0
  139.5390   70.4210  222.4970 C   0  0  0  0  0  0  0  0  0  0  0  0
  139.0090   69.2540  222.9890 C   0  0  0  0  0  0  0  0  0  0  0  0
  139.1270   68.9080  224.3330 C   0  0  0  0  0  0  0  0  0  0  0  0
  139.7940   69.7620  225.1930 C   0  0  0  0  0  0  0  0  0  0  0  0
  139.9460   69.4750  226.5450 C   0  0  0  0  0  0  0  0  0  0  0  0
  140.6170   70.3570  227.3510 C   0  0  0  0  0  0  0  0  0  0  0  0
  140.7910   70.1150  228.6870 F   0  0  0  0  0  0  0  0  0  0  0  0
  141.1310   71.5140  226.8140 C   0  0  0  0  0  0  0  0  0  0  0  0
  141.0010   71.8350  225.4760 C   0  0  0  0  0  0  0  0  0  0  0  0
  140.3210   70.9300  224.6850 C   0  0  0  0  0  0  0  0  0  0  0  0
  140.1810   71.2180  223.3820 N   0  0  0  0  0  0  0  0  0  0  0  0
  140.4550   72.6380  221.4010 H   0  0  0  0  0  0  0  0  0  0  0  0
  139.8025   71.5913  218.6501 H   0  0  0  0  0  0  0  0  0  0  0  0
  139.0327   73.1424  219.2115 H   0  0  0  0  0  0  0  0  0  0  0  0
  143.2486   71.3517  220.3120 H   0  0  0  0  0  0  0  0  0  0  0  0
  143.4512   71.7026  218.6136 H   0  0  0  0  0  0  0  0  0  0  0  0
  145.2352   73.1252  219.0924 H   0  0  0  0  0  0  0  0  0  0  0  0
  144.9680   71.6730  221.3570 H   0  0  0  0  0  0  0  0  0  0  0  0
  144.5640   74.8273  221.2510 H   0  0  0  0  0  0  0  0  0  0  0  0
  143.9835   75.1863  219.6589 H   0  0  0  0  0  0  0  0  0  0  0  0
  142.5789   73.4528  221.8563 H   0  0  0  0  0  0  0  0  0  0  0  0
  142.2011   75.9479  221.4337 H   0  0  0  0  0  0  0  0  0  0  0  0
  141.1952   75.2974  220.0806 H   0  0  0  0  0  0  0  0  0  0  0  0
  138.9567   75.5496  221.2294 H   0  0  0  0  0  0  0  0  0  0  0  0
  139.1059   75.4157  223.0278 H   0  0  0  0  0  0  0  0  0  0  0  0
  141.4866   76.7077  223.8353 H   0  0  0  0  0  0  0  0  0  0  0  0
  142.2570   79.0395  223.8452 H   0  0  0  0  0  0  0  0  0  0  0  0
  139.7290   80.0256  220.5369 H   0  0  0  0  0  0  0  0  0  0  0  0
  138.9235   77.6696  220.4915 H   0  0  0  0  0  0  0  0  0  0  0  0
  138.4781   68.5756  222.3050 H   0  0  0  0  0  0  0  0  0  0  0  0
  138.6953   67.9675  224.7059 H   0  0  0  0  0  0  0  0  0  0  0  0
  139.5307   68.5468  226.9645 H   0  0  0  0  0  0  0  0  0  0  0  0
  141.6665   72.2112  227.4752 H   0  0  0  0  0  0  0  0  0  0  0  0
  141.4183   72.7647  225.0619 H   0  0  0  0  0  0  0  0  0  0  0  0
  1  2  2  0
  2  3  1  0
  3  4  1  0
  4  5  1  0
  5  6  2  0
  5  7  1  0
  7  8  1  0
  8  9  1  0
  9 10  1  0
  9 11  1  0
 11 12  1  0
 12 13  1  0
 13 14  1  0
 14 15  1  0
 15 16  1  0
 16 17  2  0
 17 18  1  0
 18 19  2  0
 19 20  1  0
 19 21  1  0
 21 22  2  0
  2 23  1  0
 23 24  2  0
 24 25  1  0
 25 26  2  0
 26 27  1  0
 27 28  2  0
 28 29  1  0
 28 30  1  0
 30 31  2  0
 31 32  1  0
 32 33  2  0
 12  7  1  0
 22 16  1  0
 33 23  1  0
 32 26  1  0
  3 34  1  0
  4 35  1  0
  4 36  1  0
  8 37  1  0
  8 38  1  0
  9 39  1  6
 10 40  1  0
 11 41  1  0
 11 42  1  0
 12 43  1  1
 13 44  1  0
 13 45  1  0
 15 46  1  0
 15 47  1  0
 17 48  1  0
 18 49  1  0
 21 50  1  0
 22 51  1  0
 24 52  1  0
 25 53  1  0
 27 54  1  0
 30 55  1  0
 31 56  1  0
M  END
>  <smiles>  (9) 
O=C(NCC(=O)N1C[C@H](O)C[C@H]1COCc1ccc(Cl)cc1)c1ccc2cc(F)ccc2n1

>  <score_type>  (9) 
oracle

>  <origin>  (9) 
autodockgpu

>  <m_score__min__energy>  (9) 
-9.4600000000000009

>  <m_primary>  (9) 
energy

>  <rmsd>  (9) 
3.1072169637737876

>  <m_score__min__rmsd>  (9) 
3.1072169637737876

>  <meeko>  (9) 
{"free_energy": -6.9, "intermolecular_energy": -9.58, "internal_energy": -2.83, "cluster_size": 20, "cluster_id": 1, "rank_in_cluster": 20}

>  <energy>  (9) 
-8.54

>  <cluster_rmsd>  (9) 
0.99

>  <cluster>  (9) 
1

$$$$

     RDKit          3D

 56 59  0  0  0  0  0  0  0  0999 V2000
  140.4300   71.7330  220.8920 O   0  0  0  0  0  0  0  0  0  0  0  0
  140.1370   72.2400  222.0040 C   0  0  0  0  0  0  0  0  0  0  0  0
  139.8440   73.6270  222.1190 N   0  0  0  0  0  0  0  0  0  0  0  0
  139.8710   74.5010  220.9750 C   0  0  0  0  0  0  0  0  0  0  0  0
  140.7240   75.6990  221.1910 C   0  0  0  0  0  0  0  0  0  0  0  0
  140.8910   76.0940  222.3510 O   0  0  0  0  0  0  0  0  0  0  0  0
  141.2860   76.3020  220.0310 N   0  0  0  0  0  0  0  0  0  0  0  0
  141.1630   77.6680  219.5510 C   0  0  0  0  0  0  0  0  0  0  0  0
  142.5640   77.9510  219.0170 C   0  0  2  0  0  0  0  0  0  0  0  0
  142.5500   78.3430  217.6910 O   0  0  0  0  0  0  0  0  0  0  0  0
  143.3150   76.6170  219.0800 C   0  0  0  0  0  0  0  0  0  0  0  0
  142.1500   75.6520  219.0180 C   0  0  1  0  0  0  0  0  0  0  0  0
  142.5110   74.2700  219.4150 C   0  0  0  0  0  0  0  0  0  0  0  0
  143.2120   74.2650  220.6020 O   0  0  0  0  0  0  0  0  0  0  0  0
  144.5160   73.8400  220.5430 C   0  0  0  0  0  0  0  0  0  0  0  0
  144.5980   72.3790  220.1660 C   0  0  0  0  0  0  0  0  0  0  0  0
  143.5840   71.4970  220.4770 C   0  0  0  0  0  0  0  0  0  0  0  0
  143.7410   70.1930  220.0980 C   0  0  0  0  0  0  0  0  0  0  0  0
  144.8510   69.7140  219.4250 C   0  0  0  0  0  0  0  0  0  0  0  0
  144.9860   68.0250  218.9690 Cl  0  0  0  0  0  0  0  0  0  0  0  0
  145.8610   70.6050  219.1190 C   0  0  0  0  0  0  0  0  0  0  0  0
  145.7380   71.9390  219.4880 C   0  0  0  0  0  0  0  0  0  0  0  0
  140.0870   71.4200  223.2190 C   0  0  0  0  0  0  0  0  0  0  0  0
  139.5600   70.1520  223.2190 C   0  0  0  0  0  0  0  0  0  0  0  0
  139.5170   69.3800  224.3780 C   0  0  0  0  0  0  0  0  0  0  0  0
  140.0160   69.9040  225.5560 C   0  0  0  0  0  0  0  0  0  0  0  0
  140.0020   69.1850  226.7470 C   0  0  0  0  0  0  0  0  0  0  0  0
  140.5110   69.7540  227.8850 C   0  0  0  0  0  0  0  0  0  0  0  0
  140.5180   69.0830  229.0780 F   0  0  0  0  0  0  0  0  0  0  0  0
  141.0290   71.0270  227.8370 C   0  0  0  0  0  0  0  0  0  0  0  0
  141.0610   71.7730  226.6740 C   0  0  0  0  0  0  0  0  0  0  0  0
  140.5420   71.1780  225.5410 C   0  0  0  0  0  0  0  0  0  0  0  0
  140.5610   71.8820  224.3990 N   0  0  0  0  0  0  0  0  0  0  0  0
  139.6020   74.0080  223.0820 H   0  0  0  0  0  0  0  0  0  0  0  0
  140.2621   73.9409  220.1129 H   0  0  0  0  0  0  0  0  0  0  0  0
  138.8432   74.8512  220.7989 H   0  0  0  0  0  0  0  0  0  0  0  0
  140.4095   77.7438  218.7532 H   0  0  0  0  0  0  0  0  0  0  0  0
  140.8335   78.3788  220.3232 H   0  0  0  0  0  0  0  0  0  0  0  0
  143.0212   78.7572  219.6095 H   0  0  0  0  0  0  0  0  0  0  0  0
  143.3260   78.8730  217.4080 H   0  0  0  0  0  0  0  0  0  0  0  0
  143.9946   76.4910  218.2243 H   0  0  0  0  0  0  0  0  0  0  0  0
  143.9689   76.4960  219.9562 H   0  0  0  0  0  0  0  0  0  0  0  0
  141.7166   75.5069  218.0174 H   0  0  0  0  0  0  0  0  0  0  0  0
  141.5914   73.6790  219.5376 H   0  0  0  0  0  0  0  0  0  0  0  0
  143.1468   73.8343  218.6302 H   0  0  0  0  0  0  0  0  0  0  0  0
  145.0538   74.4355  219.7905 H   0  0  0  0  0  0  0  0  0  0  0  0
  144.9698   73.9693  221.5366 H   0  0  0  0  0  0  0  0  0  0  0  0
  142.6819   71.8308  221.0106 H   0  0  0  0  0  0  0  0  0  0  0  0
  142.9375   69.4826  220.3425 H   0  0  0  0  0  0  0  0  0  0  0  0
  146.7589   70.2601  218.5854 H   0  0  0  0  0  0  0  0  0  0  0  0
  146.5407   72.6510  219.2456 H   0  0  0  0  0  0  0  0  0  0  0  0
  139.1623   69.7358  222.2816 H   0  0  0  0  0  0  0  0  0  0  0  0
  139.0912   68.3660  224.3560 H   0  0  0  0  0  0  0  0  0  0  0  0
  139.5854   68.1673  226.7750 H   0  0  0  0  0  0  0  0  0  0  0  0
  141.4334   71.4685  228.7598 H   0  0  0  0  0  0  0  0  0  0  0  0
  141.4791   72.7902  226.6519 H   0  0  0  0  0  0  0  0  0  0  0  0
  1  2  2  0
  2  3  1  0
  3  4  1  0
  4  5  1  0
  5  6  2  0
  5  7  1  0
  7  8  1  0
  8  9  1  0
  9 10  1  0
  9 11  1  0
 11 12  1  0
 12 13  1  0
 13 14  1  0
 14 15  1  0
 15 16  1  0
 16 17  2  0
 17 18  1  0
 18 19  2  0
 19 20  1  0
 19 21  1  0
 21 22  2  0
  2 23  1  0
 23 24  2  0
 24 25  1  0
 25 26  2  0
 26 27  1  0
 27 28  2  0
 28 29  1  0
 28 30  1  0
 30 31  2  0
 31 32  1  0
 32 33  2  0
 12  7  1  0
 22 16  1  0
 33 23  1  0
 32 26  1  0
  3 34  1  0
  4 35  1  0
  4 36  1  0
  8 37  1  0
  8 38  1  0
  9 39  1  1
 10 40  1  0
 11 41  1  0
 11 42  1  0
 12 43  1  6
 13 44  1  0
 13 45  1  0
 15 46  1  0
 15 47  1  0
 17 48  1  0
 18 49  1  0
 21 50  1  0
 22 51  1  0
 24 52  1  0
 25 53  1  0
 27 54  1  0
 30 55  1  0
 31 56  1  0
M  END
>  <smiles>  (10) 
O=C(NCC(=O)N1C[C@H](O)C[C@H]1COCc1ccc(Cl)cc1)c1ccc2cc(F)ccc2n1

>  <score_type>  (10) 
oracle

>  <origin>  (10) 
autodockgpu

>  <m_score__min__energy>  (10) 
-9.4600000000000009

>  <m_primary>  (10) 
energy

>  <rmsd>  (10) 
2.2130463213593177

>  <m_score__min__rmsd>  (10) 
2.2130463213593177

>  <meeko>  (10) 
{"free_energy": -7.98, "intermolecular_energy": -10.67, "internal_energy": -2.18, "cluster_size": 3, "cluster_id": 3, "rank_in_cluster": 2}

>  <energy>  (10) 
-8.45

>  <cluster_rmsd>  (10) 
1.92

>  <cluster>  (10) 
1

$$$$

     RDKit          3D

 56 59  0  0  0  0  0  0  0  0999 V2000
  138.8650   72.6020  222.4690 O   0  0  0  0  0  0  0  0  0  0  0  0
  139.8460   71.8450  222.6770 C   0  0  0  0  0  0  0  0  0  0  0  0
  140.9810   71.8710  221.8190 N   0  0  0  0  0  0  0  0  0  0  0  0
  141.0510   72.7570  220.6870 C   0  0  0  0  0  0  0  0  0  0  0  0
  141.8440   73.9820  220.9690 C   0  0  0  0  0  0  0  0  0  0  0  0
  141.3040   74.8910  221.6120 O   0  0  0  0  0  0  0  0  0  0  0  0
  143.1760   74.0130  220.4690 N   0  0  0  0  0  0  0  0  0  0  0  0
  144.3130   73.1810  220.8260 C   0  0  0  0  0  0  0  0  0  0  0  0
  144.9970   72.9720  219.4780 C   0  0  2  0  0  0  0  0  0  0  0  0
  146.3190   73.3760  219.4930 O   0  0  0  0  0  0  0  0  0  0  0  0
  144.2640   73.8840  218.4890 C   0  0  0  0  0  0  0  0  0  0  0  0
  143.7220   74.9290  219.4420 C   0  0  1  0  0  0  0  0  0  0  0  0
  142.6600   75.7730  218.8440 C   0  0  0  0  0  0  0  0  0  0  0  0
  142.6720   77.0390  219.3900 O   0  0  0  0  0  0  0  0  0  0  0  0
  141.4750   77.5120  219.8700 C   0  0  0  0  0  0  0  0  0  0  0  0
  141.6880   78.5620  220.9340 C   0  0  0  0  0  0  0  0  0  0  0  0
  142.0040   79.8650  220.6080 C   0  0  0  0  0  0  0  0  0  0  0  0
  142.1800   80.7500  221.6350 C   0  0  0  0  0  0  0  0  0  0  0  0
  142.0590   80.4140  222.9720 C   0  0  0  0  0  0  0  0  0  0  0  0
  142.2990   81.6020  224.2390 Cl  0  0  0  0  0  0  0  0  0  0  0  0
  141.7440   79.1070  223.2880 C   0  0  0  0  0  0  0  0  0  0  0  0
  141.5570   78.1780  222.2710 C   0  0  0  0  0  0  0  0  0  0  0  0
  139.8560   70.9120  223.8090 C   0  0  0  0  0  0  0  0  0  0  0  0
  139.3030   69.6580  223.7220 C   0  0  0  0  0  0  0  0  0  0  0  0
  139.3170   68.7790  224.8010 C   0  0  0  0  0  0  0  0  0  0  0  0
  139.9000   69.1780  225.9890 C   0  0  0  0  0  0  0  0  0  0  0  0
  139.9460   68.3480  227.1040 C   0  0  0  0  0  0  0  0  0  0  0  0
  140.5370   68.7960  228.2560 C   0  0  0  0  0  0  0  0  0  0  0  0
  140.6050   68.0120  229.3760 F   0  0  0  0  0  0  0  0  0  0  0  0
  141.0780   70.0590  228.2970 C   0  0  0  0  0  0  0  0  0  0  0  0
  141.0520   70.9140  227.2120 C   0  0  0  0  0  0  0  0  0  0  0  0
  140.4500   70.4390  226.0630 C   0  0  0  0  0  0  0  0  0  0  0  0
  140.4130   71.2500  224.9940 N   0  0  0  0  0  0  0  0  0  0  0  0
  141.7870   71.2120  222.0370 H   0  0  0  0  0  0  0  0  0  0  0  0
  141.5178   72.2204  219.8478 H   0  0  0  0  0  0  0  0  0  0  0  0
  140.0250   73.0721  220.4462 H   0  0  0  0  0  0  0  0  0  0  0  0
  144.9777   73.6970  221.5345 H   0  0  0  0  0  0  0  0  0  0  0  0
  144.0330   72.2435  221.3286 H   0  0  0  0  0  0  0  0  0  0  0  0
  144.9661   71.9035  219.2186 H   0  0  0  0  0  0  0  0  0  0  0  0
  146.4610   74.3350  219.3430 H   0  0  0  0  0  0  0  0  0  0  0  0
  144.9524   74.3226  217.7516 H   0  0  0  0  0  0  0  0  0  0  0  0
  143.5036   73.3814  217.8732 H   0  0  0  0  0  0  0  0  0  0  0  0
  144.4552   75.6744  219.7837 H   0  0  0  0  0  0  0  0  0  0  0  0
  142.8269   75.8470  217.7592 H   0  0  0  0  0  0  0  0  0  0  0  0
  141.6842   75.3098  219.0518 H   0  0  0  0  0  0  0  0  0  0  0  0
  140.9051   77.9538  219.0393 H   0  0  0  0  0  0  0  0  0  0  0  0
  140.9231   76.6717  220.3164 H   0  0  0  0  0  0  0  0  0  0  0  0
  142.1105   80.1803  219.5595 H   0  0  0  0  0  0  0  0  0  0  0  0
  142.4327   81.7907  221.3838 H   0  0  0  0  0  0  0  0  0  0  0  0
  141.6415   78.8024  224.3400 H   0  0  0  0  0  0  0  0  0  0  0  0
  141.3049   77.1366  222.5198 H   0  0  0  0  0  0  0  0  0  0  0  0
  138.8379   69.3407  222.7770 H   0  0  0  0  0  0  0  0  0  0  0  0
  138.8693   67.7784  224.7094 H   0  0  0  0  0  0  0  0  0  0  0  0
  139.5108   67.3386  227.0613 H   0  0  0  0  0  0  0  0  0  0  0  0
  141.5498   70.4022  229.2295 H   0  0  0  0  0  0  0  0  0  0  0  0
  141.4888   71.9224  227.2607 H   0  0  0  0  0  0  0  0  0  0  0  0
  1  2  2  0
  2  3  1  0
  3  4  1  0
  4  5  1  0
  5  6  2  0
  5  7  1  0
  7  8  1  0
  8  9  1  0
  9 10  1  0
  9 11  1  0
 11 12  1  0
 12 13  1  0
 13 14  1  0
 14 15  1  0
 15 16  1  0
 16 17  2  0
 17 18  1  0
 18 19  2  0
 19 20  1  0
 19 21  1  0
 21 22  2  0
  2 23  1  0
 23 24  2  0
 24 25  1  0
 25 26  2  0
 26 27  1  0
 27 28  2  0
 28 29  1  0
 28 30  1  0
 30 31  2  0
 31 32  1  0
 32 33  2  0
 12  7  1  0
 22 16  1  0
 33 23  1  0
 32 26  1  0
  3 34  1  0
  4 35  1  0
  4 36  1  0
  8 37  1  0
  8 38  1  0
  9 39  1  6
 10 40  1  0
 11 41  1  0
 11 42  1  0
 12 43  1  1
 13 44  1  0
 13 45  1  0
 15 46  1  0
 15 47  1  0
 17 48  1  0
 18 49  1  0
 21 50  1  0
 22 51  1  0
 24 52  1  0
 25 53  1  0
 27 54  1  0
 30 55  1  0
 31 56  1  0
M  END
>  <smiles>  (11) 
O=C(NCC(=O)N1C[C@H](O)C[C@H]1COCc1ccc(Cl)cc1)c1ccc2cc(F)ccc2n1

>  <score_type>  (11) 
oracle

>  <origin>  (11) 
autodockgpu

>  <m_score__min__energy>  (11) 
-9.4600000000000009

>  <m_primary>  (11) 
energy

>  <rmsd>  (11) 
3.2804240487417453

>  <m_score__min__rmsd>  (11) 
3.2804240487417453

>  <meeko>  (11) 
{"free_energy": -9.35, "intermolecular_energy": -12.03, "internal_energy": -1.44, "cluster_size": 20, "cluster_id": 1, "rank_in_cluster": 2}

>  <energy>  (11) 
-8.33

>  <cluster_rmsd>  (11) 
1.58

>  <cluster>  (11) 
1

$$$$

     RDKit          3D

 56 59  0  0  0  0  0  0  0  0999 V2000
  139.5110   73.6290  222.3850 O   0  0  0  0  0  0  0  0  0  0  0  0
  140.2820   72.6390  222.4400 C   0  0  0  0  0  0  0  0  0  0  0  0
  141.2830   72.4380  221.4490 N   0  0  0  0  0  0  0  0  0  0  0  0
  141.4520   73.3540  220.3510 C   0  0  0  0  0  0  0  0  0  0  0  0
  142.7010   74.1520  220.4600 C   0  0  0  0  0  0  0  0  0  0  0  0
  143.7230   73.5830  220.8620 O   0  0  0  0  0  0  0  0  0  0  0  0
  142.6190   75.5240  220.0890 N   0  0  0  0  0  0  0  0  0  0  0  0
  143.2880   76.2270  219.0080 C   0  0  0  0  0  0  0  0  0  0  0  0
  142.2020   77.1810  218.5220 C   0  0  2  0  0  0  0  0  0  0  0  0
  142.6130   78.5010  218.5500 O   0  0  0  0  0  0  0  0  0  0  0  0
  141.0500   77.0520  219.5230 C   0  0  0  0  0  0  0  0  0  0  0  0
  141.8090   76.5770  220.7430 C   0  0  1  0  0  0  0  0  0  0  0  0
  140.9330   76.0140  221.7990 C   0  0  0  0  0  0  0  0  0  0  0  0
  140.4670   77.0080  222.6330 O   0  0  0  0  0  0  0  0  0  0  0  0
  141.4060   77.8680  223.1480 C   0  0  0  0  0  0  0  0  0  0  0  0
  141.1630   79.2840  222.6860 C   0  0  0  0  0  0  0  0  0  0  0  0
  140.1040   80.0270  223.1670 C   0  0  0  0  0  0  0  0  0  0  0  0
  139.9580   81.3020  222.6940 C   0  0  0  0  0  0  0  0  0  0  0  0
  140.8070   81.8830  221.7690 C   0  0  0  0  0  0  0  0  0  0  0  0
  140.5600   83.5260  221.2060 Cl  0  0  0  0  0  0  0  0  0  0  0  0
  141.8640   81.1310  221.2940 C   0  0  0  0  0  0  0  0  0  0  0  0
  142.0450   79.8310  221.7510 C   0  0  0  0  0  0  0  0  0  0  0  0
  140.1780   71.6580  223.5260 C   0  0  0  0  0  0  0  0  0  0  0  0
  139.6150   70.4200  223.3360 C   0  0  0  0  0  0  0  0  0  0  0  0
  139.5200   69.4950  224.3730 C   0  0  0  0  0  0  0  0  0  0  0  0
  140.0040   69.8320  225.6230 C   0  0  0  0  0  0  0  0  0  0  0  0
  139.9390   68.9540  226.7000 C   0  0  0  0  0  0  0  0  0  0  0  0
  140.4340   69.3400  227.9170 C   0  0  0  0  0  0  0  0  0  0  0  0
  140.3910   68.5080  229.0030 F   0  0  0  0  0  0  0  0  0  0  0  0
  140.9890   70.5900  228.0610 C   0  0  0  0  0  0  0  0  0  0  0  0
  141.0720   71.4910  227.0160 C   0  0  0  0  0  0  0  0  0  0  0  0
  140.5660   71.0770  225.8000 C   0  0  0  0  0  0  0  0  0  0  0  0
  140.6340   71.9340  224.7690 N   0  0  0  0  0  0  0  0  0  0  0  0
  141.9120   71.5850  221.5400 H   0  0  0  0  0  0  0  0  0  0  0  0
  141.4819   72.7789  219.4138 H   0  0  0  0  0  0  0  0  0  0  0  0
  140.6053   74.0560  220.3692 H   0  0  0  0  0  0  0  0  0  0  0  0
  144.1673   76.7772  219.3742 H   0  0  0  0  0  0  0  0  0  0  0  0
  143.6749   75.5618  218.2220 H   0  0  0  0  0  0  0  0  0  0  0  0
  141.9336   76.9255  217.4863 H   0  0  0  0  0  0  0  0  0  0  0  0
  143.5020   78.6500  218.9390 H   0  0  0  0  0  0  0  0  0  0  0  0
  140.5550   78.0180  219.7014 H   0  0  0  0  0  0  0  0  0  0  0  0
  140.2312   76.3913  219.2022 H   0  0  0  0  0  0  0  0  0  0  0  0
  142.3593   77.3611  221.2838 H   0  0  0  0  0  0  0  0  0  0  0  0
  140.0772   75.5099  221.3262 H   0  0  0  0  0  0  0  0  0  0  0  0
  141.5176   75.2991  222.3966 H   0  0  0  0  0  0  0  0  0  0  0  0
  141.3574   77.8359  224.2465 H   0  0  0  0  0  0  0  0  0  0  0  0
  142.3983   77.5521  222.7936 H   0  0  0  0  0  0  0  0  0  0  0  0
  139.4027   79.6089  223.9042 H   0  0  0  0  0  0  0  0  0  0  0  0
  139.1159   81.9008  223.0713 H   0  0  0  0  0  0  0  0  0  0  0  0
  142.5595   81.5593  220.5572 H   0  0  0  0  0  0  0  0  0  0  0  0
  142.8863   79.2303  221.3749 H   0  0  0  0  0  0  0  0  0  0  0  0
  139.2298   70.1524  222.3410 H   0  0  0  0  0  0  0  0  0  0  0  0
  139.0654   68.5085  224.1993 H   0  0  0  0  0  0  0  0  0  0  0  0
  139.4929   67.9563  226.5749 H   0  0  0  0  0  0  0  0  0  0  0  0
  141.3819   70.8841  229.0455 H   0  0  0  0  0  0  0  0  0  0  0  0
  141.5187   72.4877  227.1467 H   0  0  0  0  0  0  0  0  0  0  0  0
  1  2  2  0
  2  3  1  0
  3  4  1  0
  4  5  1  0
  5  6  2  0
  5  7  1  0
  7  8  1  0
  8  9  1  0
  9 10  1  0
  9 11  1  0
 11 12  1  0
 12 13  1  0
 13 14  1  0
 14 15  1  0
 15 16  1  0
 16 17  2  0
 17 18  1  0
 18 19  2  0
 19 20  1  0
 19 21  1  0
 21 22  2  0
  2 23  1  0
 23 24  2  0
 24 25  1  0
 25 26  2  0
 26 27  1  0
 27 28  2  0
 28 29  1  0
 28 30  1  0
 30 31  2  0
 31 32  1  0
 32 33  2  0
 12  7  1  0
 22 16  1  0
 33 23  1  0
 32 26  1  0
  3 34  1  0
  4 35  1  0
  4 36  1  0
  8 37  1  0
  8 38  1  0
  9 39  1  6
 10 40  1  0
 11 41  1  0
 11 42  1  0
 12 43  1  1
 13 44  1  0
 13 45  1  0
 15 46  1  0
 15 47  1  0
 17 48  1  0
 18 49  1  0
 21 50  1  0
 22 51  1  0
 24 52  1  0
 25 53  1  0
 27 54  1  0
 30 55  1  0
 31 56  1  0
M  END
>  <smiles>  (12) 
O=C(NCC(=O)N1C[C@H](O)C[C@H]1COCc1ccc(Cl)cc1)c1ccc2cc(F)ccc2n1

>  <score_type>  (12) 
oracle

>  <origin>  (12) 
autodockgpu

>  <m_score__min__energy>  (12) 
-9.4600000000000009

>  <m_primary>  (12) 
energy

>  <rmsd>  (12) 
2.429447054258271

>  <m_score__min__rmsd>  (12) 
2.429447054258271

>  <meeko>  (12) 
{"free_energy": -8.45, "intermolecular_energy": -11.13, "internal_energy": -1.72, "cluster_size": 20, "cluster_id": 1, "rank_in_cluster": 10}

>  <energy>  (12) 
-8.25

>  <cluster_rmsd>  (12) 
1.15

>  <cluster>  (12) 
1

$$$$

     RDKit          3D

 56 59  0  0  0  0  0  0  0  0999 V2000
  139.7640   70.8740  221.3290 O   0  0  0  0  0  0  0  0  0  0  0  0
  139.8150   71.3750  222.4800 C   0  0  0  0  0  0  0  0  0  0  0  0
  139.8930   72.7840  222.6590 N   0  0  0  0  0  0  0  0  0  0  0  0
  139.9160   73.6870  221.5390 C   0  0  0  0  0  0  0  0  0  0  0  0
  141.0530   74.6420  221.5960 C   0  0  0  0  0  0  0  0  0  0  0  0
  140.9520   75.6240  222.3420 O   0  0  0  0  0  0  0  0  0  0  0  0
  142.1800   74.3460  220.7800 N   0  0  0  0  0  0  0  0  0  0  0  0
  142.7740   73.0590  220.4610 C   0  0  0  0  0  0  0  0  0  0  0  0
  143.1580   73.2330  218.9950 C   0  0  2  0  0  0  0  0  0  0  0  0
  144.5020   72.9970  218.7730 O   0  0  0  0  0  0  0  0  0  0  0  0
  142.9050   74.7090  218.6680 C   0  0  0  0  0  0  0  0  0  0  0  0
  143.0300   75.3130  220.0490 C   0  0  1  0  0  0  0  0  0  0  0  0
  142.4890   76.6910  220.1390 C   0  0  0  0  0  0  0  0  0  0  0  0
  141.3700   76.8330  219.3470 O   0  0  0  0  0  0  0  0  0  0  0  0
  140.3860   77.6670  219.8180 C   0  0  0  0  0  0  0  0  0  0  0  0
  140.9020   78.5450  220.9340 C   0  0  0  0  0  0  0  0  0  0  0  0
  140.5800   78.2960  222.2520 C   0  0  0  0  0  0  0  0  0  0  0  0
  141.0900   79.1410  223.1990 C   0  0  0  0  0  0  0  0  0  0  0  0
  141.9050   80.2210  222.9090 C   0  0  0  0  0  0  0  0  0  0  0  0
  142.5250   81.2650  224.1750 Cl  0  0  0  0  0  0  0  0  0  0  0  0
  142.2210   80.4610  221.5860 C   0  0  0  0  0  0  0  0  0  0  0  0
  141.7210   79.6240  220.5950 C   0  0  0  0  0  0  0  0  0  0  0  0
  139.7960   70.5260  223.6760 C   0  0  0  0  0  0  0  0  0  0  0  0
  139.2370   69.2720  223.6680 C   0  0  0  0  0  0  0  0  0  0  0  0
  139.2240   68.4720  224.8090 C   0  0  0  0  0  0  0  0  0  0  0  0
  139.7860   68.9530  225.9760 C   0  0  0  0  0  0  0  0  0  0  0  0
  139.8050   68.2060  227.1490 C   0  0  0  0  0  0  0  0  0  0  0  0
  140.3760   68.7320  228.2760 C   0  0  0  0  0  0  0  0  0  0  0  0
  140.4170   68.0310  229.4520 F   0  0  0  0  0  0  0  0  0  0  0  0
  140.9240   69.9930  228.2380 C   0  0  0  0  0  0  0  0  0  0  0  0
  140.9260   70.7670  227.0930 C   0  0  0  0  0  0  0  0  0  0  0  0
  140.3440   70.2140  225.9690 C   0  0  0  0  0  0  0  0  0  0  0  0
  140.3320   70.9460  224.8440 N   0  0  0  0  0  0  0  0  0  0  0  0
  139.9330   73.1590  223.6540 H   0  0  0  0  0  0  0  0  0  0  0  0
  139.9972   73.0979  220.6136 H   0  0  0  0  0  0  0  0  0  0  0  0
  138.9866   74.2747  221.5667 H   0  0  0  0  0  0  0  0  0  0  0  0
  143.6591   72.8633  221.0842 H   0  0  0  0  0  0  0  0  0  0  0  0
  142.1026   72.2068  220.6424 H   0  0  0  0  0  0  0  0  0  0  0  0
  142.5790   72.5259  218.3828 H   0  0  0  0  0  0  0  0  0  0  0  0
  144.8640   72.2080  219.2300 H   0  0  0  0  0  0  0  0  0  0  0  0
  143.6624   75.1093  217.9780 H   0  0  0  0  0  0  0  0  0  0  0  0
  141.9511   74.9125  218.1595 H   0  0  0  0  0  0  0  0  0  0  0  0
  144.0612   75.4375  220.4110 H   0  0  0  0  0  0  0  0  0  0  0  0
  142.2200   76.9047  221.1840 H   0  0  0  0  0  0  0  0  0  0  0  0
  143.2589   77.3943  219.7888 H   0  0  0  0  0  0  0  0  0  0  0  0
  140.0315   78.3045  218.9946 H   0  0  0  0  0  0  0  0  0  0  0  0
  139.5651   77.0497  220.2116 H   0  0  0  0  0  0  0  0  0  0  0  0
  139.9365   77.4487  222.5313 H   0  0  0  0  0  0  0  0  0  0  0  0
  140.8375   78.9509  224.2526 H   0  0  0  0  0  0  0  0  0  0  0  0
  142.8656   81.3109  221.3176 H   0  0  0  0  0  0  0  0  0  0  0  0
  141.9713   79.8123  219.5405 H   0  0  0  0  0  0  0  0  0  0  0  0
  138.7888   68.8898  222.7390 H   0  0  0  0  0  0  0  0  0  0  0  0
  138.7718   67.4697  224.7809 H   0  0  0  0  0  0  0  0  0  0  0  0
  139.3638   67.1986  227.1707 H   0  0  0  0  0  0  0  0  0  0  0  0
  141.3777   70.4008  229.1534 H   0  0  0  0  0  0  0  0  0  0  0  0
  141.3692   71.7737  227.0776 H   0  0  0  0  0  0  0  0  0  0  0  0
  1  2  2  0
  2  3  1  0
  3  4  1  0
  4  5  1  0
  5  6  2  0
  5  7  1  0
  7  8  1  0
  8  9  1  0
  9 10  1  0
  9 11  1  0
 11 12  1  0
 12 13  1  0
 13 14  1  0
 14 15  1  0
 15 16  1  0
 16 17  2  0
 17 18  1  0
 18 19  2  0
 19 20  1  0
 19 21  1  0
 21 22  2  0
  2 23  1  0
 23 24  2  0
 24 25  1  0
 25 26  2  0
 26 27  1  0
 27 28  2  0
 28 29  1  0
 28 30  1  0
 30 31  2  0
 31 32  1  0
 32 33  2  0
 12  7  1  0
 22 16  1  0
 33 23  1  0
 32 26  1  0
  3 34  1  0
  4 35  1  0
  4 36  1  0
  8 37  1  0
  8 38  1  0
  9 39  1  6
 10 40  1  0
 11 41  1  0
 11 42  1  0
 12 43  1  1
 13 44  1  0
 13 45  1  0
 15 46  1  0
 15 47  1  0
 17 48  1  0
 18 49  1  0
 21 50  1  0
 22 51  1  0
 24 52  1  0
 25 53  1  0
 27 54  1  0
 30 55  1  0
 31 56  1  0
M  END
>  <smiles>  (13) 
O=C(NCC(=O)N1C[C@H](O)C[C@H]1COCc1ccc(Cl)cc1)c1ccc2cc(F)ccc2n1

>  <score_type>  (13) 
oracle

>  <origin>  (13) 
autodockgpu

>  <m_score__min__energy>  (13) 
-9.4600000000000009

>  <m_primary>  (13) 
energy

>  <rmsd>  (13) 
2.3112444221841844

>  <m_score__min__rmsd>  (13) 
2.3112444221841844

>  <meeko>  (13) 
{"free_energy": -7.87, "intermolecular_energy": -10.55, "internal_energy": -1.8, "cluster_size": 20, "cluster_id": 1, "rank_in_cluster": 16}

>  <energy>  (13) 
-8.12

>  <cluster_rmsd>  (13) 
1.84

>  <cluster>  (13) 
1

$$$$

     RDKit          3D

 56 59  0  0  0  0  0  0  0  0999 V2000
  138.2720   77.5360  222.4800 O   0  0  0  0  0  0  0  0  0  0  0  0
  138.4390   76.2940  222.4050 C   0  0  0  0  0  0  0  0  0  0  0  0
  137.4250   75.3940  222.8370 N   0  0  0  0  0  0  0  0  0  0  0  0
  136.1760   75.8670  223.3730 C   0  0  0  0  0  0  0  0  0  0  0  0
  135.0880   74.8600  223.2620 C   0  0  0  0  0  0  0  0  0  0  0  0
  134.4910   74.7640  222.1830 O   0  0  0  0  0  0  0  0  0  0  0  0
  134.8170   74.0780  224.4200 N   0  0  0  0  0  0  0  0  0  0  0  0
  134.1520   74.4590  225.6540 C   0  0  0  0  0  0  0  0  0  0  0  0
  133.3400   73.2110  225.9830 C   0  0  2  0  0  0  0  0  0  0  0  0
  133.6280   72.7160  227.2420 O   0  0  0  0  0  0  0  0  0  0  0  0
  133.7810   72.1450  224.9740 C   0  0  0  0  0  0  0  0  0  0  0  0
  135.1650   72.6550  224.6360 C   0  0  1  0  0  0  0  0  0  0  0  0
  135.7350   72.0410  223.4120 C   0  0  0  0  0  0  0  0  0  0  0  0
  137.0370   72.4480  223.2170 O   0  0  0  0  0  0  0  0  0  0  0  0
  137.9320   71.4800  222.8330 C   0  0  0  0  0  0  0  0  0  0  0  0
  138.6580   70.9020  224.0250 C   0  0  0  0  0  0  0  0  0  0  0  0
  139.8160   71.4730  224.5090 C   0  0  0  0  0  0  0  0  0  0  0  0
  140.4080   70.8850  225.5930 C   0  0  0  0  0  0  0  0  0  0  0  0
  139.9110   69.7590  226.2250 C   0  0  0  0  0  0  0  0  0  0  0  0
  140.7230   69.0550  227.6120 Cl  0  0  0  0  0  0  0  0  0  0  0  0
  138.7510   69.1940  225.7320 C   0  0  0  0  0  0  0  0  0  0  0  0
  138.1210   69.7640  224.6320 C   0  0  0  0  0  0  0  0  0  0  0  0
  139.6830   75.7280  221.8700 C   0  0  0  0  0  0  0  0  0  0  0  0
  140.6310   76.5090  221.2560 C   0  0  0  0  0  0  0  0  0  0  0  0
  141.8090   75.9640  220.7510 C   0  0  0  0  0  0  0  0  0  0  0  0
  142.0270   74.6040  220.8690 C   0  0  0  0  0  0  0  0  0  0  0  0
  143.1820   73.9980  220.3860 C   0  0  0  0  0  0  0  0  0  0  0  0
  143.3470   72.6460  220.5310 C   0  0  0  0  0  0  0  0  0  0  0  0
  144.4670   72.0080  220.0710 F   0  0  0  0  0  0  0  0  0  0  0  0
  142.3700   71.9040  221.1520 C   0  0  0  0  0  0  0  0  0  0  0  0
  141.2090   72.4680  221.6460 C   0  0  0  0  0  0  0  0  0  0  0  0
  141.0670   73.8330  221.4870 C   0  0  0  0  0  0  0  0  0  0  0  0
  139.9480   74.4050  221.9580 N   0  0  0  0  0  0  0  0  0  0  0  0
  137.6140   74.3510  222.7520 H   0  0  0  0  0  0  0  0  0  0  0  0
  136.3197   76.1147  224.4351 H   0  0  0  0  0  0  0  0  0  0  0  0
  135.8749   76.7484  222.7878 H   0  0  0  0  0  0  0  0  0  0  0  0
  134.8809   74.6809  226.4474 H   0  0  0  0  0  0  0  0  0  0  0  0
  133.5426   75.3702  225.5632 H   0  0  0  0  0  0  0  0  0  0  0  0
  132.2683   73.4558  225.9453 H   0  0  0  0  0  0  0  0  0  0  0  0
  133.0230   73.0180  227.9540 H   0  0  0  0  0  0  0  0  0  0  0  0
  133.8151   71.1435  225.4277 H   0  0  0  0  0  0  0  0  0  0  0  0
  133.1108   72.0206  224.1107 H   0  0  0  0  0  0  0  0  0  0  0  0
  135.9371   72.4431  225.3903 H   0  0  0  0  0  0  0  0  0  0  0  0
  135.7117   70.9460  223.5142 H   0  0  0  0  0  0  0  0  0  0  0  0
  135.1345   72.3596  222.5472 H   0  0  0  0  0  0  0  0  0  0  0  0
  137.3892   70.6736  222.3181 H   0  0  0  0  0  0  0  0  0  0  0  0
  138.6739   71.9384  222.1626 H   0  0  0  0  0  0  0  0  0  0  0  0
  140.2483   72.3693  224.0402 H   0  0  0  0  0  0  0  0  0  0  0  0
  141.3328   71.3334  225.9849 H   0  0  0  0  0  0  0  0  0  0  0  0
  138.3278   68.2970  226.2078 H   0  0  0  0  0  0  0  0  0  0  0  0
  137.1962   69.3175  224.2379 H   0  0  0  0  0  0  0  0  0  0  0  0
  140.4558   77.5908  221.1607 H   0  0  0  0  0  0  0  0  0  0  0  0
  142.5566   76.6077  220.2644 H   0  0  0  0  0  0  0  0  0  0  0  0
  143.9578   74.6005  219.8909 H   0  0  0  0  0  0  0  0  0  0  0  0
  142.5182   70.8194  221.2598 H   0  0  0  0  0  0  0  0  0  0  0  0
  140.4369   71.8606  222.1409 H   0  0  0  0  0  0  0  0  0  0  0  0
  1  2  2  0
  2  3  1  0
  3  4  1  0
  4  5  1  0
  5  6  2  0
  5  7  1  0
  7  8  1  0
  8  9  1  0
  9 10  1  0
  9 11  1  0
 11 12  1  0
 12 13  1  0
 13 14  1  0
 14 15  1  0
 15 16  1  0
 16 17  2  0
 17 18  1  0
 18 19  2  0
 19 20  1  0
 19 21  1  0
 21 22  2  0
  2 23  1  0
 23 24  2  0
 24 25  1  0
 25 26  2  0
 26 27  1  0
 27 28  2  0
 28 29  1  0
 28 30  1  0
 30 31  2  0
 31 32  1  0
 32 33  2  0
 12  7  1  0
 22 16  1  0
 33 23  1  0
 32 26  1  0
  3 34  1  0
  4 35  1  0
  4 36  1  0
  8 37  1  0
  8 38  1  0
  9 39  1  1
 10 40  1  0
 11 41  1  0
 11 42  1  0
 12 43  1  1
 13 44  1  0
 13 45  1  0
 15 46  1  0
 15 47  1  0
 17 48  1  0
 18 49  1  0
 21 50  1  0
 22 51  1  0
 24 52  1  0
 25 53  1  0
 27 54  1  0
 30 55  1  0
 31 56  1  0
M  END
>  <smiles>  (14) 
O=C(NCC(=O)N1C[C@H](O)C[C@H]1COCc1ccc(Cl)cc1)c1ccc2cc(F)ccc2n1

>  <score_type>  (14) 
oracle

>  <origin>  (14) 
autodockgpu

>  <m_score__min__energy>  (14) 
-9.4600000000000009

>  <m_primary>  (14) 
energy

>  <rmsd>  (14) 
7.944767382319943

>  <m_score__min__rmsd>  (14) 
7.944767382319943

>  <meeko>  (14) 
{"free_energy": -7.36, "intermolecular_energy": -10.05, "internal_energy": -3.16, "cluster_size": 3, "cluster_id": 7, "rank_in_cluster": 1}

>  <energy>  (14) 
-8.07

>  <cluster_rmsd>  (14) 
1.96

>  <cluster>  (14) 
1

$$$$

     RDKit          3D

 56 59  0  0  0  0  0  0  0  0999 V2000
  138.7270   75.3060  221.7190 O   0  0  0  0  0  0  0  0  0  0  0  0
  139.8910   75.7180  221.9520 C   0  0  0  0  0  0  0  0  0  0  0  0
  141.0180   74.8750  221.7440 N   0  0  0  0  0  0  0  0  0  0  0  0
  140.8730   73.5260  221.2620 C   0  0  0  0  0  0  0  0  0  0  0  0
  141.5860   73.2980  219.9790 C   0  0  0  0  0  0  0  0  0  0  0  0
  140.9160   73.2530  218.9400 O   0  0  0  0  0  0  0  0  0  0  0  0
  143.0000   73.1470  220.0490 N   0  0  0  0  0  0  0  0  0  0  0  0
  143.7920   71.9360  220.1700 C   0  0  0  0  0  0  0  0  0  0  0  0
  144.9850   72.2370  219.2690 C   0  0  2  0  0  0  0  0  0  0  0  0
  146.1900   72.1230  219.9390 O   0  0  0  0  0  0  0  0  0  0  0  0
  144.8400   73.7060  218.8590 C   0  0  0  0  0  0  0  0  0  0  0  0
  144.0140   74.2260  220.0150 C   0  0  1  0  0  0  0  0  0  0  0  0
  143.3960   75.5470  219.7480 C   0  0  0  0  0  0  0  0  0  0  0  0
  142.6870   75.5290  218.5660 O   0  0  0  0  0  0  0  0  0  0  0  0
  142.8180   76.6300  217.7550 C   0  0  0  0  0  0  0  0  0  0  0  0
  142.2500   77.8650  218.4130 C   0  0  0  0  0  0  0  0  0  0  0  0
  141.1280   77.8040  219.2120 C   0  0  0  0  0  0  0  0  0  0  0  0
  140.6820   78.9710  219.7690 C   0  0  0  0  0  0  0  0  0  0  0  0
  141.2900   80.1990  219.5750 C   0  0  0  0  0  0  0  0  0  0  0  0
  140.6630   81.6580  220.3200 Cl  0  0  0  0  0  0  0  0  0  0  0  0
  142.4130   80.2490  218.7720 C   0  0  0  0  0  0  0  0  0  0  0  0
  142.8960   79.0830  218.1890 C   0  0  0  0  0  0  0  0  0  0  0  0
  140.1270   77.0790  222.4450 C   0  0  0  0  0  0  0  0  0  0  0  0
  139.1000   77.8900  222.8600 C   0  0  0  0  0  0  0  0  0  0  0  0
  139.3340   79.1820  223.3260 C   0  0  0  0  0  0  0  0  0  0  0  0
  140.6310   79.6580  223.3720 C   0  0  0  0  0  0  0  0  0  0  0  0
  140.9310   80.9380  223.8260 C   0  0  0  0  0  0  0  0  0  0  0  0
  142.2340   81.3580  223.8500 C   0  0  0  0  0  0  0  0  0  0  0  0
  142.5750   82.6080  224.2900 F   0  0  0  0  0  0  0  0  0  0  0  0
  143.2310   80.5110  223.4240 C   0  0  0  0  0  0  0  0  0  0  0  0
  142.9740   79.2330  222.9660 C   0  0  0  0  0  0  0  0  0  0  0  0
  141.6520   78.8330  222.9520 C   0  0  0  0  0  0  0  0  0  0  0  0
  141.3750   77.5960  222.5110 N   0  0  0  0  0  0  0  0  0  0  0  0
  141.9830   75.2700  221.9550 H   0  0  0  0  0  0  0  0  0  0  0  0
  141.2779   72.8365  222.0174 H   0  0  0  0  0  0  0  0  0  0  0  0
  139.8020   73.3492  221.0839 H   0  0  0  0  0  0  0  0  0  0  0  0
  144.1099   71.7701  221.2099 H   0  0  0  0  0  0  0  0  0  0  0  0
  143.2467   71.0230  219.8888 H   0  0  0  0  0  0  0  0  0  0  0  0
  144.9912   71.5290  218.4271 H   0  0  0  0  0  0  0  0  0  0  0  0
  146.1180   71.8260  220.8710 H   0  0  0  0  0  0  0  0  0  0  0  0
  145.8158   74.2098  218.7964 H   0  0  0  0  0  0  0  0  0  0  0  0
  144.3958   73.8662  217.8655 H   0  0  0  0  0  0  0  0  0  0  0  0
  144.5742   74.4088  220.9439 H   0  0  0  0  0  0  0  0  0  0  0  0
  142.7137   75.7987  220.5733 H   0  0  0  0  0  0  0  0  0  0  0  0
  144.1950   76.2986  219.6669 H   0  0  0  0  0  0  0  0  0  0  0  0
  143.8848   76.7948  217.5436 H   0  0  0  0  0  0  0  0  0  0  0  0
  142.2617   76.4446  216.8243 H   0  0  0  0  0  0  0  0  0  0  0  0
  140.6101   76.8510  219.3950 H   0  0  0  0  0  0  0  0  0  0  0  0
  139.7879   78.9311  220.4085 H   0  0  0  0  0  0  0  0  0  0  0  0
  142.9229   81.2074  218.5946 H   0  0  0  0  0  0  0  0  0  0  0  0
  143.7900   79.1197  217.5491 H   0  0  0  0  0  0  0  0  0  0  0  0
  138.0681   77.5108  222.8238 H   0  0  0  0  0  0  0  0  0  0  0  0
  138.4966   79.8157  223.6534 H   0  0  0  0  0  0  0  0  0  0  0  0
  140.1269   81.6084  224.1635 H   0  0  0  0  0  0  0  0  0  0  0  0
  144.2723   80.8647  223.4490 H   0  0  0  0  0  0  0  0  0  0  0  0
  143.7822   78.5671  222.6292 H   0  0  0  0  0  0  0  0  0  0  0  0
  1  2  2  0
  2  3  1  0
  3  4  1  0
  4  5  1  0
  5  6  2  0
  5  7  1  0
  7  8  1  0
  8  9  1  0
  9 10  1  0
  9 11  1  0
 11 12  1  0
 12 13  1  0
 13 14  1  0
 14 15  1  0
 15 16  1  0
 16 17  2  0
 17 18  1  0
 18 19  2  0
 19 20  1  0
 19 21  1  0
 21 22  2  0
  2 23  1  0
 23 24  2  0
 24 25  1  0
 25 26  2  0
 26 27  1  0
 27 28  2  0
 28 29  1  0
 28 30  1  0
 30 31  2  0
 31 32  1  0
 32 33  2  0
 12  7  1  0
 22 16  1  0
 33 23  1  0
 32 26  1  0
  3 34  1  0
  4 35  1  0
  4 36  1  0
  8 37  1  0
  8 38  1  0
  9 39  1  6
 10 40  1  0
 11 41  1  0
 11 42  1  0
 12 43  1  1
 13 44  1  0
 13 45  1  0
 15 46  1  0
 15 47  1  0
 17 48  1  0
 18 49  1  0
 21 50  1  0
 22 51  1  0
 24 52  1  0
 25 53  1  0
 27 54  1  0
 30 55  1  0
 31 56  1  0
M  END
>  <smiles>  (15) 
O=C(NCC(=O)N1C[C@H](O)C[C@H]1COCc1ccc(Cl)cc1)c1ccc2cc(F)ccc2n1

>  <score_type>  (15) 
oracle

>  <origin>  (15) 
autodockgpu

>  <m_score__min__energy>  (15) 
-9.4600000000000009

>  <m_primary>  (15) 
energy

>  <rmsd>  (15) 
7.932446138716169

>  <m_score__min__rmsd>  (15) 
7.932446138716169

>  <meeko>  (15) 
{"free_energy": -6.95, "intermolecular_energy": -9.63, "internal_energy": -3.43, "cluster_size": 14, "cluster_id": 9, "rank_in_cluster": 2}

>  <energy>  (15) 
-8.04

>  <cluster_rmsd>  (15) 
1.32

>  <cluster>  (15) 
1

$$$$

     RDKit          3D

 56 59  0  0  0  0  0  0  0  0999 V2000
  138.5650   72.3830  222.4380 O   0  0  0  0  0  0  0  0  0  0  0  0
  139.6660   71.9990  222.9050 C   0  0  0  0  0  0  0  0  0  0  0  0
  140.8920   72.5190  222.4040 N   0  0  0  0  0  0  0  0  0  0  0  0
  140.9220   73.5000  221.3510 C   0  0  0  0  0  0  0  0  0  0  0  0
  141.6280   73.0150  220.1380 C   0  0  0  0  0  0  0  0  0  0  0  0
  140.9460   72.6730  219.1630 O   0  0  0  0  0  0  0  0  0  0  0  0
  143.0500   72.9820  220.1940 N   0  0  0  0  0  0  0  0  0  0  0  0
  143.9430   71.8370  220.2460 C   0  0  0  0  0  0  0  0  0  0  0  0
  145.0990   72.2870  219.3580 C   0  0  2  0  0  0  0  0  0  0  0  0
  146.3150   72.2400  220.0160 O   0  0  0  0  0  0  0  0  0  0  0  0
  144.8270   73.7590  219.0290 C   0  0  0  0  0  0  0  0  0  0  0  0
  143.9690   74.1430  220.2150 C   0  0  1  0  0  0  0  0  0  0  0  0
  143.2390   75.4190  220.0230 C   0  0  0  0  0  0  0  0  0  0  0  0
  142.3810   75.3390  218.9470 O   0  0  0  0  0  0  0  0  0  0  0  0
  141.3180   76.2090  218.9430 C   0  0  0  0  0  0  0  0  0  0  0  0
  141.3090   77.0660  220.1870 C   0  0  0  0  0  0  0  0  0  0  0  0
  140.7800   76.6060  221.3750 C   0  0  0  0  0  0  0  0  0  0  0  0
  140.8130   77.4490  222.4520 C   0  0  0  0  0  0  0  0  0  0  0  0
  141.3430   78.7260  222.4140 C   0  0  0  0  0  0  0  0  0  0  0  0
  141.3520   79.7550  223.8350 Cl  0  0  0  0  0  0  0  0  0  0  0  0
  141.8690   79.1780  221.2190 C   0  0  0  0  0  0  0  0  0  0  0  0
  141.8540   78.3500  220.1030 C   0  0  0  0  0  0  0  0  0  0  0  0
  139.7260   71.0020  223.9790 C   0  0  0  0  0  0  0  0  0  0  0  0
  139.1880   69.7470  223.8370 C   0  0  0  0  0  0  0  0  0  0  0  0
  139.2490   68.8070  224.8630 C   0  0  0  0  0  0  0  0  0  0  0  0
  139.8650   69.1470  226.0530 C   0  0  0  0  0  0  0  0  0  0  0  0
  139.9590   68.2550  227.1160 C   0  0  0  0  0  0  0  0  0  0  0  0
  140.5810   68.6450  228.2730 C   0  0  0  0  0  0  0  0  0  0  0  0
  140.6960   67.7990  229.3430 F   0  0  0  0  0  0  0  0  0  0  0  0
  141.1040   69.9130  228.3700 C   0  0  0  0  0  0  0  0  0  0  0  0
  141.0320   70.8280  227.3370 C   0  0  0  0  0  0  0  0  0  0  0  0
  140.4000   70.4100  226.1820 C   0  0  0  0  0  0  0  0  0  0  0  0
  140.3160   71.2810  225.1640 N   0  0  0  0  0  0  0  0  0  0  0  0
  141.7980   72.1630  222.8330 H   0  0  0  0  0  0  0  0  0  0  0  0
  139.8875   73.7553  221.0779 H   0  0  0  0  0  0  0  0  0  0  0  0
  141.4705   74.3760  221.7276 H   0  0  0  0  0  0  0  0  0  0  0  0
  144.2824   71.6427  221.2741 H   0  0  0  0  0  0  0  0  0  0  0  0
  143.4747   70.8974  219.9176 H   0  0  0  0  0  0  0  0  0  0  0  0
  145.1576   71.6285  218.4788 H   0  0  0  0  0  0  0  0  0  0  0  0
  146.2760   71.8890  220.9320 H   0  0  0  0  0  0  0  0  0  0  0  0
  145.7561   74.3466  218.9908 H   0  0  0  0  0  0  0  0  0  0  0  0
  144.3632   73.9348  218.0472 H   0  0  0  0  0  0  0  0  0  0  0  0
  144.5197   74.3216  221.1503 H   0  0  0  0  0  0  0  0  0  0  0  0
  142.6585   75.6416  220.9304 H   0  0  0  0  0  0  0  0  0  0  0  0
  143.9714   76.2166  219.8293 H   0  0  0  0  0  0  0  0  0  0  0  0
  141.3904   76.8600  218.0593 H   0  0  0  0  0  0  0  0  0  0  0  0
  140.3878   75.6224  218.9173 H   0  0  0  0  0  0  0  0  0  0  0  0
  140.3472   75.5978  221.4536 H   0  0  0  0  0  0  0  0  0  0  0  0
  140.3936   77.0903  223.4036 H   0  0  0  0  0  0  0  0  0  0  0  0
  142.2977   80.1887  221.1513 H   0  0  0  0  0  0  0  0  0  0  0  0
  142.2726   78.7065  219.1503 H   0  0  0  0  0  0  0  0  0  0  0  0
  138.6970   69.4773  222.8903 H   0  0  0  0  0  0  0  0  0  0  0  0
  138.8124   67.8064  224.7281 H   0  0  0  0  0  0  0  0  0  0  0  0
  139.5368   67.2430  227.0285 H   0  0  0  0  0  0  0  0  0  0  0  0
  141.5989   70.2105  229.3062 H   0  0  0  0  0  0  0  0  0  0  0  0
  141.4566   71.8385  227.4298 H   0  0  0  0  0  0  0  0  0  0  0  0
  1  2  2  0
  2  3  1  0
  3  4  1  0
  4  5  1  0
  5  6  2  0
  5  7  1  0
  7  8  1  0
  8  9  1  0
  9 10  1  0
  9 11  1  0
 11 12  1  0
 12 13  1  0
 13 14  1  0
 14 15  1  0
 15 16  1  0
 16 17  2  0
 17 18  1  0
 18 19  2  0
 19 20  1  0
 19 21  1  0
 21 22  2  0
  2 23  1  0
 23 24  2  0
 24 25  1  0
 25 26  2  0
 26 27  1  0
 27 28  2  0
 28 29  1  0
 28 30  1  0
 30 31  2  0
 31 32  1  0
 32 33  2  0
 12  7  1  0
 22 16  1  0
 33 23  1  0
 32 26  1  0
  3 34  1  0
  4 35  1  0
  4 36  1  0
  8 37  1  0
  8 38  1  0
  9 39  1  6
 10 40  1  0
 11 41  1  0
 11 42  1  0
 12 43  1  1
 13 44  1  0
 13 45  1  0
 15 46  1  0
 15 47  1  0
 17 48  1  0
 18 49  1  0
 21 50  1  0
 22 51  1  0
 24 52  1  0
 25 53  1  0
 27 54  1  0
 30 55  1  0
 31 56  1  0
M  END
>  <smiles>  (16) 
O=C(NCC(=O)N1C[C@H](O)C[C@H]1COCc1ccc(Cl)cc1)c1ccc2cc(F)ccc2n1

>  <score_type>  (16) 
oracle

>  <origin>  (16) 
autodockgpu

>  <m_score__min__energy>  (16) 
-9.4600000000000009

>  <m_primary>  (16) 
energy

>  <rmsd>  (16) 
3.439429979066467

>  <m_score__min__rmsd>  (16) 
3.439429979066467

>  <meeko>  (16) 
{"free_energy": -8.25, "intermolecular_energy": -10.94, "internal_energy": -1.49, "cluster_size": 20, "cluster_id": 1, "rank_in_cluster": 12}

>  <energy>  (16) 
-7.87

>  <cluster_rmsd>  (16) 
1.28

>  <cluster>  (16) 
1

$$$$

     RDKit          3D

 56 59  0  0  0  0  0  0  0  0999 V2000
  138.5330   71.7420  222.1300 O   0  0  0  0  0  0  0  0  0  0  0  0
  139.5880   71.5730  222.7900 C   0  0  0  0  0  0  0  0  0  0  0  0
  140.7820   72.2670  222.4470 N   0  0  0  0  0  0  0  0  0  0  0  0
  140.8290   73.1850  221.3390 C   0  0  0  0  0  0  0  0  0  0  0  0
  141.4940   72.6050  220.1440 C   0  0  0  0  0  0  0  0  0  0  0  0
  140.8370   71.8440  219.4230 O   0  0  0  0  0  0  0  0  0  0  0  0
  142.8510   72.9750  219.9220 N   0  0  0  0  0  0  0  0  0  0  0  0
  143.9900   72.1390  219.5860 C   0  0  0  0  0  0  0  0  0  0  0  0
  144.7530   73.0140  218.5970 C   0  0  2  0  0  0  0  0  0  0  0  0
  146.0600   73.2330  218.9910 O   0  0  0  0  0  0  0  0  0  0  0  0
  144.0490   74.3750  218.6100 C   0  0  0  0  0  0  0  0  0  0  0  0
  143.4250   74.3380  219.9890 C   0  0  1  0  0  0  0  0  0  0  0  0
  142.3730   75.3640  220.1840 C   0  0  0  0  0  0  0  0  0  0  0  0
  142.5290   76.4060  219.2950 O   0  0  0  0  0  0  0  0  0  0  0  0
  141.5250   77.3420  219.2630 C   0  0  0  0  0  0  0  0  0  0  0  0
  141.6220   78.2890  220.4350 C   0  0  0  0  0  0  0  0  0  0  0  0
  141.4410   77.8520  221.7310 C   0  0  0  0  0  0  0  0  0  0  0  0
  141.5480   78.7770  222.7330 C   0  0  0  0  0  0  0  0  0  0  0  0
  141.8250   80.1160  222.5190 C   0  0  0  0  0  0  0  0  0  0  0  0
  141.9480   81.2490  223.8520 Cl  0  0  0  0  0  0  0  0  0  0  0  0
  142.0050   80.5430  221.2170 C   0  0  0  0  0  0  0  0  0  0  0  0
  141.9040   79.6320  220.1730 C   0  0  0  0  0  0  0  0  0  0  0  0
  139.6260   70.6550  223.9340 C   0  0  0  0  0  0  0  0  0  0  0  0
  139.0040   69.4320  223.9060 C   0  0  0  0  0  0  0  0  0  0  0  0
  139.0450   68.5670  224.9970 C   0  0  0  0  0  0  0  0  0  0  0  0
  139.7280   68.9510  226.1360 C   0  0  0  0  0  0  0  0  0  0  0  0
  139.8070   68.1340  227.2590 C   0  0  0  0  0  0  0  0  0  0  0  0
  140.4980   68.5650  228.3600 C   0  0  0  0  0  0  0  0  0  0  0  0
  140.6010   67.7940  229.4870 F   0  0  0  0  0  0  0  0  0  0  0  0
  141.1050   69.7990  228.3440 C   0  0  0  0  0  0  0  0  0  0  0  0
  141.0500   70.6390  227.2480 C   0  0  0  0  0  0  0  0  0  0  0  0
  140.3480   70.1820  226.1500 C   0  0  0  0  0  0  0  0  0  0  0  0
  140.2800   70.9790  225.0730 N   0  0  0  0  0  0  0  0  0  0  0  0
  141.6490   72.0900  223.0370 H   0  0  0  0  0  0  0  0  0  0  0  0
  139.7998   73.4639  221.0688 H   0  0  0  0  0  0  0  0  0  0  0  0
  141.4166   74.0593  221.6556 H   0  0  0  0  0  0  0  0  0  0  0  0
  144.5988   71.9185  220.4753 H   0  0  0  0  0  0  0  0  0  0  0  0
  143.7107   71.1554  219.1804 H   0  0  0  0  0  0  0  0  0  0  0  0
  144.7680   72.5206  217.6140 H   0  0  0  0  0  0  0  0  0  0  0  0
  146.3110   74.1780  219.0860 H   0  0  0  0  0  0  0  0  0  0  0  0
  144.7638   75.2049  218.5080 H   0  0  0  0  0  0  0  0  0  0  0  0
  143.3390   74.5361  217.7854 H   0  0  0  0  0  0  0  0  0  0  0  0
  144.1157   74.5437  220.8200 H   0  0  0  0  0  0  0  0  0  0  0  0
  141.3868   74.9024  220.0279 H   0  0  0  0  0  0  0  0  0  0  0  0
  142.4551   75.7604  221.2068 H   0  0  0  0  0  0  0  0  0  0  0  0
  141.6016   77.9182  218.3291 H   0  0  0  0  0  0  0  0  0  0  0  0
  140.5593   76.8182  219.3182 H   0  0  0  0  0  0  0  0  0  0  0  0
  141.2186   76.7974  221.9507 H   0  0  0  0  0  0  0  0  0  0  0  0
  141.4056   78.4368  223.7693 H   0  0  0  0  0  0  0  0  0  0  0  0
  142.2273   81.5999  221.0082 H   0  0  0  0  0  0  0  0  0  0  0  0
  142.0467   79.9695  219.1358 H   0  0  0  0  0  0  0  0  0  0  0  0
  138.4598   69.1274  222.9999 H   0  0  0  0  0  0  0  0  0  0  0  0
  138.5403   67.5906  224.9529 H   0  0  0  0  0  0  0  0  0  0  0  0
  139.3179   67.1487  227.2627 H   0  0  0  0  0  0  0  0  0  0  0  0
  141.6550   70.1299  229.2373 H   0  0  0  0  0  0  0  0  0  0  0  0
  141.5412   71.6232  227.2501 H   0  0  0  0  0  0  0  0  0  0  0  0
  1  2  2  0
  2  3  1  0
  3  4  1  0
  4  5  1  0
  5  6  2  0
  5  7  1  0
  7  8  1  0
  8  9  1  0
  9 10  1  0
  9 11  1  0
 11 12  1  0
 12 13  1  0
 13 14  1  0
 14 15  1  0
 15 16  1  0
 16 17  2  0
 17 18  1  0
 18 19  2  0
 19 20  1  0
 19 21  1  0
 21 22  2  0
  2 23  1  0
 23 24  2  0
 24 25  1  0
 25 26  2  0
 26 27  1  0
 27 28  2  0
 28 29  1  0
 28 30  1  0
 30 31  2  0
 31 32  1  0
 32 33  2  0
 12  7  1  0
 22 16  1  0
 33 23  1  0
 32 26  1  0
  3 34  1  0
  4 35  1  0
  4 36  1  0
  8 37  1  0
  8 38  1  0
  9 39  1  6
 10 40  1  0
 11 41  1  0
 11 42  1  0
 12 43  1  1
 13 44  1  0
 13 45  1  0
 15 46  1  0
 15 47  1  0
 17 48  1  0
 18 49  1  0
 21 50  1  0
 22 51  1  0
 24 52  1  0
 25 53  1  0
 27 54  1  0
 30 55  1  0
 31 56  1  0
M  END
>  <smiles>  (17) 
O=C(NCC(=O)N1C[C@H](O)C[C@H]1COCc1ccc(Cl)cc1)c1ccc2cc(F)ccc2n1

>  <score_type>  (17) 
oracle

>  <origin>  (17) 
autodockgpu

>  <m_score__min__energy>  (17) 
-9.4600000000000009

>  <m_primary>  (17) 
energy

>  <rmsd>  (17) 
3.1188027307345623

>  <m_score__min__rmsd>  (17) 
3.1188027307345623

>  <meeko>  (17) 
{"free_energy": -8.54, "intermolecular_energy": -11.22, "internal_energy": -1.13, "cluster_size": 20, "cluster_id": 1, "rank_in_cluster": 9}

>  <energy>  (17) 
-7.7

>  <cluster_rmsd>  (17) 
1.87

>  <cluster>  (17) 
1

$$$$

     RDKit          3D

 56 59  0  0  0  0  0  0  0  0999 V2000
  140.3310   73.1030  222.4570 O   0  0  0  0  0  0  0  0  0  0  0  0
  140.3070   74.0410  221.6210 C   0  0  0  0  0  0  0  0  0  0  0  0
  140.7310   73.8320  220.2790 N   0  0  0  0  0  0  0  0  0  0  0  0
  141.2010   72.5490  219.8270 C   0  0  0  0  0  0  0  0  0  0  0  0
  142.4980   72.1660  220.4430 C   0  0  0  0  0  0  0  0  0  0  0  0
  142.4730   71.5020  221.4870 O   0  0  0  0  0  0  0  0  0  0  0  0
  143.6780   72.5990  219.7760 N   0  0  0  0  0  0  0  0  0  0  0  0
  144.6060   71.8370  218.9580 C   0  0  0  0  0  0  0  0  0  0  0  0
  144.9540   72.8300  217.8530 C   0  0  2  0  0  0  0  0  0  0  0  0
  146.3160   73.0510  217.7580 O   0  0  0  0  0  0  0  0  0  0  0  0
  144.3140   74.1590  218.2670 C   0  0  0  0  0  0  0  0  0  0  0  0
  144.2450   73.9670  219.7670 C   0  0  1  0  0  0  0  0  0  0  0  0
  143.3470   74.9340  220.4420 C   0  0  0  0  0  0  0  0  0  0  0  0
  142.6040   75.6420  219.5210 O   0  0  0  0  0  0  0  0  0  0  0  0
  142.9440   76.9600  219.3400 C   0  0  0  0  0  0  0  0  0  0  0  0
  141.7320   77.8560  219.4400 C   0  0  0  0  0  0  0  0  0  0  0  0
  141.8430   79.1770  219.8220 C   0  0  0  0  0  0  0  0  0  0  0  0
  140.6950   79.9170  219.8860 C   0  0  0  0  0  0  0  0  0  0  0  0
  139.4390   79.4170  219.5900 C   0  0  0  0  0  0  0  0  0  0  0  0
  138.0060   80.4240  219.6940 Cl  0  0  0  0  0  0  0  0  0  0  0  0
  139.3380   78.0930  219.2090 C   0  0  0  0  0  0  0  0  0  0  0  0
  140.4840   77.3090  219.1320 C   0  0  0  0  0  0  0  0  0  0  0  0
  139.8420   75.3800  221.9990 C   0  0  0  0  0  0  0  0  0  0  0  0
  138.5110   75.7180  221.9840 C   0  0  0  0  0  0  0  0  0  0  0  0
  138.0780   76.9920  222.3440 C   0  0  0  0  0  0  0  0  0  0  0  0
  139.0110   77.9380  222.7250 C   0  0  0  0  0  0  0  0  0  0  0  0
  138.6440   79.2270  223.0960 C   0  0  0  0  0  0  0  0  0  0  0  0
  139.6110   80.1250  223.4650 C   0  0  0  0  0  0  0  0  0  0  0  0
  139.2950   81.4030  223.8380 F   0  0  0  0  0  0  0  0  0  0  0  0
  140.9320   79.7420  223.4650 C   0  0  0  0  0  0  0  0  0  0  0  0
  141.3370   78.4710  223.1040 C   0  0  0  0  0  0  0  0  0  0  0  0
  140.3430   77.5850  222.7350 C   0  0  0  0  0  0  0  0  0  0  0  0
  140.7100   76.3440  222.3800 N   0  0  0  0  0  0  0  0  0  0  0  0
  140.6910   74.6570  219.6090 H   0  0  0  0  0  0  0  0  0  0  0  0
  140.4500   71.7878  220.0851 H   0  0  0  0  0  0  0  0  0  0  0  0
  141.3551   72.6148  218.7398 H   0  0  0  0  0  0  0  0  0  0  0  0
  145.4996   71.5495  219.5315 H   0  0  0  0  0  0  0  0  0  0  0  0
  144.1897   70.8897  218.5847 H   0  0  0  0  0  0  0  0  0  0  0  0
  144.6007   72.4376  216.8880 H   0  0  0  0  0  0  0  0  0  0  0  0
  146.6000   73.9710  217.9490 H   0  0  0  0  0  0  0  0  0  0  0  0
  144.9454   75.0176  217.9947 H   0  0  0  0  0  0  0  0  0  0  0  0
  143.3496   74.3768  217.7848 H   0  0  0  0  0  0  0  0  0  0  0  0
  145.1957   74.1127  220.3007 H   0  0  0  0  0  0  0  0  0  0  0  0
  142.6656   74.3868  221.1101 H   0  0  0  0  0  0  0  0  0  0  0  0
  143.9620   75.6425  221.0164 H   0  0  0  0  0  0  0  0  0  0  0  0
  143.6708   77.2523  220.1122 H   0  0  0  0  0  0  0  0  0  0  0  0
  143.3783   77.0727  218.3357 H   0  0  0  0  0  0  0  0  0  0  0  0
  142.8201   79.6192  220.0664 H   0  0  0  0  0  0  0  0  0  0  0  0
  140.7744   80.9710  220.1905 H   0  0  0  0  0  0  0  0  0  0  0  0
  138.3556   77.6609  218.9676 H   0  0  0  0  0  0  0  0  0  0  0  0
  140.4075   76.2547  218.8276 H   0  0  0  0  0  0  0  0  0  0  0  0
  137.7692   74.9647  221.6804 H   0  0  0  0  0  0  0  0  0  0  0  0
  137.0070   77.2421  222.3253 H   0  0  0  0  0  0  0  0  0  0  0  0
  137.5848   79.5237  223.0932 H   0  0  0  0  0  0  0  0  0  0  0  0
  141.6954   80.4755  223.7638 H   0  0  0  0  0  0  0  0  0  0  0  0
  142.3976   78.1793  223.1101 H   0  0  0  0  0  0  0  0  0  0  0  0
  1  2  2  0
  2  3  1  0
  3  4  1  0
  4  5  1  0
  5  6  2  0
  5  7  1  0
  7  8  1  0
  8  9  1  0
  9 10  1  0
  9 11  1  0
 11 12  1  0
 12 13  1  0
 13 14  1  0
 14 15  1  0
 15 16  1  0
 16 17  2  0
 17 18  1  0
 18 19  2  0
 19 20  1  0
 19 21  1  0
 21 22  2  0
  2 23  1  0
 23 24  2  0
 24 25  1  0
 25 26  2  0
 26 27  1  0
 27 28  2  0
 28 29  1  0
 28 30  1  0
 30 31  2  0
 31 32  1  0
 32 33  2  0
 12  7  1  0
 22 16  1  0
 33 23  1  0
 32 26  1  0
  3 34  1  0
  4 35  1  0
  4 36  1  0
  8 37  1  0
  8 38  1  0
  9 39  1  6
 10 40  1  0
 11 41  1  0
 11 42  1  0
 12 43  1  1
 13 44  1  0
 13 45  1  0
 15 46  1  0
 15 47  1  0
 17 48  1  0
 18 49  1  0
 21 50  1  0
 22 51  1  0
 24 52  1  0
 25 53  1  0
 27 54  1  0
 30 55  1  0
 31 56  1  0
M  END
>  <smiles>  (18) 
O=C(NCC(=O)N1C[C@H](O)C[C@H]1COCc1ccc(Cl)cc1)c1ccc2cc(F)ccc2n1

>  <score_type>  (18) 
oracle

>  <origin>  (18) 
autodockgpu

>  <m_score__min__energy>  (18) 
-9.4600000000000009

>  <m_primary>  (18) 
energy

>  <rmsd>  (18) 
7.119079121802055

>  <m_score__min__rmsd>  (18) 
7.119079121802055

>  <meeko>  (18) 
{"free_energy": -5.67, "intermolecular_energy": -8.35, "internal_energy": -4.02, "cluster_size": 14, "cluster_id": 9, "rank_in_cluster": 13}

>  <energy>  (18) 
-7.32

>  <cluster_rmsd>  (18) 
1.93

>  <cluster>  (18) 
1

$$$$

     RDKit          3D

 56 59  0  0  0  0  0  0  0  0999 V2000
  138.4030   75.1300  222.1330 O   0  0  0  0  0  0  0  0  0  0  0  0
  139.5560   75.6170  222.0240 C   0  0  0  0  0  0  0  0  0  0  0  0
  140.6090   74.8720  221.4240 N   0  0  0  0  0  0  0  0  0  0  0  0
  140.3980   73.5390  220.9210 C   0  0  0  0  0  0  0  0  0  0  0  0
  141.3690   73.1700  219.8590 C   0  0  0  0  0  0  0  0  0  0  0  0
  140.9240   72.7610  218.7790 O   0  0  0  0  0  0  0  0  0  0  0  0
  142.7500   73.3160  220.1730 N   0  0  0  0  0  0  0  0  0  0  0  0
  143.6320   72.4120  220.8900 C   0  0  0  0  0  0  0  0  0  0  0  0
  144.9380   72.5490  220.1130 C   0  0  2  0  0  0  0  0  0  0  0  0
  145.9930   72.9250  220.9240 O   0  0  0  0  0  0  0  0  0  0  0  0
  144.7140   73.6900  219.1150 C   0  0  0  0  0  0  0  0  0  0  0  0
  143.6250   74.4600  219.8300 C   0  0  1  0  0  0  0  0  0  0  0  0
  142.9290   75.4380  218.9600 C   0  0  0  0  0  0  0  0  0  0  0  0
  142.6510   76.6000  219.6480 O   0  0  0  0  0  0  0  0  0  0  0  0
  142.7120   77.7690  218.9300 C   0  0  0  0  0  0  0  0  0  0  0  0
  141.6820   78.7620  219.4130 C   0  0  0  0  0  0  0  0  0  0  0  0
  140.3480   78.4250  219.5140 C   0  0  0  0  0  0  0  0  0  0  0  0
  139.4840   79.3860  219.9610 C   0  0  0  0  0  0  0  0  0  0  0  0
  139.8720   80.6660  220.3160 C   0  0  0  0  0  0  0  0  0  0  0  0
  138.7080   81.8500  220.8820 Cl  0  0  0  0  0  0  0  0  0  0  0  0
  141.2100   80.9940  220.2110 C   0  0  0  0  0  0  0  0  0  0  0  0
  142.1180   80.0430  219.7600 C   0  0  0  0  0  0  0  0  0  0  0  0
  139.8560   76.9680  222.5110 C   0  0  0  0  0  0  0  0  0  0  0  0
  138.8730   77.8080  222.9740 C   0  0  0  0  0  0  0  0  0  0  0  0
  139.1670   79.0900  223.4340 C   0  0  0  0  0  0  0  0  0  0  0  0
  140.4790   79.5260  223.4230 C   0  0  0  0  0  0  0  0  0  0  0  0
  140.8380   80.7940  223.8680 C   0  0  0  0  0  0  0  0  0  0  0  0
  142.1540   81.1730  223.8340 C   0  0  0  0  0  0  0  0  0  0  0  0
  142.5520   82.4110  224.2630 F   0  0  0  0  0  0  0  0  0  0  0  0
  143.1040   80.2990  223.3620 C   0  0  0  0  0  0  0  0  0  0  0  0
  142.7870   79.0310  222.9110 C   0  0  0  0  0  0  0  0  0  0  0  0
  141.4540   78.6720  222.9550 C   0  0  0  0  0  0  0  0  0  0  0  0
  141.1210   77.4460  222.5220 N   0  0  0  0  0  0  0  0  0  0  0  0
  141.5670   75.3280  221.3540 H   0  0  0  0  0  0  0  0  0  0  0  0
  140.4994   72.8277  221.7540 H   0  0  0  0  0  0  0  0  0  0  0  0
  139.3912   73.5046  220.4792 H   0  0  0  0  0  0  0  0  0  0  0  0
  143.7568   72.7242  221.9374 H   0  0  0  0  0  0  0  0  0  0  0  0
  143.2567   71.3794  220.9426 H   0  0  0  0  0  0  0  0  0  0  0  0
  145.1873   71.5830  219.6497 H   0  0  0  0  0  0  0  0  0  0  0  0
  146.2620   72.2560  221.5900 H   0  0  0  0  0  0  0  0  0  0  0  0
  145.6211   74.2973  218.9800 H   0  0  0  0  0  0  0  0  0  0  0  0
  144.4580   73.3676  218.0949 H   0  0  0  0  0  0  0  0  0  0  0  0
  143.9690   75.0876  220.6653 H   0  0  0  0  0  0  0  0  0  0  0  0
  143.5713   75.6745  218.0989 H   0  0  0  0  0  0  0  0  0  0  0  0
  141.9805   74.9946  218.6226 H   0  0  0  0  0  0  0  0  0  0  0  0
  143.7142   78.2079  219.0438 H   0  0  0  0  0  0  0  0  0  0  0  0
  142.5060   77.5399  217.8740 H   0  0  0  0  0  0  0  0  0  0  0  0
  139.9923   77.4196  219.2447 H   0  0  0  0  0  0  0  0  0  0  0  0
  138.4182   79.1264  220.0432 H   0  0  0  0  0  0  0  0  0  0  0  0
  141.5550   82.0025  220.4829 H   0  0  0  0  0  0  0  0  0  0  0  0
  143.1842   80.3002  219.6760 H   0  0  0  0  0  0  0  0  0  0  0  0
  137.8293   77.4606  222.9819 H   0  0  0  0  0  0  0  0  0  0  0  0
  138.3650   79.7472  223.8014 H   0  0  0  0  0  0  0  0  0  0  0  0
  140.0711   81.4871  224.2443 H   0  0  0  0  0  0  0  0  0  0  0  0
  144.1558   80.6203  223.3423 H   0  0  0  0  0  0  0  0  0  0  0  0
  143.5582   78.3422  222.5357 H   0  0  0  0  0  0  0  0  0  0  0  0
  1  2  2  0
  2  3  1  0
  3  4  1  0
  4  5  1  0
  5  6  2  0
  5  7  1  0
  7  8  1  0
  8  9  1  0
  9 10  1  0
  9 11  1  0
 11 12  1  0
 12 13  1  0
 13 14  1  0
 14 15  1  0
 15 16  1  0
 16 17  2  0
 17 18  1  0
 18 19  2  0
 19 20  1  0
 19 21  1  0
 21 22  2  0
  2 23  1  0
 23 24  2  0
 24 25  1  0
 25 26  2  0
 26 27  1  0
 27 28  2  0
 28 29  1  0
 28 30  1  0
 30 31  2  0
 31 32  1  0
 32 33  2  0
 12  7  1  0
 22 16  1  0
 33 23  1  0
 32 26  1  0
  3 34  1  0
  4 35  1  0
  4 36  1  0
  8 37  1  0
  8 38  1  0
  9 39  1  6
 10 40  1  0
 11 41  1  0
 11 42  1  0
 12 43  1  1
 13 44  1  0
 13 45  1  0
 15 46  1  0
 15 47  1  0
 17 48  1  0
 18 49  1  0
 21 50  1  0
 22 51  1  0
 24 52  1  0
 25 53  1  0
 27 54  1  0
 30 55  1  0
 31 56  1  0
M  END
>  <smiles>  (19) 
O=C(NCC(=O)N1C[C@H](O)C[C@H]1COCc1ccc(Cl)cc1)c1ccc2cc(F)ccc2n1

>  <score_type>  (19) 
oracle

>  <origin>  (19) 
autodockgpu

>  <m_score__min__energy>  (19) 
-9.4600000000000009

>  <m_primary>  (19) 
energy

>  <rmsd>  (19) 
7.824263282001643

>  <m_score__min__rmsd>  (19) 
7.824263282001643

>  <meeko>  (19) 
{"free_energy": -6.06, "intermolecular_energy": -8.74, "internal_energy": -4.15, "cluster_size": 14, "cluster_id": 9, "rank_in_cluster": 10}

>  <energy>  (19) 
-7.31

>  <cluster_rmsd>  (19) 
1.89

>  <cluster>  (19) 
1

$$$$

     RDKit          3D

 56 59  0  0  0  0  0  0  0  0999 V2000
  139.1210   74.6750  222.3340 O   0  0  0  0  0  0  0  0  0  0  0  0
  140.1340   75.3460  222.0120 C   0  0  0  0  0  0  0  0  0  0  0  0
  141.3340   74.7010  221.6000 N   0  0  0  0  0  0  0  0  0  0  0  0
  141.4360   73.2670  221.5360 C   0  0  0  0  0  0  0  0  0  0  0  0
  141.8030   72.7800  220.1810 C   0  0  0  0  0  0  0  0  0  0  0  0
  140.9500   72.1580  219.5350 O   0  0  0  0  0  0  0  0  0  0  0  0
  143.1210   73.0700  219.7310 N   0  0  0  0  0  0  0  0  0  0  0  0
  144.3550   72.3370  219.9600 C   0  0  0  0  0  0  0  0  0  0  0  0
  145.0630   72.4680  218.6150 C   0  0  2  0  0  0  0  0  0  0  0  0
  146.3230   73.0260  218.7390 O   0  0  0  0  0  0  0  0  0  0  0  0
  144.2210   73.4460  217.7900 C   0  0  0  0  0  0  0  0  0  0  0  0
  143.5470   74.2210  218.9020 C   0  0  1  0  0  0  0  0  0  0  0  0
  142.3860   75.0200  218.4410 C   0  0  0  0  0  0  0  0  0  0  0  0
  142.1510   76.0820  219.2890 O   0  0  0  0  0  0  0  0  0  0  0  0
  140.9920   76.7890  219.0800 C   0  0  0  0  0  0  0  0  0  0  0  0
  141.2830   78.2430  218.7950 C   0  0  0  0  0  0  0  0  0  0  0  0
  140.2870   79.1970  218.8300 C   0  0  0  0  0  0  0  0  0  0  0  0
  140.6380   80.4900  218.5590 C   0  0  0  0  0  0  0  0  0  0  0  0
  141.9270   80.8910  218.2550 C   0  0  0  0  0  0  0  0  0  0  0  0
  142.3070   82.5700  217.9180 Cl  0  0  0  0  0  0  0  0  0  0  0  0
  142.9180   79.9290  218.2230 C   0  0  0  0  0  0  0  0  0  0  0  0
  142.5990   78.6030  218.4920 C   0  0  0  0  0  0  0  0  0  0  0  0
  140.1140   76.8120  222.0490 C   0  0  0  0  0  0  0  0  0  0  0  0
  138.9430   77.5250  221.9720 C   0  0  0  0  0  0  0  0  0  0  0  0
  138.9340   78.9170  222.0080 C   0  0  0  0  0  0  0  0  0  0  0  0
  140.1330   79.5970  222.1220 C   0  0  0  0  0  0  0  0  0  0  0  0
  140.1920   80.9860  222.1630 C   0  0  0  0  0  0  0  0  0  0  0  0
  141.4070   81.6070  222.2770 C   0  0  0  0  0  0  0  0  0  0  0  0
  141.5120   82.9710  222.3210 F   0  0  0  0  0  0  0  0  0  0  0  0
  142.5540   80.8520  222.3500 C   0  0  0  0  0  0  0  0  0  0  0  0
  142.5370   79.4700  222.3130 C   0  0  0  0  0  0  0  0  0  0  0  0
  141.3000   78.8680  222.1970 C   0  0  0  0  0  0  0  0  0  0  0  0
  141.2560   77.5270  222.1590 N   0  0  0  0  0  0  0  0  0  0  0  0
  142.1630   75.3120  221.3370 H   0  0  0  0  0  0  0  0  0  0  0  0
  142.2052   72.9364  222.2495 H   0  0  0  0  0  0  0  0  0  0  0  0
  140.4479   72.8514  221.7830 H   0  0  0  0  0  0  0  0  0  0  0  0
  144.9459   72.7935  220.7677 H   0  0  0  0  0  0  0  0  0  0  0  0
  144.1972   71.2952  220.2760 H   0  0  0  0  0  0  0  0  0  0  0  0
  145.1706   71.4707  218.1637 H   0  0  0  0  0  0  0  0  0  0  0  0
  146.3430   74.0070  218.7320 H   0  0  0  0  0  0  0  0  0  0  0  0
  144.8489   74.0958  217.1627 H   0  0  0  0  0  0  0  0  0  0  0  0
  143.5330   72.9730  217.0738 H   0  0  0  0  0  0  0  0  0  0  0  0
  144.1776   74.9776  219.3918 H   0  0  0  0  0  0  0  0  0  0  0  0
  142.5917   75.4043  217.4311 H   0  0  0  0  0  0  0  0  0  0  0  0
  141.4960   74.3737  218.4325 H   0  0  0  0  0  0  0  0  0  0  0  0
  140.4570   76.3554  218.2223 H   0  0  0  0  0  0  0  0  0  0  0  0
  140.3782   76.7287  219.9909 H   0  0  0  0  0  0  0  0  0  0  0  0
  139.2475   78.9268  219.0675 H   0  0  0  0  0  0  0  0  0  0  0  0
  139.8496   81.2567  218.5841 H   0  0  0  0  0  0  0  0  0  0  0  0
  143.9545   80.2109  217.9858 H   0  0  0  0  0  0  0  0  0  0  0  0
  143.3853   77.8342  218.4663 H   0  0  0  0  0  0  0  0  0  0  0  0
  137.9897   76.9839  221.8797 H   0  0  0  0  0  0  0  0  0  0  0  0
  137.9846   79.4692  221.9465 H   0  0  0  0  0  0  0  0  0  0  0  0
  139.2690   81.5815  222.1042 H   0  0  0  0  0  0  0  0  0  0  0  0
  143.5217   81.3671  222.4413 H   0  0  0  0  0  0  0  0  0  0  0  0
  143.4631   78.8794  222.3730 H   0  0  0  0  0  0  0  0  0  0  0  0
  1  2  2  0
  2  3  1  0
  3  4  1  0
  4  5  1  0
  5  6  2  0
  5  7  1  0
  7  8  1  0
  8  9  1  0
  9 10  1  0
  9 11  1  0
 11 12  1  0
 12 13  1  0
 13 14  1  0
 14 15  1  0
 15 16  1  0
 16 17  2  0
 17 18  1  0
 18 19  2  0
 19 20  1  0
 19 21  1  0
 21 22  2  0
  2 23  1  0
 23 24  2  0
 24 25  1  0
 25 26  2  0
 26 27  1  0
 27 28  2  0
 28 29  1  0
 28 30  1  0
 30 31  2  0
 31 32  1  0
 32 33  2  0
 12  7  1  0
 22 16  1  0
 33 23  1  0
 32 26  1  0
  3 34  1  0
  4 35  1  0
  4 36  1  0
  8 37  1  0
  8 38  1  0
  9 39  1  6
 10 40  1  0
 11 41  1  0
 11 42  1  0
 12 43  1  1
 13 44  1  0
 13 45  1  0
 15 46  1  0
 15 47  1  0
 17 48  1  0
 18 49  1  0
 21 50  1  0
 22 51  1  0
 24 52  1  0
 25 53  1  0
 27 54  1  0
 30 55  1  0
 31 56  1  0
M  END
>  <smiles>  (20) 
O=C(NCC(=O)N1C[C@H](O)C[C@H]1COCc1ccc(Cl)cc1)c1ccc2cc(F)ccc2n1

>  <score_type>  (20) 
oracle

>  <origin>  (20) 
autodockgpu

>  <m_score__min__energy>  (20) 
-9.4600000000000009

>  <m_primary>  (20) 
energy

>  <rmsd>  (20) 
8.14963865333758

>  <m_score__min__rmsd>  (20) 
8.14963865333758

>  <meeko>  (20) 
{"free_energy": -6.19, "intermolecular_energy": -8.87, "internal_energy": -4.01, "cluster_size": 14, "cluster_id": 9, "rank_in_cluster": 8}

>  <energy>  (20) 
-6.9

>  <cluster_rmsd>  (20) 
1.75

>  <cluster>  (20) 
1

$$$$

     RDKit          3D

 56 59  0  0  0  0  0  0  0  0999 V2000
  137.9010   70.7490  221.3580 O   0  0  0  0  0  0  0  0  0  0  0  0
  138.4110   71.4360  222.2780 C   0  0  0  0  0  0  0  0  0  0  0  0
  138.5190   72.8500  222.1590 N   0  0  0  0  0  0  0  0  0  0  0  0
  138.0510   73.5460  220.9890 C   0  0  0  0  0  0  0  0  0  0  0  0
  139.0730   73.6070  219.9130 C   0  0  0  0  0  0  0  0  0  0  0  0
  138.7810   74.1950  218.8640 O   0  0  0  0  0  0  0  0  0  0  0  0
  140.3210   72.9760  220.1770 N   0  0  0  0  0  0  0  0  0  0  0  0
  140.7910   71.6600  219.7800 C   0  0  0  0  0  0  0  0  0  0  0  0
  142.2570   71.9240  219.4550 C   0  0  2  0  0  0  0  0  0  0  0  0
  143.1100   71.1160  220.1850 O   0  0  0  0  0  0  0  0  0  0  0  0
  142.5300   73.3680  219.8880 C   0  0  0  0  0  0  0  0  0  0  0  0
  141.4580   73.5370  220.9430 C   0  0  1  0  0  0  0  0  0  0  0  0
  141.2200   74.9520  221.3170 C   0  0  0  0  0  0  0  0  0  0  0  0
  140.3010   75.0420  222.3410 O   0  0  0  0  0  0  0  0  0  0  0  0
  139.4110   76.0860  222.2760 C   0  0  0  0  0  0  0  0  0  0  0  0
  140.0630   77.3870  222.6800 C   0  0  0  0  0  0  0  0  0  0  0  0
  141.3690   77.4310  223.1210 C   0  0  0  0  0  0  0  0  0  0  0  0
  141.8810   78.6520  223.4660 C   0  0  0  0  0  0  0  0  0  0  0  0
  141.1650   79.8340  223.3970 C   0  0  0  0  0  0  0  0  0  0  0  0
  141.8850   81.3670  223.8560 Cl  0  0  0  0  0  0  0  0  0  0  0  0
  139.8580   79.7790  222.9540 C   0  0  0  0  0  0  0  0  0  0  0  0
  139.3030   78.5570  222.5940 C   0  0  0  0  0  0  0  0  0  0  0  0
  138.9130   70.8060  223.5040 C   0  0  0  0  0  0  0  0  0  0  0  0
  138.7340   69.4690  223.7590 C   0  0  0  0  0  0  0  0  0  0  0  0
  139.2140   68.8780  224.9260 C   0  0  0  0  0  0  0  0  0  0  0  0
  139.8850   69.6580  225.8490 C   0  0  0  0  0  0  0  0  0  0  0  0
  140.3880   69.1300  227.0340 C   0  0  0  0  0  0  0  0  0  0  0  0
  141.0460   69.9490  227.9120 C   0  0  0  0  0  0  0  0  0  0  0  0
  141.5580   69.4710  229.0890 F   0  0  0  0  0  0  0  0  0  0  0  0
  141.2020   71.2820  227.6150 C   0  0  0  0  0  0  0  0  0  0  0  0
  140.7170   71.8450  226.4500 C   0  0  0  0  0  0  0  0  0  0  0  0
  140.0570   70.9980  225.5800 C   0  0  0  0  0  0  0  0  0  0  0  0
  139.5760   71.5200  224.4410 N   0  0  0  0  0  0  0  0  0  0  0  0
  138.9580   73.3870  222.9650 H   0  0  0  0  0  0  0  0  0  0  0  0
  137.1625   73.0259  220.6017 H   0  0  0  0  0  0  0  0  0  0  0  0
  137.8191   74.5792  221.2868 H   0  0  0  0  0  0  0  0  0  0  0  0
  140.6891   70.9358  220.6017 H   0  0  0  0  0  0  0  0  0  0  0  0
  140.2256   71.2239  218.9433 H   0  0  0  0  0  0  0  0  0  0  0  0
  142.4311   71.7306  218.3862 H   0  0  0  0  0  0  0  0  0  0  0  0
  142.6700   70.3950  220.6850 H   0  0  0  0  0  0  0  0  0  0  0  0
  143.5392   73.4831  220.3102 H   0  0  0  0  0  0  0  0  0  0  0  0
  142.4984   74.1079  219.0747 H   0  0  0  0  0  0  0  0  0  0  0  0
  141.6797   73.0690  221.9135 H   0  0  0  0  0  0  0  0  0  0  0  0
  142.1687   75.4027  221.6438 H   0  0  0  0  0  0  0  0  0  0  0  0
  140.8233   75.4854  220.4406 H   0  0  0  0  0  0  0  0  0  0  0  0
  139.0390   76.1764  221.2448 H   0  0  0  0  0  0  0  0  0  0  0  0
  138.5833   75.8812  222.9710 H   0  0  0  0  0  0  0  0  0  0  0  0
  141.9772   76.5172  223.1928 H   0  0  0  0  0  0  0  0  0  0  0  0
  142.9220   78.6965  223.8186 H   0  0  0  0  0  0  0  0  0  0  0  0
  139.2587   80.6990  222.8864 H   0  0  0  0  0  0  0  0  0  0  0  0
  138.2625   78.5102  222.2403 H   0  0  0  0  0  0  0  0  0  0  0  0
  138.1988   68.8494  223.0244 H   0  0  0  0  0  0  0  0  0  0  0  0
  139.0609   67.8044  225.1104 H   0  0  0  0  0  0  0  0  0  0  0  0
  140.2579   68.0622  227.2638 H   0  0  0  0  0  0  0  0  0  0  0  0
  141.7332   71.9251  228.3321 H   0  0  0  0  0  0  0  0  0  0  0  0
  140.8496   72.9138  226.2263 H   0  0  0  0  0  0  0  0  0  0  0  0
  1  2  2  0
  2  3  1  0
  3  4  1  0
  4  5  1  0
  5  6  2  0
  5  7  1  0
  7  8  1  0
  8  9  1  0
  9 10  1  0
  9 11  1  0
 11 12  1  0
 12 13  1  0
 13 14  1  0
 14 15  1  0
 15 16  1  0
 16 17  2  0
 17 18  1  0
 18 19  2  0
 19 20  1  0
 19 21  1  0
 21 22  2  0
  2 23  1  0
 23 24  2  0
 24 25  1  0
 25 26  2  0
 26 27  1  0
 27 28  2  0
 28 29  1  0
 28 30  1  0
 30 31  2  0
 31 32  1  0
 32 33  2  0
 12  7  1  0
 22 16  1  0
 33 23  1  0
 32 26  1  0
  3 34  1  0
  4 35  1  0
  4 36  1  0
  8 37  1  0
  8 38  1  0
  9 39  1  6
 10 40  1  0
 11 41  1  0
 11 42  1  0
 12 43  1  1
 13 44  1  0
 13 45  1  0
 15 46  1  0
 15 47  1  0
 17 48  1  0
 18 49  1  0
 21 50  1  0
 22 51  1  0
 24 52  1  0
 25 53  1  0
 27 54  1  0
 30 55  1  0
 31 56  1  0
M  END
>  <smiles>  (21) 
O=C(NCC(=O)N1C[C@H](O)C[C@H]1COCc1ccc(Cl)cc1)c1ccc2cc(F)ccc2n1

>  <score_type>  (21) 
oracle

>  <origin>  (21) 
autodockgpu

>  <m_score__min__energy>  (21) 
-9.4600000000000009

>  <m_primary>  (21) 
energy

>  <rmsd>  (21) 
2.5191537804634003

>  <m_score__min__rmsd>  (21) 
2.5191537804634003

>  <meeko>  (21) 
{"free_energy": -7.32, "intermolecular_energy": -10.01, "internal_energy": -2.72, "cluster_size": 20, "cluster_id": 1, "rank_in_cluster": 18}

>  <energy>  (21) 
-8.41

>  <cluster_rmsd>  (21) 
0.0

>  <cluster>  (21) 
2

$$$$

     RDKit          3D

 56 59  0  0  0  0  0  0  0  0999 V2000
  140.9570   71.8930  221.0890 O   0  0  0  0  0  0  0  0  0  0  0  0
  140.4240   72.3670  222.1230 C   0  0  0  0  0  0  0  0  0  0  0  0
  140.0380   73.7350  222.1830 N   0  0  0  0  0  0  0  0  0  0  0  0
  140.2410   74.6250  221.0700 C   0  0  0  0  0  0  0  0  0  0  0  0
  140.6720   75.9820  221.4940 C   0  0  0  0  0  0  0  0  0  0  0  0
  140.5850   76.2730  222.6940 O   0  0  0  0  0  0  0  0  0  0  0  0
  141.1550   76.8500  220.4740 N   0  0  0  0  0  0  0  0  0  0  0  0
  142.5240   77.1360  220.0800 C   0  0  0  0  0  0  0  0  0  0  0  0
  142.4100   77.2330  218.5620 C   0  0  2  0  0  0  0  0  0  0  0  0
  142.8750   78.4430  218.0790 O   0  0  0  0  0  0  0  0  0  0  0  0
  140.9120   77.1750  218.2490 C   0  0  0  0  0  0  0  0  0  0  0  0
  140.3450   77.6840  219.5570 C   0  0  1  0  0  0  0  0  0  0  0  0
  138.8950   77.4170  219.7120 C   0  0  0  0  0  0  0  0  0  0  0  0
  138.2030   78.5840  219.9560 O   0  0  0  0  0  0  0  0  0  0  0  0
  137.9510   78.8860  221.2720 C   0  0  0  0  0  0  0  0  0  0  0  0
  139.2020   79.3580  221.9730 C   0  0  0  0  0  0  0  0  0  0  0  0
  139.5320   78.9110  223.2360 C   0  0  0  0  0  0  0  0  0  0  0  0
  140.6840   79.3900  223.7980 C   0  0  0  0  0  0  0  0  0  0  0  0
  141.5290   80.2900  223.1730 C   0  0  0  0  0  0  0  0  0  0  0  0
  142.9920   80.8630  223.9520 Cl  0  0  0  0  0  0  0  0  0  0  0  0
  141.1900   80.7310  221.9080 C   0  0  0  0  0  0  0  0  0  0  0  0
  140.0270   80.2670  221.3050 C   0  0  0  0  0  0  0  0  0  0  0  0
  140.1810   71.5280  223.3020 C   0  0  0  0  0  0  0  0  0  0  0  0
  139.4870   70.3470  223.2230 C   0  0  0  0  0  0  0  0  0  0  0  0
  139.2610   69.5570  224.3480 C   0  0  0  0  0  0  0  0  0  0  0  0
  139.7480   69.9730  225.5730 C   0  0  0  0  0  0  0  0  0  0  0  0
  139.5560   69.2310  226.7340 C   0  0  0  0  0  0  0  0  0  0  0  0
  140.0610   69.6920  227.9210 C   0  0  0  0  0  0  0  0  0  0  0  0
  139.8960   68.9930  229.0870 F   0  0  0  0  0  0  0  0  0  0  0  0
  140.7500   70.8810  227.9520 C   0  0  0  0  0  0  0  0  0  0  0  0
  140.9610   71.6480  226.8220 C   0  0  0  0  0  0  0  0  0  0  0  0
  140.4430   71.1620  225.6380 C   0  0  0  0  0  0  0  0  0  0  0  0
  140.6340   71.8870  224.5250 N   0  0  0  0  0  0  0  0  0  0  0  0
  139.5910   74.0890  223.0800 H   0  0  0  0  0  0  0  0  0  0  0  0
  141.0147   74.1985  220.4146 H   0  0  0  0  0  0  0  0  0  0  0  0
  139.2786   74.7295  220.5475 H   0  0  0  0  0  0  0  0  0  0  0  0
  142.8743   78.0838  220.5148 H   0  0  0  0  0  0  0  0  0  0  0  0
  143.2480   76.3811  220.4207 H   0  0  0  0  0  0  0  0  0  0  0  0
  143.0010   76.4274  218.1019 H   0  0  0  0  0  0  0  0  0  0  0  0
  143.5640   78.3720  217.3830 H   0  0  0  0  0  0  0  0  0  0  0  0
  140.6461   77.8310  217.4070 H   0  0  0  0  0  0  0  0  0  0  0  0
  140.5432   76.1858  217.9401 H   0  0  0  0  0  0  0  0  0  0  0  0
  140.4020   78.7734  219.6985 H   0  0  0  0  0  0  0  0  0  0  0  0
  138.5126   76.9580  218.7884 H   0  0  0  0  0  0  0  0  0  0  0  0
  138.7520   76.7386  220.5660 H   0  0  0  0  0  0  0  0  0  0  0  0
  137.1919   79.6808  221.3188 H   0  0  0  0  0  0  0  0  0  0  0  0
  137.5917   77.9764  221.7755 H   0  0  0  0  0  0  0  0  0  0  0  0
  138.8917   78.1950  223.7721 H   0  0  0  0  0  0  0  0  0  0  0  0
  140.9540   79.0393  224.8050 H   0  0  0  0  0  0  0  0  0  0  0  0
  141.8380   81.4464  221.3805 H   0  0  0  0  0  0  0  0  0  0  0  0
  139.7548   80.6165  220.2981 H   0  0  0  0  0  0  0  0  0  0  0  0
  139.0998   70.0161  222.2480 H   0  0  0  0  0  0  0  0  0  0  0  0
  138.7018   68.6136  224.2625 H   0  0  0  0  0  0  0  0  0  0  0  0
  139.0026   68.2810  226.6991 H   0  0  0  0  0  0  0  0  0  0  0  0
  141.1490   71.2358  228.9137 H   0  0  0  0  0  0  0  0  0  0  0  0
  141.5139   72.5980  226.8637 H   0  0  0  0  0  0  0  0  0  0  0  0
  1  2  2  0
  2  3  1  0
  3  4  1  0
  4  5  1  0
  5  6  2  0
  5  7  1  0
  7  8  1  0
  8  9  1  0
  9 10  1  0
  9 11  1  0
 11 12  1  0
 12 13  1  0
 13 14  1  0
 14 15  1  0
 15 16  1  0
 16 17  2  0
 17 18  1  0
 18 19  2  0
 19 20  1  0
 19 21  1  0
 21 22  2  0
  2 23  1  0
 23 24  2  0
 24 25  1  0
 25 26  2  0
 26 27  1  0
 27 28  2  0
 28 29  1  0
 28 30  1  0
 30 31  2  0
 31 32  1  0
 32 33  2  0
 12  7  1  0
 22 16  1  0
 33 23  1  0
 32 26  1  0
  3 34  1  0
  4 35  1  0
  4 36  1  0
  8 37  1  0
  8 38  1  0
  9 39  1  6
 10 40  1  0
 11 41  1  0
 11 42  1  0
 12 43  1  1
 13 44  1  0
 13 45  1  0
 15 46  1  0
 15 47  1  0
 17 48  1  0
 18 49  1  0
 21 50  1  0
 22 51  1  0
 24 52  1  0
 25 53  1  0
 27 54  1  0
 30 55  1  0
 31 56  1  0
M  END
>  <smiles>  (22) 
O=C(NCC(=O)N1C[C@H](O)C[C@H]1COCc1ccc(Cl)cc1)c1ccc2cc(F)ccc2n1

>  <score_type>  (22) 
oracle

>  <origin>  (22) 
autodockgpu

>  <m_score__min__energy>  (22) 
-9.4600000000000009

>  <m_primary>  (22) 
energy

>  <rmsd>  (22) 
2.149171461470634

>  <m_score__min__rmsd>  (22) 
2.149171461470634

>  <meeko>  (22) 
{"free_energy": -7.89, "intermolecular_energy": -10.57, "internal_energy": -2.3, "cluster_size": 3, "cluster_id": 2, "rank_in_cluster": 2}

>  <energy>  (22) 
-7.89

>  <cluster_rmsd>  (22) 
1.63

>  <cluster>  (22) 
2

$$$$

     RDKit          3D

 56 59  0  0  0  0  0  0  0  0999 V2000
  139.0660   74.5960  222.2340 O   0  0  0  0  0  0  0  0  0  0  0  0
  140.1070   75.2510  221.9780 C   0  0  0  0  0  0  0  0  0  0  0  0
  141.3120   74.5900  221.6110 N   0  0  0  0  0  0  0  0  0  0  0  0
  141.3880   73.1550  221.5180 C   0  0  0  0  0  0  0  0  0  0  0  0
  142.0470   72.6980  220.2680 C   0  0  0  0  0  0  0  0  0  0  0  0
  141.4000   71.9770  219.4980 O   0  0  0  0  0  0  0  0  0  0  0  0
  143.3860   73.1300  220.0530 N   0  0  0  0  0  0  0  0  0  0  0  0
  144.6300   72.5440  220.5220 C   0  0  0  0  0  0  0  0  0  0  0  0
  145.5530   72.7400  219.3240 C   0  0  2  0  0  0  0  0  0  0  0  0
  146.7000   73.4380  219.6550 O   0  0  0  0  0  0  0  0  0  0  0  0
  144.7730   73.6100  218.3320 C   0  0  0  0  0  0  0  0  0  0  0  0
  143.8270   74.3140  219.2810 C   0  0  1  0  0  0  0  0  0  0  0  0
  142.6900   74.9730  218.5950 C   0  0  0  0  0  0  0  0  0  0  0  0
  142.1450   75.9620  219.3850 O   0  0  0  0  0  0  0  0  0  0  0  0
  141.0290   76.5950  218.8940 C   0  0  0  0  0  0  0  0  0  0  0  0
  141.2560   78.0820  218.7640 C   0  0  0  0  0  0  0  0  0  0  0  0
  142.5140   78.6010  218.5400 C   0  0  0  0  0  0  0  0  0  0  0  0
  142.6300   79.9600  218.4340 C   0  0  0  0  0  0  0  0  0  0  0  0
  141.5620   80.8340  218.5380 C   0  0  0  0  0  0  0  0  0  0  0  0
  141.7830   82.5680  218.3920 Cl  0  0  0  0  0  0  0  0  0  0  0  0
  140.3060   80.3040  218.7630 C   0  0  0  0  0  0  0  0  0  0  0  0
  140.1500   78.9280  218.8760 C   0  0  0  0  0  0  0  0  0  0  0  0
  140.1150   76.7160  222.0490 C   0  0  0  0  0  0  0  0  0  0  0  0
  138.9570   77.4520  222.0040 C   0  0  0  0  0  0  0  0  0  0  0  0
  138.9750   78.8430  222.0720 C   0  0  0  0  0  0  0  0  0  0  0  0
  140.1870   79.4980  222.1850 C   0  0  0  0  0  0  0  0  0  0  0  0
  140.2730   80.8840  222.2570 C   0  0  0  0  0  0  0  0  0  0  0  0
  141.5010   81.4800  222.3690 C   0  0  0  0  0  0  0  0  0  0  0  0
  141.6320   82.8400  222.4430 F   0  0  0  0  0  0  0  0  0  0  0  0
  142.6350   80.7020  222.4100 C   0  0  0  0  0  0  0  0  0  0  0  0
  142.5920   79.3220  222.3410 C   0  0  0  0  0  0  0  0  0  0  0  0
  141.3410   78.7460  222.2280 C   0  0  0  0  0  0  0  0  0  0  0  0
  141.2720   77.4070  222.1600 N   0  0  0  0  0  0  0  0  0  0  0  0
  142.1660   75.1890  221.4040 H   0  0  0  0  0  0  0  0  0  0  0  0
  141.9609   72.7761  222.3772 H   0  0  0  0  0  0  0  0  0  0  0  0
  140.3589   72.7664  221.5135 H   0  0  0  0  0  0  0  0  0  0  0  0
  145.0101   73.0727  221.4086 H   0  0  0  0  0  0  0  0  0  0  0  0
  144.5319   71.4942  220.8356 H   0  0  0  0  0  0  0  0  0  0  0  0
  145.8496   71.7566  218.9304 H   0  0  0  0  0  0  0  0  0  0  0  0
  146.7080   74.3780  219.3750 H   0  0  0  0  0  0  0  0  0  0  0  0
  145.4298   74.3209  217.8093 H   0  0  0  0  0  0  0  0  0  0  0  0
  144.2829   73.0559  217.5179 H   0  0  0  0  0  0  0  0  0  0  0  0
  144.2707   75.1414  219.8543 H   0  0  0  0  0  0  0  0  0  0  0  0
  143.0463   75.4187  217.6546 H   0  0  0  0  0  0  0  0  0  0  0  0
  141.9159   74.2179  218.3934 H   0  0  0  0  0  0  0  0  0  0  0  0
  140.7885   76.1811  217.9036 H   0  0  0  0  0  0  0  0  0  0  0  0
  140.1984   76.4300  219.5961 H   0  0  0  0  0  0  0  0  0  0  0  0
  143.3928   77.9456  218.4498 H   0  0  0  0  0  0  0  0  0  0  0  0
  143.6299   80.3824  218.2558 H   0  0  0  0  0  0  0  0  0  0  0  0
  139.4338   80.9682  218.8522 H   0  0  0  0  0  0  0  0  0  0  0  0
  139.1513   78.5029  219.0544 H   0  0  0  0  0  0  0  0  0  0  0  0
  137.9926   76.9311  221.9121 H   0  0  0  0  0  0  0  0  0  0  0  0
  138.0354   79.4139  222.0362 H   0  0  0  0  0  0  0  0  0  0  0  0
  139.3607   81.4977  222.2242 H   0  0  0  0  0  0  0  0  0  0  0  0
  143.6131   81.1969  222.5012 H   0  0  0  0  0  0  0  0  0  0  0  0
  143.5075   78.7131  222.3744 H   0  0  0  0  0  0  0  0  0  0  0  0
  1  2  2  0
  2  3  1  0
  3  4  1  0
  4  5  1  0
  5  6  2  0
  5  7  1  0
  7  8  1  0
  8  9  1  0
  9 10  1  0
  9 11  1  0
 11 12  1  0
 12 13  1  0
 13 14  1  0
 14 15  1  0
 15 16  1  0
 16 17  2  0
 17 18  1  0
 18 19  2  0
 19 20  1  0
 19 21  1  0
 21 22  2  0
  2 23  1  0
 23 24  2  0
 24 25  1  0
 25 26  2  0
 26 27  1  0
 27 28  2  0
 28 29  1  0
 28 30  1  0
 30 31  2  0
 31 32  1  0
 32 33  2  0
 12  7  1  0
 22 16  1  0
 33 23  1  0
 32 26  1  0
  3 34  1  0
  4 35  1  0
  4 36  1  0
  8 37  1  0
  8 38  1  0
  9 39  1  6
 10 40  1  0
 11 41  1  0
 11 42  1  0
 12 43  1  1
 13 44  1  0
 13 45  1  0
 15 46  1  0
 15 47  1  0
 17 48  1  0
 18 49  1  0
 21 50  1  0
 22 51  1  0
 24 52  1  0
 25 53  1  0
 27 54  1  0
 30 55  1  0
 31 56  1  0
M  END
>  <smiles>  (23) 
O=C(NCC(=O)N1C[C@H](O)C[C@H]1COCc1ccc(Cl)cc1)c1ccc2cc(F)ccc2n1

>  <score_type>  (23) 
oracle

>  <origin>  (23) 
autodockgpu

>  <m_score__min__energy>  (23) 
-9.4600000000000009

>  <m_primary>  (23) 
energy

>  <rmsd>  (23) 
8.13830611284163

>  <m_score__min__rmsd>  (23) 
8.13830611284163

>  <meeko>  (23) 
{"free_energy": -6.14, "intermolecular_energy": -8.82, "internal_energy": -4.22, "cluster_size": 14, "cluster_id": 9, "rank_in_cluster": 9}

>  <energy>  (23) 
-7.89

>  <cluster_rmsd>  (23) 
1.74

>  <cluster>  (23) 
2

$$$$

     RDKit          3D

 56 59  0  0  0  0  0  0  0  0999 V2000
  138.7570   75.2990  221.7760 O   0  0  0  0  0  0  0  0  0  0  0  0
  139.9210   75.7400  221.9460 C   0  0  0  0  0  0  0  0  0  0  0  0
  141.0550   74.9260  221.6750 N   0  0  0  0  0  0  0  0  0  0  0  0
  140.9180   73.5740  221.1980 C   0  0  0  0  0  0  0  0  0  0  0  0
  141.5960   73.3570  219.8940 C   0  0  0  0  0  0  0  0  0  0  0  0
  140.9200   73.4540  218.8630 O   0  0  0  0  0  0  0  0  0  0  0  0
  142.9850   73.0500  219.9360 N   0  0  0  0  0  0  0  0  0  0  0  0
  143.6480   71.7620  219.8270 C   0  0  0  0  0  0  0  0  0  0  0  0
  144.8840   72.1030  219.0010 C   0  0  2  0  0  0  0  0  0  0  0  0
  146.0570   71.7410  219.6390 O   0  0  0  0  0  0  0  0  0  0  0  0
  144.8980   73.6300  218.8760 C   0  0  0  0  0  0  0  0  0  0  0  0
  144.1040   74.0050  220.1090 C   0  0  1  0  0  0  0  0  0  0  0  0
  143.6290   75.4100  220.0960 C   0  0  0  0  0  0  0  0  0  0  0  0
  143.6680   75.9320  218.8210 O   0  0  0  0  0  0  0  0  0  0  0  0
  142.4690   76.3280  218.2820 C   0  0  0  0  0  0  0  0  0  0  0  0
  142.1480   77.7560  218.6520 C   0  0  0  0  0  0  0  0  0  0  0  0
  142.9220   78.8070  218.2060 C   0  0  0  0  0  0  0  0  0  0  0  0
  142.5600   80.0690  218.5890 C   0  0  0  0  0  0  0  0  0  0  0  0
  141.4680   80.3460  219.3930 C   0  0  0  0  0  0  0  0  0  0  0  0
  141.0600   81.9910  219.8460 Cl  0  0  0  0  0  0  0  0  0  0  0  0
  140.6990   79.2870  219.8350 C   0  0  0  0  0  0  0  0  0  0  0  0
  141.0370   77.9900  219.4660 C   0  0  0  0  0  0  0  0  0  0  0  0
  140.1490   77.1060  222.4290 C   0  0  0  0  0  0  0  0  0  0  0  0
  139.1130   77.9320  222.7890 C   0  0  0  0  0  0  0  0  0  0  0  0
  139.3400   79.2280  223.2470 C   0  0  0  0  0  0  0  0  0  0  0  0
  140.6380   79.6930  223.3400 C   0  0  0  0  0  0  0  0  0  0  0  0
  140.9310   80.9770  223.7880 C   0  0  0  0  0  0  0  0  0  0  0  0
  142.2370   81.3850  223.8610 C   0  0  0  0  0  0  0  0  0  0  0  0
  142.5710   82.6390  224.2970 F   0  0  0  0  0  0  0  0  0  0  0  0
  143.2420   80.5230  223.4900 C   0  0  0  0  0  0  0  0  0  0  0  0
  142.9920   79.2410  223.0390 C   0  0  0  0  0  0  0  0  0  0  0  0
  141.6680   78.8530  222.9750 C   0  0  0  0  0  0  0  0  0  0  0  0
  141.3980   77.6120  222.5400 N   0  0  0  0  0  0  0  0  0  0  0  0
  142.0200   75.3450  221.8350 H   0  0  0  0  0  0  0  0  0  0  0  0
  141.3569   72.8920  221.9411 H   0  0  0  0  0  0  0  0  0  0  0  0
  139.8452   73.3791  221.0524 H   0  0  0  0  0  0  0  0  0  0  0  0
  143.9256   71.3715  220.8172 H   0  0  0  0  0  0  0  0  0  0  0  0
  143.0194   70.9791  219.3775 H   0  0  0  0  0  0  0  0  0  0  0  0
  144.8354   71.5696  218.0402 H   0  0  0  0  0  0  0  0  0  0  0  0
  145.9670   71.5630  220.6000 H   0  0  0  0  0  0  0  0  0  0  0  0
  145.9210   74.0327  218.9118 H   0  0  0  0  0  0  0  0  0  0  0  0
  144.4942   74.0200  217.9300 H   0  0  0  0  0  0  0  0  0  0  0  0
  144.6597   73.9497  221.0567 H   0  0  0  0  0  0  0  0  0  0  0  0
  142.5940   75.4434  220.4670 H   0  0  0  0  0  0  0  0  0  0  0  0
  144.2886   76.0093  220.7408 H   0  0  0  0  0  0  0  0  0  0  0  0
  142.5234   76.2450  217.1865 H   0  0  0  0  0  0  0  0  0  0  0  0
  141.6764   75.6785  218.6818 H   0  0  0  0  0  0  0  0  0  0  0  0
  143.7994   78.6361  217.5649 H   0  0  0  0  0  0  0  0  0  0  0  0
  143.1721   80.9127  218.2377 H   0  0  0  0  0  0  0  0  0  0  0  0
  139.8236   79.4691  220.4757 H   0  0  0  0  0  0  0  0  0  0  0  0
  140.4270   77.1443  219.8165 H   0  0  0  0  0  0  0  0  0  0  0  0
  138.0799   77.5619  222.7141 H   0  0  0  0  0  0  0  0  0  0  0  0
  138.4959   79.8736  223.5312 H   0  0  0  0  0  0  0  0  0  0  0  0
  140.1201   81.6598  224.0815 H   0  0  0  0  0  0  0  0  0  0  0  0
  144.2848   80.8671  223.5547 H   0  0  0  0  0  0  0  0  0  0  0  0
  143.8070   78.5631  222.7455 H   0  0  0  0  0  0  0  0  0  0  0  0
  1  2  2  0
  2  3  1  0
  3  4  1  0
  4  5  1  0
  5  6  2  0
  5  7  1  0
  7  8  1  0
  8  9  1  0
  9 10  1  0
  9 11  1  0
 11 12  1  0
 12 13  1  0
 13 14  1  0
 14 15  1  0
 15 16  1  0
 16 17  2  0
 17 18  1  0
 18 19  2  0
 19 20  1  0
 19 21  1  0
 21 22  2  0
  2 23  1  0
 23 24  2  0
 24 25  1  0
 25 26  2  0
 26 27  1  0
 27 28  2  0
 28 29  1  0
 28 30  1  0
 30 31  2  0
 31 32  1  0
 32 33  2  0
 12  7  1  0
 22 16  1  0
 33 23  1  0
 32 26  1  0
  3 34  1  0
  4 35  1  0
  4 36  1  0
  8 37  1  0
  8 38  1  0
  9 39  1  6
 10 40  1  0
 11 41  1  0
 11 42  1  0
 12 43  1  1
 13 44  1  0
 13 45  1  0
 15 46  1  0
 15 47  1  0
 17 48  1  0
 18 49  1  0
 21 50  1  0
 22 51  1  0
 24 52  1  0
 25 53  1  0
 27 54  1  0
 30 55  1  0
 31 56  1  0
M  END
>  <smiles>  (24) 
O=C(NCC(=O)N1C[C@H](O)C[C@H]1COCc1ccc(Cl)cc1)c1ccc2cc(F)ccc2n1

>  <score_type>  (24) 
oracle

>  <origin>  (24) 
autodockgpu

>  <m_score__min__energy>  (24) 
-9.4600000000000009

>  <m_primary>  (24) 
energy

>  <rmsd>  (24) 
7.948732478536672

>  <m_score__min__rmsd>  (24) 
7.948732478536672

>  <meeko>  (24) 
{"free_energy": -6.82, "intermolecular_energy": -9.5, "internal_energy": -3.44, "cluster_size": 14, "cluster_id": 9, "rank_in_cluster": 4}

>  <energy>  (24) 
-8.24

>  <cluster_rmsd>  (24) 
0.0

>  <cluster>  (24) 
3

$$$$

     RDKit          3D

 56 59  0  0  0  0  0  0  0  0999 V2000
  139.1770   69.5520  220.2300 O   0  0  0  0  0  0  0  0  0  0  0  0
  139.6200   70.4360  221.0050 C   0  0  0  0  0  0  0  0  0  0  0  0
  140.1360   71.6600  220.4950 N   0  0  0  0  0  0  0  0  0  0  0  0
  140.1710   71.9340  219.0830 C   0  0  0  0  0  0  0  0  0  0  0  0
  141.3730   72.7110  218.6810 C   0  0  0  0  0  0  0  0  0  0  0  0
  141.3900   73.2130  217.5500 O   0  0  0  0  0  0  0  0  0  0  0  0
  142.4190   72.8150  219.6400 N   0  0  0  0  0  0  0  0  0  0  0  0
  143.6660   72.0750  219.7260 C   0  0  0  0  0  0  0  0  0  0  0  0
  144.6490   73.1480  220.1830 C   0  0  2  0  0  0  0  0  0  0  0  0
  145.3020   72.7990  221.3510 O   0  0  0  0  0  0  0  0  0  0  0  0
  143.8020   74.3860  220.4980 C   0  0  0  0  0  0  0  0  0  0  0  0
  142.4740   73.7290  220.8040 C   0  0  1  0  0  0  0  0  0  0  0  0
  141.3350   74.6790  220.8050 C   0  0  0  0  0  0  0  0  0  0  0  0
  140.5170   74.4650  221.8940 O   0  0  0  0  0  0  0  0  0  0  0  0
  139.3920   75.2480  221.9800 C   0  0  0  0  0  0  0  0  0  0  0  0
  139.7420   76.6710  222.3440 C   0  0  0  0  0  0  0  0  0  0  0  0
  138.7920   77.6710  222.3400 C   0  0  0  0  0  0  0  0  0  0  0  0
  139.1960   78.9320  222.6840 C   0  0  0  0  0  0  0  0  0  0  0  0
  140.4950   79.2560  223.0330 C   0  0  0  0  0  0  0  0  0  0  0  0
  140.9440   80.8960  223.4630 Cl  0  0  0  0  0  0  0  0  0  0  0  0
  141.4400   78.2480  223.0340 C   0  0  0  0  0  0  0  0  0  0  0  0
  141.0670   76.9540  222.6900 C   0  0  0  0  0  0  0  0  0  0  0  0
  139.6200   70.2370  222.4590 C   0  0  0  0  0  0  0  0  0  0  0  0
  138.9540   69.1920  223.0490 C   0  0  0  0  0  0  0  0  0  0  0  0
  138.9600   69.0120  224.4310 C   0  0  0  0  0  0  0  0  0  0  0  0
  139.6520   69.9060  225.2250 C   0  0  0  0  0  0  0  0  0  0  0  0
  139.6960   69.7820  226.6100 C   0  0  0  0  0  0  0  0  0  0  0  0
  140.3980   70.6980  227.3470 C   0  0  0  0  0  0  0  0  0  0  0  0
  140.4690   70.6130  228.7120 F   0  0  0  0  0  0  0  0  0  0  0  0
  141.0500   71.7290  226.7130 C   0  0  0  0  0  0  0  0  0  0  0  0
  141.0300   71.8870  225.3400 C   0  0  0  0  0  0  0  0  0  0  0  0
  140.3160   70.9510  224.6180 C   0  0  0  0  0  0  0  0  0  0  0  0
  140.2800   71.0820  223.2830 N   0  0  0  0  0  0  0  0  0  0  0  0
  140.4990   72.3770  221.1920 H   0  0  0  0  0  0  0  0  0  0  0  0
  140.1711   70.9782  218.5385 H   0  0  0  0  0  0  0  0  0  0  0  0
  139.2858   72.5398  218.8391 H   0  0  0  0  0  0  0  0  0  0  0  0
  143.5957   71.2598  220.4612 H   0  0  0  0  0  0  0  0  0  0  0  0
  143.9541   71.5858  218.7838 H   0  0  0  0  0  0  0  0  0  0  0  0
  145.4056   73.3026  219.3997 H   0  0  0  0  0  0  0  0  0  0  0  0
  145.1780   71.8660  221.6310 H   0  0  0  0  0  0  0  0  0  0  0  0
  144.1933   74.9378  221.3654 H   0  0  0  0  0  0  0  0  0  0  0  0
  143.7708   75.1403  219.6979 H   0  0  0  0  0  0  0  0  0  0  0  0
  142.4007   73.2675  221.7998 H   0  0  0  0  0  0  0  0  0  0  0  0
  141.7237   75.7073  220.8431 H   0  0  0  0  0  0  0  0  0  0  0  0
  140.7473   74.5242  219.8881 H   0  0  0  0  0  0  0  0  0  0  0  0
  138.8765   75.2429  221.0083 H   0  0  0  0  0  0  0  0  0  0  0  0
  138.7420   74.8376  222.7668 H   0  0  0  0  0  0  0  0  0  0  0  0
  137.7464   77.4620  222.0697 H   0  0  0  0  0  0  0  0  0  0  0  0
  138.4443   79.7351  222.6831 H   0  0  0  0  0  0  0  0  0  0  0  0
  142.4828   78.4686  223.3058 H   0  0  0  0  0  0  0  0  0  0  0  0
  141.8170   76.1494  222.6899 H   0  0  0  0  0  0  0  0  0  0  0  0
  138.4029   68.4803  222.4167 H   0  0  0  0  0  0  0  0  0  0  0  0
  138.4199   68.1677  224.8844 H   0  0  0  0  0  0  0  0  0  0  0  0
  139.1708   68.9544  227.1092 H   0  0  0  0  0  0  0  0  0  0  0  0
  141.6087   72.4555  227.3213 H   0  0  0  0  0  0  0  0  0  0  0  0
  141.5567   72.7172  224.8468 H   0  0  0  0  0  0  0  0  0  0  0  0
  1  2  2  0
  2  3  1  0
  3  4  1  0
  4  5  1  0
  5  6  2  0
  5  7  1  0
  7  8  1  0
  8  9  1  0
  9 10  1  0
  9 11  1  0
 11 12  1  0
 12 13  1  0
 13 14  1  0
 14 15  1  0
 15 16  1  0
 16 17  2  0
 17 18  1  0
 18 19  2  0
 19 20  1  0
 19 21  1  0
 21 22  2  0
  2 23  1  0
 23 24  2  0
 24 25  1  0
 25 26  2  0
 26 27  1  0
 27 28  2  0
 28 29  1  0
 28 30  1  0
 30 31  2  0
 31 32  1  0
 32 33  2  0
 12  7  1  0
 22 16  1  0
 33 23  1  0
 32 26  1  0
  3 34  1  0
  4 35  1  0
  4 36  1  0
  8 37  1  0
  8 38  1  0
  9 39  1  6
 10 40  1  0
 11 41  1  0
 11 42  1  0
 12 43  1  1
 13 44  1  0
 13 45  1  0
 15 46  1  0
 15 47  1  0
 17 48  1  0
 18 49  1  0
 21 50  1  0
 22 51  1  0
 24 52  1  0
 25 53  1  0
 27 54  1  0
 30 55  1  0
 31 56  1  0
M  END
>  <smiles>  (25) 
O=C(NCC(=O)N1C[C@H](O)C[C@H]1COCc1ccc(Cl)cc1)c1ccc2cc(F)ccc2n1

>  <score_type>  (25) 
oracle

>  <origin>  (25) 
autodockgpu

>  <m_score__min__energy>  (25) 
-9.4600000000000009

>  <m_primary>  (25) 
energy

>  <rmsd>  (25) 
3.3239443711233663

>  <m_score__min__rmsd>  (25) 
3.3239443711233663

>  <meeko>  (25) 
{"free_energy": -7.31, "intermolecular_energy": -9.99, "internal_energy": -2.66, "cluster_size": 20, "cluster_id": 1, "rank_in_cluster": 19}

>  <energy>  (25) 
-7.98

>  <cluster_rmsd>  (25) 
1.16

>  <cluster>  (25) 
3

$$$$

     RDKit          3D

 56 59  0  0  0  0  0  0  0  0999 V2000
  138.6540   75.4200  221.4670 O   0  0  0  0  0  0  0  0  0  0  0  0
  139.8090   75.7700  221.8150 C   0  0  0  0  0  0  0  0  0  0  0  0
  140.9060   74.8700  221.7100 N   0  0  0  0  0  0  0  0  0  0  0  0
  140.7380   73.5320  221.2050 C   0  0  0  0  0  0  0  0  0  0  0  0
  141.2520   73.3750  219.8200 C   0  0  0  0  0  0  0  0  0  0  0  0
  140.4370   73.1450  218.9190 O   0  0  0  0  0  0  0  0  0  0  0  0
  142.6580   73.5040  219.6390 N   0  0  0  0  0  0  0  0  0  0  0  0
  143.6640   72.4700  219.4680 C   0  0  0  0  0  0  0  0  0  0  0  0
  144.5960   73.0920  218.4330 C   0  0  2  0  0  0  0  0  0  0  0  0
  145.9040   73.1550  218.8780 O   0  0  0  0  0  0  0  0  0  0  0  0
  144.1160   74.5360  218.2510 C   0  0  0  0  0  0  0  0  0  0  0  0
  143.4380   74.7620  219.5850 C   0  0  1  0  0  0  0  0  0  0  0  0
  142.5550   75.9530  219.6010 C   0  0  0  0  0  0  0  0  0  0  0  0
  143.2230   77.0670  219.1400 O   0  0  0  0  0  0  0  0  0  0  0  0
  142.5550   77.8500  218.2300 C   0  0  0  0  0  0  0  0  0  0  0  0
  141.6760   78.8640  218.9220 C   0  0  0  0  0  0  0  0  0  0  0  0
  140.3740   78.5690  219.2720 C   0  0  0  0  0  0  0  0  0  0  0  0
  139.6490   79.5460  219.8960 C   0  0  0  0  0  0  0  0  0  0  0  0
  140.1450   80.8030  220.1930 C   0  0  0  0  0  0  0  0  0  0  0  0
  139.1570   82.0100  220.9960 Cl  0  0  0  0  0  0  0  0  0  0  0  0
  141.4490   81.0890  219.8380 C   0  0  0  0  0  0  0  0  0  0  0  0
  142.2180   80.1210  219.2020 C   0  0  0  0  0  0  0  0  0  0  0  0
  140.0660   77.1150  222.3390 C   0  0  0  0  0  0  0  0  0  0  0  0
  139.0590   77.9110  222.8260 C   0  0  0  0  0  0  0  0  0  0  0  0
  139.3120   79.1870  223.3220 C   0  0  0  0  0  0  0  0  0  0  0  0
  140.6100   79.6650  223.3230 C   0  0  0  0  0  0  0  0  0  0  0  0
  140.9300   80.9300  223.8040 C   0  0  0  0  0  0  0  0  0  0  0  0
  142.2330   81.3510  223.7820 C   0  0  0  0  0  0  0  0  0  0  0  0
  142.5920   82.5880  224.2460 F   0  0  0  0  0  0  0  0  0  0  0  0
  143.2090   80.5210  223.2850 C   0  0  0  0  0  0  0  0  0  0  0  0
  142.9320   79.2570  222.7980 C   0  0  0  0  0  0  0  0  0  0  0  0
  141.6110   78.8560  222.8320 C   0  0  0  0  0  0  0  0  0  0  0  0
  141.3160   77.6330  222.3650 N   0  0  0  0  0  0  0  0  0  0  0  0
  141.8640   75.2130  222.0170 H   0  0  0  0  0  0  0  0  0  0  0  0
  141.2800   72.8366  221.8628 H   0  0  0  0  0  0  0  0  0  0  0  0
  139.6596   73.3160  221.1865 H   0  0  0  0  0  0  0  0  0  0  0  0
  144.1933   72.2692  220.4111 H   0  0  0  0  0  0  0  0  0  0  0  0
  143.2496   71.4986  219.1605 H   0  0  0  0  0  0  0  0  0  0  0  0
  144.5736   72.4875  217.5143 H   0  0  0  0  0  0  0  0  0  0  0  0
  146.2900   74.0570  218.9000 H   0  0  0  0  0  0  0  0  0  0  0  0
  144.9567   75.2288  218.0986 H   0  0  0  0  0  0  0  0  0  0  0  0
  143.4745   74.7022  217.3730 H   0  0  0  0  0  0  0  0  0  0  0  0
  144.1182   74.9592  220.4267 H   0  0  0  0  0  0  0  0  0  0  0  0
  141.6834   75.7637  218.9572 H   0  0  0  0  0  0  0  0  0  0  0  0
  142.2346   76.1390  220.6367 H   0  0  0  0  0  0  0  0  0  0  0  0
  143.2893   78.3792  217.6048 H   0  0  0  0  0  0  0  0  0  0  0  0
  141.9170   77.1997  217.6135 H   0  0  0  0  0  0  0  0  0  0  0  0
  139.9354   77.5835  219.0567 H   0  0  0  0  0  0  0  0  0  0  0  0
  138.6103   79.3193  220.1785 H   0  0  0  0  0  0  0  0  0  0  0  0
  141.8770   82.0782  220.0575 H   0  0  0  0  0  0  0  0  0  0  0  0
  143.2568   80.3455  218.9182 H   0  0  0  0  0  0  0  0  0  0  0  0
  138.0267   77.5312  222.8243 H   0  0  0  0  0  0  0  0  0  0  0  0
  138.4899   79.8074  223.7083 H   0  0  0  0  0  0  0  0  0  0  0  0
  140.1420   81.5879  224.1994 H   0  0  0  0  0  0  0  0  0  0  0  0
  144.2502   80.8757  223.2742 H   0  0  0  0  0  0  0  0  0  0  0  0
  143.7241   78.6036  222.4033 H   0  0  0  0  0  0  0  0  0  0  0  0
  1  2  2  0
  2  3  1  0
  3  4  1  0
  4  5  1  0
  5  6  2  0
  5  7  1  0
  7  8  1  0
  8  9  1  0
  9 10  1  0
  9 11  1  0
 11 12  1  0
 12 13  1  0
 13 14  1  0
 14 15  1  0
 15 16  1  0
 16 17  2  0
 17 18  1  0
 18 19  2  0
 19 20  1  0
 19 21  1  0
 21 22  2  0
  2 23  1  0
 23 24  2  0
 24 25  1  0
 25 26  2  0
 26 27  1  0
 27 28  2  0
 28 29  1  0
 28 30  1  0
 30 31  2  0
 31 32  1  0
 32 33  2  0
 12  7  1  0
 22 16  1  0
 33 23  1  0
 32 26  1  0
  3 34  1  0
  4 35  1  0
  4 36  1  0
  8 37  1  0
  8 38  1  0
  9 39  1  6
 10 40  1  0
 11 41  1  0
 11 42  1  0
 12 43  1  1
 13 44  1  0
 13 45  1  0
 15 46  1  0
 15 47  1  0
 17 48  1  0
 18 49  1  0
 21 50  1  0
 22 51  1  0
 24 52  1  0
 25 53  1  0
 27 54  1  0
 30 55  1  0
 31 56  1  0
M  END
>  <smiles>  (26) 
O=C(NCC(=O)N1C[C@H](O)C[C@H]1COCc1ccc(Cl)cc1)c1ccc2cc(F)ccc2n1

>  <score_type>  (26) 
oracle

>  <origin>  (26) 
autodockgpu

>  <m_score__min__energy>  (26) 
-9.4600000000000009

>  <m_primary>  (26) 
energy

>  <rmsd>  (26) 
7.77817836386068

>  <m_score__min__rmsd>  (26) 
7.77817836386068

>  <meeko>  (26) 
{"free_energy": -6.49, "intermolecular_energy": -9.18, "internal_energy": -3.62, "cluster_size": 14, "cluster_id": 9, "rank_in_cluster": 5}

>  <energy>  (26) 
-7.98

>  <cluster_rmsd>  (26) 
1.15

>  <cluster>  (26) 
3

$$$$

     RDKit          3D

 56 59  0  0  0  0  0  0  0  0999 V2000
  141.0240   80.5460  219.0830 O   0  0  0  0  0  0  0  0  0  0  0  0
  140.6210   79.3560  219.0750 C   0  0  0  0  0  0  0  0  0  0  0  0
  139.4420   78.9800  219.7770 N   0  0  0  0  0  0  0  0  0  0  0  0
  138.6680   79.9400  220.5190 C   0  0  0  0  0  0  0  0  0  0  0  0
  139.1040   80.0530  221.9350 C   0  0  0  0  0  0  0  0  0  0  0  0
  138.2440   80.2900  222.7930 O   0  0  0  0  0  0  0  0  0  0  0  0
  140.4920   79.8790  222.1950 N   0  0  0  0  0  0  0  0  0  0  0  0
  141.5360   80.8800  222.3350 C   0  0  0  0  0  0  0  0  0  0  0  0
  142.3900   80.3020  223.4590 C   0  0  2  0  0  0  0  0  0  0  0  0
  143.7130   80.1480  223.0860 O   0  0  0  0  0  0  0  0  0  0  0  0
  141.8360   78.9000  223.7290 C   0  0  0  0  0  0  0  0  0  0  0  0
  141.2090   78.5970  222.3840 C   0  0  1  0  0  0  0  0  0  0  0  0
  140.2730   77.4480  222.4180 C   0  0  0  0  0  0  0  0  0  0  0  0
  140.2500   76.7960  221.2030 O   0  0  0  0  0  0  0  0  0  0  0  0
  140.2360   75.4230  221.2440 C   0  0  0  0  0  0  0  0  0  0  0  0
  141.5910   74.8520  220.8990 C   0  0  0  0  0  0  0  0  0  0  0  0
  141.8630   73.5070  221.0430 C   0  0  0  0  0  0  0  0  0  0  0  0
  143.1170   73.0750  220.7070 C   0  0  0  0  0  0  0  0  0  0  0  0
  144.1170   73.9060  220.2350 C   0  0  0  0  0  0  0  0  0  0  0  0
  145.7050   73.2830  219.8230 Cl  0  0  0  0  0  0  0  0  0  0  0  0
  143.8350   75.2510  220.0950 C   0  0  0  0  0  0  0  0  0  0  0  0
  142.5720   75.7270  220.4260 C   0  0  0  0  0  0  0  0  0  0  0  0
  141.3510   78.3150  218.3430 C   0  0  0  0  0  0  0  0  0  0  0  0
  142.5880   78.5450  217.7930 C   0  0  0  0  0  0  0  0  0  0  0  0
  143.2740   77.5500  217.1000 C   0  0  0  0  0  0  0  0  0  0  0  0
  142.6940   76.3030  216.9600 C   0  0  0  0  0  0  0  0  0  0  0  0
  143.3260   75.2680  216.2790 C   0  0  0  0  0  0  0  0  0  0  0  0
  142.7050   74.0520  216.1710 C   0  0  0  0  0  0  0  0  0  0  0  0
  143.2910   73.0060  215.5100 F   0  0  0  0  0  0  0  0  0  0  0  0
  141.4660   73.8680  216.7370 C   0  0  0  0  0  0  0  0  0  0  0  0
  140.8050   74.8710  217.4220 C   0  0  0  0  0  0  0  0  0  0  0  0
  141.4520   76.0870  217.5160 C   0  0  0  0  0  0  0  0  0  0  0  0
  140.8310   77.0780  218.1760 N   0  0  0  0  0  0  0  0  0  0  0  0
  139.1420   77.9600  219.7390 H   0  0  0  0  0  0  0  0  0  0  0  0
  138.7725   80.9240  220.0385 H   0  0  0  0  0  0  0  0  0  0  0  0
  137.6227   79.5975  220.5184 H   0  0  0  0  0  0  0  0  0  0  0  0
  142.1163   80.9833  221.4063 H   0  0  0  0  0  0  0  0  0  0  0  0
  141.1535   81.8895  222.5462 H   0  0  0  0  0  0  0  0  0  0  0  0
  142.3536   80.9784  224.3257 H   0  0  0  0  0  0  0  0  0  0  0  0
  143.8560   79.5790  222.2990 H   0  0  0  0  0  0  0  0  0  0  0  0
  142.6358   78.1863  223.9759 H   0  0  0  0  0  0  0  0  0  0  0  0
  141.1483   78.8322  224.5849 H   0  0  0  0  0  0  0  0  0  0  0  0
  141.9164   78.3040  221.5942 H   0  0  0  0  0  0  0  0  0  0  0  0
  140.5957   76.7435  223.1987 H   0  0  0  0  0  0  0  0  0  0  0  0
  139.2622   77.8243  222.6341 H   0  0  0  0  0  0  0  0  0  0  0  0
  139.9567   75.0972  222.2569 H   0  0  0  0  0  0  0  0  0  0  0  0
  139.5068   75.0601  220.5047 H   0  0  0  0  0  0  0  0  0  0  0  0
  141.0996   72.8076  221.4144 H   0  0  0  0  0  0  0  0  0  0  0  0
  143.3431   72.0043  220.8187 H   0  0  0  0  0  0  0  0  0  0  0  0
  144.6062   75.9418  219.7234 H   0  0  0  0  0  0  0  0  0  0  0  0
  142.3437   76.7973  220.3151 H   0  0  0  0  0  0  0  0  0  0  0  0
  143.0481   79.5382  217.9021 H   0  0  0  0  0  0  0  0  0  0  0  0
  144.2654   77.7542  216.6694 H   0  0  0  0  0  0  0  0  0  0  0  0
  144.3179   75.4250  215.8302 H   0  0  0  0  0  0  0  0  0  0  0  0
  140.9816   72.8850  216.6414 H   0  0  0  0  0  0  0  0  0  0  0  0
  139.8134   74.7082  217.8695 H   0  0  0  0  0  0  0  0  0  0  0  0
  1  2  2  0
  2  3  1  0
  3  4  1  0
  4  5  1  0
  5  6  2  0
  5  7  1  0
  7  8  1  0
  8  9  1  0
  9 10  1  0
  9 11  1  0
 11 12  1  0
 12 13  1  0
 13 14  1  0
 14 15  1  0
 15 16  1  0
 16 17  2  0
 17 18  1  0
 18 19  2  0
 19 20  1  0
 19 21  1  0
 21 22  2  0
  2 23  1  0
 23 24  2  0
 24 25  1  0
 25 26  2  0
 26 27  1  0
 27 28  2  0
 28 29  1  0
 28 30  1  0
 30 31  2  0
 31 32  1  0
 32 33  2  0
 12  7  1  0
 22 16  1  0
 33 23  1  0
 32 26  1  0
  3 34  1  0
  4 35  1  0
  4 36  1  0
  8 37  1  0
  8 38  1  0
  9 39  1  1
 10 40  1  0
 11 41  1  0
 11 42  1  0
 12 43  1  6
 13 44  1  0
 13 45  1  0
 15 46  1  0
 15 47  1  0
 17 48  1  0
 18 49  1  0
 21 50  1  0
 22 51  1  0
 24 52  1  0
 25 53  1  0
 27 54  1  0
 30 55  1  0
 31 56  1  0
M  END
>  <smiles>  (27) 
O=C(NCC(=O)N1C[C@H](O)C[C@H]1COCc1ccc(Cl)cc1)c1ccc2cc(F)ccc2n1

>  <score_type>  (27) 
oracle

>  <origin>  (27) 
autodockgpu

>  <m_score__min__energy>  (27) 
-9.4600000000000009

>  <m_primary>  (27) 
energy

>  <rmsd>  (27) 
9.243297933843715

>  <m_score__min__rmsd>  (27) 
9.243297933843715

>  <meeko>  (27) 
{"free_energy": -4.98, "intermolecular_energy": -7.67, "internal_energy": -4.38, "cluster_size": 1, "cluster_id": 10, "rank_in_cluster": 1}

>  <energy>  (27) 
-8.08

>  <cluster_rmsd>  (27) 
0.0

>  <cluster>  (27) 
4

$$$$

     RDKit          3D

 56 59  0  0  0  0  0  0  0  0999 V2000
  139.6760   76.4400  218.1330 O   0  0  0  0  0  0  0  0  0  0  0  0
  139.2450   77.1580  219.0700 C   0  0  0  0  0  0  0  0  0  0  0  0
  137.8680   77.1370  219.4290 N   0  0  0  0  0  0  0  0  0  0  0  0
  136.9210   76.3000  218.7410 C   0  0  0  0  0  0  0  0  0  0  0  0
  136.4920   75.1330  219.5560 C   0  0  0  0  0  0  0  0  0  0  0  0
  135.4090   74.6010  219.2850 O   0  0  0  0  0  0  0  0  0  0  0  0
  137.3720   74.7180  220.5940 N   0  0  0  0  0  0  0  0  0  0  0  0
  138.5730   73.9050  220.5140 C   0  0  0  0  0  0  0  0  0  0  0  0
  139.4920   74.5830  221.5250 C   0  0  2  0  0  0  0  0  0  0  0  0
  139.9400   73.7060  222.4960 O   0  0  0  0  0  0  0  0  0  0  0  0
  138.6320   75.6330  222.2360 C   0  0  0  0  0  0  0  0  0  0  0  0
  137.2580   75.0310  222.0370 C   0  0  1  0  0  0  0  0  0  0  0  0
  136.1550   75.9850  222.3030 C   0  0  0  0  0  0  0  0  0  0  0  0
  136.5160   77.2670  221.9480 O   0  0  0  0  0  0  0  0  0  0  0  0
  136.6030   78.1850  222.9660 C   0  0  0  0  0  0  0  0  0  0  0  0
  137.4750   79.3540  222.5750 C   0  0  0  0  0  0  0  0  0  0  0  0
  137.5220   79.8150  221.2750 C   0  0  0  0  0  0  0  0  0  0  0  0
  138.3390   80.8800  221.0090 C   0  0  0  0  0  0  0  0  0  0  0  0
  139.1130   81.5140  221.9650 C   0  0  0  0  0  0  0  0  0  0  0  0
  140.1400   82.8750  221.5530 Cl  0  0  0  0  0  0  0  0  0  0  0  0
  139.0600   81.0440  223.2630 C   0  0  0  0  0  0  0  0  0  0  0  0
  138.2410   79.9640  223.5710 C   0  0  0  0  0  0  0  0  0  0  0  0
  140.1430   78.0400  219.8220 C   0  0  0  0  0  0  0  0  0  0  0  0
  140.8440   79.0530  219.2160 C   0  0  0  0  0  0  0  0  0  0  0  0
  141.6940   79.8860  219.9390 C   0  0  0  0  0  0  0  0  0  0  0  0
  141.8380   79.6860  221.2990 C   0  0  0  0  0  0  0  0  0  0  0  0
  142.6710   80.4820  222.0770 C   0  0  0  0  0  0  0  0  0  0  0  0
  142.7750   80.2400  223.4210 C   0  0  0  0  0  0  0  0  0  0  0  0
  143.5830   80.9990  224.2250 F   0  0  0  0  0  0  0  0  0  0  0  0
  142.0550   79.2140  223.9860 C   0  0  0  0  0  0  0  0  0  0  0  0
  141.2160   78.4000  223.2470 C   0  0  0  0  0  0  0  0  0  0  0  0
  141.1290   78.6650  221.8950 C   0  0  0  0  0  0  0  0  0  0  0  0
  140.3210   77.8900  221.1550 N   0  0  0  0  0  0  0  0  0  0  0  0
  137.5520   77.7630  220.2290 H   0  0  0  0  0  0  0  0  0  0  0  0
  136.0341   76.9016  218.4929 H   0  0  0  0  0  0  0  0  0  0  0  0
  137.4139   75.9122  217.8373 H   0  0  0  0  0  0  0  0  0  0  0  0
  138.3680   72.8624  220.7985 H   0  0  0  0  0  0  0  0  0  0  0  0
  138.9988   73.8465  219.5015 H   0  0  0  0  0  0  0  0  0  0  0  0
  140.3675   74.9931  221.0003 H   0  0  0  0  0  0  0  0  0  0  0  0
  139.2610   73.4290  223.1490 H   0  0  0  0  0  0  0  0  0  0  0  0
  138.8897   75.7171  223.3021 H   0  0  0  0  0  0  0  0  0  0  0  0
  138.7465   76.6587  221.8553 H   0  0  0  0  0  0  0  0  0  0  0  0
  137.0148   74.1930  222.7068 H   0  0  0  0  0  0  0  0  0  0  0  0
  135.2715   75.6854  221.7202 H   0  0  0  0  0  0  0  0  0  0  0  0
  135.9292   75.9692  223.3795 H   0  0  0  0  0  0  0  0  0  0  0  0
  135.5942   78.5537  223.2037 H   0  0  0  0  0  0  0  0  0  0  0  0
  137.0526   77.6928  223.8410 H   0  0  0  0  0  0  0  0  0  0  0  0
  136.9242   79.3433  220.4812 H   0  0  0  0  0  0  0  0  0  0  0  0
  138.3831   81.2538  219.9754 H   0  0  0  0  0  0  0  0  0  0  0  0
  139.6630   81.5221  224.0490 H   0  0  0  0  0  0  0  0  0  0  0  0
  138.1959   79.5880  224.6038 H   0  0  0  0  0  0  0  0  0  0  0  0
  140.7315   79.2104  218.1332 H   0  0  0  0  0  0  0  0  0  0  0  0
  142.2442   80.6935  219.4338 H   0  0  0  0  0  0  0  0  0  0  0  0
  143.2429   81.3009  221.6161 H   0  0  0  0  0  0  0  0  0  0  0  0
  142.1499   79.0337  225.0670 H   0  0  0  0  0  0  0  0  0  0  0  0
  140.6466   77.5824  223.7131 H   0  0  0  0  0  0  0  0  0  0  0  0
  1  2  2  0
  2  3  1  0
  3  4  1  0
  4  5  1  0
  5  6  2  0
  5  7  1  0
  7  8  1  0
  8  9  1  0
  9 10  1  0
  9 11  1  0
 11 12  1  0
 12 13  1  0
 13 14  1  0
 14 15  1  0
 15 16  1  0
 16 17  2  0
 17 18  1  0
 18 19  2  0
 19 20  1  0
 19 21  1  0
 21 22  2  0
  2 23  1  0
 23 24  2  0
 24 25  1  0
 25 26  2  0
 26 27  1  0
 27 28  2  0
 28 29  1  0
 28 30  1  0
 30 31  2  0
 31 32  1  0
 32 33  2  0
 12  7  1  0
 22 16  1  0
 33 23  1  0
 32 26  1  0
  3 34  1  0
  4 35  1  0
  4 36  1  0
  8 37  1  0
  8 38  1  0
  9 39  1  6
 10 40  1  0
 11 41  1  0
 11 42  1  0
 12 43  1  1
 13 44  1  0
 13 45  1  0
 15 46  1  0
 15 47  1  0
 17 48  1  0
 18 49  1  0
 21 50  1  0
 22 51  1  0
 24 52  1  0
 25 53  1  0
 27 54  1  0
 30 55  1  0
 31 56  1  0
M  END
>  <smiles>  (28) 
O=C(NCC(=O)N1C[C@H](O)C[C@H]1COCc1ccc(Cl)cc1)c1ccc2cc(F)ccc2n1

>  <score_type>  (28) 
oracle

>  <origin>  (28) 
autodockgpu

>  <m_score__min__energy>  (28) 
-9.4600000000000009

>  <m_primary>  (28) 
energy

>  <rmsd>  (28) 
8.056680412280153

>  <m_score__min__rmsd>  (28) 
8.056680412280153

>  <meeko>  (28) 
{"free_energy": -4.74, "intermolecular_energy": -7.42, "internal_energy": -4.83, "cluster_size": 1, "cluster_id": 11, "rank_in_cluster": 1}

>  <energy>  (28) 
-7.91

>  <cluster_rmsd>  (28) 
0.0

>  <cluster>  (28) 
5

$$$$

     RDKit          3D

 56 59  0  0  0  0  0  0  0  0999 V2000
  140.9040   77.1730  217.3060 O   0  0  0  0  0  0  0  0  0  0  0  0
  140.7440   77.0200  218.5430 C   0  0  0  0  0  0  0  0  0  0  0  0
  140.1900   75.8170  219.0620 N   0  0  0  0  0  0  0  0  0  0  0  0
  139.7930   74.7350  218.1990 C   0  0  0  0  0  0  0  0  0  0  0  0
  140.5980   73.5050  218.4180 C   0  0  0  0  0  0  0  0  0  0  0  0
  140.1540   72.4340  217.9860 O   0  0  0  0  0  0  0  0  0  0  0  0
  141.8280   73.6590  219.1160 N   0  0  0  0  0  0  0  0  0  0  0  0
  143.1420   74.0080  218.6030 C   0  0  0  0  0  0  0  0  0  0  0  0
  143.6870   74.9170  219.6990 C   0  0  2  0  0  0  0  0  0  0  0  0
  144.8960   74.4680  220.1990 O   0  0  0  0  0  0  0  0  0  0  0  0
  142.6750   74.8440  220.8470 C   0  0  0  0  0  0  0  0  0  0  0  0
  142.0550   73.4920  220.5700 C   0  0  1  0  0  0  0  0  0  0  0  0
  140.7830   73.2690  221.2980 C   0  0  0  0  0  0  0  0  0  0  0  0
  140.3060   74.4490  221.8300 O   0  0  0  0  0  0  0  0  0  0  0  0
  138.9420   74.5720  221.9260 C   0  0  0  0  0  0  0  0  0  0  0  0
  138.5140   76.0160  221.8190 C   0  0  0  0  0  0  0  0  0  0  0  0
  138.8180   76.9320  222.8050 C   0  0  0  0  0  0  0  0  0  0  0  0
  138.3930   78.2200  222.6270 C   0  0  0  0  0  0  0  0  0  0  0  0
  137.6800   78.6500  221.5220 C   0  0  0  0  0  0  0  0  0  0  0  0
  137.1640   80.3180  221.3580 Cl  0  0  0  0  0  0  0  0  0  0  0  0
  137.3800   77.7250  220.5400 C   0  0  0  0  0  0  0  0  0  0  0  0
  137.7960   76.4060  220.6860 C   0  0  0  0  0  0  0  0  0  0  0  0
  141.1230   78.0730  219.4910 C   0  0  0  0  0  0  0  0  0  0  0  0
  141.4070   79.3520  219.0820 C   0  0  0  0  0  0  0  0  0  0  0  0
  141.7650   80.3450  219.9900 C   0  0  0  0  0  0  0  0  0  0  0  0
  141.8370   80.0350  221.3350 C   0  0  0  0  0  0  0  0  0  0  0  0
  142.1890   80.9810  222.2920 C   0  0  0  0  0  0  0  0  0  0  0  0
  142.2440   80.6190  223.6120 C   0  0  0  0  0  0  0  0  0  0  0  0
  142.5860   81.5170  224.5870 F   0  0  0  0  0  0  0  0  0  0  0  0
  141.9520   79.3250  223.9760 C   0  0  0  0  0  0  0  0  0  0  0  0
  141.5980   78.3560  223.0550 C   0  0  0  0  0  0  0  0  0  0  0  0
  141.5500   78.7470  221.7320 C   0  0  0  0  0  0  0  0  0  0  0  0
  141.2090   77.8250  220.8180 N   0  0  0  0  0  0  0  0  0  0  0  0
  140.0750   75.7340  220.1160 H   0  0  0  0  0  0  0  0  0  0  0  0
  138.7349   74.5023  218.3896 H   0  0  0  0  0  0  0  0  0  0  0  0
  139.9561   75.0597  217.1607 H   0  0  0  0  0  0  0  0  0  0  0  0
  143.7709   73.1143  218.4771 H   0  0  0  0  0  0  0  0  0  0  0  0
  143.1162   74.4812  217.6103 H   0  0  0  0  0  0  0  0  0  0  0  0
  143.8371   75.9271  219.2902 H   0  0  0  0  0  0  0  0  0  0  0  0
  145.6440   74.5010  219.5650 H   0  0  0  0  0  0  0  0  0  0  0  0
  143.1698   74.8720  221.8290 H   0  0  0  0  0  0  0  0  0  0  0  0
  141.9612   75.6800  220.8874 H   0  0  0  0  0  0  0  0  0  0  0  0
  142.6618   72.6285  220.8803 H   0  0  0  0  0  0  0  0  0  0  0  0
  140.0363   72.8604  220.6012 H   0  0  0  0  0  0  0  0  0  0  0  0
  140.9685   72.5627  222.1206 H   0  0  0  0  0  0  0  0  0  0  0  0
  138.4721   73.9976  221.1140 H   0  0  0  0  0  0  0  0  0  0  0  0
  138.6262   74.1874  222.9070 H   0  0  0  0  0  0  0  0  0  0  0  0
  139.3820   76.6371  223.7022 H   0  0  0  0  0  0  0  0  0  0  0  0
  138.6321   78.9569  223.4080 H   0  0  0  0  0  0  0  0  0  0  0  0
  136.8149   78.0306  219.6471 H   0  0  0  0  0  0  0  0  0  0  0  0
  137.5588   75.6671  219.9064 H   0  0  0  0  0  0  0  0  0  0  0  0
  141.3504   79.5984  218.0114 H   0  0  0  0  0  0  0  0  0  0  0  0
  141.9879   81.3641  219.6411 H   0  0  0  0  0  0  0  0  0  0  0  0
  142.4217   82.0131  221.9908 H   0  0  0  0  0  0  0  0  0  0  0  0
  142.0020   79.0506  225.0400 H   0  0  0  0  0  0  0  0  0  0  0  0
  141.3663   77.3252  223.3613 H   0  0  0  0  0  0  0  0  0  0  0  0
  1  2  2  0
  2  3  1  0
  3  4  1  0
  4  5  1  0
  5  6  2  0
  5  7  1  0
  7  8  1  0
  8  9  1  0
  9 10  1  0
  9 11  1  0
 11 12  1  0
 12 13  1  0
 13 14  1  0
 14 15  1  0
 15 16  1  0
 16 17  2  0
 17 18  1  0
 18 19  2  0
 19 20  1  0
 19 21  1  0
 21 22  2  0
  2 23  1  0
 23 24  2  0
 24 25  1  0
 25 26  2  0
 26 27  1  0
 27 28  2  0
 28 29  1  0
 28 30  1  0
 30 31  2  0
 31 32  1  0
 32 33  2  0
 12  7  1  0
 22 16  1  0
 33 23  1  0
 32 26  1  0
  3 34  1  0
  4 35  1  0
  4 36  1  0
  8 37  1  0
  8 38  1  0
  9 39  1  6
 10 40  1  0
 11 41  1  0
 11 42  1  0
 12 43  1  6
 13 44  1  0
 13 45  1  0
 15 46  1  0
 15 47  1  0
 17 48  1  0
 18 49  1  0
 21 50  1  0
 22 51  1  0
 24 52  1  0
 25 53  1  0
 27 54  1  0
 30 55  1  0
 31 56  1  0
M  END
>  <smiles>  (29) 
O=C(NCC(=O)N1C[C@H](O)C[C@H]1COCc1ccc(Cl)cc1)c1ccc2cc(F)ccc2n1

>  <score_type>  (29) 
oracle

>  <origin>  (29) 
autodockgpu

>  <m_score__min__energy>  (29) 
-9.4600000000000009

>  <m_primary>  (29) 
energy

>  <rmsd>  (29) 
8.171944885426216

>  <m_score__min__rmsd>  (29) 
8.171944885426216

>  <meeko>  (29) 
{"free_energy": -4.84, "intermolecular_energy": -7.53, "internal_energy": -4.64, "cluster_size": 14, "cluster_id": 9, "rank_in_cluster": 14}

>  <energy>  (29) 
-7.58

>  <cluster_rmsd>  (29) 
1.42

>  <cluster>  (29) 
5

$$$$

     RDKit          3D

 56 59  0  0  0  0  0  0  0  0999 V2000
  138.2020   70.3090  221.6060 O   0  0  0  0  0  0  0  0  0  0  0  0
  138.7650   70.8660  222.5810 C   0  0  0  0  0  0  0  0  0  0  0  0
  139.0720   72.2550  222.5500 N   0  0  0  0  0  0  0  0  0  0  0  0
  138.7530   73.0730  221.4080 C   0  0  0  0  0  0  0  0  0  0  0  0
  139.3440   74.4330  221.4970 C   0  0  0  0  0  0  0  0  0  0  0  0
  140.2450   74.6250  222.3230 O   0  0  0  0  0  0  0  0  0  0  0  0
  138.8180   75.4190  220.6150 N   0  0  0  0  0  0  0  0  0  0  0  0
  139.2200   75.7500  219.2590 C   0  0  0  0  0  0  0  0  0  0  0  0
  137.8820   76.0330  218.5840 C   0  0  2  0  0  0  0  0  0  0  0  0
  137.8390   77.2930  218.0130 O   0  0  0  0  0  0  0  0  0  0  0  0
  136.8360   76.0150  219.7030 C   0  0  0  0  0  0  0  0  0  0  0  0
  137.7090   76.3610  220.8900 C   0  0  1  0  0  0  0  0  0  0  0  0
  137.0640   76.0780  222.1950 C   0  0  0  0  0  0  0  0  0  0  0  0
  137.4060   77.0320  223.1300 O   0  0  0  0  0  0  0  0  0  0  0  0
  137.5030   78.3250  222.6800 C   0  0  0  0  0  0  0  0  0  0  0  0
  138.8630   78.9090  222.9810 C   0  0  0  0  0  0  0  0  0  0  0  0
  139.0030   80.1800  223.4970 C   0  0  0  0  0  0  0  0  0  0  0  0
  140.2720   80.6300  223.7410 C   0  0  0  0  0  0  0  0  0  0  0  0
  141.4120   79.8840  223.5010 C   0  0  0  0  0  0  0  0  0  0  0  0
  143.0110   80.5230  223.8380 Cl  0  0  0  0  0  0  0  0  0  0  0  0
  141.2620   78.6120  222.9840 C   0  0  0  0  0  0  0  0  0  0  0  0
  139.9870   78.1210  222.7230 C   0  0  0  0  0  0  0  0  0  0  0  0
  139.1240   70.1060  223.7830 C   0  0  0  0  0  0  0  0  0  0  0  0
  138.8550   68.7650  223.9020 C   0  0  0  0  0  0  0  0  0  0  0  0
  139.1990   68.0510  225.0480 C   0  0  0  0  0  0  0  0  0  0  0  0
  139.8250   68.7090  226.0900 C   0  0  0  0  0  0  0  0  0  0  0  0
  140.1950   68.0540  227.2600 C   0  0  0  0  0  0  0  0  0  0  0  0
  140.8130   68.7560  228.2600 C   0  0  0  0  0  0  0  0  0  0  0  0
  141.1940   68.1510  229.4280 F   0  0  0  0  0  0  0  0  0  0  0  0
  141.0620   70.0980  228.0970 C   0  0  0  0  0  0  0  0  0  0  0  0
  140.7110   70.7850  226.9500 C   0  0  0  0  0  0  0  0  0  0  0  0
  140.0890   70.0550  225.9570 C   0  0  0  0  0  0  0  0  0  0  0  0
  139.7380   70.6990  224.8320 N   0  0  0  0  0  0  0  0  0  0  0  0
  139.5480   72.6810  223.4000 H   0  0  0  0  0  0  0  0  0  0  0  0
  139.1378   72.5801  220.5030 H   0  0  0  0  0  0  0  0  0  0  0  0
  137.6594   73.1863  221.3742 H   0  0  0  0  0  0  0  0  0  0  0  0
  139.8706   76.6368  219.2415 H   0  0  0  0  0  0  0  0  0  0  0  0
  139.8033   74.9580  218.7665 H   0  0  0  0  0  0  0  0  0  0  0  0
  137.7117   75.2897  217.7912 H   0  0  0  0  0  0  0  0  0  0  0  0
  136.9500   77.7080  217.9950 H   0  0  0  0  0  0  0  0  0  0  0  0
  136.0519   76.7691  219.5402 H   0  0  0  0  0  0  0  0  0  0  0  0
  136.2788   75.0715  219.7991 H   0  0  0  0  0  0  0  0  0  0  0  0
  137.9739   77.4248  220.9806 H   0  0  0  0  0  0  0  0  0  0  0  0
  135.9718   76.0771  222.0643 H   0  0  0  0  0  0  0  0  0  0  0  0
  137.4090   75.0964  222.5520 H   0  0  0  0  0  0  0  0  0  0  0  0
  137.3394   78.3393  221.5923 H   0  0  0  0  0  0  0  0  0  0  0  0
  136.7428   78.9305  223.1953 H   0  0  0  0  0  0  0  0  0  0  0  0
  138.1256   80.8099  223.7051 H   0  0  0  0  0  0  0  0  0  0  0  0
  140.3926   81.6433  224.1516 H   0  0  0  0  0  0  0  0  0  0  0  0
  142.1463   77.9905  222.7797 H   0  0  0  0  0  0  0  0  0  0  0  0
  139.8634   77.1082  222.3119 H   0  0  0  0  0  0  0  0  0  0  0  0
  138.3561   68.2418  223.0729 H   0  0  0  0  0  0  0  0  0  0  0  0
  138.9751   66.9766  225.1226 H   0  0  0  0  0  0  0  0  0  0  0  0
  139.9925   66.9796  227.3810 H   0  0  0  0  0  0  0  0  0  0  0  0
  141.5596   70.6462  228.9105 H   0  0  0  0  0  0  0  0  0  0  0  0
  140.9169   71.8593  226.8343 H   0  0  0  0  0  0  0  0  0  0  0  0
  1  2  2  0
  2  3  1  0
  3  4  1  0
  4  5  1  0
  5  6  2  0
  5  7  1  0
  7  8  1  0
  8  9  1  0
  9 10  1  0
  9 11  1  0
 11 12  1  0
 12 13  1  0
 13 14  1  0
 14 15  1  0
 15 16  1  0
 16 17  2  0
 17 18  1  0
 18 19  2  0
 19 20  1  0
 19 21  1  0
 21 22  2  0
  2 23  1  0
 23 24  2  0
 24 25  1  0
 25 26  2  0
 26 27  1  0
 27 28  2  0
 28 29  1  0
 28 30  1  0
 30 31  2  0
 31 32  1  0
 32 33  2  0
 12  7  1  0
 22 16  1  0
 33 23  1  0
 32 26  1  0
  3 34  1  0
  4 35  1  0
  4 36  1  0
  8 37  1  0
  8 38  1  0
  9 39  1  6
 10 40  1  0
 11 41  1  0
 11 42  1  0
 12 43  1  1
 13 44  1  0
 13 45  1  0
 15 46  1  0
 15 47  1  0
 17 48  1  0
 18 49  1  0
 21 50  1  0
 22 51  1  0
 24 52  1  0
 25 53  1  0
 27 54  1  0
 30 55  1  0
 31 56  1  0
M  END
>  <smiles>  (30) 
O=C(NCC(=O)N1C[C@H](O)C[C@H]1COCc1ccc(Cl)cc1)c1ccc2cc(F)ccc2n1

>  <score_type>  (30) 
oracle

>  <origin>  (30) 
autodockgpu

>  <m_score__min__energy>  (30) 
-9.4600000000000009

>  <m_primary>  (30) 
energy

>  <rmsd>  (30) 
2.078381026345052

>  <m_score__min__rmsd>  (30) 
2.078381026345052

>  <meeko>  (30) 
{"free_energy": -7.58, "intermolecular_energy": -10.27, "internal_energy": -2.36, "cluster_size": 2, "cluster_id": 5, "rank_in_cluster": 2}

>  <energy>  (30) 
-7.77

>  <cluster_rmsd>  (30) 
0.0

>  <cluster>  (30) 
6

$$$$

     RDKit          3D

 56 59  0  0  0  0  0  0  0  0999 V2000
  139.4220   71.1680  220.8650 O   0  0  0  0  0  0  0  0  0  0  0  0
  139.5150   71.7080  221.9960 C   0  0  0  0  0  0  0  0  0  0  0  0
  139.5340   73.1240  222.1280 N   0  0  0  0  0  0  0  0  0  0  0  0
  139.4470   73.9910  220.9810 C   0  0  0  0  0  0  0  0  0  0  0  0
  140.4840   73.6930  219.9600 C   0  0  0  0  0  0  0  0  0  0  0  0
  140.1120   73.4490  218.8060 O   0  0  0  0  0  0  0  0  0  0  0  0
  141.8380   73.7130  220.3970 N   0  0  0  0  0  0  0  0  0  0  0  0
  142.6630   72.6240  220.8910 C   0  0  0  0  0  0  0  0  0  0  0  0
  144.0220   72.9410  220.2760 C   0  0  2  0  0  0  0  0  0  0  0  0
  145.0170   73.0500  221.2300 O   0  0  0  0  0  0  0  0  0  0  0  0
  143.8760   74.3210  219.6250 C   0  0  0  0  0  0  0  0  0  0  0  0
  142.7410   74.8860  220.4510 C   0  0  1  0  0  0  0  0  0  0  0  0
  142.1130   76.0850  219.8440 C   0  0  0  0  0  0  0  0  0  0  0  0
  141.8100   77.0230  220.8080 O   0  0  0  0  0  0  0  0  0  0  0  0
  141.0700   76.5860  221.8790 C   0  0  0  0  0  0  0  0  0  0  0  0
  140.3480   77.7300  222.5490 C   0  0  0  0  0  0  0  0  0  0  0  0
  141.0340   78.7210  223.2190 C   0  0  0  0  0  0  0  0  0  0  0  0
  140.3010   79.7210  223.7970 C   0  0  0  0  0  0  0  0  0  0  0  0
  138.9200   79.7920  223.7450 C   0  0  0  0  0  0  0  0  0  0  0  0
  138.0420   81.1040  224.5090 Cl  0  0  0  0  0  0  0  0  0  0  0  0
  138.2420   78.7940  223.0720 C   0  0  0  0  0  0  0  0  0  0  0  0
  138.9530   77.7610  222.4720 C   0  0  0  0  0  0  0  0  0  0  0  0
  139.6090   70.8980  223.2150 C   0  0  0  0  0  0  0  0  0  0  0  0
  139.1400   69.6090  223.2690 C   0  0  0  0  0  0  0  0  0  0  0  0
  139.2320   68.8470  224.4320 C   0  0  0  0  0  0  0  0  0  0  0  0
  139.8090   69.4040  225.5580 C   0  0  0  0  0  0  0  0  0  0  0  0
  139.9310   68.6970  226.7500 C   0  0  0  0  0  0  0  0  0  0  0  0
  140.5120   69.2980  227.8350 C   0  0  0  0  0  0  0  0  0  0  0  0
  140.6530   68.6400  229.0270 F   0  0  0  0  0  0  0  0  0  0  0  0
  140.9670   70.5920  227.7350 C   0  0  0  0  0  0  0  0  0  0  0  0
  140.8640   71.3280  226.5690 C   0  0  0  0  0  0  0  0  0  0  0  0
  140.2750   70.6990  225.4900 C   0  0  0  0  0  0  0  0  0  0  0  0
  140.1630   71.3920  224.3460 N   0  0  0  0  0  0  0  0  0  0  0  0
  139.6140   73.5330  223.1060 H   0  0  0  0  0  0  0  0  0  0  0  0
  138.4550   73.8691  220.5216 H   0  0  0  0  0  0  0  0  0  0  0  0
  139.6088   75.0218  221.3293 H   0  0  0  0  0  0  0  0  0  0  0  0
  142.7122   72.6284  221.9899 H   0  0  0  0  0  0  0  0  0  0  0  0
  142.2813   71.6270  220.6259 H   0  0  0  0  0  0  0  0  0  0  0  0
  144.3002   72.1368  219.5790 H   0  0  0  0  0  0  0  0  0  0  0  0
  145.4240   72.1990  221.5020 H   0  0  0  0  0  0  0  0  0  0  0  0
  144.7930   74.9197  219.7286 H   0  0  0  0  0  0  0  0  0  0  0  0
  143.6939   74.3033  218.5403 H   0  0  0  0  0  0  0  0  0  0  0  0
  143.0262   75.2459  221.4506 H   0  0  0  0  0  0  0  0  0  0  0  0
  142.8100   76.5277  219.1172 H   0  0  0  0  0  0  0  0  0  0  0  0
  141.1811   75.7795  219.3457 H   0  0  0  0  0  0  0  0  0  0  0  0
  140.3301   75.8517  221.5278 H   0  0  0  0  0  0  0  0  0  0  0  0
  141.7532   76.1300  222.6106 H   0  0  0  0  0  0  0  0  0  0  0  0
  142.1319   78.7079  223.2863 H   0  0  0  0  0  0  0  0  0  0  0  0
  140.8407   80.5147  224.3343 H   0  0  0  0  0  0  0  0  0  0  0  0
  137.1439   78.8166  223.0112 H   0  0  0  0  0  0  0  0  0  0  0  0
  138.4158   76.9654  221.9349 H   0  0  0  0  0  0  0  0  0  0  0  0
  138.6805   69.1670  222.3726 H   0  0  0  0  0  0  0  0  0  0  0  0
  138.8504   67.8155  224.4538 H   0  0  0  0  0  0  0  0  0  0  0  0
  139.5634   67.6626  226.8206 H   0  0  0  0  0  0  0  0  0  0  0  0
  141.4306   71.0593  228.6163 H   0  0  0  0  0  0  0  0  0  0  0  0
  141.2326   72.3624  226.5042 H   0  0  0  0  0  0  0  0  0  0  0  0
  1  2  2  0
  2  3  1  0
  3  4  1  0
  4  5  1  0
  5  6  2  0
  5  7  1  0
  7  8  1  0
  8  9  1  0
  9 10  1  0
  9 11  1  0
 11 12  1  0
 12 13  1  0
 13 14  1  0
 14 15  1  0
 15 16  1  0
 16 17  2  0
 17 18  1  0
 18 19  2  0
 19 20  1  0
 19 21  1  0
 21 22  2  0
  2 23  1  0
 23 24  2  0
 24 25  1  0
 25 26  2  0
 26 27  1  0
 27 28  2  0
 28 29  1  0
 28 30  1  0
 30 31  2  0
 31 32  1  0
 32 33  2  0
 12  7  1  0
 22 16  1  0
 33 23  1  0
 32 26  1  0
  3 34  1  0
  4 35  1  0
  4 36  1  0
  8 37  1  0
  8 38  1  0
  9 39  1  6
 10 40  1  0
 11 41  1  0
 11 42  1  0
 12 43  1  1
 13 44  1  0
 13 45  1  0
 15 46  1  0
 15 47  1  0
 17 48  1  0
 18 49  1  0
 21 50  1  0
 22 51  1  0
 24 52  1  0
 25 53  1  0
 27 54  1  0
 30 55  1  0
 31 56  1  0
M  END
>  <smiles>  (31) 
O=C(NCC(=O)N1C[C@H](O)C[C@H]1COCc1ccc(Cl)cc1)c1ccc2cc(F)ccc2n1

>  <score_type>  (31) 
oracle

>  <origin>  (31) 
autodockgpu

>  <m_score__min__energy>  (31) 
-9.4600000000000009

>  <m_primary>  (31) 
energy

>  <rmsd>  (31) 
2.6989437348378824

>  <m_score__min__rmsd>  (31) 
2.6989437348378824

>  <meeko>  (31) 
{"free_energy": -8.07, "intermolecular_energy": -10.76, "internal_energy": -1.89, "cluster_size": 20, "cluster_id": 1, "rank_in_cluster": 14}

>  <energy>  (31) 
-7.36

>  <cluster_rmsd>  (31) 
0.0

>  <cluster>  (31) 
7

$$$$

     RDKit          3D

 56 59  0  0  0  0  0  0  0  0999 V2000
  139.0110   74.8570  222.2920 O   0  0  0  0  0  0  0  0  0  0  0  0
  140.0540   75.5240  222.0750 C   0  0  0  0  0  0  0  0  0  0  0  0
  141.2780   74.8760  221.7490 N   0  0  0  0  0  0  0  0  0  0  0  0
  141.3720   73.4430  221.6540 C   0  0  0  0  0  0  0  0  0  0  0  0
  141.8820   72.9900  220.3340 C   0  0  0  0  0  0  0  0  0  0  0  0
  141.0690   72.8480  219.4130 O   0  0  0  0  0  0  0  0  0  0  0  0
  143.2820   72.7520  220.2350 N   0  0  0  0  0  0  0  0  0  0  0  0
  144.0040   71.4910  220.2270 C   0  0  0  0  0  0  0  0  0  0  0  0
  145.1040   71.7540  219.2030 C   0  0  2  0  0  0  0  0  0  0  0  0
  146.3670   71.5430  219.7250 O   0  0  0  0  0  0  0  0  0  0  0  0
  145.0070   73.2440  218.8570 C   0  0  0  0  0  0  0  0  0  0  0  0
  144.3530   73.7680  220.1170 C   0  0  1  0  0  0  0  0  0  0  0  0
  143.7940   75.1330  219.9640 C   0  0  0  0  0  0  0  0  0  0  0  0
  143.0380   75.2300  218.8150 O   0  0  0  0  0  0  0  0  0  0  0  0
  143.3240   76.2810  217.9790 C   0  0  0  0  0  0  0  0  0  0  0  0
  142.4140   77.4560  218.2450 C   0  0  0  0  0  0  0  0  0  0  0  0
  141.1310   77.2790  218.7220 C   0  0  0  0  0  0  0  0  0  0  0  0
  140.3750   78.3990  218.9360 C   0  0  0  0  0  0  0  0  0  0  0  0
  140.8220   79.6870  218.7020 C   0  0  0  0  0  0  0  0  0  0  0  0
  139.7970   81.0790  218.9980 Cl  0  0  0  0  0  0  0  0  0  0  0  0
  142.1080   79.8530  218.2240 C   0  0  0  0  0  0  0  0  0  0  0  0
  142.9070   78.7390  217.9950 C   0  0  0  0  0  0  0  0  0  0  0  0
  140.0450   76.9890  222.1510 C   0  0  0  0  0  0  0  0  0  0  0  0
  138.8820   77.7020  222.3000 C   0  0  0  0  0  0  0  0  0  0  0  0
  138.8830   79.0930  222.3710 C   0  0  0  0  0  0  0  0  0  0  0  0
  140.0840   79.7710  222.2880 C   0  0  0  0  0  0  0  0  0  0  0  0
  140.1540   81.1590  222.3520 C   0  0  0  0  0  0  0  0  0  0  0  0
  141.3720   81.7790  222.2650 C   0  0  0  0  0  0  0  0  0  0  0  0
  141.4870   83.1420  222.3240 F   0  0  0  0  0  0  0  0  0  0  0  0
  142.5120   81.0240  222.1160 C   0  0  0  0  0  0  0  0  0  0  0  0
  142.4850   79.6430  222.0480 C   0  0  0  0  0  0  0  0  0  0  0  0
  141.2450   79.0430  222.1380 C   0  0  0  0  0  0  0  0  0  0  0  0
  141.1910   77.7030  222.0750 N   0  0  0  0  0  0  0  0  0  0  0  0
  142.1330   75.4840  221.5740 H   0  0  0  0  0  0  0  0  0  0  0  0
  142.0540   73.0820  222.4379 H   0  0  0  0  0  0  0  0  0  0  0  0
  140.3585   73.0337  221.7778 H   0  0  0  0  0  0  0  0  0  0  0  0
  144.4268   71.2675  221.2176 H   0  0  0  0  0  0  0  0  0  0  0  0
  143.3732   70.6233  219.9835 H   0  0  0  0  0  0  0  0  0  0  0  0
  144.9694   71.0791  218.3449 H   0  0  0  0  0  0  0  0  0  0  0  0
  146.4100   71.5110  220.7050 H   0  0  0  0  0  0  0  0  0  0  0  0
  145.9994   73.6907  218.6967 H   0  0  0  0  0  0  0  0  0  0  0  0
  144.4637   73.4679  217.9271 H   0  0  0  0  0  0  0  0  0  0  0  0
  145.0261   73.8807  220.9797 H   0  0  0  0  0  0  0  0  0  0  0  0
  143.1593   75.3616  220.8329 H   0  0  0  0  0  0  0  0  0  0  0  0
  144.6272   75.8481  219.8975 H   0  0  0  0  0  0  0  0  0  0  0  0
  144.3670   76.5921  218.1383 H   0  0  0  0  0  0  0  0  0  0  0  0
  143.1709   75.9509  216.9409 H   0  0  0  0  0  0  0  0  0  0  0  0
  140.7309   76.2742  218.9228 H   0  0  0  0  0  0  0  0  0  0  0  0
  139.3513   78.2675  219.3166 H   0  0  0  0  0  0  0  0  0  0  0  0
  142.4976   80.8624  218.0256 H   0  0  0  0  0  0  0  0  0  0  0  0
  143.9314   78.8681  217.6155 H   0  0  0  0  0  0  0  0  0  0  0  0
  137.9259   77.1619  222.3649 H   0  0  0  0  0  0  0  0  0  0  0  0
  137.9392   79.6450  222.4917 H   0  0  0  0  0  0  0  0  0  0  0  0
  139.2370   81.7546  222.4717 H   0  0  0  0  0  0  0  0  0  0  0  0
  143.4821   81.5382  222.0483 H   0  0  0  0  0  0  0  0  0  0  0  0
  143.4052   79.0524  221.9282 H   0  0  0  0  0  0  0  0  0  0  0  0
  1  2  2  0
  2  3  1  0
  3  4  1  0
  4  5  1  0
  5  6  2  0
  5  7  1  0
  7  8  1  0
  8  9  1  0
  9 10  1  0
  9 11  1  0
 11 12  1  0
 12 13  1  0
 13 14  1  0
 14 15  1  0
 15 16  1  0
 16 17  2  0
 17 18  1  0
 18 19  2  0
 19 20  1  0
 19 21  1  0
 21 22  2  0
  2 23  1  0
 23 24  2  0
 24 25  1  0
 25 26  2  0
 26 27  1  0
 27 28  2  0
 28 29  1  0
 28 30  1  0
 30 31  2  0
 31 32  1  0
 32 33  2  0
 12  7  1  0
 22 16  1  0
 33 23  1  0
 32 26  1  0
  3 34  1  0
  4 35  1  0
  4 36  1  0
  8 37  1  0
  8 38  1  0
  9 39  1  6
 10 40  1  0
 11 41  1  0
 11 42  1  0
 12 43  1  1
 13 44  1  0
 13 45  1  0
 15 46  1  0
 15 47  1  0
 17 48  1  0
 18 49  1  0
 21 50  1  0
 22 51  1  0
 24 52  1  0
 25 53  1  0
 27 54  1  0
 30 55  1  0
 31 56  1  0
M  END
>  <smiles>  (32) 
O=C(NCC(=O)N1C[C@H](O)C[C@H]1COCc1ccc(Cl)cc1)c1ccc2cc(F)ccc2n1

>  <score_type>  (32) 
oracle

>  <origin>  (32) 
autodockgpu

>  <m_score__min__energy>  (32) 
-9.4600000000000009

>  <m_primary>  (32) 
energy

>  <rmsd>  (32) 
8.325757937824301

>  <m_score__min__rmsd>  (32) 
8.325757937824301

>  <meeko>  (32) 
{"free_energy": -5.97, "intermolecular_energy": -8.65, "internal_energy": -3.57, "cluster_size": 14, "cluster_id": 9, "rank_in_cluster": 12}

>  <energy>  (32) 
-7.33

>  <cluster_rmsd>  (32) 
0.15

>  <cluster>  (32) 
7

$$$$

     RDKit          3D

 56 59  0  0  0  0  0  0  0  0999 V2000
  138.6090   72.2350  222.4630 O   0  0  0  0  0  0  0  0  0  0  0  0
  139.6780   71.6640  222.7930 C   0  0  0  0  0  0  0  0  0  0  0  0
  140.8840   71.9050  222.0780 N   0  0  0  0  0  0  0  0  0  0  0  0
  140.9290   72.8080  220.9570 C   0  0  0  0  0  0  0  0  0  0  0  0
  141.8220   73.9710  221.1950 C   0  0  0  0  0  0  0  0  0  0  0  0
  141.4090   74.8830  221.9230 O   0  0  0  0  0  0  0  0  0  0  0  0
  143.0950   73.9430  220.5590 N   0  0  0  0  0  0  0  0  0  0  0  0
  143.9920   72.8210  220.3410 C   0  0  0  0  0  0  0  0  0  0  0  0
  144.5420   73.1120  218.9490 C   0  0  2  0  0  0  0  0  0  0  0  0
  145.9230   73.1730  218.9330 O   0  0  0  0  0  0  0  0  0  0  0  0
  144.0300   74.5080  218.5780 C   0  0  0  0  0  0  0  0  0  0  0  0
  143.8170   75.0890  219.9590 C   0  0  1  0  0  0  0  0  0  0  0  0
  142.9860   76.3170  219.9580 C   0  0  0  0  0  0  0  0  0  0  0  0
  141.7580   76.0800  219.3780 O   0  0  0  0  0  0  0  0  0  0  0  0
  140.7380   76.9290  219.7320 C   0  0  0  0  0  0  0  0  0  0  0  0
  141.2050   77.9590  220.7320 C   0  0  0  0  0  0  0  0  0  0  0  0
  141.7720   79.1510  220.3270 C   0  0  0  0  0  0  0  0  0  0  0  0
  142.1670   80.0270  221.3000 C   0  0  0  0  0  0  0  0  0  0  0  0
  142.0310   79.7860  222.6550 C   0  0  0  0  0  0  0  0  0  0  0  0
  142.5610   80.9560  223.8500 Cl  0  0  0  0  0  0  0  0  0  0  0  0
  141.4630   78.5900  223.0500 C   0  0  0  0  0  0  0  0  0  0  0  0
  141.0490   77.6740  222.0900 C   0  0  0  0  0  0  0  0  0  0  0  0
  139.7200   70.7300  223.9230 C   0  0  0  0  0  0  0  0  0  0  0  0
  139.1470   69.4840  223.8580 C   0  0  0  0  0  0  0  0  0  0  0  0
  139.1910   68.6040  224.9360 C   0  0  0  0  0  0  0  0  0  0  0  0
  139.8260   68.9950  226.1000 C   0  0  0  0  0  0  0  0  0  0  0  0
  139.9040   68.1630  227.2130 C   0  0  0  0  0  0  0  0  0  0  0  0
  140.5460   68.6030  228.3400 C   0  0  0  0  0  0  0  0  0  0  0  0
  140.6470   67.8180  229.4570 F   0  0  0  0  0  0  0  0  0  0  0  0
  141.1050   69.8590  228.3600 C   0  0  0  0  0  0  0  0  0  0  0  0
  141.0480   70.7150  227.2760 C   0  0  0  0  0  0  0  0  0  0  0  0
  140.3960   70.2480  226.1520 C   0  0  0  0  0  0  0  0  0  0  0  0
  140.3270   71.0600  225.0850 N   0  0  0  0  0  0  0  0  0  0  0  0
  141.7630   71.3980  222.3960 H   0  0  0  0  0  0  0  0  0  0  0  0
  141.2935   72.2585  220.0765 H   0  0  0  0  0  0  0  0  0  0  0  0
  139.9116   73.1960  220.8010 H   0  0  0  0  0  0  0  0  0  0  0  0
  144.7961   72.8020  221.0913 H   0  0  0  0  0  0  0  0  0  0  0  0
  143.5003   71.8406  220.4247 H   0  0  0  0  0  0  0  0  0  0  0  0
  144.2246   72.3145  218.2610 H   0  0  0  0  0  0  0  0  0  0  0  0
  146.2970   74.0810  218.9330 H   0  0  0  0  0  0  0  0  0  0  0  0
  144.7776   75.0779  218.0068 H   0  0  0  0  0  0  0  0  0  0  0  0
  143.1407   74.5170  217.9307 H   0  0  0  0  0  0  0  0  0  0  0  0
  144.7318   75.4211  220.4716 H   0  0  0  0  0  0  0  0  0  0  0  0
  142.8359   76.6510  220.9952 H   0  0  0  0  0  0  0  0  0  0  0  0
  143.5056   77.0923  219.3759 H   0  0  0  0  0  0  0  0  0  0  0  0
  140.3714   77.4439  218.8317 H   0  0  0  0  0  0  0  0  0  0  0  0
  139.9357   76.3349  220.1939 H   0  0  0  0  0  0  0  0  0  0  0  0
  141.9013   79.3874  219.2605 H   0  0  0  0  0  0  0  0  0  0  0  0
  142.6195   80.9793  220.9865 H   0  0  0  0  0  0  0  0  0  0  0  0
  141.3390   78.3638  224.1193 H   0  0  0  0  0  0  0  0  0  0  0  0
  140.5967   76.7208  222.4013 H   0  0  0  0  0  0  0  0  0  0  0  0
  138.6410   69.1735  222.9319 H   0  0  0  0  0  0  0  0  0  0  0  0
  138.7261   67.6098  224.8624 H   0  0  0  0  0  0  0  0  0  0  0  0
  139.4535   67.1598  227.1877 H   0  0  0  0  0  0  0  0  0  0  0  0
  141.6171   70.1956  229.2735 H   0  0  0  0  0  0  0  0  0  0  0  0
  141.4993   71.7177  227.3073 H   0  0  0  0  0  0  0  0  0  0  0  0
  1  2  2  0
  2  3  1  0
  3  4  1  0
  4  5  1  0
  5  6  2  0
  5  7  1  0
  7  8  1  0
  8  9  1  0
  9 10  1  0
  9 11  1  0
 11 12  1  0
 12 13  1  0
 13 14  1  0
 14 15  1  0
 15 16  1  0
 16 17  2  0
 17 18  1  0
 18 19  2  0
 19 20  1  0
 19 21  1  0
 21 22  2  0
  2 23  1  0
 23 24  2  0
 24 25  1  0
 25 26  2  0
 26 27  1  0
 27 28  2  0
 28 29  1  0
 28 30  1  0
 30 31  2  0
 31 32  1  0
 32 33  2  0
 12  7  1  0
 22 16  1  0
 33 23  1  0
 32 26  1  0
  3 34  1  0
  4 35  1  0
  4 36  1  0
  8 37  1  0
  8 38  1  0
  9 39  1  6
 10 40  1  0
 11 41  1  0
 11 42  1  0
 12 43  1  1
 13 44  1  0
 13 45  1  0
 15 46  1  0
 15 47  1  0
 17 48  1  0
 18 49  1  0
 21 50  1  0
 22 51  1  0
 24 52  1  0
 25 53  1  0
 27 54  1  0
 30 55  1  0
 31 56  1  0
M  END
>  <smiles>  (33) 
O=C(NCC(=O)N1C[C@H](O)C[C@H]1COCc1ccc(Cl)cc1)c1ccc2cc(F)ccc2n1

>  <score_type>  (33) 
oracle

>  <origin>  (33) 
autodockgpu

>  <m_score__min__energy>  (33) 
-9.4600000000000009

>  <m_primary>  (33) 
energy

>  <rmsd>  (33) 
3.012489087580486

>  <m_score__min__rmsd>  (33) 
3.012489087580486

>  <meeko>  (33) 
{"free_energy": -9.31, "intermolecular_energy": -11.99, "internal_energy": -1.4, "cluster_size": 20, "cluster_id": 1, "rank_in_cluster": 3}

>  <energy>  (33) 
-7.13

>  <cluster_rmsd>  (33) 
1.23

>  <cluster>  (33) 
7

$$$$

     RDKit          3D

 56 59  0  0  0  0  0  0  0  0999 V2000
  139.9180   73.7040  222.6850 O   0  0  0  0  0  0  0  0  0  0  0  0
  140.2650   72.5040  222.5470 C   0  0  0  0  0  0  0  0  0  0  0  0
  140.8050   72.0390  221.3160 N   0  0  0  0  0  0  0  0  0  0  0  0
  140.9760   72.9150  220.1870 C   0  0  0  0  0  0  0  0  0  0  0  0
  141.9270   72.3740  219.1820 C   0  0  0  0  0  0  0  0  0  0  0  0
  141.5120   71.5230  218.3860 O   0  0  0  0  0  0  0  0  0  0  0  0
  143.2550   72.8850  219.2170 N   0  0  0  0  0  0  0  0  0  0  0  0
  144.4600   72.2810  219.7590 C   0  0  0  0  0  0  0  0  0  0  0  0
  145.5160   72.6930  218.7380 C   0  0  2  0  0  0  0  0  0  0  0  0
  146.5700   73.3750  219.3200 O   0  0  0  0  0  0  0  0  0  0  0  0
  144.8220   73.6740  217.7880 C   0  0  0  0  0  0  0  0  0  0  0  0
  143.7230   74.1880  218.6920 C   0  0  1  0  0  0  0  0  0  0  0  0
  142.6460   74.9000  217.9620 C   0  0  0  0  0  0  0  0  0  0  0  0
  142.7030   76.2570  218.2020 O   0  0  0  0  0  0  0  0  0  0  0  0
  143.2080   76.6450  219.4180 C   0  0  0  0  0  0  0  0  0  0  0  0
  142.1090   77.1060  220.3450 C   0  0  0  0  0  0  0  0  0  0  0  0
  141.4060   76.2140  221.1290 C   0  0  0  0  0  0  0  0  0  0  0  0
  140.4270   76.7170  221.9400 C   0  0  0  0  0  0  0  0  0  0  0  0
  140.1060   78.0610  222.0170 C   0  0  0  0  0  0  0  0  0  0  0  0
  138.8360   78.6390  223.0800 Cl  0  0  0  0  0  0  0  0  0  0  0  0
  140.8150   78.9460  221.2280 C   0  0  0  0  0  0  0  0  0  0  0  0
  141.8180   78.4720  220.3900 C   0  0  0  0  0  0  0  0  0  0  0  0
  140.1240   71.5440  223.6480 C   0  0  0  0  0  0  0  0  0  0  0  0
  139.4840   70.3410  223.4860 C   0  0  0  0  0  0  0  0  0  0  0  0
  139.3550   69.4360  224.5370 C   0  0  0  0  0  0  0  0  0  0  0  0
  139.8850   69.7580  225.7720 C   0  0  0  0  0  0  0  0  0  0  0  0
  139.7900   68.8980  226.8620 C   0  0  0  0  0  0  0  0  0  0  0  0
  140.3340   69.2680  228.0630 C   0  0  0  0  0  0  0  0  0  0  0  0
  140.2640   68.4530  229.1610 F   0  0  0  0  0  0  0  0  0  0  0  0
  140.9660   70.4840  228.1790 C   0  0  0  0  0  0  0  0  0  0  0  0
  141.0810   71.3650  227.1210 C   0  0  0  0  0  0  0  0  0  0  0  0
  140.5250   70.9690  225.9210 C   0  0  0  0  0  0  0  0  0  0  0  0
  140.6230   71.8070  224.8770 N   0  0  0  0  0  0  0  0  0  0  0  0
  141.0840   71.0140  221.2490 H   0  0  0  0  0  0  0  0  0  0  0  0
  139.9987   73.0616  219.7038 H   0  0  0  0  0  0  0  0  0  0  0  0
  141.3905   73.8628  220.5610 H   0  0  0  0  0  0  0  0  0  0  0  0
  144.6926   72.6815  220.7567 H   0  0  0  0  0  0  0  0  0  0  0  0
  144.3831   71.1927  219.8993 H   0  0  0  0  0  0  0  0  0  0  0  0
  145.9160   71.7929  218.2483 H   0  0  0  0  0  0  0  0  0  0  0  0
  146.4670   74.3500  219.3450 H   0  0  0  0  0  0  0  0  0  0  0  0
  145.4986   74.4808  217.4696 H   0  0  0  0  0  0  0  0  0  0  0  0
  144.4738   73.2331  216.8423 H   0  0  0  0  0  0  0  0  0  0  0  0
  144.0419   74.9347  219.4341 H   0  0  0  0  0  0  0  0  0  0  0  0
  142.7621   74.7198  216.8831 H   0  0  0  0  0  0  0  0  0  0  0  0
  141.6743   74.5216  218.3122 H   0  0  0  0  0  0  0  0  0  0  0  0
  143.7308   75.7932  219.8774 H   0  0  0  0  0  0  0  0  0  0  0  0
  143.9005   77.4840  219.2553 H   0  0  0  0  0  0  0  0  0  0  0  0
  141.6256   75.1365  221.1023 H   0  0  0  0  0  0  0  0  0  0  0  0
  139.8616   76.0125  222.5678 H   0  0  0  0  0  0  0  0  0  0  0  0
  140.5869   80.0215  221.2626 H   0  0  0  0  0  0  0  0  0  0  0  0
  142.3841   79.1743  219.7606 H   0  0  0  0  0  0  0  0  0  0  0  0
  139.0627   70.0852  222.5026 H   0  0  0  0  0  0  0  0  0  0  0  0
  138.8377   68.4770  224.3858 H   0  0  0  0  0  0  0  0  0  0  0  0
  139.2815   67.9280  226.7596 H   0  0  0  0  0  0  0  0  0  0  0  0
  141.3964   70.7659  229.1513 H   0  0  0  0  0  0  0  0  0  0  0  0
  141.5903   72.3339  227.2294 H   0  0  0  0  0  0  0  0  0  0  0  0
  1  2  2  0
  2  3  1  0
  3  4  1  0
  4  5  1  0
  5  6  2  0
  5  7  1  0
  7  8  1  0
  8  9  1  0
  9 10  1  0
  9 11  1  0
 11 12  1  0
 12 13  1  0
 13 14  1  0
 14 15  1  0
 15 16  1  0
 16 17  2  0
 17 18  1  0
 18 19  2  0
 19 20  1  0
 19 21  1  0
 21 22  2  0
  2 23  1  0
 23 24  2  0
 24 25  1  0
 25 26  2  0
 26 27  1  0
 27 28  2  0
 28 29  1  0
 28 30  1  0
 30 31  2  0
 31 32  1  0
 32 33  2  0
 12  7  1  0
 22 16  1  0
 33 23  1  0
 32 26  1  0
  3 34  1  0
  4 35  1  0
  4 36  1  0
  8 37  1  0
  8 38  1  0
  9 39  1  6
 10 40  1  0
 11 41  1  0
 11 42  1  0
 12 43  1  1
 13 44  1  0
 13 45  1  0
 15 46  1  0
 15 47  1  0
 17 48  1  0
 18 49  1  0
 21 50  1  0
 22 51  1  0
 24 52  1  0
 25 53  1  0
 27 54  1  0
 30 55  1  0
 31 56  1  0
M  END
>  <smiles>  (34) 
O=C(NCC(=O)N1C[C@H](O)C[C@H]1COCc1ccc(Cl)cc1)c1ccc2cc(F)ccc2n1

>  <score_type>  (34) 
oracle

>  <origin>  (34) 
autodockgpu

>  <m_score__min__energy>  (34) 
-9.4600000000000009

>  <m_primary>  (34) 
energy

>  <rmsd>  (34) 
3.646274315130037

>  <m_score__min__rmsd>  (34) 
3.646274315130037

>  <meeko>  (34) 
{"free_energy": -8.04, "intermolecular_energy": -10.73, "internal_energy": -1.78, "cluster_size": 20, "cluster_id": 1, "rank_in_cluster": 15}

>  <energy>  (34) 
-7.19

>  <cluster_rmsd>  (34) 
0.0

>  <cluster>  (34) 
8

$$$$

     RDKit          3D

 56 59  0  0  0  0  0  0  0  0999 V2000
  139.9470   73.7280  222.5920 O   0  0  0  0  0  0  0  0  0  0  0  0
  140.1350   72.5000  222.4080 C   0  0  0  0  0  0  0  0  0  0  0  0
  140.3890   71.9880  221.1050 N   0  0  0  0  0  0  0  0  0  0  0  0
  140.4400   72.8500  219.9530 C   0  0  0  0  0  0  0  0  0  0  0  0
  141.7710   72.8420  219.2930 C   0  0  0  0  0  0  0  0  0  0  0  0
  141.8170   72.6140  218.0770 O   0  0  0  0  0  0  0  0  0  0  0  0
  142.8990   73.1010  220.1210 N   0  0  0  0  0  0  0  0  0  0  0  0
  143.7390   72.1680  220.8520 C   0  0  0  0  0  0  0  0  0  0  0  0
  145.1270   72.7740  220.6760 C   0  0  2  0  0  0  0  0  0  0  0  0
  145.7470   73.0240  221.8870 O   0  0  0  0  0  0  0  0  0  0  0  0
  144.9090   74.1320  219.9990 C   0  0  0  0  0  0  0  0  0  0  0  0
  143.4890   74.4220  220.4350 C   0  0  1  0  0  0  0  0  0  0  0  0
  142.8460   75.5070  219.6560 C   0  0  0  0  0  0  0  0  0  0  0  0
  142.2380   76.4200  220.4910 O   0  0  0  0  0  0  0  0  0  0  0  0
  141.1970   75.9540  221.2560 C   0  0  0  0  0  0  0  0  0  0  0  0
  140.5120   77.0810  221.9930 C   0  0  0  0  0  0  0  0  0  0  0  0
  139.1470   77.0870  222.1910 C   0  0  0  0  0  0  0  0  0  0  0  0
  138.6100   78.1460  222.8690 C   0  0  0  0  0  0  0  0  0  0  0  0
  139.3550   79.2030  223.3620 C   0  0  0  0  0  0  0  0  0  0  0  0
  138.6000   80.5310  224.2240 Cl  0  0  0  0  0  0  0  0  0  0  0  0
  140.7220   79.1880  223.1580 C   0  0  0  0  0  0  0  0  0  0  0  0
  141.3040   78.1270  222.4730 C   0  0  0  0  0  0  0  0  0  0  0  0
  140.1000   71.5530  223.5280 C   0  0  0  0  0  0  0  0  0  0  0  0
  139.5840   70.2870  223.3940 C   0  0  0  0  0  0  0  0  0  0  0  0
  139.5550   69.3950  224.4630 C   0  0  0  0  0  0  0  0  0  0  0  0
  140.0560   69.7930  225.6880 C   0  0  0  0  0  0  0  0  0  0  0  0
  140.0560   68.9500  226.7940 C   0  0  0  0  0  0  0  0  0  0  0  0
  140.5660   69.3970  227.9840 C   0  0  0  0  0  0  0  0  0  0  0  0
  140.5870   68.6010  229.0980 F   0  0  0  0  0  0  0  0  0  0  0  0
  141.0720   70.6730  228.0720 C   0  0  0  0  0  0  0  0  0  0  0  0
  141.0910   71.5410  226.9960 C   0  0  0  0  0  0  0  0  0  0  0  0
  140.5710   71.0660  225.8080 C   0  0  0  0  0  0  0  0  0  0  0  0
  140.5770   71.8890  224.7480 N   0  0  0  0  0  0  0  0  0  0  0  0
  140.5420   70.9410  221.0010 H   0  0  0  0  0  0  0  0  0  0  0  0
  139.6848   72.5137  219.2274 H   0  0  0  0  0  0  0  0  0  0  0  0
  140.2438   73.8767  220.2957 H   0  0  0  0  0  0  0  0  0  0  0  0
  143.4552   72.1241  221.9139 H   0  0  0  0  0  0  0  0  0  0  0  0
  143.6622   71.1312  220.4925 H   0  0  0  0  0  0  0  0  0  0  0  0
  145.7566   72.0768  220.1037 H   0  0  0  0  0  0  0  0  0  0  0  0
  145.9680   72.2240  222.4110 H   0  0  0  0  0  0  0  0  0  0  0  0
  145.6128   74.8909  220.3715 H   0  0  0  0  0  0  0  0  0  0  0  0
  145.0681   74.1365  218.9106 H   0  0  0  0  0  0  0  0  0  0  0  0
  143.3820   74.7774  221.4705 H   0  0  0  0  0  0  0  0  0  0  0  0
  143.6112   76.0216  219.0563 H   0  0  0  0  0  0  0  0  0  0  0  0
  142.0795   75.0636  219.0035 H   0  0  0  0  0  0  0  0  0  0  0  0
  140.4658   75.4566  220.6018 H   0  0  0  0  0  0  0  0  0  0  0  0
  141.5989   75.2474  221.9970 H   0  0  0  0  0  0  0  0  0  0  0  0
  138.5133   76.2694  221.8170 H   0  0  0  0  0  0  0  0  0  0  0  0
  137.5222   78.1586  223.0321 H   0  0  0  0  0  0  0  0  0  0  0  0
  141.3463   80.0112  223.5356 H   0  0  0  0  0  0  0  0  0  0  0  0
  142.3915   78.1112  222.3086 H   0  0  0  0  0  0  0  0  0  0  0  0
  139.1843   69.9704  222.4193 H   0  0  0  0  0  0  0  0  0  0  0  0
  139.1381   68.3853  224.3339 H   0  0  0  0  0  0  0  0  0  0  0  0
  139.6492   67.9311  226.7137 H   0  0  0  0  0  0  0  0  0  0  0  0
  141.4771   71.0160  229.0355 H   0  0  0  0  0  0  0  0  0  0  0  0
  141.4997   72.5586  227.0818 H   0  0  0  0  0  0  0  0  0  0  0  0
  1  2  2  0
  2  3  1  0
  3  4  1  0
  4  5  1  0
  5  6  2  0
  5  7  1  0
  7  8  1  0
  8  9  1  0
  9 10  1  0
  9 11  1  0
 11 12  1  0
 12 13  1  0
 13 14  1  0
 14 15  1  0
 15 16  1  0
 16 17  2  0
 17 18  1  0
 18 19  2  0
 19 20  1  0
 19 21  1  0
 21 22  2  0
  2 23  1  0
 23 24  2  0
 24 25  1  0
 25 26  2  0
 26 27  1  0
 27 28  2  0
 28 29  1  0
 28 30  1  0
 30 31  2  0
 31 32  1  0
 32 33  2  0
 12  7  1  0
 22 16  1  0
 33 23  1  0
 32 26  1  0
  3 34  1  0
  4 35  1  0
  4 36  1  0
  8 37  1  0
  8 38  1  0
  9 39  1  6
 10 40  1  0
 11 41  1  0
 11 42  1  0
 12 43  1  1
 13 44  1  0
 13 45  1  0
 15 46  1  0
 15 47  1  0
 17 48  1  0
 18 49  1  0
 21 50  1  0
 22 51  1  0
 24 52  1  0
 25 53  1  0
 27 54  1  0
 30 55  1  0
 31 56  1  0
M  END
>  <smiles>  (35) 
O=C(NCC(=O)N1C[C@H](O)C[C@H]1COCc1ccc(Cl)cc1)c1ccc2cc(F)ccc2n1

>  <score_type>  (35) 
oracle

>  <origin>  (35) 
autodockgpu

>  <m_score__min__energy>  (35) 
-9.4600000000000009

>  <m_primary>  (35) 
energy

>  <rmsd>  (35) 
3.496509305631276

>  <m_score__min__rmsd>  (35) 
3.496509305631276

>  <meeko>  (35) 
{"free_energy": -8.69, "intermolecular_energy": -11.37, "internal_energy": -1.8, "cluster_size": 20, "cluster_id": 1, "rank_in_cluster": 5}

>  <energy>  (35) 
-6.98

>  <cluster_rmsd>  (35) 
0.0

>  <cluster>  (35) 
9

$$$$

     RDKit          3D

 56 59  0  0  0  0  0  0  0  0999 V2000
  140.7590   71.5820  221.1360 O   0  0  0  0  0  0  0  0  0  0  0  0
  140.3000   72.0210  222.2200 C   0  0  0  0  0  0  0  0  0  0  0  0
  139.8990   73.3810  222.3440 N   0  0  0  0  0  0  0  0  0  0  0  0
  140.0020   74.3010  221.2420 C   0  0  0  0  0  0  0  0  0  0  0  0
  139.7780   75.7120  221.6530 C   0  0  0  0  0  0  0  0  0  0  0  0
  139.0630   75.9240  222.6400 O   0  0  0  0  0  0  0  0  0  0  0  0
  140.4100   76.7160  220.8680 N   0  0  0  0  0  0  0  0  0  0  0  0
  141.8220   76.9090  220.5820 C   0  0  0  0  0  0  0  0  0  0  0  0
  141.7990   77.3540  219.1230 C   0  0  2  0  0  0  0  0  0  0  0  0
  142.4260   78.5730  218.9370 O   0  0  0  0  0  0  0  0  0  0  0  0
  140.3210   77.5550  218.7690 C   0  0  0  0  0  0  0  0  0  0  0  0
  139.7520   77.8280  220.1440 C   0  0  1  0  0  0  0  0  0  0  0  0
  138.2740   77.7160  220.2010 C   0  0  0  0  0  0  0  0  0  0  0  0
  137.8080   77.9890  221.4690 O   0  0  0  0  0  0  0  0  0  0  0  0
  137.8220   79.3060  221.8580 C   0  0  0  0  0  0  0  0  0  0  0  0
  139.1950   79.7230  222.3280 C   0  0  0  0  0  0  0  0  0  0  0  0
  139.8500   80.8020  221.7720 C   0  0  0  0  0  0  0  0  0  0  0  0
  141.0910   81.1100  222.2580 C   0  0  0  0  0  0  0  0  0  0  0  0
  141.7180   80.4050  223.2700 C   0  0  0  0  0  0  0  0  0  0  0  0
  143.3130   80.8560  223.8460 Cl  0  0  0  0  0  0  0  0  0  0  0  0
  141.0540   79.3260  223.8210 C   0  0  0  0  0  0  0  0  0  0  0  0
  139.7910   78.9820  223.3520 C   0  0  0  0  0  0  0  0  0  0  0  0
  140.1620   71.1500  223.3920 C   0  0  0  0  0  0  0  0  0  0  0  0
  139.5620   69.9170  223.3150 C   0  0  0  0  0  0  0  0  0  0  0  0
  139.4350   69.0970  224.4330 C   0  0  0  0  0  0  0  0  0  0  0  0
  139.9240   69.5340  225.6490 C   0  0  0  0  0  0  0  0  0  0  0  0
  139.8280   68.7630  226.8030 C   0  0  0  0  0  0  0  0  0  0  0  0
  140.3300   69.2470  227.9820 C   0  0  0  0  0  0  0  0  0  0  0  0
  140.2580   68.5210  229.1410 F   0  0  0  0  0  0  0  0  0  0  0  0
  140.9220   70.4870  228.0130 C   0  0  0  0  0  0  0  0  0  0  0  0
  141.0370   71.2840  226.8890 C   0  0  0  0  0  0  0  0  0  0  0  0
  140.5230   70.7730  225.7130 C   0  0  0  0  0  0  0  0  0  0  0  0
  140.6210   71.5270  224.6070 N   0  0  0  0  0  0  0  0  0  0  0  0
  139.5170   73.7050  223.2820 H   0  0  0  0  0  0  0  0  0  0  0  0
  141.0081   74.2166  220.8054 H   0  0  0  0  0  0  0  0  0  0  0  0
  139.2206   74.0378  220.5139 H   0  0  0  0  0  0  0  0  0  0  0  0
  142.2572   77.6852  221.2286 H   0  0  0  0  0  0  0  0  0  0  0  0
  142.4345   76.0128  220.7601 H   0  0  0  0  0  0  0  0  0  0  0  0
  142.3156   76.6031  218.5071 H   0  0  0  0  0  0  0  0  0  0  0  0
  143.4060   78.5340  218.9110 H   0  0  0  0  0  0  0  0  0  0  0  0
  140.1768   78.4093  218.0913 H   0  0  0  0  0  0  0  0  0  0  0  0
  139.8554   76.7133  218.2354 H   0  0  0  0  0  0  0  0  0  0  0  0
  139.9295   78.8431  220.5288 H   0  0  0  0  0  0  0  0  0  0  0  0
  137.8311   78.4318  219.4928 H   0  0  0  0  0  0  0  0  0  0  0  0
  137.9894   76.6870  219.9363 H   0  0  0  0  0  0  0  0  0  0  0  0
  137.5287   79.9351  221.0047 H   0  0  0  0  0  0  0  0  0  0  0  0
  137.1162   79.4298  222.6925 H   0  0  0  0  0  0  0  0  0  0  0  0
  139.3908   81.3938  220.9665 H   0  0  0  0  0  0  0  0  0  0  0  0
  141.6212   81.9679  221.8188 H   0  0  0  0  0  0  0  0  0  0  0  0
  141.5223   78.7418  224.6269 H   0  0  0  0  0  0  0  0  0  0  0  0
  139.2592   78.1237  223.7885 H   0  0  0  0  0  0  0  0  0  0  0  0
  139.1725   69.5690  222.3469 H   0  0  0  0  0  0  0  0  0  0  0  0
  138.9510   68.1128  224.3491 H   0  0  0  0  0  0  0  0  0  0  0  0
  139.3524   67.7717  226.7689 H   0  0  0  0  0  0  0  0  0  0  0  0
  141.3195   70.8596  228.9686 H   0  0  0  0  0  0  0  0  0  0  0  0
  141.5136   72.2746  226.9292 H   0  0  0  0  0  0  0  0  0  0  0  0
  1  2  2  0
  2  3  1  0
  3  4  1  0
  4  5  1  0
  5  6  2  0
  5  7  1  0
  7  8  1  0
  8  9  1  0
  9 10  1  0
  9 11  1  0
 11 12  1  0
 12 13  1  0
 13 14  1  0
 14 15  1  0
 15 16  1  0
 16 17  2  0
 17 18  1  0
 18 19  2  0
 19 20  1  0
 19 21  1  0
 21 22  2  0
  2 23  1  0
 23 24  2  0
 24 25  1  0
 25 26  2  0
 26 27  1  0
 27 28  2  0
 28 29  1  0
 28 30  1  0
 30 31  2  0
 31 32  1  0
 32 33  2  0
 12  7  1  0
 22 16  1  0
 33 23  1  0
 32 26  1  0
  3 34  1  0
  4 35  1  0
  4 36  1  0
  8 37  1  0
  8 38  1  0
  9 39  1  6
 10 40  1  0
 11 41  1  0
 11 42  1  0
 12 43  1  1
 13 44  1  0
 13 45  1  0
 15 46  1  0
 15 47  1  0
 17 48  1  0
 18 49  1  0
 21 50  1  0
 22 51  1  0
 24 52  1  0
 25 53  1  0
 27 54  1  0
 30 55  1  0
 31 56  1  0
M  END
>  <smiles>  (36) 
O=C(NCC(=O)N1C[C@H](O)C[C@H]1COCc1ccc(Cl)cc1)c1ccc2cc(F)ccc2n1

>  <score_type>  (36) 
oracle

>  <origin>  (36) 
autodockgpu

>  <m_score__min__energy>  (36) 
-9.4600000000000009

>  <m_primary>  (36) 
energy

>  <rmsd>  (36) 
1.9800725036869753

>  <m_score__min__rmsd>  (36) 
1.9800725036869753

>  <meeko>  (36) 
{"free_energy": -7.89, "intermolecular_energy": -10.57, "internal_energy": -2.32, "cluster_size": 3, "cluster_id": 2, "rank_in_cluster": 3}

>  <energy>  (36) 
-6.95

>  <cluster_rmsd>  (36) 
0.13

>  <cluster>  (36) 
9

$$$$

     RDKit          3D

 56 59  0  0  0  0  0  0  0  0999 V2000
  139.5930   70.3880  221.4260 O   0  0  0  0  0  0  0  0  0  0  0  0
  139.6040   71.2730  222.3180 C   0  0  0  0  0  0  0  0  0  0  0  0
  139.2640   72.6210  222.0130 N   0  0  0  0  0  0  0  0  0  0  0  0
  138.8980   73.0230  220.6800 C   0  0  0  0  0  0  0  0  0  0  0  0
  140.0570   73.0500  219.7520 C   0  0  0  0  0  0  0  0  0  0  0  0
  139.8320   72.9930  218.5370 O   0  0  0  0  0  0  0  0  0  0  0  0
  141.3490   73.1390  220.3420 N   0  0  0  0  0  0  0  0  0  0  0  0
  142.3920   72.1310  220.4340 C   0  0  0  0  0  0  0  0  0  0  0  0
  143.6570   72.9530  220.2120 C   0  0  2  0  0  0  0  0  0  0  0  0
  144.5600   72.8170  221.2520 O   0  0  0  0  0  0  0  0  0  0  0  0
  143.2100   74.4180  220.2010 C   0  0  0  0  0  0  0  0  0  0  0  0
  141.9410   74.3160  221.0190 C   0  0  1  0  0  0  0  0  0  0  0  0
  141.0680   75.5090  220.9010 C   0  0  0  0  0  0  0  0  0  0  0  0
  139.8800   75.3190  221.5750 O   0  0  0  0  0  0  0  0  0  0  0  0
  139.6870   76.0770  222.7040 C   0  0  0  0  0  0  0  0  0  0  0  0
  140.1890   77.4870  222.5080 C   0  0  0  0  0  0  0  0  0  0  0  0
  139.4980   78.3960  221.7330 C   0  0  0  0  0  0  0  0  0  0  0  0
  140.0240   79.6530  221.6090 C   0  0  0  0  0  0  0  0  0  0  0  0
  141.2010   80.0580  222.2140 C   0  0  0  0  0  0  0  0  0  0  0  0
  141.8190   81.6870  222.0130 Cl  0  0  0  0  0  0  0  0  0  0  0  0
  141.8850   79.1400  222.9880 C   0  0  0  0  0  0  0  0  0  0  0  0
  141.3810   77.8530  223.1370 C   0  0  0  0  0  0  0  0  0  0  0  0
  139.9650   70.9480  223.7020 C   0  0  0  0  0  0  0  0  0  0  0  0
  140.6220   71.8420  224.5110 C   0  0  0  0  0  0  0  0  0  0  0  0
  140.9610   71.5240  225.8240 C   0  0  0  0  0  0  0  0  0  0  0  0
  140.6300   70.2790  226.3240 C   0  0  0  0  0  0  0  0  0  0  0  0
  140.9410   69.9000  227.6260 C   0  0  0  0  0  0  0  0  0  0  0  0
  140.5880   68.6530  228.0690 C   0  0  0  0  0  0  0  0  0  0  0  0
  140.8730   68.2390  229.3420 F   0  0  0  0  0  0  0  0  0  0  0  0
  139.9310   67.7900  227.2230 C   0  0  0  0  0  0  0  0  0  0  0  0
  139.6040   68.1280  225.9230 C   0  0  0  0  0  0  0  0  0  0  0  0
  139.9710   69.3910  225.5010 C   0  0  0  0  0  0  0  0  0  0  0  0
  139.6660   69.7450  224.2430 N   0  0  0  0  0  0  0  0  0  0  0  0
  139.2880   73.3320  222.8030 H   0  0  0  0  0  0  0  0  0  0  0  0
  138.1519   72.3145  220.2909 H   0  0  0  0  0  0  0  0  0  0  0  0
  138.4955   74.0450  220.7394 H   0  0  0  0  0  0  0  0  0  0  0  0
  142.3968   71.6516  221.4240 H   0  0  0  0  0  0  0  0  0  0  0  0
  142.2714   71.3050  219.7176 H   0  0  0  0  0  0  0  0  0  0  0  0
  144.1458   72.6204  219.2844 H   0  0  0  0  0  0  0  0  0  0  0  0
  144.8500   71.8960  221.4300 H   0  0  0  0  0  0  0  0  0  0  0  0
  143.9519   75.0741  220.6798 H   0  0  0  0  0  0  0  0  0  0  0  0
  143.0799   74.8536  219.1993 H   0  0  0  0  0  0  0  0  0  0  0  0
  142.0921   74.2381  222.1058 H   0  0  0  0  0  0  0  0  0  0  0  0
  141.5884   76.3794  221.3271 H   0  0  0  0  0  0  0  0  0  0  0  0
  140.8450   75.6770  219.8370 H   0  0  0  0  0  0  0  0  0  0  0  0
  138.6122   76.1079  222.9358 H   0  0  0  0  0  0  0  0  0  0  0  0
  140.2495   75.6191  223.5310 H   0  0  0  0  0  0  0  0  0  0  0  0
  138.5580   78.1199  221.2329 H   0  0  0  0  0  0  0  0  0  0  0  0
  139.4799   80.3839  220.9928 H   0  0  0  0  0  0  0  0  0  0  0  0
  142.8241   79.4264  223.4840 H   0  0  0  0  0  0  0  0  0  0  0  0
  141.9231   77.1201  223.7526 H   0  0  0  0  0  0  0  0  0  0  0  0
  140.8868   72.8326  224.1128 H   0  0  0  0  0  0  0  0  0  0  0  0
  141.4862   72.2555  226.4557 H   0  0  0  0  0  0  0  0  0  0  0  0
  141.4668   70.5971  228.2951 H   0  0  0  0  0  0  0  0  0  0  0  0
  139.6551   66.7923  227.5953 H   0  0  0  0  0  0  0  0  0  0  0  0
  139.0782   67.4267  225.2584 H   0  0  0  0  0  0  0  0  0  0  0  0
  1  2  2  0
  2  3  1  0
  3  4  1  0
  4  5  1  0
  5  6  2  0
  5  7  1  0
  7  8  1  0
  8  9  1  0
  9 10  1  0
  9 11  1  0
 11 12  1  0
 12 13  1  0
 13 14  1  0
 14 15  1  0
 15 16  1  0
 16 17  2  0
 17 18  1  0
 18 19  2  0
 19 20  1  0
 19 21  1  0
 21 22  2  0
  2 23  1  0
 23 24  2  0
 24 25  1  0
 25 26  2  0
 26 27  1  0
 27 28  2  0
 28 29  1  0
 28 30  1  0
 30 31  2  0
 31 32  1  0
 32 33  2  0
 12  7  1  0
 22 16  1  0
 33 23  1  0
 32 26  1  0
  3 34  1  0
  4 35  1  0
  4 36  1  0
  8 37  1  0
  8 38  1  0
  9 39  1  6
 10 40  1  0
 11 41  1  0
 11 42  1  0
 12 43  1  1
 13 44  1  0
 13 45  1  0
 15 46  1  0
 15 47  1  0
 17 48  1  0
 18 49  1  0
 21 50  1  0
 22 51  1  0
 24 52  1  0
 25 53  1  0
 27 54  1  0
 30 55  1  0
 31 56  1  0
M  END
>  <smiles>  (37) 
O=C(NCC(=O)N1C[C@H](O)C[C@H]1COCc1ccc(Cl)cc1)c1ccc2cc(F)ccc2n1

>  <score_type>  (37) 
oracle

>  <origin>  (37) 
autodockgpu

>  <m_score__min__energy>  (37) 
-9.4600000000000009

>  <m_primary>  (37) 
energy

>  <rmsd>  (37) 
3.398753159864137

>  <m_score__min__rmsd>  (37) 
3.398753159864137

>  <meeko>  (37) 
{"free_energy": -7.7, "intermolecular_energy": -10.38, "internal_energy": -2.1, "cluster_size": 20, "cluster_id": 1, "rank_in_cluster": 17}

>  <energy>  (37) 
-6.83

>  <cluster_rmsd>  (37) 
1.78

>  <cluster>  (37) 
9

$$$$

     RDKit          3D

 56 59  0  0  0  0  0  0  0  0999 V2000
  138.1800   70.3780  221.7380 O   0  0  0  0  0  0  0  0  0  0  0  0
  138.7080   70.8920  222.7550 C   0  0  0  0  0  0  0  0  0  0  0  0
  138.9410   72.2940  222.8260 N   0  0  0  0  0  0  0  0  0  0  0  0
  138.5840   73.1740  221.7440 C   0  0  0  0  0  0  0  0  0  0  0  0
  139.0850   74.5580  221.9430 C   0  0  0  0  0  0  0  0  0  0  0  0
  140.2910   74.7140  222.1660 O   0  0  0  0  0  0  0  0  0  0  0  0
  138.1240   75.6050  221.8610 N   0  0  0  0  0  0  0  0  0  0  0  0
  137.1760   76.0670  222.8610 C   0  0  0  0  0  0  0  0  0  0  0  0
  137.1990   77.5780  222.6570 C   0  0  2  0  0  0  0  0  0  0  0  0
  135.9410   78.0910  222.4000 O   0  0  0  0  0  0  0  0  0  0  0  0
  138.0430   77.8190  221.4000 C   0  0  0  0  0  0  0  0  0  0  0  0
  137.8650   76.4880  220.7010 C   0  0  1  0  0  0  0  0  0  0  0  0
  138.8470   76.2610  219.6130 C   0  0  0  0  0  0  0  0  0  0  0  0
  139.8400   77.2170  219.6380 O   0  0  0  0  0  0  0  0  0  0  0  0
  140.9870   76.8930  220.3190 C   0  0  0  0  0  0  0  0  0  0  0  0
  141.3470   77.9620  221.3240 C   0  0  0  0  0  0  0  0  0  0  0  0
  141.2070   77.7530  222.6800 C   0  0  0  0  0  0  0  0  0  0  0  0
  141.5570   78.7740  223.5190 C   0  0  0  0  0  0  0  0  0  0  0  0
  142.0410   79.9960  223.0850 C   0  0  0  0  0  0  0  0  0  0  0  0
  142.4710   81.2640  224.2170 Cl  0  0  0  0  0  0  0  0  0  0  0  0
  142.1780   80.1960  221.7240 C   0  0  0  0  0  0  0  0  0  0  0  0
  141.8320   79.1800  220.8410 C   0  0  0  0  0  0  0  0  0  0  0  0
  139.1030   70.0670  223.9020 C   0  0  0  0  0  0  0  0  0  0  0  0
  138.8860   68.7120  223.9310 C   0  0  0  0  0  0  0  0  0  0  0  0
  139.2630   67.9360  225.0250 C   0  0  0  0  0  0  0  0  0  0  0  0
  139.8700   68.5470  226.1070 C   0  0  0  0  0  0  0  0  0  0  0  0
  140.2700   67.8290  227.2300 C   0  0  0  0  0  0  0  0  0  0  0  0
  140.8670   68.4860  228.2730 C   0  0  0  0  0  0  0  0  0  0  0  0
  141.2770   67.8190  229.3970 F   0  0  0  0  0  0  0  0  0  0  0  0
  141.0630   69.8450  228.2000 C   0  0  0  0  0  0  0  0  0  0  0  0
  140.6800   70.5930  227.1030 C   0  0  0  0  0  0  0  0  0  0  0  0
  140.0810   69.9080  226.0650 C   0  0  0  0  0  0  0  0  0  0  0  0
  139.6990   70.6110  224.9870 N   0  0  0  0  0  0  0  0  0  0  0  0
  139.3900   72.6820  223.7080 H   0  0  0  0  0  0  0  0  0  0  0  0
  139.0101   72.7760  220.8112 H   0  0  0  0  0  0  0  0  0  0  0  0
  137.4858   73.2206  221.7016 H   0  0  0  0  0  0  0  0  0  0  0  0
  136.1723   75.6556  222.6785 H   0  0  0  0  0  0  0  0  0  0  0  0
  137.4301   75.7569  223.8853 H   0  0  0  0  0  0  0  0  0  0  0  0
  137.5891   78.0601  223.5655 H   0  0  0  0  0  0  0  0  0  0  0  0
  135.6790   78.8470  222.9690 H   0  0  0  0  0  0  0  0  0  0  0  0
  137.6496   78.6514  220.7981 H   0  0  0  0  0  0  0  0  0  0  0  0
  139.0879   78.1038  221.5925 H   0  0  0  0  0  0  0  0  0  0  0  0
  136.9023   76.3571  220.1851 H   0  0  0  0  0  0  0  0  0  0  0  0
  139.3010   75.2671  219.7394 H   0  0  0  0  0  0  0  0  0  0  0  0
  138.3227   76.3246  218.6481 H   0  0  0  0  0  0  0  0  0  0  0  0
  140.8333   75.9408  220.8478 H   0  0  0  0  0  0  0  0  0  0  0  0
  141.8095   76.8060  219.5938 H   0  0  0  0  0  0  0  0  0  0  0  0
  140.8271   76.7983  223.0726 H   0  0  0  0  0  0  0  0  0  0  0  0
  141.4476   78.6152  224.6020 H   0  0  0  0  0  0  0  0  0  0  0  0
  142.5590   81.1545  221.3418 H   0  0  0  0  0  0  0  0  0  0  0  0
  141.9405   79.3355  219.7575 H   0  0  0  0  0  0  0  0  0  0  0  0
  138.4029   68.2271  223.0699 H   0  0  0  0  0  0  0  0  0  0  0  0
  139.0802   66.8513  225.0281 H   0  0  0  0  0  0  0  0  0  0  0  0
  140.1080   66.7421  227.2796 H   0  0  0  0  0  0  0  0  0  0  0  0
  141.5431   70.3564  229.0473 H   0  0  0  0  0  0  0  0  0  0  0  0
  140.8442   71.6798  227.0591 H   0  0  0  0  0  0  0  0  0  0  0  0
  1  2  2  0
  2  3  1  0
  3  4  1  0
  4  5  1  0
  5  6  2  0
  5  7  1  0
  7  8  1  0
  8  9  1  0
  9 10  1  0
  9 11  1  0
 11 12  1  0
 12 13  1  0
 13 14  1  0
 14 15  1  0
 15 16  1  0
 16 17  2  0
 17 18  1  0
 18 19  2  0
 19 20  1  0
 19 21  1  0
 21 22  2  0
  2 23  1  0
 23 24  2  0
 24 25  1  0
 25 26  2  0
 26 27  1  0
 27 28  2  0
 28 29  1  0
 28 30  1  0
 30 31  2  0
 31 32  1  0
 32 33  2  0
 12  7  1  0
 22 16  1  0
 33 23  1  0
 32 26  1  0
  3 34  1  0
  4 35  1  0
  4 36  1  0
  8 37  1  0
  8 38  1  0
  9 39  1  1
 10 40  1  0
 11 41  1  0
 11 42  1  0
 12 43  1  6
 13 44  1  0
 13 45  1  0
 15 46  1  0
 15 47  1  0
 17 48  1  0
 18 49  1  0
 21 50  1  0
 22 51  1  0
 24 52  1  0
 25 53  1  0
 27 54  1  0
 30 55  1  0
 31 56  1  0
M  END
>  <smiles>  (38) 
O=C(NCC(=O)N1C[C@H](O)C[C@H]1COCc1ccc(Cl)cc1)c1ccc2cc(F)ccc2n1

>  <score_type>  (38) 
oracle

>  <origin>  (38) 
autodockgpu

>  <m_score__min__energy>  (38) 
-9.4600000000000009

>  <m_primary>  (38) 
energy

>  <rmsd>  (38) 
2.8402439523528438

>  <m_score__min__rmsd>  (38) 
2.8402439523528438

>  <meeko>  (38) 
{"free_energy": -7.91, "intermolecular_energy": -10.59, "internal_energy": -2.18, "cluster_size": 2, "cluster_id": 5, "rank_in_cluster": 1}

>  <energy>  (38) 
-6.82

>  <cluster_rmsd>  (38) 
0.37

>  <cluster>  (38) 
9

$$$$

     RDKit          3D

 56 59  0  0  0  0  0  0  0  0999 V2000
  140.4370   71.2670  220.9990 O   0  0  0  0  0  0  0  0  0  0  0  0
  140.0570   71.7650  222.0880 C   0  0  0  0  0  0  0  0  0  0  0  0
  139.7220   73.1440  222.1820 N   0  0  0  0  0  0  0  0  0  0  0  0
  139.8040   74.0200  221.0430 C   0  0  0  0  0  0  0  0  0  0  0  0
  140.8070   75.1010  221.2220 C   0  0  0  0  0  0  0  0  0  0  0  0
  140.7810   75.7510  222.2740 O   0  0  0  0  0  0  0  0  0  0  0  0
  141.7300   75.3030  220.1570 N   0  0  0  0  0  0  0  0  0  0  0  0
  141.7720   76.3620  219.1640 C   0  0  0  0  0  0  0  0  0  0  0  0
  143.2690   76.6190  219.0280 C   0  0  2  0  0  0  0  0  0  0  0  0
  143.7070   76.4860  217.7230 O   0  0  0  0  0  0  0  0  0  0  0  0
  143.9590   75.5220  219.8440 C   0  0  0  0  0  0  0  0  0  0  0  0
  142.8900   74.4510  219.8100 C   0  0  1  0  0  0  0  0  0  0  0  0
  143.1000   73.3790  220.8120 C   0  0  0  0  0  0  0  0  0  0  0  0
  144.2400   72.6570  220.5300 O   0  0  0  0  0  0  0  0  0  0  0  0
  144.3980   72.2420  219.2300 C   0  0  0  0  0  0  0  0  0  0  0  0
  144.7310   70.7710  219.1630 C   0  0  0  0  0  0  0  0  0  0  0  0
  146.0000   70.3330  218.8440 C   0  0  0  0  0  0  0  0  0  0  0  0
  146.2130   68.9830  218.8060 C   0  0  0  0  0  0  0  0  0  0  0  0
  145.2340   68.0400  219.0670 C   0  0  0  0  0  0  0  0  0  0  0  0
  145.5780   66.3210  218.9990 Cl  0  0  0  0  0  0  0  0  0  0  0  0
  143.9670   68.4890  219.3840 C   0  0  0  0  0  0  0  0  0  0  0  0
  143.7120   69.8540  219.4330 C   0  0  0  0  0  0  0  0  0  0  0  0
  139.9460   70.9420  223.2980 C   0  0  0  0  0  0  0  0  0  0  0  0
  139.4120   69.6770  223.2700 C   0  0  0  0  0  0  0  0  0  0  0  0
  139.3110   68.9040  224.4240 C   0  0  0  0  0  0  0  0  0  0  0  0
  139.7570   69.4220  225.6250 C   0  0  0  0  0  0  0  0  0  0  0  0
  139.6830   68.7010  226.8120 C   0  0  0  0  0  0  0  0  0  0  0  0
  140.1410   69.2650  227.9740 C   0  0  0  0  0  0  0  0  0  0  0  0
  140.0880   68.5910  229.1650 F   0  0  0  0  0  0  0  0  0  0  0  0
  140.6670   70.5350  227.9540 C   0  0  0  0  0  0  0  0  0  0  0  0
  140.7580   71.2830  226.7960 C   0  0  0  0  0  0  0  0  0  0  0  0
  140.2900   70.6930  225.6380 C   0  0  0  0  0  0  0  0  0  0  0  0
  140.3660   71.3990  224.4990 N   0  0  0  0  0  0  0  0  0  0  0  0
  139.4050   73.5180  223.1260 H   0  0  0  0  0  0  0  0  0  0  0  0
  140.0818   73.4248  220.1606 H   0  0  0  0  0  0  0  0  0  0  0  0
  138.8204   74.4967  220.9191 H   0  0  0  0  0  0  0  0  0  0  0  0
  141.3361   76.0312  218.2098 H   0  0  0  0  0  0  0  0  0  0  0  0
  141.1952   77.2549  219.4469 H   0  0  0  0  0  0  0  0  0  0  0  0
  143.4926   77.6424  219.3635 H   0  0  0  0  0  0  0  0  0  0  0  0
  144.5930   76.0750  217.6240 H   0  0  0  0  0  0  0  0  0  0  0  0
  144.8902   75.1835  219.3663 H   0  0  0  0  0  0  0  0  0  0  0  0
  144.2752   75.8267  220.8525 H   0  0  0  0  0  0  0  0  0  0  0  0
  142.8250   73.8859  218.8685 H   0  0  0  0  0  0  0  0  0  0  0  0
  143.1988   73.8327  221.8092 H   0  0  0  0  0  0  0  0  0  0  0  0
  142.2369   72.6976  220.7830 H   0  0  0  0  0  0  0  0  0  0  0  0
  143.4633   72.4237  218.6793 H   0  0  0  0  0  0  0  0  0  0  0  0
  145.2283   72.8078  218.7823 H   0  0  0  0  0  0  0  0  0  0  0  0
  146.8109   71.0442  218.6281 H   0  0  0  0  0  0  0  0  0  0  0  0
  147.2219   68.6252  218.5531 H   0  0  0  0  0  0  0  0  0  0  0  0
  143.1631   67.7690  219.5968 H   0  0  0  0  0  0  0  0  0  0  0  0
  142.7037   70.2141  219.6854 H   0  0  0  0  0  0  0  0  0  0  0  0
  139.0559   69.2650  222.3143 H   0  0  0  0  0  0  0  0  0  0  0  0
  138.8810   67.8925  224.3800 H   0  0  0  0  0  0  0  0  0  0  0  0
  139.2600   67.6856  226.8181 H   0  0  0  0  0  0  0  0  0  0  0  0
  141.0293   70.9724  228.8960 H   0  0  0  0  0  0  0  0  0  0  0  0
  141.1821   72.2980  226.7962 H   0  0  0  0  0  0  0  0  0  0  0  0
  1  2  2  0
  2  3  1  0
  3  4  1  0
  4  5  1  0
  5  6  2  0
  5  7  1  0
  7  8  1  0
  8  9  1  0
  9 10  1  0
  9 11  1  0
 11 12  1  0
 12 13  1  0
 13 14  1  0
 14 15  1  0
 15 16  1  0
 16 17  2  0
 17 18  1  0
 18 19  2  0
 19 20  1  0
 19 21  1  0
 21 22  2  0
  2 23  1  0
 23 24  2  0
 24 25  1  0
 25 26  2  0
 26 27  1  0
 27 28  2  0
 28 29  1  0
 28 30  1  0
 30 31  2  0
 31 32  1  0
 32 33  2  0
 12  7  1  0
 22 16  1  0
 33 23  1  0
 32 26  1  0
  3 34  1  0
  4 35  1  0
  4 36  1  0
  8 37  1  0
  8 38  1  0
  9 39  1  1
 10 40  1  0
 11 41  1  0
 11 42  1  0
 12 43  1  6
 13 44  1  0
 13 45  1  0
 15 46  1  0
 15 47  1  0
 17 48  1  0
 18 49  1  0
 21 50  1  0
 22 51  1  0
 24 52  1  0
 25 53  1  0
 27 54  1  0
 30 55  1  0
 31 56  1  0
M  END
>  <smiles>  (39) 
O=C(NCC(=O)N1C[C@H](O)C[C@H]1COCc1ccc(Cl)cc1)c1ccc2cc(F)ccc2n1

>  <score_type>  (39) 
oracle

>  <origin>  (39) 
autodockgpu

>  <m_score__min__energy>  (39) 
-9.4600000000000009

>  <m_primary>  (39) 
energy

>  <rmsd>  (39) 
2.273934502561072

>  <m_score__min__rmsd>  (39) 
2.273934502561072

>  <meeko>  (39) 
{"free_energy": -8.24, "intermolecular_energy": -10.92, "internal_energy": -1.82, "cluster_size": 3, "cluster_id": 3, "rank_in_cluster": 1}

>  <energy>  (39) 
-6.49

>  <cluster_rmsd>  (39) 
0.98

>  <cluster>  (39) 
9

$$$$

     RDKit          3D

 56 59  0  0  0  0  0  0  0  0999 V2000
  139.3520   74.6170  222.3540 O   0  0  0  0  0  0  0  0  0  0  0  0
  139.3840   75.6490  221.6380 C   0  0  0  0  0  0  0  0  0  0  0  0
  139.1060   75.5780  220.2440 N   0  0  0  0  0  0  0  0  0  0  0  0
  138.7800   74.3320  219.6020 C   0  0  0  0  0  0  0  0  0  0  0  0
  139.8410   73.8750  218.6690 C   0  0  0  0  0  0  0  0  0  0  0  0
  139.4950   73.2920  217.6330 O   0  0  0  0  0  0  0  0  0  0  0  0
  141.1870   74.1460  219.0450 N   0  0  0  0  0  0  0  0  0  0  0  0
  141.9960   75.3240  218.7860 C   0  0  0  0  0  0  0  0  0  0  0  0
  142.7730   75.4770  220.0900 C   0  0  2  0  0  0  0  0  0  0  0  0
  144.1410   75.4880  219.8870 O   0  0  0  0  0  0  0  0  0  0  0  0
  142.4560   74.2270  220.9160 C   0  0  0  0  0  0  0  0  0  0  0  0
  142.0940   73.2600  219.8100 C   0  0  1  0  0  0  0  0  0  0  0  0
  141.3920   72.0470  220.2950 C   0  0  0  0  0  0  0  0  0  0  0  0
  141.2200   72.0920  221.6620 O   0  0  0  0  0  0  0  0  0  0  0  0
  139.9550   71.8340  222.1300 C   0  0  0  0  0  0  0  0  0  0  0  0
  139.9970   71.2310  223.5140 C   0  0  0  0  0  0  0  0  0  0  0  0
  140.7170   71.8170  224.5340 C   0  0  0  0  0  0  0  0  0  0  0  0
  140.7000   71.2040  225.7560 C   0  0  0  0  0  0  0  0  0  0  0  0
  140.0040   70.0380  226.0230 C   0  0  0  0  0  0  0  0  0  0  0  0
  140.0260   69.3040  227.6160 Cl  0  0  0  0  0  0  0  0  0  0  0  0
  139.2860   69.4580  224.9950 C   0  0  0  0  0  0  0  0  0  0  0  0
  139.2800   70.0530  223.7390 C   0  0  0  0  0  0  0  0  0  0  0  0
  139.7070   76.9600  222.2130 C   0  0  0  0  0  0  0  0  0  0  0  0
  138.7590   77.7370  222.8290 C   0  0  0  0  0  0  0  0  0  0  0  0
  139.0750   78.9800  223.3720 C   0  0  0  0  0  0  0  0  0  0  0  0
  140.3750   79.4420  223.2870 C   0  0  0  0  0  0  0  0  0  0  0  0
  140.7560   80.6740  223.8090 C   0  0  0  0  0  0  0  0  0  0  0  0
  142.0580   81.0820  223.6960 C   0  0  0  0  0  0  0  0  0  0  0  0
  142.4770   82.2860  224.1960 F   0  0  0  0  0  0  0  0  0  0  0  0
  142.9750   80.2700  223.0700 C   0  0  0  0  0  0  0  0  0  0  0  0
  142.6360   79.0390  222.5390 C   0  0  0  0  0  0  0  0  0  0  0  0
  141.3170   78.6510  222.6650 C   0  0  0  0  0  0  0  0  0  0  0  0
  140.9630   77.4610  222.1580 N   0  0  0  0  0  0  0  0  0  0  0  0
  139.1450   76.4800  219.6810 H   0  0  0  0  0  0  0  0  0  0  0  0
  138.6369   73.5638  220.3762 H   0  0  0  0  0  0  0  0  0  0  0  0
  137.8645   74.4904  219.0132 H   0  0  0  0  0  0  0  0  0  0  0  0
  142.6738   75.1626  217.9348 H   0  0  0  0  0  0  0  0  0  0  0  0
  141.4066   76.2130  218.5172 H   0  0  0  0  0  0  0  0  0  0  0  0
  142.4886   76.4241  220.5717 H   0  0  0  0  0  0  0  0  0  0  0  0
  144.4200   75.4270  218.9480 H   0  0  0  0  0  0  0  0  0  0  0  0
  143.3310   73.8835  221.4873 H   0  0  0  0  0  0  0  0  0  0  0  0
  141.6781   74.3648  221.6814 H   0  0  0  0  0  0  0  0  0  0  0  0
  142.9492   72.8363  219.2631 H   0  0  0  0  0  0  0  0  0  0  0  0
  140.4068   71.9828  219.8099 H   0  0  0  0  0  0  0  0  0  0  0  0
  142.0008   71.1653  220.0461 H   0  0  0  0  0  0  0  0  0  0  0  0
  139.3868   72.7752  222.1658 H   0  0  0  0  0  0  0  0  0  0  0  0
  139.4725   71.1152  221.4514 H   0  0  0  0  0  0  0  0  0  0  0  0
  141.2848   72.7447  224.3702 H   0  0  0  0  0  0  0  0  0  0  0  0
  141.2728   71.6644  226.5745 H   0  0  0  0  0  0  0  0  0  0  0  0
  138.7219   68.5299  225.1697 H   0  0  0  0  0  0  0  0  0  0  0  0
  138.7084   69.5946  222.9186 H   0  0  0  0  0  0  0  0  0  0  0  0
  137.7244   77.3695  222.8957 H   0  0  0  0  0  0  0  0  0  0  0  0
  138.2995   79.5867  223.8625 H   0  0  0  0  0  0  0  0  0  0  0  0
  140.0160   81.3161  224.3092 H   0  0  0  0  0  0  0  0  0  0  0  0
  144.0171   80.6127  222.9888 H   0  0  0  0  0  0  0  0  0  0  0  0
  143.3804   78.4005  222.0409 H   0  0  0  0  0  0  0  0  0  0  0  0
  1  2  2  0
  2  3  1  0
  3  4  1  0
  4  5  1  0
  5  6  2  0
  5  7  1  0
  7  8  1  0
  8  9  1  0
  9 10  1  0
  9 11  1  0
 11 12  1  0
 12 13  1  0
 13 14  1  0
 14 15  1  0
 15 16  1  0
 16 17  2  0
 17 18  1  0
 18 19  2  0
 19 20  1  0
 19 21  1  0
 21 22  2  0
  2 23  1  0
 23 24  2  0
 24 25  1  0
 25 26  2  0
 26 27  1  0
 27 28  2  0
 28 29  1  0
 28 30  1  0
 30 31  2  0
 31 32  1  0
 32 33  2  0
 12  7  1  0
 22 16  1  0
 33 23  1  0
 32 26  1  0
  3 34  1  0
  4 35  1  0
  4 36  1  0
  8 37  1  0
  8 38  1  0
  9 39  1  1
 10 40  1  0
 11 41  1  0
 11 42  1  0
 12 43  1  6
 13 44  1  0
 13 45  1  0
 15 46  1  0
 15 47  1  0
 17 48  1  0
 18 49  1  0
 21 50  1  0
 22 51  1  0
 24 52  1  0
 25 53  1  0
 27 54  1  0
 30 55  1  0
 31 56  1  0
M  END
>  <smiles>  (40) 
O=C(NCC(=O)N1C[C@H](O)C[C@H]1COCc1ccc(Cl)cc1)c1ccc2cc(F)ccc2n1

>  <score_type>  (40) 
oracle

>  <origin>  (40) 
autodockgpu

>  <m_score__min__energy>  (40) 
-9.4600000000000009

>  <m_primary>  (40) 
energy

>  <rmsd>  (40) 
7.563263314898623

>  <m_score__min__rmsd>  (40) 
7.563263314898623

>  <meeko>  (40) 
{"free_energy": -7.19, "intermolecular_energy": -9.87, "internal_energy": -2.25, "cluster_size": 1, "cluster_id": 8, "rank_in_cluster": 1}

>  <energy>  (40) 
-6.22

>  <cluster_rmsd>  (40) 
1.85

>  <cluster>  (40) 
9

$$$$

     RDKit          3D

 56 59  0  0  0  0  0  0  0  0999 V2000
  141.2520   71.6330  221.3610 O   0  0  0  0  0  0  0  0  0  0  0  0
  140.5660   72.0610  222.3230 C   0  0  0  0  0  0  0  0  0  0  0  0
  140.0330   73.3800  222.3070 N   0  0  0  0  0  0  0  0  0  0  0  0
  140.2550   74.2710  221.1980 C   0  0  0  0  0  0  0  0  0  0  0  0
  141.4620   75.1170  221.3780 C   0  0  0  0  0  0  0  0  0  0  0  0
  141.4490   75.9680  222.2770 O   0  0  0  0  0  0  0  0  0  0  0  0
  142.5500   74.8800  220.4910 N   0  0  0  0  0  0  0  0  0  0  0  0
  143.2830   73.6510  220.2410 C   0  0  0  0  0  0  0  0  0  0  0  0
  143.5200   73.7150  218.7360 C   0  0  2  0  0  0  0  0  0  0  0  0
  144.8620   73.6270  218.4120 O   0  0  0  0  0  0  0  0  0  0  0  0
  143.0460   75.1040  218.2950 C   0  0  0  0  0  0  0  0  0  0  0  0
  143.2000   75.8630  219.5950 C   0  0  1  0  0  0  0  0  0  0  0  0
  142.4880   77.1640  219.6040 C   0  0  0  0  0  0  0  0  0  0  0  0
  141.1270   76.9810  219.4810 O   0  0  0  0  0  0  0  0  0  0  0  0
  140.3360   78.0780  219.7200 C   0  0  0  0  0  0  0  0  0  0  0  0
  140.9110   78.9370  220.8210 C   0  0  0  0  0  0  0  0  0  0  0  0
  141.7180   80.0200  220.5420 C   0  0  0  0  0  0  0  0  0  0  0  0
  142.1950   80.7440  221.6000 C   0  0  0  0  0  0  0  0  0  0  0  0
  141.9140   80.4510  222.9230 C   0  0  0  0  0  0  0  0  0  0  0  0
  142.5610   81.4230  224.2330 Cl  0  0  0  0  0  0  0  0  0  0  0  0
  141.1050   79.3640  223.1920 C   0  0  0  0  0  0  0  0  0  0  0  0
  140.6010   78.6040  222.1420 C   0  0  0  0  0  0  0  0  0  0  0  0
  140.2920   71.2180  223.4920 C   0  0  0  0  0  0  0  0  0  0  0  0
  139.5700   70.0540  223.3950 C   0  0  0  0  0  0  0  0  0  0  0  0
  139.3150   69.2600  224.5110 C   0  0  0  0  0  0  0  0  0  0  0  0
  139.7990   69.6540  225.7440 C   0  0  0  0  0  0  0  0  0  0  0  0
  139.5790   68.9060  226.8960 C   0  0  0  0  0  0  0  0  0  0  0  0
  140.0830   69.3430  228.0920 C   0  0  0  0  0  0  0  0  0  0  0  0
  139.8910   68.6390  229.2500 F   0  0  0  0  0  0  0  0  0  0  0  0
  140.8010   70.5150  228.1410 C   0  0  0  0  0  0  0  0  0  0  0  0
  141.0410   71.2870  227.0190 C   0  0  0  0  0  0  0  0  0  0  0  0
  140.5220   70.8240  225.8260 C   0  0  0  0  0  0  0  0  0  0  0  0
  140.7420   71.5550  224.7220 N   0  0  0  0  0  0  0  0  0  0  0  0
  139.4580   73.6960  223.1450 H   0  0  0  0  0  0  0  0  0  0  0  0
  140.3779   73.6718  220.2838 H   0  0  0  0  0  0  0  0  0  0  0  0
  139.3855   74.9413  221.1299 H   0  0  0  0  0  0  0  0  0  0  0  0
  144.2339   73.6347  220.7938 H   0  0  0  0  0  0  0  0  0  0  0  0
  142.7488   72.7456  220.5649 H   0  0  0  0  0  0  0  0  0  0  0  0
  142.9930   72.8800  218.2511 H   0  0  0  0  0  0  0  0  0  0  0  0
  145.3150   74.4880  218.2880 H   0  0  0  0  0  0  0  0  0  0  0  0
  143.6848   75.5200  217.5019 H   0  0  0  0  0  0  0  0  0  0  0  0
  142.0356   75.1311  217.8611 H   0  0  0  0  0  0  0  0  0  0  0  0
  144.2308   76.1542  219.8452 H   0  0  0  0  0  0  0  0  0  0  0  0
  142.6975   77.6826  220.5512 H   0  0  0  0  0  0  0  0  0  0  0  0
  142.8404   77.7634  218.7516 H   0  0  0  0  0  0  0  0  0  0  0  0
  140.2638   78.6757  218.7993 H   0  0  0  0  0  0  0  0  0  0  0  0
  139.3416   77.7283  220.0346 H   0  0  0  0  0  0  0  0  0  0  0  0
  141.9690   80.2918  219.5061 H   0  0  0  0  0  0  0  0  0  0  0  0
  142.8395   81.6095  221.3868 H   0  0  0  0  0  0  0  0  0  0  0  0
  140.8606   79.1008  224.2317 H   0  0  0  0  0  0  0  0  0  0  0  0
  139.9562   77.7379  222.3522 H   0  0  0  0  0  0  0  0  0  0  0  0
  139.1841   69.7413  222.4135 H   0  0  0  0  0  0  0  0  0  0  0  0
  138.7353   68.3304  224.4119 H   0  0  0  0  0  0  0  0  0  0  0  0
  139.0039   67.9696  226.8466 H   0  0  0  0  0  0  0  0  0  0  0  0
  141.1996   70.8511  229.1096 H   0  0  0  0  0  0  0  0  0  0  0  0
  141.6164   72.2229  227.0741 H   0  0  0  0  0  0  0  0  0  0  0  0
  1  2  2  0
  2  3  1  0
  3  4  1  0
  4  5  1  0
  5  6  2  0
  5  7  1  0
  7  8  1  0
  8  9  1  0
  9 10  1  0
  9 11  1  0
 11 12  1  0
 12 13  1  0
 13 14  1  0
 14 15  1  0
 15 16  1  0
 16 17  2  0
 17 18  1  0
 18 19  2  0
 19 20  1  0
 19 21  1  0
 21 22  2  0
  2 23  1  0
 23 24  2  0
 24 25  1  0
 25 26  2  0
 26 27  1  0
 27 28  2  0
 28 29  1  0
 28 30  1  0
 30 31  2  0
 31 32  1  0
 32 33  2  0
 12  7  1  0
 22 16  1  0
 33 23  1  0
 32 26  1  0
  3 34  1  0
  4 35  1  0
  4 36  1  0
  8 37  1  0
  8 38  1  0
  9 39  1  6
 10 40  1  0
 11 41  1  0
 11 42  1  0
 12 43  1  1
 13 44  1  0
 13 45  1  0
 15 46  1  0
 15 47  1  0
 17 48  1  0
 18 49  1  0
 21 50  1  0
 22 51  1  0
 24 52  1  0
 25 53  1  0
 27 54  1  0
 30 55  1  0
 31 56  1  0
M  END
>  <smiles>  (41) 
O=C(NCC(=O)N1C[C@H](O)C[C@H]1COCc1ccc(Cl)cc1)c1ccc2cc(F)ccc2n1

>  <score_type>  (41) 
oracle

>  <origin>  (41) 
autodockgpu

>  <m_score__min__energy>  (41) 
-9.4600000000000009

>  <m_primary>  (41) 
energy

>  <rmsd>  (41) 
2.4276607741490577

>  <m_score__min__rmsd>  (41) 
2.4276607741490577

>  <meeko>  (41) 
{"free_energy": -8.69, "intermolecular_energy": -11.37, "internal_energy": -1.64, "cluster_size": 20, "cluster_id": 1, "rank_in_cluster": 4}

>  <energy>  (41) 
-6.19

>  <cluster_rmsd>  (41) 
1.28

>  <cluster>  (41) 
9

$$$$

     RDKit          3D

 56 59  0  0  0  0  0  0  0  0999 V2000
  139.2910   76.2490  222.5990 O   0  0  0  0  0  0  0  0  0  0  0  0
  140.3760   76.6710  222.1280 C   0  0  0  0  0  0  0  0  0  0  0  0
  141.3440   75.7680  221.6050 N   0  0  0  0  0  0  0  0  0  0  0  0
  141.1200   74.3460  221.5940 C   0  0  0  0  0  0  0  0  0  0  0  0
  141.6120   73.7000  220.3500 C   0  0  0  0  0  0  0  0  0  0  0  0
  140.7950   73.0900  219.6490 O   0  0  0  0  0  0  0  0  0  0  0  0
  142.9990   73.8350  220.0620 N   0  0  0  0  0  0  0  0  0  0  0  0
  144.1220   73.0540  220.5510 C   0  0  0  0  0  0  0  0  0  0  0  0
  145.0120   72.9580  219.3160 C   0  0  2  0  0  0  0  0  0  0  0  0
  146.2880   73.4380  219.5520 O   0  0  0  0  0  0  0  0  0  0  0  0
  144.3770   73.8790  218.2690 C   0  0  0  0  0  0  0  0  0  0  0  0
  143.6310   74.8360  219.1730 C   0  0  1  0  0  0  0  0  0  0  0  0
  142.6170   75.6490  218.4580 C   0  0  0  0  0  0  0  0  0  0  0  0
  142.3130   76.7910  219.1670 O   0  0  0  0  0  0  0  0  0  0  0  0
  141.1770   77.4650  218.7890 C   0  0  0  0  0  0  0  0  0  0  0  0
  141.4860   78.8970  218.4260 C   0  0  0  0  0  0  0  0  0  0  0  0
  142.7820   79.3250  218.2200 C   0  0  0  0  0  0  0  0  0  0  0  0
  142.9710   80.6400  217.8940 C   0  0  0  0  0  0  0  0  0  0  0  0
  141.9430   81.5560  217.7600 C   0  0  0  0  0  0  0  0  0  0  0  0
  142.2580   83.2290  217.3390 Cl  0  0  0  0  0  0  0  0  0  0  0  0
  140.6490   81.1180  217.9680 C   0  0  0  0  0  0  0  0  0  0  0  0
  140.4170   79.7880  218.3010 C   0  0  0  0  0  0  0  0  0  0  0  0
  140.6830   78.1050  222.1010 C   0  0  0  0  0  0  0  0  0  0  0  0
  141.8620   78.6060  222.5940 C   0  0  0  0  0  0  0  0  0  0  0  0
  142.1450   79.9690  222.5640 C   0  0  0  0  0  0  0  0  0  0  0  0
  141.2160   80.8390  222.0250 C   0  0  0  0  0  0  0  0  0  0  0  0
  141.4370   82.2110  221.9650 C   0  0  0  0  0  0  0  0  0  0  0  0
  140.4810   83.0260  221.4200 C   0  0  0  0  0  0  0  0  0  0  0  0
  140.6580   84.3810  221.3410 F   0  0  0  0  0  0  0  0  0  0  0  0
  139.3150   82.4800  220.9380 C   0  0  0  0  0  0  0  0  0  0  0  0
  139.0570   81.1230  220.9790 C   0  0  0  0  0  0  0  0  0  0  0  0
  140.0360   80.3230  221.5340 C   0  0  0  0  0  0  0  0  0  0  0  0
  139.8100   79.0010  221.5850 N   0  0  0  0  0  0  0  0  0  0  0  0
  142.2470   76.1740  221.2170 H   0  0  0  0  0  0  0  0  0  0  0  0
  141.6429   73.9003  222.4530 H   0  0  0  0  0  0  0  0  0  0  0  0
  140.0341   74.1793  221.6491 H   0  0  0  0  0  0  0  0  0  0  0  0
  144.6375   73.5696  221.3746 H   0  0  0  0  0  0  0  0  0  0  0  0
  143.8327   72.0760  220.9631 H   0  0  0  0  0  0  0  0  0  0  0  0
  145.0908   71.9053  219.0068 H   0  0  0  0  0  0  0  0  0  0  0  0
  146.4220   74.3840  219.3280 H   0  0  0  0  0  0  0  0  0  0  0  0
  145.1379   74.3968  217.6665 H   0  0  0  0  0  0  0  0  0  0  0  0
  143.7523   73.3674  217.5220 H   0  0  0  0  0  0  0  0  0  0  0  0
  144.2539   75.6032  219.6562 H   0  0  0  0  0  0  0  0  0  0  0  0
  143.0129   75.9322  217.4716 H   0  0  0  0  0  0  0  0  0  0  0  0
  141.7011   75.0501  218.3470 H   0  0  0  0  0  0  0  0  0  0  0  0
  140.7347   76.9614  217.9168 H   0  0  0  0  0  0  0  0  0  0  0  0
  140.4744   77.4645  219.6354 H   0  0  0  0  0  0  0  0  0  0  0  0
  143.6322   78.6335  218.3146 H   0  0  0  0  0  0  0  0  0  0  0  0
  144.0008   80.9896  217.7287 H   0  0  0  0  0  0  0  0  0  0  0  0
  139.8063   81.8183  217.8706 H   0  0  0  0  0  0  0  0  0  0  0  0
  139.3881   79.4360  218.4666 H   0  0  0  0  0  0  0  0  0  0  0  0
  142.6013   77.9138  223.0233 H   0  0  0  0  0  0  0  0  0  0  0  0
  143.0965   80.3489  222.9645 H   0  0  0  0  0  0  0  0  0  0  0  0
  142.3734   82.6385  222.3527 H   0  0  0  0  0  0  0  0  0  0  0  0
  138.5581   83.1492  220.5029 H   0  0  0  0  0  0  0  0  0  0  0  0
  138.1188   80.7014  220.5891 H   0  0  0  0  0  0  0  0  0  0  0  0
  1  2  2  0
  2  3  1  0
  3  4  1  0
  4  5  1  0
  5  6  2  0
  5  7  1  0
  7  8  1  0
  8  9  1  0
  9 10  1  0
  9 11  1  0
 11 12  1  0
 12 13  1  0
 13 14  1  0
 14 15  1  0
 15 16  1  0
 16 17  2  0
 17 18  1  0
 18 19  2  0
 19 20  1  0
 19 21  1  0
 21 22  2  0
  2 23  1  0
 23 24  2  0
 24 25  1  0
 25 26  2  0
 26 27  1  0
 27 28  2  0
 28 29  1  0
 28 30  1  0
 30 31  2  0
 31 32  1  0
 32 33  2  0
 12  7  1  0
 22 16  1  0
 33 23  1  0
 32 26  1  0
  3 34  1  0
  4 35  1  0
  4 36  1  0
  8 37  1  0
  8 38  1  0
  9 39  1  6
 10 40  1  0
 11 41  1  0
 11 42  1  0
 12 43  1  1
 13 44  1  0
 13 45  1  0
 15 46  1  0
 15 47  1  0
 17 48  1  0
 18 49  1  0
 21 50  1  0
 22 51  1  0
 24 52  1  0
 25 53  1  0
 27 54  1  0
 30 55  1  0
 31 56  1  0
M  END
>  <smiles>  (42) 
O=C(NCC(=O)N1C[C@H](O)C[C@H]1COCc1ccc(Cl)cc1)c1ccc2cc(F)ccc2n1

>  <score_type>  (42) 
oracle

>  <origin>  (42) 
autodockgpu

>  <m_score__min__energy>  (42) 
-9.4600000000000009

>  <m_primary>  (42) 
energy

>  <rmsd>  (42) 
9.094354583222403

>  <m_score__min__rmsd>  (42) 
9.094354583222403

>  <meeko>  (42) 
{"free_energy": -6.22, "intermolecular_energy": -8.9, "internal_energy": -3.73, "cluster_size": 14, "cluster_id": 9, "rank_in_cluster": 6}

>  <energy>  (42) 
-6.19

>  <cluster_rmsd>  (42) 
1.33

>  <cluster>  (42) 
9

$$$$

     RDKit          3D

 56 59  0  0  0  0  0  0  0  0999 V2000
  141.3470   72.5500  221.8090 O   0  0  0  0  0  0  0  0  0  0  0  0
  140.3240   72.5310  222.5390 C   0  0  0  0  0  0  0  0  0  0  0  0
  139.2780   73.4770  222.3510 N   0  0  0  0  0  0  0  0  0  0  0  0
  139.3470   74.4850  221.3260 C   0  0  0  0  0  0  0  0  0  0  0  0
  140.3220   75.5600  221.6460 C   0  0  0  0  0  0  0  0  0  0  0  0
  141.5110   75.2460  221.7790 O   0  0  0  0  0  0  0  0  0  0  0  0
  139.8030   76.8790  221.7740 N   0  0  0  0  0  0  0  0  0  0  0  0
  138.5920   77.3320  222.4360 C   0  0  0  0  0  0  0  0  0  0  0  0
  139.0420   78.6430  223.0730 C   0  0  2  0  0  0  0  0  0  0  0  0
  138.2580   79.7130  222.6800 O   0  0  0  0  0  0  0  0  0  0  0  0
  140.4540   78.9050  222.5410 C   0  0  0  0  0  0  0  0  0  0  0  0
  140.3990   78.1260  221.2440 C   0  0  1  0  0  0  0  0  0  0  0  0
  141.7350   77.8830  220.6490 C   0  0  0  0  0  0  0  0  0  0  0  0
  141.6670   77.8800  219.2720 O   0  0  0  0  0  0  0  0  0  0  0  0
  142.7550   77.3710  218.6040 C   0  0  0  0  0  0  0  0  0  0  0  0
  143.0960   75.9840  219.0930 C   0  0  0  0  0  0  0  0  0  0  0  0
  144.0750   75.7750  220.0420 C   0  0  0  0  0  0  0  0  0  0  0  0
  144.3200   74.4860  220.4280 C   0  0  0  0  0  0  0  0  0  0  0  0
  143.6440   73.3890  219.9220 C   0  0  0  0  0  0  0  0  0  0  0  0
  144.0090   71.7610  220.4630 Cl  0  0  0  0  0  0  0  0  0  0  0  0
  142.6660   73.6090  218.9720 C   0  0  0  0  0  0  0  0  0  0  0  0
  142.3890   74.9060  218.5550 C   0  0  0  0  0  0  0  0  0  0  0  0
  140.1740   71.5370  223.6060 C   0  0  0  0  0  0  0  0  0  0  0  0
  139.5520   70.3310  223.3940 C   0  0  0  0  0  0  0  0  0  0  0  0
  139.4140   69.3930  224.4140 C   0  0  0  0  0  0  0  0  0  0  0  0
  139.9150   69.6830  225.6700 C   0  0  0  0  0  0  0  0  0  0  0  0
  139.8090   68.7890  226.7300 C   0  0  0  0  0  0  0  0  0  0  0  0
  140.3240   69.1280  227.9530 C   0  0  0  0  0  0  0  0  0  0  0  0
  140.2430   68.2790  229.0240 F   0  0  0  0  0  0  0  0  0  0  0  0
  140.9390   70.3470  228.1190 C   0  0  0  0  0  0  0  0  0  0  0  0
  141.0640   71.2620  227.0910 C   0  0  0  0  0  0  0  0  0  0  0  0
  140.5370   70.8960  225.8680 C   0  0  0  0  0  0  0  0  0  0  0  0
  140.6450   71.7680  224.8530 N   0  0  0  0  0  0  0  0  0  0  0  0
  138.4320   73.4200  222.9940 H   0  0  0  0  0  0  0  0  0  0  0  0
  139.6468   74.0072  220.3817 H   0  0  0  0  0  0  0  0  0  0  0  0
  138.3529   74.9494  221.2481 H   0  0  0  0  0  0  0  0  0  0  0  0
  137.7806   77.4985  221.7122 H   0  0  0  0  0  0  0  0  0  0  0  0
  138.1866   76.6075  223.1577 H   0  0  0  0  0  0  0  0  0  0  0  0
  138.9791   78.5542  224.1676 H   0  0  0  0  0  0  0  0  0  0  0  0
  138.3420   79.9600  221.7340 H   0  0  0  0  0  0  0  0  0  0  0  0
  140.6313   79.9764  222.3658 H   0  0  0  0  0  0  0  0  0  0  0  0
  141.2662   78.6112  223.2222 H   0  0  0  0  0  0  0  0  0  0  0  0
  139.8596   78.6220  220.4236 H   0  0  0  0  0  0  0  0  0  0  0  0
  142.4237   78.6768  220.9739 H   0  0  0  0  0  0  0  0  0  0  0  0
  142.0960   76.8998  220.9853 H   0  0  0  0  0  0  0  0  0  0  0  0
  142.5273   77.3265  217.5288 H   0  0  0  0  0  0  0  0  0  0  0  0
  143.6172   78.0280  218.7910 H   0  0  0  0  0  0  0  0  0  0  0  0
  144.6388   76.6154  220.4731 H   0  0  0  0  0  0  0  0  0  0  0  0
  145.0993   74.3108  221.1843 H   0  0  0  0  0  0  0  0  0  0  0  0
  142.1084   72.7614  218.5470 H   0  0  0  0  0  0  0  0  0  0  0  0
  141.6103   75.0840  217.7987 H   0  0  0  0  0  0  0  0  0  0  0  0
  139.1534   70.1006  222.3950 H   0  0  0  0  0  0  0  0  0  0  0  0
  138.9125   68.4328  224.2230 H   0  0  0  0  0  0  0  0  0  0  0  0
  139.3151   67.8166  226.5872 H   0  0  0  0  0  0  0  0  0  0  0  0
  141.3469   70.6034  229.1079 H   0  0  0  0  0  0  0  0  0  0  0  0
  141.5585   72.2333  227.2394 H   0  0  0  0  0  0  0  0  0  0  0  0
  1  2  2  0
  2  3  1  0
  3  4  1  0
  4  5  1  0
  5  6  2  0
  5  7  1  0
  7  8  1  0
  8  9  1  0
  9 10  1  0
  9 11  1  0
 11 12  1  0
 12 13  1  0
 13 14  1  0
 14 15  1  0
 15 16  1  0
 16 17  2  0
 17 18  1  0
 18 19  2  0
 19 20  1  0
 19 21  1  0
 21 22  2  0
  2 23  1  0
 23 24  2  0
 24 25  1  0
 25 26  2  0
 26 27  1  0
 27 28  2  0
 28 29  1  0
 28 30  1  0
 30 31  2  0
 31 32  1  0
 32 33  2  0
 12  7  1  0
 22 16  1  0
 33 23  1  0
 32 26  1  0
  3 34  1  0
  4 35  1  0
  4 36  1  0
  8 37  1  0
  8 38  1  0
  9 39  1  1
 10 40  1  0
 11 41  1  0
 11 42  1  0
 12 43  1  6
 13 44  1  0
 13 45  1  0
 15 46  1  0
 15 47  1  0
 17 48  1  0
 18 49  1  0
 21 50  1  0
 22 51  1  0
 24 52  1  0
 25 53  1  0
 27 54  1  0
 30 55  1  0
 31 56  1  0
M  END
>  <smiles>  (43) 
O=C(NCC(=O)N1C[C@H](O)C[C@H]1COCc1ccc(Cl)cc1)c1ccc2cc(F)ccc2n1

>  <score_type>  (43) 
oracle

>  <origin>  (43) 
autodockgpu

>  <m_score__min__energy>  (43) 
-9.4600000000000009

>  <m_primary>  (43) 
energy

>  <rmsd>  (43) 
2.851828641548908

>  <m_score__min__rmsd>  (43) 
2.851828641548908

>  <meeko>  (43) 
{"free_energy": -7.77, "intermolecular_energy": -10.45, "internal_energy": -2.17, "cluster_size": 1, "cluster_id": 6, "rank_in_cluster": 1}

>  <energy>  (43) 
-6.14

>  <cluster_rmsd>  (43) 
1.23

>  <cluster>  (43) 
9

$$$$

     RDKit          3D

 56 59  0  0  0  0  0  0  0  0999 V2000
  139.1410   74.6980  222.2610 O   0  0  0  0  0  0  0  0  0  0  0  0
  140.1610   75.3720  221.9720 C   0  0  0  0  0  0  0  0  0  0  0  0
  141.3720   74.7330  221.5860 N   0  0  0  0  0  0  0  0  0  0  0  0
  141.4770   73.2990  221.5100 C   0  0  0  0  0  0  0  0  0  0  0  0
  142.0340   72.8350  220.2130 C   0  0  0  0  0  0  0  0  0  0  0  0
  141.3040   72.1650  219.4720 O   0  0  0  0  0  0  0  0  0  0  0  0
  143.3780   73.2020  219.9240 N   0  0  0  0  0  0  0  0  0  0  0  0
  144.6170   72.5610  220.3320 C   0  0  0  0  0  0  0  0  0  0  0  0
  145.4830   72.7060  219.0840 C   0  0  2  0  0  0  0  0  0  0  0  0
  146.6770   73.3510  219.3480 O   0  0  0  0  0  0  0  0  0  0  0  0
  144.6930   73.6050  218.1270 C   0  0  0  0  0  0  0  0  0  0  0  0
  143.8330   74.3590  219.1180 C   0  0  1  0  0  0  0  0  0  0  0  0
  142.6920   75.0660  218.4870 C   0  0  0  0  0  0  0  0  0  0  0  0
  142.2240   76.0720  219.3040 O   0  0  0  0  0  0  0  0  0  0  0  0
  141.0750   76.7070  218.9000 C   0  0  0  0  0  0  0  0  0  0  0  0
  141.3070   78.1860  218.7060 C   0  0  0  0  0  0  0  0  0  0  0  0
  142.5650   78.6910  218.4500 C   0  0  0  0  0  0  0  0  0  0  0  0
  142.6840   80.0440  218.2880 C   0  0  0  0  0  0  0  0  0  0  0  0
  141.6210   80.9260  218.3650 C   0  0  0  0  0  0  0  0  0  0  0  0
  141.8460   82.6520  218.1460 Cl  0  0  0  0  0  0  0  0  0  0  0  0
  140.3650   80.4110  218.6230 C   0  0  0  0  0  0  0  0  0  0  0  0
  140.2050   79.0410  218.7930 C   0  0  0  0  0  0  0  0  0  0  0  0
  140.1390   76.8380  222.0230 C   0  0  0  0  0  0  0  0  0  0  0  0
  138.9640   77.5480  222.0150 C   0  0  0  0  0  0  0  0  0  0  0  0
  138.9530   78.9400  222.0640 C   0  0  0  0  0  0  0  0  0  0  0  0
  140.1530   79.6230  222.1210 C   0  0  0  0  0  0  0  0  0  0  0  0
  140.2110   81.0110  222.1720 C   0  0  0  0  0  0  0  0  0  0  0  0
  141.4280   81.6350  222.2290 C   0  0  0  0  0  0  0  0  0  0  0  0
  141.5310   83.0000  222.2800 F   0  0  0  0  0  0  0  0  0  0  0  0
  142.5800   80.8830  222.2350 C   0  0  0  0  0  0  0  0  0  0  0  0
  142.5650   79.5020  222.1860 C   0  0  0  0  0  0  0  0  0  0  0  0
  141.3250   78.8970  222.1290 C   0  0  0  0  0  0  0  0  0  0  0  0
  141.2830   77.5570  222.0810 N   0  0  0  0  0  0  0  0  0  0  0  0
  142.2080   75.3470  221.3500 H   0  0  0  0  0  0  0  0  0  0  0  0
  142.1340   72.9504  222.3205 H   0  0  0  0  0  0  0  0  0  0  0  0
  140.4622   72.8851  221.6040 H   0  0  0  0  0  0  0  0  0  0  0  0
  145.0682   73.0770  221.1924 H   0  0  0  0  0  0  0  0  0  0  0  0
  144.4872   71.5191  220.6600 H   0  0  0  0  0  0  0  0  0  0  0  0
  145.7117   71.7074  218.6835 H   0  0  0  0  0  0  0  0  0  0  0  0
  146.6260   74.3310  219.3530 H   0  0  0  0  0  0  0  0  0  0  0  0
  145.3535   74.2806  217.5638 H   0  0  0  0  0  0  0  0  0  0  0  0
  144.1348   73.0692  217.3451 H   0  0  0  0  0  0  0  0  0  0  0  0
  144.3454   75.1683  219.6588 H   0  0  0  0  0  0  0  0  0  0  0  0
  143.0218   75.5016  217.5323 H   0  0  0  0  0  0  0  0  0  0  0  0
  141.8800   74.3431  218.3195 H   0  0  0  0  0  0  0  0  0  0  0  0
  140.7386   76.2689  217.9487 H   0  0  0  0  0  0  0  0  0  0  0  0
  140.3112   76.5740  219.6803 H   0  0  0  0  0  0  0  0  0  0  0  0
  143.4409   78.0294  218.3787 H   0  0  0  0  0  0  0  0  0  0  0  0
  143.6839   80.4550  218.0845 H   0  0  0  0  0  0  0  0  0  0  0  0
  139.4962   81.0820  218.6935 H   0  0  0  0  0  0  0  0  0  0  0  0
  139.2062   78.6277  218.9970 H   0  0  0  0  0  0  0  0  0  0  0  0
  138.0086   77.0047  221.9688 H   0  0  0  0  0  0  0  0  0  0  0  0
  138.0000   79.4894  222.0574 H   0  0  0  0  0  0  0  0  0  0  0  0
  139.2847   81.6042  222.1666 H   0  0  0  0  0  0  0  0  0  0  0  0
  143.5496   81.4005  222.2805 H   0  0  0  0  0  0  0  0  0  0  0  0
  143.4946   78.9139  222.1921 H   0  0  0  0  0  0  0  0  0  0  0  0
  1  2  2  0
  2  3  1  0
  3  4  1  0
  4  5  1  0
  5  6  2  0
  5  7  1  0
  7  8  1  0
  8  9  1  0
  9 10  1  0
  9 11  1  0
 11 12  1  0
 12 13  1  0
 13 14  1  0
 14 15  1  0
 15 16  1  0
 16 17  2  0
 17 18  1  0
 18 19  2  0
 19 20  1  0
 19 21  1  0
 21 22  2  0
  2 23  1  0
 23 24  2  0
 24 25  1  0
 25 26  2  0
 26 27  1  0
 27 28  2  0
 28 29  1  0
 28 30  1  0
 30 31  2  0
 31 32  1  0
 32 33  2  0
 12  7  1  0
 22 16  1  0
 33 23  1  0
 32 26  1  0
  3 34  1  0
  4 35  1  0
  4 36  1  0
  8 37  1  0
  8 38  1  0
  9 39  1  6
 10 40  1  0
 11 41  1  0
 11 42  1  0
 12 43  1  1
 13 44  1  0
 13 45  1  0
 15 46  1  0
 15 47  1  0
 17 48  1  0
 18 49  1  0
 21 50  1  0
 22 51  1  0
 24 52  1  0
 25 53  1  0
 27 54  1  0
 30 55  1  0
 31 56  1  0
M  END
>  <smiles>  (44) 
O=C(NCC(=O)N1C[C@H](O)C[C@H]1COCc1ccc(Cl)cc1)c1ccc2cc(F)ccc2n1

>  <score_type>  (44) 
oracle

>  <origin>  (44) 
autodockgpu

>  <m_score__min__energy>  (44) 
-9.4600000000000009

>  <m_primary>  (44) 
energy

>  <rmsd>  (44) 
8.224648182857157

>  <m_score__min__rmsd>  (44) 
8.224648182857157

>  <meeko>  (44) 
{"free_energy": -6.19, "intermolecular_energy": -8.87, "internal_energy": -4.19, "cluster_size": 14, "cluster_id": 9, "rank_in_cluster": 7}

>  <energy>  (44) 
-6.06

>  <cluster_rmsd>  (44) 
0.88

>  <cluster>  (44) 
9

$$$$

     RDKit          3D

 56 59  0  0  0  0  0  0  0  0999 V2000
  138.8410   72.4300  222.1570 O   0  0  0  0  0  0  0  0  0  0  0  0
  139.6290   71.4710  222.3510 C   0  0  0  0  0  0  0  0  0  0  0  0
  140.1920   70.7570  221.2560 N   0  0  0  0  0  0  0  0  0  0  0  0
  139.8830   71.1010  219.8930 C   0  0  0  0  0  0  0  0  0  0  0  0
  140.7230   72.2150  219.3800 C   0  0  0  0  0  0  0  0  0  0  0  0
  140.3790   72.7670  218.3280 O   0  0  0  0  0  0  0  0  0  0  0  0
  141.8680   72.5620  220.1510 N   0  0  0  0  0  0  0  0  0  0  0  0
  143.0860   71.8050  220.3820 C   0  0  0  0  0  0  0  0  0  0  0  0
  144.1550   72.8930  220.3520 C   0  0  2  0  0  0  0  0  0  0  0  0
  144.9120   72.9160  221.5090 O   0  0  0  0  0  0  0  0  0  0  0  0
  143.3970   74.2230  220.2900 C   0  0  0  0  0  0  0  0  0  0  0  0
  142.0820   73.8110  220.9170 C   0  0  1  0  0  0  0  0  0  0  0  0
  140.9900   74.7860  220.6860 C   0  0  0  0  0  0  0  0  0  0  0  0
  140.4440   75.2070  221.8800 O   0  0  0  0  0  0  0  0  0  0  0  0
  139.5290   76.2280  221.8110 C   0  0  0  0  0  0  0  0  0  0  0  0
  140.1270   77.5310  222.2850 C   0  0  0  0  0  0  0  0  0  0  0  0
  139.4160   78.4000  223.0880 C   0  0  0  0  0  0  0  0  0  0  0  0
  140.0350   79.5580  223.4720 C   0  0  0  0  0  0  0  0  0  0  0  0
  141.3230   79.9020  223.1020 C   0  0  0  0  0  0  0  0  0  0  0  0
  142.0550   81.4060  223.6310 Cl  0  0  0  0  0  0  0  0  0  0  0  0
  142.0260   79.0270  222.2980 C   0  0  0  0  0  0  0  0  0  0  0  0
  141.4300   77.8390  221.8870 C   0  0  0  0  0  0  0  0  0  0  0  0
  139.9960   71.0560  223.7090 C   0  0  0  0  0  0  0  0  0  0  0  0
  140.6700   71.8900  224.5670 C   0  0  0  0  0  0  0  0  0  0  0  0
  141.0150   71.4870  225.8550 C   0  0  0  0  0  0  0  0  0  0  0  0
  140.6710   70.2170  226.2790 C   0  0  0  0  0  0  0  0  0  0  0  0
  140.9860   69.7550  227.5520 C   0  0  0  0  0  0  0  0  0  0  0  0
  140.6200   68.4870  227.9190 C   0  0  0  0  0  0  0  0  0  0  0  0
  140.9090   67.9910  229.1620 F   0  0  0  0  0  0  0  0  0  0  0  0
  139.9460   67.6870  227.0270 C   0  0  0  0  0  0  0  0  0  0  0  0
  139.6150   68.1090  225.7530 C   0  0  0  0  0  0  0  0  0  0  0  0
  139.9950   69.3910  225.4070 C   0  0  0  0  0  0  0  0  0  0  0  0
  139.6850   69.8260  224.1760 N   0  0  0  0  0  0  0  0  0  0  0  0
  140.8540   69.9540  221.4720 H   0  0  0  0  0  0  0  0  0  0  0  0
  140.0469   70.2161  219.2605 H   0  0  0  0  0  0  0  0  0  0  0  0
  138.8347   71.4329  219.8627 H   0  0  0  0  0  0  0  0  0  0  0  0
  143.0609   71.2979  221.3578 H   0  0  0  0  0  0  0  0  0  0  0  0
  143.2525   71.0032  219.6475 H   0  0  0  0  0  0  0  0  0  0  0  0
  144.8301   72.7143  219.5021 H   0  0  0  0  0  0  0  0  0  0  0  0
  145.4270   72.0980  221.6820 H   0  0  0  0  0  0  0  0  0  0  0  0
  143.9000   75.0064  220.8759 H   0  0  0  0  0  0  0  0  0  0  0  0
  143.3119   74.6593  219.2838 H   0  0  0  0  0  0  0  0  0  0  0  0
  142.0949   73.7238  222.0135 H   0  0  0  0  0  0  0  0  0  0  0  0
  141.3928   75.6566  220.1476 H   0  0  0  0  0  0  0  0  0  0  0  0
  140.2028   74.2973  220.0932 H   0  0  0  0  0  0  0  0  0  0  0  0
  139.1983   76.3434  220.7683 H   0  0  0  0  0  0  0  0  0  0  0  0
  138.6787   75.9779  222.4625 H   0  0  0  0  0  0  0  0  0  0  0  0
  138.3889   78.1697  223.4075 H   0  0  0  0  0  0  0  0  0  0  0  0
  139.4761   80.2563  224.1123 H   0  0  0  0  0  0  0  0  0  0  0  0
  143.0523   79.2680  221.9840 H   0  0  0  0  0  0  0  0  0  0  0  0
  141.9870   77.1396  221.2462 H   0  0  0  0  0  0  0  0  0  0  0  0
  140.9439   72.9003  224.2291 H   0  0  0  0  0  0  0  0  0  0  0  0
  141.5546   72.1710  226.5265 H   0  0  0  0  0  0  0  0  0  0  0  0
  141.5250   70.4028  228.2590 H   0  0  0  0  0  0  0  0  0  0  0  0
  139.6591   66.6720  227.3391 H   0  0  0  0  0  0  0  0  0  0  0  0
  139.0761   67.4567  225.0501 H   0  0  0  0  0  0  0  0  0  0  0  0
  1  2  2  0
  2  3  1  0
  3  4  1  0
  4  5  1  0
  5  6  2  0
  5  7  1  0
  7  8  1  0
  8  9  1  0
  9 10  1  0
  9 11  1  0
 11 12  1  0
 12 13  1  0
 13 14  1  0
 14 15  1  0
 15 16  1  0
 16 17  2  0
 17 18  1  0
 18 19  2  0
 19 20  1  0
 19 21  1  0
 21 22  2  0
  2 23  1  0
 23 24  2  0
 24 25  1  0
 25 26  2  0
 26 27  1  0
 27 28  2  0
 28 29  1  0
 28 30  1  0
 30 31  2  0
 31 32  1  0
 32 33  2  0
 12  7  1  0
 22 16  1  0
 33 23  1  0
 32 26  1  0
  3 34  1  0
  4 35  1  0
  4 36  1  0
  8 37  1  0
  8 38  1  0
  9 39  1  6
 10 40  1  0
 11 41  1  0
 11 42  1  0
 12 43  1  1
 13 44  1  0
 13 45  1  0
 15 46  1  0
 15 47  1  0
 17 48  1  0
 18 49  1  0
 21 50  1  0
 22 51  1  0
 24 52  1  0
 25 53  1  0
 27 54  1  0
 30 55  1  0
 31 56  1  0
M  END
>  <smiles>  (45) 
O=C(NCC(=O)N1C[C@H](O)C[C@H]1COCc1ccc(Cl)cc1)c1ccc2cc(F)ccc2n1

>  <score_type>  (45) 
oracle

>  <origin>  (45) 
autodockgpu

>  <m_score__min__energy>  (45) 
-9.4600000000000009

>  <m_primary>  (45) 
energy

>  <rmsd>  (45) 
3.8471555541149627

>  <m_score__min__rmsd>  (45) 
3.8471555541149627

>  <meeko>  (45) 
{"free_energy": -8.33, "intermolecular_energy": -11.01, "internal_energy": -1.91, "cluster_size": 20, "cluster_id": 1, "rank_in_cluster": 11}

>  <energy>  (45) 
-6.02

>  <cluster_rmsd>  (45) 
1.07

>  <cluster>  (45) 
9

$$$$

     RDKit          3D

 56 59  0  0  0  0  0  0  0  0999 V2000
  139.5780   73.2440  222.7770 O   0  0  0  0  0  0  0  0  0  0  0  0
  140.1190   72.1120  222.6970 C   0  0  0  0  0  0  0  0  0  0  0  0
  140.8400   71.7300  221.5320 N   0  0  0  0  0  0  0  0  0  0  0  0
  140.9800   72.6160  220.4060 C   0  0  0  0  0  0  0  0  0  0  0  0
  141.8250   73.7990  220.7110 C   0  0  0  0  0  0  0  0  0  0  0  0
  141.3530   74.6790  221.4420 O   0  0  0  0  0  0  0  0  0  0  0  0
  143.1240   73.8260  220.1310 N   0  0  0  0  0  0  0  0  0  0  0  0
  144.0400   72.7280  219.8720 C   0  0  0  0  0  0  0  0  0  0  0  0
  144.6470   73.1220  218.5300 C   0  0  2  0  0  0  0  0  0  0  0  0
  146.0270   73.1940  218.5790 O   0  0  0  0  0  0  0  0  0  0  0  0
  144.1380   74.5380  218.2390 C   0  0  0  0  0  0  0  0  0  0  0  0
  143.8600   75.0160  219.6470 C   0  0  1  0  0  0  0  0  0  0  0  0
  143.0180   76.2360  219.6980 C   0  0  0  0  0  0  0  0  0  0  0  0
  141.7970   76.0160  219.0960 O   0  0  0  0  0  0  0  0  0  0  0  0
  140.7900   76.8950  219.4130 C   0  0  0  0  0  0  0  0  0  0  0  0
  141.2220   77.8550  220.4950 C   0  0  0  0  0  0  0  0  0  0  0  0
  141.7720   79.0830  220.1910 C   0  0  0  0  0  0  0  0  0  0  0  0
  142.1360   79.8910  221.2330 C   0  0  0  0  0  0  0  0  0  0  0  0
  141.9820   79.5460  222.5650 C   0  0  0  0  0  0  0  0  0  0  0  0
  142.4700   80.6320  223.8530 Cl  0  0  0  0  0  0  0  0  0  0  0  0
  141.4300   78.3140  222.8590 C   0  0  0  0  0  0  0  0  0  0  0  0
  141.0490   77.4660  221.8260 C   0  0  0  0  0  0  0  0  0  0  0  0
  140.0250   71.1490  223.8000 C   0  0  0  0  0  0  0  0  0  0  0  0
  139.4210   69.9260  223.6460 C   0  0  0  0  0  0  0  0  0  0  0  0
  139.3370   69.0180  224.6990 C   0  0  0  0  0  0  0  0  0  0  0  0
  139.8720   69.3570  225.9270 C   0  0  0  0  0  0  0  0  0  0  0  0
  139.8200   68.4960  227.0180 C   0  0  0  0  0  0  0  0  0  0  0  0
  140.3680   68.8840  228.2120 C   0  0  0  0  0  0  0  0  0  0  0  0
  140.3390   68.0680  229.3110 F   0  0  0  0  0  0  0  0  0  0  0  0
  140.9620   70.1190  228.3190 C   0  0  0  0  0  0  0  0  0  0  0  0
  141.0340   71.0040  227.2600 C   0  0  0  0  0  0  0  0  0  0  0  0
  140.4740   70.5890  226.0670 C   0  0  0  0  0  0  0  0  0  0  0  0
  140.5310   71.4290  225.0220 N   0  0  0  0  0  0  0  0  0  0  0  0
  141.2800   70.7620  221.5130 H   0  0  0  0  0  0  0  0  0  0  0  0
  141.4391   72.0600  219.5753 H   0  0  0  0  0  0  0  0  0  0  0  0
  139.9765   72.9823  220.1438 H   0  0  0  0  0  0  0  0  0  0  0  0
  144.8111   72.6596  220.6534 H   0  0  0  0  0  0  0  0  0  0  0  0
  143.5540   71.7412  219.8632 H   0  0  0  0  0  0  0  0  0  0  0  0
  144.3678   72.3739  217.7734 H   0  0  0  0  0  0  0  0  0  0  0  0
  146.3930   74.1030  218.6230 H   0  0  0  0  0  0  0  0  0  0  0  0
  144.9040   75.1527  217.7437 H   0  0  0  0  0  0  0  0  0  0  0  0
  143.2773   74.5880  217.5559 H   0  0  0  0  0  0  0  0  0  0  0  0
  144.7488   75.3158  220.2216 H   0  0  0  0  0  0  0  0  0  0  0  0
  142.8560   76.5183  220.7488 H   0  0  0  0  0  0  0  0  0  0  0  0
  143.5355   77.0433  219.1591 H   0  0  0  0  0  0  0  0  0  0  0  0
  140.5173   77.4672  218.5140 H   0  0  0  0  0  0  0  0  0  0  0  0
  139.9291   76.3188  219.7828 H   0  0  0  0  0  0  0  0  0  0  0  0
  141.9129   79.4012  219.1475 H   0  0  0  0  0  0  0  0  0  0  0  0
  142.5765   80.8715  220.9992 H   0  0  0  0  0  0  0  0  0  0  0  0
  141.2927   78.0058  223.9060 H   0  0  0  0  0  0  0  0  0  0  0  0
  140.6094   76.4845  222.0570 H   0  0  0  0  0  0  0  0  0  0  0  0
  138.9936   69.6569  222.6688 H   0  0  0  0  0  0  0  0  0  0  0  0
  138.8503   68.0422  224.5546 H   0  0  0  0  0  0  0  0  0  0  0  0
  139.3420   67.5099  226.9227 H   0  0  0  0  0  0  0  0  0  0  0  0
  141.3970   70.4144  229.2852 H   0  0  0  0  0  0  0  0  0  0  0  0
  141.5129   71.9890  227.3617 H   0  0  0  0  0  0  0  0  0  0  0  0
  1  2  2  0
  2  3  1  0
  3  4  1  0
  4  5  1  0
  5  6  2  0
  5  7  1  0
  7  8  1  0
  8  9  1  0
  9 10  1  0
  9 11  1  0
 11 12  1  0
 12 13  1  0
 13 14  1  0
 14 15  1  0
 15 16  1  0
 16 17  2  0
 17 18  1  0
 18 19  2  0
 19 20  1  0
 19 21  1  0
 21 22  2  0
  2 23  1  0
 23 24  2  0
 24 25  1  0
 25 26  2  0
 26 27  1  0
 27 28  2  0
 28 29  1  0
 28 30  1  0
 30 31  2  0
 31 32  1  0
 32 33  2  0
 12  7  1  0
 22 16  1  0
 33 23  1  0
 32 26  1  0
  3 34  1  0
  4 35  1  0
  4 36  1  0
  8 37  1  0
  8 38  1  0
  9 39  1  6
 10 40  1  0
 11 41  1  0
 11 42  1  0
 12 43  1  1
 13 44  1  0
 13 45  1  0
 15 46  1  0
 15 47  1  0
 17 48  1  0
 18 49  1  0
 21 50  1  0
 22 51  1  0
 24 52  1  0
 25 53  1  0
 27 54  1  0
 30 55  1  0
 31 56  1  0
M  END
>  <smiles>  (46) 
O=C(NCC(=O)N1C[C@H](O)C[C@H]1COCc1ccc(Cl)cc1)c1ccc2cc(F)ccc2n1

>  <score_type>  (46) 
oracle

>  <origin>  (46) 
autodockgpu

>  <m_score__min__energy>  (46) 
-9.4600000000000009

>  <m_primary>  (46) 
energy

>  <rmsd>  (46) 
3.0694000708055182

>  <m_score__min__rmsd>  (46) 
3.0694000708055182

>  <meeko>  (46) 
{"free_energy": -9.46, "intermolecular_energy": -12.15, "internal_energy": -1.35, "cluster_size": 20, "cluster_id": 1, "rank_in_cluster": 1}

>  <energy>  (46) 
-5.97

>  <cluster_rmsd>  (46) 
0.96

>  <cluster>  (46) 
9

$$$$

     RDKit          3D

 56 59  0  0  0  0  0  0  0  0999 V2000
  139.1520   74.7010  222.3380 O   0  0  0  0  0  0  0  0  0  0  0  0
  140.1600   75.3770  222.0160 C   0  0  0  0  0  0  0  0  0  0  0  0
  141.3630   74.7400  221.6010 N   0  0  0  0  0  0  0  0  0  0  0  0
  141.4720   73.3060  221.5320 C   0  0  0  0  0  0  0  0  0  0  0  0
  142.0160   72.8360  220.2320 C   0  0  0  0  0  0  0  0  0  0  0  0
  141.2360   72.7390  219.2760 O   0  0  0  0  0  0  0  0  0  0  0  0
  143.4050   72.5300  220.1900 N   0  0  0  0  0  0  0  0  0  0  0  0
  144.0610   71.2420  220.0480 C   0  0  0  0  0  0  0  0  0  0  0  0
  145.2430   71.5780  219.1450 C   0  0  2  0  0  0  0  0  0  0  0  0
  146.4530   71.2210  219.7120 O   0  0  0  0  0  0  0  0  0  0  0  0
  145.2480   73.1050  219.0110 C   0  0  0  0  0  0  0  0  0  0  0  0
  144.5310   73.4870  220.2880 C   0  0  1  0  0  0  0  0  0  0  0  0
  144.0550   74.8910  220.2970 C   0  0  0  0  0  0  0  0  0  0  0  0
  143.0840   75.0870  219.3380 O   0  0  0  0  0  0  0  0  0  0  0  0
  143.3710   75.9980  218.3510 C   0  0  0  0  0  0  0  0  0  0  0  0
  142.4690   77.2060  218.4420 C   0  0  0  0  0  0  0  0  0  0  0  0
  142.9460   78.4790  218.2090 C   0  0  0  0  0  0  0  0  0  0  0  0
  142.0610   79.5160  218.3120 C   0  0  0  0  0  0  0  0  0  0  0  0
  140.7240   79.3590  218.6350 C   0  0  0  0  0  0  0  0  0  0  0  0
  139.6430   80.7360  218.7510 Cl  0  0  0  0  0  0  0  0  0  0  0  0
  140.2570   78.0800  218.8670 C   0  0  0  0  0  0  0  0  0  0  0  0
  141.1270   77.0000  218.7710 C   0  0  0  0  0  0  0  0  0  0  0  0
  140.1330   76.8440  222.0570 C   0  0  0  0  0  0  0  0  0  0  0  0
  138.9570   77.5500  222.0040 C   0  0  0  0  0  0  0  0  0  0  0  0
  138.9410   78.9430  222.0430 C   0  0  0  0  0  0  0  0  0  0  0  0
  140.1380   79.6290  222.1370 C   0  0  0  0  0  0  0  0  0  0  0  0
  140.1900   81.0180  222.1800 C   0  0  0  0  0  0  0  0  0  0  0  0
  141.4040   81.6450  222.2740 C   0  0  0  0  0  0  0  0  0  0  0  0
  141.5010   83.0100  222.3200 F   0  0  0  0  0  0  0  0  0  0  0  0
  142.5560   80.8960  222.3240 C   0  0  0  0  0  0  0  0  0  0  0  0
  142.5460   79.5150  222.2830 C   0  0  0  0  0  0  0  0  0  0  0  0
  141.3100   78.9060  222.1890 C   0  0  0  0  0  0  0  0  0  0  0  0
  141.2730   77.5650  222.1480 N   0  0  0  0  0  0  0  0  0  0  0  0
  142.1890   75.3560  221.3380 H   0  0  0  0  0  0  0  0  0  0  0  0
  142.1390   72.9643  222.3372 H   0  0  0  0  0  0  0  0  0  0  0  0
  140.4596   72.8895  221.6395 H   0  0  0  0  0  0  0  0  0  0  0  0
  144.3998   70.8579  221.0215 H   0  0  0  0  0  0  0  0  0  0  0  0
  143.4064   70.4562  219.6431 H   0  0  0  0  0  0  0  0  0  0  0  0
  145.1357   71.0388  218.1923 H   0  0  0  0  0  0  0  0  0  0  0  0
  146.5090   71.3480  220.6830 H   0  0  0  0  0  0  0  0  0  0  0  0
  146.2710   73.5083  218.9816 H   0  0  0  0  0  0  0  0  0  0  0  0
  144.7864   73.4893  218.0894 H   0  0  0  0  0  0  0  0  0  0  0  0
  145.1441   73.4381  221.2000 H   0  0  0  0  0  0  0  0  0  0  0  0
  143.6354   75.1228  221.2871 H   0  0  0  0  0  0  0  0  0  0  0  0
  144.9059   75.5522  220.0762 H   0  0  0  0  0  0  0  0  0  0  0  0
  144.4168   76.3226  218.4557 H   0  0  0  0  0  0  0  0  0  0  0  0
  143.2097   75.5162  217.3754 H   0  0  0  0  0  0  0  0  0  0  0  0
  144.0006   78.6536  217.9496 H   0  0  0  0  0  0  0  0  0  0  0  0
  142.4330   80.5346  218.1274 H   0  0  0  0  0  0  0  0  0  0  0  0
  139.2007   77.9166  219.1268 H   0  0  0  0  0  0  0  0  0  0  0  0
  140.7577   75.9803  218.9546 H   0  0  0  0  0  0  0  0  0  0  0  0
  138.0052   77.0036  221.9290 H   0  0  0  0  0  0  0  0  0  0  0  0
  137.9877   79.4902  221.9995 H   0  0  0  0  0  0  0  0  0  0  0  0
  139.2630   81.6087  222.1388 H   0  0  0  0  0  0  0  0  0  0  0  0
  143.5223   81.4161  222.3995 H   0  0  0  0  0  0  0  0  0  0  0  0
  143.4764   78.9296  222.3232 H   0  0  0  0  0  0  0  0  0  0  0  0
  1  2  2  0
  2  3  1  0
  3  4  1  0
  4  5  1  0
  5  6  2  0
  5  7  1  0
  7  8  1  0
  8  9  1  0
  9 10  1  0
  9 11  1  0
 11 12  1  0
 12 13  1  0
 13 14  1  0
 14 15  1  0
 15 16  1  0
 16 17  2  0
 17 18  1  0
 18 19  2  0
 19 20  1  0
 19 21  1  0
 21 22  2  0
  2 23  1  0
 23 24  2  0
 24 25  1  0
 25 26  2  0
 26 27  1  0
 27 28  2  0
 28 29  1  0
 28 30  1  0
 30 31  2  0
 31 32  1  0
 32 33  2  0
 12  7  1  0
 22 16  1  0
 33 23  1  0
 32 26  1  0
  3 34  1  0
  4 35  1  0
  4 36  1  0
  8 37  1  0
  8 38  1  0
  9 39  1  6
 10 40  1  0
 11 41  1  0
 11 42  1  0
 12 43  1  1
 13 44  1  0
 13 45  1  0
 15 46  1  0
 15 47  1  0
 17 48  1  0
 18 49  1  0
 21 50  1  0
 22 51  1  0
 24 52  1  0
 25 53  1  0
 27 54  1  0
 30 55  1  0
 31 56  1  0
M  END
>  <smiles>  (47) 
O=C(NCC(=O)N1C[C@H](O)C[C@H]1COCc1ccc(Cl)cc1)c1ccc2cc(F)ccc2n1

>  <score_type>  (47) 
oracle

>  <origin>  (47) 
autodockgpu

>  <m_score__min__energy>  (47) 
-9.4600000000000009

>  <m_primary>  (47) 
energy

>  <rmsd>  (47) 
8.303097682937475

>  <m_score__min__rmsd>  (47) 
8.303097682937475

>  <meeko>  (47) 
{"free_energy": -6.02, "intermolecular_energy": -8.7, "internal_energy": -3.94, "cluster_size": 14, "cluster_id": 9, "rank_in_cluster": 11}

>  <energy>  (47) 
-5.67

>  <cluster_rmsd>  (47) 
1.76

>  <cluster>  (47) 
9

$$$$

     RDKit          3D

 56 59  0  0  0  0  0  0  0  0999 V2000
  141.1260   71.1970  221.3310 O   0  0  0  0  0  0  0  0  0  0  0  0
  140.5550   71.7610  222.2980 C   0  0  0  0  0  0  0  0  0  0  0  0
  140.2000   73.1370  222.2340 N   0  0  0  0  0  0  0  0  0  0  0  0
  140.4770   73.9340  221.0670 C   0  0  0  0  0  0  0  0  0  0  0  0
  141.6000   74.8830  221.2770 C   0  0  0  0  0  0  0  0  0  0  0  0
  141.4250   75.8300  222.0550 O   0  0  0  0  0  0  0  0  0  0  0  0
  142.8010   74.6250  220.5580 N   0  0  0  0  0  0  0  0  0  0  0  0
  143.5610   73.3920  220.4460 C   0  0  0  0  0  0  0  0  0  0  0  0
  144.0070   73.4170  218.9880 C   0  0  2  0  0  0  0  0  0  0  0  0
  145.3800   73.3240  218.8580 O   0  0  0  0  0  0  0  0  0  0  0  0
  143.6010   74.7930  218.4490 C   0  0  0  0  0  0  0  0  0  0  0  0
  143.5730   75.5860  219.7380 C   0  0  1  0  0  0  0  0  0  0  0  0
  142.8680   76.8850  219.6120 C   0  0  0  0  0  0  0  0  0  0  0  0
  141.6350   76.7210  219.0170 O   0  0  0  0  0  0  0  0  0  0  0  0
  140.7460   77.7590  219.1510 C   0  0  0  0  0  0  0  0  0  0  0  0
  141.1280   78.6620  220.3000 C   0  0  0  0  0  0  0  0  0  0  0  0
  141.9020   79.7870  220.1050 C   0  0  0  0  0  0  0  0  0  0  0  0
  142.2010   80.5490  221.2010 C   0  0  0  0  0  0  0  0  0  0  0  0
  141.7720   80.2550  222.4830 C   0  0  0  0  0  0  0  0  0  0  0  0
  142.1930   81.2760  223.8460 Cl  0  0  0  0  0  0  0  0  0  0  0  0
  140.9980   79.1250  222.6680 C   0  0  0  0  0  0  0  0  0  0  0  0
  140.6740   78.3260  221.5780 C   0  0  0  0  0  0  0  0  0  0  0  0
  140.2370   71.0210  223.5240 C   0  0  0  0  0  0  0  0  0  0  0  0
  139.5420   69.8370  223.4990 C   0  0  0  0  0  0  0  0  0  0  0  0
  139.2440   69.1410  224.6680 C   0  0  0  0  0  0  0  0  0  0  0  0
  139.6560   69.6560  225.8830 C   0  0  0  0  0  0  0  0  0  0  0  0
  139.3900   69.0110  227.0860 C   0  0  0  0  0  0  0  0  0  0  0  0
  139.8230   69.5670  228.2610 C   0  0  0  0  0  0  0  0  0  0  0  0
  139.5830   68.9660  229.4670 F   0  0  0  0  0  0  0  0  0  0  0  0
  140.5150   70.7550  228.2380 C   0  0  0  0  0  0  0  0  0  0  0  0
  140.7990   71.4270  227.0640 C   0  0  0  0  0  0  0  0  0  0  0  0
  140.3520   70.8460  225.8940 C   0  0  0  0  0  0  0  0  0  0  0  0
  140.6150   71.4790  224.7400 N   0  0  0  0  0  0  0  0  0  0  0  0
  139.7180   73.5680  223.0780 H   0  0  0  0  0  0  0  0  0  0  0  0
  140.7342   73.2624  220.2346 H   0  0  0  0  0  0  0  0  0  0  0  0
  139.5768   74.5265  220.8468 H   0  0  0  0  0  0  0  0  0  0  0  0
  144.4249   73.3932  221.1270 H   0  0  0  0  0  0  0  0  0  0  0  0
  142.9859   72.4939  220.7155 H   0  0  0  0  0  0  0  0  0  0  0  0
  143.5526   72.5682  218.4559 H   0  0  0  0  0  0  0  0  0  0  0  0
  145.8470   74.1820  218.7660 H   0  0  0  0  0  0  0  0  0  0  0  0
  144.3448   75.1897  217.7423 H   0  0  0  0  0  0  0  0  0  0  0  0
  142.6611   74.8065  217.8776 H   0  0  0  0  0  0  0  0  0  0  0  0
  144.5587   75.8855  220.1236 H   0  0  0  0  0  0  0  0  0  0  0  0
  142.7296   77.3181  220.6136 H   0  0  0  0  0  0  0  0  0  0  0  0
  143.4746   77.5541  218.9840 H   0  0  0  0  0  0  0  0  0  0  0  0
  140.7376   78.3462  218.2209 H   0  0  0  0  0  0  0  0  0  0  0  0
  139.7497   77.3396  219.3546 H   0  0  0  0  0  0  0  0  0  0  0  0
  142.2658   80.0616  219.1039 H   0  0  0  0  0  0  0  0  0  0  0  0
  142.8183   81.4476  221.0545 H   0  0  0  0  0  0  0  0  0  0  0  0
  140.6400   78.8592  223.6736 H   0  0  0  0  0  0  0  0  0  0  0  0
  140.0581   77.4260  221.7219 H   0  0  0  0  0  0  0  0  0  0  0  0
  139.2127   69.4283  222.5323 H   0  0  0  0  0  0  0  0  0  0  0  0
  138.6876   68.1931  224.6250 H   0  0  0  0  0  0  0  0  0  0  0  0
  138.8357   68.0609  227.0941 H   0  0  0  0  0  0  0  0  0  0  0  0
  140.8557   71.1872  229.1905 H   0  0  0  0  0  0  0  0  0  0  0  0
  141.3534   72.3771  227.0620 H   0  0  0  0  0  0  0  0  0  0  0  0
  1  2  2  0
  2  3  1  0
  3  4  1  0
  4  5  1  0
  5  6  2  0
  5  7  1  0
  7  8  1  0
  8  9  1  0
  9 10  1  0
  9 11  1  0
 11 12  1  0
 12 13  1  0
 13 14  1  0
 14 15  1  0
 15 16  1  0
 16 17  2  0
 17 18  1  0
 18 19  2  0
 19 20  1  0
 19 21  1  0
 21 22  2  0
  2 23  1  0
 23 24  2  0
 24 25  1  0
 25 26  2  0
 26 27  1  0
 27 28  2  0
 28 29  1  0
 28 30  1  0
 30 31  2  0
 31 32  1  0
 32 33  2  0
 12  7  1  0
 22 16  1  0
 33 23  1  0
 32 26  1  0
  3 34  1  0
  4 35  1  0
  4 36  1  0
  8 37  1  0
  8 38  1  0
  9 39  1  6
 10 40  1  0
 11 41  1  0
 11 42  1  0
 12 43  1  1
 13 44  1  0
 13 45  1  0
 15 46  1  0
 15 47  1  0
 17 48  1  0
 18 49  1  0
 21 50  1  0
 22 51  1  0
 24 52  1  0
 25 53  1  0
 27 54  1  0
 30 55  1  0
 31 56  1  0
M  END
>  <smiles>  (48) 
O=C(NCC(=O)N1C[C@H](O)C[C@H]1COCc1ccc(Cl)cc1)c1ccc2cc(F)ccc2n1

>  <score_type>  (48) 
oracle

>  <origin>  (48) 
autodockgpu

>  <m_score__min__energy>  (48) 
-9.4600000000000009

>  <m_primary>  (48) 
energy

>  <rmsd>  (48) 
2.677590434969363

>  <m_score__min__rmsd>  (48) 
2.677590434969363

>  <meeko>  (48) 
{"free_energy": -8.66, "intermolecular_energy": -11.34, "internal_energy": -1.67, "cluster_size": 20, "cluster_id": 1, "rank_in_cluster": 6}

>  <energy>  (48) 
-4.84

>  <cluster_rmsd>  (48) 
1.97

>  <cluster>  (48) 
9

$$$$

     RDKit          3D

 56 59  0  0  0  0  0  0  0  0999 V2000
  140.0720   74.5310  222.2610 O   0  0  0  0  0  0  0  0  0  0  0  0
  139.6570   75.5630  221.6770 C   0  0  0  0  0  0  0  0  0  0  0  0
  138.9430   75.4680  220.4490 N   0  0  0  0  0  0  0  0  0  0  0  0
  138.6700   74.1970  219.8320 C   0  0  0  0  0  0  0  0  0  0  0  0
  137.3210   73.6750  220.1720 C   0  0  0  0  0  0  0  0  0  0  0  0
  136.4910   73.5670  219.2600 O   0  0  0  0  0  0  0  0  0  0  0  0
  137.0880   73.3380  221.5350 N   0  0  0  0  0  0  0  0  0  0  0  0
  136.0910   73.8580  222.4550 C   0  0  0  0  0  0  0  0  0  0  0  0
  135.6890   72.6110  223.2350 C   0  0  2  0  0  0  0  0  0  0  0  0
  135.8540   72.7700  224.5990 O   0  0  0  0  0  0  0  0  0  0  0  0
  136.6590   71.5090  222.7950 C   0  0  0  0  0  0  0  0  0  0  0  0
  137.8340   72.3520  222.3490 C   0  0  1  0  0  0  0  0  0  0  0  0
  138.8180   71.6020  221.5310 C   0  0  0  0  0  0  0  0  0  0  0  0
  139.8290   71.0950  222.3190 O   0  0  0  0  0  0  0  0  0  0  0  0
  140.2310   71.8730  223.3770 C   0  0  0  0  0  0  0  0  0  0  0  0
  140.3440   71.0570  224.6430 C   0  0  0  0  0  0  0  0  0  0  0  0
  141.0260   71.5300  225.7460 C   0  0  0  0  0  0  0  0  0  0  0  0
  141.0780   70.7260  226.8510 C   0  0  0  0  0  0  0  0  0  0  0  0
  140.4900   69.4760  226.9230 C   0  0  0  0  0  0  0  0  0  0  0  0
  140.5970   68.4960  228.3740 Cl  0  0  0  0  0  0  0  0  0  0  0  0
  139.8100   69.0110  225.8130 C   0  0  0  0  0  0  0  0  0  0  0  0
  139.7350   69.8000  224.6710 C   0  0  0  0  0  0  0  0  0  0  0  0
  139.8920   76.8980  222.2380 C   0  0  0  0  0  0  0  0  0  0  0  0
  138.8690   77.6740  222.7220 C   0  0  0  0  0  0  0  0  0  0  0  0
  139.1020   78.9400  223.2530 C   0  0  0  0  0  0  0  0  0  0  0  0
  140.3950   79.4270  223.2930 C   0  0  0  0  0  0  0  0  0  0  0  0
  140.6950   80.6830  223.8100 C   0  0  0  0  0  0  0  0  0  0  0  0
  141.9950   81.1140  223.8250 C   0  0  0  0  0  0  0  0  0  0  0  0
  142.3350   82.3430  224.3250 F   0  0  0  0  0  0  0  0  0  0  0  0
  142.9880   80.3030  223.3300 C   0  0  0  0  0  0  0  0  0  0  0  0
  142.7310   79.0490  222.8070 C   0  0  0  0  0  0  0  0  0  0  0  0
  141.4130   78.6370  222.8040 C   0  0  0  0  0  0  0  0  0  0  0  0
  141.1370   77.4230  222.3020 N   0  0  0  0  0  0  0  0  0  0  0  0
  138.6120   76.3700  219.9930 H   0  0  0  0  0  0  0  0  0  0  0  0
  138.7379   74.3135  218.7403 H   0  0  0  0  0  0  0  0  0  0  0  0
  139.4109   73.4771  220.2099 H   0  0  0  0  0  0  0  0  0  0  0  0
  136.5214   74.6220  223.1191 H   0  0  0  0  0  0  0  0  0  0  0  0
  135.2474   74.3567  221.9554 H   0  0  0  0  0  0  0  0  0  0  0  0
  134.6297   72.3881  223.0394 H   0  0  0  0  0  0  0  0  0  0  0  0
  136.7640   73.0070  224.8810 H   0  0  0  0  0  0  0  0  0  0  0  0
  136.9272   70.8447  223.6297 H   0  0  0  0  0  0  0  0  0  0  0  0
  136.2644   70.8243  222.0298 H   0  0  0  0  0  0  0  0  0  0  0  0
  138.4565   72.7522  223.1629 H   0  0  0  0  0  0  0  0  0  0  0  0
  138.3057   70.7711  221.0238 H   0  0  0  0  0  0  0  0  0  0  0  0
  139.2585   72.2895  220.7939 H   0  0  0  0  0  0  0  0  0  0  0  0
  141.2118   72.3142  223.1457 H   0  0  0  0  0  0  0  0  0  0  0  0
  139.4794   72.6603  223.5359 H   0  0  0  0  0  0  0  0  0  0  0  0
  141.5101   72.5177  225.7365 H   0  0  0  0  0  0  0  0  0  0  0  0
  141.6193   71.0950  227.7346 H   0  0  0  0  0  0  0  0  0  0  0  0
  139.3305   68.0212  225.8333 H   0  0  0  0  0  0  0  0  0  0  0  0
  139.1942   69.4333  223.7861 H   0  0  0  0  0  0  0  0  0  0  0  0
  137.8400   77.2866  222.6897 H   0  0  0  0  0  0  0  0  0  0  0  0
  138.2672   79.5452  223.6360 H   0  0  0  0  0  0  0  0  0  0  0  0
  139.8939   81.3256  224.2040 H   0  0  0  0  0  0  0  0  0  0  0  0
  144.0265   80.6651  223.3506 H   0  0  0  0  0  0  0  0  0  0  0  0
  143.5362   78.4115  222.4130 H   0  0  0  0  0  0  0  0  0  0  0  0
  1  2  2  0
  2  3  1  0
  3  4  1  0
  4  5  1  0
  5  6  2  0
  5  7  1  0
  7  8  1  0
  8  9  1  0
  9 10  1  0
  9 11  1  0
 11 12  1  0
 12 13  1  0
 13 14  1  0
 14 15  1  0
 15 16  1  0
 16 17  2  0
 17 18  1  0
 18 19  2  0
 19 20  1  0
 19 21  1  0
 21 22  2  0
  2 23  1  0
 23 24  2  0
 24 25  1  0
 25 26  2  0
 26 27  1  0
 27 28  2  0
 28 29  1  0
 28 30  1  0
 30 31  2  0
 31 32  1  0
 32 33  2  0
 12  7  1  0
 22 16  1  0
 33 23  1  0
 32 26  1  0
  3 34  1  0
  4 35  1  0
  4 36  1  0
  8 37  1  0
  8 38  1  0
  9 39  1  1
 10 40  1  0
 11 41  1  0
 11 42  1  0
 12 43  1  1
 13 44  1  0
 13 45  1  0
 15 46  1  0
 15 47  1  0
 17 48  1  0
 18 49  1  0
 21 50  1  0
 22 51  1  0
 24 52  1  0
 25 53  1  0
 27 54  1  0
 30 55  1  0
 31 56  1  0
M  END
>  <smiles>  (49) 
O=C(NCC(=O)N1C[C@H](O)C[C@H]1COCc1ccc(Cl)cc1)c1ccc2cc(F)ccc2n1

>  <score_type>  (49) 
oracle

>  <origin>  (49) 
autodockgpu

>  <m_score__min__energy>  (49) 
-9.4600000000000009

>  <m_primary>  (49) 
energy

>  <rmsd>  (49) 
8.196730099070825

>  <m_score__min__rmsd>  (49) 
8.196730099070825

>  <meeko>  (49) 
{"free_energy": -8.08, "intermolecular_energy": -10.76, "internal_energy": -1.79, "cluster_size": 1, "cluster_id": 4, "rank_in_cluster": 1}

>  <energy>  (49) 
-4.98

>  <cluster_rmsd>  (49) 
0.0

>  <cluster>  (49) 
10

$$$$

     RDKit          3D

 56 59  0  0  0  0  0  0  0  0999 V2000
  138.7540   75.3670  221.6920 O   0  0  0  0  0  0  0  0  0  0  0  0
  139.9100   75.7620  221.9840 C   0  0  0  0  0  0  0  0  0  0  0  0
  141.0300   74.8930  221.8610 N   0  0  0  0  0  0  0  0  0  0  0  0
  140.8850   73.5370  221.4000 C   0  0  0  0  0  0  0  0  0  0  0  0
  141.5810   73.2940  220.1100 C   0  0  0  0  0  0  0  0  0  0  0  0
  140.8930   73.1920  219.0870 O   0  0  0  0  0  0  0  0  0  0  0  0
  143.0010   73.1970  220.1550 N   0  0  0  0  0  0  0  0  0  0  0  0
  143.8390   72.0220  220.3170 C   0  0  0  0  0  0  0  0  0  0  0  0
  145.0010   72.3210  219.3750 C   0  0  2  0  0  0  0  0  0  0  0  0
  146.2230   72.2830  220.0220 O   0  0  0  0  0  0  0  0  0  0  0  0
  144.7940   73.7620  218.8980 C   0  0  0  0  0  0  0  0  0  0  0  0
  143.9740   74.3080  220.0460 C   0  0  1  0  0  0  0  0  0  0  0  0
  143.3020   75.5920  219.7300 C   0  0  0  0  0  0  0  0  0  0  0  0
  142.5830   75.4960  218.5580 O   0  0  0  0  0  0  0  0  0  0  0  0
  142.7180   76.5330  217.6680 C   0  0  0  0  0  0  0  0  0  0  0  0
  142.3010   77.8450  218.2900 C   0  0  0  0  0  0  0  0  0  0  0  0
  142.9550   79.0230  217.9920 C   0  0  0  0  0  0  0  0  0  0  0  0
  142.5120   80.1650  218.6000 C   0  0  0  0  0  0  0  0  0  0  0  0
  141.4520   80.2030  219.4890 C   0  0  0  0  0  0  0  0  0  0  0  0
  140.9360   81.7050  220.2330 Cl  0  0  0  0  0  0  0  0  0  0  0  0
  140.8040   79.0180  219.7810 C   0  0  0  0  0  0  0  0  0  0  0  0
  141.2270   77.8360  219.1820 C   0  0  0  0  0  0  0  0  0  0  0  0
  140.1450   77.1290  222.4600 C   0  0  0  0  0  0  0  0  0  0  0  0
  139.1140   77.9550  222.8370 C   0  0  0  0  0  0  0  0  0  0  0  0
  139.3470   79.2520  223.2890 C   0  0  0  0  0  0  0  0  0  0  0  0
  140.6460   79.7190  223.3570 C   0  0  0  0  0  0  0  0  0  0  0  0
  140.9450   81.0040  223.7980 C   0  0  0  0  0  0  0  0  0  0  0  0
  142.2510   81.4150  223.8460 C   0  0  0  0  0  0  0  0  0  0  0  0
  142.5910   82.6700  224.2740 F   0  0  0  0  0  0  0  0  0  0  0  0
  143.2500   80.5540  223.4580 C   0  0  0  0  0  0  0  0  0  0  0  0
  142.9950   79.2700  223.0140 C   0  0  0  0  0  0  0  0  0  0  0  0
  141.6700   78.8800  222.9750 C   0  0  0  0  0  0  0  0  0  0  0  0
  141.3950   77.6380  222.5470 N   0  0  0  0  0  0  0  0  0  0  0  0
  141.9880   75.2740  222.1200 H   0  0  0  0  0  0  0  0  0  0  0  0
  141.3040   72.8602  222.1592 H   0  0  0  0  0  0  0  0  0  0  0  0
  139.8125   73.3528  221.2395 H   0  0  0  0  0  0  0  0  0  0  0  0
  144.1846   71.9191  221.3562 H   0  0  0  0  0  0  0  0  0  0  0  0
  143.3219   71.0772  220.0935 H   0  0  0  0  0  0  0  0  0  0  0  0
  145.0150   71.5734  218.5682 H   0  0  0  0  0  0  0  0  0  0  0  0
  146.2230   71.8000  220.8770 H   0  0  0  0  0  0  0  0  0  0  0  0
  145.7493   74.2964  218.7891 H   0  0  0  0  0  0  0  0  0  0  0  0
  144.3237   73.8576  217.9082 H   0  0  0  0  0  0  0  0  0  0  0  0
  144.5468   74.5556  220.9519 H   0  0  0  0  0  0  0  0  0  0  0  0
  142.6184   75.8523  220.5515 H   0  0  0  0  0  0  0  0  0  0  0  0
  144.0702   76.3698  219.6080 H   0  0  0  0  0  0  0  0  0  0  0  0
  143.7703   76.6027  217.3553 H   0  0  0  0  0  0  0  0  0  0  0  0
  142.0683   76.3359  216.8026 H   0  0  0  0  0  0  0  0  0  0  0  0
  143.8022   79.0427  217.2907 H   0  0  0  0  0  0  0  0  0  0  0  0
  143.0283   81.1084  218.3690 H   0  0  0  0  0  0  0  0  0  0  0  0
  139.9578   79.0094  220.4837 H   0  0  0  0  0  0  0  0  0  0  0  0
  140.7135   76.8908  219.4119 H   0  0  0  0  0  0  0  0  0  0  0  0
  138.0802   77.5835  222.7806 H   0  0  0  0  0  0  0  0  0  0  0  0
  138.5073   79.8966  223.5881 H   0  0  0  0  0  0  0  0  0  0  0  0
  140.1383   81.6854  224.1061 H   0  0  0  0  0  0  0  0  0  0  0  0
  144.2931   80.9004  223.5026 H   0  0  0  0  0  0  0  0  0  0  0  0
  143.8059   78.5930  222.7073 H   0  0  0  0  0  0  0  0  0  0  0  0
  1  2  2  0
  2  3  1  0
  3  4  1  0
  4  5  1  0
  5  6  2  0
  5  7  1  0
  7  8  1  0
  8  9  1  0
  9 10  1  0
  9 11  1  0
 11 12  1  0
 12 13  1  0
 13 14  1  0
 14 15  1  0
 15 16  1  0
 16 17  2  0
 17 18  1  0
 18 19  2  0
 19 20  1  0
 19 21  1  0
 21 22  2  0
  2 23  1  0
 23 24  2  0
 24 25  1  0
 25 26  2  0
 26 27  1  0
 27 28  2  0
 28 29  1  0
 28 30  1  0
 30 31  2  0
 31 32  1  0
 32 33  2  0
 12  7  1  0
 22 16  1  0
 33 23  1  0
 32 26  1  0
  3 34  1  0
  4 35  1  0
  4 36  1  0
  8 37  1  0
  8 38  1  0
  9 39  1  6
 10 40  1  0
 11 41  1  0
 11 42  1  0
 12 43  1  1
 13 44  1  0
 13 45  1  0
 15 46  1  0
 15 47  1  0
 17 48  1  0
 18 49  1  0
 21 50  1  0
 22 51  1  0
 24 52  1  0
 25 53  1  0
 27 54  1  0
 30 55  1  0
 31 56  1  0
M  END
>  <smiles>  (50) 
O=C(NCC(=O)N1C[C@H](O)C[C@H]1COCc1ccc(Cl)cc1)c1ccc2cc(F)ccc2n1

>  <score_type>  (50) 
oracle

>  <origin>  (50) 
autodockgpu

>  <m_score__min__energy>  (50) 
-9.4600000000000009

>  <m_primary>  (50) 
energy

>  <rmsd>  (50) 
7.960863448194039

>  <m_score__min__rmsd>  (50) 
7.960863448194039

>  <meeko>  (50) 
{"free_energy": -6.98, "intermolecular_energy": -9.67, "internal_energy": -3.35, "cluster_size": 14, "cluster_id": 9, "rank_in_cluster": 1}

>  <energy>  (50) 
-4.74

>  <cluster_rmsd>  (50) 
0.0

>  <cluster>  (50) 
11

$$$$
