
     RDKit          3D

 46 49  0  0  0  0  0  0  0  0999 V2000
  142.8770   74.8620  220.8160 O   0  0  0  0  0  0  0  0  0  0  0  0
  141.7360   74.6480  221.3080 C   0  0  0  0  0  0  0  0  0  0  0  0
  140.9580   75.7520  221.5530 C   0  0  0  0  0  0  0  0  0  0  0  0
  141.4110   77.0200  221.2720 C   0  0  0  0  0  0  0  0  0  0  0  0
  140.5530   78.0660  221.5530 C   0  0  0  0  0  0  0  0  0  0  0  0
  139.2990   77.8340  222.0930 C   0  0  0  0  0  0  0  0  0  0  0  0
  138.2340   79.1750  222.4400 Cl  0  0  0  0  0  0  0  0  0  0  0  0
  138.8440   76.5500  222.3770 C   0  0  0  0  0  0  0  0  0  0  0  0
  139.7160   75.5250  222.0880 C   0  0  0  0  0  0  0  0  0  0  0  0
  139.3480   74.2860  222.3310 N   0  0  0  0  0  0  0  0  0  0  0  0
  140.1000   73.1610  222.0980 C   0  0  0  0  0  0  0  0  0  0  0  0
  139.4900   71.9300  222.4920 C   0  0  0  0  0  0  0  0  0  0  0  0
  139.9760   70.7970  222.8940 C   0  0  0  0  0  0  0  0  0  0  0  0
  139.9750   70.3270  224.2830 C   0  0  0  0  0  0  0  0  0  0  0  0
  140.3890   71.1770  225.3030 C   0  0  0  0  0  0  0  0  0  0  0  0
  140.4140   70.8050  226.6280 C   0  0  0  0  0  0  0  0  0  0  0  0
  140.0210   69.5410  227.0050 C   0  0  0  0  0  0  0  0  0  0  0  0
  139.6080   68.6830  226.0100 C   0  0  0  0  0  0  0  0  0  0  0  0
  139.2000   67.3860  226.3710 O   0  0  0  0  0  0  0  0  0  0  0  0
  139.5830   69.0660  224.6640 C   0  0  0  0  0  0  0  0  0  0  0  0
  141.3090   73.3660  221.5790 N   0  0  0  0  0  0  0  0  0  0  0  0
  142.2390   72.3350  221.2180 C   0  0  0  0  0  0  0  0  0  0  0  0
  142.8530   72.5020  219.8820 C   0  0  0  0  0  0  0  0  0  0  0  0
  142.1970   72.4640  218.6790 C   0  0  0  0  0  0  0  0  0  0  0  0
  142.8410   72.6140  217.4540 C   0  0  0  0  0  0  0  0  0  0  0  0
  144.1870   72.8080  217.3970 C   0  0  0  0  0  0  0  0  0  0  0  0
  144.8850   72.8530  218.5780 C   0  0  0  0  0  0  0  0  0  0  0  0
  146.2670   73.0510  218.5440 O   0  0  0  0  0  0  0  0  0  0  0  0
  144.2430   72.7040  219.7810 C   0  0  0  0  0  0  0  0  0  0  0  0
  142.4093   77.1932  220.8438 H   0  0  0  0  0  0  0  0  0  0  0  0
  140.8707   79.0983  221.3447 H   0  0  0  0  0  0  0  0  0  0  0  0
  137.8482   76.3654  222.8063 H   0  0  0  0  0  0  0  0  0  0  0  0
  138.3911   71.9471  222.4449 H   0  0  0  0  0  0  0  0  0  0  0  0
  140.4232   70.1381  222.1351 H   0  0  0  0  0  0  0  0  0  0  0  0
  140.7118   72.1947  225.0383 H   0  0  0  0  0  0  0  0  0  0  0  0
  140.7503   71.5228  227.3907 H   0  0  0  0  0  0  0  0  0  0  0  0
  140.0362   69.2284  228.0595 H   0  0  0  0  0  0  0  0  0  0  0  0
  139.5650   66.9540  227.1990 H   0  0  0  0  0  0  0  0  0  0  0  0
  139.2453   68.3487  223.9015 H   0  0  0  0  0  0  0  0  0  0  0  0
  143.0445   72.3215  221.9669 H   0  0  0  0  0  0  0  0  0  0  0  0
  141.6670   71.3960  221.1840 H   0  0  0  0  0  0  0  0  0  0  0  0
  141.1082   72.3073  218.6817 H   0  0  0  0  0  0  0  0  0  0  0  0
  142.2564   72.5754  216.5230 H   0  0  0  0  0  0  0  0  0  0  0  0
  144.7010   72.9254  216.4316 H   0  0  0  0  0  0  0  0  0  0  0  0
  146.6110   74.0150  218.6000 H   0  0  0  0  0  0  0  0  0  0  0  0
  144.8385   72.7440  220.7050 H   0  0  0  0  0  0  0  0  0  0  0  0
  1  2  2  0
  2  3  1  0
  3  4  2  0
  4  5  1  0
  5  6  2  0
  6  7  1  0
  6  8  1  0
  8  9  2  0
  9 10  1  0
 10 11  2  0
 11 12  1  0
 12 13  2  0
 13 14  1  0
 14 15  2  0
 15 16  1  0
 16 17  2  0
 17 18  1  0
 18 19  1  0
 18 20  2  0
 11 21  1  0
 21 22  1  0
 22 23  1  0
 23 24  2  0
 24 25  1  0
 25 26  2  0
 26 27  1  0
 27 28  1  0
 27 29  2  0
 21  2  1  0
 29 23  1  0
  9  3  1  0
 20 14  1  0
  4 30  1  0
  5 31  1  0
  8 32  1  0
 12 33  1  0
 13 34  1  0
 15 35  1  0
 16 36  1  0
 17 37  1  0
 19 38  1  0
 20 39  1  0
 22 40  1  0
 22 41  1  0
 24 42  1  0
 25 43  1  0
 26 44  1  0
 28 45  1  0
 29 46  1  0
M  END
>  <smiles>  (1) 
O=c1c2ccc(Cl)cc2nc(/C=C/c2cccc(O)c2)n1Cc1cccc(O)c1

>  <score_type>  (1) 
oracle

>  <origin>  (1) 
autodockgpu

>  <m_score__min__energy>  (1) 
-9.1099999999999994

>  <m_primary>  (1) 
energy

>  <rmsd>  (1) 
7.7108891276667055

>  <m_score__min__rmsd>  (1) 
7.7108891276667055

>  <meeko>  (1) 
{"free_energy": -8.15, "intermolecular_energy": -10.24, "internal_energy": -0.56, "cluster_size": 16, "cluster_id": 1, "rank_in_cluster": 10}

>  <energy>  (1) 
-9.11

>  <cluster_rmsd>  (1) 
0.0

>  <cluster>  (1) 
1

$$$$

     RDKit          3D

 46 49  0  0  0  0  0  0  0  0999 V2000
  142.1690   75.2070  218.8750 O   0  0  0  0  0  0  0  0  0  0  0  0
  141.5810   75.1120  219.9860 C   0  0  0  0  0  0  0  0  0  0  0  0
  141.4740   76.2640  220.7240 C   0  0  0  0  0  0  0  0  0  0  0  0
  141.9860   77.4550  220.2630 C   0  0  0  0  0  0  0  0  0  0  0  0
  141.8270   78.5590  221.0780 C   0  0  0  0  0  0  0  0  0  0  0  0
  141.1810   78.4570  222.2980 C   0  0  0  0  0  0  0  0  0  0  0  0
  140.9940   79.8700  223.3100 Cl  0  0  0  0  0  0  0  0  0  0  0  0
  140.6650   77.2510  222.7620 C   0  0  0  0  0  0  0  0  0  0  0  0
  140.8360   76.1660  221.9330 C   0  0  0  0  0  0  0  0  0  0  0  0
  140.3710   74.9940  222.3110 N   0  0  0  0  0  0  0  0  0  0  0  0
  140.4600   73.8240  221.5990 C   0  0  0  0  0  0  0  0  0  0  0  0
  139.9150   72.6750  222.2490 C   0  0  0  0  0  0  0  0  0  0  0  0
  140.4170   71.5200  222.5610 C   0  0  0  0  0  0  0  0  0  0  0  0
  140.3030   70.8820  223.8760 C   0  0  0  0  0  0  0  0  0  0  0  0
  140.7170   71.5630  225.0160 C   0  0  0  0  0  0  0  0  0  0  0  0
  140.6390   71.0270  226.2810 C   0  0  0  0  0  0  0  0  0  0  0  0
  140.1370   69.7600  226.4730 C   0  0  0  0  0  0  0  0  0  0  0  0
  139.7230   69.0680  225.3570 C   0  0  0  0  0  0  0  0  0  0  0  0
  139.2050   67.7710  225.5280 O   0  0  0  0  0  0  0  0  0  0  0  0
  139.8020   69.6170  224.0720 C   0  0  0  0  0  0  0  0  0  0  0  0
  141.0790   73.9040  220.4210 N   0  0  0  0  0  0  0  0  0  0  0  0
  141.2450   72.8170  219.5000 C   0  0  0  0  0  0  0  0  0  0  0  0
  142.5670   72.1550  219.5640 C   0  0  0  0  0  0  0  0  0  0  0  0
  142.8220   70.9000  220.0500 C   0  0  0  0  0  0  0  0  0  0  0  0
  144.0970   70.3430  220.0940 C   0  0  0  0  0  0  0  0  0  0  0  0
  145.1750   71.0410  219.6440 C   0  0  0  0  0  0  0  0  0  0  0  0
  144.9670   72.3040  219.1470 C   0  0  0  0  0  0  0  0  0  0  0  0
  146.0580   73.0390  218.6800 O   0  0  0  0  0  0  0  0  0  0  0  0
  143.7080   72.8450  219.1080 C   0  0  0  0  0  0  0  0  0  0  0  0
  142.4976   77.5248  219.2917 H   0  0  0  0  0  0  0  0  0  0  0  0
  142.2196   79.5337  220.7526 H   0  0  0  0  0  0  0  0  0  0  0  0
  140.1520   77.1699  223.7317 H   0  0  0  0  0  0  0  0  0  0  0  0
  138.8616   72.7925  222.5432 H   0  0  0  0  0  0  0  0  0  0  0  0
  140.9701   70.9784  221.7795 H   0  0  0  0  0  0  0  0  0  0  0  0
  141.1259   72.5777  224.9009 H   0  0  0  0  0  0  0  0  0  0  0  0
  140.9805   71.6156  227.1453 H   0  0  0  0  0  0  0  0  0  0  0  0
  140.0692   69.3179  227.4780 H   0  0  0  0  0  0  0  0  0  0  0  0
  139.4690   67.2230  226.3250 H   0  0  0  0  0  0  0  0  0  0  0  0
  139.4589   69.0288  223.2081 H   0  0  0  0  0  0  0  0  0  0  0  0
  140.4727   72.0637  219.7148 H   0  0  0  0  0  0  0  0  0  0  0  0
  141.1584   73.2460  218.4908 H   0  0  0  0  0  0  0  0  0  0  0  0
  141.9774   70.3027  220.4241 H   0  0  0  0  0  0  0  0  0  0  0  0
  144.2345   69.3286  220.4965 H   0  0  0  0  0  0  0  0  0  0  0  0
  146.1846   70.6057  219.6774 H   0  0  0  0  0  0  0  0  0  0  0  0
  145.9550   74.0580  218.6210 H   0  0  0  0  0  0  0  0  0  0  0  0
  143.5831   73.8604  218.7038 H   0  0  0  0  0  0  0  0  0  0  0  0
  1  2  2  0
  2  3  1  0
  3  4  2  0
  4  5  1  0
  5  6  2  0
  6  7  1  0
  6  8  1  0
  8  9  2  0
  9 10  1  0
 10 11  2  0
 11 12  1  0
 12 13  2  0
 13 14  1  0
 14 15  2  0
 15 16  1  0
 16 17  2  0
 17 18  1  0
 18 19  1  0
 18 20  2  0
 11 21  1  0
 21 22  1  0
 22 23  1  0
 23 24  2  0
 24 25  1  0
 25 26  2  0
 26 27  1  0
 27 28  1  0
 27 29  2  0
 21  2  1  0
 29 23  1  0
  9  3  1  0
 20 14  1  0
  4 30  1  0
  5 31  1  0
  8 32  1  0
 12 33  1  0
 13 34  1  0
 15 35  1  0
 16 36  1  0
 17 37  1  0
 19 38  1  0
 20 39  1  0
 22 40  1  0
 22 41  1  0
 24 42  1  0
 25 43  1  0
 26 44  1  0
 28 45  1  0
 29 46  1  0
M  END
>  <smiles>  (2) 
O=c1c2ccc(Cl)cc2nc(/C=C/c2cccc(O)c2)n1Cc1cccc(O)c1

>  <score_type>  (2) 
oracle

>  <origin>  (2) 
autodockgpu

>  <m_score__min__energy>  (2) 
-9.1099999999999994

>  <m_primary>  (2) 
energy

>  <rmsd>  (2) 
8.273722179914852

>  <m_score__min__rmsd>  (2) 
8.273722179914852

>  <meeko>  (2) 
{"free_energy": -8.14, "intermolecular_energy": -10.23, "internal_energy": -0.98, "cluster_size": 16, "cluster_id": 1, "rank_in_cluster": 12}

>  <energy>  (2) 
-8.55

>  <cluster_rmsd>  (2) 
0.79

>  <cluster>  (2) 
1

$$$$

     RDKit          3D

 46 49  0  0  0  0  0  0  0  0999 V2000
  142.5540   75.0640  219.5920 O   0  0  0  0  0  0  0  0  0  0  0  0
  141.7190   74.7190  220.4700 C   0  0  0  0  0  0  0  0  0  0  0  0
  140.9720   75.7230  221.0340 C   0  0  0  0  0  0  0  0  0  0  0  0
  141.1380   77.0340  220.6510 C   0  0  0  0  0  0  0  0  0  0  0  0
  140.3390   77.9720  221.2770 C   0  0  0  0  0  0  0  0  0  0  0  0
  139.4190   77.5950  222.2410 C   0  0  0  0  0  0  0  0  0  0  0  0
  138.4210   78.8020  223.0170 Cl  0  0  0  0  0  0  0  0  0  0  0  0
  139.2550   76.2680  222.6260 C   0  0  0  0  0  0  0  0  0  0  0  0
  140.0610   75.3530  221.9900 C   0  0  0  0  0  0  0  0  0  0  0  0
  139.9560   74.0800  222.3060 N   0  0  0  0  0  0  0  0  0  0  0  0
  140.6860   73.0520  221.7620 C   0  0  0  0  0  0  0  0  0  0  0  0
  140.4150   71.7600  222.3100 C   0  0  0  0  0  0  0  0  0  0  0  0
  139.5480   71.3380  223.1770 C   0  0  0  0  0  0  0  0  0  0  0  0
  139.8730   70.5880  224.3940 C   0  0  0  0  0  0  0  0  0  0  0  0
  140.7150   71.1480  225.3500 C   0  0  0  0  0  0  0  0  0  0  0  0
  141.0620   70.5030  226.5150 C   0  0  0  0  0  0  0  0  0  0  0  0
  140.5800   69.2440  226.7870 C   0  0  0  0  0  0  0  0  0  0  0  0
  139.7460   68.6700  225.8530 C   0  0  0  0  0  0  0  0  0  0  0  0
  139.2400   67.3830  226.1080 O   0  0  0  0  0  0  0  0  0  0  0  0
  139.3940   69.3300  224.6690 C   0  0  0  0  0  0  0  0  0  0  0  0
  141.5750   73.3960  220.8320 N   0  0  0  0  0  0  0  0  0  0  0  0
  142.4080   72.4810  220.1070 C   0  0  0  0  0  0  0  0  0  0  0  0
  143.8500   72.8170  220.1250 C   0  0  0  0  0  0  0  0  0  0  0  0
  144.6210   73.0170  221.2390 C   0  0  0  0  0  0  0  0  0  0  0  0
  145.9720   73.3460  221.1830 C   0  0  0  0  0  0  0  0  0  0  0  0
  146.6020   73.4880  219.9850 C   0  0  0  0  0  0  0  0  0  0  0  0
  145.8690   73.2980  218.8410 C   0  0  0  0  0  0  0  0  0  0  0  0
  146.4930   73.4380  217.6010 O   0  0  0  0  0  0  0  0  0  0  0  0
  144.5370   72.9730  218.9050 C   0  0  0  0  0  0  0  0  0  0  0  0
  141.8715   77.3218  219.8834 H   0  0  0  0  0  0  0  0  0  0  0  0
  140.4353   79.0336  221.0055 H   0  0  0  0  0  0  0  0  0  0  0  0
  138.5250   75.9689  223.3926 H   0  0  0  0  0  0  0  0  0  0  0  0
  141.0708   70.9680  221.9195 H   0  0  0  0  0  0  0  0  0  0  0  0
  138.4879   71.5597  222.9847 H   0  0  0  0  0  0  0  0  0  0  0  0
  141.1222   72.1531  225.1659 H   0  0  0  0  0  0  0  0  0  0  0  0
  141.7304   70.9985  227.2346 H   0  0  0  0  0  0  0  0  0  0  0  0
  140.8498   68.7163  227.7137 H   0  0  0  0  0  0  0  0  0  0  0  0
  139.5890   66.8470  226.8810 H   0  0  0  0  0  0  0  0  0  0  0  0
  138.7252   68.8347  223.9497 H   0  0  0  0  0  0  0  0  0  0  0  0
  142.2829   71.4804  220.5465 H   0  0  0  0  0  0  0  0  0  0  0  0
  142.0880   72.5322  219.0558 H   0  0  0  0  0  0  0  0  0  0  0  0
  144.1490   72.9124  222.2271 H   0  0  0  0  0  0  0  0  0  0  0  0
  146.5361   73.4927  222.1159 H   0  0  0  0  0  0  0  0  0  0  0  0
  147.6697   73.7480  219.9354 H   0  0  0  0  0  0  0  0  0  0  0  0
  146.5050   74.3710  217.1760 H   0  0  0  0  0  0  0  0  0  0  0  0
  143.9834   72.8285  217.9655 H   0  0  0  0  0  0  0  0  0  0  0  0
  1  2  2  0
  2  3  1  0
  3  4  2  0
  4  5  1  0
  5  6  2  0
  6  7  1  0
  6  8  1  0
  8  9  2  0
  9 10  1  0
 10 11  2  0
 11 12  1  0
 12 13  2  0
 13 14  1  0
 14 15  2  0
 15 16  1  0
 16 17  2  0
 17 18  1  0
 18 19  1  0
 18 20  2  0
 11 21  1  0
 21 22  1  0
 22 23  1  0
 23 24  2  0
 24 25  1  0
 25 26  2  0
 26 27  1  0
 27 28  1  0
 27 29  2  0
 21  2  1  0
 29 23  1  0
  9  3  1  0
 20 14  1  0
  4 30  1  0
  5 31  1  0
  8 32  1  0
 12 33  1  0
 13 34  1  0
 15 35  1  0
 16 36  1  0
 17 37  1  0
 19 38  1  0
 20 39  1  0
 22 40  1  0
 22 41  1  0
 24 42  1  0
 25 43  1  0
 26 44  1  0
 28 45  1  0
 29 46  1  0
M  END
>  <smiles>  (3) 
O=c1c2ccc(Cl)cc2nc(/C=C/c2cccc(O)c2)n1Cc1cccc(O)c1

>  <score_type>  (3) 
oracle

>  <origin>  (3) 
autodockgpu

>  <m_score__min__energy>  (3) 
-9.1099999999999994

>  <m_primary>  (3) 
energy

>  <rmsd>  (3) 
7.767297484503665

>  <m_score__min__rmsd>  (3) 
7.767297484503665

>  <meeko>  (3) 
{"free_energy": -9.11, "intermolecular_energy": -11.19, "internal_energy": -0.77, "cluster_size": 16, "cluster_id": 1, "rank_in_cluster": 1}

>  <energy>  (3) 
-8.55

>  <cluster_rmsd>  (3) 
1.3

>  <cluster>  (3) 
1

$$$$

     RDKit          3D

 46 49  0  0  0  0  0  0  0  0999 V2000
  141.1080   75.0190  221.9050 O   0  0  0  0  0  0  0  0  0  0  0  0
  141.4950   75.9260  221.1200 C   0  0  0  0  0  0  0  0  0  0  0  0
  141.2840   77.2200  221.5260 C   0  0  0  0  0  0  0  0  0  0  0  0
  140.6800   77.4990  222.7300 C   0  0  0  0  0  0  0  0  0  0  0  0
  140.5130   78.8320  223.0510 C   0  0  0  0  0  0  0  0  0  0  0  0
  140.9380   79.8300  222.1910 C   0  0  0  0  0  0  0  0  0  0  0  0
  140.7140   81.5100  222.6200 Cl  0  0  0  0  0  0  0  0  0  0  0  0
  141.5490   79.5450  220.9740 C   0  0  0  0  0  0  0  0  0  0  0  0
  141.7040   78.2110  220.6770 C   0  0  0  0  0  0  0  0  0  0  0  0
  142.2750   77.8710  219.5410 N   0  0  0  0  0  0  0  0  0  0  0  0
  142.5010   76.5890  219.1040 C   0  0  0  0  0  0  0  0  0  0  0  0
  143.0980   76.4860  217.8100 C   0  0  0  0  0  0  0  0  0  0  0  0
  143.2130   75.5030  216.9710 C   0  0  0  0  0  0  0  0  0  0  0  0
  144.4570   75.1070  216.3050 C   0  0  0  0  0  0  0  0  0  0  0  0
  145.1080   76.0030  215.4630 C   0  0  0  0  0  0  0  0  0  0  0  0
  146.2790   75.7000  214.8050 C   0  0  0  0  0  0  0  0  0  0  0  0
  146.8670   74.4650  214.9580 C   0  0  0  0  0  0  0  0  0  0  0  0
  146.2380   73.5630  215.7870 C   0  0  0  0  0  0  0  0  0  0  0  0
  146.8190   72.2940  215.9600 O   0  0  0  0  0  0  0  0  0  0  0  0
  145.0470   73.8750  216.4550 C   0  0  0  0  0  0  0  0  0  0  0  0
  142.0980   75.6160  219.9200 N   0  0  0  0  0  0  0  0  0  0  0  0
  142.2740   74.2130  219.6810 C   0  0  0  0  0  0  0  0  0  0  0  0
  143.6550   73.7230  219.8900 C   0  0  0  0  0  0  0  0  0  0  0  0
  144.5310   74.1560  220.8500 C   0  0  0  0  0  0  0  0  0  0  0  0
  145.8260   73.6610  220.9800 C   0  0  0  0  0  0  0  0  0  0  0  0
  146.2890   72.6990  220.1370 C   0  0  0  0  0  0  0  0  0  0  0  0
  145.4450   72.2340  219.1590 C   0  0  0  0  0  0  0  0  0  0  0  0
  145.8980   71.2480  218.2810 O   0  0  0  0  0  0  0  0  0  0  0  0
  144.1720   72.7280  219.0370 C   0  0  0  0  0  0  0  0  0  0  0  0
  140.3456   76.6979  223.4056 H   0  0  0  0  0  0  0  0  0  0  0  0
  140.0354   79.1045  224.0037 H   0  0  0  0  0  0  0  0  0  0  0  0
  141.8874   80.3381  220.2910 H   0  0  0  0  0  0  0  0  0  0  0  0
  143.5488   77.4246  217.4554 H   0  0  0  0  0  0  0  0  0  0  0  0
  142.3073   74.9223  216.7420 H   0  0  0  0  0  0  0  0  0  0  0  0
  144.6667   76.9998  215.3161 H   0  0  0  0  0  0  0  0  0  0  0  0
  146.7481   76.4507  214.1521 H   0  0  0  0  0  0  0  0  0  0  0  0
  147.8022   74.2086  214.4387 H   0  0  0  0  0  0  0  0  0  0  0  0
  146.2420   71.4950  216.1420 H   0  0  0  0  0  0  0  0  0  0  0  0
  144.5780   73.1243  217.1080 H   0  0  0  0  0  0  0  0  0  0  0  0
  141.6075   73.6624  220.3612 H   0  0  0  0  0  0  0  0  0  0  0  0
  142.0398   74.0448  218.6195 H   0  0  0  0  0  0  0  0  0  0  0  0
  144.1950   74.9328  221.5526 H   0  0  0  0  0  0  0  0  0  0  0  0
  146.4813   74.0518  221.7724 H   0  0  0  0  0  0  0  0  0  0  0  0
  147.3111   72.3046  220.2361 H   0  0  0  0  0  0  0  0  0  0  0  0
  145.4950   71.2260  217.3390 H   0  0  0  0  0  0  0  0  0  0  0  0
  143.5270   72.3307  218.2394 H   0  0  0  0  0  0  0  0  0  0  0  0
  1  2  2  0
  2  3  1  0
  3  4  2  0
  4  5  1  0
  5  6  2  0
  6  7  1  0
  6  8  1  0
  8  9  2  0
  9 10  1  0
 10 11  2  0
 11 12  1  0
 12 13  2  0
 13 14  1  0
 14 15  2  0
 15 16  1  0
 16 17  2  0
 17 18  1  0
 18 19  1  0
 18 20  2  0
 11 21  1  0
 21 22  1  0
 22 23  1  0
 23 24  2  0
 24 25  1  0
 25 26  2  0
 26 27  1  0
 27 28  1  0
 27 29  2  0
 21  2  1  0
 29 23  1  0
  9  3  1  0
 20 14  1  0
  4 30  1  0
  5 31  1  0
  8 32  1  0
 12 33  1  0
 13 34  1  0
 15 35  1  0
 16 36  1  0
 17 37  1  0
 19 38  1  0
 20 39  1  0
 22 40  1  0
 22 41  1  0
 24 42  1  0
 25 43  1  0
 26 44  1  0
 28 45  1  0
 29 46  1  0
M  END
>  <smiles>  (4) 
O=c1c2ccc(Cl)cc2nc(/C=C/c2cccc(O)c2)n1Cc1cccc(O)c1

>  <score_type>  (4) 
oracle

>  <origin>  (4) 
autodockgpu

>  <m_score__min__energy>  (4) 
-9.1099999999999994

>  <m_primary>  (4) 
energy

>  <rmsd>  (4) 
7.817435223451079

>  <m_score__min__rmsd>  (4) 
7.817435223451079

>  <meeko>  (4) 
{"free_energy": -6.3, "intermolecular_energy": -8.39, "internal_energy": -2.28, "cluster_size": 2, "cluster_id": 4, "rank_in_cluster": 2}

>  <energy>  (4) 
-8.46

>  <cluster_rmsd>  (4) 
1.24

>  <cluster>  (4) 
1

$$$$

     RDKit          3D

 46 49  0  0  0  0  0  0  0  0999 V2000
  136.5670   75.3270  221.6490 O   0  0  0  0  0  0  0  0  0  0  0  0
  137.7950   75.1140  221.8400 C   0  0  0  0  0  0  0  0  0  0  0  0
  138.5690   76.2080  222.1360 C   0  0  0  0  0  0  0  0  0  0  0  0
  138.0200   77.4670  222.2170 C   0  0  0  0  0  0  0  0  0  0  0  0
  138.8800   78.5040  222.5220 C   0  0  0  0  0  0  0  0  0  0  0  0
  140.2280   78.2730  222.7330 C   0  0  0  0  0  0  0  0  0  0  0  0
  141.2960   79.6030  223.1160 Cl  0  0  0  0  0  0  0  0  0  0  0  0
  140.7810   76.9980  222.6490 C   0  0  0  0  0  0  0  0  0  0  0  0
  139.9050   75.9820  222.3450 C   0  0  0  0  0  0  0  0  0  0  0  0
  140.3610   74.7520  222.2510 N   0  0  0  0  0  0  0  0  0  0  0  0
  139.6160   73.6360  221.9570 C   0  0  0  0  0  0  0  0  0  0  0  0
  140.3580   72.4180  221.8690 C   0  0  0  0  0  0  0  0  0  0  0  0
  140.0920   71.2000  222.2270 C   0  0  0  0  0  0  0  0  0  0  0  0
  140.0050   70.7310  223.6140 C   0  0  0  0  0  0  0  0  0  0  0  0
  140.6160   71.4570  224.6310 C   0  0  0  0  0  0  0  0  0  0  0  0
  140.5750   71.0780  225.9530 C   0  0  0  0  0  0  0  0  0  0  0  0
  139.9110   69.9330  226.3310 C   0  0  0  0  0  0  0  0  0  0  0  0
  139.2990   69.1990  225.3390 C   0  0  0  0  0  0  0  0  0  0  0  0
  138.6140   68.0260  225.7000 O   0  0  0  0  0  0  0  0  0  0  0  0
  139.3430   69.5890  223.9950 C   0  0  0  0  0  0  0  0  0  0  0  0
  138.3160   73.8410  221.7520 N   0  0  0  0  0  0  0  0  0  0  0  0
  137.3530   72.8150  221.4750 C   0  0  0  0  0  0  0  0  0  0  0  0
  136.6230   72.3210  222.6650 C   0  0  0  0  0  0  0  0  0  0  0  0
  135.8410   73.0720  223.5030 C   0  0  0  0  0  0  0  0  0  0  0  0
  135.1930   72.5440  224.6170 C   0  0  0  0  0  0  0  0  0  0  0  0
  135.3120   71.2250  224.9290 C   0  0  0  0  0  0  0  0  0  0  0  0
  136.0860   70.4350  224.1160 C   0  0  0  0  0  0  0  0  0  0  0  0
  136.2240   69.0780  224.4160 O   0  0  0  0  0  0  0  0  0  0  0  0
  136.7210   70.9620  223.0210 C   0  0  0  0  0  0  0  0  0  0  0  0
  136.9470   77.6396  222.0469 H   0  0  0  0  0  0  0  0  0  0  0  0
  138.4875   79.5287  222.5983 H   0  0  0  0  0  0  0  0  0  0  0  0
  141.8527   76.8144  222.8155 H   0  0  0  0  0  0  0  0  0  0  0  0
  141.3492   72.5366  221.4070 H   0  0  0  0  0  0  0  0  0  0  0  0
  139.9184   70.4625  221.4295 H   0  0  0  0  0  0  0  0  0  0  0  0
  141.1573   72.3772  224.3659 H   0  0  0  0  0  0  0  0  0  0  0  0
  141.0765   71.6945  226.7135 H   0  0  0  0  0  0  0  0  0  0  0  0
  139.8707   69.6166  227.3837 H   0  0  0  0  0  0  0  0  0  0  0  0
  137.6120   68.0180  225.7370 H   0  0  0  0  0  0  0  0  0  0  0  0
  138.8410   68.9731  223.2343 H   0  0  0  0  0  0  0  0  0  0  0  0
  136.6173   73.2174  220.7631 H   0  0  0  0  0  0  0  0  0  0  0  0
  137.9148   71.9583  221.0745 H   0  0  0  0  0  0  0  0  0  0  0  0
  135.7192   74.1434  223.2854 H   0  0  0  0  0  0  0  0  0  0  0  0
  134.5787   73.2001  225.2511 H   0  0  0  0  0  0  0  0  0  0  0  0
  134.8023   70.8036  225.8080 H   0  0  0  0  0  0  0  0  0  0  0  0
  137.1270   68.6360  224.2170 H   0  0  0  0  0  0  0  0  0  0  0  0
  137.3323   70.2957  222.3946 H   0  0  0  0  0  0  0  0  0  0  0  0
  1  2  2  0
  2  3  1  0
  3  4  2  0
  4  5  1  0
  5  6  2  0
  6  7  1  0
  6  8  1  0
  8  9  2  0
  9 10  1  0
 10 11  2  0
 11 12  1  0
 12 13  2  0
 13 14  1  0
 14 15  2  0
 15 16  1  0
 16 17  2  0
 17 18  1  0
 18 19  1  0
 18 20  2  0
 11 21  1  0
 21 22  1  0
 22 23  1  0
 23 24  2  0
 24 25  1  0
 25 26  2  0
 26 27  1  0
 27 28  1  0
 27 29  2  0
 21  2  1  0
 29 23  1  0
  9  3  1  0
 20 14  1  0
  4 30  1  0
  5 31  1  0
  8 32  1  0
 12 33  1  0
 13 34  1  0
 15 35  1  0
 16 36  1  0
 17 37  1  0
 19 38  1  0
 20 39  1  0
 22 40  1  0
 22 41  1  0
 24 42  1  0
 25 43  1  0
 26 44  1  0
 28 45  1  0
 29 46  1  0
M  END
>  <smiles>  (5) 
O=c1c2ccc(Cl)cc2nc(/C=C/c2cccc(O)c2)n1Cc1cccc(O)c1

>  <score_type>  (5) 
oracle

>  <origin>  (5) 
autodockgpu

>  <m_score__min__energy>  (5) 
-9.1099999999999994

>  <m_primary>  (5) 
energy

>  <rmsd>  (5) 
8.359165720378218

>  <m_score__min__rmsd>  (5) 
8.359165720378218

>  <meeko>  (5) 
{"free_energy": -6.11, "intermolecular_energy": -8.2, "internal_energy": -2.8, "cluster_size": 4, "cluster_id": 7, "rank_in_cluster": 2}

>  <energy>  (5) 
-8.37

>  <cluster_rmsd>  (5) 
0.92

>  <cluster>  (5) 
1

$$$$

     RDKit          3D

 46 49  0  0  0  0  0  0  0  0999 V2000
  140.0200   74.3630  222.2970 O   0  0  0  0  0  0  0  0  0  0  0  0
  140.9040   74.7900  221.5080 C   0  0  0  0  0  0  0  0  0  0  0  0
  141.7930   73.8630  221.0240 C   0  0  0  0  0  0  0  0  0  0  0  0
  141.7110   72.5390  221.3890 C   0  0  0  0  0  0  0  0  0  0  0  0
  142.6510   71.6830  220.8480 C   0  0  0  0  0  0  0  0  0  0  0  0
  143.6230   72.1500  219.9800 C   0  0  0  0  0  0  0  0  0  0  0  0
  144.8000   71.0460  219.3090 Cl  0  0  0  0  0  0  0  0  0  0  0  0
  143.7040   73.4890  219.6120 C   0  0  0  0  0  0  0  0  0  0  0  0
  142.7580   74.3220  220.1640 C   0  0  0  0  0  0  0  0  0  0  0  0
  142.7760   75.6010  219.8570 N   0  0  0  0  0  0  0  0  0  0  0  0
  141.9040   76.5550  220.3230 C   0  0  0  0  0  0  0  0  0  0  0  0
  142.1640   77.8860  219.8750 C   0  0  0  0  0  0  0  0  0  0  0  0
  141.7530   78.5640  218.8480 C   0  0  0  0  0  0  0  0  0  0  0  0
  141.7510   80.0270  218.7520 C   0  0  0  0  0  0  0  0  0  0  0  0
  142.4920   80.6580  217.7590 C   0  0  0  0  0  0  0  0  0  0  0  0
  142.5360   82.0250  217.6090 C   0  0  0  0  0  0  0  0  0  0  0  0
  141.8320   82.8450  218.4610 C   0  0  0  0  0  0  0  0  0  0  0  0
  141.0920   82.2400  219.4530 C   0  0  0  0  0  0  0  0  0  0  0  0
  140.3630   83.0550  220.3370 O   0  0  0  0  0  0  0  0  0  0  0  0
  141.0490   80.8480  219.6010 C   0  0  0  0  0  0  0  0  0  0  0  0
  140.9610   76.1230  221.1590 N   0  0  0  0  0  0  0  0  0  0  0  0
  139.9260   76.9370  221.7280 C   0  0  0  0  0  0  0  0  0  0  0  0
  140.4070   78.1770  222.3770 C   0  0  0  0  0  0  0  0  0  0  0  0
  141.4550   78.2780  223.2540 C   0  0  0  0  0  0  0  0  0  0  0  0
  141.8450   79.4780  223.8410 C   0  0  0  0  0  0  0  0  0  0  0  0
  141.1850   80.6350  223.5610 C   0  0  0  0  0  0  0  0  0  0  0  0
  140.1280   80.5810  222.6870 C   0  0  0  0  0  0  0  0  0  0  0  0
  139.4350   81.7550  222.3850 O   0  0  0  0  0  0  0  0  0  0  0  0
  139.7490   79.3950  222.1130 C   0  0  0  0  0  0  0  0  0  0  0  0
  140.9337   72.1789  222.0790 H   0  0  0  0  0  0  0  0  0  0  0  0
  142.6267   70.6151  221.1108 H   0  0  0  0  0  0  0  0  0  0  0  0
  144.4767   73.8592  218.9222 H   0  0  0  0  0  0  0  0  0  0  0  0
  142.8473   78.4468  220.5297 H   0  0  0  0  0  0  0  0  0  0  0  0
  141.3772   77.9978  217.9830 H   0  0  0  0  0  0  0  0  0  0  0  0
  143.0702   80.0351  217.0606 H   0  0  0  0  0  0  0  0  0  0  0  0
  143.1388   82.4661  216.8015 H   0  0  0  0  0  0  0  0  0  0  0  0
  141.8591   83.9395  218.3542 H   0  0  0  0  0  0  0  0  0  0  0  0
  139.3960   82.8620  220.5200 H   0  0  0  0  0  0  0  0  0  0  0  0
  140.4453   80.4062  220.4075 H   0  0  0  0  0  0  0  0  0  0  0  0
  139.2291   77.2179  220.9246 H   0  0  0  0  0  0  0  0  0  0  0  0
  139.4526   76.3344  222.5172 H   0  0  0  0  0  0  0  0  0  0  0  0
  142.0155   77.3658  223.5064 H   0  0  0  0  0  0  0  0  0  0  0  0
  142.6955   79.4916  224.5385 H   0  0  0  0  0  0  0  0  0  0  0  0
  141.4899   81.5861  224.0219 H   0  0  0  0  0  0  0  0  0  0  0  0
  139.9590   82.5180  221.9450 H   0  0  0  0  0  0  0  0  0  0  0  0
  138.8964   79.3941  221.4180 H   0  0  0  0  0  0  0  0  0  0  0  0
  1  2  2  0
  2  3  1  0
  3  4  2  0
  4  5  1  0
  5  6  2  0
  6  7  1  0
  6  8  1  0
  8  9  2  0
  9 10  1  0
 10 11  2  0
 11 12  1  0
 12 13  2  0
 13 14  1  0
 14 15  2  0
 15 16  1  0
 16 17  2  0
 17 18  1  0
 18 19  1  0
 18 20  2  0
 11 21  1  0
 21 22  1  0
 22 23  1  0
 23 24  2  0
 24 25  1  0
 25 26  2  0
 26 27  1  0
 27 28  1  0
 27 29  2  0
 21  2  1  0
 29 23  1  0
  9  3  1  0
 20 14  1  0
  4 30  1  0
  5 31  1  0
  8 32  1  0
 12 33  1  0
 13 34  1  0
 15 35  1  0
 16 36  1  0
 17 37  1  0
 19 38  1  0
 20 39  1  0
 22 40  1  0
 22 41  1  0
 24 42  1  0
 25 43  1  0
 26 44  1  0
 28 45  1  0
 29 46  1  0
M  END
>  <smiles>  (6) 
O=c1c2ccc(Cl)cc2nc(/C=C/c2cccc(O)c2)n1Cc1cccc(O)c1

>  <score_type>  (6) 
oracle

>  <origin>  (6) 
autodockgpu

>  <m_score__min__energy>  (6) 
-9.1099999999999994

>  <m_primary>  (6) 
energy

>  <rmsd>  (6) 
4.500802437737631

>  <m_score__min__rmsd>  (6) 
4.500802437737631

>  <meeko>  (6) 
{"free_energy": -6.22, "intermolecular_energy": -8.3, "internal_energy": -2.56, "cluster_size": 8, "cluster_id": 6, "rank_in_cluster": 2}

>  <energy>  (6) 
-8.34

>  <cluster_rmsd>  (6) 
1.33

>  <cluster>  (6) 
1

$$$$

     RDKit          3D

 46 49  0  0  0  0  0  0  0  0999 V2000
  140.1630   72.6280  222.9840 O   0  0  0  0  0  0  0  0  0  0  0  0
  139.3600   71.7840  223.4640 C   0  0  0  0  0  0  0  0  0  0  0  0
  139.8140   71.0410  224.5250 C   0  0  0  0  0  0  0  0  0  0  0  0
  141.0820   71.2190  225.0290 C   0  0  0  0  0  0  0  0  0  0  0  0
  141.4450   70.4240  226.0990 C   0  0  0  0  0  0  0  0  0  0  0  0
  140.5650   69.4960  226.6290 C   0  0  0  0  0  0  0  0  0  0  0  0
  141.0510   68.5030  227.9820 Cl  0  0  0  0  0  0  0  0  0  0  0  0
  139.2840   69.3180  226.1170 C   0  0  0  0  0  0  0  0  0  0  0  0
  138.9450   70.1210  225.0520 C   0  0  0  0  0  0  0  0  0  0  0  0
  137.7470   70.0040  224.5210 N   0  0  0  0  0  0  0  0  0  0  0  0
  137.2610   70.7300  223.4610 C   0  0  0  0  0  0  0  0  0  0  0  0
  135.9410   70.3820  223.0410 C   0  0  0  0  0  0  0  0  0  0  0  0
  134.8330   70.1960  223.6900 C   0  0  0  0  0  0  0  0  0  0  0  0
  134.4980   70.8150  224.9770 C   0  0  0  0  0  0  0  0  0  0  0  0
  134.4420   70.0350  226.1270 C   0  0  0  0  0  0  0  0  0  0  0  0
  134.1350   70.5480  227.3670 C   0  0  0  0  0  0  0  0  0  0  0  0
  133.8620   71.8880  227.5210 C   0  0  0  0  0  0  0  0  0  0  0  0
  133.9100   72.6770  226.3940 C   0  0  0  0  0  0  0  0  0  0  0  0
  133.6350   74.0500  226.5250 O   0  0  0  0  0  0  0  0  0  0  0  0
  134.2240   72.1520  225.1340 C   0  0  0  0  0  0  0  0  0  0  0  0
  138.0950   71.6280  222.9390 N   0  0  0  0  0  0  0  0  0  0  0  0
  137.7790   72.5190  221.8600 C   0  0  0  0  0  0  0  0  0  0  0  0
  137.3030   73.8540  222.2860 C   0  0  0  0  0  0  0  0  0  0  0  0
  137.8430   75.0600  221.9240 C   0  0  0  0  0  0  0  0  0  0  0  0
  137.3530   76.2820  222.3750 C   0  0  0  0  0  0  0  0  0  0  0  0
  136.2860   76.3330  223.2180 C   0  0  0  0  0  0  0  0  0  0  0  0
  135.7120   75.1490  223.6080 C   0  0  0  0  0  0  0  0  0  0  0  0
  134.6160   75.1750  224.4730 O   0  0  0  0  0  0  0  0  0  0  0  0
  136.2010   73.9490  223.1590 C   0  0  0  0  0  0  0  0  0  0  0  0
  141.7737   71.9591  224.6003 H   0  0  0  0  0  0  0  0  0  0  0  0
  142.4487   70.5300  226.5365 H   0  0  0  0  0  0  0  0  0  0  0  0
  138.5846   68.5805  226.5377 H   0  0  0  0  0  0  0  0  0  0  0  0
  135.8448   70.2447  221.9538 H   0  0  0  0  0  0  0  0  0  0  0  0
  134.0880   69.5228  223.2408 H   0  0  0  0  0  0  0  0  0  0  0  0
  134.6527   68.9587  226.0419 H   0  0  0  0  0  0  0  0  0  0  0  0
  134.1077   69.8815  228.2417 H   0  0  0  0  0  0  0  0  0  0  0  0
  133.6152   72.3118  228.5056 H   0  0  0  0  0  0  0  0  0  0  0  0
  134.1490   74.7220  225.9860 H   0  0  0  0  0  0  0  0  0  0  0  0
  134.2515   72.8185  224.2593 H   0  0  0  0  0  0  0  0  0  0  0  0
  138.6846   72.6554  221.2506 H   0  0  0  0  0  0  0  0  0  0  0  0
  136.9517   72.0549  221.3030 H   0  0  0  0  0  0  0  0  0  0  0  0
  138.7068   75.0625  221.2430 H   0  0  0  0  0  0  0  0  0  0  0  0
  137.8329   77.2158  222.0468 H   0  0  0  0  0  0  0  0  0  0  0  0
  135.8945   77.2963  223.5768 H   0  0  0  0  0  0  0  0  0  0  0  0
  133.9610   74.3880  224.4360 H   0  0  0  0  0  0  0  0  0  0  0  0
  135.7127   73.0221  223.4943 H   0  0  0  0  0  0  0  0  0  0  0  0
  1  2  2  0
  2  3  1  0
  3  4  2  0
  4  5  1  0
  5  6  2  0
  6  7  1  0
  6  8  1  0
  8  9  2  0
  9 10  1  0
 10 11  2  0
 11 12  1  0
 12 13  2  0
 13 14  1  0
 14 15  2  0
 15 16  1  0
 16 17  2  0
 17 18  1  0
 18 19  1  0
 18 20  2  0
 11 21  1  0
 21 22  1  0
 22 23  1  0
 23 24  2  0
 24 25  1  0
 25 26  2  0
 26 27  1  0
 27 28  1  0
 27 29  2  0
 21  2  1  0
 29 23  1  0
  9  3  1  0
 20 14  1  0
  4 30  1  0
  5 31  1  0
  8 32  1  0
 12 33  1  0
 13 34  1  0
 15 35  1  0
 16 36  1  0
 17 37  1  0
 19 38  1  0
 20 39  1  0
 22 40  1  0
 22 41  1  0
 24 42  1  0
 25 43  1  0
 26 44  1  0
 28 45  1  0
 29 46  1  0
M  END
>  <smiles>  (7) 
O=c1c2ccc(Cl)cc2nc(/C=C/c2cccc(O)c2)n1Cc1cccc(O)c1

>  <score_type>  (7) 
oracle

>  <origin>  (7) 
autodockgpu

>  <m_score__min__energy>  (7) 
-9.1099999999999994

>  <m_primary>  (7) 
energy

>  <rmsd>  (7) 
8.190767315123642

>  <m_score__min__rmsd>  (7) 
8.190767315123642

>  <meeko>  (7) 
{"free_energy": -6.51, "intermolecular_energy": -8.59, "internal_energy": -2.84, "cluster_size": 12, "cluster_id": 2, "rank_in_cluster": 8}

>  <energy>  (7) 
-8.31

>  <cluster_rmsd>  (7) 
0.91

>  <cluster>  (7) 
1

$$$$

     RDKit          3D

 46 49  0  0  0  0  0  0  0  0999 V2000
  141.7040   73.6190  218.5200 O   0  0  0  0  0  0  0  0  0  0  0  0
  141.3640   73.6650  219.7330 C   0  0  0  0  0  0  0  0  0  0  0  0
  141.3300   74.9090  220.3130 C   0  0  0  0  0  0  0  0  0  0  0  0
  141.6520   76.0380  219.5960 C   0  0  0  0  0  0  0  0  0  0  0  0
  141.5870   77.2430  220.2690 C   0  0  0  0  0  0  0  0  0  0  0  0
  141.2130   77.2970  221.6000 C   0  0  0  0  0  0  0  0  0  0  0  0
  141.1390   78.8350  222.4270 Cl  0  0  0  0  0  0  0  0  0  0  0  0
  140.8880   76.1530  222.3230 C   0  0  0  0  0  0  0  0  0  0  0  0
  140.9610   74.9650  221.6320 C   0  0  0  0  0  0  0  0  0  0  0  0
  140.6650   73.8440  222.2560 N   0  0  0  0  0  0  0  0  0  0  0  0
  140.6890   72.5860  221.7070 C   0  0  0  0  0  0  0  0  0  0  0  0
  140.3700   71.5250  222.6080 C   0  0  0  0  0  0  0  0  0  0  0  0
  139.6610   71.4770  223.6940 C   0  0  0  0  0  0  0  0  0  0  0  0
  139.9290   70.5950  224.8340 C   0  0  0  0  0  0  0  0  0  0  0  0
  140.7190   71.0450  225.8870 C   0  0  0  0  0  0  0  0  0  0  0  0
  141.0120   70.2730  226.9890 C   0  0  0  0  0  0  0  0  0  0  0  0
  140.5220   68.9920  227.0940 C   0  0  0  0  0  0  0  0  0  0  0  0
  139.7380   68.5270  226.0620 C   0  0  0  0  0  0  0  0  0  0  0  0
  139.2250   67.2200  226.1460 O   0  0  0  0  0  0  0  0  0  0  0  0
  139.4420   69.3150  224.9430 C   0  0  0  0  0  0  0  0  0  0  0  0
  141.0460   72.5160  220.4250 N   0  0  0  0  0  0  0  0  0  0  0  0
  141.0960   71.3130  219.6470 C   0  0  0  0  0  0  0  0  0  0  0  0
  142.4470   70.7190  219.5190 C   0  0  0  0  0  0  0  0  0  0  0  0
  142.7310   69.4140  219.2170 C   0  0  0  0  0  0  0  0  0  0  0  0
  144.0290   68.9180  219.1270 C   0  0  0  0  0  0  0  0  0  0  0  0
  145.0990   69.7300  219.3410 C   0  0  0  0  0  0  0  0  0  0  0  0
  144.8610   71.0470  219.6460 C   0  0  0  0  0  0  0  0  0  0  0  0
  145.9430   71.9000  219.8710 O   0  0  0  0  0  0  0  0  0  0  0  0
  143.5800   71.5280  219.7330 C   0  0  0  0  0  0  0  0  0  0  0  0
  141.9470   75.9841  218.5377 H   0  0  0  0  0  0  0  0  0  0  0  0
  141.8365   78.1737  219.7384 H   0  0  0  0  0  0  0  0  0  0  0  0
  140.5911   76.1957  223.3813 H   0  0  0  0  0  0  0  0  0  0  0  0
  140.8123   70.5581  222.3261 H   0  0  0  0  0  0  0  0  0  0  0  0
  138.7931   72.1491  223.7645 H   0  0  0  0  0  0  0  0  0  0  0  0
  141.1285   72.0647  225.8370 H   0  0  0  0  0  0  0  0  0  0  0  0
  141.6426   70.6838  227.7913 H   0  0  0  0  0  0  0  0  0  0  0  0
  140.7477   68.3636  227.9682 H   0  0  0  0  0  0  0  0  0  0  0  0
  139.5340   66.6030  226.8740 H   0  0  0  0  0  0  0  0  0  0  0  0
  138.8114   68.9039  224.1409 H   0  0  0  0  0  0  0  0  0  0  0  0
  140.4377   70.5700  220.1208 H   0  0  0  0  0  0  0  0  0  0  0  0
  140.7766   71.5850  218.6301 H   0  0  0  0  0  0  0  0  0  0  0  0
  141.8934   68.7242  219.0368 H   0  0  0  0  0  0  0  0  0  0  0  0
  144.1908   67.8583  218.8802 H   0  0  0  0  0  0  0  0  0  0  0  0
  146.1260   69.3422  219.2716 H   0  0  0  0  0  0  0  0  0  0  0  0
  146.3840   71.8770  220.7960 H   0  0  0  0  0  0  0  0  0  0  0  0
  143.4310   72.5895  219.9801 H   0  0  0  0  0  0  0  0  0  0  0  0
  1  2  2  0
  2  3  1  0
  3  4  2  0
  4  5  1  0
  5  6  2  0
  6  7  1  0
  6  8  1  0
  8  9  2  0
  9 10  1  0
 10 11  2  0
 11 12  1  0
 12 13  2  0
 13 14  1  0
 14 15  2  0
 15 16  1  0
 16 17  2  0
 17 18  1  0
 18 19  1  0
 18 20  2  0
 11 21  1  0
 21 22  1  0
 22 23  1  0
 23 24  2  0
 24 25  1  0
 25 26  2  0
 26 27  1  0
 27 28  1  0
 27 29  2  0
 21  2  1  0
 29 23  1  0
  9  3  1  0
 20 14  1  0
  4 30  1  0
  5 31  1  0
  8 32  1  0
 12 33  1  0
 13 34  1  0
 15 35  1  0
 16 36  1  0
 17 37  1  0
 19 38  1  0
 20 39  1  0
 22 40  1  0
 22 41  1  0
 24 42  1  0
 25 43  1  0
 26 44  1  0
 28 45  1  0
 29 46  1  0
M  END
>  <smiles>  (8) 
O=c1c2ccc(Cl)cc2nc(/C=C/c2cccc(O)c2)n1Cc1cccc(O)c1

>  <score_type>  (8) 
oracle

>  <origin>  (8) 
autodockgpu

>  <m_score__min__energy>  (8) 
-9.1099999999999994

>  <m_primary>  (8) 
energy

>  <rmsd>  (8) 
9.130464766913779

>  <m_score__min__rmsd>  (8) 
9.130464766913779

>  <meeko>  (8) 
{"free_energy": -8.12, "intermolecular_energy": -10.21, "internal_energy": -0.83, "cluster_size": 16, "cluster_id": 1, "rank_in_cluster": 13}

>  <energy>  (8) 
-8.25

>  <cluster_rmsd>  (8) 
1.28

>  <cluster>  (8) 
1

$$$$

     RDKit          3D

 46 49  0  0  0  0  0  0  0  0999 V2000
  142.6150   75.7210  219.4760 O   0  0  0  0  0  0  0  0  0  0  0  0
  141.7610   75.5760  220.3900 C   0  0  0  0  0  0  0  0  0  0  0  0
  141.3380   76.7190  221.0210 C   0  0  0  0  0  0  0  0  0  0  0  0
  141.8300   77.9530  220.6630 C   0  0  0  0  0  0  0  0  0  0  0  0
  141.3410   79.0440  221.3560 C   0  0  0  0  0  0  0  0  0  0  0  0
  140.4020   78.8880  222.3600 C   0  0  0  0  0  0  0  0  0  0  0  0
  139.8010   80.2850  223.2220 Cl  0  0  0  0  0  0  0  0  0  0  0  0
  139.9070   77.6390  222.7210 C   0  0  0  0  0  0  0  0  0  0  0  0
  140.4080   76.5680  222.0170 C   0  0  0  0  0  0  0  0  0  0  0  0
  139.9810   75.3570  222.3060 N   0  0  0  0  0  0  0  0  0  0  0  0
  140.3820   74.1940  221.6970 C   0  0  0  0  0  0  0  0  0  0  0  0
  139.8020   73.0000  222.2260 C   0  0  0  0  0  0  0  0  0  0  0  0
  140.2650   71.8020  222.4040 C   0  0  0  0  0  0  0  0  0  0  0  0
  140.2140   71.0590  223.6670 C   0  0  0  0  0  0  0  0  0  0  0  0
  140.6790   71.6500  224.8370 C   0  0  0  0  0  0  0  0  0  0  0  0
  140.6610   71.0130  226.0580 C   0  0  0  0  0  0  0  0  0  0  0  0
  140.1700   69.7320  226.1700 C   0  0  0  0  0  0  0  0  0  0  0  0
  139.7050   69.1300  225.0230 C   0  0  0  0  0  0  0  0  0  0  0  0
  139.1980   67.8210  225.1120 O   0  0  0  0  0  0  0  0  0  0  0  0
  139.7240   69.7810  223.7830 C   0  0  0  0  0  0  0  0  0  0  0  0
  141.2860   74.3260  220.7270 N   0  0  0  0  0  0  0  0  0  0  0  0
  141.8080   73.2520  219.9330 C   0  0  0  0  0  0  0  0  0  0  0  0
  143.2810   73.1100  219.9840 C   0  0  0  0  0  0  0  0  0  0  0  0
  144.0930   73.4710  221.0270 C   0  0  0  0  0  0  0  0  0  0  0  0
  145.4770   73.3240  221.0020 C   0  0  0  0  0  0  0  0  0  0  0  0
  146.1000   72.8020  219.9100 C   0  0  0  0  0  0  0  0  0  0  0  0
  145.3260   72.4260  218.8410 C   0  0  0  0  0  0  0  0  0  0  0  0
  145.9420   71.8880  217.7100 O   0  0  0  0  0  0  0  0  0  0  0  0
  143.9620   72.5750  218.8740 C   0  0  0  0  0  0  0  0  0  0  0  0
  142.5769   78.0658  219.8634 H   0  0  0  0  0  0  0  0  0  0  0  0
  141.7039   80.0518  221.1056 H   0  0  0  0  0  0  0  0  0  0  0  0
  139.1611   77.5152  223.5199 H   0  0  0  0  0  0  0  0  0  0  0  0
  138.7563   73.1211  222.5452 H   0  0  0  0  0  0  0  0  0  0  0  0
  140.7320   71.3048  221.5410 H   0  0  0  0  0  0  0  0  0  0  0  0
  141.0795   72.6732  224.7848 H   0  0  0  0  0  0  0  0  0  0  0  0
  141.0418   71.5317  226.9501 H   0  0  0  0  0  0  0  0  0  0  0  0
  140.1500   69.2100  227.1380 H   0  0  0  0  0  0  0  0  0  0  0  0
  139.6410   67.0720  224.6140 H   0  0  0  0  0  0  0  0  0  0  0  0
  139.3419   69.2626  222.8912 H   0  0  0  0  0  0  0  0  0  0  0  0
  141.3598   72.3125  220.2887 H   0  0  0  0  0  0  0  0  0  0  0  0
  141.5520   73.4824  218.8883 H   0  0  0  0  0  0  0  0  0  0  0  0
  143.6285   73.8978  221.9281 H   0  0  0  0  0  0  0  0  0  0  0  0
  146.0732   73.6327  221.8733 H   0  0  0  0  0  0  0  0  0  0  0  0
  147.1935   72.6848  219.8852 H   0  0  0  0  0  0  0  0  0  0  0  0
  145.3430   71.6270  216.9200 H   0  0  0  0  0  0  0  0  0  0  0  0
  143.3764   72.2634  217.9965 H   0  0  0  0  0  0  0  0  0  0  0  0
  1  2  2  0
  2  3  1  0
  3  4  2  0
  4  5  1  0
  5  6  2  0
  6  7  1  0
  6  8  1  0
  8  9  2  0
  9 10  1  0
 10 11  2  0
 11 12  1  0
 12 13  2  0
 13 14  1  0
 14 15  2  0
 15 16  1  0
 16 17  2  0
 17 18  1  0
 18 19  1  0
 18 20  2  0
 11 21  1  0
 21 22  1  0
 22 23  1  0
 23 24  2  0
 24 25  1  0
 25 26  2  0
 26 27  1  0
 27 28  1  0
 27 29  2  0
 21  2  1  0
 29 23  1  0
  9  3  1  0
 20 14  1  0
  4 30  1  0
  5 31  1  0
  8 32  1  0
 12 33  1  0
 13 34  1  0
 15 35  1  0
 16 36  1  0
 17 37  1  0
 19 38  1  0
 20 39  1  0
 22 40  1  0
 22 41  1  0
 24 42  1  0
 25 43  1  0
 26 44  1  0
 28 45  1  0
 29 46  1  0
M  END
>  <smiles>  (9) 
O=c1c2ccc(Cl)cc2nc(/C=C/c2cccc(O)c2)n1Cc1cccc(O)c1

>  <score_type>  (9) 
oracle

>  <origin>  (9) 
autodockgpu

>  <m_score__min__energy>  (9) 
-9.1099999999999994

>  <m_primary>  (9) 
energy

>  <rmsd>  (9) 
7.716633888504448

>  <m_score__min__rmsd>  (9) 
7.716633888504448

>  <meeko>  (9) 
{"free_energy": -7.96, "intermolecular_energy": -10.05, "internal_energy": -0.87, "cluster_size": 16, "cluster_id": 1, "rank_in_cluster": 15}

>  <energy>  (9) 
-8.18

>  <cluster_rmsd>  (9) 
1.35

>  <cluster>  (9) 
1

$$$$

     RDKit          3D

 46 49  0  0  0  0  0  0  0  0999 V2000
  140.1020   72.4520  223.1590 O   0  0  0  0  0  0  0  0  0  0  0  0
  139.3330   71.5790  223.6430 C   0  0  0  0  0  0  0  0  0  0  0  0
  139.7880   70.9080  224.7510 C   0  0  0  0  0  0  0  0  0  0  0  0
  141.0210   71.1830  225.2940 C   0  0  0  0  0  0  0  0  0  0  0  0
  141.3890   70.4550  226.4090 C   0  0  0  0  0  0  0  0  0  0  0  0
  140.5450   69.4960  226.9430 C   0  0  0  0  0  0  0  0  0  0  0  0
  141.0350   68.5880  228.3540 Cl  0  0  0  0  0  0  0  0  0  0  0  0
  139.2980   69.2200  226.3910 C   0  0  0  0  0  0  0  0  0  0  0  0
  138.9550   69.9570  225.2820 C   0  0  0  0  0  0  0  0  0  0  0  0
  137.7880   69.7470  224.7110 N   0  0  0  0  0  0  0  0  0  0  0  0
  137.3030   70.3990  223.6050 C   0  0  0  0  0  0  0  0  0  0  0  0
  136.0230   69.9540  223.1510 C   0  0  0  0  0  0  0  0  0  0  0  0
  134.8240   70.0970  223.6250 C   0  0  0  0  0  0  0  0  0  0  0  0
  134.4960   70.7370  224.9020 C   0  0  0  0  0  0  0  0  0  0  0  0
  134.3280   69.9600  226.0440 C   0  0  0  0  0  0  0  0  0  0  0  0
  134.0190   70.4920  227.2750 C   0  0  0  0  0  0  0  0  0  0  0  0
  133.8590   71.8500  227.4290 C   0  0  0  0  0  0  0  0  0  0  0  0
  134.0200   72.6370  226.3110 C   0  0  0  0  0  0  0  0  0  0  0  0
  133.8620   74.0280  226.4430 O   0  0  0  0  0  0  0  0  0  0  0  0
  134.3350   72.0920  225.0600 C   0  0  0  0  0  0  0  0  0  0  0  0
  138.1020   71.3260  223.0770 N   0  0  0  0  0  0  0  0  0  0  0  0
  137.7760   72.1520  221.9520 C   0  0  0  0  0  0  0  0  0  0  0  0
  137.3820   73.5360  222.3000 C   0  0  0  0  0  0  0  0  0  0  0  0
  138.0660   74.6780  221.9770 C   0  0  0  0  0  0  0  0  0  0  0  0
  137.6440   75.9510  222.3500 C   0  0  0  0  0  0  0  0  0  0  0  0
  136.5030   76.1200  223.0720 C   0  0  0  0  0  0  0  0  0  0  0  0
  135.7850   75.0030  223.4180 C   0  0  0  0  0  0  0  0  0  0  0  0
  134.6110   75.1510  224.1590 O   0  0  0  0  0  0  0  0  0  0  0  0
  136.2070   73.7520  223.0470 C   0  0  0  0  0  0  0  0  0  0  0  0
  141.6834   71.9469  224.8609 H   0  0  0  0  0  0  0  0  0  0  0  0
  142.3662   70.6398  226.8791 H   0  0  0  0  0  0  0  0  0  0  0  0
  138.6274   68.4586  226.8159 H   0  0  0  0  0  0  0  0  0  0  0  0
  136.0623   69.3766  222.2155 H   0  0  0  0  0  0  0  0  0  0  0  0
  133.9898   69.7082  223.0225 H   0  0  0  0  0  0  0  0  0  0  0  0
  134.4478   68.8699  225.9589 H   0  0  0  0  0  0  0  0  0  0  0  0
  133.8990   69.8265  228.1426 H   0  0  0  0  0  0  0  0  0  0  0  0
  133.6122   72.2894  228.4068 H   0  0  0  0  0  0  0  0  0  0  0  0
  133.2870   74.5350  225.7950 H   0  0  0  0  0  0  0  0  0  0  0  0
  134.4551   72.7577  224.1926 H   0  0  0  0  0  0  0  0  0  0  0  0
  138.6567   72.2005  221.2947 H   0  0  0  0  0  0  0  0  0  0  0  0
  136.9027   71.6906  221.4678 H   0  0  0  0  0  0  0  0  0  0  0  0
  138.9943   74.5845  221.3943 H   0  0  0  0  0  0  0  0  0  0  0  0
  138.2388   76.8291  222.0582 H   0  0  0  0  0  0  0  0  0  0  0  0
  136.1657   77.1238  223.3699 H   0  0  0  0  0  0  0  0  0  0  0  0
  134.0370   74.3160  224.3130 H   0  0  0  0  0  0  0  0  0  0  0  0
  135.6036   72.8818  223.3447 H   0  0  0  0  0  0  0  0  0  0  0  0
  1  2  2  0
  2  3  1  0
  3  4  2  0
  4  5  1  0
  5  6  2  0
  6  7  1  0
  6  8  1  0
  8  9  2  0
  9 10  1  0
 10 11  2  0
 11 12  1  0
 12 13  2  0
 13 14  1  0
 14 15  2  0
 15 16  1  0
 16 17  2  0
 17 18  1  0
 18 19  1  0
 18 20  2  0
 11 21  1  0
 21 22  1  0
 22 23  1  0
 23 24  2  0
 24 25  1  0
 25 26  2  0
 26 27  1  0
 27 28  1  0
 27 29  2  0
 21  2  1  0
 29 23  1  0
  9  3  1  0
 20 14  1  0
  4 30  1  0
  5 31  1  0
  8 32  1  0
 12 33  1  0
 13 34  1  0
 15 35  1  0
 16 36  1  0
 17 37  1  0
 19 38  1  0
 20 39  1  0
 22 40  1  0
 22 41  1  0
 24 42  1  0
 25 43  1  0
 26 44  1  0
 28 45  1  0
 29 46  1  0
M  END
>  <smiles>  (10) 
O=c1c2ccc(Cl)cc2nc(/C=C/c2cccc(O)c2)n1Cc1cccc(O)c1

>  <score_type>  (10) 
oracle

>  <origin>  (10) 
autodockgpu

>  <m_score__min__energy>  (10) 
-9.1099999999999994

>  <m_primary>  (10) 
energy

>  <rmsd>  (10) 
8.41176971510651

>  <m_score__min__rmsd>  (10) 
8.41176971510651

>  <meeko>  (10) 
{"free_energy": -6.56, "intermolecular_energy": -8.65, "internal_energy": -2.71, "cluster_size": 12, "cluster_id": 2, "rank_in_cluster": 7}

>  <energy>  (10) 
-8.15

>  <cluster_rmsd>  (10) 
0.94

>  <cluster>  (10) 
1

$$$$

     RDKit          3D

 46 49  0  0  0  0  0  0  0  0999 V2000
  136.8060   77.4630  222.4090 O   0  0  0  0  0  0  0  0  0  0  0  0
  137.9570   76.9510  222.3760 C   0  0  0  0  0  0  0  0  0  0  0  0
  139.0030   77.7710  222.7200 C   0  0  0  0  0  0  0  0  0  0  0  0
  138.7920   79.0820  223.0800 C   0  0  0  0  0  0  0  0  0  0  0  0
  139.9080   79.8260  223.4090 C   0  0  0  0  0  0  0  0  0  0  0  0
  141.1730   79.2660  223.3750 C   0  0  0  0  0  0  0  0  0  0  0  0
  142.5690   80.2300  223.7960 Cl  0  0  0  0  0  0  0  0  0  0  0  0
  141.3840   77.9400  223.0100 C   0  0  0  0  0  0  0  0  0  0  0  0
  140.2580   77.2190  222.6860 C   0  0  0  0  0  0  0  0  0  0  0  0
  140.3860   75.9580  222.3330 N   0  0  0  0  0  0  0  0  0  0  0  0
  139.3630   75.1110  221.9840 C   0  0  0  0  0  0  0  0  0  0  0  0
  139.7690   73.7980  221.5950 C   0  0  0  0  0  0  0  0  0  0  0  0
  140.4700   72.8820  222.1900 C   0  0  0  0  0  0  0  0  0  0  0  0
  139.9670   71.9860  223.2360 C   0  0  0  0  0  0  0  0  0  0  0  0
  140.6930   71.8150  224.4100 C   0  0  0  0  0  0  0  0  0  0  0  0
  140.2830   70.9910  225.4340 C   0  0  0  0  0  0  0  0  0  0  0  0
  139.1070   70.2840  225.3320 C   0  0  0  0  0  0  0  0  0  0  0  0
  138.3730   70.4380  224.1770 C   0  0  0  0  0  0  0  0  0  0  0  0
  137.1670   69.7260  224.0490 O   0  0  0  0  0  0  0  0  0  0  0  0
  138.7940   71.2780  223.1380 C   0  0  0  0  0  0  0  0  0  0  0  0
  138.1380   75.6340  222.0120 N   0  0  0  0  0  0  0  0  0  0  0  0
  136.9280   74.9180  221.7280 C   0  0  0  0  0  0  0  0  0  0  0  0
  136.1900   74.4580  222.9260 C   0  0  0  0  0  0  0  0  0  0  0  0
  135.6900   75.2540  223.9230 C   0  0  0  0  0  0  0  0  0  0  0  0
  135.0170   74.7520  225.0330 C   0  0  0  0  0  0  0  0  0  0  0  0
  134.8220   73.4130  225.1800 C   0  0  0  0  0  0  0  0  0  0  0  0
  135.3060   72.5780  224.2050 C   0  0  0  0  0  0  0  0  0  0  0  0
  135.1190   71.2000  224.3340 O   0  0  0  0  0  0  0  0  0  0  0  0
  135.9690   73.0800  223.1140 C   0  0  0  0  0  0  0  0  0  0  0  0
  137.7820   79.5171  223.1046 H   0  0  0  0  0  0  0  0  0  0  0  0
  139.7896   80.8795  223.7025 H   0  0  0  0  0  0  0  0  0  0  0  0
  142.3897   77.4953  222.9822 H   0  0  0  0  0  0  0  0  0  0  0  0
  139.4186   73.5056  220.5942 H   0  0  0  0  0  0  0  0  0  0  0  0
  141.5213   72.7693  221.8865 H   0  0  0  0  0  0  0  0  0  0  0  0
  141.6392   72.3639  224.5258 H   0  0  0  0  0  0  0  0  0  0  0  0
  140.8999   70.8972  226.3399 H   0  0  0  0  0  0  0  0  0  0  0  0
  138.7664   69.6216  226.1415 H   0  0  0  0  0  0  0  0  0  0  0  0
  136.3450   70.1840  223.7020 H   0  0  0  0  0  0  0  0  0  0  0  0
  138.1773   71.3718  222.2320 H   0  0  0  0  0  0  0  0  0  0  0  0
  136.2657   75.5788  221.1495 H   0  0  0  0  0  0  0  0  0  0  0  0
  137.2227   74.0132  221.1762 H   0  0  0  0  0  0  0  0  0  0  0  0
  135.8272   76.3424  223.8422 H   0  0  0  0  0  0  0  0  0  0  0  0
  134.6388   75.4445  225.7994 H   0  0  0  0  0  0  0  0  0  0  0  0
  134.2913   73.0117  226.0559 H   0  0  0  0  0  0  0  0  0  0  0  0
  135.5920   70.7260  225.1100 H   0  0  0  0  0  0  0  0  0  0  0  0
  136.3433   72.3774  222.3549 H   0  0  0  0  0  0  0  0  0  0  0  0
  1  2  2  0
  2  3  1  0
  3  4  2  0
  4  5  1  0
  5  6  2  0
  6  7  1  0
  6  8  1  0
  8  9  2  0
  9 10  1  0
 10 11  2  0
 11 12  1  0
 12 13  2  0
 13 14  1  0
 14 15  2  0
 15 16  1  0
 16 17  2  0
 17 18  1  0
 18 19  1  0
 18 20  2  0
 11 21  1  0
 21 22  1  0
 22 23  1  0
 23 24  2  0
 24 25  1  0
 25 26  2  0
 26 27  1  0
 27 28  1  0
 27 29  2  0
 21  2  1  0
 29 23  1  0
  9  3  1  0
 20 14  1  0
  4 30  1  0
  5 31  1  0
  8 32  1  0
 12 33  1  0
 13 34  1  0
 15 35  1  0
 16 36  1  0
 17 37  1  0
 19 38  1  0
 20 39  1  0
 22 40  1  0
 22 41  1  0
 24 42  1  0
 25 43  1  0
 26 44  1  0
 28 45  1  0
 29 46  1  0
M  END
>  <smiles>  (11) 
O=c1c2ccc(Cl)cc2nc(/C=C/c2cccc(O)c2)n1Cc1cccc(O)c1

>  <score_type>  (11) 
oracle

>  <origin>  (11) 
autodockgpu

>  <m_score__min__energy>  (11) 
-9.1099999999999994

>  <m_primary>  (11) 
energy

>  <rmsd>  (11) 
7.5177353974395205

>  <m_score__min__rmsd>  (11) 
7.5177353974395205

>  <meeko>  (11) 
{"free_energy": -6.11, "intermolecular_energy": -8.2, "internal_energy": -2.78, "cluster_size": 4, "cluster_id": 7, "rank_in_cluster": 3}

>  <energy>  (11) 
-8.15

>  <cluster_rmsd>  (11) 
1.99

>  <cluster>  (11) 
1

$$$$

     RDKit          3D

 46 49  0  0  0  0  0  0  0  0999 V2000
  139.9750   74.3730  221.7950 O   0  0  0  0  0  0  0  0  0  0  0  0
  140.7510   75.0100  221.0350 C   0  0  0  0  0  0  0  0  0  0  0  0
  141.9400   74.4000  220.7220 C   0  0  0  0  0  0  0  0  0  0  0  0
  142.2550   73.1570  221.2190 C   0  0  0  0  0  0  0  0  0  0  0  0
  143.4740   72.6260  220.8450 C   0  0  0  0  0  0  0  0  0  0  0  0
  144.3290   73.3230  220.0090 C   0  0  0  0  0  0  0  0  0  0  0  0
  145.8660   72.6280  219.5520 Cl  0  0  0  0  0  0  0  0  0  0  0  0
  144.0080   74.5800  219.5080 C   0  0  0  0  0  0  0  0  0  0  0  0
  142.7890   75.0880  219.8940 C   0  0  0  0  0  0  0  0  0  0  0  0
  142.4220   76.2730  219.4540 N   0  0  0  0  0  0  0  0  0  0  0  0
  141.2430   76.9120  219.7470 C   0  0  0  0  0  0  0  0  0  0  0  0
  141.1020   78.2160  219.1810 C   0  0  0  0  0  0  0  0  0  0  0  0
  141.8220   79.2920  219.2620 C   0  0  0  0  0  0  0  0  0  0  0  0
  141.7260   80.2890  220.3330 C   0  0  0  0  0  0  0  0  0  0  0  0
  140.9280   81.4150  220.1630 C   0  0  0  0  0  0  0  0  0  0  0  0
  140.7910   82.3900  221.1240 C   0  0  0  0  0  0  0  0  0  0  0  0
  141.4570   82.2870  222.3240 C   0  0  0  0  0  0  0  0  0  0  0  0
  142.2530   81.1800  222.5130 C   0  0  0  0  0  0  0  0  0  0  0  0
  142.9440   81.0510  223.7310 O   0  0  0  0  0  0  0  0  0  0  0  0
  142.3900   80.1890  221.5320 C   0  0  0  0  0  0  0  0  0  0  0  0
  140.4080   76.2550  220.5510 N   0  0  0  0  0  0  0  0  0  0  0  0
  139.1100   76.7170  220.9490 C   0  0  0  0  0  0  0  0  0  0  0  0
  139.1260   77.8290  221.9250 C   0  0  0  0  0  0  0  0  0  0  0  0
  138.1420   78.7660  222.1010 C   0  0  0  0  0  0  0  0  0  0  0  0
  138.2300   79.7980  223.0310 C   0  0  0  0  0  0  0  0  0  0  0  0
  139.3270   79.9240  223.8270 C   0  0  0  0  0  0  0  0  0  0  0  0
  140.3380   79.0080  223.6850 C   0  0  0  0  0  0  0  0  0  0  0  0
  141.4730   79.1170  224.4900 O   0  0  0  0  0  0  0  0  0  0  0  0
  140.2440   77.9940  222.7660 C   0  0  0  0  0  0  0  0  0  0  0  0
  141.5685   72.6114  221.8831 H   0  0  0  0  0  0  0  0  0  0  0  0
  143.7698   71.6341  221.2172 H   0  0  0  0  0  0  0  0  0  0  0  0
  144.6873   75.1343  218.8436 H   0  0  0  0  0  0  0  0  0  0  0  0
  140.2064   78.3302  218.5527 H   0  0  0  0  0  0  0  0  0  0  0  0
  142.5608   79.4701  218.4667 H   0  0  0  0  0  0  0  0  0  0  0  0
  140.3807   81.5317  219.2160 H   0  0  0  0  0  0  0  0  0  0  0  0
  140.1441   83.2587  220.9317 H   0  0  0  0  0  0  0  0  0  0  0  0
  141.3571   83.0588  223.1014 H   0  0  0  0  0  0  0  0  0  0  0  0
  143.3270   80.1650  224.0030 H   0  0  0  0  0  0  0  0  0  0  0  0
  143.0370   79.3203  221.7239 H   0  0  0  0  0  0  0  0  0  0  0  0
  138.5759   77.0572  220.0496 H   0  0  0  0  0  0  0  0  0  0  0  0
  138.6166   75.8702  221.4484 H   0  0  0  0  0  0  0  0  0  0  0  0
  137.2385   78.6995  221.4770 H   0  0  0  0  0  0  0  0  0  0  0  0
  137.4045   80.5191  223.1236 H   0  0  0  0  0  0  0  0  0  0  0  0
  139.4006   80.7377  224.5635 H   0  0  0  0  0  0  0  0  0  0  0  0
  141.8940   80.0450  224.5970 H   0  0  0  0  0  0  0  0  0  0  0  0
  141.0764   77.2798  222.6823 H   0  0  0  0  0  0  0  0  0  0  0  0
  1  2  2  0
  2  3  1  0
  3  4  2  0
  4  5  1  0
  5  6  2  0
  6  7  1  0
  6  8  1  0
  8  9  2  0
  9 10  1  0
 10 11  2  0
 11 12  1  0
 12 13  2  0
 13 14  1  0
 14 15  2  0
 15 16  1  0
 16 17  2  0
 17 18  1  0
 18 19  1  0
 18 20  2  0
 11 21  1  0
 21 22  1  0
 22 23  1  0
 23 24  2  0
 24 25  1  0
 25 26  2  0
 26 27  1  0
 27 28  1  0
 27 29  2  0
 21  2  1  0
 29 23  1  0
  9  3  1  0
 20 14  1  0
  4 30  1  0
  5 31  1  0
  8 32  1  0
 12 33  1  0
 13 34  1  0
 15 35  1  0
 16 36  1  0
 17 37  1  0
 19 38  1  0
 20 39  1  0
 22 40  1  0
 22 41  1  0
 24 42  1  0
 25 43  1  0
 26 44  1  0
 28 45  1  0
 29 46  1  0
M  END
>  <smiles>  (12) 
O=c1c2ccc(Cl)cc2nc(/C=C/c2cccc(O)c2)n1Cc1cccc(O)c1

>  <score_type>  (12) 
oracle

>  <origin>  (12) 
autodockgpu

>  <m_score__min__energy>  (12) 
-9.1099999999999994

>  <m_primary>  (12) 
energy

>  <rmsd>  (12) 
4.333970602220881

>  <m_score__min__rmsd>  (12) 
4.333970602220881

>  <meeko>  (12) 
{"free_energy": -5.59, "intermolecular_energy": -7.68, "internal_energy": -3.05, "cluster_size": 8, "cluster_id": 6, "rank_in_cluster": 8}

>  <energy>  (12) 
-8.14

>  <cluster_rmsd>  (12) 
1.28

>  <cluster>  (12) 
1

$$$$

     RDKit          3D

 46 49  0  0  0  0  0  0  0  0999 V2000
  140.1230   72.3770  223.1300 O   0  0  0  0  0  0  0  0  0  0  0  0
  139.3410   71.5240  223.6310 C   0  0  0  0  0  0  0  0  0  0  0  0
  139.7980   70.8480  224.7350 C   0  0  0  0  0  0  0  0  0  0  0  0
  141.0460   71.0990  225.2570 C   0  0  0  0  0  0  0  0  0  0  0  0
  141.4140   70.3680  226.3710 C   0  0  0  0  0  0  0  0  0  0  0  0
  140.5570   69.4320  226.9240 C   0  0  0  0  0  0  0  0  0  0  0  0
  141.0480   68.5200  228.3320 Cl  0  0  0  0  0  0  0  0  0  0  0  0
  139.2960   69.1810  226.3930 C   0  0  0  0  0  0  0  0  0  0  0  0
  138.9520   69.9200  225.2850 C   0  0  0  0  0  0  0  0  0  0  0  0
  137.7720   69.7330  224.7330 N   0  0  0  0  0  0  0  0  0  0  0  0
  137.2850   70.3900  223.6300 C   0  0  0  0  0  0  0  0  0  0  0  0
  135.9880   69.9720  223.1980 C   0  0  0  0  0  0  0  0  0  0  0  0
  134.7970   70.1740  223.6710 C   0  0  0  0  0  0  0  0  0  0  0  0
  134.5010   70.7770  224.9740 C   0  0  0  0  0  0  0  0  0  0  0  0
  134.5460   69.9970  226.1250 C   0  0  0  0  0  0  0  0  0  0  0  0
  134.2810   70.4950  227.3810 C   0  0  0  0  0  0  0  0  0  0  0  0
  133.9480   71.8190  227.5510 C   0  0  0  0  0  0  0  0  0  0  0  0
  133.8960   72.6090  226.4230 C   0  0  0  0  0  0  0  0  0  0  0  0
  133.5590   73.9660  226.5710 O   0  0  0  0  0  0  0  0  0  0  0  0
  134.1690   72.0990  225.1480 C   0  0  0  0  0  0  0  0  0  0  0  0
  138.0960   71.2950  223.0850 N   0  0  0  0  0  0  0  0  0  0  0  0
  137.7720   72.1230  221.9600 C   0  0  0  0  0  0  0  0  0  0  0  0
  137.3380   73.4940  222.3110 C   0  0  0  0  0  0  0  0  0  0  0  0
  137.9510   74.6590  221.9320 C   0  0  0  0  0  0  0  0  0  0  0  0
  137.4970   75.9190  222.3120 C   0  0  0  0  0  0  0  0  0  0  0  0
  136.3930   76.0510  223.0970 C   0  0  0  0  0  0  0  0  0  0  0  0
  135.7460   74.9100  223.5010 C   0  0  0  0  0  0  0  0  0  0  0  0
  134.6120   75.0200  224.3070 O   0  0  0  0  0  0  0  0  0  0  0  0
  136.2010   73.6720  223.1230 C   0  0  0  0  0  0  0  0  0  0  0  0
  141.7186   71.8455  224.8094 H   0  0  0  0  0  0  0  0  0  0  0  0
  142.4024   70.5325  226.8248 H   0  0  0  0  0  0  0  0  0  0  0  0
  138.6154   68.4369  226.8324 H   0  0  0  0  0  0  0  0  0  0  0  0
  136.0027   69.3585  222.2851 H   0  0  0  0  0  0  0  0  0  0  0  0
  133.9441   69.8696  223.0466 H   0  0  0  0  0  0  0  0  0  0  0  0
  134.8054   68.9325  226.0271 H   0  0  0  0  0  0  0  0  0  0  0  0
  134.3360   69.8293  228.2550 H   0  0  0  0  0  0  0  0  0  0  0  0
  133.7318   72.2307  228.5479 H   0  0  0  0  0  0  0  0  0  0  0  0
  133.1600   74.4740  225.8040 H   0  0  0  0  0  0  0  0  0  0  0  0
  134.1171   72.7652  224.2742 H   0  0  0  0  0  0  0  0  0  0  0  0
  138.6640   72.1982  221.3207 H   0  0  0  0  0  0  0  0  0  0  0  0
  136.9196   71.6449  221.4551 H   0  0  0  0  0  0  0  0  0  0  0  0
  138.8462   74.5958  221.2960 H   0  0  0  0  0  0  0  0  0  0  0  0
  138.0358   76.8167  221.9745 H   0  0  0  0  0  0  0  0  0  0  0  0
  136.0295   77.0443  223.3992 H   0  0  0  0  0  0  0  0  0  0  0  0
  134.7450   74.9930  225.3230 H   0  0  0  0  0  0  0  0  0  0  0  0
  135.6552   72.7816  223.4684 H   0  0  0  0  0  0  0  0  0  0  0  0
  1  2  2  0
  2  3  1  0
  3  4  2  0
  4  5  1  0
  5  6  2  0
  6  7  1  0
  6  8  1  0
  8  9  2  0
  9 10  1  0
 10 11  2  0
 11 12  1  0
 12 13  2  0
 13 14  1  0
 14 15  2  0
 15 16  1  0
 16 17  2  0
 17 18  1  0
 18 19  1  0
 18 20  2  0
 11 21  1  0
 21 22  1  0
 22 23  1  0
 23 24  2  0
 24 25  1  0
 25 26  2  0
 26 27  1  0
 27 28  1  0
 27 29  2  0
 21  2  1  0
 29 23  1  0
  9  3  1  0
 20 14  1  0
  4 30  1  0
  5 31  1  0
  8 32  1  0
 12 33  1  0
 13 34  1  0
 15 35  1  0
 16 36  1  0
 17 37  1  0
 19 38  1  0
 20 39  1  0
 22 40  1  0
 22 41  1  0
 24 42  1  0
 25 43  1  0
 26 44  1  0
 28 45  1  0
 29 46  1  0
M  END
>  <smiles>  (13) 
O=c1c2ccc(Cl)cc2nc(/C=C/c2cccc(O)c2)n1Cc1cccc(O)c1

>  <score_type>  (13) 
oracle

>  <origin>  (13) 
autodockgpu

>  <m_score__min__energy>  (13) 
-9.1099999999999994

>  <m_primary>  (13) 
energy

>  <rmsd>  (13) 
8.456140360393302

>  <m_score__min__rmsd>  (13) 
8.456140360393302

>  <meeko>  (13) 
{"free_energy": -6.63, "intermolecular_energy": -8.72, "internal_energy": -2.91, "cluster_size": 12, "cluster_id": 2, "rank_in_cluster": 3}

>  <energy>  (13) 
-8.12

>  <cluster_rmsd>  (13) 
1.86

>  <cluster>  (13) 
1

$$$$

     RDKit          3D

 46 49  0  0  0  0  0  0  0  0999 V2000
  142.3040   75.2680  218.6360 O   0  0  0  0  0  0  0  0  0  0  0  0
  141.8020   75.0280  219.7670 C   0  0  0  0  0  0  0  0  0  0  0  0
  141.5770   76.1110  220.5800 C   0  0  0  0  0  0  0  0  0  0  0  0
  141.8880   77.3870  220.1680 C   0  0  0  0  0  0  0  0  0  0  0  0
  141.6230   78.4110  221.0580 C   0  0  0  0  0  0  0  0  0  0  0  0
  141.0710   78.1500  222.3000 C   0  0  0  0  0  0  0  0  0  0  0  0
  140.7460   79.4640  223.4060 Cl  0  0  0  0  0  0  0  0  0  0  0  0
  140.7580   76.8590  222.7130 C   0  0  0  0  0  0  0  0  0  0  0  0
  141.0310   75.8570  221.8110 C   0  0  0  0  0  0  0  0  0  0  0  0
  140.7590   74.6120  222.1380 N   0  0  0  0  0  0  0  0  0  0  0  0
  140.9710   73.5070  221.3510 C   0  0  0  0  0  0  0  0  0  0  0  0
  140.6310   72.2570  221.9550 C   0  0  0  0  0  0  0  0  0  0  0  0
  139.7230   71.9150  222.8150 C   0  0  0  0  0  0  0  0  0  0  0  0
  139.9500   71.0510  223.9780 C   0  0  0  0  0  0  0  0  0  0  0  0
  140.6910   71.5220  225.0570 C   0  0  0  0  0  0  0  0  0  0  0  0
  140.9430   70.7690  226.1810 C   0  0  0  0  0  0  0  0  0  0  0  0
  140.4600   69.4840  226.2840 C   0  0  0  0  0  0  0  0  0  0  0  0
  139.7250   68.9980  225.2250 C   0  0  0  0  0  0  0  0  0  0  0  0
  139.2200   67.6880  225.3060 O   0  0  0  0  0  0  0  0  0  0  0  0
  139.4700   69.7680  224.0840 C   0  0  0  0  0  0  0  0  0  0  0  0
  141.5010   73.7390  220.1510 N   0  0  0  0  0  0  0  0  0  0  0  0
  141.7640   72.7390  219.1570 C   0  0  0  0  0  0  0  0  0  0  0  0
  143.1180   72.1450  219.2270 C   0  0  0  0  0  0  0  0  0  0  0  0
  143.4120   70.8110  219.3280 C   0  0  0  0  0  0  0  0  0  0  0  0
  144.7130   70.3200  219.4050 C   0  0  0  0  0  0  0  0  0  0  0  0
  145.7770   71.1680  219.3840 C   0  0  0  0  0  0  0  0  0  0  0  0
  145.5300   72.5140  219.2840 C   0  0  0  0  0  0  0  0  0  0  0  0
  146.6050   73.4040  219.2600 O   0  0  0  0  0  0  0  0  0  0  0  0
  144.2450   72.9900  219.2080 C   0  0  0  0  0  0  0  0  0  0  0  0
  142.3263   77.5825  219.1782 H   0  0  0  0  0  0  0  0  0  0  0  0
  141.8543   79.4485  220.7749 H   0  0  0  0  0  0  0  0  0  0  0  0
  140.3191   76.6522  223.7002 H   0  0  0  0  0  0  0  0  0  0  0  0
  141.2645   71.4204  221.6253 H   0  0  0  0  0  0  0  0  0  0  0  0
  138.7051   72.3023  222.6606 H   0  0  0  0  0  0  0  0  0  0  0  0
  141.0944   72.5443  225.0096 H   0  0  0  0  0  0  0  0  0  0  0  0
  141.5349   71.1972  227.0034 H   0  0  0  0  0  0  0  0  0  0  0  0
  140.6532   68.8700  227.1760 H   0  0  0  0  0  0  0  0  0  0  0  0
  139.5950   66.9650  224.7200 H   0  0  0  0  0  0  0  0  0  0  0  0
  138.8777   69.3403  223.2617 H   0  0  0  0  0  0  0  0  0  0  0  0
  141.0276   71.9310  219.2793 H   0  0  0  0  0  0  0  0  0  0  0  0
  141.6930   73.2417  218.1811 H   0  0  0  0  0  0  0  0  0  0  0  0
  142.5796   70.0922  219.3493 H   0  0  0  0  0  0  0  0  0  0  0  0
  144.8821   69.2359  219.4836 H   0  0  0  0  0  0  0  0  0  0  0  0
  146.8064   70.7851  219.4455 H   0  0  0  0  0  0  0  0  0  0  0  0
  146.3970   74.4050  219.3390 H   0  0  0  0  0  0  0  0  0  0  0  0
  144.0887   74.0760  219.1290 H   0  0  0  0  0  0  0  0  0  0  0  0
  1  2  2  0
  2  3  1  0
  3  4  2  0
  4  5  1  0
  5  6  2  0
  6  7  1  0
  6  8  1  0
  8  9  2  0
  9 10  1  0
 10 11  2  0
 11 12  1  0
 12 13  2  0
 13 14  1  0
 14 15  2  0
 15 16  1  0
 16 17  2  0
 17 18  1  0
 18 19  1  0
 18 20  2  0
 11 21  1  0
 21 22  1  0
 22 23  1  0
 23 24  2  0
 24 25  1  0
 25 26  2  0
 26 27  1  0
 27 28  1  0
 27 29  2  0
 21  2  1  0
 29 23  1  0
  9  3  1  0
 20 14  1  0
  4 30  1  0
  5 31  1  0
  8 32  1  0
 12 33  1  0
 13 34  1  0
 15 35  1  0
 16 36  1  0
 17 37  1  0
 19 38  1  0
 20 39  1  0
 22 40  1  0
 22 41  1  0
 24 42  1  0
 25 43  1  0
 26 44  1  0
 28 45  1  0
 29 46  1  0
M  END
>  <smiles>  (14) 
O=c1c2ccc(Cl)cc2nc(/C=C/c2cccc(O)c2)n1Cc1cccc(O)c1

>  <score_type>  (14) 
oracle

>  <origin>  (14) 
autodockgpu

>  <m_score__min__energy>  (14) 
-9.1099999999999994

>  <m_primary>  (14) 
energy

>  <rmsd>  (14) 
8.439580627824665

>  <m_score__min__rmsd>  (14) 
8.439580627824665

>  <meeko>  (14) 
{"free_energy": -8.34, "intermolecular_energy": -10.43, "internal_energy": -0.91, "cluster_size": 16, "cluster_id": 1, "rank_in_cluster": 6}

>  <energy>  (14) 
-8.1

>  <cluster_rmsd>  (14) 
1.29

>  <cluster>  (14) 
1

$$$$

     RDKit          3D

 46 49  0  0  0  0  0  0  0  0999 V2000
  142.9640   74.7950  220.7270 O   0  0  0  0  0  0  0  0  0  0  0  0
  141.8680   74.4570  221.2490 C   0  0  0  0  0  0  0  0  0  0  0  0
  140.9670   75.4640  221.4900 C   0  0  0  0  0  0  0  0  0  0  0  0
  141.2570   76.7700  221.1720 C   0  0  0  0  0  0  0  0  0  0  0  0
  140.2850   77.7110  221.4520 C   0  0  0  0  0  0  0  0  0  0  0  0
  139.0800   77.3420  222.0250 C   0  0  0  0  0  0  0  0  0  0  0  0
  137.8680   78.5530  222.3700 Cl  0  0  0  0  0  0  0  0  0  0  0  0
  138.7900   76.0200  222.3460 C   0  0  0  0  0  0  0  0  0  0  0  0
  139.7720   75.1020  222.0580 C   0  0  0  0  0  0  0  0  0  0  0  0
  139.5620   73.8330  222.3350 N   0  0  0  0  0  0  0  0  0  0  0  0
  140.4400   72.8010  222.1080 C   0  0  0  0  0  0  0  0  0  0  0  0
  139.9910   71.5160  222.5400 C   0  0  0  0  0  0  0  0  0  0  0  0
  139.2260   71.1350  223.5160 C   0  0  0  0  0  0  0  0  0  0  0  0
  139.6690   70.3570  224.6780 C   0  0  0  0  0  0  0  0  0  0  0  0
  140.6050   70.8950  225.5550 C   0  0  0  0  0  0  0  0  0  0  0  0
  141.0660   70.2240  226.6650 C   0  0  0  0  0  0  0  0  0  0  0  0
  140.6070   68.9590  226.9570 C   0  0  0  0  0  0  0  0  0  0  0  0
  139.6810   68.4080  226.1000 C   0  0  0  0  0  0  0  0  0  0  0  0
  139.1970   67.1170  226.3770 O   0  0  0  0  0  0  0  0  0  0  0  0
  139.2140   69.0950  224.9720 C   0  0  0  0  0  0  0  0  0  0  0  0
  141.6050   73.1390  221.5560 N   0  0  0  0  0  0  0  0  0  0  0  0
  142.6440   72.2190  221.1950 C   0  0  0  0  0  0  0  0  0  0  0  0
  143.1160   72.3430  219.7970 C   0  0  0  0  0  0  0  0  0  0  0  0
  142.3610   72.1520  218.6690 C   0  0  0  0  0  0  0  0  0  0  0  0
  142.8740   72.2690  217.3810 C   0  0  0  0  0  0  0  0  0  0  0  0
  144.1820   72.5870  217.1800 C   0  0  0  0  0  0  0  0  0  0  0  0
  144.9750   72.7880  218.2820 C   0  0  0  0  0  0  0  0  0  0  0  0
  146.3210   73.1150  218.1020 O   0  0  0  0  0  0  0  0  0  0  0  0
  144.4630   72.6700  219.5490 C   0  0  0  0  0  0  0  0  0  0  0  0
  142.2175   77.0522  220.7162 H   0  0  0  0  0  0  0  0  0  0  0  0
  140.4713   78.7691  221.2161 H   0  0  0  0  0  0  0  0  0  0  0  0
  137.8331   75.7269  222.8025 H   0  0  0  0  0  0  0  0  0  0  0  0
  140.3679   70.6862  221.9241 H   0  0  0  0  0  0  0  0  0  0  0  0
  138.1638   71.4170  223.4686 H   0  0  0  0  0  0  0  0  0  0  0  0
  140.9949   71.9034  225.3522 H   0  0  0  0  0  0  0  0  0  0  0  0
  141.8064   70.7018  227.3235 H   0  0  0  0  0  0  0  0  0  0  0  0
  140.9660   68.4103  227.8402 H   0  0  0  0  0  0  0  0  0  0  0  0
  139.5020   66.6290  227.1980 H   0  0  0  0  0  0  0  0  0  0  0  0
  138.4735   68.6176  224.3134 H   0  0  0  0  0  0  0  0  0  0  0  0
  143.5010   72.3892  221.8633 H   0  0  0  0  0  0  0  0  0  0  0  0
  142.2162   71.2103  221.2923 H   0  0  0  0  0  0  0  0  0  0  0  0
  141.2983   71.8938  218.7878 H   0  0  0  0  0  0  0  0  0  0  0  0
  142.2153   72.1027  216.5158 H   0  0  0  0  0  0  0  0  0  0  0  0
  144.5918   72.6802  216.1635 H   0  0  0  0  0  0  0  0  0  0  0  0
  146.5910   74.0970  218.2100 H   0  0  0  0  0  0  0  0  0  0  0  0
  145.1318   72.8376  220.4061 H   0  0  0  0  0  0  0  0  0  0  0  0
  1  2  2  0
  2  3  1  0
  3  4  2  0
  4  5  1  0
  5  6  2  0
  6  7  1  0
  6  8  1  0
  8  9  2  0
  9 10  1  0
 10 11  2  0
 11 12  1  0
 12 13  2  0
 13 14  1  0
 14 15  2  0
 15 16  1  0
 16 17  2  0
 17 18  1  0
 18 19  1  0
 18 20  2  0
 11 21  1  0
 21 22  1  0
 22 23  1  0
 23 24  2  0
 24 25  1  0
 25 26  2  0
 26 27  1  0
 27 28  1  0
 27 29  2  0
 21  2  1  0
 29 23  1  0
  9  3  1  0
 20 14  1  0
  4 30  1  0
  5 31  1  0
  8 32  1  0
 12 33  1  0
 13 34  1  0
 15 35  1  0
 16 36  1  0
 17 37  1  0
 19 38  1  0
 20 39  1  0
 22 40  1  0
 22 41  1  0
 24 42  1  0
 25 43  1  0
 26 44  1  0
 28 45  1  0
 29 46  1  0
M  END
>  <smiles>  (15) 
O=c1c2ccc(Cl)cc2nc(/C=C/c2cccc(O)c2)n1Cc1cccc(O)c1

>  <score_type>  (15) 
oracle

>  <origin>  (15) 
autodockgpu

>  <m_score__min__energy>  (15) 
-9.1099999999999994

>  <m_primary>  (15) 
energy

>  <rmsd>  (15) 
7.840564539964142

>  <m_score__min__rmsd>  (15) 
7.840564539964142

>  <meeko>  (15) 
{"free_energy": -8.31, "intermolecular_energy": -10.4, "internal_energy": -0.73, "cluster_size": 16, "cluster_id": 1, "rank_in_cluster": 7}

>  <energy>  (15) 
-7.96

>  <cluster_rmsd>  (15) 
1.21

>  <cluster>  (15) 
1

$$$$

     RDKit          3D

 46 49  0  0  0  0  0  0  0  0999 V2000
  140.5870   75.0050  222.0150 O   0  0  0  0  0  0  0  0  0  0  0  0
  141.4210   75.3390  221.1310 C   0  0  0  0  0  0  0  0  0  0  0  0
  142.2860   74.3630  220.7030 C   0  0  0  0  0  0  0  0  0  0  0  0
  142.2330   73.0890  221.2200 C   0  0  0  0  0  0  0  0  0  0  0  0
  143.1450   72.1770  220.7240 C   0  0  0  0  0  0  0  0  0  0  0  0
  144.0610   72.5410  219.7530 C   0  0  0  0  0  0  0  0  0  0  0  0
  145.2040   71.3680  219.1430 Cl  0  0  0  0  0  0  0  0  0  0  0  0
  144.1120   73.8310  219.2320 C   0  0  0  0  0  0  0  0  0  0  0  0
  143.1950   74.7210  219.7410 C   0  0  0  0  0  0  0  0  0  0  0  0
  143.1870   75.9580  219.2910 N   0  0  0  0  0  0  0  0  0  0  0  0
  142.3380   76.9580  219.6970 C   0  0  0  0  0  0  0  0  0  0  0  0
  142.5630   78.2290  219.0860 C   0  0  0  0  0  0  0  0  0  0  0  0
  141.8290   78.9810  218.3250 C   0  0  0  0  0  0  0  0  0  0  0  0
  141.9250   80.4420  218.2430 C   0  0  0  0  0  0  0  0  0  0  0  0
  142.9290   81.0300  217.4810 C   0  0  0  0  0  0  0  0  0  0  0  0
  143.0790   82.3920  217.3580 C   0  0  0  0  0  0  0  0  0  0  0  0
  142.2190   83.2510  218.0040 C   0  0  0  0  0  0  0  0  0  0  0  0
  141.2170   82.6890  218.7650 C   0  0  0  0  0  0  0  0  0  0  0  0
  140.3250   83.5460  219.4340 O   0  0  0  0  0  0  0  0  0  0  0  0
  141.0670   81.3020  218.8860 C   0  0  0  0  0  0  0  0  0  0  0  0
  141.4490   76.6240  220.6310 N   0  0  0  0  0  0  0  0  0  0  0  0
  140.4440   77.4980  221.1640 C   0  0  0  0  0  0  0  0  0  0  0  0
  140.9720   78.6150  221.9800 C   0  0  0  0  0  0  0  0  0  0  0  0
  141.7430   78.5000  223.1060 C   0  0  0  0  0  0  0  0  0  0  0  0
  142.1940   79.5960  223.8370 C   0  0  0  0  0  0  0  0  0  0  0  0
  141.8790   80.8630  223.4530 C   0  0  0  0  0  0  0  0  0  0  0  0
  141.1070   81.0260  222.3290 C   0  0  0  0  0  0  0  0  0  0  0  0
  140.7710   82.3160  221.9160 O   0  0  0  0  0  0  0  0  0  0  0  0
  140.6670   79.9400  221.6150 C   0  0  0  0  0  0  0  0  0  0  0  0
  141.4999   72.8099  221.9911 H   0  0  0  0  0  0  0  0  0  0  0  0
  143.1427   71.1458  221.1070 H   0  0  0  0  0  0  0  0  0  0  0  0
  144.8408   74.1207  218.4607 H   0  0  0  0  0  0  0  0  0  0  0  0
  143.5539   78.6543  219.3034 H   0  0  0  0  0  0  0  0  0  0  0  0
  141.0775   78.4849  217.6932 H   0  0  0  0  0  0  0  0  0  0  0  0
  143.6366   80.3750  216.9516 H   0  0  0  0  0  0  0  0  0  0  0  0
  143.8925   82.7977  216.7386 H   0  0  0  0  0  0  0  0  0  0  0  0
  142.3272   84.3421  217.9163 H   0  0  0  0  0  0  0  0  0  0  0  0
  139.8120   83.2170  220.2310 H   0  0  0  0  0  0  0  0  0  0  0  0
  140.2523   80.8956  219.5034 H   0  0  0  0  0  0  0  0  0  0  0  0
  139.8783   77.9246  220.3226 H   0  0  0  0  0  0  0  0  0  0  0  0
  139.8219   76.8872  221.8348 H   0  0  0  0  0  0  0  0  0  0  0  0
  142.0196   77.4924  223.4498 H   0  0  0  0  0  0  0  0  0  0  0  0
  142.8109   79.4361  224.7336 H   0  0  0  0  0  0  0  0  0  0  0  0
  142.2328   81.7322  224.0268 H   0  0  0  0  0  0  0  0  0  0  0  0
  141.3190   82.7310  221.1560 H   0  0  0  0  0  0  0  0  0  0  0  0
  140.0504   80.1118  220.7204 H   0  0  0  0  0  0  0  0  0  0  0  0
  1  2  2  0
  2  3  1  0
  3  4  2  0
  4  5  1  0
  5  6  2  0
  6  7  1  0
  6  8  1  0
  8  9  2  0
  9 10  1  0
 10 11  2  0
 11 12  1  0
 12 13  2  0
 13 14  1  0
 14 15  2  0
 15 16  1  0
 16 17  2  0
 17 18  1  0
 18 19  1  0
 18 20  2  0
 11 21  1  0
 21 22  1  0
 22 23  1  0
 23 24  2  0
 24 25  1  0
 25 26  2  0
 26 27  1  0
 27 28  1  0
 27 29  2  0
 21  2  1  0
 29 23  1  0
  9  3  1  0
 20 14  1  0
  4 30  1  0
  5 31  1  0
  8 32  1  0
 12 33  1  0
 13 34  1  0
 15 35  1  0
 16 36  1  0
 17 37  1  0
 19 38  1  0
 20 39  1  0
 22 40  1  0
 22 41  1  0
 24 42  1  0
 25 43  1  0
 26 44  1  0
 28 45  1  0
 29 46  1  0
M  END
>  <smiles>  (16) 
O=c1c2ccc(Cl)cc2nc(/C=C/c2cccc(O)c2)n1Cc1cccc(O)c1

>  <score_type>  (16) 
oracle

>  <origin>  (16) 
autodockgpu

>  <m_score__min__energy>  (16) 
-9.1099999999999994

>  <m_primary>  (16) 
energy

>  <rmsd>  (16) 
4.283831552914726

>  <m_score__min__rmsd>  (16) 
4.283831552914726

>  <meeko>  (16) 
{"free_energy": -6.15, "intermolecular_energy": -8.24, "internal_energy": -2.55, "cluster_size": 8, "cluster_id": 6, "rank_in_cluster": 5}

>  <energy>  (16) 
-7.9

>  <cluster_rmsd>  (16) 
1.0

>  <cluster>  (16) 
1

$$$$

     RDKit          3D

 46 49  0  0  0  0  0  0  0  0999 V2000
  140.7880   72.5530  222.9710 O   0  0  0  0  0  0  0  0  0  0  0  0
  139.8130   71.8790  223.3980 C   0  0  0  0  0  0  0  0  0  0  0  0
  140.0380   71.1160  224.5170 C   0  0  0  0  0  0  0  0  0  0  0  0
  141.2690   71.0970  225.1310 C   0  0  0  0  0  0  0  0  0  0  0  0
  141.3950   70.2990  226.2520 C   0  0  0  0  0  0  0  0  0  0  0  0
  140.3250   69.5590  226.7230 C   0  0  0  0  0  0  0  0  0  0  0  0
  140.5120   68.5570  228.1430 Cl  0  0  0  0  0  0  0  0  0  0  0  0
  139.0810   69.5800  226.1000 C   0  0  0  0  0  0  0  0  0  0  0  0
  138.9790   70.3810  224.9870 C   0  0  0  0  0  0  0  0  0  0  0  0
  137.8300   70.4480  224.3500 N   0  0  0  0  0  0  0  0  0  0  0  0
  137.5710   71.1990  223.2300 C   0  0  0  0  0  0  0  0  0  0  0  0
  136.2510   71.0630  222.7000 C   0  0  0  0  0  0  0  0  0  0  0  0
  135.0880   71.4420  223.1310 C   0  0  0  0  0  0  0  0  0  0  0  0
  134.6450   71.3730  224.5270 C   0  0  0  0  0  0  0  0  0  0  0  0
  134.7210   70.1690  225.2200 C   0  0  0  0  0  0  0  0  0  0  0  0
  134.3250   70.0310  226.5300 C   0  0  0  0  0  0  0  0  0  0  0  0
  133.8220   71.1070  227.2250 C   0  0  0  0  0  0  0  0  0  0  0  0
  133.7370   72.3080  226.5570 C   0  0  0  0  0  0  0  0  0  0  0  0
  133.2260   73.4230  227.2460 O   0  0  0  0  0  0  0  0  0  0  0  0
  134.1420   72.4450  225.2240 C   0  0  0  0  0  0  0  0  0  0  0  0
  138.5900   71.9180  222.7620 N   0  0  0  0  0  0  0  0  0  0  0  0
  138.5280   72.8020  221.6350 C   0  0  0  0  0  0  0  0  0  0  0  0
  138.5100   74.2410  221.9830 C   0  0  0  0  0  0  0  0  0  0  0  0
  137.4090   74.9730  222.3400 C   0  0  0  0  0  0  0  0  0  0  0  0
  137.4610   76.3320  222.6410 C   0  0  0  0  0  0  0  0  0  0  0  0
  138.6400   77.0090  222.5910 C   0  0  0  0  0  0  0  0  0  0  0  0
  139.7700   76.3150  222.2370 C   0  0  0  0  0  0  0  0  0  0  0  0
  140.9920   76.9880  222.1790 O   0  0  0  0  0  0  0  0  0  0  0  0
  139.7110   74.9770  221.9420 C   0  0  0  0  0  0  0  0  0  0  0  0
  142.1131   71.6891  224.7476 H   0  0  0  0  0  0  0  0  0  0  0  0
  142.3601   70.2514  226.7776 H   0  0  0  0  0  0  0  0  0  0  0  0
  138.2307   68.9915  226.4751 H   0  0  0  0  0  0  0  0  0  0  0  0
  136.2140   70.5325  221.7371 H   0  0  0  0  0  0  0  0  0  0  0  0
  134.3797   71.8461  222.3927 H   0  0  0  0  0  0  0  0  0  0  0  0
  135.1162   69.2863  224.6959 H   0  0  0  0  0  0  0  0  0  0  0  0
  134.4110   69.0529  227.0260 H   0  0  0  0  0  0  0  0  0  0  0  0
  133.5006   71.0114  228.2727 H   0  0  0  0  0  0  0  0  0  0  0  0
  132.8100   73.3090  228.1520 H   0  0  0  0  0  0  0  0  0  0  0  0
  134.0565   73.4232  224.7283 H   0  0  0  0  0  0  0  0  0  0  0  0
  139.4070   72.6129  221.0013 H   0  0  0  0  0  0  0  0  0  0  0  0
  137.5764   72.5918  221.1248 H   0  0  0  0  0  0  0  0  0  0  0  0
  136.4359   74.4627  222.3916 H   0  0  0  0  0  0  0  0  0  0  0  0
  136.5396   76.8631  222.9219 H   0  0  0  0  0  0  0  0  0  0  0  0
  138.6863   78.0823  222.8276 H   0  0  0  0  0  0  0  0  0  0  0  0
  141.8390   76.4270  222.0460 H   0  0  0  0  0  0  0  0  0  0  0  0
  140.6390   74.4571  221.6620 H   0  0  0  0  0  0  0  0  0  0  0  0
  1  2  2  0
  2  3  1  0
  3  4  2  0
  4  5  1  0
  5  6  2  0
  6  7  1  0
  6  8  1  0
  8  9  2  0
  9 10  1  0
 10 11  2  0
 11 12  1  0
 12 13  2  0
 13 14  1  0
 14 15  2  0
 15 16  1  0
 16 17  2  0
 17 18  1  0
 18 19  1  0
 18 20  2  0
 11 21  1  0
 21 22  1  0
 22 23  1  0
 23 24  2  0
 24 25  1  0
 25 26  2  0
 26 27  1  0
 27 28  1  0
 27 29  2  0
 21  2  1  0
 29 23  1  0
  9  3  1  0
 20 14  1  0
  4 30  1  0
  5 31  1  0
  8 32  1  0
 12 33  1  0
 13 34  1  0
 15 35  1  0
 16 36  1  0
 17 37  1  0
 19 38  1  0
 20 39  1  0
 22 40  1  0
 22 41  1  0
 24 42  1  0
 25 43  1  0
 26 44  1  0
 28 45  1  0
 29 46  1  0
M  END
>  <smiles>  (17) 
O=c1c2ccc(Cl)cc2nc(/C=C/c2cccc(O)c2)n1Cc1cccc(O)c1

>  <score_type>  (17) 
oracle

>  <origin>  (17) 
autodockgpu

>  <m_score__min__energy>  (17) 
-9.1099999999999994

>  <m_primary>  (17) 
energy

>  <rmsd>  (17) 
7.6393822065965

>  <m_score__min__rmsd>  (17) 
7.6393822065965

>  <meeko>  (17) 
{"free_energy": -7.88, "intermolecular_energy": -9.97, "internal_energy": -1.26, "cluster_size": 12, "cluster_id": 2, "rank_in_cluster": 1}

>  <energy>  (17) 
-7.88

>  <cluster_rmsd>  (17) 
0.0

>  <cluster>  (17) 
2

$$$$

     RDKit          3D

 46 49  0  0  0  0  0  0  0  0999 V2000
  140.8030   75.1700  222.2900 O   0  0  0  0  0  0  0  0  0  0  0  0
  141.0410   76.0000  221.3720 C   0  0  0  0  0  0  0  0  0  0  0  0
  141.1990   77.3090  221.7540 C   0  0  0  0  0  0  0  0  0  0  0  0
  141.1010   77.6810  223.0750 C   0  0  0  0  0  0  0  0  0  0  0  0
  141.2780   79.0220  223.3600 C   0  0  0  0  0  0  0  0  0  0  0  0
  141.5400   79.9350  222.3530 C   0  0  0  0  0  0  0  0  0  0  0  0
  141.7590   81.6250  222.7410 Cl  0  0  0  0  0  0  0  0  0  0  0  0
  141.6380   79.5550  221.0190 C   0  0  0  0  0  0  0  0  0  0  0  0
  141.4590   78.2160  220.7600 C   0  0  0  0  0  0  0  0  0  0  0  0
  141.5400   77.7880  219.5180 N   0  0  0  0  0  0  0  0  0  0  0  0
  141.3860   76.4890  219.1010 C   0  0  0  0  0  0  0  0  0  0  0  0
  141.4760   76.2910  217.6890 C   0  0  0  0  0  0  0  0  0  0  0  0
  142.4810   76.2400  216.8710 C   0  0  0  0  0  0  0  0  0  0  0  0
  143.3460   75.0730  216.6730 C   0  0  0  0  0  0  0  0  0  0  0  0
  143.0830   74.1820  215.6380 C   0  0  0  0  0  0  0  0  0  0  0  0
  143.8530   73.0680  215.3930 C   0  0  0  0  0  0  0  0  0  0  0  0
  144.9410   72.7820  216.1850 C   0  0  0  0  0  0  0  0  0  0  0  0
  145.2180   73.6510  217.2170 C   0  0  0  0  0  0  0  0  0  0  0  0
  146.3250   73.3810  218.0410 O   0  0  0  0  0  0  0  0  0  0  0  0
  144.4340   74.7850  217.4620 C   0  0  0  0  0  0  0  0  0  0  0  0
  141.1340   75.5970  220.0570 N   0  0  0  0  0  0  0  0  0  0  0  0
  140.9820   74.1860  219.8500 C   0  0  0  0  0  0  0  0  0  0  0  0
  142.2270   73.4030  220.0190 C   0  0  0  0  0  0  0  0  0  0  0  0
  142.3380   72.0380  219.9650 C   0  0  0  0  0  0  0  0  0  0  0  0
  143.5420   71.3640  220.1490 C   0  0  0  0  0  0  0  0  0  0  0  0
  144.6910   72.0490  220.3980 C   0  0  0  0  0  0  0  0  0  0  0  0
  144.6260   73.4180  220.4620 C   0  0  0  0  0  0  0  0  0  0  0  0
  145.7920   74.1440  220.7170 O   0  0  0  0  0  0  0  0  0  0  0  0
  143.4360   74.0760  220.2800 C   0  0  0  0  0  0  0  0  0  0  0  0
  140.8918   76.9464  223.8665 H   0  0  0  0  0  0  0  0  0  0  0  0
  141.2097   79.3685  224.4018 H   0  0  0  0  0  0  0  0  0  0  0  0
  141.8461   80.2811  220.2194 H   0  0  0  0  0  0  0  0  0  0  0  0
  140.5005   76.1550  217.1991 H   0  0  0  0  0  0  0  0  0  0  0  0
  142.7014   77.1415  216.2804 H   0  0  0  0  0  0  0  0  0  0  0  0
  142.2195   74.3767  214.9850 H   0  0  0  0  0  0  0  0  0  0  0  0
  143.5964   72.4007  214.5570 H   0  0  0  0  0  0  0  0  0  0  0  0
  145.5647   71.8947  216.0013 H   0  0  0  0  0  0  0  0  0  0  0  0
  146.6610   74.0780  218.6800 H   0  0  0  0  0  0  0  0  0  0  0  0
  144.6921   75.4538  218.2964 H   0  0  0  0  0  0  0  0  0  0  0  0
  140.2399   73.8111  220.5703 H   0  0  0  0  0  0  0  0  0  0  0  0
  140.6699   74.0552  218.8034 H   0  0  0  0  0  0  0  0  0  0  0  0
  141.4320   71.4466  219.7667 H   0  0  0  0  0  0  0  0  0  0  0  0
  143.5648   70.2657  220.0925 H   0  0  0  0  0  0  0  0  0  0  0  0
  145.6446   71.5204  220.5438 H   0  0  0  0  0  0  0  0  0  0  0  0
  146.2950   74.5350  219.9140 H   0  0  0  0  0  0  0  0  0  0  0  0
  143.4259   75.1743  220.3404 H   0  0  0  0  0  0  0  0  0  0  0  0
  1  2  2  0
  2  3  1  0
  3  4  2  0
  4  5  1  0
  5  6  2  0
  6  7  1  0
  6  8  1  0
  8  9  2  0
  9 10  1  0
 10 11  2  0
 11 12  1  0
 12 13  2  0
 13 14  1  0
 14 15  2  0
 15 16  1  0
 16 17  2  0
 17 18  1  0
 18 19  1  0
 18 20  2  0
 11 21  1  0
 21 22  1  0
 22 23  1  0
 23 24  2  0
 24 25  1  0
 25 26  2  0
 26 27  1  0
 27 28  1  0
 27 29  2  0
 21  2  1  0
 29 23  1  0
  9  3  1  0
 20 14  1  0
  4 30  1  0
  5 31  1  0
  8 32  1  0
 12 33  1  0
 13 34  1  0
 15 35  1  0
 16 36  1  0
 17 37  1  0
 19 38  1  0
 20 39  1  0
 22 40  1  0
 22 41  1  0
 24 42  1  0
 25 43  1  0
 26 44  1  0
 28 45  1  0
 29 46  1  0
M  END
>  <smiles>  (18) 
O=c1c2ccc(Cl)cc2nc(/C=C/c2cccc(O)c2)n1Cc1cccc(O)c1

>  <score_type>  (18) 
oracle

>  <origin>  (18) 
autodockgpu

>  <m_score__min__energy>  (18) 
-9.1099999999999994

>  <m_primary>  (18) 
energy

>  <rmsd>  (18) 
7.766942482711367

>  <m_score__min__rmsd>  (18) 
7.766942482711367

>  <meeko>  (18) 
{"free_energy": -6.34, "intermolecular_energy": -8.43, "internal_energy": -2.68, "cluster_size": 5, "cluster_id": 3, "rank_in_cluster": 5}

>  <energy>  (18) 
-7.55

>  <cluster_rmsd>  (18) 
0.96

>  <cluster>  (18) 
2

$$$$

     RDKit          3D

 46 49  0  0  0  0  0  0  0  0999 V2000
  140.0820   72.3940  223.1540 O   0  0  0  0  0  0  0  0  0  0  0  0
  139.3070   71.5370  223.6560 C   0  0  0  0  0  0  0  0  0  0  0  0
  139.7700   70.8610  224.7570 C   0  0  0  0  0  0  0  0  0  0  0  0
  141.0180   71.1170  225.2760 C   0  0  0  0  0  0  0  0  0  0  0  0
  141.3940   70.3860  226.3870 C   0  0  0  0  0  0  0  0  0  0  0  0
  140.5440   69.4440  226.9410 C   0  0  0  0  0  0  0  0  0  0  0  0
  141.0430   68.5320  228.3460 Cl  0  0  0  0  0  0  0  0  0  0  0  0
  139.2820   69.1870  226.4130 C   0  0  0  0  0  0  0  0  0  0  0  0
  138.9310   69.9270  225.3080 C   0  0  0  0  0  0  0  0  0  0  0  0
  137.7500   69.7350  224.7590 N   0  0  0  0  0  0  0  0  0  0  0  0
  137.2560   70.3920  223.6590 C   0  0  0  0  0  0  0  0  0  0  0  0
  135.9600   69.9680  223.2310 C   0  0  0  0  0  0  0  0  0  0  0  0
  134.7760   70.1110  223.7400 C   0  0  0  0  0  0  0  0  0  0  0  0
  134.4850   70.7550  225.0250 C   0  0  0  0  0  0  0  0  0  0  0  0
  134.5060   70.0060  226.1960 C   0  0  0  0  0  0  0  0  0  0  0  0
  134.2440   70.5430  227.4360 C   0  0  0  0  0  0  0  0  0  0  0  0
  133.9410   71.8790  227.5690 C   0  0  0  0  0  0  0  0  0  0  0  0
  133.9130   72.6390  226.4200 C   0  0  0  0  0  0  0  0  0  0  0  0
  133.6060   74.0070  226.5290 O   0  0  0  0  0  0  0  0  0  0  0  0
  134.1820   72.0890  225.1610 C   0  0  0  0  0  0  0  0  0  0  0  0
  138.0610   71.3030  223.1140 N   0  0  0  0  0  0  0  0  0  0  0  0
  137.7290   72.1310  221.9910 C   0  0  0  0  0  0  0  0  0  0  0  0
  137.3200   73.5090  222.3440 C   0  0  0  0  0  0  0  0  0  0  0  0
  137.9380   74.6650  221.9430 C   0  0  0  0  0  0  0  0  0  0  0  0
  137.5080   75.9320  222.3270 C   0  0  0  0  0  0  0  0  0  0  0  0
  136.4260   76.0810  223.1380 C   0  0  0  0  0  0  0  0  0  0  0  0
  135.7760   74.9510  223.5650 C   0  0  0  0  0  0  0  0  0  0  0  0
  134.6640   75.0790  224.3990 O   0  0  0  0  0  0  0  0  0  0  0  0
  136.2060   73.7060  223.1830 C   0  0  0  0  0  0  0  0  0  0  0  0
  141.6852   71.8681  224.8279 H   0  0  0  0  0  0  0  0  0  0  0  0
  142.3831   70.5551  226.8377 H   0  0  0  0  0  0  0  0  0  0  0  0
  138.6068   68.4380  226.8525 H   0  0  0  0  0  0  0  0  0  0  0  0
  135.9686   69.4104  222.2828 H   0  0  0  0  0  0  0  0  0  0  0  0
  133.9247   69.7193  223.1639 H   0  0  0  0  0  0  0  0  0  0  0  0
  134.7431   68.9340  226.1284 H   0  0  0  0  0  0  0  0  0  0  0  0
  134.2770   69.8995  228.3275 H   0  0  0  0  0  0  0  0  0  0  0  0
  133.7296   72.3223  228.5533 H   0  0  0  0  0  0  0  0  0  0  0  0
  134.1370   74.6860  226.0170 H   0  0  0  0  0  0  0  0  0  0  0  0
  134.1505   72.7324  224.2693 H   0  0  0  0  0  0  0  0  0  0  0  0
  138.6108   72.1914  221.3361 H   0  0  0  0  0  0  0  0  0  0  0  0
  136.8617   71.6627  221.5026 H   0  0  0  0  0  0  0  0  0  0  0  0
  138.8166   74.5876  221.2857 H   0  0  0  0  0  0  0  0  0  0  0  0
  138.0484   76.8215  221.9712 H   0  0  0  0  0  0  0  0  0  0  0  0
  136.0818   77.0802  223.4430 H   0  0  0  0  0  0  0  0  0  0  0  0
  133.9800   74.3150  224.4030 H   0  0  0  0  0  0  0  0  0  0  0  0
  135.6580   72.8245  223.5471 H   0  0  0  0  0  0  0  0  0  0  0  0
  1  2  2  0
  2  3  1  0
  3  4  2  0
  4  5  1  0
  5  6  2  0
  6  7  1  0
  6  8  1  0
  8  9  2  0
  9 10  1  0
 10 11  2  0
 11 12  1  0
 12 13  2  0
 13 14  1  0
 14 15  2  0
 15 16  1  0
 16 17  2  0
 17 18  1  0
 18 19  1  0
 18 20  2  0
 11 21  1  0
 21 22  1  0
 22 23  1  0
 23 24  2  0
 24 25  1  0
 25 26  2  0
 26 27  1  0
 27 28  1  0
 27 29  2  0
 21  2  1  0
 29 23  1  0
  9  3  1  0
 20 14  1  0
  4 30  1  0
  5 31  1  0
  8 32  1  0
 12 33  1  0
 13 34  1  0
 15 35  1  0
 16 36  1  0
 17 37  1  0
 19 38  1  0
 20 39  1  0
 22 40  1  0
 22 41  1  0
 24 42  1  0
 25 43  1  0
 26 44  1  0
 28 45  1  0
 29 46  1  0
M  END
>  <smiles>  (19) 
O=c1c2ccc(Cl)cc2nc(/C=C/c2cccc(O)c2)n1Cc1cccc(O)c1

>  <score_type>  (19) 
oracle

>  <origin>  (19) 
autodockgpu

>  <m_score__min__energy>  (19) 
-9.1099999999999994

>  <m_primary>  (19) 
energy

>  <rmsd>  (19) 
8.453142241062631

>  <m_score__min__rmsd>  (19) 
8.453142241062631

>  <meeko>  (19) 
{"free_energy": -6.61, "intermolecular_energy": -8.7, "internal_energy": -2.88, "cluster_size": 12, "cluster_id": 2, "rank_in_cluster": 6}

>  <energy>  (19) 
-6.63

>  <cluster_rmsd>  (19) 
1.38

>  <cluster>  (19) 
2

$$$$

     RDKit          3D

 46 49  0  0  0  0  0  0  0  0999 V2000
  142.1020   75.3110  218.7880 O   0  0  0  0  0  0  0  0  0  0  0  0
  141.5700   75.2190  219.9270 C   0  0  0  0  0  0  0  0  0  0  0  0
  141.4810   76.3790  220.6560 C   0  0  0  0  0  0  0  0  0  0  0  0
  141.9510   77.5720  220.1580 C   0  0  0  0  0  0  0  0  0  0  0  0
  141.8140   78.6830  220.9670 C   0  0  0  0  0  0  0  0  0  0  0  0
  141.2290   78.5860  222.2180 C   0  0  0  0  0  0  0  0  0  0  0  0
  141.0690   80.0070  223.2230 Cl  0  0  0  0  0  0  0  0  0  0  0  0
  140.7550   77.3770  222.7190 C   0  0  0  0  0  0  0  0  0  0  0  0
  140.9020   76.2850  221.8960 C   0  0  0  0  0  0  0  0  0  0  0  0
  140.4730   75.1120  222.3080 N   0  0  0  0  0  0  0  0  0  0  0  0
  140.5470   73.9340  221.6050 C   0  0  0  0  0  0  0  0  0  0  0  0
  140.0510   72.7850  222.2930 C   0  0  0  0  0  0  0  0  0  0  0  0
  140.5970   71.6570  222.6280 C   0  0  0  0  0  0  0  0  0  0  0  0
  140.3750   70.9590  223.8980 C   0  0  0  0  0  0  0  0  0  0  0  0
  140.6810   71.5910  225.0990 C   0  0  0  0  0  0  0  0  0  0  0  0
  140.4980   70.9980  226.3270 C   0  0  0  0  0  0  0  0  0  0  0  0
  139.9940   69.7210  226.4180 C   0  0  0  0  0  0  0  0  0  0  0  0
  139.6860   69.0760  225.2400 C   0  0  0  0  0  0  0  0  0  0  0  0
  139.1680   67.7700  225.3070 O   0  0  0  0  0  0  0  0  0  0  0  0
  139.8720   69.6840  223.9930 C   0  0  0  0  0  0  0  0  0  0  0  0
  141.1070   74.0100  220.3990 N   0  0  0  0  0  0  0  0  0  0  0  0
  141.2460   72.9150  219.4830 C   0  0  0  0  0  0  0  0  0  0  0  0
  142.5610   72.2360  219.5330 C   0  0  0  0  0  0  0  0  0  0  0  0
  142.8030   70.9760  220.0140 C   0  0  0  0  0  0  0  0  0  0  0  0
  144.0710   70.4030  220.0450 C   0  0  0  0  0  0  0  0  0  0  0  0
  145.1540   71.0870  219.5860 C   0  0  0  0  0  0  0  0  0  0  0  0
  144.9580   72.3530  219.0950 C   0  0  0  0  0  0  0  0  0  0  0  0
  146.0540   73.0760  218.6190 O   0  0  0  0  0  0  0  0  0  0  0  0
  143.7060   72.9120  219.0680 C   0  0  0  0  0  0  0  0  0  0  0  0
  142.4141   77.6380  219.1624 H   0  0  0  0  0  0  0  0  0  0  0  0
  142.1751   79.6595  220.6120 H   0  0  0  0  0  0  0  0  0  0  0  0
  140.2908   77.2996  223.7133 H   0  0  0  0  0  0  0  0  0  0  0  0
  138.9983   72.8741  222.5993 H   0  0  0  0  0  0  0  0  0  0  0  0
  141.2790   71.1881  221.9035 H   0  0  0  0  0  0  0  0  0  0  0  0
  141.0882   72.6123  225.0653 H   0  0  0  0  0  0  0  0  0  0  0  0
  140.7567   71.5492  227.2431 H   0  0  0  0  0  0  0  0  0  0  0  0
  139.8429   69.2342  227.3928 H   0  0  0  0  0  0  0  0  0  0  0  0
  139.5750   67.0380  224.7560 H   0  0  0  0  0  0  0  0  0  0  0  0
  139.6119   69.1336  223.0768 H   0  0  0  0  0  0  0  0  0  0  0  0
  140.4672   72.1731  219.7136 H   0  0  0  0  0  0  0  0  0  0  0  0
  141.1507   73.3385  218.4723 H   0  0  0  0  0  0  0  0  0  0  0  0
  141.9540   70.3889  220.3941 H   0  0  0  0  0  0  0  0  0  0  0  0
  144.1990   69.3863  220.4448 H   0  0  0  0  0  0  0  0  0  0  0  0
  146.1579   70.6378  219.6080 H   0  0  0  0  0  0  0  0  0  0  0  0
  145.9640   74.0950  218.5620 H   0  0  0  0  0  0  0  0  0  0  0  0
  143.5912   73.9298  218.6668 H   0  0  0  0  0  0  0  0  0  0  0  0
  1  2  2  0
  2  3  1  0
  3  4  2  0
  4  5  1  0
  5  6  2  0
  6  7  1  0
  6  8  1  0
  8  9  2  0
  9 10  1  0
 10 11  2  0
 11 12  1  0
 12 13  2  0
 13 14  1  0
 14 15  2  0
 15 16  1  0
 16 17  2  0
 17 18  1  0
 18 19  1  0
 18 20  2  0
 11 21  1  0
 21 22  1  0
 22 23  1  0
 23 24  2  0
 24 25  1  0
 25 26  2  0
 26 27  1  0
 27 28  1  0
 27 29  2  0
 21  2  1  0
 29 23  1  0
  9  3  1  0
 20 14  1  0
  4 30  1  0
  5 31  1  0
  8 32  1  0
 12 33  1  0
 13 34  1  0
 15 35  1  0
 16 36  1  0
 17 37  1  0
 19 38  1  0
 20 39  1  0
 22 40  1  0
 22 41  1  0
 24 42  1  0
 25 43  1  0
 26 44  1  0
 28 45  1  0
 29 46  1  0
M  END
>  <smiles>  (20) 
O=c1c2ccc(Cl)cc2nc(/C=C/c2cccc(O)c2)n1Cc1cccc(O)c1

>  <score_type>  (20) 
oracle

>  <origin>  (20) 
autodockgpu

>  <m_score__min__energy>  (20) 
-9.1099999999999994

>  <m_primary>  (20) 
energy

>  <rmsd>  (20) 
8.222436655363085

>  <m_score__min__rmsd>  (20) 
8.222436655363085

>  <meeko>  (20) 
{"free_energy": -8.18, "intermolecular_energy": -10.26, "internal_energy": -0.99, "cluster_size": 16, "cluster_id": 1, "rank_in_cluster": 9}

>  <energy>  (20) 
-6.62

>  <cluster_rmsd>  (20) 
1.38

>  <cluster>  (20) 
2

$$$$

     RDKit          3D

 46 49  0  0  0  0  0  0  0  0999 V2000
  140.0110   72.3670  223.1170 O   0  0  0  0  0  0  0  0  0  0  0  0
  139.2520   71.5040  223.6340 C   0  0  0  0  0  0  0  0  0  0  0  0
  139.7400   70.8360  224.7290 C   0  0  0  0  0  0  0  0  0  0  0  0
  140.9940   71.1050  225.2270 C   0  0  0  0  0  0  0  0  0  0  0  0
  141.3940   70.3810  226.3330 C   0  0  0  0  0  0  0  0  0  0  0  0
  140.5620   69.4330  226.9040 C   0  0  0  0  0  0  0  0  0  0  0  0
  141.0930   68.5300  228.3030 Cl  0  0  0  0  0  0  0  0  0  0  0  0
  139.2940   69.1630  226.3980 C   0  0  0  0  0  0  0  0  0  0  0  0
  138.9180   69.8960  225.2960 C   0  0  0  0  0  0  0  0  0  0  0  0
  137.7310   69.6920  224.7670 N   0  0  0  0  0  0  0  0  0  0  0  0
  137.2120   70.3410  223.6740 C   0  0  0  0  0  0  0  0  0  0  0  0
  135.9140   69.9040  223.2680 C   0  0  0  0  0  0  0  0  0  0  0  0
  134.7860   69.7930  223.9000 C   0  0  0  0  0  0  0  0  0  0  0  0
  134.3740   70.6240  225.0360 C   0  0  0  0  0  0  0  0  0  0  0  0
  134.3180   70.0740  226.3120 C   0  0  0  0  0  0  0  0  0  0  0  0
  133.9410   70.7930  227.4230 C   0  0  0  0  0  0  0  0  0  0  0  0
  133.5940   72.1200  227.3120 C   0  0  0  0  0  0  0  0  0  0  0  0
  133.6420   72.6830  226.0570 C   0  0  0  0  0  0  0  0  0  0  0  0
  133.2920   74.0380  225.9170 O   0  0  0  0  0  0  0  0  0  0  0  0
  134.0270   71.9490  224.9280 C   0  0  0  0  0  0  0  0  0  0  0  0
  138.0000   71.2570  223.1130 N   0  0  0  0  0  0  0  0  0  0  0  0
  137.6420   72.0790  221.9930 C   0  0  0  0  0  0  0  0  0  0  0  0
  137.3240   73.4830  222.3390 C   0  0  0  0  0  0  0  0  0  0  0  0
  138.0420   74.5900  221.9700 C   0  0  0  0  0  0  0  0  0  0  0  0
  137.6940   75.8840  222.3440 C   0  0  0  0  0  0  0  0  0  0  0  0
  136.5950   76.1120  223.1130 C   0  0  0  0  0  0  0  0  0  0  0  0
  135.8440   75.0320  223.5060 C   0  0  0  0  0  0  0  0  0  0  0  0
  134.7120   75.2410  224.2960 O   0  0  0  0  0  0  0  0  0  0  0  0
  136.1950   73.7600  223.1340 C   0  0  0  0  0  0  0  0  0  0  0  0
  141.6470   71.8608  224.7662 H   0  0  0  0  0  0  0  0  0  0  0  0
  142.3888   70.5602  226.7669 H   0  0  0  0  0  0  0  0  0  0  0  0
  138.6329   68.4097  226.8513 H   0  0  0  0  0  0  0  0  0  0  0  0
  135.8600   69.6021  222.2116 H   0  0  0  0  0  0  0  0  0  0  0  0
  134.0858   69.0168  223.5577 H   0  0  0  0  0  0  0  0  0  0  0  0
  134.5876   69.0151  226.4391 H   0  0  0  0  0  0  0  0  0  0  0  0
  133.9168   70.3032  228.4076 H   0  0  0  0  0  0  0  0  0  0  0  0
  133.2904   72.7073  228.1911 H   0  0  0  0  0  0  0  0  0  0  0  0
  134.0020   74.7300  225.7670 H   0  0  0  0  0  0  0  0  0  0  0  0
  134.0518   72.4390  223.9435 H   0  0  0  0  0  0  0  0  0  0  0  0
  138.4844   72.0818  221.2856 H   0  0  0  0  0  0  0  0  0  0  0  0
  136.7247   71.6460  221.5675 H   0  0  0  0  0  0  0  0  0  0  0  0
  138.9377   74.4487  221.3474 H   0  0  0  0  0  0  0  0  0  0  0  0
  138.3135   76.7312  222.0147 H   0  0  0  0  0  0  0  0  0  0  0  0
  136.3160   77.1333  223.4116 H   0  0  0  0  0  0  0  0  0  0  0  0
  133.8170   74.8790  223.9510 H   0  0  0  0  0  0  0  0  0  0  0  0
  135.5686   72.9207  223.4705 H   0  0  0  0  0  0  0  0  0  0  0  0
  1  2  2  0
  2  3  1  0
  3  4  2  0
  4  5  1  0
  5  6  2  0
  6  7  1  0
  6  8  1  0
  8  9  2  0
  9 10  1  0
 10 11  2  0
 11 12  1  0
 12 13  2  0
 13 14  1  0
 14 15  2  0
 15 16  1  0
 16 17  2  0
 17 18  1  0
 18 19  1  0
 18 20  2  0
 11 21  1  0
 21 22  1  0
 22 23  1  0
 23 24  2  0
 24 25  1  0
 25 26  2  0
 26 27  1  0
 27 28  1  0
 27 29  2  0
 21  2  1  0
 29 23  1  0
  9  3  1  0
 20 14  1  0
  4 30  1  0
  5 31  1  0
  8 32  1  0
 12 33  1  0
 13 34  1  0
 15 35  1  0
 16 36  1  0
 17 37  1  0
 19 38  1  0
 20 39  1  0
 22 40  1  0
 22 41  1  0
 24 42  1  0
 25 43  1  0
 26 44  1  0
 28 45  1  0
 29 46  1  0
M  END
>  <smiles>  (21) 
O=c1c2ccc(Cl)cc2nc(/C=C/c2cccc(O)c2)n1Cc1cccc(O)c1

>  <score_type>  (21) 
oracle

>  <origin>  (21) 
autodockgpu

>  <m_score__min__energy>  (21) 
-9.1099999999999994

>  <m_primary>  (21) 
energy

>  <rmsd>  (21) 
8.447251132653673

>  <m_score__min__rmsd>  (21) 
8.447251132653673

>  <meeko>  (21) 
{"free_energy": -6.11, "intermolecular_energy": -8.2, "internal_energy": -2.83, "cluster_size": 12, "cluster_id": 2, "rank_in_cluster": 10}

>  <energy>  (21) 
-6.61

>  <cluster_rmsd>  (21) 
1.36

>  <cluster>  (21) 
2

$$$$

     RDKit          3D

 46 49  0  0  0  0  0  0  0  0999 V2000
  142.1070   74.8970  218.6850 O   0  0  0  0  0  0  0  0  0  0  0  0
  141.6400   74.7380  219.8440 C   0  0  0  0  0  0  0  0  0  0  0  0
  141.4830   75.8720  220.6020 C   0  0  0  0  0  0  0  0  0  0  0  0
  141.8210   77.1110  220.1090 C   0  0  0  0  0  0  0  0  0  0  0  0
  141.6250   78.1910  220.9470 C   0  0  0  0  0  0  0  0  0  0  0  0
  141.1110   78.0200  222.2210 C   0  0  0  0  0  0  0  0  0  0  0  0
  140.8730   79.4040  223.2620 Cl  0  0  0  0  0  0  0  0  0  0  0  0
  140.7700   76.7660  222.7170 C   0  0  0  0  0  0  0  0  0  0  0  0
  140.9740   75.7060  221.8640 C   0  0  0  0  0  0  0  0  0  0  0  0
  140.6710   74.4910  222.2700 N   0  0  0  0  0  0  0  0  0  0  0  0
  140.8160   73.3380  221.5400 C   0  0  0  0  0  0  0  0  0  0  0  0
  140.4570   72.1370  222.2250 C   0  0  0  0  0  0  0  0  0  0  0  0
  139.6480   71.8950  223.2100 C   0  0  0  0  0  0  0  0  0  0  0  0
  139.9100   70.9520  224.3010 C   0  0  0  0  0  0  0  0  0  0  0  0
  140.6580   71.3560  225.4020 C   0  0  0  0  0  0  0  0  0  0  0  0
  140.9430   70.5260  226.4620 C   0  0  0  0  0  0  0  0  0  0  0  0
  140.4880   69.2270  226.4740 C   0  0  0  0  0  0  0  0  0  0  0  0
  139.7460   68.8060  225.3930 C   0  0  0  0  0  0  0  0  0  0  0  0
  139.2690   67.4830  225.3820 O   0  0  0  0  0  0  0  0  0  0  0  0
  139.4570   69.6550  224.3170 C   0  0  0  0  0  0  0  0  0  0  0  0
  141.3090   73.4840  220.3110 N   0  0  0  0  0  0  0  0  0  0  0  0
  141.5010   72.4220  219.3660 C   0  0  0  0  0  0  0  0  0  0  0  0
  142.8620   71.8400  219.3640 C   0  0  0  0  0  0  0  0  0  0  0  0
  143.1890   70.5460  219.6710 C   0  0  0  0  0  0  0  0  0  0  0  0
  144.4960   70.0670  219.6640 C   0  0  0  0  0  0  0  0  0  0  0  0
  145.5330   70.8880  219.3430 C   0  0  0  0  0  0  0  0  0  0  0  0
  145.2530   72.1930  219.0290 C   0  0  0  0  0  0  0  0  0  0  0  0
  146.3000   73.0540  218.6960 O   0  0  0  0  0  0  0  0  0  0  0  0
  143.9620   72.6570  219.0380 C   0  0  0  0  0  0  0  0  0  0  0  0
  142.2283   77.2356  219.0948 H   0  0  0  0  0  0  0  0  0  0  0  0
  141.8810   79.2019  220.5971 H   0  0  0  0  0  0  0  0  0  0  0  0
  140.3621   76.6301  223.7295 H   0  0  0  0  0  0  0  0  0  0  0  0
  140.9669   71.2408  221.8419 H   0  0  0  0  0  0  0  0  0  0  0  0
  138.6922   72.4392  223.2277 H   0  0  0  0  0  0  0  0  0  0  0  0
  141.0396   72.3874  225.4265 H   0  0  0  0  0  0  0  0  0  0  0  0
  141.5389   70.9035  227.3061 H   0  0  0  0  0  0  0  0  0  0  0  0
  140.7084   68.5518  227.3139 H   0  0  0  0  0  0  0  0  0  0  0  0
  139.5900   66.8360  224.6860 H   0  0  0  0  0  0  0  0  0  0  0  0
  138.8595   69.2783  223.4737 H   0  0  0  0  0  0  0  0  0  0  0  0
  140.7850   71.6204  219.6000 H   0  0  0  0  0  0  0  0  0  0  0  0
  141.3466   72.8594  218.3686 H   0  0  0  0  0  0  0  0  0  0  0  0
  142.3788   69.8508  219.9362 H   0  0  0  0  0  0  0  0  0  0  0  0
  144.6925   69.0155  219.9202 H   0  0  0  0  0  0  0  0  0  0  0  0
  146.5677   70.5147  219.3357 H   0  0  0  0  0  0  0  0  0  0  0  0
  146.0900   74.0550  218.6220 H   0  0  0  0  0  0  0  0  0  0  0  0
  143.7784   73.7104  218.7800 H   0  0  0  0  0  0  0  0  0  0  0  0
  1  2  2  0
  2  3  1  0
  3  4  2  0
  4  5  1  0
  5  6  2  0
  6  7  1  0
  6  8  1  0
  8  9  2  0
  9 10  1  0
 10 11  2  0
 11 12  1  0
 12 13  2  0
 13 14  1  0
 14 15  2  0
 15 16  1  0
 16 17  2  0
 17 18  1  0
 18 19  1  0
 18 20  2  0
 11 21  1  0
 21 22  1  0
 22 23  1  0
 23 24  2  0
 24 25  1  0
 25 26  2  0
 26 27  1  0
 27 28  1  0
 27 29  2  0
 21  2  1  0
 29 23  1  0
  9  3  1  0
 20 14  1  0
  4 30  1  0
  5 31  1  0
  8 32  1  0
 12 33  1  0
 13 34  1  0
 15 35  1  0
 16 36  1  0
 17 37  1  0
 19 38  1  0
 20 39  1  0
 22 40  1  0
 22 41  1  0
 24 42  1  0
 25 43  1  0
 26 44  1  0
 28 45  1  0
 29 46  1  0
M  END
>  <smiles>  (22) 
O=c1c2ccc(Cl)cc2nc(/C=C/c2cccc(O)c2)n1Cc1cccc(O)c1

>  <score_type>  (22) 
oracle

>  <origin>  (22) 
autodockgpu

>  <m_score__min__energy>  (22) 
-9.1099999999999994

>  <m_primary>  (22) 
energy

>  <rmsd>  (22) 
8.5217832569731

>  <m_score__min__rmsd>  (22) 
8.5217832569731

>  <meeko>  (22) 
{"free_energy": -8.55, "intermolecular_energy": -10.64, "internal_energy": -0.88, "cluster_size": 16, "cluster_id": 1, "rank_in_cluster": 3}

>  <energy>  (22) 
-6.61

>  <cluster_rmsd>  (22) 
1.42

>  <cluster>  (22) 
2

$$$$

     RDKit          3D

 46 49  0  0  0  0  0  0  0  0999 V2000
  136.0700   80.1560  221.8470 O   0  0  0  0  0  0  0  0  0  0  0  0
  136.9780   80.3810  222.6910 C   0  0  0  0  0  0  0  0  0  0  0  0
  136.5740   80.8350  223.9210 C   0  0  0  0  0  0  0  0  0  0  0  0
  135.2420   81.0300  224.2050 C   0  0  0  0  0  0  0  0  0  0  0  0
  134.9350   81.4890  225.4720 C   0  0  0  0  0  0  0  0  0  0  0  0
  135.9310   81.7350  226.4010 C   0  0  0  0  0  0  0  0  0  0  0  0
  135.5150   82.3160  227.9960 Cl  0  0  0  0  0  0  0  0  0  0  0  0
  137.2770   81.5370  226.1100 C   0  0  0  0  0  0  0  0  0  0  0  0
  137.5580   81.0810  224.8430 C   0  0  0  0  0  0  0  0  0  0  0  0
  138.8110   80.8710  224.5030 N   0  0  0  0  0  0  0  0  0  0  0  0
  139.2510   80.4180  223.2830 C   0  0  0  0  0  0  0  0  0  0  0  0
  140.6690   80.3160  223.1490 C   0  0  0  0  0  0  0  0  0  0  0  0
  141.4810   79.3040  223.1440 C   0  0  0  0  0  0  0  0  0  0  0  0
  141.3340   78.1120  222.3030 C   0  0  0  0  0  0  0  0  0  0  0  0
  141.8260   78.1160  221.0020 C   0  0  0  0  0  0  0  0  0  0  0  0
  141.7240   77.0340  220.1580 C   0  0  0  0  0  0  0  0  0  0  0  0
  141.1130   75.8750  220.5790 C   0  0  0  0  0  0  0  0  0  0  0  0
  140.6180   75.8500  221.8630 C   0  0  0  0  0  0  0  0  0  0  0  0
  139.9890   74.6770  222.3170 O   0  0  0  0  0  0  0  0  0  0  0  0
  140.7250   76.9530  222.7200 C   0  0  0  0  0  0  0  0  0  0  0  0
  138.3050   80.1750  222.3770 N   0  0  0  0  0  0  0  0  0  0  0  0
  138.5370   79.6580  221.0600 C   0  0  0  0  0  0  0  0  0  0  0  0
  137.9380   78.3270  220.8080 C   0  0  0  0  0  0  0  0  0  0  0  0
  137.4280   77.8820  219.6170 C   0  0  0  0  0  0  0  0  0  0  0  0
  136.8640   76.6200  219.4540 C   0  0  0  0  0  0  0  0  0  0  0  0
  136.7930   75.7510  220.4980 C   0  0  0  0  0  0  0  0  0  0  0  0
  137.2930   76.1540  221.7110 C   0  0  0  0  0  0  0  0  0  0  0  0
  137.2320   75.2800  222.7980 O   0  0  0  0  0  0  0  0  0  0  0  0
  137.8470   77.4000  221.8640 C   0  0  0  0  0  0  0  0  0  0  0  0
  134.4586   80.8301  223.4591 H   0  0  0  0  0  0  0  0  0  0  0  0
  133.8837   81.6613  225.7460 H   0  0  0  0  0  0  0  0  0  0  0  0
  138.0685   81.7332  226.8483 H   0  0  0  0  0  0  0  0  0  0  0  0
  141.1720   81.2865  223.0257 H   0  0  0  0  0  0  0  0  0  0  0  0
  142.3458   79.3433  223.8226 H   0  0  0  0  0  0  0  0  0  0  0  0
  142.3195   79.0262  220.6306 H   0  0  0  0  0  0  0  0  0  0  0  0
  142.1339   77.0959  219.1391 H   0  0  0  0  0  0  0  0  0  0  0  0
  141.0237   75.0025  219.9151 H   0  0  0  0  0  0  0  0  0  0  0  0
  139.3380   74.7150  223.0790 H   0  0  0  0  0  0  0  0  0  0  0  0
  140.3164   76.8905  223.7394 H   0  0  0  0  0  0  0  0  0  0  0  0
  138.1152   80.3677  220.3331 H   0  0  0  0  0  0  0  0  0  0  0  0
  139.6255   79.5351  220.9596 H   0  0  0  0  0  0  0  0  0  0  0  0
  137.4660   78.5546  218.7474 H   0  0  0  0  0  0  0  0  0  0  0  0
  136.4715   76.3223  218.4705 H   0  0  0  0  0  0  0  0  0  0  0  0
  136.3473   74.7531  220.3736 H   0  0  0  0  0  0  0  0  0  0  0  0
  137.8680   74.4760  222.7990 H   0  0  0  0  0  0  0  0  0  0  0  0
  138.2360   77.6865  222.8522 H   0  0  0  0  0  0  0  0  0  0  0  0
  1  2  2  0
  2  3  1  0
  3  4  2  0
  4  5  1  0
  5  6  2  0
  6  7  1  0
  6  8  1  0
  8  9  2  0
  9 10  1  0
 10 11  2  0
 11 12  1  0
 12 13  2  0
 13 14  1  0
 14 15  2  0
 15 16  1  0
 16 17  2  0
 17 18  1  0
 18 19  1  0
 18 20  2  0
 11 21  1  0
 21 22  1  0
 22 23  1  0
 23 24  2  0
 24 25  1  0
 25 26  2  0
 26 27  1  0
 27 28  1  0
 27 29  2  0
 21  2  1  0
 29 23  1  0
  9  3  1  0
 20 14  1  0
  4 30  1  0
  5 31  1  0
  8 32  1  0
 12 33  1  0
 13 34  1  0
 15 35  1  0
 16 36  1  0
 17 37  1  0
 19 38  1  0
 20 39  1  0
 22 40  1  0
 22 41  1  0
 24 42  1  0
 25 43  1  0
 26 44  1  0
 28 45  1  0
 29 46  1  0
M  END
>  <smiles>  (23) 
O=c1c2ccc(Cl)cc2nc(/C=C/c2cccc(O)c2)n1Cc1cccc(O)c1

>  <score_type>  (23) 
oracle

>  <origin>  (23) 
autodockgpu

>  <m_score__min__energy>  (23) 
-9.1099999999999994

>  <m_primary>  (23) 
energy

>  <rmsd>  (23) 
7.072106312486514

>  <m_score__min__rmsd>  (23) 
7.072106312486514

>  <meeko>  (23) 
{"free_energy": -6.03, "intermolecular_energy": -8.12, "internal_energy": -2.87, "cluster_size": 1, "cluster_id": 8, "rank_in_cluster": 1}

>  <energy>  (23) 
-6.56

>  <cluster_rmsd>  (23) 
1.42

>  <cluster>  (23) 
2

$$$$

     RDKit          3D

 46 49  0  0  0  0  0  0  0  0999 V2000
  140.0290   74.9930  222.3500 O   0  0  0  0  0  0  0  0  0  0  0  0
  140.8860   75.2820  221.4730 C   0  0  0  0  0  0  0  0  0  0  0  0
  141.6740   74.2520  221.0230 C   0  0  0  0  0  0  0  0  0  0  0  0
  141.5260   72.9750  221.5140 C   0  0  0  0  0  0  0  0  0  0  0  0
  142.3660   72.0070  220.9980 C   0  0  0  0  0  0  0  0  0  0  0  0
  143.3070   72.3210  220.0330 C   0  0  0  0  0  0  0  0  0  0  0  0
  144.3580   71.0780  219.3970 Cl  0  0  0  0  0  0  0  0  0  0  0  0
  143.4550   73.6140  219.5390 C   0  0  0  0  0  0  0  0  0  0  0  0
  142.6080   74.5600  220.0680 C   0  0  0  0  0  0  0  0  0  0  0  0
  142.6940   75.8030  219.6440 N   0  0  0  0  0  0  0  0  0  0  0  0
  141.9230   76.8560  220.0710 C   0  0  0  0  0  0  0  0  0  0  0  0
  142.2430   78.1190  219.4870 C   0  0  0  0  0  0  0  0  0  0  0  0
  141.6400   78.8610  218.6110 C   0  0  0  0  0  0  0  0  0  0  0  0
  141.7940   80.3140  218.4910 C   0  0  0  0  0  0  0  0  0  0  0  0
  142.7680   80.8410  217.6490 C   0  0  0  0  0  0  0  0  0  0  0  0
  142.9690   82.1930  217.4870 C   0  0  0  0  0  0  0  0  0  0  0  0
  142.1940   83.1010  218.1700 C   0  0  0  0  0  0  0  0  0  0  0  0
  141.2240   82.6010  219.0100 C   0  0  0  0  0  0  0  0  0  0  0  0
  140.4180   83.5090  219.7190 O   0  0  0  0  0  0  0  0  0  0  0  0
  141.0220   81.2240  219.1720 C   0  0  0  0  0  0  0  0  0  0  0  0
  141.0110   76.5710  221.0000 N   0  0  0  0  0  0  0  0  0  0  0  0
  140.0750   77.5060  221.5520 C   0  0  0  0  0  0  0  0  0  0  0  0
  140.6950   78.6570  222.2470 C   0  0  0  0  0  0  0  0  0  0  0  0
  141.6460   78.5910  223.2320 C   0  0  0  0  0  0  0  0  0  0  0  0
  142.1760   79.7170  223.8550 C   0  0  0  0  0  0  0  0  0  0  0  0
  141.7620   80.9650  223.5050 C   0  0  0  0  0  0  0  0  0  0  0  0
  140.8100   81.0790  222.5230 C   0  0  0  0  0  0  0  0  0  0  0  0
  140.3690   82.3490  222.1460 O   0  0  0  0  0  0  0  0  0  0  0  0
  140.2920   79.9650  221.9130 C   0  0  0  0  0  0  0  0  0  0  0  0
  140.7745   72.7362  222.2810 H   0  0  0  0  0  0  0  0  0  0  0  0
  142.2856   70.9712  221.3596 H   0  0  0  0  0  0  0  0  0  0  0  0
  144.2034   73.8639  218.7726 H   0  0  0  0  0  0  0  0  0  0  0  0
  143.1880   78.5474  219.8525 H   0  0  0  0  0  0  0  0  0  0  0  0
  140.9610   78.3621  217.9039 H   0  0  0  0  0  0  0  0  0  0  0  0
  143.4073   80.1447  217.0865 H   0  0  0  0  0  0  0  0  0  0  0  0
  143.7556   82.5500  216.8060 H   0  0  0  0  0  0  0  0  0  0  0  0
  142.3431   84.1842  218.0500 H   0  0  0  0  0  0  0  0  0  0  0  0
  140.6980   83.8300  220.6270 H   0  0  0  0  0  0  0  0  0  0  0  0
  140.2354   80.8670  219.8530 H   0  0  0  0  0  0  0  0  0  0  0  0
  139.4528   77.8941  220.7321 H   0  0  0  0  0  0  0  0  0  0  0  0
  139.4951   76.9583  222.3095 H   0  0  0  0  0  0  0  0  0  0  0  0
  142.0076   77.6004  223.5451 H   0  0  0  0  0  0  0  0  0  0  0  0
  142.9381   79.5967  224.6391 H   0  0  0  0  0  0  0  0  0  0  0  0
  142.1785   81.8573  223.9952 H   0  0  0  0  0  0  0  0  0  0  0  0
  139.6900   82.4090  221.3800 H   0  0  0  0  0  0  0  0  0  0  0  0
  139.5304   80.0984  221.1306 H   0  0  0  0  0  0  0  0  0  0  0  0
  1  2  2  0
  2  3  1  0
  3  4  2  0
  4  5  1  0
  5  6  2  0
  6  7  1  0
  6  8  1  0
  8  9  2  0
  9 10  1  0
 10 11  2  0
 11 12  1  0
 12 13  2  0
 13 14  1  0
 14 15  2  0
 15 16  1  0
 16 17  2  0
 17 18  1  0
 18 19  1  0
 18 20  2  0
 11 21  1  0
 21 22  1  0
 22 23  1  0
 23 24  2  0
 24 25  1  0
 25 26  2  0
 26 27  1  0
 27 28  1  0
 27 29  2  0
 21  2  1  0
 29 23  1  0
  9  3  1  0
 20 14  1  0
  4 30  1  0
  5 31  1  0
  8 32  1  0
 12 33  1  0
 13 34  1  0
 15 35  1  0
 16 36  1  0
 17 37  1  0
 19 38  1  0
 20 39  1  0
 22 40  1  0
 22 41  1  0
 24 42  1  0
 25 43  1  0
 26 44  1  0
 28 45  1  0
 29 46  1  0
M  END
>  <smiles>  (24) 
O=c1c2ccc(Cl)cc2nc(/C=C/c2cccc(O)c2)n1Cc1cccc(O)c1

>  <score_type>  (24) 
oracle

>  <origin>  (24) 
autodockgpu

>  <m_score__min__energy>  (24) 
-9.1099999999999994

>  <m_primary>  (24) 
energy

>  <rmsd>  (24) 
4.252637321742184

>  <m_score__min__rmsd>  (24) 
4.252637321742184

>  <meeko>  (24) 
{"free_energy": -6.01, "intermolecular_energy": -8.1, "internal_energy": -2.59, "cluster_size": 8, "cluster_id": 6, "rank_in_cluster": 6}

>  <energy>  (24) 
-6.51

>  <cluster_rmsd>  (24) 
1.36

>  <cluster>  (24) 
2

$$$$

     RDKit          3D

 46 49  0  0  0  0  0  0  0  0999 V2000
  140.0590   72.3650  223.1060 O   0  0  0  0  0  0  0  0  0  0  0  0
  139.2760   71.5300  223.6330 C   0  0  0  0  0  0  0  0  0  0  0  0
  139.7470   70.8570  224.7320 C   0  0  0  0  0  0  0  0  0  0  0  0
  141.0100   71.0920  225.2240 C   0  0  0  0  0  0  0  0  0  0  0  0
  141.3920   70.3650  226.3350 C   0  0  0  0  0  0  0  0  0  0  0  0
  140.5340   69.4480  226.9170 C   0  0  0  0  0  0  0  0  0  0  0  0
  141.0420   68.5420  228.3220 Cl  0  0  0  0  0  0  0  0  0  0  0  0
  139.2570   69.2130  226.4170 C   0  0  0  0  0  0  0  0  0  0  0  0
  138.8990   69.9470  225.3100 C   0  0  0  0  0  0  0  0  0  0  0  0
  137.7040   69.7740  224.7870 N   0  0  0  0  0  0  0  0  0  0  0  0
  137.2020   70.4290  223.6900 C   0  0  0  0  0  0  0  0  0  0  0  0
  135.8900   70.0290  223.2920 C   0  0  0  0  0  0  0  0  0  0  0  0
  134.7170   70.5530  223.4740 C   0  0  0  0  0  0  0  0  0  0  0  0
  134.2470   71.1440  224.7310 C   0  0  0  0  0  0  0  0  0  0  0  0
  133.7410   70.3260  225.7350 C   0  0  0  0  0  0  0  0  0  0  0  0
  133.2820   70.8110  226.9390 C   0  0  0  0  0  0  0  0  0  0  0  0
  133.3050   72.1620  227.2030 C   0  0  0  0  0  0  0  0  0  0  0  0
  133.8020   72.9900  226.2200 C   0  0  0  0  0  0  0  0  0  0  0  0
  133.8360   74.3740  226.4660 O   0  0  0  0  0  0  0  0  0  0  0  0
  134.2680   72.4920  224.9970 C   0  0  0  0  0  0  0  0  0  0  0  0
  138.0150   71.3160  223.1180 N   0  0  0  0  0  0  0  0  0  0  0  0
  137.6780   72.1390  221.9930 C   0  0  0  0  0  0  0  0  0  0  0  0
  137.3860   73.5510  222.3290 C   0  0  0  0  0  0  0  0  0  0  0  0
  138.1320   74.6410  221.9650 C   0  0  0  0  0  0  0  0  0  0  0  0
  137.8070   75.9440  222.3300 C   0  0  0  0  0  0  0  0  0  0  0  0
  136.7040   76.1980  223.0860 C   0  0  0  0  0  0  0  0  0  0  0  0
  135.9260   75.1360  223.4740 C   0  0  0  0  0  0  0  0  0  0  0  0
  134.7900   75.3720  224.2500 O   0  0  0  0  0  0  0  0  0  0  0  0
  136.2540   73.8550  223.1100 C   0  0  0  0  0  0  0  0  0  0  0  0
  141.6839   71.8241  224.7550 H   0  0  0  0  0  0  0  0  0  0  0  0
  142.3935   70.5173  226.7637 H   0  0  0  0  0  0  0  0  0  0  0  0
  138.5748   68.4842  226.8791 H   0  0  0  0  0  0  0  0  0  0  0  0
  135.8699   69.0911  222.7175 H   0  0  0  0  0  0  0  0  0  0  0  0
  134.0227   70.5540  222.6208 H   0  0  0  0  0  0  0  0  0  0  0  0
  133.7058   69.2407  225.5592 H   0  0  0  0  0  0  0  0  0  0  0  0
  132.8939   70.1136  227.6959 H   0  0  0  0  0  0  0  0  0  0  0  0
  132.9413   72.5643  228.1600 H   0  0  0  0  0  0  0  0  0  0  0  0
  133.3670   75.0080  225.8470 H   0  0  0  0  0  0  0  0  0  0  0  0
  134.6559   73.1889  224.2394 H   0  0  0  0  0  0  0  0  0  0  0  0
  138.5232   72.1213  221.2893 H   0  0  0  0  0  0  0  0  0  0  0  0
  136.7536   71.7219  221.5668 H   0  0  0  0  0  0  0  0  0  0  0  0
  139.0322   74.4782  221.3541 H   0  0  0  0  0  0  0  0  0  0  0  0
  138.4477   76.7767  222.0044 H   0  0  0  0  0  0  0  0  0  0  0  0
  136.4433   77.2260  223.3779 H   0  0  0  0  0  0  0  0  0  0  0  0
  134.7990   75.0430  225.2210 H   0  0  0  0  0  0  0  0  0  0  0  0
  135.6059   73.0305  223.4419 H   0  0  0  0  0  0  0  0  0  0  0  0
  1  2  2  0
  2  3  1  0
  3  4  2  0
  4  5  1  0
  5  6  2  0
  6  7  1  0
  6  8  1  0
  8  9  2  0
  9 10  1  0
 10 11  2  0
 11 12  1  0
 12 13  2  0
 13 14  1  0
 14 15  2  0
 15 16  1  0
 16 17  2  0
 17 18  1  0
 18 19  1  0
 18 20  2  0
 11 21  1  0
 21 22  1  0
 22 23  1  0
 23 24  2  0
 24 25  1  0
 25 26  2  0
 26 27  1  0
 27 28  1  0
 27 29  2  0
 21  2  1  0
 29 23  1  0
  9  3  1  0
 20 14  1  0
  4 30  1  0
  5 31  1  0
  8 32  1  0
 12 33  1  0
 13 34  1  0
 15 35  1  0
 16 36  1  0
 17 37  1  0
 19 38  1  0
 20 39  1  0
 22 40  1  0
 22 41  1  0
 24 42  1  0
 25 43  1  0
 26 44  1  0
 28 45  1  0
 29 46  1  0
M  END
>  <smiles>  (25) 
O=c1c2ccc(Cl)cc2nc(/C=C/c2cccc(O)c2)n1Cc1cccc(O)c1

>  <score_type>  (25) 
oracle

>  <origin>  (25) 
autodockgpu

>  <m_score__min__energy>  (25) 
-9.1099999999999994

>  <m_primary>  (25) 
energy

>  <rmsd>  (25) 
8.402483280482613

>  <m_score__min__rmsd>  (25) 
8.402483280482613

>  <meeko>  (25) 
{"free_energy": -6.37, "intermolecular_energy": -8.46, "internal_energy": -2.72, "cluster_size": 12, "cluster_id": 2, "rank_in_cluster": 9}

>  <energy>  (25) 
-6.37

>  <cluster_rmsd>  (25) 
1.42

>  <cluster>  (25) 
2

$$$$

     RDKit          3D

 46 49  0  0  0  0  0  0  0  0999 V2000
  142.0200   74.8100  218.6920 O   0  0  0  0  0  0  0  0  0  0  0  0
  141.5830   74.6650  219.8650 C   0  0  0  0  0  0  0  0  0  0  0  0
  141.4260   75.8090  220.6070 C   0  0  0  0  0  0  0  0  0  0  0  0
  141.7340   77.0440  220.0840 C   0  0  0  0  0  0  0  0  0  0  0  0
  141.5410   78.1350  220.9090 C   0  0  0  0  0  0  0  0  0  0  0  0
  141.0610   77.9790  222.1980 C   0  0  0  0  0  0  0  0  0  0  0  0
  140.8270   79.3760  223.2210 Cl  0  0  0  0  0  0  0  0  0  0  0  0
  140.7510   76.7280  222.7230 C   0  0  0  0  0  0  0  0  0  0  0  0
  140.9510   75.6570  221.8840 C   0  0  0  0  0  0  0  0  0  0  0  0
  140.6760   74.4450  222.3170 N   0  0  0  0  0  0  0  0  0  0  0  0
  140.8210   73.2810  221.6030 C   0  0  0  0  0  0  0  0  0  0  0  0
  140.4970   72.0870  222.3170 C   0  0  0  0  0  0  0  0  0  0  0  0
  139.6530   71.8340  223.2700 C   0  0  0  0  0  0  0  0  0  0  0  0
  139.9100   70.9430  224.4050 C   0  0  0  0  0  0  0  0  0  0  0  0
  140.6880   71.3840  225.4710 C   0  0  0  0  0  0  0  0  0  0  0  0
  140.9700   70.6040  226.5690 C   0  0  0  0  0  0  0  0  0  0  0  0
  140.4810   69.3200  226.6570 C   0  0  0  0  0  0  0  0  0  0  0  0
  139.7090   68.8630  225.6120 C   0  0  0  0  0  0  0  0  0  0  0  0
  139.1970   67.5550  225.6790 O   0  0  0  0  0  0  0  0  0  0  0  0
  139.4240   69.6610  224.4970 C   0  0  0  0  0  0  0  0  0  0  0  0
  141.2820   73.4140  220.3610 N   0  0  0  0  0  0  0  0  0  0  0  0
  141.4680   72.3390  219.4300 C   0  0  0  0  0  0  0  0  0  0  0  0
  142.8390   71.7820  219.4000 C   0  0  0  0  0  0  0  0  0  0  0  0
  143.1880   70.4770  219.6280 C   0  0  0  0  0  0  0  0  0  0  0  0
  144.5030   70.0230  219.5990 C   0  0  0  0  0  0  0  0  0  0  0  0
  145.5270   70.8790  219.3350 C   0  0  0  0  0  0  0  0  0  0  0  0
  145.2250   72.1970  219.1000 C   0  0  0  0  0  0  0  0  0  0  0  0
  146.2580   73.0940  218.8270 O   0  0  0  0  0  0  0  0  0  0  0  0
  143.9260   72.6360  219.1310 C   0  0  0  0  0  0  0  0  0  0  0  0
  142.1155   77.1570  219.0585 H   0  0  0  0  0  0  0  0  0  0  0  0
  141.7724   79.1436  220.5358 H   0  0  0  0  0  0  0  0  0  0  0  0
  140.3691   76.6035  223.7471 H   0  0  0  0  0  0  0  0  0  0  0  0
  141.0769   71.2092  221.9960 H   0  0  0  0  0  0  0  0  0  0  0  0
  138.6701   72.3256  223.2222 H   0  0  0  0  0  0  0  0  0  0  0  0
  141.0970   72.4045  225.4342 H   0  0  0  0  0  0  0  0  0  0  0  0
  141.5904   71.0091  227.3820 H   0  0  0  0  0  0  0  0  0  0  0  0
  140.6984   68.6840  227.5278 H   0  0  0  0  0  0  0  0  0  0  0  0
  139.7580   66.8120  226.0510 H   0  0  0  0  0  0  0  0  0  0  0  0
  138.8030   69.2563  223.6843 H   0  0  0  0  0  0  0  0  0  0  0  0
  140.7740   71.5287  219.6979 H   0  0  0  0  0  0  0  0  0  0  0  0
  141.2781   72.7556  218.4298 H   0  0  0  0  0  0  0  0  0  0  0  0
  142.3893   69.7523  219.8447 H   0  0  0  0  0  0  0  0  0  0  0  0
  144.7168   68.9613  219.7915 H   0  0  0  0  0  0  0  0  0  0  0  0
  146.5680   70.5246  219.3106 H   0  0  0  0  0  0  0  0  0  0  0  0
  146.0070   74.0750  218.6630 H   0  0  0  0  0  0  0  0  0  0  0  0
  143.7247   73.7000  218.9376 H   0  0  0  0  0  0  0  0  0  0  0  0
  1  2  2  0
  2  3  1  0
  3  4  2  0
  4  5  1  0
  5  6  2  0
  6  7  1  0
  6  8  1  0
  8  9  2  0
  9 10  1  0
 10 11  2  0
 11 12  1  0
 12 13  2  0
 13 14  1  0
 14 15  2  0
 15 16  1  0
 16 17  2  0
 17 18  1  0
 18 19  1  0
 18 20  2  0
 11 21  1  0
 21 22  1  0
 22 23  1  0
 23 24  2  0
 24 25  1  0
 25 26  2  0
 26 27  1  0
 27 28  1  0
 27 29  2  0
 21  2  1  0
 29 23  1  0
  9  3  1  0
 20 14  1  0
  4 30  1  0
  5 31  1  0
  8 32  1  0
 12 33  1  0
 13 34  1  0
 15 35  1  0
 16 36  1  0
 17 37  1  0
 19 38  1  0
 20 39  1  0
 22 40  1  0
 22 41  1  0
 24 42  1  0
 25 43  1  0
 26 44  1  0
 28 45  1  0
 29 46  1  0
M  END
>  <smiles>  (26) 
O=c1c2ccc(Cl)cc2nc(/C=C/c2cccc(O)c2)n1Cc1cccc(O)c1

>  <score_type>  (26) 
oracle

>  <origin>  (26) 
autodockgpu

>  <m_score__min__energy>  (26) 
-9.1099999999999994

>  <m_primary>  (26) 
energy

>  <rmsd>  (26) 
8.535129364348503

>  <m_score__min__rmsd>  (26) 
8.535129364348503

>  <meeko>  (26) 
{"free_energy": -8.46, "intermolecular_energy": -10.55, "internal_energy": -0.86, "cluster_size": 16, "cluster_id": 1, "rank_in_cluster": 4}

>  <energy>  (26) 
-6.11

>  <cluster_rmsd>  (26) 
1.52

>  <cluster>  (26) 
2

$$$$

     RDKit          3D

 46 49  0  0  0  0  0  0  0  0999 V2000
  140.0290   72.5760  223.0560 O   0  0  0  0  0  0  0  0  0  0  0  0
  139.2580   71.7000  223.5330 C   0  0  0  0  0  0  0  0  0  0  0  0
  139.7350   70.9790  224.6000 C   0  0  0  0  0  0  0  0  0  0  0  0
  140.9900   71.2130  225.1120 C   0  0  0  0  0  0  0  0  0  0  0  0
  141.3790   70.4370  226.1880 C   0  0  0  0  0  0  0  0  0  0  0  0
  140.5340   69.4750  226.7140 C   0  0  0  0  0  0  0  0  0  0  0  0
  141.0510   68.5070  228.0750 Cl  0  0  0  0  0  0  0  0  0  0  0  0
  139.2660   69.2410  226.1930 C   0  0  0  0  0  0  0  0  0  0  0  0
  138.9010   70.0260  225.1230 C   0  0  0  0  0  0  0  0  0  0  0  0
  137.7130   69.8570  224.5830 N   0  0  0  0  0  0  0  0  0  0  0  0
  137.2060   70.5590  223.5170 C   0  0  0  0  0  0  0  0  0  0  0  0
  135.9040   70.1550  223.0890 C   0  0  0  0  0  0  0  0  0  0  0  0
  134.7450   70.1610  223.6730 C   0  0  0  0  0  0  0  0  0  0  0  0
  134.4710   70.7420  224.9910 C   0  0  0  0  0  0  0  0  0  0  0  0
  134.5370   69.9430  226.1270 C   0  0  0  0  0  0  0  0  0  0  0  0
  134.2930   70.4190  227.3950 C   0  0  0  0  0  0  0  0  0  0  0  0
  133.9630   71.7400  227.5940 C   0  0  0  0  0  0  0  0  0  0  0  0
  133.8910   72.5490  226.4810 C   0  0  0  0  0  0  0  0  0  0  0  0
  133.5570   73.9030  226.6570 O   0  0  0  0  0  0  0  0  0  0  0  0
  134.1420   72.0600  225.1920 C   0  0  0  0  0  0  0  0  0  0  0  0
  138.0050   71.4890  222.9980 N   0  0  0  0  0  0  0  0  0  0  0  0
  137.6610   72.3630  221.9140 C   0  0  0  0  0  0  0  0  0  0  0  0
  136.3940   73.1060  222.1030 C   0  0  0  0  0  0  0  0  0  0  0  0
  135.3530   73.1690  221.2150 C   0  0  0  0  0  0  0  0  0  0  0  0
  134.1930   73.9020  221.4510 C   0  0  0  0  0  0  0  0  0  0  0  0
  134.0400   74.6070  222.6050 C   0  0  0  0  0  0  0  0  0  0  0  0
  135.0580   74.5720  223.5240 C   0  0  0  0  0  0  0  0  0  0  0  0
  134.9250   75.2870  224.7160 O   0  0  0  0  0  0  0  0  0  0  0  0
  136.1980   73.8480  223.2850 C   0  0  0  0  0  0  0  0  0  0  0  0
  141.6524   71.9808  224.6857 H   0  0  0  0  0  0  0  0  0  0  0  0
  142.3741   70.5861  226.6325 H   0  0  0  0  0  0  0  0  0  0  0  0
  138.5957   68.4753  226.6105 H   0  0  0  0  0  0  0  0  0  0  0  0
  135.8791   69.7613  222.0622 H   0  0  0  0  0  0  0  0  0  0  0  0
  133.9042   69.6947  223.1385 H   0  0  0  0  0  0  0  0  0  0  0  0
  134.7964   68.8808  226.0066 H   0  0  0  0  0  0  0  0  0  0  0  0
  134.3623   69.7381  228.2562 H   0  0  0  0  0  0  0  0  0  0  0  0
  133.7646   72.1344  228.6015 H   0  0  0  0  0  0  0  0  0  0  0  0
  133.3110   74.4700  225.8670 H   0  0  0  0  0  0  0  0  0  0  0  0
  134.0746   72.7404  224.3303 H   0  0  0  0  0  0  0  0  0  0  0  0
  138.4733   73.0945  221.7913 H   0  0  0  0  0  0  0  0  0  0  0  0
  137.5203   71.7243  221.0295 H   0  0  0  0  0  0  0  0  0  0  0  0
  135.4376   72.6134  220.2694 H   0  0  0  0  0  0  0  0  0  0  0  0
  133.3921   73.9114  220.6971 H   0  0  0  0  0  0  0  0  0  0  0  0
  133.1259   75.1885  222.7955 H   0  0  0  0  0  0  0  0  0  0  0  0
  135.1750   74.8110  225.5880 H   0  0  0  0  0  0  0  0  0  0  0  0
  136.9915   73.8464  224.0468 H   0  0  0  0  0  0  0  0  0  0  0  0
  1  2  2  0
  2  3  1  0
  3  4  2  0
  4  5  1  0
  5  6  2  0
  6  7  1  0
  6  8  1  0
  8  9  2  0
  9 10  1  0
 10 11  2  0
 11 12  1  0
 12 13  2  0
 13 14  1  0
 14 15  2  0
 15 16  1  0
 16 17  2  0
 17 18  1  0
 18 19  1  0
 18 20  2  0
 11 21  1  0
 21 22  1  0
 22 23  1  0
 23 24  2  0
 24 25  1  0
 25 26  2  0
 26 27  1  0
 27 28  1  0
 27 29  2  0
 21  2  1  0
 29 23  1  0
  9  3  1  0
 20 14  1  0
  4 30  1  0
  5 31  1  0
  8 32  1  0
 12 33  1  0
 13 34  1  0
 15 35  1  0
 16 36  1  0
 17 37  1  0
 19 38  1  0
 20 39  1  0
 22 40  1  0
 22 41  1  0
 24 42  1  0
 25 43  1  0
 26 44  1  0
 28 45  1  0
 29 46  1  0
M  END
>  <smiles>  (27) 
O=c1c2ccc(Cl)cc2nc(/C=C/c2cccc(O)c2)n1Cc1cccc(O)c1

>  <score_type>  (27) 
oracle

>  <origin>  (27) 
autodockgpu

>  <m_score__min__energy>  (27) 
-9.1099999999999994

>  <m_primary>  (27) 
energy

>  <rmsd>  (27) 
8.86181960838097

>  <m_score__min__rmsd>  (27) 
8.86181960838097

>  <meeko>  (27) 
{"free_energy": -5.94, "intermolecular_energy": -8.03, "internal_energy": -3.04, "cluster_size": 12, "cluster_id": 2, "rank_in_cluster": 11}

>  <energy>  (27) 
-5.94

>  <cluster_rmsd>  (27) 
1.73

>  <cluster>  (27) 
2

$$$$

     RDKit          3D

 46 49  0  0  0  0  0  0  0  0999 V2000
  140.8920   75.1580  221.9860 O   0  0  0  0  0  0  0  0  0  0  0  0
  141.2420   76.0580  221.1770 C   0  0  0  0  0  0  0  0  0  0  0  0
  141.3390   77.3320  221.6810 C   0  0  0  0  0  0  0  0  0  0  0  0
  141.0660   77.5970  223.0030 C   0  0  0  0  0  0  0  0  0  0  0  0
  141.1940   78.9090  223.4150 C   0  0  0  0  0  0  0  0  0  0  0  0
  141.5790   79.9000  222.5290 C   0  0  0  0  0  0  0  0  0  0  0  0
  141.7320   81.5530  223.0760 Cl  0  0  0  0  0  0  0  0  0  0  0  0
  141.8540   79.6290  221.1920 C   0  0  0  0  0  0  0  0  0  0  0  0
  141.7200   78.3150  220.8050 C   0  0  0  0  0  0  0  0  0  0  0  0
  141.9660   77.9890  219.5550 N   0  0  0  0  0  0  0  0  0  0  0  0
  141.8790   76.7280  219.0180 C   0  0  0  0  0  0  0  0  0  0  0  0
  142.1540   76.6440  217.6190 C   0  0  0  0  0  0  0  0  0  0  0  0
  142.9590   77.2990  216.8400 C   0  0  0  0  0  0  0  0  0  0  0  0
  143.9380   76.6870  215.9370 C   0  0  0  0  0  0  0  0  0  0  0  0
  144.0730   77.1610  214.6360 C   0  0  0  0  0  0  0  0  0  0  0  0
  144.9710   76.6360  213.7350 C   0  0  0  0  0  0  0  0  0  0  0  0
  145.7910   75.5910  214.0940 C   0  0  0  0  0  0  0  0  0  0  0  0
  145.6730   75.1060  215.3770 C   0  0  0  0  0  0  0  0  0  0  0  0
  146.5010   74.0390  215.7680 O   0  0  0  0  0  0  0  0  0  0  0  0
  144.7590   75.6440  216.2920 C   0  0  0  0  0  0  0  0  0  0  0  0
  141.5100   75.7620  219.8580 N   0  0  0  0  0  0  0  0  0  0  0  0
  141.3970   74.3730  219.5200 C   0  0  0  0  0  0  0  0  0  0  0  0
  142.6320   73.5860  219.7380 C   0  0  0  0  0  0  0  0  0  0  0  0
  142.8280   72.6410  220.7100 C   0  0  0  0  0  0  0  0  0  0  0  0
  144.0250   71.9470  220.8680 C   0  0  0  0  0  0  0  0  0  0  0  0
  145.0790   72.1830  220.0410 C   0  0  0  0  0  0  0  0  0  0  0  0
  144.9270   73.1220  219.0520 C   0  0  0  0  0  0  0  0  0  0  0  0
  145.9950   73.3830  218.1910 O   0  0  0  0  0  0  0  0  0  0  0  0
  143.7460   73.8020  218.9030 C   0  0  0  0  0  0  0  0  0  0  0  0
  140.7603   76.8018  223.6988 H   0  0  0  0  0  0  0  0  0  0  0  0
  140.9868   79.1702  224.4632 H   0  0  0  0  0  0  0  0  0  0  0  0
  142.1597   80.4167  220.4877 H   0  0  0  0  0  0  0  0  0  0  0  0
  141.5678   75.8717  217.0994 H   0  0  0  0  0  0  0  0  0  0  0  0
  142.9023   78.3974  216.8588 H   0  0  0  0  0  0  0  0  0  0  0  0
  143.4320   77.9943  214.3124 H   0  0  0  0  0  0  0  0  0  0  0  0
  145.0337   77.0550  212.7199 H   0  0  0  0  0  0  0  0  0  0  0  0
  146.5123   75.1602  213.3839 H   0  0  0  0  0  0  0  0  0  0  0  0
  146.2180   73.4250  216.5090 H   0  0  0  0  0  0  0  0  0  0  0  0
  144.6977   75.2262  217.3077 H   0  0  0  0  0  0  0  0  0  0  0  0
  140.5968   73.9339  220.1340 H   0  0  0  0  0  0  0  0  0  0  0  0
  141.1844   74.3296  218.4416 H   0  0  0  0  0  0  0  0  0  0  0  0
  141.9998   72.4195  221.3992 H   0  0  0  0  0  0  0  0  0  0  0  0
  144.1192   71.2001  221.6700 H   0  0  0  0  0  0  0  0  0  0  0  0
  146.0261   71.6367  220.1616 H   0  0  0  0  0  0  0  0  0  0  0  0
  146.1080   74.3430  217.8490 H   0  0  0  0  0  0  0  0  0  0  0  0
  143.6648   74.5473  218.0980 H   0  0  0  0  0  0  0  0  0  0  0  0
  1  2  2  0
  2  3  1  0
  3  4  2  0
  4  5  1  0
  5  6  2  0
  6  7  1  0
  6  8  1  0
  8  9  2  0
  9 10  1  0
 10 11  2  0
 11 12  1  0
 12 13  2  0
 13 14  1  0
 14 15  2  0
 15 16  1  0
 16 17  2  0
 17 18  1  0
 18 19  1  0
 18 20  2  0
 11 21  1  0
 21 22  1  0
 22 23  1  0
 23 24  2  0
 24 25  1  0
 25 26  2  0
 26 27  1  0
 27 28  1  0
 27 29  2  0
 21  2  1  0
 29 23  1  0
  9  3  1  0
 20 14  1  0
  4 30  1  0
  5 31  1  0
  8 32  1  0
 12 33  1  0
 13 34  1  0
 15 35  1  0
 16 36  1  0
 17 37  1  0
 19 38  1  0
 20 39  1  0
 22 40  1  0
 22 41  1  0
 24 42  1  0
 25 43  1  0
 26 44  1  0
 28 45  1  0
 29 46  1  0
M  END
>  <smiles>  (28) 
O=c1c2ccc(Cl)cc2nc(/C=C/c2cccc(O)c2)n1Cc1cccc(O)c1

>  <score_type>  (28) 
oracle

>  <origin>  (28) 
autodockgpu

>  <m_score__min__energy>  (28) 
-9.1099999999999994

>  <m_primary>  (28) 
energy

>  <rmsd>  (28) 
7.734265147876987

>  <m_score__min__rmsd>  (28) 
7.734265147876987

>  <meeko>  (28) 
{"free_energy": -6.55, "intermolecular_energy": -8.63, "internal_energy": -2.51, "cluster_size": 5, "cluster_id": 3, "rank_in_cluster": 2}

>  <energy>  (28) 
-5.79

>  <cluster_rmsd>  (28) 
1.65

>  <cluster>  (28) 
2

$$$$

     RDKit          3D

 46 49  0  0  0  0  0  0  0  0999 V2000
  142.1040   75.0630  218.7710 O   0  0  0  0  0  0  0  0  0  0  0  0
  141.5770   74.9670  219.9120 C   0  0  0  0  0  0  0  0  0  0  0  0
  141.4830   76.1250  220.6430 C   0  0  0  0  0  0  0  0  0  0  0  0
  141.9430   77.3220  220.1440 C   0  0  0  0  0  0  0  0  0  0  0  0
  141.8020   78.4310  220.9550 C   0  0  0  0  0  0  0  0  0  0  0  0
  141.2240   78.3290  222.2080 C   0  0  0  0  0  0  0  0  0  0  0  0
  141.0580   79.7480  223.2150 Cl  0  0  0  0  0  0  0  0  0  0  0  0
  140.7600   77.1170  222.7100 C   0  0  0  0  0  0  0  0  0  0  0  0
  140.9110   76.0270  221.8850 C   0  0  0  0  0  0  0  0  0  0  0  0
  140.4920   74.8500  222.2980 N   0  0  0  0  0  0  0  0  0  0  0  0
  140.5700   73.6740  221.5940 C   0  0  0  0  0  0  0  0  0  0  0  0
  140.0850   72.5200  222.2830 C   0  0  0  0  0  0  0  0  0  0  0  0
  140.6830   71.5350  222.8770 C   0  0  0  0  0  0  0  0  0  0  0  0
  140.4640   71.1340  224.2700 C   0  0  0  0  0  0  0  0  0  0  0  0
  139.8370   69.9250  224.5540 C   0  0  0  0  0  0  0  0  0  0  0  0
  139.5990   69.4860  225.8360 C   0  0  0  0  0  0  0  0  0  0  0  0
  139.9800   70.2460  226.9180 C   0  0  0  0  0  0  0  0  0  0  0  0
  140.6020   71.4480  226.6590 C   0  0  0  0  0  0  0  0  0  0  0  0
  141.0010   72.2430  227.7470 O   0  0  0  0  0  0  0  0  0  0  0  0
  140.8430   71.8910  225.3520 C   0  0  0  0  0  0  0  0  0  0  0  0
  141.1250   73.7540  220.3850 N   0  0  0  0  0  0  0  0  0  0  0  0
  141.2670   72.6610  219.4680 C   0  0  0  0  0  0  0  0  0  0  0  0
  142.6080   72.0350  219.4620 C   0  0  0  0  0  0  0  0  0  0  0  0
  142.8940   70.7320  219.7740 C   0  0  0  0  0  0  0  0  0  0  0  0
  144.1850   70.2110  219.7630 C   0  0  0  0  0  0  0  0  0  0  0  0
  145.2470   70.9950  219.4320 C   0  0  0  0  0  0  0  0  0  0  0  0
  145.0070   72.3070  219.1120 C   0  0  0  0  0  0  0  0  0  0  0  0
  146.0810   73.1310  218.7690 O   0  0  0  0  0  0  0  0  0  0  0  0
  143.7330   72.8130  219.1250 C   0  0  0  0  0  0  0  0  0  0  0  0
  142.4013   77.3923  219.1465 H   0  0  0  0  0  0  0  0  0  0  0  0
  142.1546   79.4104  220.5994 H   0  0  0  0  0  0  0  0  0  0  0  0
  140.3004   77.0356  223.7061 H   0  0  0  0  0  0  0  0  0  0  0  0
  138.9875   72.4544  222.3159 H   0  0  0  0  0  0  0  0  0  0  0  0
  141.4110   70.9553  222.2905 H   0  0  0  0  0  0  0  0  0  0  0  0
  139.5166   69.2905  223.7145 H   0  0  0  0  0  0  0  0  0  0  0  0
  139.0998   68.5192  225.9974 H   0  0  0  0  0  0  0  0  0  0  0  0
  139.7954   69.9076  227.9483 H   0  0  0  0  0  0  0  0  0  0  0  0
  140.4150   72.9910  228.0680 H   0  0  0  0  0  0  0  0  0  0  0  0
  141.3423   72.8577  225.1900 H   0  0  0  0  0  0  0  0  0  0  0  0
  140.5292   71.8902  219.7354 H   0  0  0  0  0  0  0  0  0  0  0  0
  141.1107   73.0752  218.4610 H   0  0  0  0  0  0  0  0  0  0  0  0
  142.0630   70.0648  220.0465 H   0  0  0  0  0  0  0  0  0  0  0  0
  144.3483   69.1551  220.0245 H   0  0  0  0  0  0  0  0  0  0  0  0
  146.2689   70.5881  219.4214 H   0  0  0  0  0  0  0  0  0  0  0  0
  145.8920   74.1300  218.6360 H   0  0  0  0  0  0  0  0  0  0  0  0
  143.5830   73.8704  218.8614 H   0  0  0  0  0  0  0  0  0  0  0  0
  1  2  2  0
  2  3  1  0
  3  4  2  0
  4  5  1  0
  5  6  2  0
  6  7  1  0
  6  8  1  0
  8  9  2  0
  9 10  1  0
 10 11  2  0
 11 12  1  0
 12 13  2  0
 13 14  1  0
 14 15  2  0
 15 16  1  0
 16 17  2  0
 17 18  1  0
 18 19  1  0
 18 20  2  0
 11 21  1  0
 21 22  1  0
 22 23  1  0
 23 24  2  0
 24 25  1  0
 25 26  2  0
 26 27  1  0
 27 28  1  0
 27 29  2  0
 21  2  1  0
 29 23  1  0
  9  3  1  0
 20 14  1  0
  4 30  1  0
  5 31  1  0
  8 32  1  0
 12 33  1  0
 13 34  1  0
 15 35  1  0
 16 36  1  0
 17 37  1  0
 19 38  1  0
 20 39  1  0
 22 40  1  0
 22 41  1  0
 24 42  1  0
 25 43  1  0
 26 44  1  0
 28 45  1  0
 29 46  1  0
M  END
>  <smiles>  (29) 
O=c1c2ccc(Cl)cc2nc(/C=C/c2cccc(O)c2)n1Cc1cccc(O)c1

>  <score_type>  (29) 
oracle

>  <origin>  (29) 
autodockgpu

>  <m_score__min__energy>  (29) 
-9.1099999999999994

>  <m_primary>  (29) 
energy

>  <rmsd>  (29) 
8.353672828012614

>  <m_score__min__rmsd>  (29) 
8.353672828012614

>  <meeko>  (29) 
{"free_energy": -8.15, "intermolecular_energy": -10.24, "internal_energy": -0.89, "cluster_size": 16, "cluster_id": 1, "rank_in_cluster": 11}

>  <energy>  (29) 
-6.83

>  <cluster_rmsd>  (29) 
0.0

>  <cluster>  (29) 
3

$$$$

     RDKit          3D

 46 49  0  0  0  0  0  0  0  0999 V2000
  140.1690   72.5350  222.8910 O   0  0  0  0  0  0  0  0  0  0  0  0
  139.3810   71.7060  223.4200 C   0  0  0  0  0  0  0  0  0  0  0  0
  139.8090   71.1040  224.5770 C   0  0  0  0  0  0  0  0  0  0  0  0
  141.0370   71.4000  225.1210 C   0  0  0  0  0  0  0  0  0  0  0  0
  141.3770   70.7430  226.2880 C   0  0  0  0  0  0  0  0  0  0  0  0
  140.5120   69.8330  226.8710 C   0  0  0  0  0  0  0  0  0  0  0  0
  140.9660   69.0160  228.3480 Cl  0  0  0  0  0  0  0  0  0  0  0  0
  139.2700   69.5360  226.3180 C   0  0  0  0  0  0  0  0  0  0  0  0
  138.9540   70.2020  225.1570 C   0  0  0  0  0  0  0  0  0  0  0  0
  137.7940   69.9690  224.5810 N   0  0  0  0  0  0  0  0  0  0  0  0
  137.3360   70.5510  223.4260 C   0  0  0  0  0  0  0  0  0  0  0  0
  136.0580   70.0930  222.9810 C   0  0  0  0  0  0  0  0  0  0  0  0
  134.8800   70.1080  223.5250 C   0  0  0  0  0  0  0  0  0  0  0  0
  134.5630   70.7080  224.8250 C   0  0  0  0  0  0  0  0  0  0  0  0
  134.4460   69.9000  225.9510 C   0  0  0  0  0  0  0  0  0  0  0  0
  134.1510   70.3930  227.2020 C   0  0  0  0  0  0  0  0  0  0  0  0
  133.9520   71.7410  227.3920 C   0  0  0  0  0  0  0  0  0  0  0  0
  134.0620   72.5590  226.2900 C   0  0  0  0  0  0  0  0  0  0  0  0
  133.8650   73.9410  226.4590 O   0  0  0  0  0  0  0  0  0  0  0  0
  134.3640   72.0540  225.0190 C   0  0  0  0  0  0  0  0  0  0  0  0
  138.1550   71.4300  222.8510 N   0  0  0  0  0  0  0  0  0  0  0  0
  137.8600   72.1840  221.6680 C   0  0  0  0  0  0  0  0  0  0  0  0
  136.7560   73.1590  221.8200 C   0  0  0  0  0  0  0  0  0  0  0  0
  135.9530   73.6350  220.8180 C   0  0  0  0  0  0  0  0  0  0  0  0
  134.9400   74.5660  221.0300 C   0  0  0  0  0  0  0  0  0  0  0  0
  134.6980   75.0570  222.2760 C   0  0  0  0  0  0  0  0  0  0  0  0
  135.4790   74.6080  223.3110 C   0  0  0  0  0  0  0  0  0  0  0  0
  135.2500   75.0980  224.5980 O   0  0  0  0  0  0  0  0  0  0  0  0
  136.4750   73.6910  223.0940 C   0  0  0  0  0  0  0  0  0  0  0  0
  141.7163   72.1254  224.6494 H   0  0  0  0  0  0  0  0  0  0  0  0
  142.3493   70.9460  226.7607 H   0  0  0  0  0  0  0  0  0  0  0  0
  138.5829   68.8126  226.7813 H   0  0  0  0  0  0  0  0  0  0  0  0
  136.0762   69.6379  221.9797 H   0  0  0  0  0  0  0  0  0  0  0  0
  134.0571   69.6350  222.9690 H   0  0  0  0  0  0  0  0  0  0  0  0
  134.5962   68.8163  225.8366 H   0  0  0  0  0  0  0  0  0  0  0  0
  134.0738   69.7040  228.0560 H   0  0  0  0  0  0  0  0  0  0  0  0
  133.7143   72.1492  228.3854 H   0  0  0  0  0  0  0  0  0  0  0  0
  133.9750   74.5650  225.6820 H   0  0  0  0  0  0  0  0  0  0  0  0
  134.4429   72.7433  224.1654 H   0  0  0  0  0  0  0  0  0  0  0  0
  138.7667   72.7345  221.3765 H   0  0  0  0  0  0  0  0  0  0  0  0
  137.5340   71.4585  220.9081 H   0  0  0  0  0  0  0  0  0  0  0  0
  136.1165   73.2635  219.7956 H   0  0  0  0  0  0  0  0  0  0  0  0
  134.3289   74.9083  220.1818 H   0  0  0  0  0  0  0  0  0  0  0  0
  133.8989   75.7930  222.4485 H   0  0  0  0  0  0  0  0  0  0  0  0
  135.6640   74.5850  225.3830 H   0  0  0  0  0  0  0  0  0  0  0  0
  137.0797   73.3569  223.9500 H   0  0  0  0  0  0  0  0  0  0  0  0
  1  2  2  0
  2  3  1  0
  3  4  2  0
  4  5  1  0
  5  6  2  0
  6  7  1  0
  6  8  1  0
  8  9  2  0
  9 10  1  0
 10 11  2  0
 11 12  1  0
 12 13  2  0
 13 14  1  0
 14 15  2  0
 15 16  1  0
 16 17  2  0
 17 18  1  0
 18 19  1  0
 18 20  2  0
 11 21  1  0
 21 22  1  0
 22 23  1  0
 23 24  2  0
 24 25  1  0
 25 26  2  0
 26 27  1  0
 27 28  1  0
 27 29  2  0
 21  2  1  0
 29 23  1  0
  9  3  1  0
 20 14  1  0
  4 30  1  0
  5 31  1  0
  8 32  1  0
 12 33  1  0
 13 34  1  0
 15 35  1  0
 16 36  1  0
 17 37  1  0
 19 38  1  0
 20 39  1  0
 22 40  1  0
 22 41  1  0
 24 42  1  0
 25 43  1  0
 26 44  1  0
 28 45  1  0
 29 46  1  0
M  END
>  <smiles>  (30) 
O=c1c2ccc(Cl)cc2nc(/C=C/c2cccc(O)c2)n1Cc1cccc(O)c1

>  <score_type>  (30) 
oracle

>  <origin>  (30) 
autodockgpu

>  <m_score__min__energy>  (30) 
-9.1099999999999994

>  <m_primary>  (30) 
energy

>  <rmsd>  (30) 
8.640698397219309

>  <m_score__min__rmsd>  (30) 
8.640698397219309

>  <meeko>  (30) 
{"free_energy": -5.79, "intermolecular_energy": -7.88, "internal_energy": -3.0, "cluster_size": 12, "cluster_id": 2, "rank_in_cluster": 12}

>  <energy>  (30) 
-6.55

>  <cluster_rmsd>  (30) 
1.74

>  <cluster>  (30) 
3

$$$$

     RDKit          3D

 46 49  0  0  0  0  0  0  0  0999 V2000
  140.1330   72.3900  223.1710 O   0  0  0  0  0  0  0  0  0  0  0  0
  139.3490   71.5360  223.6660 C   0  0  0  0  0  0  0  0  0  0  0  0
  139.7990   70.8580  224.7710 C   0  0  0  0  0  0  0  0  0  0  0  0
  141.0430   71.1080  225.3020 C   0  0  0  0  0  0  0  0  0  0  0  0
  141.4050   70.3750  226.4160 C   0  0  0  0  0  0  0  0  0  0  0  0
  140.5460   69.4370  226.9620 C   0  0  0  0  0  0  0  0  0  0  0  0
  141.0280   68.5230  228.3710 Cl  0  0  0  0  0  0  0  0  0  0  0  0
  139.2880   69.1870  226.4230 C   0  0  0  0  0  0  0  0  0  0  0  0
  138.9500   69.9280  225.3140 C   0  0  0  0  0  0  0  0  0  0  0  0
  137.7740   69.7420  224.7550 N   0  0  0  0  0  0  0  0  0  0  0  0
  137.2920   70.4010  223.6500 C   0  0  0  0  0  0  0  0  0  0  0  0
  135.9990   69.9840  223.2100 C   0  0  0  0  0  0  0  0  0  0  0  0
  134.8240   70.0380  223.7580 C   0  0  0  0  0  0  0  0  0  0  0  0
  134.5210   70.6940  225.0330 C   0  0  0  0  0  0  0  0  0  0  0  0
  134.5610   69.9630  226.2160 C   0  0  0  0  0  0  0  0  0  0  0  0
  134.2880   70.5130  227.4480 C   0  0  0  0  0  0  0  0  0  0  0  0
  133.9540   71.8440  227.5610 C   0  0  0  0  0  0  0  0  0  0  0  0
  133.9080   72.5850  226.4010 C   0  0  0  0  0  0  0  0  0  0  0  0
  133.5690   73.9470  226.4900 O   0  0  0  0  0  0  0  0  0  0  0  0
  134.1870   72.0220  225.1490 C   0  0  0  0  0  0  0  0  0  0  0  0
  138.1070   71.3080  223.1130 N   0  0  0  0  0  0  0  0  0  0  0  0
  137.7900   72.1380  221.9870 C   0  0  0  0  0  0  0  0  0  0  0  0
  137.3360   73.5030  222.3390 C   0  0  0  0  0  0  0  0  0  0  0  0
  137.9400   74.6760  221.9700 C   0  0  0  0  0  0  0  0  0  0  0  0
  137.4670   75.9290  222.3500 C   0  0  0  0  0  0  0  0  0  0  0  0
  136.3540   76.0450  223.1250 C   0  0  0  0  0  0  0  0  0  0  0  0
  135.7160   74.8950  223.5180 C   0  0  0  0  0  0  0  0  0  0  0  0
  134.5720   74.9880  224.3130 O   0  0  0  0  0  0  0  0  0  0  0  0
  136.1890   73.6640  223.1390 C   0  0  0  0  0  0  0  0  0  0  0  0
  141.7178   71.8562  224.8606 H   0  0  0  0  0  0  0  0  0  0  0  0
  142.3907   70.5394  226.8758 H   0  0  0  0  0  0  0  0  0  0  0  0
  138.6049   68.4421  226.8571 H   0  0  0  0  0  0  0  0  0  0  0  0
  135.9991   69.5270  222.2094 H   0  0  0  0  0  0  0  0  0  0  0  0
  133.9920   69.5546  223.2249 H   0  0  0  0  0  0  0  0  0  0  0  0
  134.8230   68.8959  226.1645 H   0  0  0  0  0  0  0  0  0  0  0  0
  134.3370   69.8843  228.3493 H   0  0  0  0  0  0  0  0  0  0  0  0
  133.7328   72.2973  228.5385 H   0  0  0  0  0  0  0  0  0  0  0  0
  133.0730   74.3940  225.7410 H   0  0  0  0  0  0  0  0  0  0  0  0
  134.1381   72.6506  224.2476 H   0  0  0  0  0  0  0  0  0  0  0  0
  138.6901   72.2260  221.3608 H   0  0  0  0  0  0  0  0  0  0  0  0
  136.9504   71.6532  221.4674 H   0  0  0  0  0  0  0  0  0  0  0  0
  138.8424   74.6253  221.3431 H   0  0  0  0  0  0  0  0  0  0  0  0
  137.9980   76.8343  222.0207 H   0  0  0  0  0  0  0  0  0  0  0  0
  135.9764   77.0328  223.4279 H   0  0  0  0  0  0  0  0  0  0  0  0
  134.6600   74.7440  225.3040 H   0  0  0  0  0  0  0  0  0  0  0  0
  135.6496   72.7658  223.4742 H   0  0  0  0  0  0  0  0  0  0  0  0
  1  2  2  0
  2  3  1  0
  3  4  2  0
  4  5  1  0
  5  6  2  0
  6  7  1  0
  6  8  1  0
  8  9  2  0
  9 10  1  0
 10 11  2  0
 11 12  1  0
 12 13  2  0
 13 14  1  0
 14 15  2  0
 15 16  1  0
 16 17  2  0
 17 18  1  0
 18 19  1  0
 18 20  2  0
 11 21  1  0
 21 22  1  0
 22 23  1  0
 23 24  2  0
 24 25  1  0
 25 26  2  0
 26 27  1  0
 27 28  1  0
 27 29  2  0
 21  2  1  0
 29 23  1  0
  9  3  1  0
 20 14  1  0
  4 30  1  0
  5 31  1  0
  8 32  1  0
 12 33  1  0
 13 34  1  0
 15 35  1  0
 16 36  1  0
 17 37  1  0
 19 38  1  0
 20 39  1  0
 22 40  1  0
 22 41  1  0
 24 42  1  0
 25 43  1  0
 26 44  1  0
 28 45  1  0
 29 46  1  0
M  END
>  <smiles>  (31) 
O=c1c2ccc(Cl)cc2nc(/C=C/c2cccc(O)c2)n1Cc1cccc(O)c1

>  <score_type>  (31) 
oracle

>  <origin>  (31) 
autodockgpu

>  <m_score__min__energy>  (31) 
-9.1099999999999994

>  <m_primary>  (31) 
energy

>  <rmsd>  (31) 
8.467061083012744

>  <m_score__min__rmsd>  (31) 
8.467061083012744

>  <meeko>  (31) 
{"free_energy": -6.62, "intermolecular_energy": -8.71, "internal_energy": -2.92, "cluster_size": 12, "cluster_id": 2, "rank_in_cluster": 4}

>  <energy>  (31) 
-6.45

>  <cluster_rmsd>  (31) 
1.81

>  <cluster>  (31) 
3

$$$$

     RDKit          3D

 46 49  0  0  0  0  0  0  0  0999 V2000
  136.6770   77.3910  222.3980 O   0  0  0  0  0  0  0  0  0  0  0  0
  136.9300   78.4280  223.0670 C   0  0  0  0  0  0  0  0  0  0  0  0
  138.2300   78.8690  223.0470 C   0  0  0  0  0  0  0  0  0  0  0  0
  139.1960   78.2040  222.3290 C   0  0  0  0  0  0  0  0  0  0  0  0
  140.4740   78.7260  222.3700 C   0  0  0  0  0  0  0  0  0  0  0  0
  140.7550   79.8650  223.1040 C   0  0  0  0  0  0  0  0  0  0  0  0
  142.3810   80.5050  223.1410 Cl  0  0  0  0  0  0  0  0  0  0  0  0
  139.7760   80.5360  223.8310 C   0  0  0  0  0  0  0  0  0  0  0  0
  138.5110   79.9970  223.7740 C   0  0  0  0  0  0  0  0  0  0  0  0
  137.5370   80.5820  224.4370 N   0  0  0  0  0  0  0  0  0  0  0  0
  136.2280   80.1690  224.4790 C   0  0  0  0  0  0  0  0  0  0  0  0
  135.3710   80.9520  225.3110 C   0  0  0  0  0  0  0  0  0  0  0  0
  135.5930   81.6900  226.3550 C   0  0  0  0  0  0  0  0  0  0  0  0
  135.0820   81.4160  227.7020 C   0  0  0  0  0  0  0  0  0  0  0  0
  135.8050   81.8310  228.8150 C   0  0  0  0  0  0  0  0  0  0  0  0
  135.3860   81.6100  230.1070 C   0  0  0  0  0  0  0  0  0  0  0  0
  134.2050   80.9490  230.3560 C   0  0  0  0  0  0  0  0  0  0  0  0
  133.4740   80.5290  229.2660 C   0  0  0  0  0  0  0  0  0  0  0  0
  132.2620   79.8520  229.4940 O   0  0  0  0  0  0  0  0  0  0  0  0
  133.9020   80.7580  227.9530 C   0  0  0  0  0  0  0  0  0  0  0  0
  135.9400   79.0740  223.7770 N   0  0  0  0  0  0  0  0  0  0  0  0
  134.6340   78.4960  223.6480 C   0  0  0  0  0  0  0  0  0  0  0  0
  134.2740   77.5440  224.7240 C   0  0  0  0  0  0  0  0  0  0  0  0
  134.5410   76.2010  224.7380 C   0  0  0  0  0  0  0  0  0  0  0  0
  134.1590   75.3590  225.7790 C   0  0  0  0  0  0  0  0  0  0  0  0
  133.4860   75.8480  226.8560 C   0  0  0  0  0  0  0  0  0  0  0  0
  133.1970   77.1890  226.8840 C   0  0  0  0  0  0  0  0  0  0  0  0
  132.5070   77.7140  227.9780 O   0  0  0  0  0  0  0  0  0  0  0  0
  133.5760   78.0120  225.8550 C   0  0  0  0  0  0  0  0  0  0  0  0
  138.9619   77.2989  221.7493 H   0  0  0  0  0  0  0  0  0  0  0  0
  141.2805   78.2290  221.8109 H   0  0  0  0  0  0  0  0  0  0  0  0
  139.9995   81.4410  224.4149 H   0  0  0  0  0  0  0  0  0  0  0  0
  134.3143   80.9239  225.0068 H   0  0  0  0  0  0  0  0  0  0  0  0
  136.2115   82.5895  226.2193 H   0  0  0  0  0  0  0  0  0  0  0  0
  136.7559   82.3605  228.6553 H   0  0  0  0  0  0  0  0  0  0  0  0
  136.0003   81.9647  230.9478 H   0  0  0  0  0  0  0  0  0  0  0  0
  133.8586   80.7634  231.3834 H   0  0  0  0  0  0  0  0  0  0  0  0
  131.7050   79.5410  228.7210 H   0  0  0  0  0  0  0  0  0  0  0  0
  133.2862   80.4069  227.1119 H   0  0  0  0  0  0  0  0  0  0  0  0
  133.8958   79.3115  223.6498 H   0  0  0  0  0  0  0  0  0  0  0  0
  134.6379   77.9210  222.7103 H   0  0  0  0  0  0  0  0  0  0  0  0
  135.0836   75.7663  223.8855 H   0  0  0  0  0  0  0  0  0  0  0  0
  134.4037   74.2877  225.7304 H   0  0  0  0  0  0  0  0  0  0  0  0
  133.1822   75.1868  227.6809 H   0  0  0  0  0  0  0  0  0  0  0  0
  133.0490   78.2240  228.6830 H   0  0  0  0  0  0  0  0  0  0  0  0
  133.3249   79.0813  225.9148 H   0  0  0  0  0  0  0  0  0  0  0  0
  1  2  2  0
  2  3  1  0
  3  4  2  0
  4  5  1  0
  5  6  2  0
  6  7  1  0
  6  8  1  0
  8  9  2  0
  9 10  1  0
 10 11  2  0
 11 12  1  0
 12 13  2  0
 13 14  1  0
 14 15  2  0
 15 16  1  0
 16 17  2  0
 17 18  1  0
 18 19  1  0
 18 20  2  0
 11 21  1  0
 21 22  1  0
 22 23  1  0
 23 24  2  0
 24 25  1  0
 25 26  2  0
 26 27  1  0
 27 28  1  0
 27 29  2  0
 21  2  1  0
 29 23  1  0
  9  3  1  0
 20 14  1  0
  4 30  1  0
  5 31  1  0
  8 32  1  0
 12 33  1  0
 13 34  1  0
 15 35  1  0
 16 36  1  0
 17 37  1  0
 19 38  1  0
 20 39  1  0
 22 40  1  0
 22 41  1  0
 24 42  1  0
 25 43  1  0
 26 44  1  0
 28 45  1  0
 29 46  1  0
M  END
>  <smiles>  (32) 
O=c1c2ccc(Cl)cc2nc(/C=C/c2cccc(O)c2)n1Cc1cccc(O)c1

>  <score_type>  (32) 
oracle

>  <origin>  (32) 
autodockgpu

>  <m_score__min__energy>  (32) 
-9.1099999999999994

>  <m_primary>  (32) 
energy

>  <rmsd>  (32) 
7.401009075507955

>  <m_score__min__rmsd>  (32) 
7.401009075507955

>  <meeko>  (32) 
{"free_energy": -6.68, "intermolecular_energy": -8.77, "internal_energy": -2.59, "cluster_size": 1, "cluster_id": 5, "rank_in_cluster": 1}

>  <energy>  (32) 
-6.36

>  <cluster_rmsd>  (32) 
1.97

>  <cluster>  (32) 
3

$$$$

     RDKit          3D

 46 49  0  0  0  0  0  0  0  0999 V2000
  139.2950   69.3150  221.7690 O   0  0  0  0  0  0  0  0  0  0  0  0
  139.7490   70.4040  222.2100 C   0  0  0  0  0  0  0  0  0  0  0  0
  139.9320   70.4880  223.5680 C   0  0  0  0  0  0  0  0  0  0  0  0
  139.6300   69.4290  224.3930 C   0  0  0  0  0  0  0  0  0  0  0  0
  139.8500   69.6100  225.7450 C   0  0  0  0  0  0  0  0  0  0  0  0
  140.3500   70.8060  226.2320 C   0  0  0  0  0  0  0  0  0  0  0  0
  140.6180   71.0090  227.9470 Cl  0  0  0  0  0  0  0  0  0  0  0  0
  140.6540   71.8740  225.3940 C   0  0  0  0  0  0  0  0  0  0  0  0
  140.4270   71.6710  224.0530 C   0  0  0  0  0  0  0  0  0  0  0  0
  140.6940   72.6410  223.2050 N   0  0  0  0  0  0  0  0  0  0  0  0
  140.5230   72.5910  221.8430 C   0  0  0  0  0  0  0  0  0  0  0  0
  140.8450   73.7960  221.1470 C   0  0  0  0  0  0  0  0  0  0  0  0
  141.9520   74.4550  220.9960 C   0  0  0  0  0  0  0  0  0  0  0  0
  143.0430   74.0710  220.0940 C   0  0  0  0  0  0  0  0  0  0  0  0
  142.9650   74.3830  218.7410 C   0  0  0  0  0  0  0  0  0  0  0  0
  143.9500   74.0540  217.8370 C   0  0  0  0  0  0  0  0  0  0  0  0
  145.0800   73.3850  218.2480 C   0  0  0  0  0  0  0  0  0  0  0  0
  145.1760   73.0660  219.5840 C   0  0  0  0  0  0  0  0  0  0  0  0
  146.3220   72.3820  220.0290 O   0  0  0  0  0  0  0  0  0  0  0  0
  144.1730   73.4030  220.5010 C   0  0  0  0  0  0  0  0  0  0  0  0
  140.0430   71.4470  221.3580 N   0  0  0  0  0  0  0  0  0  0  0  0
  139.8290   71.1660  219.9680 C   0  0  0  0  0  0  0  0  0  0  0  0
  141.0510   70.7860  219.2230 C   0  0  0  0  0  0  0  0  0  0  0  0
  141.1310   70.5190  217.8820 C   0  0  0  0  0  0  0  0  0  0  0  0
  142.3140   70.1510  217.2470 C   0  0  0  0  0  0  0  0  0  0  0  0
  143.4730   70.0370  217.9500 C   0  0  0  0  0  0  0  0  0  0  0  0
  143.4400   70.2950  219.2980 C   0  0  0  0  0  0  0  0  0  0  0  0
  144.6170   70.1850  220.0410 O   0  0  0  0  0  0  0  0  0  0  0  0
  142.2700   70.6570  219.9160 C   0  0  0  0  0  0  0  0  0  0  0  0
  139.2325   68.4836  223.9952 H   0  0  0  0  0  0  0  0  0  0  0  0
  139.6246   68.7919  226.4449 H   0  0  0  0  0  0  0  0  0  0  0  0
  141.0520   72.8237  225.7808 H   0  0  0  0  0  0  0  0  0  0  0  0
  139.9846   74.2558  220.6388 H   0  0  0  0  0  0  0  0  0  0  0  0
  142.0825   75.3718  221.5897 H   0  0  0  0  0  0  0  0  0  0  0  0
  142.0753   74.9173  218.3762 H   0  0  0  0  0  0  0  0  0  0  0  0
  143.8327   74.3280  216.7782 H   0  0  0  0  0  0  0  0  0  0  0  0
  145.8752   73.1157  217.5373 H   0  0  0  0  0  0  0  0  0  0  0  0
  146.2320   71.5150  220.5250 H   0  0  0  0  0  0  0  0  0  0  0  0
  144.2909   73.1298  221.5600 H   0  0  0  0  0  0  0  0  0  0  0  0
  139.1088   70.3381  219.8918 H   0  0  0  0  0  0  0  0  0  0  0  0
  139.4626   72.0982  219.5132 H   0  0  0  0  0  0  0  0  0  0  0  0
  140.2157   70.5993  217.2772 H   0  0  0  0  0  0  0  0  0  0  0  0
  142.3115   69.9503  216.1655 H   0  0  0  0  0  0  0  0  0  0  0  0
  144.4100   69.7464  217.4525 H   0  0  0  0  0  0  0  0  0  0  0  0
  144.8560   70.9560  220.6720 H   0  0  0  0  0  0  0  0  0  0  0  0
  142.2847   70.8547  220.9980 H   0  0  0  0  0  0  0  0  0  0  0  0
  1  2  2  0
  2  3  1  0
  3  4  2  0
  4  5  1  0
  5  6  2  0
  6  7  1  0
  6  8  1  0
  8  9  2  0
  9 10  1  0
 10 11  2  0
 11 12  1  0
 12 13  2  0
 13 14  1  0
 14 15  2  0
 15 16  1  0
 16 17  2  0
 17 18  1  0
 18 19  1  0
 18 20  2  0
 11 21  1  0
 21 22  1  0
 22 23  1  0
 23 24  2  0
 24 25  1  0
 25 26  2  0
 26 27  1  0
 27 28  1  0
 27 29  2  0
 21  2  1  0
 29 23  1  0
  9  3  1  0
 20 14  1  0
  4 30  1  0
  5 31  1  0
  8 32  1  0
 12 33  1  0
 13 34  1  0
 15 35  1  0
 16 36  1  0
 17 37  1  0
 19 38  1  0
 20 39  1  0
 22 40  1  0
 22 41  1  0
 24 42  1  0
 25 43  1  0
 26 44  1  0
 28 45  1  0
 29 46  1  0
M  END
>  <smiles>  (33) 
O=c1c2ccc(Cl)cc2nc(/C=C/c2cccc(O)c2)n1Cc1cccc(O)c1

>  <score_type>  (33) 
oracle

>  <origin>  (33) 
autodockgpu

>  <m_score__min__energy>  (33) 
-9.1099999999999994

>  <m_primary>  (33) 
energy

>  <rmsd>  (33) 
10.607802600115189

>  <m_score__min__rmsd>  (33) 
10.607802600115189

>  <meeko>  (33) 
{"free_energy": -5.91, "intermolecular_energy": -8.0, "internal_energy": -2.98, "cluster_size": 1, "cluster_id": 9, "rank_in_cluster": 1}

>  <energy>  (33) 
-6.34

>  <cluster_rmsd>  (33) 
2.0

>  <cluster>  (33) 
3

$$$$

     RDKit          3D

 46 49  0  0  0  0  0  0  0  0999 V2000
  140.6460   72.4880  222.7800 O   0  0  0  0  0  0  0  0  0  0  0  0
  139.6620   71.8640  223.2600 C   0  0  0  0  0  0  0  0  0  0  0  0
  139.8980   71.1260  224.3930 C   0  0  0  0  0  0  0  0  0  0  0  0
  141.1490   71.0780  224.9640 C   0  0  0  0  0  0  0  0  0  0  0  0
  141.2850   70.3090  226.1030 C   0  0  0  0  0  0  0  0  0  0  0  0
  140.2060   69.6230  226.6340 C   0  0  0  0  0  0  0  0  0  0  0  0
  140.4060   68.6560  228.0760 Cl  0  0  0  0  0  0  0  0  0  0  0  0
  138.9420   69.6730  226.0540 C   0  0  0  0  0  0  0  0  0  0  0  0
  138.8310   70.4460  224.9210 C   0  0  0  0  0  0  0  0  0  0  0  0
  137.6630   70.5380  224.3220 N   0  0  0  0  0  0  0  0  0  0  0  0
  137.3920   71.2660  223.1900 C   0  0  0  0  0  0  0  0  0  0  0  0
  136.0500   71.1650  222.7100 C   0  0  0  0  0  0  0  0  0  0  0  0
  134.9150   71.5810  223.1800 C   0  0  0  0  0  0  0  0  0  0  0  0
  134.7500   72.7050  224.1060 C   0  0  0  0  0  0  0  0  0  0  0  0
  135.3880   73.9140  223.8500 C   0  0  0  0  0  0  0  0  0  0  0  0
  135.2770   75.0110  224.6740 C   0  0  0  0  0  0  0  0  0  0  0  0
  134.5120   74.9520  225.8160 C   0  0  0  0  0  0  0  0  0  0  0  0
  133.8730   73.7630  226.0890 C   0  0  0  0  0  0  0  0  0  0  0  0
  133.0850   73.6790  227.2510 O   0  0  0  0  0  0  0  0  0  0  0  0
  133.9870   72.6500  225.2480 C   0  0  0  0  0  0  0  0  0  0  0  0
  138.4200   71.9320  222.6660 N   0  0  0  0  0  0  0  0  0  0  0  0
  138.3510   72.7850  221.5150 C   0  0  0  0  0  0  0  0  0  0  0  0
  138.5970   74.2170  221.7960 C   0  0  0  0  0  0  0  0  0  0  0  0
  137.6990   75.1030  222.3310 C   0  0  0  0  0  0  0  0  0  0  0  0
  137.9940   76.4450  222.5560 C   0  0  0  0  0  0  0  0  0  0  0  0
  139.2200   76.9480  222.2460 C   0  0  0  0  0  0  0  0  0  0  0  0
  140.1510   76.0960  221.7070 C   0  0  0  0  0  0  0  0  0  0  0  0
  141.4160   76.5890  221.3800 O   0  0  0  0  0  0  0  0  0  0  0  0
  139.8530   74.7750  221.4880 C   0  0  0  0  0  0  0  0  0  0  0  0
  142.0002   71.6260  224.5337 H   0  0  0  0  0  0  0  0  0  0  0  0
  142.2659   70.2404  226.5960 H   0  0  0  0  0  0  0  0  0  0  0  0
  138.0844   69.1281  226.4753 H   0  0  0  0  0  0  0  0  0  0  0  0
  135.9622   70.6289  221.7535 H   0  0  0  0  0  0  0  0  0  0  0  0
  134.0069   71.0497  222.8591 H   0  0  0  0  0  0  0  0  0  0  0  0
  136.0104   73.9975  222.9469 H   0  0  0  0  0  0  0  0  0  0  0  0
  135.8039   75.9419  224.4175 H   0  0  0  0  0  0  0  0  0  0  0  0
  134.4146   75.8201  226.4845 H   0  0  0  0  0  0  0  0  0  0  0  0
  133.2520   72.9530  227.9230 H   0  0  0  0  0  0  0  0  0  0  0  0
  133.4593   71.7195  225.5042 H   0  0  0  0  0  0  0  0  0  0  0  0
  139.1032   72.4434  220.7887 H   0  0  0  0  0  0  0  0  0  0  0  0
  137.3215   72.7136  221.1343 H   0  0  0  0  0  0  0  0  0  0  0  0
  136.6963   74.7362  222.5956 H   0  0  0  0  0  0  0  0  0  0  0  0
  137.2282   77.1055  222.9888 H   0  0  0  0  0  0  0  0  0  0  0  0
  139.4579   78.0074  222.4225 H   0  0  0  0  0  0  0  0  0  0  0  0
  142.1530   76.5190  222.0900 H   0  0  0  0  0  0  0  0  0  0  0  0
  140.6268   74.1248  221.0540 H   0  0  0  0  0  0  0  0  0  0  0  0
  1  2  2  0
  2  3  1  0
  3  4  2  0
  4  5  1  0
  5  6  2  0
  6  7  1  0
  6  8  1  0
  8  9  2  0
  9 10  1  0
 10 11  2  0
 11 12  1  0
 12 13  2  0
 13 14  1  0
 14 15  2  0
 15 16  1  0
 16 17  2  0
 17 18  1  0
 18 19  1  0
 18 20  2  0
 11 21  1  0
 21 22  1  0
 22 23  1  0
 23 24  2  0
 24 25  1  0
 25 26  2  0
 26 27  1  0
 27 28  1  0
 27 29  2  0
 21  2  1  0
 29 23  1  0
  9  3  1  0
 20 14  1  0
  4 30  1  0
  5 31  1  0
  8 32  1  0
 12 33  1  0
 13 34  1  0
 15 35  1  0
 16 36  1  0
 17 37  1  0
 19 38  1  0
 20 39  1  0
 22 40  1  0
 22 41  1  0
 24 42  1  0
 25 43  1  0
 26 44  1  0
 28 45  1  0
 29 46  1  0
M  END
>  <smiles>  (34) 
O=c1c2ccc(Cl)cc2nc(/C=C/c2cccc(O)c2)n1Cc1cccc(O)c1

>  <score_type>  (34) 
oracle

>  <origin>  (34) 
autodockgpu

>  <m_score__min__energy>  (34) 
-9.1099999999999994

>  <m_primary>  (34) 
energy

>  <rmsd>  (34) 
7.58985692770051

>  <m_score__min__rmsd>  (34) 
7.58985692770051

>  <meeko>  (34) 
{"free_energy": -7.55, "intermolecular_energy": -9.64, "internal_energy": -1.25, "cluster_size": 12, "cluster_id": 2, "rank_in_cluster": 2}

>  <energy>  (34) 
-6.72

>  <cluster_rmsd>  (34) 
0.0

>  <cluster>  (34) 
4

$$$$

     RDKit          3D

 46 49  0  0  0  0  0  0  0  0999 V2000
  142.3450   74.9650  218.7550 O   0  0  0  0  0  0  0  0  0  0  0  0
  141.6980   74.7810  219.8210 C   0  0  0  0  0  0  0  0  0  0  0  0
  141.5170   75.8790  220.6250 C   0  0  0  0  0  0  0  0  0  0  0  0
  142.0210   77.1100  220.2740 C   0  0  0  0  0  0  0  0  0  0  0  0
  141.7860   78.1530  221.1480 C   0  0  0  0  0  0  0  0  0  0  0  0
  141.0740   77.9540  222.3190 C   0  0  0  0  0  0  0  0  0  0  0  0
  140.7910   79.2910  223.4090 Cl  0  0  0  0  0  0  0  0  0  0  0  0
  140.5660   76.7080  222.6720 C   0  0  0  0  0  0  0  0  0  0  0  0
  140.8130   75.6850  221.7860 C   0  0  0  0  0  0  0  0  0  0  0  0
  140.3600   74.4810  222.0580 N   0  0  0  0  0  0  0  0  0  0  0  0
  140.5220   73.3620  221.2770 C   0  0  0  0  0  0  0  0  0  0  0  0
  139.9720   72.1600  221.8180 C   0  0  0  0  0  0  0  0  0  0  0  0
  139.2840   71.9120  222.8890 C   0  0  0  0  0  0  0  0  0  0  0  0
  139.7250   71.0510  223.9910 C   0  0  0  0  0  0  0  0  0  0  0  0
  140.6920   71.5050  224.8810 C   0  0  0  0  0  0  0  0  0  0  0  0
  141.1520   70.7520  225.9380 C   0  0  0  0  0  0  0  0  0  0  0  0
  140.6620   69.4850  226.1590 C   0  0  0  0  0  0  0  0  0  0  0  0
  139.7040   69.0160  225.2870 C   0  0  0  0  0  0  0  0  0  0  0  0
  139.1870   67.7250  225.4920 O   0  0  0  0  0  0  0  0  0  0  0  0
  139.2370   69.7860  224.2150 C   0  0  0  0  0  0  0  0  0  0  0  0
  141.2040   73.5360  220.1460 N   0  0  0  0  0  0  0  0  0  0  0  0
  141.4520   72.5170  219.1670 C   0  0  0  0  0  0  0  0  0  0  0  0
  142.8010   71.9110  219.2410 C   0  0  0  0  0  0  0  0  0  0  0  0
  143.0930   70.6340  219.6410 C   0  0  0  0  0  0  0  0  0  0  0  0
  144.3900   70.1310  219.7010 C   0  0  0  0  0  0  0  0  0  0  0  0
  145.4520   70.9080  219.3550 C   0  0  0  0  0  0  0  0  0  0  0  0
  145.2060   72.1950  218.9480 C   0  0  0  0  0  0  0  0  0  0  0  0
  146.2800   73.0120  218.5880 O   0  0  0  0  0  0  0  0  0  0  0  0
  143.9260   72.6830  218.8920 C   0  0  0  0  0  0  0  0  0  0  0  0
  142.5848   77.2566  219.3409 H   0  0  0  0  0  0  0  0  0  0  0  0
  142.1698   79.1562  220.9107 H   0  0  0  0  0  0  0  0  0  0  0  0
  140.0013   76.5504  223.6027 H   0  0  0  0  0  0  0  0  0  0  0  0
  140.1713   71.2685  221.2052 H   0  0  0  0  0  0  0  0  0  0  0  0
  138.2941   72.3835  222.9775 H   0  0  0  0  0  0  0  0  0  0  0  0
  141.1088   72.5123  224.7339 H   0  0  0  0  0  0  0  0  0  0  0  0
  141.9171   71.1663  226.6111 H   0  0  0  0  0  0  0  0  0  0  0  0
  141.0210   68.8713  226.9984 H   0  0  0  0  0  0  0  0  0  0  0  0
  138.3410   67.5970  226.0150 H   0  0  0  0  0  0  0  0  0  0  0  0
  138.4697   69.3732  223.5435 H   0  0  0  0  0  0  0  0  0  0  0  0
  140.7083   71.7185  219.3060 H   0  0  0  0  0  0  0  0  0  0  0  0
  141.3808   73.0038  218.1832 H   0  0  0  0  0  0  0  0  0  0  0  0
  142.2620   69.9733  219.9290 H   0  0  0  0  0  0  0  0  0  0  0  0
  144.5577   69.0953  220.0314 H   0  0  0  0  0  0  0  0  0  0  0  0
  146.4786   70.5155  219.4003 H   0  0  0  0  0  0  0  0  0  0  0  0
  146.1140   74.0220  218.5360 H   0  0  0  0  0  0  0  0  0  0  0  0
  143.7713   73.7205  218.5608 H   0  0  0  0  0  0  0  0  0  0  0  0
  1  2  2  0
  2  3  1  0
  3  4  2  0
  4  5  1  0
  5  6  2  0
  6  7  1  0
  6  8  1  0
  8  9  2  0
  9 10  1  0
 10 11  2  0
 11 12  1  0
 12 13  2  0
 13 14  1  0
 14 15  2  0
 15 16  1  0
 16 17  2  0
 17 18  1  0
 18 19  1  0
 18 20  2  0
 11 21  1  0
 21 22  1  0
 22 23  1  0
 23 24  2  0
 24 25  1  0
 25 26  2  0
 26 27  1  0
 27 28  1  0
 27 29  2  0
 21  2  1  0
 29 23  1  0
  9  3  1  0
 20 14  1  0
  4 30  1  0
  5 31  1  0
  8 32  1  0
 12 33  1  0
 13 34  1  0
 15 35  1  0
 16 36  1  0
 17 37  1  0
 19 38  1  0
 20 39  1  0
 22 40  1  0
 22 41  1  0
 24 42  1  0
 25 43  1  0
 26 44  1  0
 28 45  1  0
 29 46  1  0
M  END
>  <smiles>  (35) 
O=c1c2ccc(Cl)cc2nc(/C=C/c2cccc(O)c2)n1Cc1cccc(O)c1

>  <score_type>  (35) 
oracle

>  <origin>  (35) 
autodockgpu

>  <m_score__min__energy>  (35) 
-9.1099999999999994

>  <m_primary>  (35) 
energy

>  <rmsd>  (35) 
8.513373734490624

>  <m_score__min__rmsd>  (35) 
8.513373734490624

>  <meeko>  (35) 
{"free_energy": -8.25, "intermolecular_energy": -10.34, "internal_energy": -0.89, "cluster_size": 16, "cluster_id": 1, "rank_in_cluster": 8}

>  <energy>  (35) 
-6.3

>  <cluster_rmsd>  (35) 
1.63

>  <cluster>  (35) 
4

$$$$

     RDKit          3D

 46 49  0  0  0  0  0  0  0  0999 V2000
  136.4310   75.5020  221.6110 O   0  0  0  0  0  0  0  0  0  0  0  0
  137.6220   75.1560  221.8310 C   0  0  0  0  0  0  0  0  0  0  0  0
  138.5090   76.1630  222.1220 C   0  0  0  0  0  0  0  0  0  0  0  0
  138.1030   77.4770  222.1680 C   0  0  0  0  0  0  0  0  0  0  0  0
  139.0700   78.4170  222.4700 C   0  0  0  0  0  0  0  0  0  0  0  0
  140.3790   78.0410  222.7140 C   0  0  0  0  0  0  0  0  0  0  0  0
  141.5820   79.2510  223.0940 Cl  0  0  0  0  0  0  0  0  0  0  0  0
  140.7860   76.7110  222.6660 C   0  0  0  0  0  0  0  0  0  0  0  0
  139.8070   75.7930  222.3630 C   0  0  0  0  0  0  0  0  0  0  0  0
  140.1230   74.5180  222.3020 N   0  0  0  0  0  0  0  0  0  0  0  0
  139.2640   73.4860  222.0140 C   0  0  0  0  0  0  0  0  0  0  0  0
  139.8640   72.1910  221.9650 C   0  0  0  0  0  0  0  0  0  0  0  0
  140.6870   71.5730  222.7560 C   0  0  0  0  0  0  0  0  0  0  0  0
  140.3210   70.9610  224.0370 C   0  0  0  0  0  0  0  0  0  0  0  0
  140.7250   71.5540  225.2290 C   0  0  0  0  0  0  0  0  0  0  0  0
  140.4180   71.0350  226.4660 C   0  0  0  0  0  0  0  0  0  0  0  0
  139.6820   69.8780  226.5760 C   0  0  0  0  0  0  0  0  0  0  0  0
  139.2730   69.2740  225.4080 C   0  0  0  0  0  0  0  0  0  0  0  0
  138.5190   68.0900  225.4940 O   0  0  0  0  0  0  0  0  0  0  0  0
  139.5860   69.8050  224.1500 C   0  0  0  0  0  0  0  0  0  0  0  0
  137.9990   73.8310  221.7780 N   0  0  0  0  0  0  0  0  0  0  0  0
  136.9310   72.9140  221.5010 C   0  0  0  0  0  0  0  0  0  0  0  0
  136.3310   72.2900  222.7020 C   0  0  0  0  0  0  0  0  0  0  0  0
  135.5930   72.9280  223.6630 C   0  0  0  0  0  0  0  0  0  0  0  0
  135.0700   72.2800  224.7790 C   0  0  0  0  0  0  0  0  0  0  0  0
  135.2760   70.9480  224.9670 C   0  0  0  0  0  0  0  0  0  0  0  0
  136.0110   70.2670  224.0300 C   0  0  0  0  0  0  0  0  0  0  0  0
  136.2360   68.9000  224.2020 O   0  0  0  0  0  0  0  0  0  0  0  0
  136.5230   70.9130  222.9330 C   0  0  0  0  0  0  0  0  0  0  0  0
  137.0593   77.7652  221.9738 H   0  0  0  0  0  0  0  0  0  0  0  0
  138.7947   79.4809  222.5171 H   0  0  0  0  0  0  0  0  0  0  0  0
  141.8269   76.4120  222.8586 H   0  0  0  0  0  0  0  0  0  0  0  0
  139.5712   71.6014  221.0838 H   0  0  0  0  0  0  0  0  0  0  0  0
  141.7387   71.5032  222.4413 H   0  0  0  0  0  0  0  0  0  0  0  0
  141.3168   72.4800  225.1804 H   0  0  0  0  0  0  0  0  0  0  0  0
  140.7640   71.5497  227.3745 H   0  0  0  0  0  0  0  0  0  0  0  0
  139.4301   69.4520  227.5584 H   0  0  0  0  0  0  0  0  0  0  0  0
  137.5390   68.1300  225.7010 H   0  0  0  0  0  0  0  0  0  0  0  0
  139.2394   69.2906  223.2416 H   0  0  0  0  0  0  0  0  0  0  0  0
  136.1399   73.4595  220.9656 H   0  0  0  0  0  0  0  0  0  0  0  0
  137.3665   72.0963  220.9079 H   0  0  0  0  0  0  0  0  0  0  0  0
  135.4040   74.0055  223.5476 H   0  0  0  0  0  0  0  0  0  0  0  0
  134.4849   72.8501  225.5156 H   0  0  0  0  0  0  0  0  0  0  0  0
  134.8643   70.4314  225.8465 H   0  0  0  0  0  0  0  0  0  0  0  0
  137.1370   68.5230  223.8910 H   0  0  0  0  0  0  0  0  0  0  0  0
  137.1073   70.3323  222.2040 H   0  0  0  0  0  0  0  0  0  0  0  0
  1  2  2  0
  2  3  1  0
  3  4  2  0
  4  5  1  0
  5  6  2  0
  6  7  1  0
  6  8  1  0
  8  9  2  0
  9 10  1  0
 10 11  2  0
 11 12  1  0
 12 13  2  0
 13 14  1  0
 14 15  2  0
 15 16  1  0
 16 17  2  0
 17 18  1  0
 18 19  1  0
 18 20  2  0
 11 21  1  0
 21 22  1  0
 22 23  1  0
 23 24  2  0
 24 25  1  0
 25 26  2  0
 26 27  1  0
 27 28  1  0
 27 29  2  0
 21  2  1  0
 29 23  1  0
  9  3  1  0
 20 14  1  0
  4 30  1  0
  5 31  1  0
  8 32  1  0
 12 33  1  0
 13 34  1  0
 15 35  1  0
 16 36  1  0
 17 37  1  0
 19 38  1  0
 20 39  1  0
 22 40  1  0
 22 41  1  0
 24 42  1  0
 25 43  1  0
 26 44  1  0
 28 45  1  0
 29 46  1  0
M  END
>  <smiles>  (36) 
O=c1c2ccc(Cl)cc2nc(/C=C/c2cccc(O)c2)n1Cc1cccc(O)c1

>  <score_type>  (36) 
oracle

>  <origin>  (36) 
autodockgpu

>  <m_score__min__energy>  (36) 
-9.1099999999999994

>  <m_primary>  (36) 
energy

>  <rmsd>  (36) 
8.470338696755732

>  <m_score__min__rmsd>  (36) 
8.470338696755732

>  <meeko>  (36) 
{"free_energy": -6.3, "intermolecular_energy": -8.38, "internal_energy": -2.96, "cluster_size": 4, "cluster_id": 7, "rank_in_cluster": 1}

>  <energy>  (36) 
-6.68

>  <cluster_rmsd>  (36) 
0.0

>  <cluster>  (36) 
5

$$$$

     RDKit          3D

 46 49  0  0  0  0  0  0  0  0999 V2000
  140.9050   75.3560  222.3080 O   0  0  0  0  0  0  0  0  0  0  0  0
  141.1040   76.1900  221.3850 C   0  0  0  0  0  0  0  0  0  0  0  0
  141.2390   77.5020  221.7620 C   0  0  0  0  0  0  0  0  0  0  0  0
  141.1610   77.8740  223.0850 C   0  0  0  0  0  0  0  0  0  0  0  0
  141.3110   79.2190  223.3640 C   0  0  0  0  0  0  0  0  0  0  0  0
  141.5310   80.1370  222.3510 C   0  0  0  0  0  0  0  0  0  0  0  0
  141.7170   81.8330  222.7320 Cl  0  0  0  0  0  0  0  0  0  0  0  0
  141.6090   79.7570  221.0150 C   0  0  0  0  0  0  0  0  0  0  0  0
  141.4560   78.4140  220.7620 C   0  0  0  0  0  0  0  0  0  0  0  0
  141.5210   77.9870  219.5190 N   0  0  0  0  0  0  0  0  0  0  0  0
  141.3900   76.6830  219.1060 C   0  0  0  0  0  0  0  0  0  0  0  0
  141.4540   76.4850  217.6930 C   0  0  0  0  0  0  0  0  0  0  0  0
  142.4260   76.1750  216.8930 C   0  0  0  0  0  0  0  0  0  0  0  0
  143.1500   74.9000  216.9030 C   0  0  0  0  0  0  0  0  0  0  0  0
  142.5720   73.7700  216.3340 C   0  0  0  0  0  0  0  0  0  0  0  0
  143.1930   72.5410  216.3070 C   0  0  0  0  0  0  0  0  0  0  0  0
  144.4430   72.3780  216.8590 C   0  0  0  0  0  0  0  0  0  0  0  0
  145.0330   73.4850  217.4290 C   0  0  0  0  0  0  0  0  0  0  0  0
  146.3100   73.3440  218.0000 O   0  0  0  0  0  0  0  0  0  0  0  0
  144.3980   74.7330  217.4530 C   0  0  0  0  0  0  0  0  0  0  0  0
  141.1790   75.7860  220.0690 N   0  0  0  0  0  0  0  0  0  0  0  0
  141.0560   74.3720  219.8660 C   0  0  0  0  0  0  0  0  0  0  0  0
  142.2740   73.5970  220.1940 C   0  0  0  0  0  0  0  0  0  0  0  0
  142.3320   72.2540  220.4600 C   0  0  0  0  0  0  0  0  0  0  0  0
  143.5130   71.5900  220.7780 C   0  0  0  0  0  0  0  0  0  0  0  0
  144.6930   72.2640  220.8390 C   0  0  0  0  0  0  0  0  0  0  0  0
  144.6840   73.6110  220.5790 C   0  0  0  0  0  0  0  0  0  0  0  0
  145.8820   74.3240  220.6360 O   0  0  0  0  0  0  0  0  0  0  0  0
  143.5150   74.2590  220.2680 C   0  0  0  0  0  0  0  0  0  0  0  0
  140.9876   77.1359  223.8820 H   0  0  0  0  0  0  0  0  0  0  0  0
  141.2548   79.5656  224.4064 H   0  0  0  0  0  0  0  0  0  0  0  0
  141.7825   80.4864  220.2101 H   0  0  0  0  0  0  0  0  0  0  0  0
  140.4889   76.6226  217.1833 H   0  0  0  0  0  0  0  0  0  0  0  0
  142.7310   76.9262  216.1496 H   0  0  0  0  0  0  0  0  0  0  0  0
  141.5722   73.8623  215.8846 H   0  0  0  0  0  0  0  0  0  0  0  0
  142.6860   71.6833  215.8408 H   0  0  0  0  0  0  0  0  0  0  0  0
  144.9511   71.4025  216.8457 H   0  0  0  0  0  0  0  0  0  0  0  0
  146.6720   74.0530  218.6100 H   0  0  0  0  0  0  0  0  0  0  0  0
  144.9051   75.5910  217.9184 H   0  0  0  0  0  0  0  0  0  0  0  0
  140.2341   74.0043  220.4979 H   0  0  0  0  0  0  0  0  0  0  0  0
  140.8711   74.2248  218.7917 H   0  0  0  0  0  0  0  0  0  0  0  0
  141.3993   71.6722  220.4202 H   0  0  0  0  0  0  0  0  0  0  0  0
  143.4921   70.5093  220.9821 H   0  0  0  0  0  0  0  0  0  0  0  0
  145.6288   71.7432  221.0900 H   0  0  0  0  0  0  0  0  0  0  0  0
  146.2820   74.6560  219.7530 H   0  0  0  0  0  0  0  0  0  0  0  0
  143.5485   75.3402  220.0683 H   0  0  0  0  0  0  0  0  0  0  0  0
  1  2  2  0
  2  3  1  0
  3  4  2  0
  4  5  1  0
  5  6  2  0
  6  7  1  0
  6  8  1  0
  8  9  2  0
  9 10  1  0
 10 11  2  0
 11 12  1  0
 12 13  2  0
 13 14  1  0
 14 15  2  0
 15 16  1  0
 16 17  2  0
 17 18  1  0
 18 19  1  0
 18 20  2  0
 11 21  1  0
 21 22  1  0
 22 23  1  0
 23 24  2  0
 24 25  1  0
 25 26  2  0
 26 27  1  0
 27 28  1  0
 27 29  2  0
 21  2  1  0
 29 23  1  0
  9  3  1  0
 20 14  1  0
  4 30  1  0
  5 31  1  0
  8 32  1  0
 12 33  1  0
 13 34  1  0
 15 35  1  0
 16 36  1  0
 17 37  1  0
 19 38  1  0
 20 39  1  0
 22 40  1  0
 22 41  1  0
 24 42  1  0
 25 43  1  0
 26 44  1  0
 28 45  1  0
 29 46  1  0
M  END
>  <smiles>  (37) 
O=c1c2ccc(Cl)cc2nc(/C=C/c2cccc(O)c2)n1Cc1cccc(O)c1

>  <score_type>  (37) 
oracle

>  <origin>  (37) 
autodockgpu

>  <m_score__min__energy>  (37) 
-9.1099999999999994

>  <m_primary>  (37) 
energy

>  <rmsd>  (37) 
7.642386402024929

>  <m_score__min__rmsd>  (37) 
7.642386402024929

>  <meeko>  (37) 
{"free_energy": -6.36, "intermolecular_energy": -8.45, "internal_energy": -2.75, "cluster_size": 5, "cluster_id": 3, "rank_in_cluster": 4}

>  <energy>  (37) 
-6.36

>  <cluster_rmsd>  (37) 
0.0

>  <cluster>  (37) 
6

$$$$

     RDKit          3D

 46 49  0  0  0  0  0  0  0  0999 V2000
  140.1810   74.1670  222.1210 O   0  0  0  0  0  0  0  0  0  0  0  0
  141.0690   74.6730  221.3840 C   0  0  0  0  0  0  0  0  0  0  0  0
  142.0280   73.8170  220.9030 C   0  0  0  0  0  0  0  0  0  0  0  0
  142.0080   72.4770  221.2160 C   0  0  0  0  0  0  0  0  0  0  0  0
  143.0150   71.6970  220.6810 C   0  0  0  0  0  0  0  0  0  0  0  0
  143.9910   72.2500  219.8710 C   0  0  0  0  0  0  0  0  0  0  0  0
  145.2550   71.2400  219.2080 Cl  0  0  0  0  0  0  0  0  0  0  0  0
  144.0090   73.6050  219.5560 C   0  0  0  0  0  0  0  0  0  0  0  0
  142.9960   74.3620  220.1000 C   0  0  0  0  0  0  0  0  0  0  0  0
  142.9530   75.6510  219.8420 N   0  0  0  0  0  0  0  0  0  0  0  0
  142.0100   76.5350  220.3060 C   0  0  0  0  0  0  0  0  0  0  0  0
  142.2110   77.8950  219.9180 C   0  0  0  0  0  0  0  0  0  0  0  0
  141.7150   78.6190  218.9630 C   0  0  0  0  0  0  0  0  0  0  0  0
  141.6160   80.0820  218.9800 C   0  0  0  0  0  0  0  0  0  0  0  0
  142.1610   80.8260  217.9390 C   0  0  0  0  0  0  0  0  0  0  0  0
  142.1050   82.2000  217.8890 C   0  0  0  0  0  0  0  0  0  0  0  0
  141.4930   82.9120  218.8960 C   0  0  0  0  0  0  0  0  0  0  0  0
  140.9480   82.1940  219.9370 C   0  0  0  0  0  0  0  0  0  0  0  0
  140.3170   82.8980  220.9780 O   0  0  0  0  0  0  0  0  0  0  0  0
  141.0060   80.7950  219.9840 C   0  0  0  0  0  0  0  0  0  0  0  0
  141.0630   76.0190  221.0880 N   0  0  0  0  0  0  0  0  0  0  0  0
  139.9620   76.7510  221.6440 C   0  0  0  0  0  0  0  0  0  0  0  0
  140.3500   77.9660  222.3960 C   0  0  0  0  0  0  0  0  0  0  0  0
  141.4610   78.1100  223.1840 C   0  0  0  0  0  0  0  0  0  0  0  0
  141.7580   79.2790  223.8780 C   0  0  0  0  0  0  0  0  0  0  0  0
  140.9350   80.3600  223.8010 C   0  0  0  0  0  0  0  0  0  0  0  0
  139.8090   80.2610  223.0230 C   0  0  0  0  0  0  0  0  0  0  0  0
  138.9480   81.3570  222.9280 O   0  0  0  0  0  0  0  0  0  0  0  0
  139.5230   79.1050  222.3420 C   0  0  0  0  0  0  0  0  0  0  0  0
  141.2275   72.0475  221.8613 H   0  0  0  0  0  0  0  0  0  0  0  0
  143.0413   70.6198  220.9024 H   0  0  0  0  0  0  0  0  0  0  0  0
  144.7849   74.0444  218.9119 H   0  0  0  0  0  0  0  0  0  0  0  0
  142.9277   78.4346  220.5546 H   0  0  0  0  0  0  0  0  0  0  0  0
  141.3396   78.0952  218.0715 H   0  0  0  0  0  0  0  0  0  0  0  0
  142.6600   80.2912  217.1174 H   0  0  0  0  0  0  0  0  0  0  0  0
  142.5527   82.7337  217.0377 H   0  0  0  0  0  0  0  0  0  0  0  0
  141.4414   84.0105  218.8700 H   0  0  0  0  0  0  0  0  0  0  0  0
  140.4030   82.5820  221.9260 H   0  0  0  0  0  0  0  0  0  0  0  0
  140.5579   80.2609  220.8348 H   0  0  0  0  0  0  0  0  0  0  0  0
  139.2996   77.0540  220.8198 H   0  0  0  0  0  0  0  0  0  0  0  0
  139.4722   76.0799  222.3649 H   0  0  0  0  0  0  0  0  0  0  0  0
  142.1528   77.2594  223.2727 H   0  0  0  0  0  0  0  0  0  0  0  0
  142.6672   79.3298  224.4951 H   0  0  0  0  0  0  0  0  0  0  0  0
  141.1658   81.2867  224.3468 H   0  0  0  0  0  0  0  0  0  0  0  0
  138.7930   81.7620  221.9990 H   0  0  0  0  0  0  0  0  0  0  0  0
  138.6106   79.0659  221.7288 H   0  0  0  0  0  0  0  0  0  0  0  0
  1  2  2  0
  2  3  1  0
  3  4  2  0
  4  5  1  0
  5  6  2  0
  6  7  1  0
  6  8  1  0
  8  9  2  0
  9 10  1  0
 10 11  2  0
 11 12  1  0
 12 13  2  0
 13 14  1  0
 14 15  2  0
 15 16  1  0
 16 17  2  0
 17 18  1  0
 18 19  1  0
 18 20  2  0
 11 21  1  0
 21 22  1  0
 22 23  1  0
 23 24  2  0
 24 25  1  0
 25 26  2  0
 26 27  1  0
 27 28  1  0
 27 29  2  0
 21  2  1  0
 29 23  1  0
  9  3  1  0
 20 14  1  0
  4 30  1  0
  5 31  1  0
  8 32  1  0
 12 33  1  0
 13 34  1  0
 15 35  1  0
 16 36  1  0
 17 37  1  0
 19 38  1  0
 20 39  1  0
 22 40  1  0
 22 41  1  0
 24 42  1  0
 25 43  1  0
 26 44  1  0
 28 45  1  0
 29 46  1  0
M  END
>  <smiles>  (38) 
O=c1c2ccc(Cl)cc2nc(/C=C/c2cccc(O)c2)n1Cc1cccc(O)c1

>  <score_type>  (38) 
oracle

>  <origin>  (38) 
autodockgpu

>  <m_score__min__energy>  (38) 
-9.1099999999999994

>  <m_primary>  (38) 
energy

>  <rmsd>  (38) 
4.638602148814889

>  <m_score__min__rmsd>  (38) 
4.638602148814889

>  <meeko>  (38) 
{"free_energy": -6.21, "intermolecular_energy": -8.3, "internal_energy": -2.6, "cluster_size": 8, "cluster_id": 6, "rank_in_cluster": 3}

>  <energy>  (38) 
-6.22

>  <cluster_rmsd>  (38) 
0.31

>  <cluster>  (38) 
6

$$$$

     RDKit          3D

 46 49  0  0  0  0  0  0  0  0999 V2000
  140.6840   75.2800  222.0730 O   0  0  0  0  0  0  0  0  0  0  0  0
  141.1510   76.1490  221.2890 C   0  0  0  0  0  0  0  0  0  0  0  0
  141.2880   77.4190  221.7920 C   0  0  0  0  0  0  0  0  0  0  0  0
  140.9300   77.7140  223.0870 C   0  0  0  0  0  0  0  0  0  0  0  0
  141.1070   79.0200  223.5010 C   0  0  0  0  0  0  0  0  0  0  0  0
  141.6210   79.9760  222.6420 C   0  0  0  0  0  0  0  0  0  0  0  0
  141.8340   81.6220  223.1910 Cl  0  0  0  0  0  0  0  0  0  0  0  0
  141.9810   79.6750  221.3330 C   0  0  0  0  0  0  0  0  0  0  0  0
  141.7960   78.3680  220.9440 C   0  0  0  0  0  0  0  0  0  0  0  0
  142.1170   78.0150  219.7180 N   0  0  0  0  0  0  0  0  0  0  0  0
  141.9930   76.7560  219.1820 C   0  0  0  0  0  0  0  0  0  0  0  0
  142.3700   76.6410  217.8090 C   0  0  0  0  0  0  0  0  0  0  0  0
  142.2510   75.6840  216.9420 C   0  0  0  0  0  0  0  0  0  0  0  0
  143.2170   74.5980  216.7500 C   0  0  0  0  0  0  0  0  0  0  0  0
  142.9190   73.5510  215.8840 C   0  0  0  0  0  0  0  0  0  0  0  0
  143.7780   72.5000  215.6540 C   0  0  0  0  0  0  0  0  0  0  0  0
  144.9970   72.4410  216.2900 C   0  0  0  0  0  0  0  0  0  0  0  0
  145.3100   73.4680  217.1530 C   0  0  0  0  0  0  0  0  0  0  0  0
  146.5500   73.4310  217.8150 O   0  0  0  0  0  0  0  0  0  0  0  0
  144.4340   74.5360  217.3830 C   0  0  0  0  0  0  0  0  0  0  0  0
  141.5010   75.8240  219.9960 N   0  0  0  0  0  0  0  0  0  0  0  0
  141.3290   74.4410  219.6570 C   0  0  0  0  0  0  0  0  0  0  0  0
  142.5120   73.5910  219.9240 C   0  0  0  0  0  0  0  0  0  0  0  0
  142.5240   72.2240  220.0060 C   0  0  0  0  0  0  0  0  0  0  0  0
  143.6730   71.4860  220.2750 C   0  0  0  0  0  0  0  0  0  0  0  0
  144.8670   72.1090  220.4740 C   0  0  0  0  0  0  0  0  0  0  0  0
  144.9020   73.4790  220.4010 C   0  0  0  0  0  0  0  0  0  0  0  0
  146.1150   74.1410  220.6020 O   0  0  0  0  0  0  0  0  0  0  0  0
  143.7650   74.1990  220.1350 C   0  0  0  0  0  0  0  0  0  0  0  0
  140.5221   76.9463  223.7610 H   0  0  0  0  0  0  0  0  0  0  0  0
  140.8355   79.3044  224.5283 H   0  0  0  0  0  0  0  0  0  0  0  0
  142.3887   80.4351  220.6503 H   0  0  0  0  0  0  0  0  0  0  0  0
  142.8574   77.5419  217.4080 H   0  0  0  0  0  0  0  0  0  0  0  0
  141.3567   75.6873  216.3015 H   0  0  0  0  0  0  0  0  0  0  0  0
  141.9526   73.5634  215.3588 H   0  0  0  0  0  0  0  0  0  0  0  0
  143.4876   71.7008  214.9562 H   0  0  0  0  0  0  0  0  0  0  0  0
  145.6933   71.6074  216.1162 H   0  0  0  0  0  0  0  0  0  0  0  0
  146.7660   74.1100  218.5210 H   0  0  0  0  0  0  0  0  0  0  0  0
  144.7246   75.3359  218.0800 H   0  0  0  0  0  0  0  0  0  0  0  0
  140.4840   74.0468  220.2407 H   0  0  0  0  0  0  0  0  0  0  0  0
  141.1564   74.4044  218.5712 H   0  0  0  0  0  0  0  0  0  0  0  0
  141.5790   71.6826  219.8517 H   0  0  0  0  0  0  0  0  0  0  0  0
  143.6158   70.3887  220.3273 H   0  0  0  0  0  0  0  0  0  0  0  0
  145.7780   71.5306  220.6873 H   0  0  0  0  0  0  0  0  0  0  0  0
  146.6030   74.5020  219.7760 H   0  0  0  0  0  0  0  0  0  0  0  0
  143.8346   75.2956  220.0844 H   0  0  0  0  0  0  0  0  0  0  0  0
  1  2  2  0
  2  3  1  0
  3  4  2  0
  4  5  1  0
  5  6  2  0
  6  7  1  0
  6  8  1  0
  8  9  2  0
  9 10  1  0
 10 11  2  0
 11 12  1  0
 12 13  2  0
 13 14  1  0
 14 15  2  0
 15 16  1  0
 16 17  2  0
 17 18  1  0
 18 19  1  0
 18 20  2  0
 11 21  1  0
 21 22  1  0
 22 23  1  0
 23 24  2  0
 24 25  1  0
 25 26  2  0
 26 27  1  0
 27 28  1  0
 27 29  2  0
 21  2  1  0
 29 23  1  0
  9  3  1  0
 20 14  1  0
  4 30  1  0
  5 31  1  0
  8 32  1  0
 12 33  1  0
 13 34  1  0
 15 35  1  0
 16 36  1  0
 17 37  1  0
 19 38  1  0
 20 39  1  0
 22 40  1  0
 22 41  1  0
 24 42  1  0
 25 43  1  0
 26 44  1  0
 28 45  1  0
 29 46  1  0
M  END
>  <smiles>  (39) 
O=c1c2ccc(Cl)cc2nc(/C=C/c2cccc(O)c2)n1Cc1cccc(O)c1

>  <score_type>  (39) 
oracle

>  <origin>  (39) 
autodockgpu

>  <m_score__min__energy>  (39) 
-9.1099999999999994

>  <m_primary>  (39) 
energy

>  <rmsd>  (39) 
7.740787766134652

>  <m_score__min__rmsd>  (39) 
7.740787766134652

>  <meeko>  (39) 
{"free_energy": -6.72, "intermolecular_energy": -8.81, "internal_energy": -2.35, "cluster_size": 2, "cluster_id": 4, "rank_in_cluster": 1}

>  <energy>  (39) 
-6.21

>  <cluster_rmsd>  (39) 
0.53

>  <cluster>  (39) 
6

$$$$

     RDKit          3D

 46 49  0  0  0  0  0  0  0  0999 V2000
  142.6960   75.6250  219.6260 O   0  0  0  0  0  0  0  0  0  0  0  0
  141.7930   75.4140  220.4790 C   0  0  0  0  0  0  0  0  0  0  0  0
  141.2630   76.5190  221.0970 C   0  0  0  0  0  0  0  0  0  0  0  0
  141.7040   77.7860  220.7920 C   0  0  0  0  0  0  0  0  0  0  0  0
  141.1080   78.8340  221.4670 C   0  0  0  0  0  0  0  0  0  0  0  0
  140.1150   78.6050  222.4030 C   0  0  0  0  0  0  0  0  0  0  0  0
  139.3780   79.9480  223.2440 Cl  0  0  0  0  0  0  0  0  0  0  0  0
  139.6710   77.3220  222.7100 C   0  0  0  0  0  0  0  0  0  0  0  0
  140.2790   76.2960  222.0250 C   0  0  0  0  0  0  0  0  0  0  0  0
  139.9060   75.0570  222.2670 N   0  0  0  0  0  0  0  0  0  0  0  0
  140.4140   73.9310  221.6680 C   0  0  0  0  0  0  0  0  0  0  0  0
  139.8700   72.6960  222.1380 C   0  0  0  0  0  0  0  0  0  0  0  0
  140.4160   71.5770  222.5000 C   0  0  0  0  0  0  0  0  0  0  0  0
  140.2550   70.9500  223.8160 C   0  0  0  0  0  0  0  0  0  0  0  0
  140.6330   71.6380  224.9640 C   0  0  0  0  0  0  0  0  0  0  0  0
  140.5100   71.1130  226.2300 C   0  0  0  0  0  0  0  0  0  0  0  0
  139.9950   69.8500  226.4150 C   0  0  0  0  0  0  0  0  0  0  0  0
  139.6150   69.1500  225.2910 C   0  0  0  0  0  0  0  0  0  0  0  0
  139.0850   67.8580  225.4540 O   0  0  0  0  0  0  0  0  0  0  0  0
  139.7410   69.6890  224.0040 C   0  0  0  0  0  0  0  0  0  0  0  0
  141.3710   74.1330  220.7630 N   0  0  0  0  0  0  0  0  0  0  0  0
  142.0060   73.1060  219.9900 C   0  0  0  0  0  0  0  0  0  0  0  0
  143.4840   73.0980  220.0770 C   0  0  0  0  0  0  0  0  0  0  0  0
  144.2270   72.9780  221.2230 C   0  0  0  0  0  0  0  0  0  0  0  0
  145.6180   72.9940  221.2340 C   0  0  0  0  0  0  0  0  0  0  0  0
  146.3200   73.1310  220.0760 C   0  0  0  0  0  0  0  0  0  0  0  0
  145.6180   73.2540  218.9040 C   0  0  0  0  0  0  0  0  0  0  0  0
  146.3160   73.3970  217.7030 O   0  0  0  0  0  0  0  0  0  0  0  0
  144.2460   73.2380  218.9010 C   0  0  0  0  0  0  0  0  0  0  0  0
  142.4940   77.9567  220.0458 H   0  0  0  0  0  0  0  0  0  0  0  0
  141.4276   79.8654  221.2572 H   0  0  0  0  0  0  0  0  0  0  0  0
  138.8823   77.1399  223.4548 H   0  0  0  0  0  0  0  0  0  0  0  0
  138.7721   72.6943  222.2061 H   0  0  0  0  0  0  0  0  0  0  0  0
  141.0481   71.0585  221.7640 H   0  0  0  0  0  0  0  0  0  0  0  0
  141.0501   72.6500  224.8548 H   0  0  0  0  0  0  0  0  0  0  0  0
  140.8255   71.7069  227.1005 H   0  0  0  0  0  0  0  0  0  0  0  0
  139.8910   69.4167  227.4207 H   0  0  0  0  0  0  0  0  0  0  0  0
  139.3910   67.2790  226.2130 H   0  0  0  0  0  0  0  0  0  0  0  0
  139.4247   69.0959  223.1333 H   0  0  0  0  0  0  0  0  0  0  0  0
  141.6357   72.1320  220.3425 H   0  0  0  0  0  0  0  0  0  0  0  0
  141.7554   73.3060  218.9378 H   0  0  0  0  0  0  0  0  0  0  0  0
  143.6975   72.8635  222.1803 H   0  0  0  0  0  0  0  0  0  0  0  0
  146.1560   72.8949  222.1883 H   0  0  0  0  0  0  0  0  0  0  0  0
  147.4199   73.1427  220.0799 H   0  0  0  0  0  0  0  0  0  0  0  0
  146.3300   74.3250  217.2680 H   0  0  0  0  0  0  0  0  0  0  0  0
  143.7196   73.3387  217.9404 H   0  0  0  0  0  0  0  0  0  0  0  0
  1  2  2  0
  2  3  1  0
  3  4  2  0
  4  5  1  0
  5  6  2  0
  6  7  1  0
  6  8  1  0
  8  9  2  0
  9 10  1  0
 10 11  2  0
 11 12  1  0
 12 13  2  0
 13 14  1  0
 14 15  2  0
 15 16  1  0
 16 17  2  0
 17 18  1  0
 18 19  1  0
 18 20  2  0
 11 21  1  0
 21 22  1  0
 22 23  1  0
 23 24  2  0
 24 25  1  0
 25 26  2  0
 26 27  1  0
 27 28  1  0
 27 29  2  0
 21  2  1  0
 29 23  1  0
  9  3  1  0
 20 14  1  0
  4 30  1  0
  5 31  1  0
  8 32  1  0
 12 33  1  0
 13 34  1  0
 15 35  1  0
 16 36  1  0
 17 37  1  0
 19 38  1  0
 20 39  1  0
 22 40  1  0
 22 41  1  0
 24 42  1  0
 25 43  1  0
 26 44  1  0
 28 45  1  0
 29 46  1  0
M  END
>  <smiles>  (40) 
O=c1c2ccc(Cl)cc2nc(/C=C/c2cccc(O)c2)n1Cc1cccc(O)c1

>  <score_type>  (40) 
oracle

>  <origin>  (40) 
autodockgpu

>  <m_score__min__energy>  (40) 
-9.1099999999999994

>  <m_primary>  (40) 
energy

>  <rmsd>  (40) 
7.697570558716575

>  <m_score__min__rmsd>  (40) 
7.697570558716575

>  <meeko>  (40) 
{"free_energy": -8.55, "intermolecular_energy": -10.64, "internal_energy": -0.88, "cluster_size": 16, "cluster_id": 1, "rank_in_cluster": 2}

>  <energy>  (40) 
-6.17

>  <cluster_rmsd>  (40) 
0.9

>  <cluster>  (40) 
6

$$$$

     RDKit          3D

 46 49  0  0  0  0  0  0  0  0999 V2000
  136.8420   78.1400  222.5060 O   0  0  0  0  0  0  0  0  0  0  0  0
  137.9580   77.5570  222.4400 C   0  0  0  0  0  0  0  0  0  0  0  0
  139.0610   78.3050  222.7650 C   0  0  0  0  0  0  0  0  0  0  0  0
  138.9420   79.6220  223.1440 C   0  0  0  0  0  0  0  0  0  0  0  0
  140.1110   80.2910  223.4530 C   0  0  0  0  0  0  0  0  0  0  0  0
  141.3370   79.6520  223.3820 C   0  0  0  0  0  0  0  0  0  0  0  0
  142.8000   80.5210  223.7790 Cl  0  0  0  0  0  0  0  0  0  0  0  0
  141.4540   78.3200  222.9990 C   0  0  0  0  0  0  0  0  0  0  0  0
  140.2770   77.6760  222.6960 C   0  0  0  0  0  0  0  0  0  0  0  0
  140.3170   76.4130  222.3270 N   0  0  0  0  0  0  0  0  0  0  0  0
  139.2340   75.6360  221.9940 C   0  0  0  0  0  0  0  0  0  0  0  0
  139.5470   74.3050  221.5830 C   0  0  0  0  0  0  0  0  0  0  0  0
  140.3210   73.3900  222.0790 C   0  0  0  0  0  0  0  0  0  0  0  0
  139.8810   72.3030  222.9590 C   0  0  0  0  0  0  0  0  0  0  0  0
  140.6940   71.8890  224.0090 C   0  0  0  0  0  0  0  0  0  0  0  0
  140.3450   70.8770  224.8750 C   0  0  0  0  0  0  0  0  0  0  0  0
  139.1480   70.2150  224.7290 C   0  0  0  0  0  0  0  0  0  0  0  0
  138.3280   70.6080  223.6940 C   0  0  0  0  0  0  0  0  0  0  0  0
  137.0990   69.9480  223.5250 O   0  0  0  0  0  0  0  0  0  0  0  0
  138.6860   71.6400  222.8170 C   0  0  0  0  0  0  0  0  0  0  0  0
  138.0460   76.2350  222.0580 N   0  0  0  0  0  0  0  0  0  0  0  0
  136.7870   75.6000  221.7960 C   0  0  0  0  0  0  0  0  0  0  0  0
  136.1210   75.0380  222.9930 C   0  0  0  0  0  0  0  0  0  0  0  0
  135.6400   75.7500  224.0600 C   0  0  0  0  0  0  0  0  0  0  0  0
  135.0370   75.1530  225.1640 C   0  0  0  0  0  0  0  0  0  0  0  0
  134.8960   73.8020  225.2320 C   0  0  0  0  0  0  0  0  0  0  0  0
  135.3640   73.0480  224.1850 C   0  0  0  0  0  0  0  0  0  0  0  0
  135.2320   71.6590  224.2330 O   0  0  0  0  0  0  0  0  0  0  0  0
  135.9580   73.6430  223.1010 C   0  0  0  0  0  0  0  0  0  0  0  0
  137.9623   80.1192  223.1985 H   0  0  0  0  0  0  0  0  0  0  0  0
  140.0667   81.3464  223.7598 H   0  0  0  0  0  0  0  0  0  0  0  0
  142.4283   77.8126  222.9419 H   0  0  0  0  0  0  0  0  0  0  0  0
  139.0292   73.9940  220.6637 H   0  0  0  0  0  0  0  0  0  0  0  0
  141.3891   73.4328  221.8196 H   0  0  0  0  0  0  0  0  0  0  0  0
  141.6606   72.3935  224.1543 H   0  0  0  0  0  0  0  0  0  0  0  0
  141.0285   70.5958  225.6897 H   0  0  0  0  0  0  0  0  0  0  0  0
  138.8569   69.4034  225.4121 H   0  0  0  0  0  0  0  0  0  0  0  0
  136.3800   70.3560  222.9560 H   0  0  0  0  0  0  0  0  0  0  0  0
  138.0014   71.9233  222.0040 H   0  0  0  0  0  0  0  0  0  0  0  0
  136.1138   76.3447  221.3463 H   0  0  0  0  0  0  0  0  0  0  0  0
  136.9979   74.7515  221.1285 H   0  0  0  0  0  0  0  0  0  0  0  0
  135.7347   76.8458  224.0438 H   0  0  0  0  0  0  0  0  0  0  0  0
  134.6708   75.7806  225.9898 H   0  0  0  0  0  0  0  0  0  0  0  0
  134.4199   73.3266  226.1023 H   0  0  0  0  0  0  0  0  0  0  0  0
  136.0810   71.1050  224.3790 H   0  0  0  0  0  0  0  0  0  0  0  0
  136.3219   73.0045  222.2825 H   0  0  0  0  0  0  0  0  0  0  0  0
  1  2  2  0
  2  3  1  0
  3  4  2  0
  4  5  1  0
  5  6  2  0
  6  7  1  0
  6  8  1  0
  8  9  2  0
  9 10  1  0
 10 11  2  0
 11 12  1  0
 12 13  2  0
 13 14  1  0
 14 15  2  0
 15 16  1  0
 16 17  2  0
 17 18  1  0
 18 19  1  0
 18 20  2  0
 11 21  1  0
 21 22  1  0
 22 23  1  0
 23 24  2  0
 24 25  1  0
 25 26  2  0
 26 27  1  0
 27 28  1  0
 27 29  2  0
 21  2  1  0
 29 23  1  0
  9  3  1  0
 20 14  1  0
  4 30  1  0
  5 31  1  0
  8 32  1  0
 12 33  1  0
 13 34  1  0
 15 35  1  0
 16 36  1  0
 17 37  1  0
 19 38  1  0
 20 39  1  0
 22 40  1  0
 22 41  1  0
 24 42  1  0
 25 43  1  0
 26 44  1  0
 28 45  1  0
 29 46  1  0
M  END
>  <smiles>  (41) 
O=c1c2ccc(Cl)cc2nc(/C=C/c2cccc(O)c2)n1Cc1cccc(O)c1

>  <score_type>  (41) 
oracle

>  <origin>  (41) 
autodockgpu

>  <m_score__min__energy>  (41) 
-9.1099999999999994

>  <m_primary>  (41) 
energy

>  <rmsd>  (41) 
7.355225331063568

>  <m_score__min__rmsd>  (41) 
7.355225331063568

>  <meeko>  (41) 
{"free_energy": -6.06, "intermolecular_energy": -8.15, "internal_energy": -2.72, "cluster_size": 4, "cluster_id": 7, "rank_in_cluster": 4}

>  <energy>  (41) 
-6.15

>  <cluster_rmsd>  (41) 
0.81

>  <cluster>  (41) 
6

$$$$

     RDKit          3D

 46 49  0  0  0  0  0  0  0  0999 V2000
  140.1810   72.3910  223.1350 O   0  0  0  0  0  0  0  0  0  0  0  0
  139.3790   71.5560  223.6330 C   0  0  0  0  0  0  0  0  0  0  0  0
  139.8200   70.8640  224.7340 C   0  0  0  0  0  0  0  0  0  0  0  0
  141.0740   71.0820  225.2570 C   0  0  0  0  0  0  0  0  0  0  0  0
  141.4250   70.3380  226.3670 C   0  0  0  0  0  0  0  0  0  0  0  0
  140.5460   69.4200  226.9160 C   0  0  0  0  0  0  0  0  0  0  0  0
  141.0150   68.4910  228.3200 Cl  0  0  0  0  0  0  0  0  0  0  0  0
  139.2790   69.2020  226.3850 C   0  0  0  0  0  0  0  0  0  0  0  0
  138.9520   69.9540  225.2800 C   0  0  0  0  0  0  0  0  0  0  0  0
  137.7680   69.7980  224.7280 N   0  0  0  0  0  0  0  0  0  0  0  0
  137.2960   70.4720  223.6290 C   0  0  0  0  0  0  0  0  0  0  0  0
  135.9900   70.0880  223.1960 C   0  0  0  0  0  0  0  0  0  0  0  0
  134.8410   70.0450  223.7990 C   0  0  0  0  0  0  0  0  0  0  0  0
  134.5340   70.7050  225.0710 C   0  0  0  0  0  0  0  0  0  0  0  0
  134.5660   69.9780  226.2560 C   0  0  0  0  0  0  0  0  0  0  0  0
  134.2900   70.5320  227.4850 C   0  0  0  0  0  0  0  0  0  0  0  0
  133.9590   71.8640  227.5930 C   0  0  0  0  0  0  0  0  0  0  0  0
  133.9210   72.6020  226.4310 C   0  0  0  0  0  0  0  0  0  0  0  0
  133.5860   73.9650  226.5140 O   0  0  0  0  0  0  0  0  0  0  0  0
  134.2040   72.0350  225.1820 C   0  0  0  0  0  0  0  0  0  0  0  0
  138.1290   71.3600  223.0880 N   0  0  0  0  0  0  0  0  0  0  0  0
  137.8240   72.2000  221.9660 C   0  0  0  0  0  0  0  0  0  0  0  0
  137.3510   73.5560  222.3250 C   0  0  0  0  0  0  0  0  0  0  0  0
  137.9420   74.7400  221.9700 C   0  0  0  0  0  0  0  0  0  0  0  0
  137.4500   75.9840  222.3570 C   0  0  0  0  0  0  0  0  0  0  0  0
  136.3310   76.0790  223.1240 C   0  0  0  0  0  0  0  0  0  0  0  0
  135.7050   74.9180  223.5040 C   0  0  0  0  0  0  0  0  0  0  0  0
  134.5550   74.9910  224.2920 O   0  0  0  0  0  0  0  0  0  0  0  0
  136.1960   73.6970  223.1190 C   0  0  0  0  0  0  0  0  0  0  0  0
  141.7643   71.8140  224.8124 H   0  0  0  0  0  0  0  0  0  0  0  0
  142.4172   70.4770  226.8211 H   0  0  0  0  0  0  0  0  0  0  0  0
  138.5809   68.4728  226.8219 H   0  0  0  0  0  0  0  0  0  0  0  0
  135.9499   69.7653  222.1452 H   0  0  0  0  0  0  0  0  0  0  0  0
  134.0364   69.4691  223.3184 H   0  0  0  0  0  0  0  0  0  0  0  0
  134.8241   68.9098  226.2087 H   0  0  0  0  0  0  0  0  0  0  0  0
  134.3342   69.9057  228.3882 H   0  0  0  0  0  0  0  0  0  0  0  0
  133.7340   72.3204  228.5682 H   0  0  0  0  0  0  0  0  0  0  0  0
  133.0910   74.4110  225.7650 H   0  0  0  0  0  0  0  0  0  0  0  0
  134.1617   72.6615  224.2788 H   0  0  0  0  0  0  0  0  0  0  0  0
  138.7341   72.3036  221.3570 H   0  0  0  0  0  0  0  0  0  0  0  0
  136.9983   71.7134  221.4262 H   0  0  0  0  0  0  0  0  0  0  0  0
  138.8493   74.7063  221.3490 H   0  0  0  0  0  0  0  0  0  0  0  0
  137.9716   76.8988  222.0391 H   0  0  0  0  0  0  0  0  0  0  0  0
  135.9383   77.0594  223.4315 H   0  0  0  0  0  0  0  0  0  0  0  0
  134.6320   74.7070  225.2740 H   0  0  0  0  0  0  0  0  0  0  0  0
  135.6658   72.7896  223.4438 H   0  0  0  0  0  0  0  0  0  0  0  0
  1  2  2  0
  2  3  1  0
  3  4  2  0
  4  5  1  0
  5  6  2  0
  6  7  1  0
  6  8  1  0
  8  9  2  0
  9 10  1  0
 10 11  2  0
 11 12  1  0
 12 13  2  0
 13 14  1  0
 14 15  2  0
 15 16  1  0
 16 17  2  0
 17 18  1  0
 18 19  1  0
 18 20  2  0
 11 21  1  0
 21 22  1  0
 22 23  1  0
 23 24  2  0
 24 25  1  0
 25 26  2  0
 26 27  1  0
 27 28  1  0
 27 29  2  0
 21  2  1  0
 29 23  1  0
  9  3  1  0
 20 14  1  0
  4 30  1  0
  5 31  1  0
  8 32  1  0
 12 33  1  0
 13 34  1  0
 15 35  1  0
 16 36  1  0
 17 37  1  0
 19 38  1  0
 20 39  1  0
 22 40  1  0
 22 41  1  0
 24 42  1  0
 25 43  1  0
 26 44  1  0
 28 45  1  0
 29 46  1  0
M  END
>  <smiles>  (42) 
O=c1c2ccc(Cl)cc2nc(/C=C/c2cccc(O)c2)n1Cc1cccc(O)c1

>  <score_type>  (42) 
oracle

>  <origin>  (42) 
autodockgpu

>  <m_score__min__energy>  (42) 
-9.1099999999999994

>  <m_primary>  (42) 
energy

>  <rmsd>  (42) 
8.432648710282702

>  <m_score__min__rmsd>  (42) 
8.432648710282702

>  <meeko>  (42) 
{"free_energy": -6.61, "intermolecular_energy": -8.7, "internal_energy": -2.91, "cluster_size": 12, "cluster_id": 2, "rank_in_cluster": 5}

>  <energy>  (42) 
-6.01

>  <cluster_rmsd>  (42) 
0.7

>  <cluster>  (42) 
6

$$$$

     RDKit          3D

 46 49  0  0  0  0  0  0  0  0999 V2000
  142.1790   75.1490  218.7800 O   0  0  0  0  0  0  0  0  0  0  0  0
  141.6050   75.0280  219.8960 C   0  0  0  0  0  0  0  0  0  0  0  0
  141.4960   76.1660  220.6560 C   0  0  0  0  0  0  0  0  0  0  0  0
  141.9910   77.3700  220.2100 C   0  0  0  0  0  0  0  0  0  0  0  0
  141.8310   78.4580  221.0460 C   0  0  0  0  0  0  0  0  0  0  0  0
  141.2000   78.3280  222.2720 C   0  0  0  0  0  0  0  0  0  0  0  0
  141.0120   79.7210  223.3110 Cl  0  0  0  0  0  0  0  0  0  0  0  0
  140.7010   77.1090  222.7200 C   0  0  0  0  0  0  0  0  0  0  0  0
  140.8720   76.0410  221.8700 C   0  0  0  0  0  0  0  0  0  0  0  0
  140.4230   74.8580  222.2320 N   0  0  0  0  0  0  0  0  0  0  0  0
  140.5150   73.7010  221.4980 C   0  0  0  0  0  0  0  0  0  0  0  0
  139.9880   72.5360  222.1340 C   0  0  0  0  0  0  0  0  0  0  0  0
  140.5420   71.4500  222.5780 C   0  0  0  0  0  0  0  0  0  0  0  0
  140.3120   70.8720  223.9060 C   0  0  0  0  0  0  0  0  0  0  0  0
  140.6860   71.5780  225.0440 C   0  0  0  0  0  0  0  0  0  0  0  0
  140.5000   71.0980  226.3200 C   0  0  0  0  0  0  0  0  0  0  0  0
  139.9240   69.8650  226.5260 C   0  0  0  0  0  0  0  0  0  0  0  0
  139.5470   69.1490  225.4120 C   0  0  0  0  0  0  0  0  0  0  0  0
  138.9560   67.8860  225.5960 O   0  0  0  0  0  0  0  0  0  0  0  0
  139.7370   69.6410  224.1150 C   0  0  0  0  0  0  0  0  0  0  0  0
  141.1190   73.8080  220.3150 N   0  0  0  0  0  0  0  0  0  0  0  0
  141.2850   72.7400  219.3730 C   0  0  0  0  0  0  0  0  0  0  0  0
  142.6100   72.0810  219.4180 C   0  0  0  0  0  0  0  0  0  0  0  0
  142.8610   70.7950  219.8160 C   0  0  0  0  0  0  0  0  0  0  0  0
  144.1380   70.2420  219.8490 C   0  0  0  0  0  0  0  0  0  0  0  0
  145.2220   70.9770  219.4760 C   0  0  0  0  0  0  0  0  0  0  0  0
  145.0170   72.2710  219.0700 C   0  0  0  0  0  0  0  0  0  0  0  0
  146.1130   73.0450  218.6840 O   0  0  0  0  0  0  0  0  0  0  0  0
  143.7560   72.8090  219.0410 C   0  0  0  0  0  0  0  0  0  0  0  0
  142.4904   77.4617  219.2342 H   0  0  0  0  0  0  0  0  0  0  0  0
  142.2103   79.4421  220.7334 H   0  0  0  0  0  0  0  0  0  0  0  0
  140.2005   77.0056  223.6941 H   0  0  0  0  0  0  0  0  0  0  0  0
  138.8975   72.5651  222.2753 H   0  0  0  0  0  0  0  0  0  0  0  0
  141.2368   70.9230  221.9076 H   0  0  0  0  0  0  0  0  0  0  0  0
  141.1523   72.5663  224.9183 H   0  0  0  0  0  0  0  0  0  0  0  0
  140.8141   71.7044  227.1823 H   0  0  0  0  0  0  0  0  0  0  0  0
  139.7710   69.4675  227.5402 H   0  0  0  0  0  0  0  0  0  0  0  0
  139.3470   67.2360  226.2520 H   0  0  0  0  0  0  0  0  0  0  0  0
  139.4223   69.0350  223.2526 H   0  0  0  0  0  0  0  0  0  0  0  0
  140.5163   71.9799  219.5766 H   0  0  0  0  0  0  0  0  0  0  0  0
  141.1928   73.1884  218.3728 H   0  0  0  0  0  0  0  0  0  0  0  0
  142.0116   70.1680  220.1249 H   0  0  0  0  0  0  0  0  0  0  0  0
  144.2728   69.2015  220.1795 H   0  0  0  0  0  0  0  0  0  0  0  0
  146.2334   70.5452  219.4996 H   0  0  0  0  0  0  0  0  0  0  0  0
  145.9730   74.0560  218.5900 H   0  0  0  0  0  0  0  0  0  0  0  0
  143.6342   73.8509  218.7101 H   0  0  0  0  0  0  0  0  0  0  0  0
  1  2  2  0
  2  3  1  0
  3  4  2  0
  4  5  1  0
  5  6  2  0
  6  7  1  0
  6  8  1  0
  8  9  2  0
  9 10  1  0
 10 11  2  0
 11 12  1  0
 12 13  2  0
 13 14  1  0
 14 15  2  0
 15 16  1  0
 16 17  2  0
 17 18  1  0
 18 19  1  0
 18 20  2  0
 11 21  1  0
 21 22  1  0
 22 23  1  0
 23 24  2  0
 24 25  1  0
 25 26  2  0
 26 27  1  0
 27 28  1  0
 27 29  2  0
 21  2  1  0
 29 23  1  0
  9  3  1  0
 20 14  1  0
  4 30  1  0
  5 31  1  0
  8 32  1  0
 12 33  1  0
 13 34  1  0
 15 35  1  0
 16 36  1  0
 17 37  1  0
 19 38  1  0
 20 39  1  0
 22 40  1  0
 22 41  1  0
 24 42  1  0
 25 43  1  0
 26 44  1  0
 28 45  1  0
 29 46  1  0
M  END
>  <smiles>  (43) 
O=c1c2ccc(Cl)cc2nc(/C=C/c2cccc(O)c2)n1Cc1cccc(O)c1

>  <score_type>  (43) 
oracle

>  <origin>  (43) 
autodockgpu

>  <m_score__min__energy>  (43) 
-9.1099999999999994

>  <m_primary>  (43) 
energy

>  <rmsd>  (43) 
8.346588325665692

>  <m_score__min__rmsd>  (43) 
8.346588325665692

>  <meeko>  (43) 
{"free_energy": -8.1, "intermolecular_energy": -10.19, "internal_energy": -0.96, "cluster_size": 16, "cluster_id": 1, "rank_in_cluster": 14}

>  <energy>  (43) 
-5.95

>  <cluster_rmsd>  (43) 
1.25

>  <cluster>  (43) 
6

$$$$

     RDKit          3D

 46 49  0  0  0  0  0  0  0  0999 V2000
  141.0740   80.0330  217.9760 O   0  0  0  0  0  0  0  0  0  0  0  0
  141.2910   79.2540  218.9420 C   0  0  0  0  0  0  0  0  0  0  0  0
  141.5420   79.8390  220.1580 C   0  0  0  0  0  0  0  0  0  0  0  0
  141.5520   81.2080  220.3010 C   0  0  0  0  0  0  0  0  0  0  0  0
  141.8130   81.7010  221.5650 C   0  0  0  0  0  0  0  0  0  0  0  0
  142.0500   80.8470  222.6280 C   0  0  0  0  0  0  0  0  0  0  0  0
  142.3780   81.4980  224.2170 Cl  0  0  0  0  0  0  0  0  0  0  0  0
  142.0390   79.4640  222.4810 C   0  0  0  0  0  0  0  0  0  0  0  0
  141.7780   78.9960  221.2130 C   0  0  0  0  0  0  0  0  0  0  0  0
  141.7510   77.6970  221.0040 N   0  0  0  0  0  0  0  0  0  0  0  0
  141.5050   77.0790  219.8030 C   0  0  0  0  0  0  0  0  0  0  0  0
  141.5770   75.6520  219.8290 C   0  0  0  0  0  0  0  0  0  0  0  0
  142.0650   74.8130  220.6890 C   0  0  0  0  0  0  0  0  0  0  0  0
  143.0630   73.7830  220.3860 C   0  0  0  0  0  0  0  0  0  0  0  0
  142.8710   72.4790  220.8300 C   0  0  0  0  0  0  0  0  0  0  0  0
  143.7650   71.4620  220.5830 C   0  0  0  0  0  0  0  0  0  0  0  0
  144.9170   71.7020  219.8680 C   0  0  0  0  0  0  0  0  0  0  0  0
  145.1260   72.9880  219.4200 C   0  0  0  0  0  0  0  0  0  0  0  0
  146.2950   73.2590  218.6870 O   0  0  0  0  0  0  0  0  0  0  0  0
  144.2140   74.0190  219.6730 C   0  0  0  0  0  0  0  0  0  0  0  0
  141.2730   77.8860  218.7690 N   0  0  0  0  0  0  0  0  0  0  0  0
  140.9530   77.4540  217.4400 C   0  0  0  0  0  0  0  0  0  0  0  0
  142.1280   77.1650  216.5870 C   0  0  0  0  0  0  0  0  0  0  0  0
  142.4260   77.7620  215.3900 C   0  0  0  0  0  0  0  0  0  0  0  0
  143.5440   77.4310  214.6310 C   0  0  0  0  0  0  0  0  0  0  0  0
  144.4130   76.4740  215.0560 C   0  0  0  0  0  0  0  0  0  0  0  0
  144.1550   75.8490  216.2500 C   0  0  0  0  0  0  0  0  0  0  0  0
  145.0330   74.8640  216.7070 O   0  0  0  0  0  0  0  0  0  0  0  0
  143.0510   76.1810  216.9930 C   0  0  0  0  0  0  0  0  0  0  0  0
  141.3613   81.8777  219.4494 H   0  0  0  0  0  0  0  0  0  0  0  0
  141.8327   82.7885  221.7289 H   0  0  0  0  0  0  0  0  0  0  0  0
  142.2273   78.7857  223.3262 H   0  0  0  0  0  0  0  0  0  0  0  0
  141.1309   75.1708  218.9462 H   0  0  0  0  0  0  0  0  0  0  0  0
  141.7022   74.8793  221.7253 H   0  0  0  0  0  0  0  0  0  0  0  0
  141.9621   72.2497  221.4055 H   0  0  0  0  0  0  0  0  0  0  0  0
  143.5575   70.4496  220.9597 H   0  0  0  0  0  0  0  0  0  0  0  0
  145.6410   70.8996  219.6628 H   0  0  0  0  0  0  0  0  0  0  0  0
  146.4120   74.1450  218.2310 H   0  0  0  0  0  0  0  0  0  0  0  0
  144.4211   75.0315  219.2963 H   0  0  0  0  0  0  0  0  0  0  0  0
  140.3483   76.5380  217.5131 H   0  0  0  0  0  0  0  0  0  0  0  0
  140.4173   78.2871  216.9615 H   0  0  0  0  0  0  0  0  0  0  0  0
  141.7481   78.5409  215.0108 H   0  0  0  0  0  0  0  0  0  0  0  0
  143.7274   77.9482  213.6776 H   0  0  0  0  0  0  0  0  0  0  0  0
  145.2979   76.2087  214.4589 H   0  0  0  0  0  0  0  0  0  0  0  0
  145.2730   74.8650  217.7030 H   0  0  0  0  0  0  0  0  0  0  0  0
  142.8791   75.6575  217.9450 H   0  0  0  0  0  0  0  0  0  0  0  0
  1  2  2  0
  2  3  1  0
  3  4  2  0
  4  5  1  0
  5  6  2  0
  6  7  1  0
  6  8  1  0
  8  9  2  0
  9 10  1  0
 10 11  2  0
 11 12  1  0
 12 13  2  0
 13 14  1  0
 14 15  2  0
 15 16  1  0
 16 17  2  0
 17 18  1  0
 18 19  1  0
 18 20  2  0
 11 21  1  0
 21 22  1  0
 22 23  1  0
 23 24  2  0
 24 25  1  0
 25 26  2  0
 26 27  1  0
 27 28  1  0
 27 29  2  0
 21  2  1  0
 29 23  1  0
  9  3  1  0
 20 14  1  0
  4 30  1  0
  5 31  1  0
  8 32  1  0
 12 33  1  0
 13 34  1  0
 15 35  1  0
 16 36  1  0
 17 37  1  0
 19 38  1  0
 20 39  1  0
 22 40  1  0
 22 41  1  0
 24 42  1  0
 25 43  1  0
 26 44  1  0
 28 45  1  0
 29 46  1  0
M  END
>  <smiles>  (44) 
O=c1c2ccc(Cl)cc2nc(/C=C/c2cccc(O)c2)n1Cc1cccc(O)c1

>  <score_type>  (44) 
oracle

>  <origin>  (44) 
autodockgpu

>  <m_score__min__energy>  (44) 
-9.1099999999999994

>  <m_primary>  (44) 
energy

>  <rmsd>  (44) 
6.972026771858274

>  <m_score__min__rmsd>  (44) 
6.972026771858274

>  <meeko>  (44) 
{"free_energy": -6.83, "intermolecular_energy": -8.92, "internal_energy": -2.26, "cluster_size": 5, "cluster_id": 3, "rank_in_cluster": 1}

>  <energy>  (44) 
-5.59

>  <cluster_rmsd>  (44) 
1.93

>  <cluster>  (44) 
6

$$$$

     RDKit          3D

 46 49  0  0  0  0  0  0  0  0999 V2000
  140.3220   74.1500  222.2970 O   0  0  0  0  0  0  0  0  0  0  0  0
  141.1510   74.6700  221.5030 C   0  0  0  0  0  0  0  0  0  0  0  0
  142.0610   73.8220  220.9240 C   0  0  0  0  0  0  0  0  0  0  0  0
  142.0580   72.4750  221.2050 C   0  0  0  0  0  0  0  0  0  0  0  0
  143.0140   71.7030  220.5720 C   0  0  0  0  0  0  0  0  0  0  0  0
  143.9240   72.2720  219.6980 C   0  0  0  0  0  0  0  0  0  0  0  0
  145.1230   71.2730  218.9110 Cl  0  0  0  0  0  0  0  0  0  0  0  0
  143.9250   73.6350  219.4160 C   0  0  0  0  0  0  0  0  0  0  0  0
  142.9650   74.3820  220.0580 C   0  0  0  0  0  0  0  0  0  0  0  0
  142.9090   75.6780  219.8360 N   0  0  0  0  0  0  0  0  0  0  0  0
  142.0130   76.5540  220.3970 C   0  0  0  0  0  0  0  0  0  0  0  0
  142.1900   77.9230  220.0270 C   0  0  0  0  0  0  0  0  0  0  0  0
  142.2000   78.5290  218.8800 C   0  0  0  0  0  0  0  0  0  0  0  0
  142.1360   79.9820  218.6970 C   0  0  0  0  0  0  0  0  0  0  0  0
  142.8980   80.5890  217.7040 C   0  0  0  0  0  0  0  0  0  0  0  0
  142.8880   81.9470  217.4740 C   0  0  0  0  0  0  0  0  0  0  0  0
  142.1040   82.7790  218.2400 C   0  0  0  0  0  0  0  0  0  0  0  0
  141.3430   82.1970  219.2300 C   0  0  0  0  0  0  0  0  0  0  0  0
  140.5330   83.0270  220.0260 O   0  0  0  0  0  0  0  0  0  0  0  0
  141.3550   80.8160  219.4590 C   0  0  0  0  0  0  0  0  0  0  0  0
  141.1290   76.0230  221.2400 N   0  0  0  0  0  0  0  0  0  0  0  0
  140.0820   76.7460  221.9010 C   0  0  0  0  0  0  0  0  0  0  0  0
  140.4980   78.0500  222.4660 C   0  0  0  0  0  0  0  0  0  0  0  0
  141.5020   78.2550  223.3750 C   0  0  0  0  0  0  0  0  0  0  0  0
  141.8310   79.5110  223.8780 C   0  0  0  0  0  0  0  0  0  0  0  0
  141.1510   80.6190  223.4770 C   0  0  0  0  0  0  0  0  0  0  0  0
  140.1360   80.4610  222.5670 C   0  0  0  0  0  0  0  0  0  0  0  0
  139.4240   81.5840  222.1400 O   0  0  0  0  0  0  0  0  0  0  0  0
  139.8170   79.2200  222.0760 C   0  0  0  0  0  0  0  0  0  0  0  0
  141.3292   72.0334  221.9006 H   0  0  0  0  0  0  0  0  0  0  0  0
  143.0521   70.6209  220.7657 H   0  0  0  0  0  0  0  0  0  0  0  0
  144.6491   74.0870  218.7223 H   0  0  0  0  0  0  0  0  0  0  0  0
  142.3491   78.5951  220.8832 H   0  0  0  0  0  0  0  0  0  0  0  0
  142.2611   77.9051  217.9761 H   0  0  0  0  0  0  0  0  0  0  0  0
  143.5383   79.9550  217.0731 H   0  0  0  0  0  0  0  0  0  0  0  0
  143.5113   82.3695  216.6721 H   0  0  0  0  0  0  0  0  0  0  0  0
  142.0857   83.8654  218.0687 H   0  0  0  0  0  0  0  0  0  0  0  0
  139.6250   82.7160  220.3190 H   0  0  0  0  0  0  0  0  0  0  0  0
  140.7306   80.3932  220.2599 H   0  0  0  0  0  0  0  0  0  0  0  0
  139.2776   76.9279  221.1731 H   0  0  0  0  0  0  0  0  0  0  0  0
  139.7612   76.1251  222.7505 H   0  0  0  0  0  0  0  0  0  0  0  0
  142.0766   77.3846  223.7248 H   0  0  0  0  0  0  0  0  0  0  0  0
  142.6490   79.6084  224.6070 H   0  0  0  0  0  0  0  0  0  0  0  0
  141.4075   81.6134  223.8711 H   0  0  0  0  0  0  0  0  0  0  0  0
  139.9490   82.4490  221.9790 H   0  0  0  0  0  0  0  0  0  0  0  0
  138.9963   79.1353  221.3484 H   0  0  0  0  0  0  0  0  0  0  0  0
  1  2  2  0
  2  3  1  0
  3  4  2  0
  4  5  1  0
  5  6  2  0
  6  7  1  0
  6  8  1  0
  8  9  2  0
  9 10  1  0
 10 11  2  0
 11 12  1  0
 12 13  2  0
 13 14  1  0
 14 15  2  0
 15 16  1  0
 16 17  2  0
 17 18  1  0
 18 19  1  0
 18 20  2  0
 11 21  1  0
 21 22  1  0
 22 23  1  0
 23 24  2  0
 24 25  1  0
 25 26  2  0
 26 27  1  0
 27 28  1  0
 27 29  2  0
 21  2  1  0
 29 23  1  0
  9  3  1  0
 20 14  1  0
  4 30  1  0
  5 31  1  0
  8 32  1  0
 12 33  1  0
 13 34  1  0
 15 35  1  0
 16 36  1  0
 17 37  1  0
 19 38  1  0
 20 39  1  0
 22 40  1  0
 22 41  1  0
 24 42  1  0
 25 43  1  0
 26 44  1  0
 28 45  1  0
 29 46  1  0
M  END
>  <smiles>  (45) 
O=c1c2ccc(Cl)cc2nc(/C=C/c2cccc(O)c2)n1Cc1cccc(O)c1

>  <score_type>  (45) 
oracle

>  <origin>  (45) 
autodockgpu

>  <m_score__min__energy>  (45) 
-9.1099999999999994

>  <m_primary>  (45) 
energy

>  <rmsd>  (45) 
4.541545740719926

>  <m_score__min__rmsd>  (45) 
4.541545740719926

>  <meeko>  (45) 
{"free_energy": -6.36, "intermolecular_energy": -8.45, "internal_energy": -2.47, "cluster_size": 8, "cluster_id": 6, "rank_in_cluster": 1}

>  <energy>  (45) 
-6.3

>  <cluster_rmsd>  (45) 
0.0

>  <cluster>  (45) 
7

$$$$

     RDKit          3D

 46 49  0  0  0  0  0  0  0  0999 V2000
  140.6330   75.1630  221.9920 O   0  0  0  0  0  0  0  0  0  0  0  0
  141.4550   75.4800  221.0920 C   0  0  0  0  0  0  0  0  0  0  0  0
  142.3130   74.4940  220.6710 C   0  0  0  0  0  0  0  0  0  0  0  0
  142.2650   73.2300  221.2110 C   0  0  0  0  0  0  0  0  0  0  0  0
  143.1690   72.3070  220.7200 C   0  0  0  0  0  0  0  0  0  0  0  0
  144.0730   72.6520  219.7300 C   0  0  0  0  0  0  0  0  0  0  0  0
  145.2060   71.4660  219.1270 Cl  0  0  0  0  0  0  0  0  0  0  0  0
  144.1190   73.9320  219.1860 C   0  0  0  0  0  0  0  0  0  0  0  0
  143.2100   74.8330  219.6910 C   0  0  0  0  0  0  0  0  0  0  0  0
  143.1980   76.0610  219.2190 N   0  0  0  0  0  0  0  0  0  0  0  0
  142.3560   77.0700  219.6170 C   0  0  0  0  0  0  0  0  0  0  0  0
  142.5750   78.3300  218.9810 C   0  0  0  0  0  0  0  0  0  0  0  0
  141.8070   79.1090  218.2840 C   0  0  0  0  0  0  0  0  0  0  0  0
  141.9260   80.5690  218.2180 C   0  0  0  0  0  0  0  0  0  0  0  0
  142.9400   81.1480  217.4620 C   0  0  0  0  0  0  0  0  0  0  0  0
  143.1120   82.5090  217.3540 C   0  0  0  0  0  0  0  0  0  0  0  0
  142.2650   83.3740  218.0080 C   0  0  0  0  0  0  0  0  0  0  0  0
  141.2550   82.8210  218.7630 C   0  0  0  0  0  0  0  0  0  0  0  0
  140.3760   83.6840  219.4410 O   0  0  0  0  0  0  0  0  0  0  0  0
  141.0820   81.4350  218.8700 C   0  0  0  0  0  0  0  0  0  0  0  0
  141.4790   76.7550  220.5690 N   0  0  0  0  0  0  0  0  0  0  0  0
  140.4830   77.6400  221.0990 C   0  0  0  0  0  0  0  0  0  0  0  0
  141.0190   78.7380  221.9350 C   0  0  0  0  0  0  0  0  0  0  0  0
  141.7840   78.5960  223.0630 C   0  0  0  0  0  0  0  0  0  0  0  0
  142.2440   79.6750  223.8120 C   0  0  0  0  0  0  0  0  0  0  0  0
  141.9440   80.9520  223.4480 C   0  0  0  0  0  0  0  0  0  0  0  0
  141.1790   81.1410  222.3240 C   0  0  0  0  0  0  0  0  0  0  0  0
  140.8580   82.4410  221.9300 O   0  0  0  0  0  0  0  0  0  0  0  0
  140.7300   80.0730  221.5910 C   0  0  0  0  0  0  0  0  0  0  0  0
  141.5414   72.9662  221.9964 H   0  0  0  0  0  0  0  0  0  0  0  0
  143.1702   71.2830  221.1219 H   0  0  0  0  0  0  0  0  0  0  0  0
  144.8381   74.2067  218.4003 H   0  0  0  0  0  0  0  0  0  0  0  0
  143.5972   78.7162  219.1073 H   0  0  0  0  0  0  0  0  0  0  0  0
  141.0046   78.6381  217.6972 H   0  0  0  0  0  0  0  0  0  0  0  0
  143.6368   80.4872  216.9256 H   0  0  0  0  0  0  0  0  0  0  0  0
  143.9328   82.9085  216.7402 H   0  0  0  0  0  0  0  0  0  0  0  0
  142.3898   84.4642  217.9307 H   0  0  0  0  0  0  0  0  0  0  0  0
  139.8800   83.3650  220.2520 H   0  0  0  0  0  0  0  0  0  0  0  0
  140.2608   81.0354  219.4832 H   0  0  0  0  0  0  0  0  0  0  0  0
  139.9361   78.0862  220.2554 H   0  0  0  0  0  0  0  0  0  0  0  0
  139.8418   77.0324  221.7545 H   0  0  0  0  0  0  0  0  0  0  0  0
  142.0472   77.5800  223.3924 H   0  0  0  0  0  0  0  0  0  0  0  0
  142.8565   79.4941  224.7076 H   0  0  0  0  0  0  0  0  0  0  0  0
  142.3043   81.8079  224.0377 H   0  0  0  0  0  0  0  0  0  0  0  0
  141.3880   82.8480  221.1520 H   0  0  0  0  0  0  0  0  0  0  0  0
  140.1187   80.2666  220.6972 H   0  0  0  0  0  0  0  0  0  0  0  0
  1  2  2  0
  2  3  1  0
  3  4  2  0
  4  5  1  0
  5  6  2  0
  6  7  1  0
  6  8  1  0
  8  9  2  0
  9 10  1  0
 10 11  2  0
 11 12  1  0
 12 13  2  0
 13 14  1  0
 14 15  2  0
 15 16  1  0
 16 17  2  0
 17 18  1  0
 18 19  1  0
 18 20  2  0
 11 21  1  0
 21 22  1  0
 22 23  1  0
 23 24  2  0
 24 25  1  0
 25 26  2  0
 26 27  1  0
 27 28  1  0
 27 29  2  0
 21  2  1  0
 29 23  1  0
  9  3  1  0
 20 14  1  0
  4 30  1  0
  5 31  1  0
  8 32  1  0
 12 33  1  0
 13 34  1  0
 15 35  1  0
 16 36  1  0
 17 37  1  0
 19 38  1  0
 20 39  1  0
 22 40  1  0
 22 41  1  0
 24 42  1  0
 25 43  1  0
 26 44  1  0
 28 45  1  0
 29 46  1  0
M  END
>  <smiles>  (46) 
O=c1c2ccc(Cl)cc2nc(/C=C/c2cccc(O)c2)n1Cc1cccc(O)c1

>  <score_type>  (46) 
oracle

>  <origin>  (46) 
autodockgpu

>  <m_score__min__energy>  (46) 
-9.1099999999999994

>  <m_primary>  (46) 
energy

>  <rmsd>  (46) 
4.225682148426033

>  <m_score__min__rmsd>  (46) 
4.225682148426033

>  <meeko>  (46) 
{"free_energy": -6.17, "intermolecular_energy": -8.26, "internal_energy": -2.54, "cluster_size": 8, "cluster_id": 6, "rank_in_cluster": 4}

>  <energy>  (46) 
-6.11

>  <cluster_rmsd>  (46) 
0.37

>  <cluster>  (46) 
7

$$$$

     RDKit          3D

 46 49  0  0  0  0  0  0  0  0999 V2000
  140.3110   74.0170  222.0120 O   0  0  0  0  0  0  0  0  0  0  0  0
  141.1620   74.5510  221.2510 C   0  0  0  0  0  0  0  0  0  0  0  0
  142.1900   73.7480  220.8220 C   0  0  0  0  0  0  0  0  0  0  0  0
  142.2740   72.4310  221.2110 C   0  0  0  0  0  0  0  0  0  0  0  0
  143.3440   71.7040  220.7250 C   0  0  0  0  0  0  0  0  0  0  0  0
  144.2800   72.2870  219.8880 C   0  0  0  0  0  0  0  0  0  0  0  0
  145.6250   71.3460  219.2890 Cl  0  0  0  0  0  0  0  0  0  0  0  0
  144.1920   73.6200  219.4980 C   0  0  0  0  0  0  0  0  0  0  0  0
  143.1190   74.3230  219.9930 C   0  0  0  0  0  0  0  0  0  0  0  0
  142.9750   75.5880  219.6620 N   0  0  0  0  0  0  0  0  0  0  0  0
  141.9610   76.4180  220.0720 C   0  0  0  0  0  0  0  0  0  0  0  0
  142.0560   77.7660  219.6080 C   0  0  0  0  0  0  0  0  0  0  0  0
  141.1630   78.6600  219.3140 C   0  0  0  0  0  0  0  0  0  0  0  0
  140.9130   79.8830  220.0830 C   0  0  0  0  0  0  0  0  0  0  0  0
  141.9820   80.6070  220.6000 C   0  0  0  0  0  0  0  0  0  0  0  0
  141.8230   81.7640  221.3300 C   0  0  0  0  0  0  0  0  0  0  0  0
  140.5650   82.2610  221.5840 C   0  0  0  0  0  0  0  0  0  0  0  0
  139.4920   81.5590  221.0810 C   0  0  0  0  0  0  0  0  0  0  0  0
  138.1970   82.0480  221.3270 O   0  0  0  0  0  0  0  0  0  0  0  0
  139.6590   80.3830  220.3380 C   0  0  0  0  0  0  0  0  0  0  0  0
  141.0510   75.8730  220.8780 N   0  0  0  0  0  0  0  0  0  0  0  0
  139.8910   76.5450  221.3870 C   0  0  0  0  0  0  0  0  0  0  0  0
  140.1850   77.6550  222.3210 C   0  0  0  0  0  0  0  0  0  0  0  0
  141.3850   77.9010  222.9340 C   0  0  0  0  0  0  0  0  0  0  0  0
  141.5890   78.9580  223.8170 C   0  0  0  0  0  0  0  0  0  0  0  0
  140.5760   79.8160  224.1170 C   0  0  0  0  0  0  0  0  0  0  0  0
  139.3550   79.6080  223.5260 C   0  0  0  0  0  0  0  0  0  0  0  0
  138.3010   80.4750  223.8190 O   0  0  0  0  0  0  0  0  0  0  0  0
  139.1630   78.5640  222.6580 C   0  0  0  0  0  0  0  0  0  0  0  0
  141.5250   71.9782  221.8773 H   0  0  0  0  0  0  0  0  0  0  0  0
  143.4536   70.6465  221.0074 H   0  0  0  0  0  0  0  0  0  0  0  0
  144.9362   74.0834  218.8336 H   0  0  0  0  0  0  0  0  0  0  0  0
  143.0906   78.1146  219.4735 H   0  0  0  0  0  0  0  0  0  0  0  0
  140.5464   78.4873  218.4196 H   0  0  0  0  0  0  0  0  0  0  0  0
  143.0021   80.2383  220.4174 H   0  0  0  0  0  0  0  0  0  0  0  0
  142.7075   82.2944  221.7126 H   0  0  0  0  0  0  0  0  0  0  0  0
  140.4220   83.1833  222.1662 H   0  0  0  0  0  0  0  0  0  0  0  0
  137.6230   81.6240  222.0320 H   0  0  0  0  0  0  0  0  0  0  0  0
  138.7748   79.8532  219.9539 H   0  0  0  0  0  0  0  0  0  0  0  0
  139.3287   76.9533  220.5343 H   0  0  0  0  0  0  0  0  0  0  0  0
  139.3221   75.7972  221.9590 H   0  0  0  0  0  0  0  0  0  0  0  0
  142.2295   77.2301  222.7179 H   0  0  0  0  0  0  0  0  0  0  0  0
  142.5782   79.1010  224.2764 H   0  0  0  0  0  0  0  0  0  0  0  0
  140.7316   80.6529  224.8138 H   0  0  0  0  0  0  0  0  0  0  0  0
  138.3320   81.4170  223.4150 H   0  0  0  0  0  0  0  0  0  0  0  0
  138.1691   78.4307  222.2058 H   0  0  0  0  0  0  0  0  0  0  0  0
  1  2  2  0
  2  3  1  0
  3  4  2  0
  4  5  1  0
  5  6  2  0
  6  7  1  0
  6  8  1  0
  8  9  2  0
  9 10  1  0
 10 11  2  0
 11 12  1  0
 12 13  2  0
 13 14  1  0
 14 15  2  0
 15 16  1  0
 16 17  2  0
 17 18  1  0
 18 19  1  0
 18 20  2  0
 11 21  1  0
 21 22  1  0
 22 23  1  0
 23 24  2  0
 24 25  1  0
 25 26  2  0
 26 27  1  0
 27 28  1  0
 27 29  2  0
 21  2  1  0
 29 23  1  0
  9  3  1  0
 20 14  1  0
  4 30  1  0
  5 31  1  0
  8 32  1  0
 12 33  1  0
 13 34  1  0
 15 35  1  0
 16 36  1  0
 17 37  1  0
 19 38  1  0
 20 39  1  0
 22 40  1  0
 22 41  1  0
 24 42  1  0
 25 43  1  0
 26 44  1  0
 28 45  1  0
 29 46  1  0
M  END
>  <smiles>  (47) 
O=c1c2ccc(Cl)cc2nc(/C=C/c2cccc(O)c2)n1Cc1cccc(O)c1

>  <score_type>  (47) 
oracle

>  <origin>  (47) 
autodockgpu

>  <m_score__min__energy>  (47) 
-9.1099999999999994

>  <m_primary>  (47) 
energy

>  <rmsd>  (47) 
4.8813400569225305

>  <m_score__min__rmsd>  (47) 
4.8813400569225305

>  <meeko>  (47) 
{"free_energy": -5.95, "intermolecular_energy": -8.04, "internal_energy": -2.65, "cluster_size": 8, "cluster_id": 6, "rank_in_cluster": 7}

>  <energy>  (47) 
-6.11

>  <cluster_rmsd>  (47) 
1.57

>  <cluster>  (47) 
7

$$$$

     RDKit          3D

 46 49  0  0  0  0  0  0  0  0999 V2000
  142.4940   75.3980  219.4700 O   0  0  0  0  0  0  0  0  0  0  0  0
  141.6630   75.2440  220.4050 C   0  0  0  0  0  0  0  0  0  0  0  0
  141.2070   76.3870  221.0130 C   0  0  0  0  0  0  0  0  0  0  0  0
  141.6420   77.6290  220.6120 C   0  0  0  0  0  0  0  0  0  0  0  0
  141.1230   78.7190  221.2850 C   0  0  0  0  0  0  0  0  0  0  0  0
  140.2090   78.5540  222.3110 C   0  0  0  0  0  0  0  0  0  0  0  0
  139.5690   79.9490  223.1470 Cl  0  0  0  0  0  0  0  0  0  0  0  0
  139.7720   77.2960  222.7150 C   0  0  0  0  0  0  0  0  0  0  0  0
  140.3020   76.2270  222.0300 C   0  0  0  0  0  0  0  0  0  0  0  0
  139.9300   75.0090  222.3600 N   0  0  0  0  0  0  0  0  0  0  0  0
  140.3660   73.8460  221.7750 C   0  0  0  0  0  0  0  0  0  0  0  0
  139.8440   72.6450  222.3470 C   0  0  0  0  0  0  0  0  0  0  0  0
  140.3920   71.5140  222.6670 C   0  0  0  0  0  0  0  0  0  0  0  0
  140.2850   70.8690  223.9800 C   0  0  0  0  0  0  0  0  0  0  0  0
  140.7130   71.5430  225.1190 C   0  0  0  0  0  0  0  0  0  0  0  0
  140.6420   71.0010  226.3820 C   0  0  0  0  0  0  0  0  0  0  0  0
  140.1330   69.7360  226.5730 C   0  0  0  0  0  0  0  0  0  0  0  0
  139.7050   69.0520  225.4570 C   0  0  0  0  0  0  0  0  0  0  0  0
  139.1800   67.7580  225.6250 O   0  0  0  0  0  0  0  0  0  0  0  0
  139.7770   69.6070  224.1730 C   0  0  0  0  0  0  0  0  0  0  0  0
  141.2460   73.9870  220.7840 N   0  0  0  0  0  0  0  0  0  0  0  0
  141.7960   72.9120  220.0100 C   0  0  0  0  0  0  0  0  0  0  0  0
  143.2730   72.8260  220.0410 C   0  0  0  0  0  0  0  0  0  0  0  0
  144.0800   73.1390  221.1040 C   0  0  0  0  0  0  0  0  0  0  0  0
  145.4680   73.0490  221.0600 C   0  0  0  0  0  0  0  0  0  0  0  0
  146.1010   72.6360  219.9280 C   0  0  0  0  0  0  0  0  0  0  0  0
  145.3330   72.3130  218.8380 C   0  0  0  0  0  0  0  0  0  0  0  0
  145.9600   71.8870  217.6660 O   0  0  0  0  0  0  0  0  0  0  0  0
  143.9660   72.4040  218.8890 C   0  0  0  0  0  0  0  0  0  0  0  0
  142.3683   77.7489  219.7946 H   0  0  0  0  0  0  0  0  0  0  0  0
  141.4412   79.7329  221.0008 H   0  0  0  0  0  0  0  0  0  0  0  0
  139.0472   77.1644  223.5319 H   0  0  0  0  0  0  0  0  0  0  0  0
  138.7651   72.6883  222.5572 H   0  0  0  0  0  0  0  0  0  0  0  0
  140.9822   70.9990  221.8947 H   0  0  0  0  0  0  0  0  0  0  0  0
  141.1272   72.5556  225.0050 H   0  0  0  0  0  0  0  0  0  0  0  0
  140.9948   71.5832  227.2460 H   0  0  0  0  0  0  0  0  0  0  0  0
  140.0707   69.2898  227.5765 H   0  0  0  0  0  0  0  0  0  0  0  0
  139.5680   67.1420  226.3160 H   0  0  0  0  0  0  0  0  0  0  0  0
  139.4227   69.0257  223.3090 H   0  0  0  0  0  0  0  0  0  0  0  0
  141.3887   71.9664  220.3973 H   0  0  0  0  0  0  0  0  0  0  0  0
  141.5160   73.1048  218.9639 H   0  0  0  0  0  0  0  0  0  0  0  0
  143.6072   73.4779  222.0376 H   0  0  0  0  0  0  0  0  0  0  0  0
  146.0594   73.3142  221.9488 H   0  0  0  0  0  0  0  0  0  0  0  0
  147.1979   72.5632  219.8882 H   0  0  0  0  0  0  0  0  0  0  0  0
  145.3710   71.4890  216.9280 H   0  0  0  0  0  0  0  0  0  0  0  0
  143.3861   72.1365  217.9934 H   0  0  0  0  0  0  0  0  0  0  0  0
  1  2  2  0
  2  3  1  0
  3  4  2  0
  4  5  1  0
  5  6  2  0
  6  7  1  0
  6  8  1  0
  8  9  2  0
  9 10  1  0
 10 11  2  0
 11 12  1  0
 12 13  2  0
 13 14  1  0
 14 15  2  0
 15 16  1  0
 16 17  2  0
 17 18  1  0
 18 19  1  0
 18 20  2  0
 11 21  1  0
 21 22  1  0
 22 23  1  0
 23 24  2  0
 24 25  1  0
 25 26  2  0
 26 27  1  0
 27 28  1  0
 27 29  2  0
 21  2  1  0
 29 23  1  0
  9  3  1  0
 20 14  1  0
  4 30  1  0
  5 31  1  0
  8 32  1  0
 12 33  1  0
 13 34  1  0
 15 35  1  0
 16 36  1  0
 17 37  1  0
 19 38  1  0
 20 39  1  0
 22 40  1  0
 22 41  1  0
 24 42  1  0
 25 43  1  0
 26 44  1  0
 28 45  1  0
 29 46  1  0
M  END
>  <smiles>  (48) 
O=c1c2ccc(Cl)cc2nc(/C=C/c2cccc(O)c2)n1Cc1cccc(O)c1

>  <score_type>  (48) 
oracle

>  <origin>  (48) 
autodockgpu

>  <m_score__min__energy>  (48) 
-9.1099999999999994

>  <m_primary>  (48) 
energy

>  <rmsd>  (48) 
7.818483157239099

>  <m_score__min__rmsd>  (48) 
7.818483157239099

>  <meeko>  (48) 
{"free_energy": -7.9, "intermolecular_energy": -9.99, "internal_energy": -0.91, "cluster_size": 16, "cluster_id": 1, "rank_in_cluster": 16}

>  <energy>  (48) 
-6.06

>  <cluster_rmsd>  (48) 
1.86

>  <cluster>  (48) 
7

$$$$

     RDKit          3D

 46 49  0  0  0  0  0  0  0  0999 V2000
  142.9210   74.7800  220.6360 O   0  0  0  0  0  0  0  0  0  0  0  0
  141.8440   74.4380  221.1930 C   0  0  0  0  0  0  0  0  0  0  0  0
  140.9270   75.4340  221.4190 C   0  0  0  0  0  0  0  0  0  0  0  0
  141.1830   76.7350  221.0490 C   0  0  0  0  0  0  0  0  0  0  0  0
  140.1970   77.6650  221.3170 C   0  0  0  0  0  0  0  0  0  0  0  0
  139.0120   77.2910  221.9280 C   0  0  0  0  0  0  0  0  0  0  0  0
  137.7820   78.4880  222.2560 Cl  0  0  0  0  0  0  0  0  0  0  0  0
  138.7570   75.9760  222.3010 C   0  0  0  0  0  0  0  0  0  0  0  0
  139.7530   75.0680  222.0250 C   0  0  0  0  0  0  0  0  0  0  0  0
  139.5760   73.8050  222.3500 N   0  0  0  0  0  0  0  0  0  0  0  0
  140.4700   72.7850  222.1400 C   0  0  0  0  0  0  0  0  0  0  0  0
  140.0590   71.5070  222.6280 C   0  0  0  0  0  0  0  0  0  0  0  0
  139.2830   71.1460  223.6030 C   0  0  0  0  0  0  0  0  0  0  0  0
  139.6990   70.3380  224.7530 C   0  0  0  0  0  0  0  0  0  0  0  0
  140.6140   70.8520  225.6670 C   0  0  0  0  0  0  0  0  0  0  0  0
  141.0480   70.1510  226.7690 C   0  0  0  0  0  0  0  0  0  0  0  0
  140.5840   68.8790  227.0160 C   0  0  0  0  0  0  0  0  0  0  0  0
  139.6780   68.3520  226.1220 C   0  0  0  0  0  0  0  0  0  0  0  0
  139.1890   67.0540  226.3530 O   0  0  0  0  0  0  0  0  0  0  0  0
  139.2370   69.0680  225.0030 C   0  0  0  0  0  0  0  0  0  0  0  0
  141.6160   73.1270  221.5520 N   0  0  0  0  0  0  0  0  0  0  0  0
  142.6670   72.2170  221.2010 C   0  0  0  0  0  0  0  0  0  0  0  0
  143.1330   72.3270  219.8000 C   0  0  0  0  0  0  0  0  0  0  0  0
  142.3810   72.1050  218.6770 C   0  0  0  0  0  0  0  0  0  0  0  0
  142.8890   72.2120  217.3860 C   0  0  0  0  0  0  0  0  0  0  0  0
  144.1900   72.5520  217.1780 C   0  0  0  0  0  0  0  0  0  0  0  0
  144.9820   72.7840  218.2750 C   0  0  0  0  0  0  0  0  0  0  0  0
  146.3200   73.1340  218.0870 O   0  0  0  0  0  0  0  0  0  0  0  0
  144.4740   72.6760  219.5440 C   0  0  0  0  0  0  0  0  0  0  0  0
  142.1276   77.0206  220.5631 H   0  0  0  0  0  0  0  0  0  0  0  0
  140.3557   78.7179  221.0410 H   0  0  0  0  0  0  0  0  0  0  0  0
  137.8159   75.6796  222.7873 H   0  0  0  0  0  0  0  0  0  0  0  0
  140.4844   70.6623  222.0663 H   0  0  0  0  0  0  0  0  0  0  0  0
  138.2329   71.4711  223.5636 H   0  0  0  0  0  0  0  0  0  0  0  0
  141.0085   71.8653  225.5010 H   0  0  0  0  0  0  0  0  0  0  0  0
  141.7716   70.6111  227.4580 H   0  0  0  0  0  0  0  0  0  0  0  0
  140.9229   68.3063  227.8919 H   0  0  0  0  0  0  0  0  0  0  0  0
  139.4400   66.5610  227.1900 H   0  0  0  0  0  0  0  0  0  0  0  0
  138.5118   68.6086  224.3153 H   0  0  0  0  0  0  0  0  0  0  0  0
  143.5235   72.4094  221.8639 H   0  0  0  0  0  0  0  0  0  0  0  0
  142.2539   71.2038  221.3143 H   0  0  0  0  0  0  0  0  0  0  0  0
  141.3236   71.8286  218.8018 H   0  0  0  0  0  0  0  0  0  0  0  0
  142.2322   72.0198  216.5248 H   0  0  0  0  0  0  0  0  0  0  0  0
  144.5958   72.6386  216.1592 H   0  0  0  0  0  0  0  0  0  0  0  0
  146.5780   74.1180  218.2110 H   0  0  0  0  0  0  0  0  0  0  0  0
  145.1407   72.8698  220.3972 H   0  0  0  0  0  0  0  0  0  0  0  0
  1  2  2  0
  2  3  1  0
  3  4  2  0
  4  5  1  0
  5  6  2  0
  6  7  1  0
  6  8  1  0
  8  9  2  0
  9 10  1  0
 10 11  2  0
 11 12  1  0
 12 13  2  0
 13 14  1  0
 14 15  2  0
 15 16  1  0
 16 17  2  0
 17 18  1  0
 18 19  1  0
 18 20  2  0
 11 21  1  0
 21 22  1  0
 22 23  1  0
 23 24  2  0
 24 25  1  0
 25 26  2  0
 26 27  1  0
 27 28  1  0
 27 29  2  0
 21  2  1  0
 29 23  1  0
  9  3  1  0
 20 14  1  0
  4 30  1  0
  5 31  1  0
  8 32  1  0
 12 33  1  0
 13 34  1  0
 15 35  1  0
 16 36  1  0
 17 37  1  0
 19 38  1  0
 20 39  1  0
 22 40  1  0
 22 41  1  0
 24 42  1  0
 25 43  1  0
 26 44  1  0
 28 45  1  0
 29 46  1  0
M  END
>  <smiles>  (49) 
O=c1c2ccc(Cl)cc2nc(/C=C/c2cccc(O)c2)n1Cc1cccc(O)c1

>  <score_type>  (49) 
oracle

>  <origin>  (49) 
autodockgpu

>  <m_score__min__energy>  (49) 
-9.1099999999999994

>  <m_primary>  (49) 
energy

>  <rmsd>  (49) 
7.836511460802362

>  <m_score__min__rmsd>  (49) 
7.836511460802362

>  <meeko>  (49) 
{"free_energy": -8.37, "intermolecular_energy": -10.45, "internal_energy": -0.66, "cluster_size": 16, "cluster_id": 1, "rank_in_cluster": 5}

>  <energy>  (49) 
-6.03

>  <cluster_rmsd>  (49) 
0.0

>  <cluster>  (49) 
8

$$$$

     RDKit          3D

 46 49  0  0  0  0  0  0  0  0999 V2000
  140.9450   75.2790  221.7550 O   0  0  0  0  0  0  0  0  0  0  0  0
  141.3580   76.2610  221.0820 C   0  0  0  0  0  0  0  0  0  0  0  0
  141.4190   77.4680  221.7330 C   0  0  0  0  0  0  0  0  0  0  0  0
  141.0450   77.5860  223.0510 C   0  0  0  0  0  0  0  0  0  0  0  0
  141.1440   78.8420  223.6180 C   0  0  0  0  0  0  0  0  0  0  0  0
  141.5990   79.9220  222.8810 C   0  0  0  0  0  0  0  0  0  0  0  0
  141.7120   81.5020  223.6210 Cl  0  0  0  0  0  0  0  0  0  0  0  0
  141.9750   79.8000  221.5470 C   0  0  0  0  0  0  0  0  0  0  0  0
  141.8690   78.5400  221.0050 C   0  0  0  0  0  0  0  0  0  0  0  0
  142.2100   78.3540  219.7480 N   0  0  0  0  0  0  0  0  0  0  0  0
  142.1620   77.1620  219.0680 C   0  0  0  0  0  0  0  0  0  0  0  0
  142.5440   77.2330  217.6930 C   0  0  0  0  0  0  0  0  0  0  0  0
  142.2770   76.4850  216.6670 C   0  0  0  0  0  0  0  0  0  0  0  0
  143.1550   75.4370  216.1390 C   0  0  0  0  0  0  0  0  0  0  0  0
  142.6280   74.4290  215.3380 C   0  0  0  0  0  0  0  0  0  0  0  0
  143.3930   73.4140  214.8080 C   0  0  0  0  0  0  0  0  0  0  0  0
  144.7440   73.3540  215.0580 C   0  0  0  0  0  0  0  0  0  0  0  0
  145.2860   74.3420  215.8510 C   0  0  0  0  0  0  0  0  0  0  0  0
  146.6660   74.3020  216.1210 O   0  0  0  0  0  0  0  0  0  0  0  0
  144.5050   75.3730  216.3870 C   0  0  0  0  0  0  0  0  0  0  0  0
  141.7270   76.1120  219.7620 N   0  0  0  0  0  0  0  0  0  0  0  0
  141.6370   74.7710  219.2620 C   0  0  0  0  0  0  0  0  0  0  0  0
  142.7390   73.8800  219.6920 C   0  0  0  0  0  0  0  0  0  0  0  0
  142.7030   72.9980  220.7400 C   0  0  0  0  0  0  0  0  0  0  0  0
  143.7840   72.1980  221.1010 C   0  0  0  0  0  0  0  0  0  0  0  0
  144.9550   72.2610  220.4090 C   0  0  0  0  0  0  0  0  0  0  0  0
  145.0360   73.1320  219.3520 C   0  0  0  0  0  0  0  0  0  0  0  0
  146.2270   73.2140  218.6280 O   0  0  0  0  0  0  0  0  0  0  0  0
  143.9660   73.9160  219.0030 C   0  0  0  0  0  0  0  0  0  0  0  0
  140.6840   76.7211  223.6268 H   0  0  0  0  0  0  0  0  0  0  0  0
  140.8572   78.9859  224.6701 H   0  0  0  0  0  0  0  0  0  0  0  0
  142.3351   80.6587  220.9614 H   0  0  0  0  0  0  0  0  0  0  0  0
  143.1918   78.0904  217.4581 H   0  0  0  0  0  0  0  0  0  0  0  0
  141.3180   76.6501  216.1541 H   0  0  0  0  0  0  0  0  0  0  0  0
  141.5504   74.4434  215.1178 H   0  0  0  0  0  0  0  0  0  0  0  0
  142.9197   72.6451  214.1797 H   0  0  0  0  0  0  0  0  0  0  0  0
  145.3673   72.5491  214.6414 H   0  0  0  0  0  0  0  0  0  0  0  0
  147.0100   74.5580  217.0270 H   0  0  0  0  0  0  0  0  0  0  0  0
  144.9784   76.1421  217.0150 H   0  0  0  0  0  0  0  0  0  0  0  0
  140.6883   74.3372  219.6110 H   0  0  0  0  0  0  0  0  0  0  0  0
  141.7006   74.8408  218.1661 H   0  0  0  0  0  0  0  0  0  0  0  0
  141.7747   72.9180  221.3247 H   0  0  0  0  0  0  0  0  0  0  0  0
  143.6911   71.5087  221.9532 H   0  0  0  0  0  0  0  0  0  0  0  0
  145.8121   71.6312  220.6896 H   0  0  0  0  0  0  0  0  0  0  0  0
  146.5330   74.1420  218.3180 H   0  0  0  0  0  0  0  0  0  0  0  0
  144.0711   74.6015  218.1491 H   0  0  0  0  0  0  0  0  0  0  0  0
  1  2  2  0
  2  3  1  0
  3  4  2  0
  4  5  1  0
  5  6  2  0
  6  7  1  0
  6  8  1  0
  8  9  2  0
  9 10  1  0
 10 11  2  0
 11 12  1  0
 12 13  2  0
 13 14  1  0
 14 15  2  0
 15 16  1  0
 16 17  2  0
 17 18  1  0
 18 19  1  0
 18 20  2  0
 11 21  1  0
 21 22  1  0
 22 23  1  0
 23 24  2  0
 24 25  1  0
 25 26  2  0
 26 27  1  0
 27 28  1  0
 27 29  2  0
 21  2  1  0
 29 23  1  0
  9  3  1  0
 20 14  1  0
  4 30  1  0
  5 31  1  0
  8 32  1  0
 12 33  1  0
 13 34  1  0
 15 35  1  0
 16 36  1  0
 17 37  1  0
 19 38  1  0
 20 39  1  0
 22 40  1  0
 22 41  1  0
 24 42  1  0
 25 43  1  0
 26 44  1  0
 28 45  1  0
 29 46  1  0
M  END
>  <smiles>  (50) 
O=c1c2ccc(Cl)cc2nc(/C=C/c2cccc(O)c2)n1Cc1cccc(O)c1

>  <score_type>  (50) 
oracle

>  <origin>  (50) 
autodockgpu

>  <m_score__min__energy>  (50) 
-9.1099999999999994

>  <m_primary>  (50) 
energy

>  <rmsd>  (50) 
7.625355470108997

>  <m_score__min__rmsd>  (50) 
7.625355470108997

>  <meeko>  (50) 
{"free_energy": -6.45, "intermolecular_energy": -8.54, "internal_energy": -2.38, "cluster_size": 5, "cluster_id": 3, "rank_in_cluster": 3}

>  <energy>  (50) 
-5.91

>  <cluster_rmsd>  (50) 
0.0

>  <cluster>  (50) 
9

$$$$
