
     RDKit          3D

 52 55  0  0  0  0  0  0  0  0999 V2000
  141.3960   72.4740  221.7610 O   0  0  0  0  0  0  0  0  0  0  0  0
  140.3850   72.5780  222.5320 C   0  0  0  0  0  0  0  0  0  0  0  0
  139.4210   73.6090  222.3480 N   0  0  0  0  0  0  0  0  0  0  0  0
  139.5390   74.5850  221.2810 C   0  0  0  0  0  0  0  0  0  0  0  0
  140.1900   75.8480  221.8010 C   0  0  0  0  0  0  0  0  0  0  0  0
  141.3720   75.7040  222.1910 O   0  0  0  0  0  0  0  0  0  0  0  0
  139.4530   77.0430  221.8100 N   0  0  0  0  0  0  0  0  0  0  0  0
  137.9660   77.0920  221.8110 C   0  0  0  0  0  0  0  0  0  0  0  0
  137.6530   78.2960  222.7080 C   0  0  0  0  0  0  0  0  0  0  0  0
  139.0270   78.8270  223.0990 C   0  0  2  0  0  0  0  0  0  0  0  0
  139.0500   80.1730  223.3550 O   0  0  0  0  0  0  0  0  0  0  0  0
  139.8070   78.4380  221.8330 C   0  0  1  0  0  0  0  0  0  0  0  0
  141.2280   78.7970  221.9700 C   0  0  0  0  0  0  0  0  0  0  0  0
  141.6470   80.1430  221.5120 C   0  0  0  0  0  0  0  0  0  0  0  0
  142.1800   80.9380  222.6950 C   0  0  0  0  0  0  0  0  0  0  0  0
  142.5630   79.8680  223.6680 C   0  0  0  0  0  0  0  0  0  0  0  0
  141.5780   78.7340  223.4500 C   0  0  0  0  0  0  0  0  0  0  0  0
  140.2090   71.6190  223.6320 C   0  0  0  0  0  0  0  0  0  0  0  0
  139.5380   70.4370  223.4010 C   0  0  0  0  0  0  0  0  0  0  0  0
  139.4010   69.5690  224.4730 C   0  0  0  0  0  0  0  0  0  0  0  0
  139.9120   69.8610  225.7290 C   0  0  0  0  0  0  0  0  0  0  0  0
  139.7800   69.0000  226.7990 C   0  0  0  0  0  0  0  0  0  0  0  0
  140.3050   69.3230  228.0530 C   0  0  0  0  0  0  0  0  0  0  0  0
  140.1600   68.4560  229.0920 F   0  0  0  0  0  0  0  0  0  0  0  0
  140.9740   70.5350  228.2190 C   0  0  0  0  0  0  0  0  0  0  0  0
  141.0910   71.3710  227.1350 C   0  0  0  0  0  0  0  0  0  0  0  0
  140.5720   71.0500  225.9020 C   0  0  0  0  0  0  0  0  0  0  0  0
  140.7090   71.8960  224.8710 N   0  0  0  0  0  0  0  0  0  0  0  0
  138.6150   73.6300  223.0250 H   0  0  0  0  0  0  0  0  0  0  0  0
  140.1538   74.1658  220.4709 H   0  0  0  0  0  0  0  0  0  0  0  0
  138.5351   74.8272  220.9021 H   0  0  0  0  0  0  0  0  0  0  0  0
  137.5762   77.2464  220.7940 H   0  0  0  0  0  0  0  0  0  0  0  0
  137.5049   76.1588  222.1668 H   0  0  0  0  0  0  0  0  0  0  0  0
  137.0814   79.0571  222.1566 H   0  0  0  0  0  0  0  0  0  0  0  0
  137.0375   78.0279  223.5794 H   0  0  0  0  0  0  0  0  0  0  0  0
  139.4253   78.4250  224.0423 H   0  0  0  0  0  0  0  0  0  0  0  0
  139.1730   80.6370  222.4740 H   0  0  0  0  0  0  0  0  0  0  0  0
  139.5826   78.9380  220.8792 H   0  0  0  0  0  0  0  0  0  0  0  0
  141.7477   78.0820  221.3153 H   0  0  0  0  0  0  0  0  0  0  0  0
  142.4361   80.0426  220.7522 H   0  0  0  0  0  0  0  0  0  0  0  0
  140.7836   80.6675  221.0767 H   0  0  0  0  0  0  0  0  0  0  0  0
  143.0530   81.5415  222.4058 H   0  0  0  0  0  0  0  0  0  0  0  0
  141.4517   81.6555  223.1011 H   0  0  0  0  0  0  0  0  0  0  0  0
  143.5901   79.5249  223.4745 H   0  0  0  0  0  0  0  0  0  0  0  0
  142.5323   80.2354  224.7044 H   0  0  0  0  0  0  0  0  0  0  0  0
  142.0404   77.7670  223.6973 H   0  0  0  0  0  0  0  0  0  0  0  0
  140.6885   78.8299  224.0899 H   0  0  0  0  0  0  0  0  0  0  0  0
  139.1292   70.1934  222.4093 H   0  0  0  0  0  0  0  0  0  0  0  0
  138.8697   68.6176  224.3228 H   0  0  0  0  0  0  0  0  0  0  0  0
  139.2531   68.0441  226.6627 H   0  0  0  0  0  0  0  0  0  0  0  0
  141.3980   70.8152  229.1946 H   0  0  0  0  0  0  0  0  0  0  0  0
  141.6173   72.3292  227.2571 H   0  0  0  0  0  0  0  0  0  0  0  0
  1  2  2  0
  2  3  1  0
  3  4  1  0
  4  5  1  0
  5  6  2  0
  5  7  1  0
  7  8  1  0
  8  9  1  0
  9 10  1  0
 10 11  1  0
 10 12  1  0
 12 13  1  0
 13 14  1  0
 14 15  1  0
 15 16  1  0
 16 17  1  0
  2 18  1  0
 18 19  2  0
 19 20  1  0
 20 21  2  0
 21 22  1  0
 22 23  2  0
 23 24  1  0
 23 25  1  0
 25 26  2  0
 26 27  1  0
 27 28  2  0
 12  7  1  0
 17 13  1  0
 28 18  1  0
 27 21  1  0
  3 29  1  0
  4 30  1  0
  4 31  1  0
  8 32  1  0
  8 33  1  0
  9 34  1  0
  9 35  1  0
 10 36  1  1
 11 37  1  0
 12 38  1  6
 13 39  1  0
 14 40  1  0
 14 41  1  0
 15 42  1  0
 15 43  1  0
 16 44  1  0
 16 45  1  0
 17 46  1  0
 17 47  1  0
 19 48  1  0
 20 49  1  0
 22 50  1  0
 25 51  1  0
 26 52  1  0
M  END
>  <smiles>  (1) 
O=C(NCC(=O)N1CC[C@H](O)[C@H]1C1CCCC1)c1ccc2cc(F)ccc2n1

>  <score_type>  (1) 
oracle

>  <origin>  (1) 
autodockgpu

>  <m_score__min__energy>  (1) 
-8.7899999999999991

>  <m_primary>  (1) 
energy

>  <rmsd>  (1) 
3.4723502243818896

>  <m_score__min__rmsd>  (1) 
3.4723502243818896

>  <meeko>  (1) 
{"free_energy": -8.47, "intermolecular_energy": -10.26, "internal_energy": -1.25, "cluster_size": 40, "cluster_id": 1, "rank_in_cluster": 21}

>  <energy>  (1) 
-8.79

>  <cluster_rmsd>  (1) 
0.0

>  <cluster>  (1) 
1

$$$$

     RDKit          3D

 52 55  0  0  0  0  0  0  0  0999 V2000
  141.2450   72.3100  221.5360 O   0  0  0  0  0  0  0  0  0  0  0  0
  140.3430   72.5200  222.4160 C   0  0  0  0  0  0  0  0  0  0  0  0
  139.4770   73.6460  222.3290 N   0  0  0  0  0  0  0  0  0  0  0  0
  139.5740   74.6030  221.2440 C   0  0  0  0  0  0  0  0  0  0  0  0
  139.7460   76.0010  221.7970 C   0  0  0  0  0  0  0  0  0  0  0  0
  138.8670   76.3490  222.6190 O   0  0  0  0  0  0  0  0  0  0  0  0
  140.8330   76.7780  221.3650 N   0  0  0  0  0  0  0  0  0  0  0  0
  141.5900   76.5100  220.1120 C   0  0  0  0  0  0  0  0  0  0  0  0
  141.9230   77.9140  219.5940 C   0  0  0  0  0  0  0  0  0  0  0  0
  141.3350   78.8430  220.6500 C   0  0  2  0  0  0  0  0  0  0  0  0
  141.9890   80.0410  220.7620 O   0  0  0  0  0  0  0  0  0  0  0  0
  141.5010   77.9440  221.8840 C   0  0  1  0  0  0  0  0  0  0  0  0
  140.9410   78.5960  223.0790 C   0  0  0  0  0  0  0  0  0  0  0  0
  141.8180   79.5200  223.8350 C   0  0  0  0  0  0  0  0  0  0  0  0
  141.2270   80.9220  223.8000 C   0  0  0  0  0  0  0  0  0  0  0  0
  139.7820   80.6660  223.5090 C   0  0  0  0  0  0  0  0  0  0  0  0
  139.7470   79.4280  222.6320 C   0  0  0  0  0  0  0  0  0  0  0  0
  140.1950   71.5840  223.5390 C   0  0  0  0  0  0  0  0  0  0  0  0
  139.5730   70.3710  223.3350 C   0  0  0  0  0  0  0  0  0  0  0  0
  139.4600   69.5280  224.4300 C   0  0  0  0  0  0  0  0  0  0  0  0
  139.9480   69.8730  225.6820 C   0  0  0  0  0  0  0  0  0  0  0  0
  139.8380   69.0370  226.7730 C   0  0  0  0  0  0  0  0  0  0  0  0
  140.3390   69.4140  228.0230 C   0  0  0  0  0  0  0  0  0  0  0  0
  140.2180   68.5710  229.0840 F   0  0  0  0  0  0  0  0  0  0  0  0
  140.9580   70.6560  228.1610 C   0  0  0  0  0  0  0  0  0  0  0  0
  141.0530   71.4660  227.0560 C   0  0  0  0  0  0  0  0  0  0  0  0
  140.5580   71.0910  225.8280 C   0  0  0  0  0  0  0  0  0  0  0  0
  140.6710   71.9150  224.7750 N   0  0  0  0  0  0  0  0  0  0  0  0
  138.7600   73.7510  223.0920 H   0  0  0  0  0  0  0  0  0  0  0  0
  140.4400   74.3520  220.6139 H   0  0  0  0  0  0  0  0  0  0  0  0
  138.6517   74.5636  220.6459 H   0  0  0  0  0  0  0  0  0  0  0  0
  142.5069   75.9390  220.3200 H   0  0  0  0  0  0  0  0  0  0  0  0
  141.0233   75.9070  219.3873 H   0  0  0  0  0  0  0  0  0  0  0  0
  143.0111   78.0532  219.5123 H   0  0  0  0  0  0  0  0  0  0  0  0
  141.5172   78.1029  218.5892 H   0  0  0  0  0  0  0  0  0  0  0  0
  140.3083   79.1812  220.4464 H   0  0  0  0  0  0  0  0  0  0  0  0
  142.9200   79.8390  221.0760 H   0  0  0  0  0  0  0  0  0  0  0  0
  142.5096   77.7121  222.2568 H   0  0  0  0  0  0  0  0  0  0  0  0
  140.7250   77.7612  223.7620 H   0  0  0  0  0  0  0  0  0  0  0  0
  141.8956   79.1806  224.8785 H   0  0  0  0  0  0  0  0  0  0  0  0
  142.8186   79.5321  223.3783 H   0  0  0  0  0  0  0  0  0  0  0  0
  141.3524   81.4290  224.7681 H   0  0  0  0  0  0  0  0  0  0  0  0
  141.7098   81.5796  223.0621 H   0  0  0  0  0  0  0  0  0  0  0  0
  139.2292   80.4887  224.4433 H   0  0  0  0  0  0  0  0  0  0  0  0
  139.3117   81.5268  223.0112 H   0  0  0  0  0  0  0  0  0  0  0  0
  138.8098   78.8726  222.7841 H   0  0  0  0  0  0  0  0  0  0  0  0
  139.7943   79.6778  221.5618 H   0  0  0  0  0  0  0  0  0  0  0  0
  139.1834   70.0844  222.3470 H   0  0  0  0  0  0  0  0  0  0  0  0
  138.9670   68.5531  224.3017 H   0  0  0  0  0  0  0  0  0  0  0  0
  139.3487   68.0585  226.6583 H   0  0  0  0  0  0  0  0  0  0  0  0
  141.3607   70.9793  229.1322 H   0  0  0  0  0  0  0  0  0  0  0  0
  141.5408   72.4468  227.1559 H   0  0  0  0  0  0  0  0  0  0  0  0
  1  2  2  0
  2  3  1  0
  3  4  1  0
  4  5  1  0
  5  6  2  0
  5  7  1  0
  7  8  1  0
  8  9  1  0
  9 10  1  0
 10 11  1  0
 10 12  1  0
 12 13  1  0
 13 14  1  0
 14 15  1  0
 15 16  1  0
 16 17  1  0
  2 18  1  0
 18 19  2  0
 19 20  1  0
 20 21  2  0
 21 22  1  0
 22 23  2  0
 23 24  1  0
 23 25  1  0
 25 26  2  0
 26 27  1  0
 27 28  2  0
 12  7  1  0
 17 13  1  0
 28 18  1  0
 27 21  1  0
  3 29  1  0
  4 30  1  0
  4 31  1  0
  8 32  1  0
  8 33  1  0
  9 34  1  0
  9 35  1  0
 10 36  1  6
 11 37  1  0
 12 38  1  1
 13 39  1  0
 14 40  1  0
 14 41  1  0
 15 42  1  0
 15 43  1  0
 16 44  1  0
 16 45  1  0
 17 46  1  0
 17 47  1  0
 19 48  1  0
 20 49  1  0
 22 50  1  0
 25 51  1  0
 26 52  1  0
M  END
>  <smiles>  (2) 
O=C(NCC(=O)N1CC[C@H](O)[C@H]1C1CCCC1)c1ccc2cc(F)ccc2n1

>  <score_type>  (2) 
oracle

>  <origin>  (2) 
autodockgpu

>  <m_score__min__energy>  (2) 
-8.7899999999999991

>  <m_primary>  (2) 
energy

>  <rmsd>  (2) 
2.853111567908682

>  <m_score__min__rmsd>  (2) 
2.853111567908682

>  <meeko>  (2) 
{"free_energy": -8.78, "intermolecular_energy": -10.57, "internal_energy": -1.44, "cluster_size": 40, "cluster_id": 1, "rank_in_cluster": 5}

>  <energy>  (2) 
-8.79

>  <cluster_rmsd>  (2) 
0.75

>  <cluster>  (2) 
1

$$$$

     RDKit          3D

 52 55  0  0  0  0  0  0  0  0999 V2000
  141.1300   71.9840  221.2850 O   0  0  0  0  0  0  0  0  0  0  0  0
  140.4030   72.3930  222.2520 C   0  0  0  0  0  0  0  0  0  0  0  0
  139.7980   73.6810  222.2250 N   0  0  0  0  0  0  0  0  0  0  0  0
  139.9750   74.5860  221.1050 C   0  0  0  0  0  0  0  0  0  0  0  0
  140.5040   75.9180  221.5900 C   0  0  0  0  0  0  0  0  0  0  0  0
  139.9870   76.3280  222.6560 O   0  0  0  0  0  0  0  0  0  0  0  0
  141.4940   76.5750  220.8410 N   0  0  0  0  0  0  0  0  0  0  0  0
  142.2790   75.9180  219.7610 C   0  0  0  0  0  0  0  0  0  0  0  0
  142.4470   77.0310  218.7200 C   0  0  0  0  0  0  0  0  0  0  0  0
  141.7520   78.2310  219.3520 C   0  0  2  0  0  0  0  0  0  0  0  0
  142.2620   79.4400  218.9570 O   0  0  0  0  0  0  0  0  0  0  0  0
  142.0190   77.9150  220.8310 C   0  0  1  0  0  0  0  0  0  0  0  0
  141.3850   78.9210  221.6990 C   0  0  0  0  0  0  0  0  0  0  0  0
  141.3820   78.6700  223.1590 C   0  0  0  0  0  0  0  0  0  0  0  0
  142.1760   79.7610  223.8620 C   0  0  0  0  0  0  0  0  0  0  0  0
  142.1430   80.8840  222.8740 C   0  0  0  0  0  0  0  0  0  0  0  0
  142.1310   80.2330  221.5040 C   0  0  0  0  0  0  0  0  0  0  0  0
  140.1860   71.5220  223.4150 C   0  0  0  0  0  0  0  0  0  0  0  0
  139.4950   70.3390  223.2580 C   0  0  0  0  0  0  0  0  0  0  0  0
  139.3190   69.5560  224.3880 C   0  0  0  0  0  0  0  0  0  0  0  0
  139.8110   69.9310  225.6300 C   0  0  0  0  0  0  0  0  0  0  0  0
  139.6390   69.1540  226.7570 C   0  0  0  0  0  0  0  0  0  0  0  0
  140.1450   69.5600  227.9950 C   0  0  0  0  0  0  0  0  0  0  0  0
  139.9620   68.7770  229.0920 F   0  0  0  0  0  0  0  0  0  0  0  0
  140.8350   70.7690  228.0850 C   0  0  0  0  0  0  0  0  0  0  0  0
  140.9920   71.5190  226.9460 C   0  0  0  0  0  0  0  0  0  0  0  0
  140.4900   71.1170  225.7290 C   0  0  0  0  0  0  0  0  0  0  0  0
  140.6660   71.8810  224.6410 N   0  0  0  0  0  0  0  0  0  0  0  0
  139.2140   73.9480  223.0590 H   0  0  0  0  0  0  0  0  0  0  0  0
  140.6902   74.1481  220.3932 H   0  0  0  0  0  0  0  0  0  0  0  0
  139.0041   74.7426  220.6123 H   0  0  0  0  0  0  0  0  0  0  0  0
  143.2558   75.5777  220.1351 H   0  0  0  0  0  0  0  0  0  0  0  0
  141.7875   75.0209  219.3565 H   0  0  0  0  0  0  0  0  0  0  0  0
  143.5116   77.2438  218.5427 H   0  0  0  0  0  0  0  0  0  0  0  0
  142.0245   76.7632  217.7403 H   0  0  0  0  0  0  0  0  0  0  0  0
  140.6933   78.3482  219.0772 H   0  0  0  0  0  0  0  0  0  0  0  0
  143.2590   79.3430  218.9300 H   0  0  0  0  0  0  0  0  0  0  0  0
  143.0471   77.9595  221.2197 H   0  0  0  0  0  0  0  0  0  0  0  0
  140.3290   78.9102  221.3912 H   0  0  0  0  0  0  0  0  0  0  0  0
  140.3463   78.6733  223.5296 H   0  0  0  0  0  0  0  0  0  0  0  0
  141.8413   77.6918  223.3641 H   0  0  0  0  0  0  0  0  0  0  0  0
  141.6973   80.0520  224.8087 H   0  0  0  0  0  0  0  0  0  0  0  0
  143.1955   79.4507  224.1346 H   0  0  0  0  0  0  0  0  0  0  0  0
  141.2376   81.4923  223.0164 H   0  0  0  0  0  0  0  0  0  0  0  0
  143.0072   81.5537  222.9951 H   0  0  0  0  0  0  0  0  0  0  0  0
  141.6074   80.8713  220.7770 H   0  0  0  0  0  0  0  0  0  0  0  0
  143.1466   80.0769  221.1114 H   0  0  0  0  0  0  0  0  0  0  0  0
  139.1007   70.0302  222.2786 H   0  0  0  0  0  0  0  0  0  0  0  0
  138.7714   68.6063  224.2973 H   0  0  0  0  0  0  0  0  0  0  0  0
  139.0955   68.2007  226.6801 H   0  0  0  0  0  0  0  0  0  0  0  0
  141.2438   71.1134  229.0464 H   0  0  0  0  0  0  0  0  0  0  0  0
  141.5369   72.4726  227.0079 H   0  0  0  0  0  0  0  0  0  0  0  0
  1  2  2  0
  2  3  1  0
  3  4  1  0
  4  5  1  0
  5  6  2  0
  5  7  1  0
  7  8  1  0
  8  9  1  0
  9 10  1  0
 10 11  1  0
 10 12  1  0
 12 13  1  0
 13 14  1  0
 14 15  1  0
 15 16  1  0
 16 17  1  0
  2 18  1  0
 18 19  2  0
 19 20  1  0
 20 21  2  0
 21 22  1  0
 22 23  2  0
 23 24  1  0
 23 25  1  0
 25 26  2  0
 26 27  1  0
 27 28  2  0
 12  7  1  0
 17 13  1  0
 28 18  1  0
 27 21  1  0
  3 29  1  0
  4 30  1  0
  4 31  1  0
  8 32  1  0
  8 33  1  0
  9 34  1  0
  9 35  1  0
 10 36  1  1
 11 37  1  0
 12 38  1  6
 13 39  1  0
 14 40  1  0
 14 41  1  0
 15 42  1  0
 15 43  1  0
 16 44  1  0
 16 45  1  0
 17 46  1  0
 17 47  1  0
 19 48  1  0
 20 49  1  0
 22 50  1  0
 25 51  1  0
 26 52  1  0
M  END
>  <smiles>  (3) 
O=C(NCC(=O)N1CC[C@H](O)[C@H]1C1CCCC1)c1ccc2cc(F)ccc2n1

>  <score_type>  (3) 
oracle

>  <origin>  (3) 
autodockgpu

>  <m_score__min__energy>  (3) 
-8.7899999999999991

>  <m_primary>  (3) 
energy

>  <rmsd>  (3) 
2.432223671692685

>  <m_score__min__rmsd>  (3) 
2.432223671692685

>  <meeko>  (3) 
{"free_energy": -8.71, "intermolecular_energy": -10.5, "internal_energy": -1.22, "cluster_size": 40, "cluster_id": 1, "rank_in_cluster": 9}

>  <energy>  (3) 
-8.78

>  <cluster_rmsd>  (3) 
0.04

>  <cluster>  (3) 
1

$$$$

     RDKit          3D

 52 55  0  0  0  0  0  0  0  0999 V2000
  141.0350   71.9080  221.1640 O   0  0  0  0  0  0  0  0  0  0  0  0
  140.4630   72.3830  222.2020 C   0  0  0  0  0  0  0  0  0  0  0  0
  140.0320   73.7380  222.2510 N   0  0  0  0  0  0  0  0  0  0  0  0
  140.2190   74.6410  221.1320 C   0  0  0  0  0  0  0  0  0  0  0  0
  140.3400   76.0660  221.6260 C   0  0  0  0  0  0  0  0  0  0  0  0
  139.6690   76.3210  222.6540 O   0  0  0  0  0  0  0  0  0  0  0  0
  141.1610   76.9650  220.9270 N   0  0  0  0  0  0  0  0  0  0  0  0
  141.5370   76.7940  219.4970 C   0  0  0  0  0  0  0  0  0  0  0  0
  141.5490   78.2300  218.9610 C   0  0  0  0  0  0  0  0  0  0  0  0
  141.2030   79.0780  220.1800 C   0  0  2  0  0  0  0  0  0  0  0  0
  141.7290   80.3430  220.1440 O   0  0  0  0  0  0  0  0  0  0  0  0
  141.8220   78.1960  221.2730 C   0  0  1  0  0  0  0  0  0  0  0  0
  141.5750   78.7720  222.6050 C   0  0  0  0  0  0  0  0  0  0  0  0
  142.5410   79.7730  223.1150 C   0  0  0  0  0  0  0  0  0  0  0  0
  141.8340   81.1060  223.3110 C   0  0  0  0  0  0  0  0  0  0  0  0
  140.3980   80.7040  223.4380 C   0  0  0  0  0  0  0  0  0  0  0  0
  140.2290   79.4800  222.5570 C   0  0  0  0  0  0  0  0  0  0  0  0
  140.2440   71.5160  223.3690 C   0  0  0  0  0  0  0  0  0  0  0  0
  139.5850   70.3160  223.2100 C   0  0  0  0  0  0  0  0  0  0  0  0
  139.4060   69.5390  224.3440 C   0  0  0  0  0  0  0  0  0  0  0  0
  139.8640   69.9370  225.5910 C   0  0  0  0  0  0  0  0  0  0  0  0
  139.6890   69.1660  226.7220 C   0  0  0  0  0  0  0  0  0  0  0  0
  140.1620   69.5940  227.9660 C   0  0  0  0  0  0  0  0  0  0  0  0
  139.9760   68.8160  229.0670 F   0  0  0  0  0  0  0  0  0  0  0  0
  140.8210   70.8200  228.0580 C   0  0  0  0  0  0  0  0  0  0  0  0
  140.9820   71.5640  226.9150 C   0  0  0  0  0  0  0  0  0  0  0  0
  140.5130   71.1390  225.6920 C   0  0  0  0  0  0  0  0  0  0  0  0
  140.6910   71.8980  224.6010 N   0  0  0  0  0  0  0  0  0  0  0  0
  139.5690   74.0560  223.1420 H   0  0  0  0  0  0  0  0  0  0  0  0
  141.1362   74.3646  220.5913 H   0  0  0  0  0  0  0  0  0  0  0  0
  139.3507   74.5660  220.4609 H   0  0  0  0  0  0  0  0  0  0  0  0
  142.5301   76.3302  219.4035 H   0  0  0  0  0  0  0  0  0  0  0  0
  140.8490   76.1351  218.9470 H   0  0  0  0  0  0  0  0  0  0  0  0
  142.5427   78.4937  218.5698 H   0  0  0  0  0  0  0  0  0  0  0  0
  140.8467   78.3781  218.1274 H   0  0  0  0  0  0  0  0  0  0  0  0
  140.1318   79.2975  220.3000 H   0  0  0  0  0  0  0  0  0  0  0  0
  140.9770   80.9670  219.9170 H   0  0  0  0  0  0  0  0  0  0  0  0
  142.9146   78.0786  221.3235 H   0  0  0  0  0  0  0  0  0  0  0  0
  141.6495   77.9108  223.2853 H   0  0  0  0  0  0  0  0  0  0  0  0
  142.9508   79.4304  224.0766 H   0  0  0  0  0  0  0  0  0  0  0  0
  143.3595   79.8951  222.3904 H   0  0  0  0  0  0  0  0  0  0  0  0
  142.1862   81.6111  224.2225 H   0  0  0  0  0  0  0  0  0  0  0  0
  142.0159   81.8198  222.4940 H   0  0  0  0  0  0  0  0  0  0  0  0
  140.1605   80.4585  224.4836 H   0  0  0  0  0  0  0  0  0  0  0  0
  139.7226   81.5171  223.1334 H   0  0  0  0  0  0  0  0  0  0  0  0
  139.4348   78.8278  222.9493 H   0  0  0  0  0  0  0  0  0  0  0  0
  139.9386   79.7467  221.5301 H   0  0  0  0  0  0  0  0  0  0  0  0
  139.2171   69.9891  222.2262 H   0  0  0  0  0  0  0  0  0  0  0  0
  138.8837   68.5753  224.2517 H   0  0  0  0  0  0  0  0  0  0  0  0
  139.1693   68.1997  226.6435 H   0  0  0  0  0  0  0  0  0  0  0  0
  141.2029   71.1825  229.0238 H   0  0  0  0  0  0  0  0  0  0  0  0
  141.5026   72.5310  226.9784 H   0  0  0  0  0  0  0  0  0  0  0  0
  1  2  2  0
  2  3  1  0
  3  4  1  0
  4  5  1  0
  5  6  2  0
  5  7  1  0
  7  8  1  0
  8  9  1  0
  9 10  1  0
 10 11  1  0
 10 12  1  0
 12 13  1  0
 13 14  1  0
 14 15  1  0
 15 16  1  0
 16 17  1  0
  2 18  1  0
 18 19  2  0
 19 20  1  0
 20 21  2  0
 21 22  1  0
 22 23  2  0
 23 24  1  0
 23 25  1  0
 25 26  2  0
 26 27  1  0
 27 28  2  0
 12  7  1  0
 17 13  1  0
 28 18  1  0
 27 21  1  0
  3 29  1  0
  4 30  1  0
  4 31  1  0
  8 32  1  0
  8 33  1  0
  9 34  1  0
  9 35  1  0
 10 36  1  1
 11 37  1  0
 12 38  1  6
 13 39  1  0
 14 40  1  0
 14 41  1  0
 15 42  1  0
 15 43  1  0
 16 44  1  0
 16 45  1  0
 17 46  1  0
 17 47  1  0
 19 48  1  0
 20 49  1  0
 22 50  1  0
 25 51  1  0
 26 52  1  0
M  END
>  <smiles>  (4) 
O=C(NCC(=O)N1CC[C@H](O)[C@H]1C1CCCC1)c1ccc2cc(F)ccc2n1

>  <score_type>  (4) 
oracle

>  <origin>  (4) 
autodockgpu

>  <m_score__min__energy>  (4) 
-8.7899999999999991

>  <m_primary>  (4) 
energy

>  <rmsd>  (4) 
2.770448052463162

>  <m_score__min__rmsd>  (4) 
2.770448052463162

>  <meeko>  (4) 
{"free_energy": -8.28, "intermolecular_energy": -10.07, "internal_energy": -1.75, "cluster_size": 40, "cluster_id": 1, "rank_in_cluster": 33}

>  <energy>  (4) 
-8.78

>  <cluster_rmsd>  (4) 
0.06

>  <cluster>  (4) 
1

$$$$

     RDKit          3D

 52 55  0  0  0  0  0  0  0  0999 V2000
  140.9880   71.9130  221.1980 O   0  0  0  0  0  0  0  0  0  0  0  0
  140.4280   72.3840  222.2440 C   0  0  0  0  0  0  0  0  0  0  0  0
  140.0090   73.7430  222.3070 N   0  0  0  0  0  0  0  0  0  0  0  0
  140.1950   74.6530  221.1930 C   0  0  0  0  0  0  0  0  0  0  0  0
  140.3170   76.0740  221.6970 C   0  0  0  0  0  0  0  0  0  0  0  0
  139.6480   76.3230  222.7270 O   0  0  0  0  0  0  0  0  0  0  0  0
  141.1370   76.9780  221.0020 N   0  0  0  0  0  0  0  0  0  0  0  0
  141.4970   76.8250  219.5660 C   0  0  0  0  0  0  0  0  0  0  0  0
  141.5140   78.2690  219.0510 C   0  0  0  0  0  0  0  0  0  0  0  0
  141.1870   79.1010  220.2850 C   0  0  2  0  0  0  0  0  0  0  0  0
  141.7220   80.3620  220.2620 O   0  0  0  0  0  0  0  0  0  0  0  0
  141.8120   78.1980  221.3590 C   0  0  1  0  0  0  0  0  0  0  0  0
  141.5830   78.7570  222.7020 C   0  0  0  0  0  0  0  0  0  0  0  0
  142.5550   79.7520  223.2110 C   0  0  0  0  0  0  0  0  0  0  0  0
  141.8500   81.0820  223.4340 C   0  0  0  0  0  0  0  0  0  0  0  0
  140.4160   80.6770  223.5760 C   0  0  0  0  0  0  0  0  0  0  0  0
  140.2360   79.4650  222.6820 C   0  0  0  0  0  0  0  0  0  0  0  0
  140.2120   71.5110  223.4060 C   0  0  0  0  0  0  0  0  0  0  0  0
  139.5560   70.3090  223.2400 C   0  0  0  0  0  0  0  0  0  0  0  0
  139.3780   69.5260  224.3700 C   0  0  0  0  0  0  0  0  0  0  0  0
  139.8350   69.9180  225.6190 C   0  0  0  0  0  0  0  0  0  0  0  0
  139.6620   69.1400  226.7460 C   0  0  0  0  0  0  0  0  0  0  0  0
  140.1340   69.5630  227.9920 C   0  0  0  0  0  0  0  0  0  0  0  0
  139.9490   68.7780  229.0880 F   0  0  0  0  0  0  0  0  0  0  0  0
  140.7890   70.7900  228.0910 C   0  0  0  0  0  0  0  0  0  0  0  0
  140.9480   71.5410  226.9520 C   0  0  0  0  0  0  0  0  0  0  0  0
  140.4810   71.1210  225.7270 C   0  0  0  0  0  0  0  0  0  0  0  0
  140.6570   71.8870  224.6400 N   0  0  0  0  0  0  0  0  0  0  0  0
  139.5550   74.0570  223.2040 H   0  0  0  0  0  0  0  0  0  0  0  0
  141.1114   74.3799  220.6493 H   0  0  0  0  0  0  0  0  0  0  0  0
  139.3264   74.5825  220.5218 H   0  0  0  0  0  0  0  0  0  0  0  0
  142.4856   76.3555  219.4554 H   0  0  0  0  0  0  0  0  0  0  0  0
  140.7987   76.1791  219.0136 H   0  0  0  0  0  0  0  0  0  0  0  0
  142.5056   78.5313  218.6535 H   0  0  0  0  0  0  0  0  0  0  0  0
  140.8042   78.4344  218.2271 H   0  0  0  0  0  0  0  0  0  0  0  0
  140.1188   79.3263  220.4195 H   0  0  0  0  0  0  0  0  0  0  0  0
  140.9630   81.0060  220.3840 H   0  0  0  0  0  0  0  0  0  0  0  0
  142.9040   78.0711  221.3963 H   0  0  0  0  0  0  0  0  0  0  0  0
  141.6673   77.8871  223.3699 H   0  0  0  0  0  0  0  0  0  0  0  0
  142.9784   79.3975  224.1623 H   0  0  0  0  0  0  0  0  0  0  0  0
  143.3631   79.8841  222.4764 H   0  0  0  0  0  0  0  0  0  0  0  0
  142.2146   81.5756  224.3469 H   0  0  0  0  0  0  0  0  0  0  0  0
  142.0200   81.8064  222.6238 H   0  0  0  0  0  0  0  0  0  0  0  0
  140.1934   80.4177  224.6216 H   0  0  0  0  0  0  0  0  0  0  0  0
  139.7357   81.4933  223.2916 H   0  0  0  0  0  0  0  0  0  0  0  0
  139.4476   78.8072  223.0767 H   0  0  0  0  0  0  0  0  0  0  0  0
  139.9316   79.7451  221.6627 H   0  0  0  0  0  0  0  0  0  0  0  0
  139.1902   69.9859  222.2542 H   0  0  0  0  0  0  0  0  0  0  0  0
  138.8571   68.5621  224.2726 H   0  0  0  0  0  0  0  0  0  0  0  0
  139.1450   68.1727  226.6624 H   0  0  0  0  0  0  0  0  0  0  0  0
  141.1696   71.1482  229.0589 H   0  0  0  0  0  0  0  0  0  0  0  0
  141.4652   72.5094  227.0209 H   0  0  0  0  0  0  0  0  0  0  0  0
  1  2  2  0
  2  3  1  0
  3  4  1  0
  4  5  1  0
  5  6  2  0
  5  7  1  0
  7  8  1  0
  8  9  1  0
  9 10  1  0
 10 11  1  0
 10 12  1  0
 12 13  1  0
 13 14  1  0
 14 15  1  0
 15 16  1  0
 16 17  1  0
  2 18  1  0
 18 19  2  0
 19 20  1  0
 20 21  2  0
 21 22  1  0
 22 23  2  0
 23 24  1  0
 23 25  1  0
 25 26  2  0
 26 27  1  0
 27 28  2  0
 12  7  1  0
 17 13  1  0
 28 18  1  0
 27 21  1  0
  3 29  1  0
  4 30  1  0
  4 31  1  0
  8 32  1  0
  8 33  1  0
  9 34  1  0
  9 35  1  0
 10 36  1  1
 11 37  1  0
 12 38  1  6
 13 39  1  0
 14 40  1  0
 14 41  1  0
 15 42  1  0
 15 43  1  0
 16 44  1  0
 16 45  1  0
 17 46  1  0
 17 47  1  0
 19 48  1  0
 20 49  1  0
 22 50  1  0
 25 51  1  0
 26 52  1  0
M  END
>  <smiles>  (5) 
O=C(NCC(=O)N1CC[C@H](O)[C@H]1C1CCCC1)c1ccc2cc(F)ccc2n1

>  <score_type>  (5) 
oracle

>  <origin>  (5) 
autodockgpu

>  <m_score__min__energy>  (5) 
-8.7899999999999991

>  <m_primary>  (5) 
energy

>  <rmsd>  (5) 
2.812768731301806

>  <m_score__min__rmsd>  (5) 
2.812768731301806

>  <meeko>  (5) 
{"free_energy": -8.27, "intermolecular_energy": -10.06, "internal_energy": -1.75, "cluster_size": 40, "cluster_id": 1, "rank_in_cluster": 34}

>  <energy>  (5) 
-8.78

>  <cluster_rmsd>  (5) 
0.34

>  <cluster>  (5) 
1

$$$$

     RDKit          3D

 52 55  0  0  0  0  0  0  0  0999 V2000
  140.9600   71.9270  221.1970 O   0  0  0  0  0  0  0  0  0  0  0  0
  140.3240   72.3530  222.2190 C   0  0  0  0  0  0  0  0  0  0  0  0
  139.7780   73.6670  222.2520 N   0  0  0  0  0  0  0  0  0  0  0  0
  139.9170   74.5810  221.1350 C   0  0  0  0  0  0  0  0  0  0  0  0
  140.4610   75.9090  221.6130 C   0  0  0  0  0  0  0  0  0  0  0  0
  139.9490   76.3310  222.6770 O   0  0  0  0  0  0  0  0  0  0  0  0
  141.4590   76.5500  220.8610 N   0  0  0  0  0  0  0  0  0  0  0  0
  142.2440   75.8750  219.7920 C   0  0  0  0  0  0  0  0  0  0  0  0
  142.4250   76.9750  218.7400 C   0  0  0  0  0  0  0  0  0  0  0  0
  141.7370   78.1870  219.3560 C   0  0  2  0  0  0  0  0  0  0  0  0
  142.2580   79.3880  218.9500 O   0  0  0  0  0  0  0  0  0  0  0  0
  141.9960   77.8850  220.8390 C   0  0  1  0  0  0  0  0  0  0  0  0
  141.3650   78.9060  221.6930 C   0  0  0  0  0  0  0  0  0  0  0  0
  141.3510   78.6700  223.1560 C   0  0  0  0  0  0  0  0  0  0  0  0
  142.1520   79.7600  223.8530 C   0  0  0  0  0  0  0  0  0  0  0  0
  142.1360   80.8730  222.8540 C   0  0  0  0  0  0  0  0  0  0  0  0
  142.1260   80.2090  221.4900 C   0  0  0  0  0  0  0  0  0  0  0  0
  140.1500   71.4730  223.3830 C   0  0  0  0  0  0  0  0  0  0  0  0
  139.5490   70.2420  223.2200 C   0  0  0  0  0  0  0  0  0  0  0  0
  139.4100   69.4530  224.3520 C   0  0  0  0  0  0  0  0  0  0  0  0
  139.8510   69.8680  225.6000 C   0  0  0  0  0  0  0  0  0  0  0  0
  139.7160   69.0860  226.7280 C   0  0  0  0  0  0  0  0  0  0  0  0
  140.1700   69.5320  227.9720 C   0  0  0  0  0  0  0  0  0  0  0  0
  140.0250   68.7420  229.0700 F   0  0  0  0  0  0  0  0  0  0  0  0
  140.7690   70.7880  228.0680 C   0  0  0  0  0  0  0  0  0  0  0  0
  140.8910   71.5430  226.9270 C   0  0  0  0  0  0  0  0  0  0  0  0
  140.4420   71.1000  225.7040 C   0  0  0  0  0  0  0  0  0  0  0  0
  140.5800   71.8710  224.6150 N   0  0  0  0  0  0  0  0  0  0  0  0
  139.2670   73.9450  223.1300 H   0  0  0  0  0  0  0  0  0  0  0  0
  140.6083   74.1496  220.3961 H   0  0  0  0  0  0  0  0  0  0  0  0
  138.9301   74.7409  220.6763 H   0  0  0  0  0  0  0  0  0  0  0  0
  143.2165   75.5315  220.1744 H   0  0  0  0  0  0  0  0  0  0  0  0
  141.7478   74.9771  219.3951 H   0  0  0  0  0  0  0  0  0  0  0  0
  143.4919   77.1775  218.5649 H   0  0  0  0  0  0  0  0  0  0  0  0
  142.0044   76.6999  217.7615 H   0  0  0  0  0  0  0  0  0  0  0  0
  140.6804   78.3094  219.0757 H   0  0  0  0  0  0  0  0  0  0  0  0
  143.2550   79.2860  218.9400 H   0  0  0  0  0  0  0  0  0  0  0  0
  143.0228   77.9251  221.2315 H   0  0  0  0  0  0  0  0  0  0  0  0
  140.3109   78.9020  221.3785 H   0  0  0  0  0  0  0  0  0  0  0  0
  140.3133   78.6876  223.5204 H   0  0  0  0  0  0  0  0  0  0  0  0
  141.7993   77.6893  223.3737 H   0  0  0  0  0  0  0  0  0  0  0  0
  141.6708   80.0651  224.7939 H   0  0  0  0  0  0  0  0  0  0  0  0
  143.1667   79.4422  224.1347 H   0  0  0  0  0  0  0  0  0  0  0  0
  141.2358   81.4914  222.9849 H   0  0  0  0  0  0  0  0  0  0  0  0
  143.0062   81.5352  222.9739 H   0  0  0  0  0  0  0  0  0  0  0  0
  141.6136   80.8456  220.7536 H   0  0  0  0  0  0  0  0  0  0  0  0
  143.1424   80.0388  221.1053 H   0  0  0  0  0  0  0  0  0  0  0  0
  139.1956   69.9013  222.2356 H   0  0  0  0  0  0  0  0  0  0  0  0
  138.9344   68.4657  224.2571 H   0  0  0  0  0  0  0  0  0  0  0  0
  139.2436   68.0959  226.6471 H   0  0  0  0  0  0  0  0  0  0  0  0
  141.1350   71.1649  229.0344 H   0  0  0  0  0  0  0  0  0  0  0  0
  141.3632   72.5343  226.9931 H   0  0  0  0  0  0  0  0  0  0  0  0
  1  2  2  0
  2  3  1  0
  3  4  1  0
  4  5  1  0
  5  6  2  0
  5  7  1  0
  7  8  1  0
  8  9  1  0
  9 10  1  0
 10 11  1  0
 10 12  1  0
 12 13  1  0
 13 14  1  0
 14 15  1  0
 15 16  1  0
 16 17  1  0
  2 18  1  0
 18 19  2  0
 19 20  1  0
 20 21  2  0
 21 22  1  0
 22 23  2  0
 23 24  1  0
 23 25  1  0
 25 26  2  0
 26 27  1  0
 27 28  2  0
 12  7  1  0
 17 13  1  0
 28 18  1  0
 27 21  1  0
  3 29  1  0
  4 30  1  0
  4 31  1  0
  8 32  1  0
  8 33  1  0
  9 34  1  0
  9 35  1  0
 10 36  1  1
 11 37  1  0
 12 38  1  6
 13 39  1  0
 14 40  1  0
 14 41  1  0
 15 42  1  0
 15 43  1  0
 16 44  1  0
 16 45  1  0
 17 46  1  0
 17 47  1  0
 19 48  1  0
 20 49  1  0
 22 50  1  0
 25 51  1  0
 26 52  1  0
M  END
>  <smiles>  (6) 
O=C(NCC(=O)N1CC[C@H](O)[C@H]1C1CCCC1)c1ccc2cc(F)ccc2n1

>  <score_type>  (6) 
oracle

>  <origin>  (6) 
autodockgpu

>  <m_score__min__energy>  (6) 
-8.7899999999999991

>  <m_primary>  (6) 
energy

>  <rmsd>  (6) 
2.3943747297305693

>  <m_score__min__rmsd>  (6) 
2.3943747297305693

>  <meeko>  (6) 
{"free_energy": -8.67, "intermolecular_energy": -10.46, "internal_energy": -1.26, "cluster_size": 40, "cluster_id": 1, "rank_in_cluster": 11}

>  <energy>  (6) 
-8.77

>  <cluster_rmsd>  (6) 
0.34

>  <cluster>  (6) 
1

$$$$

     RDKit          3D

 52 55  0  0  0  0  0  0  0  0999 V2000
  141.3420   72.3340  221.6570 O   0  0  0  0  0  0  0  0  0  0  0  0
  140.3840   72.5060  222.4840 C   0  0  0  0  0  0  0  0  0  0  0  0
  139.4780   73.5940  222.3470 N   0  0  0  0  0  0  0  0  0  0  0  0
  139.5950   74.5560  221.2670 C   0  0  0  0  0  0  0  0  0  0  0  0
  140.2340   75.8300  221.7720 C   0  0  0  0  0  0  0  0  0  0  0  0
  141.4240   75.7060  222.1450 O   0  0  0  0  0  0  0  0  0  0  0  0
  139.4780   77.0140  221.7880 N   0  0  0  0  0  0  0  0  0  0  0  0
  137.9910   77.0400  221.7790 C   0  0  0  0  0  0  0  0  0  0  0  0
  137.6530   78.2290  222.6860 C   0  0  0  0  0  0  0  0  0  0  0  0
  139.0160   78.7780  223.0920 C   0  0  2  0  0  0  0  0  0  0  0  0
  139.0160   80.1210  223.3620 O   0  0  0  0  0  0  0  0  0  0  0  0
  139.8100   78.4140  221.8280 C   0  0  1  0  0  0  0  0  0  0  0  0
  141.2240   78.7940  221.9780 C   0  0  0  0  0  0  0  0  0  0  0  0
  141.6210   80.1590  221.5600 C   0  0  0  0  0  0  0  0  0  0  0  0
  142.1370   80.9290  222.7670 C   0  0  0  0  0  0  0  0  0  0  0  0
  142.5370   79.8380  223.7100 C   0  0  0  0  0  0  0  0  0  0  0  0
  141.5730   78.6950  223.4560 C   0  0  0  0  0  0  0  0  0  0  0  0
  140.2130   71.5640  223.6000 C   0  0  0  0  0  0  0  0  0  0  0  0
  139.5620   70.3680  223.3850 C   0  0  0  0  0  0  0  0  0  0  0  0
  139.4290   69.5190  224.4730 C   0  0  0  0  0  0  0  0  0  0  0  0
  139.9230   69.8420  225.7280 C   0  0  0  0  0  0  0  0  0  0  0  0
  139.7930   68.9990  226.8120 C   0  0  0  0  0  0  0  0  0  0  0  0
  140.3010   69.3540  228.0650 C   0  0  0  0  0  0  0  0  0  0  0  0
  140.1590   68.5050  229.1190 F   0  0  0  0  0  0  0  0  0  0  0  0
  140.9490   70.5800  228.2140 C   0  0  0  0  0  0  0  0  0  0  0  0
  141.0640   71.3970  227.1160 C   0  0  0  0  0  0  0  0  0  0  0  0
  140.5610   71.0440  225.8850 C   0  0  0  0  0  0  0  0  0  0  0  0
  140.6960   71.8730  224.8390 N   0  0  0  0  0  0  0  0  0  0  0  0
  138.7150   73.6690  223.0690 H   0  0  0  0  0  0  0  0  0  0  0  0
  140.2170   74.1298  220.4661 H   0  0  0  0  0  0  0  0  0  0  0  0
  138.5914   74.7859  220.8797 H   0  0  0  0  0  0  0  0  0  0  0  0
  137.6059   77.1991  220.7610 H   0  0  0  0  0  0  0  0  0  0  0  0
  137.5421   76.0961  222.1218 H   0  0  0  0  0  0  0  0  0  0  0  0
  137.0730   78.9866  222.1386 H   0  0  0  0  0  0  0  0  0  0  0  0
  137.0362   77.9419  223.5504 H   0  0  0  0  0  0  0  0  0  0  0  0
  139.4145   78.3731  224.0340 H   0  0  0  0  0  0  0  0  0  0  0  0
  138.9550   80.5980  222.4810 H   0  0  0  0  0  0  0  0  0  0  0  0
  139.5840   78.9200  220.8778 H   0  0  0  0  0  0  0  0  0  0  0  0
  141.7563   78.1071  221.3036 H   0  0  0  0  0  0  0  0  0  0  0  0
  142.4138   80.0938  220.8003 H   0  0  0  0  0  0  0  0  0  0  0  0
  140.7500   80.6809  221.1370 H   0  0  0  0  0  0  0  0  0  0  0  0
  142.9997   81.5561  222.4977 H   0  0  0  0  0  0  0  0  0  0  0  0
  141.3951   81.6213  223.1916 H   0  0  0  0  0  0  0  0  0  0  0  0
  143.5704   79.5187  223.5095 H   0  0  0  0  0  0  0  0  0  0  0  0
  142.4980   80.1743  224.7566 H   0  0  0  0  0  0  0  0  0  0  0  0
  142.0518   77.7295  223.6762 H   0  0  0  0  0  0  0  0  0  0  0  0
  140.6806   78.7577  224.0960 H   0  0  0  0  0  0  0  0  0  0  0  0
  139.1658   70.0993  222.3946 H   0  0  0  0  0  0  0  0  0  0  0  0
  138.9142   68.5566  224.3362 H   0  0  0  0  0  0  0  0  0  0  0  0
  139.2819   68.0328  226.6886 H   0  0  0  0  0  0  0  0  0  0  0  0
  141.3584   70.8855  229.1882 H   0  0  0  0  0  0  0  0  0  0  0  0
  141.5749   72.3651  227.2243 H   0  0  0  0  0  0  0  0  0  0  0  0
  1  2  2  0
  2  3  1  0
  3  4  1  0
  4  5  1  0
  5  6  2  0
  5  7  1  0
  7  8  1  0
  8  9  1  0
  9 10  1  0
 10 11  1  0
 10 12  1  0
 12 13  1  0
 13 14  1  0
 14 15  1  0
 15 16  1  0
 16 17  1  0
  2 18  1  0
 18 19  2  0
 19 20  1  0
 20 21  2  0
 21 22  1  0
 22 23  2  0
 23 24  1  0
 23 25  1  0
 25 26  2  0
 26 27  1  0
 27 28  2  0
 12  7  1  0
 17 13  1  0
 28 18  1  0
 27 21  1  0
  3 29  1  0
  4 30  1  0
  4 31  1  0
  8 32  1  0
  8 33  1  0
  9 34  1  0
  9 35  1  0
 10 36  1  1
 11 37  1  0
 12 38  1  6
 13 39  1  0
 14 40  1  0
 14 41  1  0
 15 42  1  0
 15 43  1  0
 16 44  1  0
 16 45  1  0
 17 46  1  0
 17 47  1  0
 19 48  1  0
 20 49  1  0
 22 50  1  0
 25 51  1  0
 26 52  1  0
M  END
>  <smiles>  (7) 
O=C(NCC(=O)N1CC[C@H](O)[C@H]1C1CCCC1)c1ccc2cc(F)ccc2n1

>  <score_type>  (7) 
oracle

>  <origin>  (7) 
autodockgpu

>  <m_score__min__energy>  (7) 
-8.7899999999999991

>  <m_primary>  (7) 
energy

>  <rmsd>  (7) 
3.455069325679542

>  <m_score__min__rmsd>  (7) 
3.455069325679542

>  <meeko>  (7) 
{"free_energy": -8.48, "intermolecular_energy": -10.27, "internal_energy": -1.26, "cluster_size": 40, "cluster_id": 1, "rank_in_cluster": 20}

>  <energy>  (7) 
-8.74

>  <cluster_rmsd>  (7) 
0.08

>  <cluster>  (7) 
1

$$$$

     RDKit          3D

 52 55  0  0  0  0  0  0  0  0999 V2000
  139.6330   70.6260  221.0520 O   0  0  0  0  0  0  0  0  0  0  0  0
  139.5290   71.2330  222.1710 C   0  0  0  0  0  0  0  0  0  0  0  0
  139.3660   72.6450  222.2300 N   0  0  0  0  0  0  0  0  0  0  0  0
  139.3090   73.4590  221.0310 C   0  0  0  0  0  0  0  0  0  0  0  0
  140.0670   74.7510  221.2420 C   0  0  0  0  0  0  0  0  0  0  0  0
  139.9320   75.2560  222.3820 O   0  0  0  0  0  0  0  0  0  0  0  0
  140.8360   75.2730  220.1900 N   0  0  0  0  0  0  0  0  0  0  0  0
  140.3190   76.2630  219.2070 C   0  0  0  0  0  0  0  0  0  0  0  0
  141.5300   77.1670  218.9460 C   0  0  0  0  0  0  0  0  0  0  0  0
  142.6320   76.5570  219.8040 C   0  0  2  0  0  0  0  0  0  0  0  0
  143.8950   76.7620  219.3130 O   0  0  0  0  0  0  0  0  0  0  0  0
  142.1940   75.0860  219.7520 C   0  0  1  0  0  0  0  0  0  0  0  0
  143.0850   74.2510  220.5750 C   0  0  0  0  0  0  0  0  0  0  0  0
  142.6700   72.8540  220.8420 C   0  0  0  0  0  0  0  0  0  0  0  0
  143.6870   71.8990  220.2340 C   0  0  0  0  0  0  0  0  0  0  0  0
  144.9140   72.7480  220.1230 C   0  0  0  0  0  0  0  0  0  0  0  0
  144.4220   74.1570  219.8550 C   0  0  0  0  0  0  0  0  0  0  0  0
  139.5790   70.4620  223.4210 C   0  0  0  0  0  0  0  0  0  0  0  0
  139.0980   69.1700  223.4420 C   0  0  0  0  0  0  0  0  0  0  0  0
  139.1700   68.4900  224.6480 C   0  0  0  0  0  0  0  0  0  0  0  0
  139.7000   69.0680  225.7920 C   0  0  0  0  0  0  0  0  0  0  0  0
  139.7740   68.3940  226.9940 C   0  0  0  0  0  0  0  0  0  0  0  0
  140.3130   69.0050  228.1300 C   0  0  0  0  0  0  0  0  0  0  0  0
  140.3740   68.3200  229.3030 F   0  0  0  0  0  0  0  0  0  0  0  0
  140.7820   70.3150  228.0400 C   0  0  0  0  0  0  0  0  0  0  0  0
  140.6970   70.9600  226.8300 C   0  0  0  0  0  0  0  0  0  0  0  0
  140.1640   70.3550  225.7140 C   0  0  0  0  0  0  0  0  0  0  0  0
  140.0990   71.0220  224.5520 N   0  0  0  0  0  0  0  0  0  0  0  0
  139.2880   73.0730  223.1890 H   0  0  0  0  0  0  0  0  0  0  0  0
  139.7597   72.9055  220.1940 H   0  0  0  0  0  0  0  0  0  0  0  0
  138.2581   73.6916  220.8040 H   0  0  0  0  0  0  0  0  0  0  0  0
  139.9919   75.7658  218.2819 H   0  0  0  0  0  0  0  0  0  0  0  0
  139.4410   76.8150  219.5735 H   0  0  0  0  0  0  0  0  0  0  0  0
  141.8082   77.1515  217.8819 H   0  0  0  0  0  0  0  0  0  0  0  0
  141.3343   78.2211  219.1920 H   0  0  0  0  0  0  0  0  0  0  0  0
  142.7235   76.9876  220.8120 H   0  0  0  0  0  0  0  0  0  0  0  0
  144.0580   77.7510  219.3250 H   0  0  0  0  0  0  0  0  0  0  0  0
  142.2505   74.5345  218.8019 H   0  0  0  0  0  0  0  0  0  0  0  0
  143.0924   74.7536  221.5534 H   0  0  0  0  0  0  0  0  0  0  0  0
  142.6152   72.6888  221.9281 H   0  0  0  0  0  0  0  0  0  0  0  0
  141.6820   72.6724  220.3937 H   0  0  0  0  0  0  0  0  0  0  0  0
  143.8614   71.0347  220.8916 H   0  0  0  0  0  0  0  0  0  0  0  0
  143.3638   71.4729  219.2727 H   0  0  0  0  0  0  0  0  0  0  0  0
  145.4881   72.7151  221.0607 H   0  0  0  0  0  0  0  0  0  0  0  0
  145.5792   72.3934  219.3219 H   0  0  0  0  0  0  0  0  0  0  0  0
  145.1302   74.8967  220.2566 H   0  0  0  0  0  0  0  0  0  0  0  0
  144.3271   74.3637  218.7788 H   0  0  0  0  0  0  0  0  0  0  0  0
  138.6758   68.6996  222.5417 H   0  0  0  0  0  0  0  0  0  0  0  0
  138.7942   67.4575  224.6993 H   0  0  0  0  0  0  0  0  0  0  0  0
  139.4033   67.3604  227.0592 H   0  0  0  0  0  0  0  0  0  0  0  0
  141.2104   70.8206  228.9180 H   0  0  0  0  0  0  0  0  0  0  0  0
  141.0667   71.9930  226.7502 H   0  0  0  0  0  0  0  0  0  0  0  0
  1  2  2  0
  2  3  1  0
  3  4  1  0
  4  5  1  0
  5  6  2  0
  5  7  1  0
  7  8  1  0
  8  9  1  0
  9 10  1  0
 10 11  1  0
 10 12  1  0
 12 13  1  0
 13 14  1  0
 14 15  1  0
 15 16  1  0
 16 17  1  0
  2 18  1  0
 18 19  2  0
 19 20  1  0
 20 21  2  0
 21 22  1  0
 22 23  2  0
 23 24  1  0
 23 25  1  0
 25 26  2  0
 26 27  1  0
 27 28  2  0
 12  7  1  0
 17 13  1  0
 28 18  1  0
 27 21  1  0
  3 29  1  0
  4 30  1  0
  4 31  1  0
  8 32  1  0
  8 33  1  0
  9 34  1  0
  9 35  1  0
 10 36  1  1
 11 37  1  0
 12 38  1  6
 13 39  1  0
 14 40  1  0
 14 41  1  0
 15 42  1  0
 15 43  1  0
 16 44  1  0
 16 45  1  0
 17 46  1  0
 17 47  1  0
 19 48  1  0
 20 49  1  0
 22 50  1  0
 25 51  1  0
 26 52  1  0
M  END
>  <smiles>  (8) 
O=C(NCC(=O)N1CC[C@H](O)[C@H]1C1CCCC1)c1ccc2cc(F)ccc2n1

>  <score_type>  (8) 
oracle

>  <origin>  (8) 
autodockgpu

>  <m_score__min__energy>  (8) 
-8.7899999999999991

>  <m_primary>  (8) 
energy

>  <rmsd>  (8) 
1.9500204112440667

>  <m_score__min__rmsd>  (8) 
1.9500204112440667

>  <meeko>  (8) 
{"free_energy": -7.67, "intermolecular_energy": -9.46, "internal_energy": -1.87, "cluster_size": 4, "cluster_id": 3, "rank_in_cluster": 2}

>  <energy>  (8) 
-8.74

>  <cluster_rmsd>  (8) 
0.21

>  <cluster>  (8) 
1

$$$$

     RDKit          3D

 52 55  0  0  0  0  0  0  0  0999 V2000
  137.9860   74.8650  221.5280 O   0  0  0  0  0  0  0  0  0  0  0  0
  139.2290   74.9150  221.8140 C   0  0  0  0  0  0  0  0  0  0  0  0
  139.9460   73.7450  222.1910 N   0  0  0  0  0  0  0  0  0  0  0  0
  139.3040   72.4460  222.2670 C   0  0  0  0  0  0  0  0  0  0  0  0
  139.8490   71.6640  223.4410 C   0  0  0  0  0  0  0  0  0  0  0  0
  140.9860   72.0250  223.8270 O   0  0  0  0  0  0  0  0  0  0  0  0
  139.0750   70.6300  223.9930 N   0  0  0  0  0  0  0  0  0  0  0  0
  137.8240   70.1190  223.3710 C   0  0  0  0  0  0  0  0  0  0  0  0
  137.8740   68.6140  223.6620 C   0  0  0  0  0  0  0  0  0  0  0  0
  139.1600   68.4400  224.4630 C   0  0  2  0  0  0  0  0  0  0  0  0
  139.1320   67.3840  225.3350 O   0  0  0  0  0  0  0  0  0  0  0  0
  139.1950   69.8050  225.1660 C   0  0  1  0  0  0  0  0  0  0  0  0
  140.4080   69.9320  225.9890 C   0  0  0  0  0  0  0  0  0  0  0  0
  140.7610   71.2790  226.4960 C   0  0  0  0  0  0  0  0  0  0  0  0
  140.7210   71.2760  228.0170 C   0  0  0  0  0  0  0  0  0  0  0  0
  140.8890   69.8260  228.3490 C   0  0  0  0  0  0  0  0  0  0  0  0
  140.2210   69.0610  227.2230 C   0  0  0  0  0  0  0  0  0  0  0  0
  139.9350   76.2030  221.7550 C   0  0  0  0  0  0  0  0  0  0  0  0
  140.8750   76.4170  220.7690 C   0  0  0  0  0  0  0  0  0  0  0  0
  141.5100   77.6490  220.7610 C   0  0  0  0  0  0  0  0  0  0  0  0
  141.2240   78.6340  221.6950 C   0  0  0  0  0  0  0  0  0  0  0  0
  141.8540   79.8620  221.6900 C   0  0  0  0  0  0  0  0  0  0  0  0
  141.5450   80.8340  222.6460 C   0  0  0  0  0  0  0  0  0  0  0  0
  142.1800   82.0370  222.6200 F   0  0  0  0  0  0  0  0  0  0  0  0
  140.5830   80.5520  223.6160 C   0  0  0  0  0  0  0  0  0  0  0  0
  139.9730   79.3220  223.5950 C   0  0  0  0  0  0  0  0  0  0  0  0
  140.2810   78.3680  222.6530 C   0  0  0  0  0  0  0  0  0  0  0  0
  139.6610   77.1780  222.6690 N   0  0  0  0  0  0  0  0  0  0  0  0
  140.9680   73.8670  222.4130 H   0  0  0  0  0  0  0  0  0  0  0  0
  138.2199   72.5830  222.3931 H   0  0  0  0  0  0  0  0  0  0  0  0
  139.5061   71.8901  221.3396 H   0  0  0  0  0  0  0  0  0  0  0  0
  136.9380   70.5802  223.8318 H   0  0  0  0  0  0  0  0  0  0  0  0
  137.7528   70.3475  222.2974 H   0  0  0  0  0  0  0  0  0  0  0  0
  136.9999   68.2997  224.2513 H   0  0  0  0  0  0  0  0  0  0  0  0
  137.8571   68.0034  222.7472 H   0  0  0  0  0  0  0  0  0  0  0  0
  140.0481   68.1950  223.8620 H   0  0  0  0  0  0  0  0  0  0  0  0
  139.7620   66.6900  224.9770 H   0  0  0  0  0  0  0  0  0  0  0  0
  138.4339   70.0479  225.9221 H   0  0  0  0  0  0  0  0  0  0  0  0
  141.2222   69.6445  225.3075 H   0  0  0  0  0  0  0  0  0  0  0  0
  141.7730   71.5448  226.1565 H   0  0  0  0  0  0  0  0  0  0  0  0
  140.0397   72.0155  226.1121 H   0  0  0  0  0  0  0  0  0  0  0  0
  141.5418   71.8764  228.4364 H   0  0  0  0  0  0  0  0  0  0  0  0
  139.8003   71.7140  228.4298 H   0  0  0  0  0  0  0  0  0  0  0  0
  141.9568   69.5679  228.4060 H   0  0  0  0  0  0  0  0  0  0  0  0
  140.4425   69.5808  229.3239 H   0  0  0  0  0  0  0  0  0  0  0  0
  140.7026   68.0822  227.0818 H   0  0  0  0  0  0  0  0  0  0  0  0
  139.1593   68.8628  227.4315 H   0  0  0  0  0  0  0  0  0  0  0  0
  141.1104   75.6444  220.0222 H   0  0  0  0  0  0  0  0  0  0  0  0
  142.2659   77.8525  219.9883 H   0  0  0  0  0  0  0  0  0  0  0  0
  142.6109   80.0792  220.9219 H   0  0  0  0  0  0  0  0  0  0  0  0
  140.3191   81.2979  224.3802 H   0  0  0  0  0  0  0  0  0  0  0  0
  139.2132   79.0920  224.3564 H   0  0  0  0  0  0  0  0  0  0  0  0
  1  2  2  0
  2  3  1  0
  3  4  1  0
  4  5  1  0
  5  6  2  0
  5  7  1  0
  7  8  1  0
  8  9  1  0
  9 10  1  0
 10 11  1  0
 10 12  1  0
 12 13  1  0
 13 14  1  0
 14 15  1  0
 15 16  1  0
 16 17  1  0
  2 18  1  0
 18 19  2  0
 19 20  1  0
 20 21  2  0
 21 22  1  0
 22 23  2  0
 23 24  1  0
 23 25  1  0
 25 26  2  0
 26 27  1  0
 27 28  2  0
 12  7  1  0
 17 13  1  0
 28 18  1  0
 27 21  1  0
  3 29  1  0
  4 30  1  0
  4 31  1  0
  8 32  1  0
  8 33  1  0
  9 34  1  0
  9 35  1  0
 10 36  1  6
 11 37  1  0
 12 38  1  1
 13 39  1  0
 14 40  1  0
 14 41  1  0
 15 42  1  0
 15 43  1  0
 16 44  1  0
 16 45  1  0
 17 46  1  0
 17 47  1  0
 19 48  1  0
 20 49  1  0
 22 50  1  0
 25 51  1  0
 26 52  1  0
M  END
>  <smiles>  (9) 
O=C(NCC(=O)N1CC[C@H](O)[C@H]1C1CCCC1)c1ccc2cc(F)ccc2n1

>  <score_type>  (9) 
oracle

>  <origin>  (9) 
autodockgpu

>  <m_score__min__energy>  (9) 
-8.7899999999999991

>  <m_primary>  (9) 
energy

>  <rmsd>  (9) 
8.937512784979608

>  <m_score__min__rmsd>  (9) 
8.937512784979608

>  <meeko>  (9) 
{"free_energy": -7.85, "intermolecular_energy": -9.64, "internal_energy": -1.4, "cluster_size": 1, "cluster_id": 2, "rank_in_cluster": 1}

>  <energy>  (9) 
-8.71

>  <cluster_rmsd>  (9) 
0.75

>  <cluster>  (9) 
1

$$$$

     RDKit          3D

 52 55  0  0  0  0  0  0  0  0999 V2000
  141.1250   71.9260  221.2660 O   0  0  0  0  0  0  0  0  0  0  0  0
  140.4470   72.3710  222.2520 C   0  0  0  0  0  0  0  0  0  0  0  0
  139.9060   73.6880  222.2400 N   0  0  0  0  0  0  0  0  0  0  0  0
  140.0970   74.5820  221.1140 C   0  0  0  0  0  0  0  0  0  0  0  0
  140.5420   75.9440  221.6010 C   0  0  0  0  0  0  0  0  0  0  0  0
  140.0620   76.2860  222.7070 O   0  0  0  0  0  0  0  0  0  0  0  0
  141.4250   76.6980  220.8110 N   0  0  0  0  0  0  0  0  0  0  0  0
  142.1530   76.1460  219.6370 C   0  0  0  0  0  0  0  0  0  0  0  0
  142.1670   77.3170  218.6480 C   0  0  0  0  0  0  0  0  0  0  0  0
  141.4580   78.4380  219.3990 C   0  0  2  0  0  0  0  0  0  0  0  0
  141.8610   79.6950  219.0300 O   0  0  0  0  0  0  0  0  0  0  0  0
  141.8680   78.0670  220.8320 C   0  0  1  0  0  0  0  0  0  0  0  0
  141.2510   78.9870  221.8010 C   0  0  0  0  0  0  0  0  0  0  0  0
  141.4260   78.6910  223.2420 C   0  0  0  0  0  0  0  0  0  0  0  0
  142.2000   79.8220  223.9030 C   0  0  0  0  0  0  0  0  0  0  0  0
  141.9690   80.9690  222.9700 C   0  0  0  0  0  0  0  0  0  0  0  0
  141.8620   80.3630  221.5830 C   0  0  0  0  0  0  0  0  0  0  0  0
  140.2180   71.5110  223.4220 C   0  0  0  0  0  0  0  0  0  0  0  0
  139.5010   70.3420  223.2760 C   0  0  0  0  0  0  0  0  0  0  0  0
  139.3160   69.5700  224.4120 C   0  0  0  0  0  0  0  0  0  0  0  0
  139.8240   69.9420  225.6490 C   0  0  0  0  0  0  0  0  0  0  0  0
  139.6420   69.1750  226.7810 C   0  0  0  0  0  0  0  0  0  0  0  0
  140.1660   69.5770  228.0140 C   0  0  0  0  0  0  0  0  0  0  0  0
  139.9730   68.8040  229.1170 F   0  0  0  0  0  0  0  0  0  0  0  0
  140.8820   70.7720  228.0920 C   0  0  0  0  0  0  0  0  0  0  0  0
  141.0470   71.5120  226.9470 C   0  0  0  0  0  0  0  0  0  0  0  0
  140.5290   71.1130  225.7360 C   0  0  0  0  0  0  0  0  0  0  0  0
  140.7140   71.8670  224.6420 N   0  0  0  0  0  0  0  0  0  0  0  0
  139.3590   73.9820  223.0900 H   0  0  0  0  0  0  0  0  0  0  0  0
  140.8649   74.1659  220.4453 H   0  0  0  0  0  0  0  0  0  0  0  0
  139.1456   74.6866  220.5719 H   0  0  0  0  0  0  0  0  0  0  0  0
  143.1762   75.8498  219.9115 H   0  0  0  0  0  0  0  0  0  0  0  0
  141.6826   75.2408  219.2256 H   0  0  0  0  0  0  0  0  0  0  0  0
  143.1985   77.6052  218.3969 H   0  0  0  0  0  0  0  0  0  0  0  0
  141.6803   77.0718  217.6925 H   0  0  0  0  0  0  0  0  0  0  0  0
  140.3748   78.5012  219.2185 H   0  0  0  0  0  0  0  0  0  0  0  0
  141.0340   80.2590  218.9580 H   0  0  0  0  0  0  0  0  0  0  0  0
  142.9207   78.1567  221.1382 H   0  0  0  0  0  0  0  0  0  0  0  0
  140.1725   78.8956  221.6046 H   0  0  0  0  0  0  0  0  0  0  0  0
  140.4394   78.5946  223.7187 H   0  0  0  0  0  0  0  0  0  0  0  0
  141.9832   77.7496  223.3574 H   0  0  0  0  0  0  0  0  0  0  0  0
  141.8039   80.0405  224.9057 H   0  0  0  0  0  0  0  0  0  0  0  0
  143.2647   79.5912  224.0553 H   0  0  0  0  0  0  0  0  0  0  0  0
  141.0378   81.4930  223.2313 H   0  0  0  0  0  0  0  0  0  0  0  0
  142.7839   81.7057  223.0267 H   0  0  0  0  0  0  0  0  0  0  0  0
  141.2128   80.9772  220.9417 H   0  0  0  0  0  0  0  0  0  0  0  0
  142.8387   80.3066  221.0801 H   0  0  0  0  0  0  0  0  0  0  0  0
  139.0940   70.0359  222.3010 H   0  0  0  0  0  0  0  0  0  0  0  0
  138.7479   68.6316  224.3307 H   0  0  0  0  0  0  0  0  0  0  0  0
  139.0767   68.2338  226.7131 H   0  0  0  0  0  0  0  0  0  0  0  0
  141.3045   71.1135  229.0485 H   0  0  0  0  0  0  0  0  0  0  0  0
  141.6117   72.4545  226.9995 H   0  0  0  0  0  0  0  0  0  0  0  0
  1  2  2  0
  2  3  1  0
  3  4  1  0
  4  5  1  0
  5  6  2  0
  5  7  1  0
  7  8  1  0
  8  9  1  0
  9 10  1  0
 10 11  1  0
 10 12  1  0
 12 13  1  0
 13 14  1  0
 14 15  1  0
 15 16  1  0
 16 17  1  0
  2 18  1  0
 18 19  2  0
 19 20  1  0
 20 21  2  0
 21 22  1  0
 22 23  2  0
 23 24  1  0
 23 25  1  0
 25 26  2  0
 26 27  1  0
 27 28  2  0
 12  7  1  0
 17 13  1  0
 28 18  1  0
 27 21  1  0
  3 29  1  0
  4 30  1  0
  4 31  1  0
  8 32  1  0
  8 33  1  0
  9 34  1  0
  9 35  1  0
 10 36  1  1
 11 37  1  0
 12 38  1  6
 13 39  1  0
 14 40  1  0
 14 41  1  0
 15 42  1  0
 15 43  1  0
 16 44  1  0
 16 45  1  0
 17 46  1  0
 17 47  1  0
 19 48  1  0
 20 49  1  0
 22 50  1  0
 25 51  1  0
 26 52  1  0
M  END
>  <smiles>  (10) 
O=C(NCC(=O)N1CC[C@H](O)[C@H]1C1CCCC1)c1ccc2cc(F)ccc2n1

>  <score_type>  (10) 
oracle

>  <origin>  (10) 
autodockgpu

>  <m_score__min__energy>  (10) 
-8.7899999999999991

>  <m_primary>  (10) 
energy

>  <rmsd>  (10) 
2.4808317709955414

>  <m_score__min__rmsd>  (10) 
2.4808317709955414

>  <meeko>  (10) 
{"free_energy": -8.47, "intermolecular_energy": -10.26, "internal_energy": -1.29, "cluster_size": 40, "cluster_id": 1, "rank_in_cluster": 22}

>  <energy>  (10) 
-8.7

>  <cluster_rmsd>  (10) 
0.57

>  <cluster>  (10) 
1

$$$$

     RDKit          3D

 52 55  0  0  0  0  0  0  0  0999 V2000
  141.2180   79.1740  217.6600 O   0  0  0  0  0  0  0  0  0  0  0  0
  141.9670   78.7080  218.5820 C   0  0  0  0  0  0  0  0  0  0  0  0
  142.1860   79.4290  219.7900 N   0  0  0  0  0  0  0  0  0  0  0  0
  141.5720   80.7210  220.0300 C   0  0  0  0  0  0  0  0  0  0  0  0
  140.2650   80.5460  220.7710 C   0  0  0  0  0  0  0  0  0  0  0  0
  139.6210   81.6060  220.9520 O   0  0  0  0  0  0  0  0  0  0  0  0
  139.8820   79.2610  221.1880 N   0  0  0  0  0  0  0  0  0  0  0  0
  138.9910   78.3710  220.3950 C   0  0  0  0  0  0  0  0  0  0  0  0
  139.5720   76.9750  220.6490 C   0  0  0  0  0  0  0  0  0  0  0  0
  140.7320   77.2290  221.6040 C   0  0  2  0  0  0  0  0  0  0  0  0
  141.0090   76.1760  222.4350 O   0  0  0  0  0  0  0  0  0  0  0  0
  140.1730   78.4540  222.3440 C   0  0  1  0  0  0  0  0  0  0  0  0
  141.1510   78.9590  223.3210 C   0  0  0  0  0  0  0  0  0  0  0  0
  142.5650   79.0650  222.8910 C   0  0  0  0  0  0  0  0  0  0  0  0
  143.0010   80.5220  222.9330 C   0  0  0  0  0  0  0  0  0  0  0  0
  142.0270   81.1310  223.8930 C   0  0  0  0  0  0  0  0  0  0  0  0
  140.7280   80.3690  223.7080 C   0  0  0  0  0  0  0  0  0  0  0  0
  142.6180   77.4030  218.3970 C   0  0  0  0  0  0  0  0  0  0  0  0
  142.7320   76.8750  217.1280 C   0  0  0  0  0  0  0  0  0  0  0  0
  143.3540   75.6410  217.0130 C   0  0  0  0  0  0  0  0  0  0  0  0
  143.8460   74.9550  218.1140 C   0  0  0  0  0  0  0  0  0  0  0  0
  144.4660   73.7280  218.0020 C   0  0  0  0  0  0  0  0  0  0  0  0
  144.9500   73.0610  219.1310 C   0  0  0  0  0  0  0  0  0  0  0  0
  145.5580   71.8510  218.9950 F   0  0  0  0  0  0  0  0  0  0  0  0
  144.8020   73.6510  220.3860 C   0  0  0  0  0  0  0  0  0  0  0  0
  144.1820   74.8740  220.4650 C   0  0  0  0  0  0  0  0  0  0  0  0
  143.7050   75.5270  219.3510 C   0  0  0  0  0  0  0  0  0  0  0  0
  143.1050   76.7200  219.4740 N   0  0  0  0  0  0  0  0  0  0  0  0
  142.8170   78.9790  220.5020 H   0  0  0  0  0  0  0  0  0  0  0  0
  142.2520   81.3405  220.6331 H   0  0  0  0  0  0  0  0  0  0  0  0
  141.3758   81.2111  219.0650 H   0  0  0  0  0  0  0  0  0  0  0  0
  137.9518   78.4360  220.7498 H   0  0  0  0  0  0  0  0  0  0  0  0
  138.9566   78.6358  219.3279 H   0  0  0  0  0  0  0  0  0  0  0  0
  138.8215   76.3169  221.1112 H   0  0  0  0  0  0  0  0  0  0  0  0
  139.8872   76.4718  219.7230 H   0  0  0  0  0  0  0  0  0  0  0  0
  141.7071   77.3750  221.1162 H   0  0  0  0  0  0  0  0  0  0  0  0
  141.9920   75.9940  222.3620 H   0  0  0  0  0  0  0  0  0  0  0  0
  139.2982   78.3413  223.0013 H   0  0  0  0  0  0  0  0  0  0  0  0
  141.1374   78.2075  224.1242 H   0  0  0  0  0  0  0  0  0  0  0  0
  143.1991   78.4731  223.5674 H   0  0  0  0  0  0  0  0  0  0  0  0
  142.6654   78.6821  221.8647 H   0  0  0  0  0  0  0  0  0  0  0  0
  144.0330   80.6165  223.3019 H   0  0  0  0  0  0  0  0  0  0  0  0
  143.0000   81.0060  221.9452 H   0  0  0  0  0  0  0  0  0  0  0  0
  142.3898   81.0234  224.9259 H   0  0  0  0  0  0  0  0  0  0  0  0
  141.8942   82.2067  223.7052 H   0  0  0  0  0  0  0  0  0  0  0  0
  140.1504   80.3563  224.6440 H   0  0  0  0  0  0  0  0  0  0  0  0
  140.0826   80.8308  222.9463 H   0  0  0  0  0  0  0  0  0  0  0  0
  142.3468   77.4088  216.2467 H   0  0  0  0  0  0  0  0  0  0  0  0
  143.4610   75.1908  216.0151 H   0  0  0  0  0  0  0  0  0  0  0  0
  144.5813   73.2676  217.0096 H   0  0  0  0  0  0  0  0  0  0  0  0
  145.1732   73.1486  221.2914 H   0  0  0  0  0  0  0  0  0  0  0  0
  144.0627   75.3472  221.4508 H   0  0  0  0  0  0  0  0  0  0  0  0
  1  2  2  0
  2  3  1  0
  3  4  1  0
  4  5  1  0
  5  6  2  0
  5  7  1  0
  7  8  1  0
  8  9  1  0
  9 10  1  0
 10 11  1  0
 10 12  1  0
 12 13  1  0
 13 14  1  0
 14 15  1  0
 15 16  1  0
 16 17  1  0
  2 18  1  0
 18 19  2  0
 19 20  1  0
 20 21  2  0
 21 22  1  0
 22 23  2  0
 23 24  1  0
 23 25  1  0
 25 26  2  0
 26 27  1  0
 27 28  2  0
 12  7  1  0
 17 13  1  0
 28 18  1  0
 27 21  1  0
  3 29  1  0
  4 30  1  0
  4 31  1  0
  8 32  1  0
  8 33  1  0
  9 34  1  0
  9 35  1  0
 10 36  1  6
 11 37  1  0
 12 38  1  1
 13 39  1  0
 14 40  1  0
 14 41  1  0
 15 42  1  0
 15 43  1  0
 16 44  1  0
 16 45  1  0
 17 46  1  0
 17 47  1  0
 19 48  1  0
 20 49  1  0
 22 50  1  0
 25 51  1  0
 26 52  1  0
M  END
>  <smiles>  (11) 
O=C(NCC(=O)N1CC[C@H](O)[C@H]1C1CCCC1)c1ccc2cc(F)ccc2n1

>  <score_type>  (11) 
oracle

>  <origin>  (11) 
autodockgpu

>  <m_score__min__energy>  (11) 
-8.7899999999999991

>  <m_primary>  (11) 
energy

>  <rmsd>  (11) 
8.117125919423428

>  <m_score__min__rmsd>  (11) 
8.117125919423428

>  <meeko>  (11) 
{"free_energy": -6.61, "intermolecular_energy": -8.4, "internal_energy": -2.55, "cluster_size": 1, "cluster_id": 5, "rank_in_cluster": 1}

>  <energy>  (11) 
-8.67

>  <cluster_rmsd>  (11) 
0.76

>  <cluster>  (11) 
1

$$$$

     RDKit          3D

 52 55  0  0  0  0  0  0  0  0999 V2000
  140.8990   71.9150  221.1700 O   0  0  0  0  0  0  0  0  0  0  0  0
  140.3670   72.3820  222.2320 C   0  0  0  0  0  0  0  0  0  0  0  0
  139.9560   73.7420  222.3130 N   0  0  0  0  0  0  0  0  0  0  0  0
  140.1180   74.6580  221.2000 C   0  0  0  0  0  0  0  0  0  0  0  0
  140.2260   76.0790  221.7060 C   0  0  0  0  0  0  0  0  0  0  0  0
  139.4260   76.3680  222.6280 O   0  0  0  0  0  0  0  0  0  0  0  0
  141.1730   76.9410  221.1300 N   0  0  0  0  0  0  0  0  0  0  0  0
  141.7400   76.7460  219.7680 C   0  0  0  0  0  0  0  0  0  0  0  0
  141.8870   78.1780  219.2390 C   0  0  0  0  0  0  0  0  0  0  0  0
  141.4080   79.0460  220.3970 C   0  0  2  0  0  0  0  0  0  0  0  0
  141.9850   80.2880  220.4360 O   0  0  0  0  0  0  0  0  0  0  0  0
  141.8300   78.1450  221.5670 C   0  0  1  0  0  0  0  0  0  0  0  0
  141.4200   78.7380  222.8510 C   0  0  0  0  0  0  0  0  0  0  0  0
  142.3210   79.7410  223.4660 C   0  0  0  0  0  0  0  0  0  0  0  0
  141.6030   81.0790  223.5570 C   0  0  0  0  0  0  0  0  0  0  0  0
  140.1600   80.6850  223.5070 C   0  0  0  0  0  0  0  0  0  0  0  0
  140.0950   79.4520  222.6260 C   0  0  0  0  0  0  0  0  0  0  0  0
  140.1760   71.5030  223.3940 C   0  0  0  0  0  0  0  0  0  0  0  0
  139.5550   70.2830  223.2280 C   0  0  0  0  0  0  0  0  0  0  0  0
  139.4010   69.4950  224.3580 C   0  0  0  0  0  0  0  0  0  0  0  0
  139.8460   69.9000  225.6080 C   0  0  0  0  0  0  0  0  0  0  0  0
  139.6950   69.1190  226.7350 C   0  0  0  0  0  0  0  0  0  0  0  0
  140.1540   69.5550  227.9810 C   0  0  0  0  0  0  0  0  0  0  0  0
  139.9920   68.7660  229.0770 F   0  0  0  0  0  0  0  0  0  0  0  0
  140.7740   70.8010  228.0790 C   0  0  0  0  0  0  0  0  0  0  0  0
  140.9100   71.5560  226.9400 C   0  0  0  0  0  0  0  0  0  0  0  0
  140.4560   71.1220  225.7160 C   0  0  0  0  0  0  0  0  0  0  0  0
  140.6100   71.8930  224.6280 N   0  0  0  0  0  0  0  0  0  0  0  0
  139.5260   74.0540  223.2230 H   0  0  0  0  0  0  0  0  0  0  0  0
  141.0323   74.3989  220.6460 H   0  0  0  0  0  0  0  0  0  0  0  0
  139.2431   74.5777  220.5382 H   0  0  0  0  0  0  0  0  0  0  0  0
  142.7163   76.2415  219.8161 H   0  0  0  0  0  0  0  0  0  0  0  0
  141.1103   76.1124  219.1261 H   0  0  0  0  0  0  0  0  0  0  0  0
  142.9360   78.3985  218.9921 H   0  0  0  0  0  0  0  0  0  0  0  0
  141.3161   78.3501  218.3146 H   0  0  0  0  0  0  0  0  0  0  0  0
  140.3406   79.3097  220.3646 H   0  0  0  0  0  0  0  0  0  0  0  0
  142.9140   80.1690  220.7950 H   0  0  0  0  0  0  0  0  0  0  0  0
  142.8986   77.9831  221.7717 H   0  0  0  0  0  0  0  0  0  0  0  0
  141.4019   77.8849  223.5451 H   0  0  0  0  0  0  0  0  0  0  0  0
  142.6058   79.4083  224.4751 H   0  0  0  0  0  0  0  0  0  0  0  0
  143.2241   79.8507  222.8477 H   0  0  0  0  0  0  0  0  0  0  0  0
  141.8409   81.5930  224.5000 H   0  0  0  0  0  0  0  0  0  0  0  0
  141.8902   81.7824  222.7615 H   0  0  0  0  0  0  0  0  0  0  0  0
  139.7917   80.4531  224.5172 H   0  0  0  0  0  0  0  0  0  0  0  0
  139.5334   81.4976  223.1106 H   0  0  0  0  0  0  0  0  0  0  0  0
  139.2536   78.8085  222.9227 H   0  0  0  0  0  0  0  0  0  0  0  0
  139.9375   79.7077  221.5678 H   0  0  0  0  0  0  0  0  0  0  0  0
  139.1976   69.9498  222.2425 H   0  0  0  0  0  0  0  0  0  0  0  0
  138.9095   68.5158  224.2603 H   0  0  0  0  0  0  0  0  0  0  0  0
  139.2056   68.1374  226.6517 H   0  0  0  0  0  0  0  0  0  0  0  0
  141.1454   71.1701  229.0464 H   0  0  0  0  0  0  0  0  0  0  0  0
  141.3977   72.5396  227.0085 H   0  0  0  0  0  0  0  0  0  0  0  0
  1  2  2  0
  2  3  1  0
  3  4  1  0
  4  5  1  0
  5  6  2  0
  5  7  1  0
  7  8  1  0
  8  9  1  0
  9 10  1  0
 10 11  1  0
 10 12  1  0
 12 13  1  0
 13 14  1  0
 14 15  1  0
 15 16  1  0
 16 17  1  0
  2 18  1  0
 18 19  2  0
 19 20  1  0
 20 21  2  0
 21 22  1  0
 22 23  2  0
 23 24  1  0
 23 25  1  0
 25 26  2  0
 26 27  1  0
 27 28  2  0
 12  7  1  0
 17 13  1  0
 28 18  1  0
 27 21  1  0
  3 29  1  0
  4 30  1  0
  4 31  1  0
  8 32  1  0
  8 33  1  0
  9 34  1  0
  9 35  1  0
 10 36  1  6
 11 37  1  0
 12 38  1  1
 13 39  1  0
 14 40  1  0
 14 41  1  0
 15 42  1  0
 15 43  1  0
 16 44  1  0
 16 45  1  0
 17 46  1  0
 17 47  1  0
 19 48  1  0
 20 49  1  0
 22 50  1  0
 25 51  1  0
 26 52  1  0
M  END
>  <smiles>  (12) 
O=C(NCC(=O)N1CC[C@H](O)[C@H]1C1CCCC1)c1ccc2cc(F)ccc2n1

>  <score_type>  (12) 
oracle

>  <origin>  (12) 
autodockgpu

>  <m_score__min__energy>  (12) 
-8.7899999999999991

>  <m_primary>  (12) 
energy

>  <rmsd>  (12) 
2.859104144847487

>  <m_score__min__rmsd>  (12) 
2.859104144847487

>  <meeko>  (12) 
{"free_energy": -8.63, "intermolecular_energy": -10.42, "internal_energy": -1.69, "cluster_size": 40, "cluster_id": 1, "rank_in_cluster": 14}

>  <energy>  (12) 
-8.67

>  <cluster_rmsd>  (12) 
0.16

>  <cluster>  (12) 
1

$$$$

     RDKit          3D

 52 55  0  0  0  0  0  0  0  0999 V2000
  141.0510   71.9640  221.1470 O   0  0  0  0  0  0  0  0  0  0  0  0
  140.4410   72.4040  222.1790 C   0  0  0  0  0  0  0  0  0  0  0  0
  139.9710   73.7460  222.2410 N   0  0  0  0  0  0  0  0  0  0  0  0
  140.1600   74.6740  221.1420 C   0  0  0  0  0  0  0  0  0  0  0  0
  140.3620   76.0760  221.6730 C   0  0  0  0  0  0  0  0  0  0  0  0
  139.7170   76.3370  222.7160 O   0  0  0  0  0  0  0  0  0  0  0  0
  141.2210   76.9500  220.9870 N   0  0  0  0  0  0  0  0  0  0  0  0
  141.6350   76.7530  219.5720 C   0  0  0  0  0  0  0  0  0  0  0  0
  141.6920   78.1820  219.0190 C   0  0  0  0  0  0  0  0  0  0  0  0
  141.3270   79.0520  220.2160 C   0  0  2  0  0  0  0  0  0  0  0  0
  141.8800   80.3050  220.1800 O   0  0  0  0  0  0  0  0  0  0  0  0
  141.8970   78.1710  221.3380 C   0  0  1  0  0  0  0  0  0  0  0  0
  141.6220   78.7690  222.6550 C   0  0  0  0  0  0  0  0  0  0  0  0
  142.5760   79.7800  223.1670 C   0  0  0  0  0  0  0  0  0  0  0  0
  141.8630   81.1150  223.3260 C   0  0  0  0  0  0  0  0  0  0  0  0
  140.4250   80.7120  223.4320 C   0  0  0  0  0  0  0  0  0  0  0  0
  140.2760   79.4740  222.5680 C   0  0  0  0  0  0  0  0  0  0  0  0
  140.2200   71.5110  223.3250 C   0  0  0  0  0  0  0  0  0  0  0  0
  139.5420   70.3240  223.1400 C   0  0  0  0  0  0  0  0  0  0  0  0
  139.3610   69.5220  224.2560 C   0  0  0  0  0  0  0  0  0  0  0  0
  139.8360   69.8800  225.5090 C   0  0  0  0  0  0  0  0  0  0  0  0
  139.6590   69.0830  226.6210 C   0  0  0  0  0  0  0  0  0  0  0  0
  140.1480   69.4730  227.8710 C   0  0  0  0  0  0  0  0  0  0  0  0
  139.9600   68.6690  228.9530 F   0  0  0  0  0  0  0  0  0  0  0  0
  140.8260   70.6860  227.9890 C   0  0  0  0  0  0  0  0  0  0  0  0
  140.9870   71.4570  226.8640 C   0  0  0  0  0  0  0  0  0  0  0  0
  140.5030   71.0700  225.6350 C   0  0  0  0  0  0  0  0  0  0  0  0
  140.6830   71.8540  224.5620 N   0  0  0  0  0  0  0  0  0  0  0  0
  139.4790   74.0340  223.1260 H   0  0  0  0  0  0  0  0  0  0  0  0
  141.0446   74.3742  220.5610 H   0  0  0  0  0  0  0  0  0  0  0  0
  139.2669   74.6578  220.5001 H   0  0  0  0  0  0  0  0  0  0  0  0
  142.6207   76.2683  219.5137 H   0  0  0  0  0  0  0  0  0  0  0  0
  140.9503   76.1009  219.0099 H   0  0  0  0  0  0  0  0  0  0  0  0
  142.7021   78.4209  218.6548 H   0  0  0  0  0  0  0  0  0  0  0  0
  141.0180   78.3332  218.1629 H   0  0  0  0  0  0  0  0  0  0  0  0
  140.2574   79.2943  220.3017 H   0  0  0  0  0  0  0  0  0  0  0  0
  142.8570   80.2010  220.3790 H   0  0  0  0  0  0  0  0  0  0  0  0
  142.9849   78.0321  221.4224 H   0  0  0  0  0  0  0  0  0  0  0  0
  141.6836   77.9195  223.3511 H   0  0  0  0  0  0  0  0  0  0  0  0
  142.9669   79.4546  224.1423 H   0  0  0  0  0  0  0  0  0  0  0  0
  143.4088   79.8912  222.4570 H   0  0  0  0  0  0  0  0  0  0  0  0
  142.1965   81.6365  224.2353 H   0  0  0  0  0  0  0  0  0  0  0  0
  142.0596   81.8149  222.5005 H   0  0  0  0  0  0  0  0  0  0  0  0
  140.1678   80.4829  224.4767 H   0  0  0  0  0  0  0  0  0  0  0  0
  139.7539   81.5185  223.1016 H   0  0  0  0  0  0  0  0  0  0  0  0
  139.4748   78.8269  222.9545 H   0  0  0  0  0  0  0  0  0  0  0  0
  140.0064   79.7236  221.5312 H   0  0  0  0  0  0  0  0  0  0  0  0
  139.1621   70.0272  222.1513 H   0  0  0  0  0  0  0  0  0  0  0  0
  138.8224   68.5694  224.1441 H   0  0  0  0  0  0  0  0  0  0  0  0
  139.1251   68.1263  226.5225 H   0  0  0  0  0  0  0  0  0  0  0  0
  141.2224   71.0173  228.9601 H   0  0  0  0  0  0  0  0  0  0  0  0
  141.5203   72.4154  226.9479 H   0  0  0  0  0  0  0  0  0  0  0  0
  1  2  2  0
  2  3  1  0
  3  4  1  0
  4  5  1  0
  5  6  2  0
  5  7  1  0
  7  8  1  0
  8  9  1  0
  9 10  1  0
 10 11  1  0
 10 12  1  0
 12 13  1  0
 13 14  1  0
 14 15  1  0
 15 16  1  0
 16 17  1  0
  2 18  1  0
 18 19  2  0
 19 20  1  0
 20 21  2  0
 21 22  1  0
 22 23  2  0
 23 24  1  0
 23 25  1  0
 25 26  2  0
 26 27  1  0
 27 28  2  0
 12  7  1  0
 17 13  1  0
 28 18  1  0
 27 21  1  0
  3 29  1  0
  4 30  1  0
  4 31  1  0
  8 32  1  0
  8 33  1  0
  9 34  1  0
  9 35  1  0
 10 36  1  1
 11 37  1  0
 12 38  1  6
 13 39  1  0
 14 40  1  0
 14 41  1  0
 15 42  1  0
 15 43  1  0
 16 44  1  0
 16 45  1  0
 17 46  1  0
 17 47  1  0
 19 48  1  0
 20 49  1  0
 22 50  1  0
 25 51  1  0
 26 52  1  0
M  END
>  <smiles>  (13) 
O=C(NCC(=O)N1CC[C@H](O)[C@H]1C1CCCC1)c1ccc2cc(F)ccc2n1

>  <score_type>  (13) 
oracle

>  <origin>  (13) 
autodockgpu

>  <m_score__min__energy>  (13) 
-8.7899999999999991

>  <m_primary>  (13) 
energy

>  <rmsd>  (13) 
2.778036922066929

>  <m_score__min__rmsd>  (13) 
2.778036922066929

>  <meeko>  (13) 
{"free_energy": -8.51, "intermolecular_energy": -10.3, "internal_energy": -1.71, "cluster_size": 40, "cluster_id": 1, "rank_in_cluster": 19}

>  <energy>  (13) 
-8.65

>  <cluster_rmsd>  (13) 
0.16

>  <cluster>  (13) 
1

$$$$

     RDKit          3D

 52 55  0  0  0  0  0  0  0  0999 V2000
  141.3360   72.2190  221.5320 O   0  0  0  0  0  0  0  0  0  0  0  0
  140.4170   72.4640  222.3830 C   0  0  0  0  0  0  0  0  0  0  0  0
  139.5770   73.6050  222.2540 N   0  0  0  0  0  0  0  0  0  0  0  0
  139.7220   74.5410  221.1550 C   0  0  0  0  0  0  0  0  0  0  0  0
  140.3030   75.8450  221.6550 C   0  0  0  0  0  0  0  0  0  0  0  0
  139.7850   76.2760  222.7120 O   0  0  0  0  0  0  0  0  0  0  0  0
  141.3380   76.4560  220.9290 N   0  0  0  0  0  0  0  0  0  0  0  0
  142.1750   75.7390  219.9300 C   0  0  0  0  0  0  0  0  0  0  0  0
  142.4100   76.7950  218.8430 C   0  0  0  0  0  0  0  0  0  0  0  0
  141.6910   78.0300  219.3730 C   0  0  2  0  0  0  0  0  0  0  0  0
  142.2320   79.2140  218.9440 O   0  0  0  0  0  0  0  0  0  0  0  0
  141.8740   77.7910  220.8790 C   0  0  1  0  0  0  0  0  0  0  0  0
  141.2020   78.8440  221.6560 C   0  0  0  0  0  0  0  0  0  0  0  0
  141.0960   78.6600  223.1220 C   0  0  0  0  0  0  0  0  0  0  0  0
  141.8610   79.7690  223.8300 C   0  0  0  0  0  0  0  0  0  0  0  0
  141.9160   80.8460  222.7930 C   0  0  0  0  0  0  0  0  0  0  0  0
  141.9840   80.1340  221.4550 C   0  0  0  0  0  0  0  0  0  0  0  0
  140.2200   71.5520  223.5190 C   0  0  0  0  0  0  0  0  0  0  0  0
  139.5420   70.3660  223.3290 C   0  0  0  0  0  0  0  0  0  0  0  0
  139.3850   69.5450  224.4340 C   0  0  0  0  0  0  0  0  0  0  0  0
  139.8820   69.8850  225.6840 C   0  0  0  0  0  0  0  0  0  0  0  0
  139.7290   69.0690  226.7860 C   0  0  0  0  0  0  0  0  0  0  0  0
  140.2420   69.4400  228.0330 C   0  0  0  0  0  0  0  0  0  0  0  0
  140.0770   68.6190  229.1050 F   0  0  0  0  0  0  0  0  0  0  0  0
  140.9180   70.6540  228.1570 C   0  0  0  0  0  0  0  0  0  0  0  0
  141.0560   71.4430  227.0410 C   0  0  0  0  0  0  0  0  0  0  0  0
  140.5490   71.0750  225.8160 C   0  0  0  0  0  0  0  0  0  0  0  0
  140.7060   71.8770  224.7520 N   0  0  0  0  0  0  0  0  0  0  0  0
  138.8420   73.7390  222.9960 H   0  0  0  0  0  0  0  0  0  0  0  0
  140.3931   74.1108  220.3970 H   0  0  0  0  0  0  0  0  0  0  0  0
  138.7330   74.7336  220.7137 H   0  0  0  0  0  0  0  0  0  0  0  0
  143.1267   75.4129  220.3748 H   0  0  0  0  0  0  0  0  0  0  0  0
  141.6984   74.8250  219.5460 H   0  0  0  0  0  0  0  0  0  0  0  0
  143.4845   76.9923  218.7144 H   0  0  0  0  0  0  0  0  0  0  0  0
  142.0405   76.4788  217.8563 H   0  0  0  0  0  0  0  0  0  0  0  0
  140.6498   78.1378  219.0351 H   0  0  0  0  0  0  0  0  0  0  0  0
  143.2290   79.1100  218.9750 H   0  0  0  0  0  0  0  0  0  0  0  0
  142.8792   77.8504  221.3217 H   0  0  0  0  0  0  0  0  0  0  0  0
  140.1692   78.8352  221.2776 H   0  0  0  0  0  0  0  0  0  0  0  0
  140.0379   78.6964  223.4204 H   0  0  0  0  0  0  0  0  0  0  0  0
  141.5226   77.6851  223.4006 H   0  0  0  0  0  0  0  0  0  0  0  0
  141.3245   80.1100  224.7277 H   0  0  0  0  0  0  0  0  0  0  0  0
  142.8534   79.4555  224.1862 H   0  0  0  0  0  0  0  0  0  0  0  0
  141.0148   81.4745  222.8463 H   0  0  0  0  0  0  0  0  0  0  0  0
  142.7829   81.5062  222.9429 H   0  0  0  0  0  0  0  0  0  0  0  0
  141.5227   80.7471  220.6668 H   0  0  0  0  0  0  0  0  0  0  0  0
  143.0206   79.9443  221.1398 H   0  0  0  0  0  0  0  0  0  0  0  0
  139.1434   70.0842  222.3432 H   0  0  0  0  0  0  0  0  0  0  0  0
  138.8485   68.5919  224.3164 H   0  0  0  0  0  0  0  0  0  0  0  0
  139.1957   68.1126  226.6822 H   0  0  0  0  0  0  0  0  0  0  0  0
  141.3309   70.9720  229.1257 H   0  0  0  0  0  0  0  0  0  0  0  0
  141.5896   72.4008  227.1297 H   0  0  0  0  0  0  0  0  0  0  0  0
  1  2  2  0
  2  3  1  0
  3  4  1  0
  4  5  1  0
  5  6  2  0
  5  7  1  0
  7  8  1  0
  8  9  1  0
  9 10  1  0
 10 11  1  0
 10 12  1  0
 12 13  1  0
 13 14  1  0
 14 15  1  0
 15 16  1  0
 16 17  1  0
  2 18  1  0
 18 19  2  0
 19 20  1  0
 20 21  2  0
 21 22  1  0
 22 23  2  0
 23 24  1  0
 23 25  1  0
 25 26  2  0
 26 27  1  0
 27 28  2  0
 12  7  1  0
 17 13  1  0
 28 18  1  0
 27 21  1  0
  3 29  1  0
  4 30  1  0
  4 31  1  0
  8 32  1  0
  8 33  1  0
  9 34  1  0
  9 35  1  0
 10 36  1  1
 11 37  1  0
 12 38  1  6
 13 39  1  0
 14 40  1  0
 14 41  1  0
 15 42  1  0
 15 43  1  0
 16 44  1  0
 16 45  1  0
 17 46  1  0
 17 47  1  0
 19 48  1  0
 20 49  1  0
 22 50  1  0
 25 51  1  0
 26 52  1  0
M  END
>  <smiles>  (14) 
O=C(NCC(=O)N1CC[C@H](O)[C@H]1C1CCCC1)c1ccc2cc(F)ccc2n1

>  <score_type>  (14) 
oracle

>  <origin>  (14) 
autodockgpu

>  <m_score__min__energy>  (14) 
-8.7899999999999991

>  <m_primary>  (14) 
energy

>  <rmsd>  (14) 
2.367293586128731

>  <m_score__min__rmsd>  (14) 
2.367293586128731

>  <meeko>  (14) 
{"free_energy": -8.79, "intermolecular_energy": -10.57, "internal_energy": -1.13, "cluster_size": 40, "cluster_id": 1, "rank_in_cluster": 2}

>  <energy>  (14) 
-8.63

>  <cluster_rmsd>  (14) 
0.19

>  <cluster>  (14) 
1

$$$$

     RDKit          3D

 52 55  0  0  0  0  0  0  0  0999 V2000
  140.6640   71.7570  221.0880 O   0  0  0  0  0  0  0  0  0  0  0  0
  140.2420   72.2590  222.1830 C   0  0  0  0  0  0  0  0  0  0  0  0
  139.9130   73.6400  222.2830 N   0  0  0  0  0  0  0  0  0  0  0  0
  140.0410   74.5400  221.1520 C   0  0  0  0  0  0  0  0  0  0  0  0
  140.5350   75.8920  221.6170 C   0  0  0  0  0  0  0  0  0  0  0  0
  140.0070   76.3060  222.6750 O   0  0  0  0  0  0  0  0  0  0  0  0
  141.5090   76.5620  220.8590 N   0  0  0  0  0  0  0  0  0  0  0  0
  142.2940   75.9140  219.7730 C   0  0  0  0  0  0  0  0  0  0  0  0
  142.4380   77.0280  218.7290 C   0  0  0  0  0  0  0  0  0  0  0  0
  141.7310   78.2190  219.3660 C   0  0  2  0  0  0  0  0  0  0  0  0
  142.2210   79.4340  218.9650 O   0  0  0  0  0  0  0  0  0  0  0  0
  142.0160   77.9090  220.8430 C   0  0  1  0  0  0  0  0  0  0  0  0
  141.3750   78.9070  221.7140 C   0  0  0  0  0  0  0  0  0  0  0  0
  141.3860   78.6580  223.1750 C   0  0  0  0  0  0  0  0  0  0  0  0
  142.1710   79.7600  223.8710 C   0  0  0  0  0  0  0  0  0  0  0  0
  142.1160   80.8810  222.8820 C   0  0  0  0  0  0  0  0  0  0  0  0
  142.1020   80.2290  221.5130 C   0  0  0  0  0  0  0  0  0  0  0  0
  140.0910   71.3970  223.3640 C   0  0  0  0  0  0  0  0  0  0  0  0
  139.5440   70.1390  223.2220 C   0  0  0  0  0  0  0  0  0  0  0  0
  139.4250   69.3700  224.3690 C   0  0  0  0  0  0  0  0  0  0  0  0
  139.8340   69.8290  225.6120 C   0  0  0  0  0  0  0  0  0  0  0  0
  139.7180   69.0660  226.7560 C   0  0  0  0  0  0  0  0  0  0  0  0
  140.1390   69.5580  227.9950 C   0  0  0  0  0  0  0  0  0  0  0  0
  140.0130   68.7860  229.1080 F   0  0  0  0  0  0  0  0  0  0  0  0
  140.6840   70.8400  228.0690 C   0  0  0  0  0  0  0  0  0  0  0  0
  140.7870   71.5740  226.9140 C   0  0  0  0  0  0  0  0  0  0  0  0
  140.3710   71.0870  225.6960 C   0  0  0  0  0  0  0  0  0  0  0  0
  140.4900   71.8390  224.5920 N   0  0  0  0  0  0  0  0  0  0  0  0
  139.5730   73.9790  223.2200 H   0  0  0  0  0  0  0  0  0  0  0  0
  140.7575   74.1190  220.4313 H   0  0  0  0  0  0  0  0  0  0  0  0
  139.0573   74.6607  220.6747 H   0  0  0  0  0  0  0  0  0  0  0  0
  143.2785   75.5876  220.1393 H   0  0  0  0  0  0  0  0  0  0  0  0
  141.8115   75.0097  219.3738 H   0  0  0  0  0  0  0  0  0  0  0  0
  143.4980   77.2555  218.5428 H   0  0  0  0  0  0  0  0  0  0  0  0
  142.0116   76.7532  217.7529 H   0  0  0  0  0  0  0  0  0  0  0  0
  140.6683   78.3206  219.1009 H   0  0  0  0  0  0  0  0  0  0  0  0
  143.2210   79.3590  218.9520 H   0  0  0  0  0  0  0  0  0  0  0  0
  143.0467   77.9681  221.2228 H   0  0  0  0  0  0  0  0  0  0  0  0
  140.3172   78.8813  221.4132 H   0  0  0  0  0  0  0  0  0  0  0  0
  140.3531   78.6485  223.5532 H   0  0  0  0  0  0  0  0  0  0  0  0
  141.8595   77.6861  223.3779 H   0  0  0  0  0  0  0  0  0  0  0  0
  141.6956   80.0459  224.8209 H   0  0  0  0  0  0  0  0  0  0  0  0
  143.1964   79.4633  224.1365 H   0  0  0  0  0  0  0  0  0  0  0  0
  141.2039   81.4777  223.0307 H   0  0  0  0  0  0  0  0  0  0  0  0
  142.9726   81.5616  222.9958 H   0  0  0  0  0  0  0  0  0  0  0  0
  141.5644   80.8598  220.7898 H   0  0  0  0  0  0  0  0  0  0  0  0
  143.1167   80.0860  221.1129 H   0  0  0  0  0  0  0  0  0  0  0  0
  139.2166   69.7625  222.2417 H   0  0  0  0  0  0  0  0  0  0  0  0
  138.9917   68.3620  224.2907 H   0  0  0  0  0  0  0  0  0  0  0  0
  139.2879   68.0556  226.6920 H   0  0  0  0  0  0  0  0  0  0  0  0
  141.0232   71.2528  229.0305 H   0  0  0  0  0  0  0  0  0  0  0  0
  141.2165   72.5855  226.9635 H   0  0  0  0  0  0  0  0  0  0  0  0
  1  2  2  0
  2  3  1  0
  3  4  1  0
  4  5  1  0
  5  6  2  0
  5  7  1  0
  7  8  1  0
  8  9  1  0
  9 10  1  0
 10 11  1  0
 10 12  1  0
 12 13  1  0
 13 14  1  0
 14 15  1  0
 15 16  1  0
 16 17  1  0
  2 18  1  0
 18 19  2  0
 19 20  1  0
 20 21  2  0
 21 22  1  0
 22 23  2  0
 23 24  1  0
 23 25  1  0
 25 26  2  0
 26 27  1  0
 27 28  2  0
 12  7  1  0
 17 13  1  0
 28 18  1  0
 27 21  1  0
  3 29  1  0
  4 30  1  0
  4 31  1  0
  8 32  1  0
  8 33  1  0
  9 34  1  0
  9 35  1  0
 10 36  1  1
 11 37  1  0
 12 38  1  6
 13 39  1  0
 14 40  1  0
 14 41  1  0
 15 42  1  0
 15 43  1  0
 16 44  1  0
 16 45  1  0
 17 46  1  0
 17 47  1  0
 19 48  1  0
 20 49  1  0
 22 50  1  0
 25 51  1  0
 26 52  1  0
M  END
>  <smiles>  (15) 
O=C(NCC(=O)N1CC[C@H](O)[C@H]1C1CCCC1)c1ccc2cc(F)ccc2n1

>  <score_type>  (15) 
oracle

>  <origin>  (15) 
autodockgpu

>  <m_score__min__energy>  (15) 
-8.7899999999999991

>  <m_primary>  (15) 
energy

>  <rmsd>  (15) 
2.4077391580349694

>  <m_score__min__rmsd>  (15) 
2.4077391580349694

>  <meeko>  (15) 
{"free_energy": -8.55, "intermolecular_energy": -10.34, "internal_energy": -1.39, "cluster_size": 40, "cluster_id": 1, "rank_in_cluster": 18}

>  <energy>  (15) 
-8.62

>  <cluster_rmsd>  (15) 
0.19

>  <cluster>  (15) 
1

$$$$

     RDKit          3D

 52 55  0  0  0  0  0  0  0  0999 V2000
  140.3320   71.7240  221.0340 O   0  0  0  0  0  0  0  0  0  0  0  0
  139.9900   72.2080  222.1640 C   0  0  0  0  0  0  0  0  0  0  0  0
  139.5930   73.5690  222.2940 N   0  0  0  0  0  0  0  0  0  0  0  0
  139.5590   74.4670  221.1550 C   0  0  0  0  0  0  0  0  0  0  0  0
  140.9630   74.8910  220.7840 C   0  0  0  0  0  0  0  0  0  0  0  0
  141.5220   75.6370  221.6210 O   0  0  0  0  0  0  0  0  0  0  0  0
  141.5160   74.4380  219.5750 N   0  0  0  0  0  0  0  0  0  0  0  0
  140.9230   74.7240  218.2410 C   0  0  0  0  0  0  0  0  0  0  0  0
  142.1510   74.9180  217.3430 C   0  0  0  0  0  0  0  0  0  0  0  0
  143.3300   74.6830  218.2810 C   0  0  2  0  0  0  0  0  0  0  0  0
  144.4490   74.2000  217.6550 O   0  0  0  0  0  0  0  0  0  0  0  0
  142.6830   73.6670  219.2340 C   0  0  1  0  0  0  0  0  0  0  0  0
  143.6180   73.2990  220.3100 C   0  0  0  0  0  0  0  0  0  0  0  0
  144.4640   72.1000  220.1100 C   0  0  0  0  0  0  0  0  0  0  0  0
  145.9300   72.5110  220.0960 C   0  0  0  0  0  0  0  0  0  0  0  0
  145.9150   73.8160  220.8270 C   0  0  0  0  0  0  0  0  0  0  0  0
  144.5820   74.4610  220.4990 C   0  0  0  0  0  0  0  0  0  0  0  0
  140.0040   71.3470  223.3560 C   0  0  0  0  0  0  0  0  0  0  0  0
  139.5370   70.0530  223.2640 C   0  0  0  0  0  0  0  0  0  0  0  0
  139.5730   69.2860  224.4180 C   0  0  0  0  0  0  0  0  0  0  0  0
  140.0560   69.7830  225.6200 C   0  0  0  0  0  0  0  0  0  0  0  0
  140.0950   69.0230  226.7710 C   0  0  0  0  0  0  0  0  0  0  0  0
  140.5870   69.5520  227.9670 C   0  0  0  0  0  0  0  0  0  0  0  0
  140.6140   68.7820  229.0890 F   0  0  0  0  0  0  0  0  0  0  0  0
  141.0450   70.8690  227.9910 C   0  0  0  0  0  0  0  0  0  0  0  0
  140.9940   71.6000  226.8300 C   0  0  0  0  0  0  0  0  0  0  0  0
  140.5080   71.0760  225.6540 C   0  0  0  0  0  0  0  0  0  0  0  0
  140.4770   71.8260  224.5430 N   0  0  0  0  0  0  0  0  0  0  0  0
  139.3260   73.8940  223.2590 H   0  0  0  0  0  0  0  0  0  0  0  0
  139.0966   73.9523  220.2998 H   0  0  0  0  0  0  0  0  0  0  0  0
  138.9715   75.3591  221.4178 H   0  0  0  0  0  0  0  0  0  0  0  0
  140.3099   73.8795  217.8931 H   0  0  0  0  0  0  0  0  0  0  0  0
  140.2517   75.5954  218.2463 H   0  0  0  0  0  0  0  0  0  0  0  0
  142.1537   74.1880  216.5201 H   0  0  0  0  0  0  0  0  0  0  0  0
  142.1773   75.9096  216.8677 H   0  0  0  0  0  0  0  0  0  0  0  0
  143.7287   75.5906  218.7577 H   0  0  0  0  0  0  0  0  0  0  0  0
  145.1700   74.8870  217.7710 H   0  0  0  0  0  0  0  0  0  0  0  0
  142.4226   72.6636  218.8661 H   0  0  0  0  0  0  0  0  0  0  0  0
  142.9633   73.0645  221.1623 H   0  0  0  0  0  0  0  0  0  0  0  0
  144.2905   71.3877  220.9301 H   0  0  0  0  0  0  0  0  0  0  0  0
  144.2068   71.6250  219.1518 H   0  0  0  0  0  0  0  0  0  0  0  0
  146.5540   71.7711  220.6187 H   0  0  0  0  0  0  0  0  0  0  0  0
  146.3523   72.5840  219.0829 H   0  0  0  0  0  0  0  0  0  0  0  0
  146.0027   73.6486  221.9106 H   0  0  0  0  0  0  0  0  0  0  0  0
  146.7579   74.4562  220.5277 H   0  0  0  0  0  0  0  0  0  0  0  0
  144.2514   75.1071  221.3256 H   0  0  0  0  0  0  0  0  0  0  0  0
  144.6406   75.0988  219.6047 H   0  0  0  0  0  0  0  0  0  0  0  0
  139.1528   69.6472  222.3165 H   0  0  0  0  0  0  0  0  0  0  0  0
  139.2067   68.2495  224.3796 H   0  0  0  0  0  0  0  0  0  0  0  0
  139.7331   67.9845  226.7466 H   0  0  0  0  0  0  0  0  0  0  0  0
  141.4378   71.3117  228.9182 H   0  0  0  0  0  0  0  0  0  0  0  0
  141.3537   72.6395  226.8401 H   0  0  0  0  0  0  0  0  0  0  0  0
  1  2  2  0
  2  3  1  0
  3  4  1  0
  4  5  1  0
  5  6  2  0
  5  7  1  0
  7  8  1  0
  8  9  1  0
  9 10  1  0
 10 11  1  0
 10 12  1  0
 12 13  1  0
 13 14  1  0
 14 15  1  0
 15 16  1  0
 16 17  1  0
  2 18  1  0
 18 19  2  0
 19 20  1  0
 20 21  2  0
 21 22  1  0
 22 23  2  0
 23 24  1  0
 23 25  1  0
 25 26  2  0
 26 27  1  0
 27 28  2  0
 12  7  1  0
 17 13  1  0
 28 18  1  0
 27 21  1  0
  3 29  1  0
  4 30  1  0
  4 31  1  0
  8 32  1  0
  8 33  1  0
  9 34  1  0
  9 35  1  0
 10 36  1  1
 11 37  1  0
 12 38  1  6
 13 39  1  0
 14 40  1  0
 14 41  1  0
 15 42  1  0
 15 43  1  0
 16 44  1  0
 16 45  1  0
 17 46  1  0
 17 47  1  0
 19 48  1  0
 20 49  1  0
 22 50  1  0
 25 51  1  0
 26 52  1  0
M  END
>  <smiles>  (16) 
O=C(NCC(=O)N1CC[C@H](O)[C@H]1C1CCCC1)c1ccc2cc(F)ccc2n1

>  <score_type>  (16) 
oracle

>  <origin>  (16) 
autodockgpu

>  <m_score__min__energy>  (16) 
-8.7899999999999991

>  <m_primary>  (16) 
energy

>  <rmsd>  (16) 
2.181154135326972

>  <m_score__min__rmsd>  (16) 
2.181154135326972

>  <meeko>  (16) 
{"free_energy": -7.81, "intermolecular_energy": -9.6, "internal_energy": -1.75, "cluster_size": 4, "cluster_id": 3, "rank_in_cluster": 1}

>  <energy>  (16) 
-8.56

>  <cluster_rmsd>  (16) 
0.24

>  <cluster>  (16) 
1

$$$$

     RDKit          3D

 52 55  0  0  0  0  0  0  0  0999 V2000
  138.5080   71.2490  221.4480 O   0  0  0  0  0  0  0  0  0  0  0  0
  139.0770   71.7030  222.4970 C   0  0  0  0  0  0  0  0  0  0  0  0
  139.4670   73.0680  222.5910 N   0  0  0  0  0  0  0  0  0  0  0  0
  139.2400   74.0050  221.5070 C   0  0  0  0  0  0  0  0  0  0  0  0
  139.9750   75.2990  221.7750 C   0  0  0  0  0  0  0  0  0  0  0  0
  141.2050   75.1690  221.9790 O   0  0  0  0  0  0  0  0  0  0  0  0
  139.2570   76.5060  221.7760 N   0  0  0  0  0  0  0  0  0  0  0  0
  137.7720   76.5790  221.8250 C   0  0  0  0  0  0  0  0  0  0  0  0
  137.5080   77.8100  222.7000 C   0  0  0  0  0  0  0  0  0  0  0  0
  138.9020   78.3300  223.0310 C   0  0  2  0  0  0  0  0  0  0  0  0
  138.9540   79.6810  223.2500 O   0  0  0  0  0  0  0  0  0  0  0  0
  139.6330   77.8960  221.7510 C   0  0  1  0  0  0  0  0  0  0  0  0
  141.0630   78.2350  221.8310 C   0  0  0  0  0  0  0  0  0  0  0  0
  141.5000   79.5250  221.2460 C   0  0  0  0  0  0  0  0  0  0  0  0
  142.0700   80.4120  222.3440 C   0  0  0  0  0  0  0  0  0  0  0  0
  142.4500   79.4260  223.4030 C   0  0  0  0  0  0  0  0  0  0  0  0
  141.4390   78.2990  223.3040 C   0  0  0  0  0  0  0  0  0  0  0  0
  139.3340   70.8020  223.6300 C   0  0  0  0  0  0  0  0  0  0  0  0
  138.9670   69.4760  223.5400 C   0  0  0  0  0  0  0  0  0  0  0  0
  139.2330   68.6730  224.6380 C   0  0  0  0  0  0  0  0  0  0  0  0
  139.8420   69.1650  225.7830 C   0  0  0  0  0  0  0  0  0  0  0  0
  140.1100   68.3680  226.8770 C   0  0  0  0  0  0  0  0  0  0  0  0
  140.7230   68.8930  228.0180 C   0  0  0  0  0  0  0  0  0  0  0  0
  140.9760   68.0870  229.0840 F   0  0  0  0  0  0  0  0  0  0  0  0
  141.0690   70.2450  228.0430 C   0  0  0  0  0  0  0  0  0  0  0  0
  140.7910   71.0120  226.9390 C   0  0  0  0  0  0  0  0  0  0  0  0
  140.1860   70.4900  225.8180 C   0  0  0  0  0  0  0  0  0  0  0  0
  139.9320   71.2760  224.7610 N   0  0  0  0  0  0  0  0  0  0  0  0
  139.9310   73.3670  223.4880 H   0  0  0  0  0  0  0  0  0  0  0  0
  139.6049   73.5677  220.5659 H   0  0  0  0  0  0  0  0  0  0  0  0
  138.1625   74.2126  221.4308 H   0  0  0  0  0  0  0  0  0  0  0  0
  137.3507   76.7138  220.8179 H   0  0  0  0  0  0  0  0  0  0  0  0
  137.3088   75.6628  222.2200 H   0  0  0  0  0  0  0  0  0  0  0  0
  136.9292   78.5655  222.1484 H   0  0  0  0  0  0  0  0  0  0  0  0
  136.9190   77.5735  223.5984 H   0  0  0  0  0  0  0  0  0  0  0  0
  139.3253   77.9469  223.9712 H   0  0  0  0  0  0  0  0  0  0  0  0
  138.4480   79.8610  224.0970 H   0  0  0  0  0  0  0  0  0  0  0  0
  139.3843   78.3752  220.7926 H   0  0  0  0  0  0  0  0  0  0  0  0
  141.5560   77.4525  221.2354 H   0  0  0  0  0  0  0  0  0  0  0  0
  142.2731   79.3398  220.4857 H   0  0  0  0  0  0  0  0  0  0  0  0
  140.6395   80.0264  220.7789 H   0  0  0  0  0  0  0  0  0  0  0  0
  142.9491   80.9687  221.9872 H   0  0  0  0  0  0  0  0  0  0  0  0
  141.3633   81.1781  222.6957 H   0  0  0  0  0  0  0  0  0  0  0  0
  143.4663   79.0451  223.2242 H   0  0  0  0  0  0  0  0  0  0  0  0
  142.4462   79.8853  224.4025 H   0  0  0  0  0  0  0  0  0  0  0  0
  141.8864   77.3486  223.6304 H   0  0  0  0  0  0  0  0  0  0  0  0
  140.5632   78.4721  223.9467 H   0  0  0  0  0  0  0  0  0  0  0  0
  138.4846   69.0734  222.6371 H   0  0  0  0  0  0  0  0  0  0  0  0
  138.9518   67.6102  224.6001 H   0  0  0  0  0  0  0  0  0  0  0  0
  139.8369   67.3028  226.8507 H   0  0  0  0  0  0  0  0  0  0  0  0
  141.5532   70.6857  228.9269 H   0  0  0  0  0  0  0  0  0  0  0  0
  141.0604   72.0784  226.9504 H   0  0  0  0  0  0  0  0  0  0  0  0
  1  2  2  0
  2  3  1  0
  3  4  1  0
  4  5  1  0
  5  6  2  0
  5  7  1  0
  7  8  1  0
  8  9  1  0
  9 10  1  0
 10 11  1  0
 10 12  1  0
 12 13  1  0
 13 14  1  0
 14 15  1  0
 15 16  1  0
 16 17  1  0
  2 18  1  0
 18 19  2  0
 19 20  1  0
 20 21  2  0
 21 22  1  0
 22 23  2  0
 23 24  1  0
 23 25  1  0
 25 26  2  0
 26 27  1  0
 27 28  2  0
 12  7  1  0
 17 13  1  0
 28 18  1  0
 27 21  1  0
  3 29  1  0
  4 30  1  0
  4 31  1  0
  8 32  1  0
  8 33  1  0
  9 34  1  0
  9 35  1  0
 10 36  1  1
 11 37  1  0
 12 38  1  6
 13 39  1  0
 14 40  1  0
 14 41  1  0
 15 42  1  0
 15 43  1  0
 16 44  1  0
 16 45  1  0
 17 46  1  0
 17 47  1  0
 19 48  1  0
 20 49  1  0
 22 50  1  0
 25 51  1  0
 26 52  1  0
M  END
>  <smiles>  (17) 
O=C(NCC(=O)N1CC[C@H](O)[C@H]1C1CCCC1)c1ccc2cc(F)ccc2n1

>  <score_type>  (17) 
oracle

>  <origin>  (17) 
autodockgpu

>  <m_score__min__energy>  (17) 
-8.7899999999999991

>  <m_primary>  (17) 
energy

>  <rmsd>  (17) 
3.3471988944874855

>  <m_score__min__rmsd>  (17) 
3.3471988944874855

>  <meeko>  (17) 
{"free_energy": -7.86, "intermolecular_energy": -9.65, "internal_energy": -1.64, "cluster_size": 40, "cluster_id": 1, "rank_in_cluster": 38}

>  <energy>  (17) 
-8.56

>  <cluster_rmsd>  (17) 
0.24

>  <cluster>  (17) 
1

$$$$

     RDKit          3D

 52 55  0  0  0  0  0  0  0  0999 V2000
  140.8660   71.8880  221.1440 O   0  0  0  0  0  0  0  0  0  0  0  0
  140.3600   72.3750  222.2100 C   0  0  0  0  0  0  0  0  0  0  0  0
  139.9810   73.7450  222.2860 N   0  0  0  0  0  0  0  0  0  0  0  0
  140.1490   74.6480  221.1630 C   0  0  0  0  0  0  0  0  0  0  0  0
  140.1960   76.0800  221.6490 C   0  0  0  0  0  0  0  0  0  0  0  0
  139.3710   76.3530  222.5520 O   0  0  0  0  0  0  0  0  0  0  0  0
  141.1230   76.9660  221.0770 N   0  0  0  0  0  0  0  0  0  0  0  0
  141.6140   76.8510  219.6770 C   0  0  0  0  0  0  0  0  0  0  0  0
  141.7510   78.3120  219.2300 C   0  0  0  0  0  0  0  0  0  0  0  0
  141.3450   79.1110  220.4630 C   0  0  2  0  0  0  0  0  0  0  0  0
  141.9400   80.3420  220.5470 O   0  0  0  0  0  0  0  0  0  0  0  0
  141.8170   78.1350  221.5510 C   0  0  1  0  0  0  0  0  0  0  0  0
  141.4850   78.6510  222.8890 C   0  0  0  0  0  0  0  0  0  0  0  0
  142.4010   79.6470  223.4930 C   0  0  0  0  0  0  0  0  0  0  0  0
  141.6580   80.9580  223.7020 C   0  0  0  0  0  0  0  0  0  0  0  0
  140.2250   80.5260  223.7310 C   0  0  0  0  0  0  0  0  0  0  0  0
  140.1300   79.3370  222.7930 C   0  0  0  0  0  0  0  0  0  0  0  0
  140.1650   71.5100  223.3810 C   0  0  0  0  0  0  0  0  0  0  0  0
  139.5450   70.2880  223.2270 C   0  0  0  0  0  0  0  0  0  0  0  0
  139.3870   69.5130  224.3660 C   0  0  0  0  0  0  0  0  0  0  0  0
  139.8280   69.9320  225.6120 C   0  0  0  0  0  0  0  0  0  0  0  0
  139.6740   69.1640  226.7470 C   0  0  0  0  0  0  0  0  0  0  0  0
  140.1290   69.6150  227.9900 C   0  0  0  0  0  0  0  0  0  0  0  0
  139.9640   68.8380  229.0940 F   0  0  0  0  0  0  0  0  0  0  0  0
  140.7480   70.8620  228.0760 C   0  0  0  0  0  0  0  0  0  0  0  0
  140.8880   71.6030  226.9290 C   0  0  0  0  0  0  0  0  0  0  0  0
  140.4380   71.1560  225.7080 C   0  0  0  0  0  0  0  0  0  0  0  0
  140.5960   71.9130  224.6120 N   0  0  0  0  0  0  0  0  0  0  0  0
  139.5720   74.0730  223.1990 H   0  0  0  0  0  0  0  0  0  0  0  0
  141.0881   74.4097  220.6420 H   0  0  0  0  0  0  0  0  0  0  0  0
  139.2986   74.5292  220.4755 H   0  0  0  0  0  0  0  0  0  0  0  0
  142.5849   76.3352  219.6410 H   0  0  0  0  0  0  0  0  0  0  0  0
  140.9428   76.2647  219.0322 H   0  0  0  0  0  0  0  0  0  0  0  0
  142.7882   78.5375  218.9413 H   0  0  0  0  0  0  0  0  0  0  0  0
  141.1342   78.5465  218.3499 H   0  0  0  0  0  0  0  0  0  0  0  0
  140.2809   79.3865  220.5044 H   0  0  0  0  0  0  0  0  0  0  0  0
  142.8890   80.1910  220.8360 H   0  0  0  0  0  0  0  0  0  0  0  0
  142.8928   77.9505  221.6873 H   0  0  0  0  0  0  0  0  0  0  0  0
  141.5386   77.7640  223.5373 H   0  0  0  0  0  0  0  0  0  0  0  0
  142.7630   79.2722  224.4618 H   0  0  0  0  0  0  0  0  0  0  0  0
  143.2562   79.8132  222.8215 H   0  0  0  0  0  0  0  0  0  0  0  0
  141.9485   81.4311  224.6516 H   0  0  0  0  0  0  0  0  0  0  0  0
  141.8712   81.7079  222.9260 H   0  0  0  0  0  0  0  0  0  0  0  0
  139.9342   80.2331  224.7507 H   0  0  0  0  0  0  0  0  0  0  0  0
  139.5517   81.3391  223.4219 H   0  0  0  0  0  0  0  0  0  0  0  0
  139.3280   78.6554  223.1126 H   0  0  0  0  0  0  0  0  0  0  0  0
  139.8927   79.6411  221.7628 H   0  0  0  0  0  0  0  0  0  0  0  0
  139.1914   69.9432  222.2441 H   0  0  0  0  0  0  0  0  0  0  0  0
  138.8953   68.5329  224.2781 H   0  0  0  0  0  0  0  0  0  0  0  0
  139.1855   68.1812  226.6734 H   0  0  0  0  0  0  0  0  0  0  0  0
  141.1154   71.2427  229.0404 H   0  0  0  0  0  0  0  0  0  0  0  0
  141.3762   72.5870  226.9880 H   0  0  0  0  0  0  0  0  0  0  0  0
  1  2  2  0
  2  3  1  0
  3  4  1  0
  4  5  1  0
  5  6  2  0
  5  7  1  0
  7  8  1  0
  8  9  1  0
  9 10  1  0
 10 11  1  0
 10 12  1  0
 12 13  1  0
 13 14  1  0
 14 15  1  0
 15 16  1  0
 16 17  1  0
  2 18  1  0
 18 19  2  0
 19 20  1  0
 20 21  2  0
 21 22  1  0
 22 23  2  0
 23 24  1  0
 23 25  1  0
 25 26  2  0
 26 27  1  0
 27 28  2  0
 12  7  1  0
 17 13  1  0
 28 18  1  0
 27 21  1  0
  3 29  1  0
  4 30  1  0
  4 31  1  0
  8 32  1  0
  8 33  1  0
  9 34  1  0
  9 35  1  0
 10 36  1  6
 11 37  1  0
 12 38  1  1
 13 39  1  0
 14 40  1  0
 14 41  1  0
 15 42  1  0
 15 43  1  0
 16 44  1  0
 16 45  1  0
 17 46  1  0
 17 47  1  0
 19 48  1  0
 20 49  1  0
 22 50  1  0
 25 51  1  0
 26 52  1  0
M  END
>  <smiles>  (18) 
O=C(NCC(=O)N1CC[C@H](O)[C@H]1C1CCCC1)c1ccc2cc(F)ccc2n1

>  <score_type>  (18) 
oracle

>  <origin>  (18) 
autodockgpu

>  <m_score__min__energy>  (18) 
-8.7899999999999991

>  <m_primary>  (18) 
energy

>  <rmsd>  (18) 
2.866473444597031

>  <m_score__min__rmsd>  (18) 
2.866473444597031

>  <meeko>  (18) 
{"free_energy": -8.56, "intermolecular_energy": -10.35, "internal_energy": -1.7, "cluster_size": 40, "cluster_id": 1, "rank_in_cluster": 16}

>  <energy>  (18) 
-8.55

>  <cluster_rmsd>  (18) 
0.78

>  <cluster>  (18) 
1

$$$$

     RDKit          3D

 52 55  0  0  0  0  0  0  0  0999 V2000
  140.9100   71.8990  221.1630 O   0  0  0  0  0  0  0  0  0  0  0  0
  140.3870   72.3810  222.2240 C   0  0  0  0  0  0  0  0  0  0  0  0
  139.9980   73.7470  222.2990 N   0  0  0  0  0  0  0  0  0  0  0  0
  140.1730   74.6550  221.1810 C   0  0  0  0  0  0  0  0  0  0  0  0
  140.3200   76.0750  221.6810 C   0  0  0  0  0  0  0  0  0  0  0  0
  139.6610   76.3350  222.7150 O   0  0  0  0  0  0  0  0  0  0  0  0
  141.1480   76.9650  220.9790 N   0  0  0  0  0  0  0  0  0  0  0  0
  141.5130   76.7920  219.5470 C   0  0  0  0  0  0  0  0  0  0  0  0
  141.5410   78.2290  219.0130 C   0  0  0  0  0  0  0  0  0  0  0  0
  141.2130   79.0790  220.2350 C   0  0  2  0  0  0  0  0  0  0  0  0
  141.7540   80.3370  220.1990 O   0  0  0  0  0  0  0  0  0  0  0  0
  141.8270   78.1870  221.3240 C   0  0  1  0  0  0  0  0  0  0  0  0
  141.5940   78.7630  222.6580 C   0  0  0  0  0  0  0  0  0  0  0  0
  142.5680   79.7620  223.1580 C   0  0  0  0  0  0  0  0  0  0  0  0
  141.8660   81.0970  223.3610 C   0  0  0  0  0  0  0  0  0  0  0  0
  140.4310   80.6980  223.5030 C   0  0  0  0  0  0  0  0  0  0  0  0
  140.2500   79.4750  222.6240 C   0  0  0  0  0  0  0  0  0  0  0  0
  140.1830   71.5100  223.3900 C   0  0  0  0  0  0  0  0  0  0  0  0
  139.5710   70.2860  223.2250 C   0  0  0  0  0  0  0  0  0  0  0  0
  139.4040   69.5060  224.3600 C   0  0  0  0  0  0  0  0  0  0  0  0
  139.8290   69.9240  225.6120 C   0  0  0  0  0  0  0  0  0  0  0  0
  139.6660   69.1510  226.7430 C   0  0  0  0  0  0  0  0  0  0  0  0
  140.1040   69.6010  227.9920 C   0  0  0  0  0  0  0  0  0  0  0  0
  139.9300   68.8200  229.0930 F   0  0  0  0  0  0  0  0  0  0  0  0
  140.7160   70.8500  228.0890 C   0  0  0  0  0  0  0  0  0  0  0  0
  140.8650   71.5960  226.9460 C   0  0  0  0  0  0  0  0  0  0  0  0
  140.4320   71.1500  225.7190 C   0  0  0  0  0  0  0  0  0  0  0  0
  140.5980   71.9120  224.6270 N   0  0  0  0  0  0  0  0  0  0  0  0
  139.5740   74.0700  223.2070 H   0  0  0  0  0  0  0  0  0  0  0  0
  141.0760   74.3716  220.6204 H   0  0  0  0  0  0  0  0  0  0  0  0
  139.2909   74.5938  220.5267 H   0  0  0  0  0  0  0  0  0  0  0  0
  142.4992   76.3153  219.4467 H   0  0  0  0  0  0  0  0  0  0  0  0
  140.8128   76.1435  219.0000 H   0  0  0  0  0  0  0  0  0  0  0  0
  142.5359   78.4802  218.6168 H   0  0  0  0  0  0  0  0  0  0  0  0
  140.8362   78.3878  218.1835 H   0  0  0  0  0  0  0  0  0  0  0  0
  140.1453   79.3117  220.3607 H   0  0  0  0  0  0  0  0  0  0  0  0
  140.9930   80.9830  220.1070 H   0  0  0  0  0  0  0  0  0  0  0  0
  142.9183   78.0560  221.3687 H   0  0  0  0  0  0  0  0  0  0  0  0
  141.6720   77.9012  223.3371 H   0  0  0  0  0  0  0  0  0  0  0  0
  142.9868   79.4186  224.1154 H   0  0  0  0  0  0  0  0  0  0  0  0
  143.3794   79.8820  222.4250 H   0  0  0  0  0  0  0  0  0  0  0  0
  142.2288   81.6016  224.2686 H   0  0  0  0  0  0  0  0  0  0  0  0
  142.0410   81.8103  222.5421 H   0  0  0  0  0  0  0  0  0  0  0  0
  140.2041   80.4528  224.5510 H   0  0  0  0  0  0  0  0  0  0  0  0
  139.7542   81.5126  223.2056 H   0  0  0  0  0  0  0  0  0  0  0  0
  139.4580   78.8250  223.0243 H   0  0  0  0  0  0  0  0  0  0  0  0
  139.9502   79.7429  221.6001 H   0  0  0  0  0  0  0  0  0  0  0  0
  139.2301   69.9429  222.2371 H   0  0  0  0  0  0  0  0  0  0  0  0
  138.9185   68.5236  224.2636 H   0  0  0  0  0  0  0  0  0  0  0  0
  139.1841   68.1656  226.6608 H   0  0  0  0  0  0  0  0  0  0  0  0
  141.0712   71.2289  229.0587 H   0  0  0  0  0  0  0  0  0  0  0  0
  141.3465   72.5827  227.0138 H   0  0  0  0  0  0  0  0  0  0  0  0
  1  2  2  0
  2  3  1  0
  3  4  1  0
  4  5  1  0
  5  6  2  0
  5  7  1  0
  7  8  1  0
  8  9  1  0
  9 10  1  0
 10 11  1  0
 10 12  1  0
 12 13  1  0
 13 14  1  0
 14 15  1  0
 15 16  1  0
 16 17  1  0
  2 18  1  0
 18 19  2  0
 19 20  1  0
 20 21  2  0
 21 22  1  0
 22 23  2  0
 23 24  1  0
 23 25  1  0
 25 26  2  0
 26 27  1  0
 27 28  2  0
 12  7  1  0
 17 13  1  0
 28 18  1  0
 27 21  1  0
  3 29  1  0
  4 30  1  0
  4 31  1  0
  8 32  1  0
  8 33  1  0
  9 34  1  0
  9 35  1  0
 10 36  1  1
 11 37  1  0
 12 38  1  6
 13 39  1  0
 14 40  1  0
 14 41  1  0
 15 42  1  0
 15 43  1  0
 16 44  1  0
 16 45  1  0
 17 46  1  0
 17 47  1  0
 19 48  1  0
 20 49  1  0
 22 50  1  0
 25 51  1  0
 26 52  1  0
M  END
>  <smiles>  (19) 
O=C(NCC(=O)N1CC[C@H](O)[C@H]1C1CCCC1)c1ccc2cc(F)ccc2n1

>  <score_type>  (19) 
oracle

>  <origin>  (19) 
autodockgpu

>  <m_score__min__energy>  (19) 
-8.7899999999999991

>  <m_primary>  (19) 
energy

>  <rmsd>  (19) 
2.780142805910116

>  <m_score__min__rmsd>  (19) 
2.780142805910116

>  <meeko>  (19) 
{"free_energy": -8.25, "intermolecular_energy": -10.04, "internal_energy": -1.77, "cluster_size": 40, "cluster_id": 1, "rank_in_cluster": 35}

>  <energy>  (19) 
-8.51

>  <cluster_rmsd>  (19) 
0.26

>  <cluster>  (19) 
1

$$$$

     RDKit          3D

 52 55  0  0  0  0  0  0  0  0999 V2000
  141.1180   71.9430  221.2750 O   0  0  0  0  0  0  0  0  0  0  0  0
  140.4900   72.4270  222.2760 C   0  0  0  0  0  0  0  0  0  0  0  0
  140.0490   73.7800  222.2850 N   0  0  0  0  0  0  0  0  0  0  0  0
  140.2890   74.6700  221.1650 C   0  0  0  0  0  0  0  0  0  0  0  0
  140.2570   76.1100  221.6280 C   0  0  0  0  0  0  0  0  0  0  0  0
  139.3810   76.3630  222.4880 O   0  0  0  0  0  0  0  0  0  0  0  0
  141.1730   77.0230  221.0830 N   0  0  0  0  0  0  0  0  0  0  0  0
  141.6960   76.9340  219.6930 C   0  0  0  0  0  0  0  0  0  0  0  0
  141.8060   78.4010  219.2620 C   0  0  0  0  0  0  0  0  0  0  0  0
  141.3560   79.1790  220.4940 C   0  0  2  0  0  0  0  0  0  0  0  0
  141.9190   80.4230  220.6020 O   0  0  0  0  0  0  0  0  0  0  0  0
  141.8290   78.2040  221.5820 C   0  0  1  0  0  0  0  0  0  0  0  0
  141.4570   78.6990  222.9180 C   0  0  0  0  0  0  0  0  0  0  0  0
  142.3360   79.7110  223.5490 C   0  0  0  0  0  0  0  0  0  0  0  0
  141.5560   81.0020  223.7550 C   0  0  0  0  0  0  0  0  0  0  0  0
  140.1340   80.5340  223.7510 C   0  0  0  0  0  0  0  0  0  0  0  0
  140.0870   79.3520  222.8010 C   0  0  0  0  0  0  0  0  0  0  0  0
  140.2170   71.5740  223.4410 C   0  0  0  0  0  0  0  0  0  0  0  0
  139.4690   70.4260  223.2820 C   0  0  0  0  0  0  0  0  0  0  0  0
  139.2420   69.6600  224.4150 C   0  0  0  0  0  0  0  0  0  0  0  0
  139.7400   70.0160  225.6600 C   0  0  0  0  0  0  0  0  0  0  0  0
  139.5170   69.2560  226.7890 C   0  0  0  0  0  0  0  0  0  0  0  0
  140.0310   69.6420  228.0310 C   0  0  0  0  0  0  0  0  0  0  0  0
  139.7960   68.8750  229.1300 F   0  0  0  0  0  0  0  0  0  0  0  0
  140.7800   70.8150  228.1220 C   0  0  0  0  0  0  0  0  0  0  0  0
  140.9850   71.5500  226.9800 C   0  0  0  0  0  0  0  0  0  0  0  0
  140.4770   71.1670  225.7600 C   0  0  0  0  0  0  0  0  0  0  0  0
  140.7020   71.9160  224.6700 N   0  0  0  0  0  0  0  0  0  0  0  0
  139.5390   74.1050  223.1470 H   0  0  0  0  0  0  0  0  0  0  0  0
  141.2751   74.4496  220.7302 H   0  0  0  0  0  0  0  0  0  0  0  0
  139.5039   74.5175  220.4097 H   0  0  0  0  0  0  0  0  0  0  0  0
  142.6800   76.4428  219.6731 H   0  0  0  0  0  0  0  0  0  0  0  0
  141.0531   76.3377  219.0289 H   0  0  0  0  0  0  0  0  0  0  0  0
  142.8429   78.6543  218.9962 H   0  0  0  0  0  0  0  0  0  0  0  0
  141.2011   78.6285  218.3718 H   0  0  0  0  0  0  0  0  0  0  0  0
  140.2850   79.4292  220.5157 H   0  0  0  0  0  0  0  0  0  0  0  0
  142.8860   80.2890  220.8320 H   0  0  0  0  0  0  0  0  0  0  0  0
  142.9060   78.0439  221.7386 H   0  0  0  0  0  0  0  0  0  0  0  0
  141.5192   77.8075  223.5594 H   0  0  0  0  0  0  0  0  0  0  0  0
  142.6880   79.3360  224.5214 H   0  0  0  0  0  0  0  0  0  0  0  0
  143.2001   79.9045  222.8964 H   0  0  0  0  0  0  0  0  0  0  0  0
  141.8155   81.4730  224.7146 H   0  0  0  0  0  0  0  0  0  0  0  0
  141.7659   81.7646  222.9905 H   0  0  0  0  0  0  0  0  0  0  0  0
  139.8304   80.2245  224.7619 H   0  0  0  0  0  0  0  0  0  0  0  0
  139.4471   81.3330  223.4352 H   0  0  0  0  0  0  0  0  0  0  0  0
  139.2962   78.6477  223.0987 H   0  0  0  0  0  0  0  0  0  0  0  0
  139.8622   79.6595  221.7691 H   0  0  0  0  0  0  0  0  0  0  0  0
  139.0704   70.1314  222.3000 H   0  0  0  0  0  0  0  0  0  0  0  0
  138.6472   68.7392  224.3238 H   0  0  0  0  0  0  0  0  0  0  0  0
  138.9256   68.3318  226.7114 H   0  0  0  0  0  0  0  0  0  0  0  0
  141.1967   71.1437  229.0855 H   0  0  0  0  0  0  0  0  0  0  0  0
  141.5752   72.4761  227.0428 H   0  0  0  0  0  0  0  0  0  0  0  0
  1  2  2  0
  2  3  1  0
  3  4  1  0
  4  5  1  0
  5  6  2  0
  5  7  1  0
  7  8  1  0
  8  9  1  0
  9 10  1  0
 10 11  1  0
 10 12  1  0
 12 13  1  0
 13 14  1  0
 14 15  1  0
 15 16  1  0
 16 17  1  0
  2 18  1  0
 18 19  2  0
 19 20  1  0
 20 21  2  0
 21 22  1  0
 22 23  2  0
 23 24  1  0
 23 25  1  0
 25 26  2  0
 26 27  1  0
 27 28  2  0
 12  7  1  0
 17 13  1  0
 28 18  1  0
 27 21  1  0
  3 29  1  0
  4 30  1  0
  4 31  1  0
  8 32  1  0
  8 33  1  0
  9 34  1  0
  9 35  1  0
 10 36  1  6
 11 37  1  0
 12 38  1  1
 13 39  1  0
 14 40  1  0
 14 41  1  0
 15 42  1  0
 15 43  1  0
 16 44  1  0
 16 45  1  0
 17 46  1  0
 17 47  1  0
 19 48  1  0
 20 49  1  0
 22 50  1  0
 25 51  1  0
 26 52  1  0
M  END
>  <smiles>  (20) 
O=C(NCC(=O)N1CC[C@H](O)[C@H]1C1CCCC1)c1ccc2cc(F)ccc2n1

>  <score_type>  (20) 
oracle

>  <origin>  (20) 
autodockgpu

>  <m_score__min__energy>  (20) 
-8.7899999999999991

>  <m_primary>  (20) 
energy

>  <rmsd>  (20) 
2.9459829591047177

>  <m_score__min__rmsd>  (20) 
2.9459829591047177

>  <meeko>  (20) 
{"free_energy": -8.56, "intermolecular_energy": -10.34, "internal_energy": -1.68, "cluster_size": 40, "cluster_id": 1, "rank_in_cluster": 17}

>  <energy>  (20) 
-8.48

>  <cluster_rmsd>  (20) 
1.46

>  <cluster>  (20) 
1

$$$$

     RDKit          3D

 52 55  0  0  0  0  0  0  0  0999 V2000
  140.8910   71.8720  221.1450 O   0  0  0  0  0  0  0  0  0  0  0  0
  140.3710   72.3510  222.2070 C   0  0  0  0  0  0  0  0  0  0  0  0
  139.9760   73.7170  222.2830 N   0  0  0  0  0  0  0  0  0  0  0  0
  140.1440   74.6240  221.1640 C   0  0  0  0  0  0  0  0  0  0  0  0
  140.2870   76.0450  221.6620 C   0  0  0  0  0  0  0  0  0  0  0  0
  139.6190   76.3080  222.6890 O   0  0  0  0  0  0  0  0  0  0  0  0
  141.1240   76.9330  220.9670 N   0  0  0  0  0  0  0  0  0  0  0  0
  141.5010   76.7580  219.5380 C   0  0  0  0  0  0  0  0  0  0  0  0
  141.5380   78.1950  219.0050 C   0  0  0  0  0  0  0  0  0  0  0  0
  141.2010   79.0460  220.2240 C   0  0  2  0  0  0  0  0  0  0  0  0
  141.7470   80.3030  220.1920 O   0  0  0  0  0  0  0  0  0  0  0  0
  141.8040   78.1520  221.3170 C   0  0  1  0  0  0  0  0  0  0  0  0
  141.5610   78.7300  222.6500 C   0  0  0  0  0  0  0  0  0  0  0  0
  142.5400   79.7170  223.1630 C   0  0  0  0  0  0  0  0  0  0  0  0
  141.8490   81.0590  223.3590 C   0  0  0  0  0  0  0  0  0  0  0  0
  140.4080   80.6760  223.4830 C   0  0  0  0  0  0  0  0  0  0  0  0
  140.2250   79.4560  222.6000 C   0  0  0  0  0  0  0  0  0  0  0  0
  140.1750   71.4810  223.3750 C   0  0  0  0  0  0  0  0  0  0  0  0
  139.5690   70.2530  223.2130 C   0  0  0  0  0  0  0  0  0  0  0  0
  139.4090   69.4740  224.3480 C   0  0  0  0  0  0  0  0  0  0  0  0
  139.8360   69.8950  225.5990 C   0  0  0  0  0  0  0  0  0  0  0  0
  139.6800   69.1220  226.7310 C   0  0  0  0  0  0  0  0  0  0  0  0
  140.1200   69.5750  227.9790 C   0  0  0  0  0  0  0  0  0  0  0  0
  139.9540   68.7940  229.0800 F   0  0  0  0  0  0  0  0  0  0  0  0
  140.7260   70.8280  228.0730 C   0  0  0  0  0  0  0  0  0  0  0  0
  140.8680   71.5730  226.9290 C   0  0  0  0  0  0  0  0  0  0  0  0
  140.4330   71.1240  225.7030 C   0  0  0  0  0  0  0  0  0  0  0  0
  140.5910   71.8860  224.6100 N   0  0  0  0  0  0  0  0  0  0  0  0
  139.5560   74.0380  223.1930 H   0  0  0  0  0  0  0  0  0  0  0  0
  141.0464   74.3435  220.6009 H   0  0  0  0  0  0  0  0  0  0  0  0
  139.2601   74.5587  220.5125 H   0  0  0  0  0  0  0  0  0  0  0  0
  142.4866   76.2781  219.4463 H   0  0  0  0  0  0  0  0  0  0  0  0
  140.8040   76.1113  218.9848 H   0  0  0  0  0  0  0  0  0  0  0  0
  142.5373   78.4435  218.6182 H   0  0  0  0  0  0  0  0  0  0  0  0
  140.8412   78.3559  218.1692 H   0  0  0  0  0  0  0  0  0  0  0  0
  140.1330   79.2819  220.3413 H   0  0  0  0  0  0  0  0  0  0  0  0
  140.9880   80.9550  220.2510 H   0  0  0  0  0  0  0  0  0  0  0  0
  142.8944   78.0170  221.3701 H   0  0  0  0  0  0  0  0  0  0  0  0
  141.6214   77.8672  223.3297 H   0  0  0  0  0  0  0  0  0  0  0  0
  142.9434   79.3679  224.1250 H   0  0  0  0  0  0  0  0  0  0  0  0
  143.3621   79.8289  222.4407 H   0  0  0  0  0  0  0  0  0  0  0  0
  142.2059   81.5587  224.2716 H   0  0  0  0  0  0  0  0  0  0  0  0
  142.0413   81.7708  222.5427 H   0  0  0  0  0  0  0  0  0  0  0  0
  140.1654   80.4321  224.5278 H   0  0  0  0  0  0  0  0  0  0  0  0
  139.7438   81.4983  223.1787 H   0  0  0  0  0  0  0  0  0  0  0  0
  139.4212   78.8139  222.9894 H   0  0  0  0  0  0  0  0  0  0  0  0
  139.9408   79.7282  221.5728 H   0  0  0  0  0  0  0  0  0  0  0  0
  139.2276   69.9069  222.2263 H   0  0  0  0  0  0  0  0  0  0  0  0
  138.9276   68.4894  224.2538 H   0  0  0  0  0  0  0  0  0  0  0  0
  139.2023   68.1344  226.6509 H   0  0  0  0  0  0  0  0  0  0  0  0
  141.0817   71.2100  229.0413 H   0  0  0  0  0  0  0  0  0  0  0  0
  141.3454   72.5619  226.9943 H   0  0  0  0  0  0  0  0  0  0  0  0
  1  2  2  0
  2  3  1  0
  3  4  1  0
  4  5  1  0
  5  6  2  0
  5  7  1  0
  7  8  1  0
  8  9  1  0
  9 10  1  0
 10 11  1  0
 10 12  1  0
 12 13  1  0
 13 14  1  0
 14 15  1  0
 15 16  1  0
 16 17  1  0
  2 18  1  0
 18 19  2  0
 19 20  1  0
 20 21  2  0
 21 22  1  0
 22 23  2  0
 23 24  1  0
 23 25  1  0
 25 26  2  0
 26 27  1  0
 27 28  2  0
 12  7  1  0
 17 13  1  0
 28 18  1  0
 27 21  1  0
  3 29  1  0
  4 30  1  0
  4 31  1  0
  8 32  1  0
  8 33  1  0
  9 34  1  0
  9 35  1  0
 10 36  1  1
 11 37  1  0
 12 38  1  6
 13 39  1  0
 14 40  1  0
 14 41  1  0
 15 42  1  0
 15 43  1  0
 16 44  1  0
 16 45  1  0
 17 46  1  0
 17 47  1  0
 19 48  1  0
 20 49  1  0
 22 50  1  0
 25 51  1  0
 26 52  1  0
M  END
>  <smiles>  (21) 
O=C(NCC(=O)N1CC[C@H](O)[C@H]1C1CCCC1)c1ccc2cc(F)ccc2n1

>  <score_type>  (21) 
oracle

>  <origin>  (21) 
autodockgpu

>  <m_score__min__energy>  (21) 
-8.7899999999999991

>  <m_primary>  (21) 
energy

>  <rmsd>  (21) 
2.762722668403146

>  <m_score__min__rmsd>  (21) 
2.762722668403146

>  <meeko>  (21) 
{"free_energy": -8.25, "intermolecular_energy": -10.04, "internal_energy": -1.76, "cluster_size": 40, "cluster_id": 1, "rank_in_cluster": 36}

>  <energy>  (21) 
-8.47

>  <cluster_rmsd>  (21) 
1.45

>  <cluster>  (21) 
1

$$$$

     RDKit          3D

 52 55  0  0  0  0  0  0  0  0999 V2000
  141.0940   71.9760  221.2110 O   0  0  0  0  0  0  0  0  0  0  0  0
  140.4800   72.4260  222.2360 C   0  0  0  0  0  0  0  0  0  0  0  0
  140.0120   73.7690  222.2840 N   0  0  0  0  0  0  0  0  0  0  0  0
  140.2070   74.6870  221.1790 C   0  0  0  0  0  0  0  0  0  0  0  0
  140.3270   76.1040  221.6930 C   0  0  0  0  0  0  0  0  0  0  0  0
  139.6410   76.3490  222.7140 O   0  0  0  0  0  0  0  0  0  0  0  0
  141.1620   77.0090  221.0180 N   0  0  0  0  0  0  0  0  0  0  0  0
  141.5660   76.8500  219.5950 C   0  0  0  0  0  0  0  0  0  0  0  0
  141.5900   78.2910  219.0720 C   0  0  0  0  0  0  0  0  0  0  0  0
  141.2210   79.1280  220.2910 C   0  0  2  0  0  0  0  0  0  0  0  0
  141.7490   80.3930  220.2770 O   0  0  0  0  0  0  0  0  0  0  0  0
  141.8180   78.2360  221.3890 C   0  0  1  0  0  0  0  0  0  0  0  0
  141.5450   78.8000  222.7210 C   0  0  0  0  0  0  0  0  0  0  0  0
  142.5190   79.7710  223.2720 C   0  0  0  0  0  0  0  0  0  0  0  0
  141.8380   81.1180  223.4650 C   0  0  0  0  0  0  0  0  0  0  0  0
  140.3900   80.7490  223.5450 C   0  0  0  0  0  0  0  0  0  0  0  0
  140.2180   79.5410  222.6430 C   0  0  0  0  0  0  0  0  0  0  0  0
  140.2520   71.5430  223.3890 C   0  0  0  0  0  0  0  0  0  0  0  0
  139.5800   70.3520  223.2100 C   0  0  0  0  0  0  0  0  0  0  0  0
  139.3930   69.5590  224.3310 C   0  0  0  0  0  0  0  0  0  0  0  0
  139.8550   69.9320  225.5850 C   0  0  0  0  0  0  0  0  0  0  0  0
  139.6710   69.1450  226.7030 C   0  0  0  0  0  0  0  0  0  0  0  0
  140.1480   69.5480  227.9540 C   0  0  0  0  0  0  0  0  0  0  0  0
  139.9530   68.7550  229.0420 F   0  0  0  0  0  0  0  0  0  0  0  0
  140.8190   70.7660  228.0660 C   0  0  0  0  0  0  0  0  0  0  0  0
  140.9880   71.5260  226.9350 C   0  0  0  0  0  0  0  0  0  0  0  0
  140.5160   71.1260  225.7060 C   0  0  0  0  0  0  0  0  0  0  0  0
  140.7020   71.9000  224.6260 N   0  0  0  0  0  0  0  0  0  0  0  0
  139.5160   74.0660  223.1640 H   0  0  0  0  0  0  0  0  0  0  0  0
  141.1270   74.4168  220.6400 H   0  0  0  0  0  0  0  0  0  0  0  0
  139.3426   74.6226  220.5017 H   0  0  0  0  0  0  0  0  0  0  0  0
  142.5603   76.3859  219.5172 H   0  0  0  0  0  0  0  0  0  0  0  0
  140.8885   76.1967  219.0256 H   0  0  0  0  0  0  0  0  0  0  0  0
  142.5915   78.5570  218.7029 H   0  0  0  0  0  0  0  0  0  0  0  0
  140.9045   78.4473  218.2261 H   0  0  0  0  0  0  0  0  0  0  0  0
  140.1477   79.3470  220.3913 H   0  0  0  0  0  0  0  0  0  0  0  0
  141.8870   80.6420  219.3150 H   0  0  0  0  0  0  0  0  0  0  0  0
  142.9092   78.1174  221.4609 H   0  0  0  0  0  0  0  0  0  0  0  0
  141.5784   77.9287  223.3916 H   0  0  0  0  0  0  0  0  0  0  0  0
  142.8922   79.4066  224.2405 H   0  0  0  0  0  0  0  0  0  0  0  0
  143.3611   79.8825  222.5732 H   0  0  0  0  0  0  0  0  0  0  0  0
  142.1751   81.6031  224.3929 H   0  0  0  0  0  0  0  0  0  0  0  0
  142.0604   81.8373  222.6630 H   0  0  0  0  0  0  0  0  0  0  0  0
  140.1163   80.4958  224.5799 H   0  0  0  0  0  0  0  0  0  0  0  0
  139.7432   81.5819  223.2321 H   0  0  0  0  0  0  0  0  0  0  0  0
  139.3972   78.9033  223.0030 H   0  0  0  0  0  0  0  0  0  0  0  0
  139.9645   79.8278  221.6117 H   0  0  0  0  0  0  0  0  0  0  0  0
  139.2088   70.0451  222.2211 H   0  0  0  0  0  0  0  0  0  0  0  0
  138.8608   68.6024  224.2231 H   0  0  0  0  0  0  0  0  0  0  0  0
  139.1409   68.1858  226.6088 H   0  0  0  0  0  0  0  0  0  0  0  0
  141.2037   71.1095  229.0376 H   0  0  0  0  0  0  0  0  0  0  0  0
  141.5183   72.4865  227.0141 H   0  0  0  0  0  0  0  0  0  0  0  0
  1  2  2  0
  2  3  1  0
  3  4  1  0
  4  5  1  0
  5  6  2  0
  5  7  1  0
  7  8  1  0
  8  9  1  0
  9 10  1  0
 10 11  1  0
 10 12  1  0
 12 13  1  0
 13 14  1  0
 14 15  1  0
 15 16  1  0
 16 17  1  0
  2 18  1  0
 18 19  2  0
 19 20  1  0
 20 21  2  0
 21 22  1  0
 22 23  2  0
 23 24  1  0
 23 25  1  0
 25 26  2  0
 26 27  1  0
 27 28  2  0
 12  7  1  0
 17 13  1  0
 28 18  1  0
 27 21  1  0
  3 29  1  0
  4 30  1  0
  4 31  1  0
  8 32  1  0
  8 33  1  0
  9 34  1  0
  9 35  1  0
 10 36  1  1
 11 37  1  0
 12 38  1  6
 13 39  1  0
 14 40  1  0
 14 41  1  0
 15 42  1  0
 15 43  1  0
 16 44  1  0
 16 45  1  0
 17 46  1  0
 17 47  1  0
 19 48  1  0
 20 49  1  0
 22 50  1  0
 25 51  1  0
 26 52  1  0
M  END
>  <smiles>  (22) 
O=C(NCC(=O)N1CC[C@H](O)[C@H]1C1CCCC1)c1ccc2cc(F)ccc2n1

>  <score_type>  (22) 
oracle

>  <origin>  (22) 
autodockgpu

>  <m_score__min__energy>  (22) 
-8.7899999999999991

>  <m_primary>  (22) 
energy

>  <rmsd>  (22) 
2.783004810555242

>  <m_score__min__rmsd>  (22) 
2.783004810555242

>  <meeko>  (22) 
{"free_energy": -8.36, "intermolecular_energy": -10.15, "internal_energy": -1.71, "cluster_size": 40, "cluster_id": 1, "rank_in_cluster": 25}

>  <energy>  (22) 
-8.47

>  <cluster_rmsd>  (22) 
0.79

>  <cluster>  (22) 
1

$$$$

     RDKit          3D

 52 55  0  0  0  0  0  0  0  0999 V2000
  139.8420   71.7850  220.9800 O   0  0  0  0  0  0  0  0  0  0  0  0
  139.7610   72.2860  222.1510 C   0  0  0  0  0  0  0  0  0  0  0  0
  139.5810   73.6840  222.3440 N   0  0  0  0  0  0  0  0  0  0  0  0
  139.4820   74.6040  221.2260 C   0  0  0  0  0  0  0  0  0  0  0  0
  139.6460   76.0280  221.7070 C   0  0  0  0  0  0  0  0  0  0  0  0
  138.7400   76.4280  222.4760 O   0  0  0  0  0  0  0  0  0  0  0  0
  140.7560   76.7720  221.2750 N   0  0  0  0  0  0  0  0  0  0  0  0
  141.4960   76.4880  220.0160 C   0  0  0  0  0  0  0  0  0  0  0  0
  141.8730   77.8840  219.5060 C   0  0  0  0  0  0  0  0  0  0  0  0
  141.3220   78.8240  220.5720 C   0  0  2  0  0  0  0  0  0  0  0  0
  142.0170   79.9990  220.6900 O   0  0  0  0  0  0  0  0  0  0  0  0
  141.4650   77.9100  221.7990 C   0  0  1  0  0  0  0  0  0  0  0  0
  140.9340   78.5720  223.0020 C   0  0  0  0  0  0  0  0  0  0  0  0
  141.8450   79.4630  223.7580 C   0  0  0  0  0  0  0  0  0  0  0  0
  141.2980   80.8830  223.7360 C   0  0  0  0  0  0  0  0  0  0  0  0
  139.8440   80.6740  223.4540 C   0  0  0  0  0  0  0  0  0  0  0  0
  139.7650   79.4440  222.5690 C   0  0  0  0  0  0  0  0  0  0  0  0
  139.8540   71.4050  223.3240 C   0  0  0  0  0  0  0  0  0  0  0  0
  139.4620   70.0870  223.2170 C   0  0  0  0  0  0  0  0  0  0  0  0
  139.5710   69.3020  224.3540 C   0  0  0  0  0  0  0  0  0  0  0  0
  140.0520   69.8040  225.5550 C   0  0  0  0  0  0  0  0  0  0  0  0
  140.1620   69.0260  226.6890 C   0  0  0  0  0  0  0  0  0  0  0  0
  140.6500   69.5610  227.8850 C   0  0  0  0  0  0  0  0  0  0  0  0
  140.7490   68.7730  228.9890 F   0  0  0  0  0  0  0  0  0  0  0  0
  141.0290   70.9030  227.9250 C   0  0  0  0  0  0  0  0  0  0  0  0
  140.9080   71.6520  226.7800 C   0  0  0  0  0  0  0  0  0  0  0  0
  140.4270   71.1210  225.6050 C   0  0  0  0  0  0  0  0  0  0  0  0
  140.3250   71.8890  224.5100 N   0  0  0  0  0  0  0  0  0  0  0  0
  139.5230   74.0220  223.3400 H   0  0  0  0  0  0  0  0  0  0  0  0
  140.2711   74.3740  220.4950 H   0  0  0  0  0  0  0  0  0  0  0  0
  138.4930   74.4947  220.7571 H   0  0  0  0  0  0  0  0  0  0  0  0
  142.3944   75.8850  220.2144 H   0  0  0  0  0  0  0  0  0  0  0  0
  140.9051   75.9097  219.2905 H   0  0  0  0  0  0  0  0  0  0  0  0
  142.9647   77.9875  219.4192 H   0  0  0  0  0  0  0  0  0  0  0  0
  141.4685   78.0938  218.5048 H   0  0  0  0  0  0  0  0  0  0  0  0
  140.3062   79.1979  220.3763 H   0  0  0  0  0  0  0  0  0  0  0  0
  142.8940   79.7790  221.1230 H   0  0  0  0  0  0  0  0  0  0  0  0
  142.4670   77.6411  222.1647 H   0  0  0  0  0  0  0  0  0  0  0  0
  140.6963   77.7399  223.6810 H   0  0  0  0  0  0  0  0  0  0  0  0
  141.9189   79.1144  224.7987 H   0  0  0  0  0  0  0  0  0  0  0  0
  142.8425   79.4467  223.2946 H   0  0  0  0  0  0  0  0  0  0  0  0
  141.4460   81.3796  224.7063 H   0  0  0  0  0  0  0  0  0  0  0  0
  141.7959   81.5300  222.9987 H   0  0  0  0  0  0  0  0  0  0  0  0
  139.2925   80.5073  224.3911 H   0  0  0  0  0  0  0  0  0  0  0  0
  139.3968   81.5524  222.9657 H   0  0  0  0  0  0  0  0  0  0  0  0
  138.8117   78.9172  222.7233 H   0  0  0  0  0  0  0  0  0  0  0  0
  139.8139   79.6999  221.5003 H   0  0  0  0  0  0  0  0  0  0  0  0
  139.0796   69.6768  222.2707 H   0  0  0  0  0  0  0  0  0  0  0  0
  139.2662   68.2463  224.3027 H   0  0  0  0  0  0  0  0  0  0  0  0
  139.8612   67.9686  226.6516 H   0  0  0  0  0  0  0  0  0  0  0  0
  141.4159   71.3510  228.8522 H   0  0  0  0  0  0  0  0  0  0  0  0
  141.2053   72.7108  226.8030 H   0  0  0  0  0  0  0  0  0  0  0  0
  1  2  2  0
  2  3  1  0
  3  4  1  0
  4  5  1  0
  5  6  2  0
  5  7  1  0
  7  8  1  0
  8  9  1  0
  9 10  1  0
 10 11  1  0
 10 12  1  0
 12 13  1  0
 13 14  1  0
 14 15  1  0
 15 16  1  0
 16 17  1  0
  2 18  1  0
 18 19  2  0
 19 20  1  0
 20 21  2  0
 21 22  1  0
 22 23  2  0
 23 24  1  0
 23 25  1  0
 25 26  2  0
 26 27  1  0
 27 28  2  0
 12  7  1  0
 17 13  1  0
 28 18  1  0
 27 21  1  0
  3 29  1  0
  4 30  1  0
  4 31  1  0
  8 32  1  0
  8 33  1  0
  9 34  1  0
  9 35  1  0
 10 36  1  6
 11 37  1  0
 12 38  1  1
 13 39  1  0
 14 40  1  0
 14 41  1  0
 15 42  1  0
 15 43  1  0
 16 44  1  0
 16 45  1  0
 17 46  1  0
 17 47  1  0
 19 48  1  0
 20 49  1  0
 22 50  1  0
 25 51  1  0
 26 52  1  0
M  END
>  <smiles>  (23) 
O=C(NCC(=O)N1CC[C@H](O)[C@H]1C1CCCC1)c1ccc2cc(F)ccc2n1

>  <score_type>  (23) 
oracle

>  <origin>  (23) 
autodockgpu

>  <m_score__min__energy>  (23) 
-8.7899999999999991

>  <m_primary>  (23) 
energy

>  <rmsd>  (23) 
2.7485926391157287

>  <m_score__min__rmsd>  (23) 
2.7485926391157287

>  <meeko>  (23) 
{"free_energy": -8.45, "intermolecular_energy": -10.24, "internal_energy": -1.6, "cluster_size": 40, "cluster_id": 1, "rank_in_cluster": 24}

>  <energy>  (23) 
-8.47

>  <cluster_rmsd>  (23) 
1.55

>  <cluster>  (23) 
1

$$$$

     RDKit          3D

 52 55  0  0  0  0  0  0  0  0999 V2000
  141.2640   72.2020  221.4120 O   0  0  0  0  0  0  0  0  0  0  0  0
  140.4520   72.5430  222.3370 C   0  0  0  0  0  0  0  0  0  0  0  0
  139.7700   73.7910  222.2960 N   0  0  0  0  0  0  0  0  0  0  0  0
  139.9620   74.7320  221.2090 C   0  0  0  0  0  0  0  0  0  0  0  0
  140.1620   76.1280  221.7560 C   0  0  0  0  0  0  0  0  0  0  0  0
  139.4140   76.4240  222.7180 O   0  0  0  0  0  0  0  0  0  0  0  0
  141.1300   76.9590  221.1720 N   0  0  0  0  0  0  0  0  0  0  0  0
  141.6920   76.7370  219.8120 C   0  0  0  0  0  0  0  0  0  0  0  0
  141.8740   78.1600  219.2690 C   0  0  0  0  0  0  0  0  0  0  0  0
  141.4170   79.0510  220.4180 C   0  0  2  0  0  0  0  0  0  0  0  0
  142.0250   80.2780  220.4440 O   0  0  0  0  0  0  0  0  0  0  0  0
  141.8170   78.1510  221.5960 C   0  0  1  0  0  0  0  0  0  0  0  0
  141.4220   78.7670  222.8740 C   0  0  0  0  0  0  0  0  0  0  0  0
  142.3530   79.7450  223.4860 C   0  0  0  0  0  0  0  0  0  0  0  0
  141.6780   81.1070  223.5630 C   0  0  0  0  0  0  0  0  0  0  0  0
  140.2230   80.7590  223.5110 C   0  0  0  0  0  0  0  0  0  0  0  0
  140.1220   79.5220  222.6390 C   0  0  0  0  0  0  0  0  0  0  0  0
  140.2160   71.6310  223.4660 C   0  0  0  0  0  0  0  0  0  0  0  0
  139.4820   70.4810  223.2680 C   0  0  0  0  0  0  0  0  0  0  0  0
  139.2900   69.6590  224.3670 C   0  0  0  0  0  0  0  0  0  0  0  0
  139.8080   69.9640  225.6170 C   0  0  0  0  0  0  0  0  0  0  0  0
  139.6200   69.1480  226.7130 C   0  0  0  0  0  0  0  0  0  0  0  0
  140.1540   69.4830  227.9610 C   0  0  0  0  0  0  0  0  0  0  0  0
  139.9540   68.6610  229.0270 F   0  0  0  0  0  0  0  0  0  0  0  0
  140.8880   70.6610  228.0920 C   0  0  0  0  0  0  0  0  0  0  0  0
  141.0590   71.4530  226.9830 C   0  0  0  0  0  0  0  0  0  0  0  0
  140.5310   71.1190  225.7570 C   0  0  0  0  0  0  0  0  0  0  0  0
  140.7220   71.9220  224.6990 N   0  0  0  0  0  0  0  0  0  0  0  0
  139.1180   74.0010  223.0960 H   0  0  0  0  0  0  0  0  0  0  0  0
  140.8485   74.4392  220.6272 H   0  0  0  0  0  0  0  0  0  0  0  0
  139.0704   74.7232  220.5648 H   0  0  0  0  0  0  0  0  0  0  0  0
  142.6557   76.2092  219.8651 H   0  0  0  0  0  0  0  0  0  0  0  0
  141.0469   76.1128  219.1762 H   0  0  0  0  0  0  0  0  0  0  0  0
  142.9280   78.3522  219.0199 H   0  0  0  0  0  0  0  0  0  0  0  0
  141.3070   78.3369  218.3431 H   0  0  0  0  0  0  0  0  0  0  0  0
  140.3565   79.3413  220.3839 H   0  0  0  0  0  0  0  0  0  0  0  0
  142.9380   80.1450  220.8360 H   0  0  0  0  0  0  0  0  0  0  0  0
  142.8814   77.9643  221.8012 H   0  0  0  0  0  0  0  0  0  0  0  0
  141.3739   77.9198  223.5740 H   0  0  0  0  0  0  0  0  0  0  0  0
  142.6220   79.4111  224.4990 H   0  0  0  0  0  0  0  0  0  0  0  0
  143.2623   79.8202  222.8716 H   0  0  0  0  0  0  0  0  0  0  0  0
  141.9291   81.6212  224.5024 H   0  0  0  0  0  0  0  0  0  0  0  0
  141.9905   81.7940  222.7627 H   0  0  0  0  0  0  0  0  0  0  0  0
  139.8441   80.5466  224.5216 H   0  0  0  0  0  0  0  0  0  0  0  0
  139.6238   81.5881  223.1066 H   0  0  0  0  0  0  0  0  0  0  0  0
  139.2592   78.9083  222.9372 H   0  0  0  0  0  0  0  0  0  0  0  0
  139.9772   79.7750  221.5783 H   0  0  0  0  0  0  0  0  0  0  0  0
  139.0671   70.2271  222.2814 H   0  0  0  0  0  0  0  0  0  0  0  0
  138.7075   68.7340  224.2440 H   0  0  0  0  0  0  0  0  0  0  0  0
  139.0409   68.2192  226.6035 H   0  0  0  0  0  0  0  0  0  0  0  0
  141.3203   70.9496  229.0614 H   0  0  0  0  0  0  0  0  0  0  0  0
  141.6366   72.3843  227.0779 H   0  0  0  0  0  0  0  0  0  0  0  0
  1  2  2  0
  2  3  1  0
  3  4  1  0
  4  5  1  0
  5  6  2  0
  5  7  1  0
  7  8  1  0
  8  9  1  0
  9 10  1  0
 10 11  1  0
 10 12  1  0
 12 13  1  0
 13 14  1  0
 14 15  1  0
 15 16  1  0
 16 17  1  0
  2 18  1  0
 18 19  2  0
 19 20  1  0
 20 21  2  0
 21 22  1  0
 22 23  2  0
 23 24  1  0
 23 25  1  0
 25 26  2  0
 26 27  1  0
 27 28  2  0
 12  7  1  0
 17 13  1  0
 28 18  1  0
 27 21  1  0
  3 29  1  0
  4 30  1  0
  4 31  1  0
  8 32  1  0
  8 33  1  0
  9 34  1  0
  9 35  1  0
 10 36  1  6
 11 37  1  0
 12 38  1  1
 13 39  1  0
 14 40  1  0
 14 41  1  0
 15 42  1  0
 15 43  1  0
 16 44  1  0
 16 45  1  0
 17 46  1  0
 17 47  1  0
 19 48  1  0
 20 49  1  0
 22 50  1  0
 25 51  1  0
 26 52  1  0
M  END
>  <smiles>  (24) 
O=C(NCC(=O)N1CC[C@H](O)[C@H]1C1CCCC1)c1ccc2cc(F)ccc2n1

>  <score_type>  (24) 
oracle

>  <origin>  (24) 
autodockgpu

>  <m_score__min__energy>  (24) 
-8.7899999999999991

>  <m_primary>  (24) 
energy

>  <rmsd>  (24) 
2.8776819624592673

>  <m_score__min__rmsd>  (24) 
2.8776819624592673

>  <meeko>  (24) 
{"free_energy": -8.78, "intermolecular_energy": -10.57, "internal_energy": -1.55, "cluster_size": 40, "cluster_id": 1, "rank_in_cluster": 4}

>  <energy>  (24) 
-8.45

>  <cluster_rmsd>  (24) 
0.53

>  <cluster>  (24) 
1

$$$$

     RDKit          3D

 52 55  0  0  0  0  0  0  0  0999 V2000
  141.0180   71.9370  221.2010 O   0  0  0  0  0  0  0  0  0  0  0  0
  140.4480   72.4040  222.2440 C   0  0  0  0  0  0  0  0  0  0  0  0
  140.0160   73.7590  222.3040 N   0  0  0  0  0  0  0  0  0  0  0  0
  140.2010   74.6700  221.1910 C   0  0  0  0  0  0  0  0  0  0  0  0
  140.3320   76.0900  221.6960 C   0  0  0  0  0  0  0  0  0  0  0  0
  139.6520   76.3460  222.7170 O   0  0  0  0  0  0  0  0  0  0  0  0
  141.1720   76.9840  221.0120 N   0  0  0  0  0  0  0  0  0  0  0  0
  141.5850   76.8020  219.5950 C   0  0  0  0  0  0  0  0  0  0  0  0
  141.6130   78.2350  219.0490 C   0  0  0  0  0  0  0  0  0  0  0  0
  141.2350   79.0920  220.2520 C   0  0  2  0  0  0  0  0  0  0  0  0
  141.7630   80.3560  220.2210 O   0  0  0  0  0  0  0  0  0  0  0  0
  141.8250   78.2160  221.3680 C   0  0  1  0  0  0  0  0  0  0  0  0
  141.5430   78.8020  222.6890 C   0  0  0  0  0  0  0  0  0  0  0  0
  142.5110   79.7840  223.2300 C   0  0  0  0  0  0  0  0  0  0  0  0
  141.8250   81.1320  223.3970 C   0  0  0  0  0  0  0  0  0  0  0  0
  140.3780   80.7610  223.4740 C   0  0  0  0  0  0  0  0  0  0  0  0
  140.2150   79.5380  222.5910 C   0  0  0  0  0  0  0  0  0  0  0  0
  140.2320   71.5290  223.4050 C   0  0  0  0  0  0  0  0  0  0  0  0
  139.5860   70.3220  223.2360 C   0  0  0  0  0  0  0  0  0  0  0  0
  139.4100   69.5380  224.3650 C   0  0  0  0  0  0  0  0  0  0  0  0
  139.8580   69.9330  225.6170 C   0  0  0  0  0  0  0  0  0  0  0  0
  139.6850   69.1550  226.7420 C   0  0  0  0  0  0  0  0  0  0  0  0
  140.1470   69.5810  227.9910 C   0  0  0  0  0  0  0  0  0  0  0  0
  139.9630   68.7960  229.0860 F   0  0  0  0  0  0  0  0  0  0  0  0
  140.7920   70.8140  228.0930 C   0  0  0  0  0  0  0  0  0  0  0  0
  140.9500   71.5650  226.9550 C   0  0  0  0  0  0  0  0  0  0  0  0
  140.4930   71.1420  225.7280 C   0  0  0  0  0  0  0  0  0  0  0  0
  140.6690   71.9090  224.6410 N   0  0  0  0  0  0  0  0  0  0  0  0
  139.5550   74.0690  223.1980 H   0  0  0  0  0  0  0  0  0  0  0  0
  141.1136   74.3935  220.6426 H   0  0  0  0  0  0  0  0  0  0  0  0
  139.3286   74.6047  220.5242 H   0  0  0  0  0  0  0  0  0  0  0  0
  142.5796   76.3364  219.5311 H   0  0  0  0  0  0  0  0  0  0  0  0
  140.9110   76.1398  219.0318 H   0  0  0  0  0  0  0  0  0  0  0  0
  142.6172   78.4950  218.6831 H   0  0  0  0  0  0  0  0  0  0  0  0
  140.9337   78.3777  218.1957 H   0  0  0  0  0  0  0  0  0  0  0  0
  140.1613   79.3134  220.3421 H   0  0  0  0  0  0  0  0  0  0  0  0
  141.6150   80.7130  219.2960 H   0  0  0  0  0  0  0  0  0  0  0  0
  142.9156   78.0973  221.4491 H   0  0  0  0  0  0  0  0  0  0  0  0
  141.5749   77.9419  223.3740 H   0  0  0  0  0  0  0  0  0  0  0  0
  142.8793   79.4363  224.2065 H   0  0  0  0  0  0  0  0  0  0  0  0
  143.3573   79.8865  222.5348 H   0  0  0  0  0  0  0  0  0  0  0  0
  142.1551   81.6329  224.3190 H   0  0  0  0  0  0  0  0  0  0  0  0
  142.0505   81.8387  222.5847 H   0  0  0  0  0  0  0  0  0  0  0  0
  140.0984   80.5242  224.5112 H   0  0  0  0  0  0  0  0  0  0  0  0
  139.7311   81.5870  223.1435 H   0  0  0  0  0  0  0  0  0  0  0  0
  139.3937   78.9040  222.9564 H   0  0  0  0  0  0  0  0  0  0  0  0
  139.9673   79.8073  221.5536 H   0  0  0  0  0  0  0  0  0  0  0  0
  139.2265   69.9962  222.2488 H   0  0  0  0  0  0  0  0  0  0  0  0
  138.8977   68.5697  224.2650 H   0  0  0  0  0  0  0  0  0  0  0  0
  139.1755   68.1839  226.6556 H   0  0  0  0  0  0  0  0  0  0  0  0
  141.1651   71.1757  229.0625 H   0  0  0  0  0  0  0  0  0  0  0  0
  141.4590   72.5376  227.0263 H   0  0  0  0  0  0  0  0  0  0  0  0
  1  2  2  0
  2  3  1  0
  3  4  1  0
  4  5  1  0
  5  6  2  0
  5  7  1  0
  7  8  1  0
  8  9  1  0
  9 10  1  0
 10 11  1  0
 10 12  1  0
 12 13  1  0
 13 14  1  0
 14 15  1  0
 15 16  1  0
 16 17  1  0
  2 18  1  0
 18 19  2  0
 19 20  1  0
 20 21  2  0
 21 22  1  0
 22 23  2  0
 23 24  1  0
 23 25  1  0
 25 26  2  0
 26 27  1  0
 27 28  2  0
 12  7  1  0
 17 13  1  0
 28 18  1  0
 27 21  1  0
  3 29  1  0
  4 30  1  0
  4 31  1  0
  8 32  1  0
  8 33  1  0
  9 34  1  0
  9 35  1  0
 10 36  1  1
 11 37  1  0
 12 38  1  6
 13 39  1  0
 14 40  1  0
 14 41  1  0
 15 42  1  0
 15 43  1  0
 16 44  1  0
 16 45  1  0
 17 46  1  0
 17 47  1  0
 19 48  1  0
 20 49  1  0
 22 50  1  0
 25 51  1  0
 26 52  1  0
M  END
>  <smiles>  (25) 
O=C(NCC(=O)N1CC[C@H](O)[C@H]1C1CCCC1)c1ccc2cc(F)ccc2n1

>  <score_type>  (25) 
oracle

>  <origin>  (25) 
autodockgpu

>  <m_score__min__energy>  (25) 
-8.7899999999999991

>  <m_primary>  (25) 
energy

>  <rmsd>  (25) 
2.766283434194209

>  <m_score__min__rmsd>  (25) 
2.766283434194209

>  <meeko>  (25) 
{"free_energy": -8.33, "intermolecular_energy": -10.12, "internal_energy": -1.72, "cluster_size": 40, "cluster_id": 1, "rank_in_cluster": 27}

>  <energy>  (25) 
-8.36

>  <cluster_rmsd>  (25) 
0.42

>  <cluster>  (25) 
1

$$$$

     RDKit          3D

 52 55  0  0  0  0  0  0  0  0999 V2000
  136.0150   77.4910  223.0650 O   0  0  0  0  0  0  0  0  0  0  0  0
  136.5110   76.3570  223.3790 C   0  0  0  0  0  0  0  0  0  0  0  0
  137.8490   76.0180  223.0350 N   0  0  0  0  0  0  0  0  0  0  0  0
  138.7110   76.9370  222.3160 C   0  0  0  0  0  0  0  0  0  0  0  0
  140.0210   76.2640  221.9740 C   0  0  0  0  0  0  0  0  0  0  0  0
  140.0880   75.0550  222.3000 O   0  0  0  0  0  0  0  0  0  0  0  0
  141.0300   77.0110  221.3440 N   0  0  0  0  0  0  0  0  0  0  0  0
  141.5540   76.7020  219.9860 C   0  0  0  0  0  0  0  0  0  0  0  0
  141.8150   78.0880  219.3850 C   0  0  0  0  0  0  0  0  0  0  0  0
  141.4330   79.0500  220.5050 C   0  0  2  0  0  0  0  0  0  0  0  0
  142.1160   80.2370  220.4750 O   0  0  0  0  0  0  0  0  0  0  0  0
  141.7950   78.1730  221.7120 C   0  0  1  0  0  0  0  0  0  0  0  0
  141.4610   78.8600  222.9700 C   0  0  0  0  0  0  0  0  0  0  0  0
  142.4610   79.7990  223.5310 C   0  0  0  0  0  0  0  0  0  0  0  0
  141.8760   81.2030  223.5650 C   0  0  0  0  0  0  0  0  0  0  0  0
  140.4020   80.9480  223.5460 C   0  0  0  0  0  0  0  0  0  0  0  0
  140.2080   79.6880  222.7240 C   0  0  0  0  0  0  0  0  0  0  0  0
  135.6870   75.3830  224.1080 C   0  0  0  0  0  0  0  0  0  0  0  0
  135.7670   74.0460  223.7800 C   0  0  0  0  0  0  0  0  0  0  0  0
  134.9670   73.1710  224.5000 C   0  0  0  0  0  0  0  0  0  0  0  0
  134.1210   73.6050  225.5100 C   0  0  0  0  0  0  0  0  0  0  0  0
  133.3250   72.7380  226.2290 C   0  0  0  0  0  0  0  0  0  0  0  0
  132.4810   73.2060  227.2400 C   0  0  0  0  0  0  0  0  0  0  0  0
  131.7050   72.3300  227.9350 F   0  0  0  0  0  0  0  0  0  0  0  0
  132.4480   74.5710  227.5220 C   0  0  0  0  0  0  0  0  0  0  0  0
  133.2530   75.4090  226.7900 C   0  0  0  0  0  0  0  0  0  0  0  0
  134.0820   74.9450  225.7940 C   0  0  0  0  0  0  0  0  0  0  0  0
  134.8510   75.7990  225.1030 N   0  0  0  0  0  0  0  0  0  0  0  0
  138.1860   75.0640  223.3280 H   0  0  0  0  0  0  0  0  0  0  0  0
  138.2117   77.2532  221.3882 H   0  0  0  0  0  0  0  0  0  0  0  0
  138.9120   77.8124  222.9511 H   0  0  0  0  0  0  0  0  0  0  0  0
  142.4837   76.1171  220.0460 H   0  0  0  0  0  0  0  0  0  0  0  0
  140.8606   76.0957  219.3847 H   0  0  0  0  0  0  0  0  0  0  0  0
  142.8747   78.2039  219.1137 H   0  0  0  0  0  0  0  0  0  0  0  0
  141.2450   78.2643  218.4609 H   0  0  0  0  0  0  0  0  0  0  0  0
  140.3922   79.4045  220.4734 H   0  0  0  0  0  0  0  0  0  0  0  0
  142.9830   80.0890  220.9570 H   0  0  0  0  0  0  0  0  0  0  0  0
  142.8490   77.9286  221.9104 H   0  0  0  0  0  0  0  0  0  0  0  0
  141.3711   78.0440  223.7022 H   0  0  0  0  0  0  0  0  0  0  0  0
  142.7244   79.4868  224.5524 H   0  0  0  0  0  0  0  0  0  0  0  0
  143.3629   79.7930  222.9013 H   0  0  0  0  0  0  0  0  0  0  0  0
  142.1744   81.7346  224.4806 H   0  0  0  0  0  0  0  0  0  0  0  0
  142.2190   81.8381  222.7349 H   0  0  0  0  0  0  0  0  0  0  0  0
  140.0264   80.7989  224.5691 H   0  0  0  0  0  0  0  0  0  0  0  0
  139.8508   81.7982  223.1177 H   0  0  0  0  0  0  0  0  0  0  0  0
  139.3127   79.1428  223.0576 H   0  0  0  0  0  0  0  0  0  0  0  0
  140.0624   79.9096  221.6564 H   0  0  0  0  0  0  0  0  0  0  0  0
  136.4356   73.6892  222.9827 H   0  0  0  0  0  0  0  0  0  0  0  0
  135.0047   72.0977  224.2622 H   0  0  0  0  0  0  0  0  0  0  0  0
  133.3548   71.6618  226.0033 H   0  0  0  0  0  0  0  0  0  0  0  0
  131.7929   74.9672  228.3118 H   0  0  0  0  0  0  0  0  0  0  0  0
  133.2347   76.4872  227.0069 H   0  0  0  0  0  0  0  0  0  0  0  0
  1  2  2  0
  2  3  1  0
  3  4  1  0
  4  5  1  0
  5  6  2  0
  5  7  1  0
  7  8  1  0
  8  9  1  0
  9 10  1  0
 10 11  1  0
 10 12  1  0
 12 13  1  0
 13 14  1  0
 14 15  1  0
 15 16  1  0
 16 17  1  0
  2 18  1  0
 18 19  2  0
 19 20  1  0
 20 21  2  0
 21 22  1  0
 22 23  2  0
 23 24  1  0
 23 25  1  0
 25 26  2  0
 26 27  1  0
 27 28  2  0
 12  7  1  0
 17 13  1  0
 28 18  1  0
 27 21  1  0
  3 29  1  0
  4 30  1  0
  4 31  1  0
  8 32  1  0
  8 33  1  0
  9 34  1  0
  9 35  1  0
 10 36  1  1
 11 37  1  0
 12 38  1  1
 13 39  1  0
 14 40  1  0
 14 41  1  0
 15 42  1  0
 15 43  1  0
 16 44  1  0
 16 45  1  0
 17 46  1  0
 17 47  1  0
 19 48  1  0
 20 49  1  0
 22 50  1  0
 25 51  1  0
 26 52  1  0
M  END
>  <smiles>  (26) 
O=C(NCC(=O)N1CC[C@H](O)[C@H]1C1CCCC1)c1ccc2cc(F)ccc2n1

>  <score_type>  (26) 
oracle

>  <origin>  (26) 
autodockgpu

>  <m_score__min__energy>  (26) 
-8.7899999999999991

>  <m_primary>  (26) 
energy

>  <rmsd>  (26) 
6.062080645194758

>  <m_score__min__rmsd>  (26) 
6.062080645194758

>  <meeko>  (26) 
{"free_energy": -7.5, "intermolecular_energy": -9.29, "internal_energy": -1.82, "cluster_size": 4, "cluster_id": 4, "rank_in_cluster": 1}

>  <energy>  (26) 
-8.34

>  <cluster_rmsd>  (26) 
0.83

>  <cluster>  (26) 
1

$$$$

     RDKit          3D

 52 55  0  0  0  0  0  0  0  0999 V2000
  141.4340   72.3560  221.6810 O   0  0  0  0  0  0  0  0  0  0  0  0
  140.4500   72.5220  222.4780 C   0  0  0  0  0  0  0  0  0  0  0  0
  139.5460   73.6100  222.3160 N   0  0  0  0  0  0  0  0  0  0  0  0
  139.6970   74.5770  221.2450 C   0  0  0  0  0  0  0  0  0  0  0  0
  138.7570   75.7420  221.4590 C   0  0  0  0  0  0  0  0  0  0  0  0
  137.5440   75.4310  221.5170 O   0  0  0  0  0  0  0  0  0  0  0  0
  139.2880   77.0380  221.5720 N   0  0  0  0  0  0  0  0  0  0  0  0
  138.9820   77.9550  222.7030 C   0  0  0  0  0  0  0  0  0  0  0  0
  140.3100   78.6860  222.9330 C   0  0  0  0  0  0  0  0  0  0  0  0
  141.2330   78.1130  221.8640 C   0  0  2  0  0  0  0  0  0  0  0  0
  142.2150   78.9770  221.4560 O   0  0  0  0  0  0  0  0  0  0  0  0
  140.1900   77.8240  220.7730 C   0  0  1  0  0  0  0  0  0  0  0  0
  140.8240   77.1900  219.6060 C   0  0  0  0  0  0  0  0  0  0  0  0
  141.3070   78.0730  218.5180 C   0  0  0  0  0  0  0  0  0  0  0  0
  142.8160   77.9320  218.3830 C   0  0  0  0  0  0  0  0  0  0  0  0
  143.0810   76.5950  219.0020 C   0  0  0  0  0  0  0  0  0  0  0  0
  142.0480   76.4340  220.1010 C   0  0  0  0  0  0  0  0  0  0  0  0
  140.2440   71.5750  223.5820 C   0  0  0  0  0  0  0  0  0  0  0  0
  139.5720   70.3940  223.3480 C   0  0  0  0  0  0  0  0  0  0  0  0
  139.4060   69.5390  224.4260 C   0  0  0  0  0  0  0  0  0  0  0  0
  139.8890   69.8410  225.6910 C   0  0  0  0  0  0  0  0  0  0  0  0
  139.7270   68.9920  226.7660 C   0  0  0  0  0  0  0  0  0  0  0  0
  140.2250   69.3260  228.0290 C   0  0  0  0  0  0  0  0  0  0  0  0
  140.0510   68.4720  229.0730 F   0  0  0  0  0  0  0  0  0  0  0  0
  140.8950   70.5370  228.1970 C   0  0  0  0  0  0  0  0  0  0  0  0
  141.0420   71.3610  227.1090 C   0  0  0  0  0  0  0  0  0  0  0  0
  140.5500   71.0290  225.8670 C   0  0  0  0  0  0  0  0  0  0  0  0
  140.7150   71.8640  224.8300 N   0  0  0  0  0  0  0  0  0  0  0  0
  138.7600   73.6800  223.0130 H   0  0  0  0  0  0  0  0  0  0  0  0
  140.7338   74.9443  221.2302 H   0  0  0  0  0  0  0  0  0  0  0  0
  139.4572   74.0928  220.2869 H   0  0  0  0  0  0  0  0  0  0  0  0
  138.1844   78.6625  222.4321 H   0  0  0  0  0  0  0  0  0  0  0  0
  138.6195   77.4286  223.5983 H   0  0  0  0  0  0  0  0  0  0  0  0
  140.1870   79.7714  222.8032 H   0  0  0  0  0  0  0  0  0  0  0  0
  140.7012   78.5452  223.9514 H   0  0  0  0  0  0  0  0  0  0  0  0
  141.8321   77.2490  222.1874 H   0  0  0  0  0  0  0  0  0  0  0  0
  143.0880   78.4930  221.5480 H   0  0  0  0  0  0  0  0  0  0  0  0
  139.6789   78.6598  220.2727 H   0  0  0  0  0  0  0  0  0  0  0  0
  140.0207   76.5818  219.1648 H   0  0  0  0  0  0  0  0  0  0  0  0
  140.8257   77.7857  217.5716 H   0  0  0  0  0  0  0  0  0  0  0  0
  141.0559   79.1175  218.7546 H   0  0  0  0  0  0  0  0  0  0  0  0
  143.1224   77.9473  217.3266 H   0  0  0  0  0  0  0  0  0  0  0  0
  143.3743   78.7510  218.8600 H   0  0  0  0  0  0  0  0  0  0  0  0
  142.9699   75.7975  218.2525 H   0  0  0  0  0  0  0  0  0  0  0  0
  144.1053   76.5288  219.3975 H   0  0  0  0  0  0  0  0  0  0  0  0
  141.8097   75.3712  220.2547 H   0  0  0  0  0  0  0  0  0  0  0  0
  142.4087   76.8191  221.0662 H   0  0  0  0  0  0  0  0  0  0  0  0
  139.1848   70.1416  222.3498 H   0  0  0  0  0  0  0  0  0  0  0  0
  138.8733   68.5888  224.2735 H   0  0  0  0  0  0  0  0  0  0  0  0
  139.1979   68.0376  226.6275 H   0  0  0  0  0  0  0  0  0  0  0  0
  141.2968   70.8257  229.1794 H   0  0  0  0  0  0  0  0  0  0  0  0
  141.5702   72.3178  227.2337 H   0  0  0  0  0  0  0  0  0  0  0  0
  1  2  2  0
  2  3  1  0
  3  4  1  0
  4  5  1  0
  5  6  2  0
  5  7  1  0
  7  8  1  0
  8  9  1  0
  9 10  1  0
 10 11  1  0
 10 12  1  0
 12 13  1  0
 13 14  1  0
 14 15  1  0
 15 16  1  0
 16 17  1  0
  2 18  1  0
 18 19  2  0
 19 20  1  0
 20 21  2  0
 21 22  1  0
 22 23  2  0
 23 24  1  0
 23 25  1  0
 25 26  2  0
 26 27  1  0
 27 28  2  0
 12  7  1  0
 17 13  1  0
 28 18  1  0
 27 21  1  0
  3 29  1  0
  4 30  1  0
  4 31  1  0
  8 32  1  0
  8 33  1  0
  9 34  1  0
  9 35  1  0
 10 36  1  1
 11 37  1  0
 12 38  1  6
 13 39  1  0
 14 40  1  0
 14 41  1  0
 15 42  1  0
 15 43  1  0
 16 44  1  0
 16 45  1  0
 17 46  1  0
 17 47  1  0
 19 48  1  0
 20 49  1  0
 22 50  1  0
 25 51  1  0
 26 52  1  0
M  END
>  <smiles>  (27) 
O=C(NCC(=O)N1CC[C@H](O)[C@H]1C1CCCC1)c1ccc2cc(F)ccc2n1

>  <score_type>  (27) 
oracle

>  <origin>  (27) 
autodockgpu

>  <m_score__min__energy>  (27) 
-8.7899999999999991

>  <m_primary>  (27) 
energy

>  <rmsd>  (27) 
3.207342043428269

>  <m_score__min__rmsd>  (27) 
3.207342043428269

>  <meeko>  (27) 
{"free_energy": -7.68, "intermolecular_energy": -9.47, "internal_energy": -1.41, "cluster_size": 40, "cluster_id": 1, "rank_in_cluster": 40}

>  <energy>  (27) 
-8.33

>  <cluster_rmsd>  (27) 
0.46

>  <cluster>  (27) 
1

$$$$

     RDKit          3D

 52 55  0  0  0  0  0  0  0  0999 V2000
  136.0050   77.4850  223.0750 O   0  0  0  0  0  0  0  0  0  0  0  0
  136.5010   76.3510  223.3850 C   0  0  0  0  0  0  0  0  0  0  0  0
  137.8420   76.0160  223.0480 N   0  0  0  0  0  0  0  0  0  0  0  0
  138.7060   76.9410  222.3400 C   0  0  0  0  0  0  0  0  0  0  0  0
  139.9780   76.2430  221.9130 C   0  0  0  0  0  0  0  0  0  0  0  0
  140.0010   75.0110  222.1450 O   0  0  0  0  0  0  0  0  0  0  0  0
  141.0020   76.9930  221.3130 N   0  0  0  0  0  0  0  0  0  0  0  0
  141.5620   76.6920  219.9670 C   0  0  0  0  0  0  0  0  0  0  0  0
  141.8370   78.0810  219.3800 C   0  0  0  0  0  0  0  0  0  0  0  0
  141.4250   79.0370  220.4940 C   0  0  2  0  0  0  0  0  0  0  0  0
  142.1080   80.2250  220.4880 O   0  0  0  0  0  0  0  0  0  0  0  0
  141.7570   78.1540  221.7060 C   0  0  1  0  0  0  0  0  0  0  0  0
  141.3890   78.8350  222.9590 C   0  0  0  0  0  0  0  0  0  0  0  0
  142.3870   79.7460  223.5670 C   0  0  0  0  0  0  0  0  0  0  0  0
  141.8300   81.1620  223.5950 C   0  0  0  0  0  0  0  0  0  0  0  0
  140.3520   80.9390  223.5170 C   0  0  0  0  0  0  0  0  0  0  0  0
  140.1640   79.6920  222.6740 C   0  0  0  0  0  0  0  0  0  0  0  0
  135.6740   75.3710  224.1040 C   0  0  0  0  0  0  0  0  0  0  0  0
  135.7470   74.0380  223.7590 C   0  0  0  0  0  0  0  0  0  0  0  0
  134.9460   73.1570  224.4690 C   0  0  0  0  0  0  0  0  0  0  0  0
  134.1030   73.5820  225.4850 C   0  0  0  0  0  0  0  0  0  0  0  0
  133.3040   72.7090  226.1950 C   0  0  0  0  0  0  0  0  0  0  0  0
  132.4640   73.1670  227.2140 C   0  0  0  0  0  0  0  0  0  0  0  0
  131.6860   72.2860  227.8990 F   0  0  0  0  0  0  0  0  0  0  0  0
  132.4390   74.5300  227.5130 C   0  0  0  0  0  0  0  0  0  0  0  0
  133.2450   75.3730  226.7900 C   0  0  0  0  0  0  0  0  0  0  0  0
  134.0700   74.9180  225.7870 C   0  0  0  0  0  0  0  0  0  0  0  0
  134.8420   75.7780  225.1050 N   0  0  0  0  0  0  0  0  0  0  0  0
  138.1790   75.0610  223.3380 H   0  0  0  0  0  0  0  0  0  0  0  0
  138.1821   77.3189  221.4496 H   0  0  0  0  0  0  0  0  0  0  0  0
  138.9615   77.7770  223.0077 H   0  0  0  0  0  0  0  0  0  0  0  0
  142.4905   76.1078  220.0483 H   0  0  0  0  0  0  0  0  0  0  0  0
  140.8851   76.0883  219.3446 H   0  0  0  0  0  0  0  0  0  0  0  0
  142.9033   78.1993  219.1370 H   0  0  0  0  0  0  0  0  0  0  0  0
  141.2910   78.2613  218.4422 H   0  0  0  0  0  0  0  0  0  0  0  0
  140.3850   79.3908  220.4369 H   0  0  0  0  0  0  0  0  0  0  0  0
  142.9740   80.0680  220.9680 H   0  0  0  0  0  0  0  0  0  0  0  0
  142.8059   77.9096  221.9298 H   0  0  0  0  0  0  0  0  0  0  0  0
  141.2531   78.0144  223.6788 H   0  0  0  0  0  0  0  0  0  0  0  0
  142.6057   79.4176  224.5938 H   0  0  0  0  0  0  0  0  0  0  0  0
  143.3116   79.7272  222.9714 H   0  0  0  0  0  0  0  0  0  0  0  0
  142.1042   81.6772  224.5274 H   0  0  0  0  0  0  0  0  0  0  0  0
  142.2176   81.7983  222.7857 H   0  0  0  0  0  0  0  0  0  0  0  0
  139.9343   80.7873  224.5232 H   0  0  0  0  0  0  0  0  0  0  0  0
  139.8353   81.8052  223.0779 H   0  0  0  0  0  0  0  0  0  0  0  0
  139.2453   79.1625  222.9666 H   0  0  0  0  0  0  0  0  0  0  0  0
  140.0647   79.9278  221.6042 H   0  0  0  0  0  0  0  0  0  0  0  0
  136.4119   73.6888  222.9553 H   0  0  0  0  0  0  0  0  0  0  0  0
  134.9801   72.0864  224.2185 H   0  0  0  0  0  0  0  0  0  0  0  0
  133.3286   71.6357  225.9552 H   0  0  0  0  0  0  0  0  0  0  0  0
  131.7883   74.9195  228.3098 H   0  0  0  0  0  0  0  0  0  0  0  0
  133.2311   76.4486  227.0199 H   0  0  0  0  0  0  0  0  0  0  0  0
  1  2  2  0
  2  3  1  0
  3  4  1  0
  4  5  1  0
  5  6  2  0
  5  7  1  0
  7  8  1  0
  8  9  1  0
  9 10  1  0
 10 11  1  0
 10 12  1  0
 12 13  1  0
 13 14  1  0
 14 15  1  0
 15 16  1  0
 16 17  1  0
  2 18  1  0
 18 19  2  0
 19 20  1  0
 20 21  2  0
 21 22  1  0
 22 23  2  0
 23 24  1  0
 23 25  1  0
 25 26  2  0
 26 27  1  0
 27 28  2  0
 12  7  1  0
 17 13  1  0
 28 18  1  0
 27 21  1  0
  3 29  1  0
  4 30  1  0
  4 31  1  0
  8 32  1  0
  8 33  1  0
  9 34  1  0
  9 35  1  0
 10 36  1  6
 11 37  1  0
 12 38  1  1
 13 39  1  0
 14 40  1  0
 14 41  1  0
 15 42  1  0
 15 43  1  0
 16 44  1  0
 16 45  1  0
 17 46  1  0
 17 47  1  0
 19 48  1  0
 20 49  1  0
 22 50  1  0
 25 51  1  0
 26 52  1  0
M  END
>  <smiles>  (28) 
O=C(NCC(=O)N1CC[C@H](O)[C@H]1C1CCCC1)c1ccc2cc(F)ccc2n1

>  <score_type>  (28) 
oracle

>  <origin>  (28) 
autodockgpu

>  <m_score__min__energy>  (28) 
-8.7899999999999991

>  <m_primary>  (28) 
energy

>  <rmsd>  (28) 
6.059620414516131

>  <m_score__min__rmsd>  (28) 
6.059620414516131

>  <meeko>  (28) 
{"free_energy": -7.49, "intermolecular_energy": -9.28, "internal_energy": -1.79, "cluster_size": 4, "cluster_id": 4, "rank_in_cluster": 2}

>  <energy>  (28) 
-8.31

>  <cluster_rmsd>  (28) 
0.49

>  <cluster>  (28) 
1

$$$$

     RDKit          3D

 52 55  0  0  0  0  0  0  0  0999 V2000
  141.2250   72.1370  221.3960 O   0  0  0  0  0  0  0  0  0  0  0  0
  140.4400   72.5110  222.3310 C   0  0  0  0  0  0  0  0  0  0  0  0
  139.7960   73.7800  222.2890 N   0  0  0  0  0  0  0  0  0  0  0  0
  139.9990   74.7040  221.1890 C   0  0  0  0  0  0  0  0  0  0  0  0
  140.1450   76.1150  221.7150 C   0  0  0  0  0  0  0  0  0  0  0  0
  139.3570   76.4110  222.6440 O   0  0  0  0  0  0  0  0  0  0  0  0
  141.1140   76.9590  221.1490 N   0  0  0  0  0  0  0  0  0  0  0  0
  141.6670   76.7730  219.7800 C   0  0  0  0  0  0  0  0  0  0  0  0
  141.8520   78.2090  219.2760 C   0  0  0  0  0  0  0  0  0  0  0  0
  141.4050   79.0690  220.4520 C   0  0  2  0  0  0  0  0  0  0  0  0
  142.0190   80.2930  220.5090 O   0  0  0  0  0  0  0  0  0  0  0  0
  141.8080   78.1360  221.6030 C   0  0  1  0  0  0  0  0  0  0  0  0
  141.4240   78.7170  222.9000 C   0  0  0  0  0  0  0  0  0  0  0  0
  142.3440   79.7010  223.5150 C   0  0  0  0  0  0  0  0  0  0  0  0
  141.6420   81.0470  223.6320 C   0  0  0  0  0  0  0  0  0  0  0  0
  140.1950   80.6690  223.5980 C   0  0  0  0  0  0  0  0  0  0  0  0
  140.1040   79.4480  222.7030 C   0  0  0  0  0  0  0  0  0  0  0  0
  140.1950   71.6180  223.4720 C   0  0  0  0  0  0  0  0  0  0  0  0
  139.4340   70.4820  223.2940 C   0  0  0  0  0  0  0  0  0  0  0  0
  139.2340   69.6760  224.4040 C   0  0  0  0  0  0  0  0  0  0  0  0
  139.7700   69.9840  225.6460 C   0  0  0  0  0  0  0  0  0  0  0  0
  139.5740   69.1850  226.7530 C   0  0  0  0  0  0  0  0  0  0  0  0
  140.1260   69.5220  227.9920 C   0  0  0  0  0  0  0  0  0  0  0  0
  139.9180   68.7170  229.0690 F   0  0  0  0  0  0  0  0  0  0  0  0
  140.8860   70.6870  228.1040 C   0  0  0  0  0  0  0  0  0  0  0  0
  141.0640   71.4620  226.9840 C   0  0  0  0  0  0  0  0  0  0  0  0
  140.5180   71.1260  225.7660 C   0  0  0  0  0  0  0  0  0  0  0  0
  140.7170   71.9120  224.6980 N   0  0  0  0  0  0  0  0  0  0  0  0
  139.1640   74.0170  223.0970 H   0  0  0  0  0  0  0  0  0  0  0  0
  140.9112   74.4235  220.6419 H   0  0  0  0  0  0  0  0  0  0  0  0
  139.1300   74.6589  220.5161 H   0  0  0  0  0  0  0  0  0  0  0  0
  142.6286   76.2399  219.8126 H   0  0  0  0  0  0  0  0  0  0  0  0
  141.0153   76.1697  219.1309 H   0  0  0  0  0  0  0  0  0  0  0  0
  142.9055   78.4038  219.0265 H   0  0  0  0  0  0  0  0  0  0  0  0
  141.2810   78.4141  218.3585 H   0  0  0  0  0  0  0  0  0  0  0  0
  140.3453   79.3634  220.4314 H   0  0  0  0  0  0  0  0  0  0  0  0
  142.9350   80.1450  220.8880 H   0  0  0  0  0  0  0  0  0  0  0  0
  142.8728   77.9402  221.7978 H   0  0  0  0  0  0  0  0  0  0  0  0
  141.4072   77.8554  223.5836 H   0  0  0  0  0  0  0  0  0  0  0  0
  142.6380   79.3524  224.5160 H   0  0  0  0  0  0  0  0  0  0  0  0
  143.2403   79.8080  222.8864 H   0  0  0  0  0  0  0  0  0  0  0  0
  141.8989   81.5472  224.5774 H   0  0  0  0  0  0  0  0  0  0  0  0
  141.9258   81.7568  222.8411 H   0  0  0  0  0  0  0  0  0  0  0  0
  139.8387   80.4284  224.6105 H   0  0  0  0  0  0  0  0  0  0  0  0
  139.5716   81.4930  223.2207 H   0  0  0  0  0  0  0  0  0  0  0  0
  139.2599   78.8100  223.0038 H   0  0  0  0  0  0  0  0  0  0  0  0
  139.9343   79.7186  221.6504 H   0  0  0  0  0  0  0  0  0  0  0  0
  139.0044   70.2265  222.3141 H   0  0  0  0  0  0  0  0  0  0  0  0
  138.6307   68.7625  224.2965 H   0  0  0  0  0  0  0  0  0  0  0  0
  138.9737   68.2680  226.6593 H   0  0  0  0  0  0  0  0  0  0  0  0
  141.3320   70.9778  229.0665 H   0  0  0  0  0  0  0  0  0  0  0  0
  141.6626   72.3815  227.0631 H   0  0  0  0  0  0  0  0  0  0  0  0
  1  2  2  0
  2  3  1  0
  3  4  1  0
  4  5  1  0
  5  6  2  0
  5  7  1  0
  7  8  1  0
  8  9  1  0
  9 10  1  0
 10 11  1  0
 10 12  1  0
 12 13  1  0
 13 14  1  0
 14 15  1  0
 15 16  1  0
 16 17  1  0
  2 18  1  0
 18 19  2  0
 19 20  1  0
 20 21  2  0
 21 22  1  0
 22 23  2  0
 23 24  1  0
 23 25  1  0
 25 26  2  0
 26 27  1  0
 27 28  2  0
 12  7  1  0
 17 13  1  0
 28 18  1  0
 27 21  1  0
  3 29  1  0
  4 30  1  0
  4 31  1  0
  8 32  1  0
  8 33  1  0
  9 34  1  0
  9 35  1  0
 10 36  1  6
 11 37  1  0
 12 38  1  1
 13 39  1  0
 14 40  1  0
 14 41  1  0
 15 42  1  0
 15 43  1  0
 16 44  1  0
 16 45  1  0
 17 46  1  0
 17 47  1  0
 19 48  1  0
 20 49  1  0
 22 50  1  0
 25 51  1  0
 26 52  1  0
M  END
>  <smiles>  (29) 
O=C(NCC(=O)N1CC[C@H](O)[C@H]1C1CCCC1)c1ccc2cc(F)ccc2n1

>  <score_type>  (29) 
oracle

>  <origin>  (29) 
autodockgpu

>  <m_score__min__energy>  (29) 
-8.7899999999999991

>  <m_primary>  (29) 
energy

>  <rmsd>  (29) 
2.8871878080500903

>  <m_score__min__rmsd>  (29) 
2.8871878080500903

>  <meeko>  (29) 
{"free_energy": -8.74, "intermolecular_energy": -10.53, "internal_energy": -1.58, "cluster_size": 40, "cluster_id": 1, "rank_in_cluster": 7}

>  <energy>  (29) 
-8.31

>  <cluster_rmsd>  (29) 
0.47

>  <cluster>  (29) 
1

$$$$

     RDKit          3D

 52 55  0  0  0  0  0  0  0  0999 V2000
  140.8980   71.9460  221.1850 O   0  0  0  0  0  0  0  0  0  0  0  0
  140.3610   72.3980  222.2510 C   0  0  0  0  0  0  0  0  0  0  0  0
  139.9370   73.7530  222.3460 N   0  0  0  0  0  0  0  0  0  0  0  0
  140.0920   74.6820  221.2430 C   0  0  0  0  0  0  0  0  0  0  0  0
  140.2270   76.0950  221.7670 C   0  0  0  0  0  0  0  0  0  0  0  0
  139.4660   76.3720  222.7230 O   0  0  0  0  0  0  0  0  0  0  0  0
  141.1580   76.9600  221.1690 N   0  0  0  0  0  0  0  0  0  0  0  0
  141.7070   76.7580  219.8010 C   0  0  0  0  0  0  0  0  0  0  0  0
  141.8320   78.1860  219.2560 C   0  0  0  0  0  0  0  0  0  0  0  0
  141.3600   79.0600  220.4120 C   0  0  2  0  0  0  0  0  0  0  0  0
  141.9260   80.3080  220.4310 O   0  0  0  0  0  0  0  0  0  0  0  0
  141.8080   78.1750  221.5850 C   0  0  1  0  0  0  0  0  0  0  0  0
  141.4120   78.7760  222.8690 C   0  0  0  0  0  0  0  0  0  0  0  0
  142.3380   79.7520  223.4890 C   0  0  0  0  0  0  0  0  0  0  0  0
  141.6560   81.1100  223.5810 C   0  0  0  0  0  0  0  0  0  0  0  0
  140.2040   80.7560  223.5260 C   0  0  0  0  0  0  0  0  0  0  0  0
  140.1080   79.5270  222.6420 C   0  0  0  0  0  0  0  0  0  0  0  0
  140.1770   71.5040  223.4040 C   0  0  0  0  0  0  0  0  0  0  0  0
  139.5830   70.2740  223.2210 C   0  0  0  0  0  0  0  0  0  0  0  0
  139.4330   69.4730  224.3420 C   0  0  0  0  0  0  0  0  0  0  0  0
  139.8590   69.8750  225.6000 C   0  0  0  0  0  0  0  0  0  0  0  0
  139.7130   69.0800  226.7180 C   0  0  0  0  0  0  0  0  0  0  0  0
  140.1510   69.5150  227.9720 C   0  0  0  0  0  0  0  0  0  0  0  0
  139.9950   68.7120  229.0600 F   0  0  0  0  0  0  0  0  0  0  0  0
  140.7450   70.7720  228.0880 C   0  0  0  0  0  0  0  0  0  0  0  0
  140.8770   71.5390  226.9570 C   0  0  0  0  0  0  0  0  0  0  0  0
  140.4430   71.1080  225.7240 C   0  0  0  0  0  0  0  0  0  0  0  0
  140.5920   71.8910  224.6450 N   0  0  0  0  0  0  0  0  0  0  0  0
  139.5040   74.0500  223.2590 H   0  0  0  0  0  0  0  0  0  0  0  0
  140.9934   74.4190  220.6700 H   0  0  0  0  0  0  0  0  0  0  0  0
  139.2052   74.6220  220.5950 H   0  0  0  0  0  0  0  0  0  0  0  0
  142.6889   76.2637  219.8396 H   0  0  0  0  0  0  0  0  0  0  0  0
  141.0742   76.1122  219.1745 H   0  0  0  0  0  0  0  0  0  0  0  0
  142.8752   78.4148  218.9925 H   0  0  0  0  0  0  0  0  0  0  0  0
  141.2469   78.3432  218.3379 H   0  0  0  0  0  0  0  0  0  0  0  0
  140.2895   79.3121  220.3920 H   0  0  0  0  0  0  0  0  0  0  0  0
  142.8800   80.1940  220.7180 H   0  0  0  0  0  0  0  0  0  0  0  0
  142.8810   78.0263  221.7761 H   0  0  0  0  0  0  0  0  0  0  0  0
  141.3692   77.9220  223.5610 H   0  0  0  0  0  0  0  0  0  0  0  0
  142.6103   79.4092  224.4981 H   0  0  0  0  0  0  0  0  0  0  0  0
  143.2459   79.8383  222.8739 H   0  0  0  0  0  0  0  0  0  0  0  0
  141.9051   81.6153  224.5258 H   0  0  0  0  0  0  0  0  0  0  0  0
  141.9647   81.8069  222.7879 H   0  0  0  0  0  0  0  0  0  0  0  0
  139.8265   80.5321  224.5346 H   0  0  0  0  0  0  0  0  0  0  0  0
  139.6010   81.5862  223.1297 H   0  0  0  0  0  0  0  0  0  0  0  0
  139.2483   78.9063  222.9348 H   0  0  0  0  0  0  0  0  0  0  0  0
  139.9610   79.7894  221.5839 H   0  0  0  0  0  0  0  0  0  0  0  0
  139.2429   69.9426  222.2288 H   0  0  0  0  0  0  0  0  0  0  0  0
  138.9606   68.4858  224.2308 H   0  0  0  0  0  0  0  0  0  0  0  0
  139.2450   68.0892  226.6211 H   0  0  0  0  0  0  0  0  0  0  0  0
  141.0991   71.1398  229.0623 H   0  0  0  0  0  0  0  0  0  0  0  0
  141.3452   72.5310  227.0390 H   0  0  0  0  0  0  0  0  0  0  0  0
  1  2  2  0
  2  3  1  0
  3  4  1  0
  4  5  1  0
  5  6  2  0
  5  7  1  0
  7  8  1  0
  8  9  1  0
  9 10  1  0
 10 11  1  0
 10 12  1  0
 12 13  1  0
 13 14  1  0
 14 15  1  0
 15 16  1  0
 16 17  1  0
  2 18  1  0
 18 19  2  0
 19 20  1  0
 20 21  2  0
 21 22  1  0
 22 23  2  0
 23 24  1  0
 23 25  1  0
 25 26  2  0
 26 27  1  0
 27 28  2  0
 12  7  1  0
 17 13  1  0
 28 18  1  0
 27 21  1  0
  3 29  1  0
  4 30  1  0
  4 31  1  0
  8 32  1  0
  8 33  1  0
  9 34  1  0
  9 35  1  0
 10 36  1  6
 11 37  1  0
 12 38  1  1
 13 39  1  0
 14 40  1  0
 14 41  1  0
 15 42  1  0
 15 43  1  0
 16 44  1  0
 16 45  1  0
 17 46  1  0
 17 47  1  0
 19 48  1  0
 20 49  1  0
 22 50  1  0
 25 51  1  0
 26 52  1  0
M  END
>  <smiles>  (30) 
O=C(NCC(=O)N1CC[C@H](O)[C@H]1C1CCCC1)c1ccc2cc(F)ccc2n1

>  <score_type>  (30) 
oracle

>  <origin>  (30) 
autodockgpu

>  <m_score__min__energy>  (30) 
-8.7899999999999991

>  <m_primary>  (30) 
energy

>  <rmsd>  (30) 
2.8564711584223583

>  <m_score__min__rmsd>  (30) 
2.8564711584223583

>  <meeko>  (30) 
{"free_energy": -8.62, "intermolecular_energy": -10.41, "internal_energy": -1.7, "cluster_size": 40, "cluster_id": 1, "rank_in_cluster": 15}

>  <energy>  (30) 
-8.3

>  <cluster_rmsd>  (30) 
0.73

>  <cluster>  (30) 
1

$$$$

     RDKit          3D

 52 55  0  0  0  0  0  0  0  0999 V2000
  141.2440   72.1870  221.4320 O   0  0  0  0  0  0  0  0  0  0  0  0
  140.4160   72.5150  222.3460 C   0  0  0  0  0  0  0  0  0  0  0  0
  139.7130   73.7520  222.2940 N   0  0  0  0  0  0  0  0  0  0  0  0
  139.9010   74.6930  221.2070 C   0  0  0  0  0  0  0  0  0  0  0  0
  140.1240   76.0850  221.7550 C   0  0  0  0  0  0  0  0  0  0  0  0
  139.3830   76.3930  222.7180 O   0  0  0  0  0  0  0  0  0  0  0  0
  141.1060   76.9010  221.1700 N   0  0  0  0  0  0  0  0  0  0  0  0
  141.6750   76.6610  219.8160 C   0  0  0  0  0  0  0  0  0  0  0  0
  141.8760   78.0760  219.2620 C   0  0  0  0  0  0  0  0  0  0  0  0
  141.4200   78.9830  220.4000 C   0  0  2  0  0  0  0  0  0  0  0  0
  142.0410   80.2040  220.4200 O   0  0  0  0  0  0  0  0  0  0  0  0
  141.8010   78.0900  221.5900 C   0  0  1  0  0  0  0  0  0  0  0  0
  141.4050   78.7210  222.8590 C   0  0  0  0  0  0  0  0  0  0  0  0
  142.3370   79.7010  223.4640 C   0  0  0  0  0  0  0  0  0  0  0  0
  141.6690   81.0660  223.5240 C   0  0  0  0  0  0  0  0  0  0  0  0
  140.2130   80.7260  223.4690 C   0  0  0  0  0  0  0  0  0  0  0  0
  140.1090   79.4800  222.6100 C   0  0  0  0  0  0  0  0  0  0  0  0
  140.1820   71.6030  223.4750 C   0  0  0  0  0  0  0  0  0  0  0  0
  139.4400   70.4570  223.2790 C   0  0  0  0  0  0  0  0  0  0  0  0
  139.2510   69.6340  224.3780 C   0  0  0  0  0  0  0  0  0  0  0  0
  139.7790   69.9330  225.6250 C   0  0  0  0  0  0  0  0  0  0  0  0
  139.5940   69.1150  226.7210 C   0  0  0  0  0  0  0  0  0  0  0  0
  140.1380   69.4440  227.9660 C   0  0  0  0  0  0  0  0  0  0  0  0
  139.9410   68.6220  229.0310 F   0  0  0  0  0  0  0  0  0  0  0  0
  140.8790   70.6190  228.0950 C   0  0  0  0  0  0  0  0  0  0  0  0
  141.0470   71.4120  226.9860 C   0  0  0  0  0  0  0  0  0  0  0  0
  140.5090   71.0840  225.7630 C   0  0  0  0  0  0  0  0  0  0  0  0
  140.6970   71.8880  224.7060 N   0  0  0  0  0  0  0  0  0  0  0  0
  139.0480   73.9520  223.0860 H   0  0  0  0  0  0  0  0  0  0  0  0
  140.7763   74.3918  220.6127 H   0  0  0  0  0  0  0  0  0  0  0  0
  139.0010   74.6958  220.5745 H   0  0  0  0  0  0  0  0  0  0  0  0
  142.6325   76.1234  219.8806 H   0  0  0  0  0  0  0  0  0  0  0  0
  141.0276   76.0382  219.1812 H   0  0  0  0  0  0  0  0  0  0  0  0
  142.9338   78.2546  219.0189 H   0  0  0  0  0  0  0  0  0  0  0  0
  141.3176   78.2504  218.3305 H   0  0  0  0  0  0  0  0  0  0  0  0
  140.3630   79.2841  220.3543 H   0  0  0  0  0  0  0  0  0  0  0  0
  142.9370   80.0710  220.8490 H   0  0  0  0  0  0  0  0  0  0  0  0
  142.8616   77.8943  221.8065 H   0  0  0  0  0  0  0  0  0  0  0  0
  141.3512   77.8816  223.5679 H   0  0  0  0  0  0  0  0  0  0  0  0
  142.6003   79.3766  224.4816 H   0  0  0  0  0  0  0  0  0  0  0  0
  143.2489   79.7657  222.8522 H   0  0  0  0  0  0  0  0  0  0  0  0
  141.9187   81.5884  224.4593 H   0  0  0  0  0  0  0  0  0  0  0  0
  141.9886   81.7428  222.7179 H   0  0  0  0  0  0  0  0  0  0  0  0
  139.8282   80.5269  224.4801 H   0  0  0  0  0  0  0  0  0  0  0  0
  139.6204   81.5540  223.0528 H   0  0  0  0  0  0  0  0  0  0  0  0
  139.2419   78.8739  222.9113 H   0  0  0  0  0  0  0  0  0  0  0  0
  139.9695   79.7219  221.5460 H   0  0  0  0  0  0  0  0  0  0  0  0
  139.0172   70.2074  222.2946 H   0  0  0  0  0  0  0  0  0  0  0  0
  138.6624   68.7126  224.2571 H   0  0  0  0  0  0  0  0  0  0  0  0
  139.0093   68.1895  226.6132 H   0  0  0  0  0  0  0  0  0  0  0  0
  141.3185   70.9038  229.0623 H   0  0  0  0  0  0  0  0  0  0  0  0
  141.6308   72.3397  227.0788 H   0  0  0  0  0  0  0  0  0  0  0  0
  1  2  2  0
  2  3  1  0
  3  4  1  0
  4  5  1  0
  5  6  2  0
  5  7  1  0
  7  8  1  0
  8  9  1  0
  9 10  1  0
 10 11  1  0
 10 12  1  0
 12 13  1  0
 13 14  1  0
 14 15  1  0
 15 16  1  0
 16 17  1  0
  2 18  1  0
 18 19  2  0
 19 20  1  0
 20 21  2  0
 21 22  1  0
 22 23  2  0
 23 24  1  0
 23 25  1  0
 25 26  2  0
 26 27  1  0
 27 28  2  0
 12  7  1  0
 17 13  1  0
 28 18  1  0
 27 21  1  0
  3 29  1  0
  4 30  1  0
  4 31  1  0
  8 32  1  0
  8 33  1  0
  9 34  1  0
  9 35  1  0
 10 36  1  6
 11 37  1  0
 12 38  1  1
 13 39  1  0
 14 40  1  0
 14 41  1  0
 15 42  1  0
 15 43  1  0
 16 44  1  0
 16 45  1  0
 17 46  1  0
 17 47  1  0
 19 48  1  0
 20 49  1  0
 22 50  1  0
 25 51  1  0
 26 52  1  0
M  END
>  <smiles>  (31) 
O=C(NCC(=O)N1CC[C@H](O)[C@H]1C1CCCC1)c1ccc2cc(F)ccc2n1

>  <score_type>  (31) 
oracle

>  <origin>  (31) 
autodockgpu

>  <m_score__min__energy>  (31) 
-8.7899999999999991

>  <m_primary>  (31) 
energy

>  <rmsd>  (31) 
2.842235680283357

>  <m_score__min__rmsd>  (31) 
2.842235680283357

>  <meeko>  (31) 
{"free_energy": -8.79, "intermolecular_energy": -10.58, "internal_energy": -1.53, "cluster_size": 40, "cluster_id": 1, "rank_in_cluster": 1}

>  <energy>  (31) 
-8.29

>  <cluster_rmsd>  (31) 
0.51

>  <cluster>  (31) 
1

$$$$

     RDKit          3D

 52 55  0  0  0  0  0  0  0  0999 V2000
  141.2450   72.3260  221.5140 O   0  0  0  0  0  0  0  0  0  0  0  0
  140.3310   72.5160  222.3840 C   0  0  0  0  0  0  0  0  0  0  0  0
  139.4490   73.6300  222.2960 N   0  0  0  0  0  0  0  0  0  0  0  0
  139.5450   74.5980  221.2200 C   0  0  0  0  0  0  0  0  0  0  0  0
  139.7300   75.9890  221.7850 C   0  0  0  0  0  0  0  0  0  0  0  0
  138.8600   76.3340  222.6190 O   0  0  0  0  0  0  0  0  0  0  0  0
  140.8180   76.7640  221.3520 N   0  0  0  0  0  0  0  0  0  0  0  0
  141.5660   76.5000  220.0920 C   0  0  0  0  0  0  0  0  0  0  0  0
  141.9020   77.9060  219.5810 C   0  0  0  0  0  0  0  0  0  0  0  0
  141.3250   78.8300  220.6470 C   0  0  2  0  0  0  0  0  0  0  0  0
  141.9860   80.0250  220.7630 O   0  0  0  0  0  0  0  0  0  0  0  0
  141.4940   77.9220  221.8740 C   0  0  1  0  0  0  0  0  0  0  0  0
  140.9450   78.5700  223.0770 C   0  0  0  0  0  0  0  0  0  0  0  0
  141.8320   79.4830  223.8350 C   0  0  0  0  0  0  0  0  0  0  0  0
  141.2490   80.8890  223.8130 C   0  0  0  0  0  0  0  0  0  0  0  0
  139.8010   80.6430  223.5280 C   0  0  0  0  0  0  0  0  0  0  0  0
  139.7540   79.4110  222.6430 C   0  0  0  0  0  0  0  0  0  0  0  0
  140.1840   71.5700  223.4990 C   0  0  0  0  0  0  0  0  0  0  0  0
  139.5650   70.3560  223.2820 C   0  0  0  0  0  0  0  0  0  0  0  0
  139.4530   69.5030  224.3680 C   0  0  0  0  0  0  0  0  0  0  0  0
  139.9370   69.8380  225.6240 C   0  0  0  0  0  0  0  0  0  0  0  0
  139.8280   68.9910  226.7080 C   0  0  0  0  0  0  0  0  0  0  0  0
  140.3250   69.3580  227.9620 C   0  0  0  0  0  0  0  0  0  0  0  0
  140.2050   68.5050  229.0150 F   0  0  0  0  0  0  0  0  0  0  0  0
  140.9400   70.6010  228.1130 C   0  0  0  0  0  0  0  0  0  0  0  0
  141.0340   71.4220  227.0160 C   0  0  0  0  0  0  0  0  0  0  0  0
  140.5430   71.0570  225.7830 C   0  0  0  0  0  0  0  0  0  0  0  0
  140.6560   71.8900  224.7380 N   0  0  0  0  0  0  0  0  0  0  0  0
  138.7220   73.7190  223.0520 H   0  0  0  0  0  0  0  0  0  0  0  0
  140.4050   74.3477  220.5814 H   0  0  0  0  0  0  0  0  0  0  0  0
  138.6180   74.5708  220.6284 H   0  0  0  0  0  0  0  0  0  0  0  0
  142.4815   75.9235  220.2905 H   0  0  0  0  0  0  0  0  0  0  0  0
  140.9921   75.9040  219.3672 H   0  0  0  0  0  0  0  0  0  0  0  0
  142.9901   78.0410  219.4932 H   0  0  0  0  0  0  0  0  0  0  0  0
  141.4907   78.1035  218.5801 H   0  0  0  0  0  0  0  0  0  0  0  0
  140.2985   79.1742  220.4523 H   0  0  0  0  0  0  0  0  0  0  0  0
  142.9320   79.8130  221.0190 H   0  0  0  0  0  0  0  0  0  0  0  0
  142.5034   77.6820  222.2393 H   0  0  0  0  0  0  0  0  0  0  0  0
  140.7282   77.7320  223.7558 H   0  0  0  0  0  0  0  0  0  0  0  0
  141.9131   79.1357  224.8756 H   0  0  0  0  0  0  0  0  0  0  0  0
  142.8304   79.4922  223.3733 H   0  0  0  0  0  0  0  0  0  0  0  0
  141.3824   81.3885  224.7839 H   0  0  0  0  0  0  0  0  0  0  0  0
  141.7316   81.5491  223.0773 H   0  0  0  0  0  0  0  0  0  0  0  0
  139.2522   80.4627  224.4641 H   0  0  0  0  0  0  0  0  0  0  0  0
  139.3331   81.5098  223.0383 H   0  0  0  0  0  0  0  0  0  0  0  0
  138.8146   78.8598  222.7970 H   0  0  0  0  0  0  0  0  0  0  0  0
  139.7965   79.6677  221.5742 H   0  0  0  0  0  0  0  0  0  0  0  0
  139.1776   70.0778  222.2908 H   0  0  0  0  0  0  0  0  0  0  0  0
  138.9639   68.5275  224.2296 H   0  0  0  0  0  0  0  0  0  0  0  0
  139.3425   68.0118  226.5834 H   0  0  0  0  0  0  0  0  0  0  0  0
  141.3403   70.9162  229.0879 H   0  0  0  0  0  0  0  0  0  0  0  0
  141.5177   72.4038  227.1264 H   0  0  0  0  0  0  0  0  0  0  0  0
  1  2  2  0
  2  3  1  0
  3  4  1  0
  4  5  1  0
  5  6  2  0
  5  7  1  0
  7  8  1  0
  8  9  1  0
  9 10  1  0
 10 11  1  0
 10 12  1  0
 12 13  1  0
 13 14  1  0
 14 15  1  0
 15 16  1  0
 16 17  1  0
  2 18  1  0
 18 19  2  0
 19 20  1  0
 20 21  2  0
 21 22  1  0
 22 23  2  0
 23 24  1  0
 23 25  1  0
 25 26  2  0
 26 27  1  0
 27 28  2  0
 12  7  1  0
 17 13  1  0
 28 18  1  0
 27 21  1  0
  3 29  1  0
  4 30  1  0
  4 31  1  0
  8 32  1  0
  8 33  1  0
  9 34  1  0
  9 35  1  0
 10 36  1  6
 11 37  1  0
 12 38  1  1
 13 39  1  0
 14 40  1  0
 14 41  1  0
 15 42  1  0
 15 43  1  0
 16 44  1  0
 16 45  1  0
 17 46  1  0
 17 47  1  0
 19 48  1  0
 20 49  1  0
 22 50  1  0
 25 51  1  0
 26 52  1  0
M  END
>  <smiles>  (32) 
O=C(NCC(=O)N1CC[C@H](O)[C@H]1C1CCCC1)c1ccc2cc(F)ccc2n1

>  <score_type>  (32) 
oracle

>  <origin>  (32) 
autodockgpu

>  <m_score__min__energy>  (32) 
-8.7899999999999991

>  <m_primary>  (32) 
energy

>  <rmsd>  (32) 
2.83330555652755

>  <m_score__min__rmsd>  (32) 
2.83330555652755

>  <meeko>  (32) 
{"free_energy": -8.77, "intermolecular_energy": -10.56, "internal_energy": -1.44, "cluster_size": 40, "cluster_id": 1, "rank_in_cluster": 6}

>  <energy>  (32) 
-8.28

>  <cluster_rmsd>  (32) 
0.52

>  <cluster>  (32) 
1

$$$$

     RDKit          3D

 52 55  0  0  0  0  0  0  0  0999 V2000
  141.2360   71.7760  221.3820 O   0  0  0  0  0  0  0  0  0  0  0  0
  140.5650   72.3000  222.3330 C   0  0  0  0  0  0  0  0  0  0  0  0
  140.1320   73.6550  222.2700 N   0  0  0  0  0  0  0  0  0  0  0  0
  140.4290   74.5010  221.1300 C   0  0  0  0  0  0  0  0  0  0  0  0
  140.5780   75.9390  221.5740 C   0  0  0  0  0  0  0  0  0  0  0  0
  139.9080   76.2450  222.5880 O   0  0  0  0  0  0  0  0  0  0  0  0
  141.4220   76.7950  220.8470 N   0  0  0  0  0  0  0  0  0  0  0  0
  142.1430   76.3850  219.6120 C   0  0  0  0  0  0  0  0  0  0  0  0
  142.1010   77.6470  218.7430 C   0  0  0  0  0  0  0  0  0  0  0  0
  141.3740   78.6660  219.6130 C   0  0  2  0  0  0  0  0  0  0  0  0
  141.7300   79.9650  219.3630 O   0  0  0  0  0  0  0  0  0  0  0  0
  141.8230   78.1700  220.9950 C   0  0  1  0  0  0  0  0  0  0  0  0
  141.1980   78.9700  222.0610 C   0  0  0  0  0  0  0  0  0  0  0  0
  141.4010   78.5330  223.4620 C   0  0  0  0  0  0  0  0  0  0  0  0
  142.1570   79.6110  224.2250 C   0  0  0  0  0  0  0  0  0  0  0  0
  141.8840   80.8410  223.4170 C   0  0  0  0  0  0  0  0  0  0  0  0
  141.7720   80.3770  221.9770 C   0  0  0  0  0  0  0  0  0  0  0  0
  140.2310   71.4930  223.5150 C   0  0  0  0  0  0  0  0  0  0  0  0
  139.4500   70.3660  223.3700 C   0  0  0  0  0  0  0  0  0  0  0  0
  139.1670   69.6430  224.5180 C   0  0  0  0  0  0  0  0  0  0  0  0
  139.6410   70.0220  225.7650 C   0  0  0  0  0  0  0  0  0  0  0  0
  139.3620   69.3050  226.9100 C   0  0  0  0  0  0  0  0  0  0  0  0
  139.8540   69.7130  228.1540 C   0  0  0  0  0  0  0  0  0  0  0  0
  139.5640   68.9880  229.2680 F   0  0  0  0  0  0  0  0  0  0  0  0
  140.6390   70.8630  228.2310 C   0  0  0  0  0  0  0  0  0  0  0  0
  140.9000   71.5550  227.0740 C   0  0  0  0  0  0  0  0  0  0  0  0
  140.4130   71.1510  225.8520 C   0  0  0  0  0  0  0  0  0  0  0  0
  140.6930   71.8570  224.7470 N   0  0  0  0  0  0  0  0  0  0  0  0
  139.5830   74.0150  223.0940 H   0  0  0  0  0  0  0  0  0  0  0  0
  141.3666   74.1656  220.6627 H   0  0  0  0  0  0  0  0  0  0  0  0
  139.6038   74.4317  220.4059 H   0  0  0  0  0  0  0  0  0  0  0  0
  143.1802   76.0971  219.8386 H   0  0  0  0  0  0  0  0  0  0  0  0
  141.6925   75.5096  219.1214 H   0  0  0  0  0  0  0  0  0  0  0  0
  143.1178   77.9914  218.5033 H   0  0  0  0  0  0  0  0  0  0  0  0
  141.6021   77.4808  217.7768 H   0  0  0  0  0  0  0  0  0  0  0  0
  140.2860   78.7117  219.4578 H   0  0  0  0  0  0  0  0  0  0  0  0
  142.3650   79.9510  218.5870 H   0  0  0  0  0  0  0  0  0  0  0  0
  142.8784   78.2638  221.2905 H   0  0  0  0  0  0  0  0  0  0  0  0
  140.1192   78.8711  221.8699 H   0  0  0  0  0  0  0  0  0  0  0  0
  140.4241   78.3633  223.9384 H   0  0  0  0  0  0  0  0  0  0  0  0
  141.9821   77.5991  223.4743 H   0  0  0  0  0  0  0  0  0  0  0  0
  141.7709   79.7161  225.2497 H   0  0  0  0  0  0  0  0  0  0  0  0
  143.2292   79.3936  224.3392 H   0  0  0  0  0  0  0  0  0  0  0  0
  140.9440   81.3111  223.7416 H   0  0  0  0  0  0  0  0  0  0  0  0
  142.6810   81.5892  223.5391 H   0  0  0  0  0  0  0  0  0  0  0  0
  141.0986   81.0362  221.4095 H   0  0  0  0  0  0  0  0  0  0  0  0
  142.7423   80.3975  221.4593 H   0  0  0  0  0  0  0  0  0  0  0  0
  139.0684   70.0545  222.3865 H   0  0  0  0  0  0  0  0  0  0  0  0
  138.5459   68.7387  224.4374 H   0  0  0  0  0  0  0  0  0  0  0  0
  138.7429   68.3982  226.8436 H   0  0  0  0  0  0  0  0  0  0  0  0
  141.0397   71.2076  229.1957 H   0  0  0  0  0  0  0  0  0  0  0  0
  141.5191   72.4627  227.1257 H   0  0  0  0  0  0  0  0  0  0  0  0
  1  2  2  0
  2  3  1  0
  3  4  1  0
  4  5  1  0
  5  6  2  0
  5  7  1  0
  7  8  1  0
  8  9  1  0
  9 10  1  0
 10 11  1  0
 10 12  1  0
 12 13  1  0
 13 14  1  0
 14 15  1  0
 15 16  1  0
 16 17  1  0
  2 18  1  0
 18 19  2  0
 19 20  1  0
 20 21  2  0
 21 22  1  0
 22 23  2  0
 23 24  1  0
 23 25  1  0
 25 26  2  0
 26 27  1  0
 27 28  2  0
 12  7  1  0
 17 13  1  0
 28 18  1  0
 27 21  1  0
  3 29  1  0
  4 30  1  0
  4 31  1  0
  8 32  1  0
  8 33  1  0
  9 34  1  0
  9 35  1  0
 10 36  1  1
 11 37  1  0
 12 38  1  6
 13 39  1  0
 14 40  1  0
 14 41  1  0
 15 42  1  0
 15 43  1  0
 16 44  1  0
 16 45  1  0
 17 46  1  0
 17 47  1  0
 19 48  1  0
 20 49  1  0
 22 50  1  0
 25 51  1  0
 26 52  1  0
M  END
>  <smiles>  (33) 
O=C(NCC(=O)N1CC[C@H](O)[C@H]1C1CCCC1)c1ccc2cc(F)ccc2n1

>  <score_type>  (33) 
oracle

>  <origin>  (33) 
autodockgpu

>  <m_score__min__energy>  (33) 
-8.7899999999999991

>  <m_primary>  (33) 
energy

>  <rmsd>  (33) 
2.6021419198802325

>  <m_score__min__rmsd>  (33) 
2.6021419198802325

>  <meeko>  (33) 
{"free_energy": -8.3, "intermolecular_energy": -10.09, "internal_energy": -1.44, "cluster_size": 40, "cluster_id": 1, "rank_in_cluster": 30}

>  <energy>  (33) 
-8.28

>  <cluster_rmsd>  (33) 
0.51

>  <cluster>  (33) 
1

$$$$

     RDKit          3D

 52 55  0  0  0  0  0  0  0  0999 V2000
  141.4630   72.5060  221.7750 O   0  0  0  0  0  0  0  0  0  0  0  0
  140.4100   72.5920  222.4910 C   0  0  0  0  0  0  0  0  0  0  0  0
  139.4290   73.5930  222.2430 N   0  0  0  0  0  0  0  0  0  0  0  0
  139.5770   74.5590  221.1710 C   0  0  0  0  0  0  0  0  0  0  0  0
  140.4620   75.7020  221.6180 C   0  0  0  0  0  0  0  0  0  0  0  0
  140.1010   76.2560  222.6830 O   0  0  0  0  0  0  0  0  0  0  0  0
  141.5780   76.0490  220.8400 N   0  0  0  0  0  0  0  0  0  0  0  0
  142.4410   75.0510  220.1510 C   0  0  0  0  0  0  0  0  0  0  0  0
  142.8100   75.7520  218.8380 C   0  0  0  0  0  0  0  0  0  0  0  0
  142.1280   77.1100  218.9430 C   0  0  2  0  0  0  0  0  0  0  0  0
  142.7630   78.1070  218.2510 O   0  0  0  0  0  0  0  0  0  0  0  0
  142.1920   77.2960  220.4670 C   0  0  1  0  0  0  0  0  0  0  0  0
  141.5270   78.5480  220.8640 C   0  0  0  0  0  0  0  0  0  0  0  0
  140.0680   78.6590  220.6330 C   0  0  0  0  0  0  0  0  0  0  0  0
  139.3540   78.8180  221.9680 C   0  0  0  0  0  0  0  0  0  0  0  0
  140.4340   79.3420  222.8610 C   0  0  0  0  0  0  0  0  0  0  0  0
  141.7250   78.7180  222.3630 C   0  0  0  0  0  0  0  0  0  0  0  0
  140.2020   71.6410  223.5930 C   0  0  0  0  0  0  0  0  0  0  0  0
  139.4990   70.4780  223.3630 C   0  0  0  0  0  0  0  0  0  0  0  0
  139.3330   69.6180  224.4380 C   0  0  0  0  0  0  0  0  0  0  0  0
  139.8470   69.8990  225.6950 C   0  0  0  0  0  0  0  0  0  0  0  0
  139.6860   69.0460  226.7670 C   0  0  0  0  0  0  0  0  0  0  0  0
  140.2150   69.3580  228.0220 C   0  0  0  0  0  0  0  0  0  0  0  0
  140.0410   68.5000  229.0630 F   0  0  0  0  0  0  0  0  0  0  0  0
  140.9170   70.5520  228.1870 C   0  0  0  0  0  0  0  0  0  0  0  0
  141.0620   71.3800  227.1020 C   0  0  0  0  0  0  0  0  0  0  0  0
  140.5390   71.0700  225.8670 C   0  0  0  0  0  0  0  0  0  0  0  0
  140.7040   71.9090  224.8340 N   0  0  0  0  0  0  0  0  0  0  0  0
  138.5890   73.6000  222.8770 H   0  0  0  0  0  0  0  0  0  0  0  0
  140.0314   74.0670  220.2984 H   0  0  0  0  0  0  0  0  0  0  0  0
  138.5859   74.9547  220.9043 H   0  0  0  0  0  0  0  0  0  0  0  0
  143.3395   74.8295  220.7457 H   0  0  0  0  0  0  0  0  0  0  0  0
  141.9418   74.0830  219.9971 H   0  0  0  0  0  0  0  0  0  0  0  0
  143.9003   75.8675  218.7491 H   0  0  0  0  0  0  0  0  0  0  0  0
  142.4917   75.1851  217.9507 H   0  0  0  0  0  0  0  0  0  0  0  0
  141.1214   77.1550  218.5018 H   0  0  0  0  0  0  0  0  0  0  0  0
  143.5930   78.3390  218.7650 H   0  0  0  0  0  0  0  0  0  0  0  0
  143.1660   77.4411  220.9571 H   0  0  0  0  0  0  0  0  0  0  0  0
  141.9902   79.3108  220.2209 H   0  0  0  0  0  0  0  0  0  0  0  0
  139.8624   79.5352  220.0005 H   0  0  0  0  0  0  0  0  0  0  0  0
  139.7061   77.7505  220.1293 H   0  0  0  0  0  0  0  0  0  0  0  0
  138.5224   79.5338  221.8898 H   0  0  0  0  0  0  0  0  0  0  0  0
  138.9012   77.8846  222.3336 H   0  0  0  0  0  0  0  0  0  0  0  0
  140.4880   80.4386  222.7932 H   0  0  0  0  0  0  0  0  0  0  0  0
  140.2441   79.0904  223.9149 H   0  0  0  0  0  0  0  0  0  0  0  0
  142.5789   79.3806  222.5676 H   0  0  0  0  0  0  0  0  0  0  0  0
  141.9417   77.7621  222.8624 H   0  0  0  0  0  0  0  0  0  0  0  0
  139.0877   70.2424  222.3704 H   0  0  0  0  0  0  0  0  0  0  0  0
  138.7751   68.6818  224.2888 H   0  0  0  0  0  0  0  0  0  0  0  0
  139.1324   68.1052  226.6317 H   0  0  0  0  0  0  0  0  0  0  0  0
  141.3443   70.8236  229.1636 H   0  0  0  0  0  0  0  0  0  0  0  0
  141.6148   72.3232  227.2234 H   0  0  0  0  0  0  0  0  0  0  0  0
  1  2  2  0
  2  3  1  0
  3  4  1  0
  4  5  1  0
  5  6  2  0
  5  7  1  0
  7  8  1  0
  8  9  1  0
  9 10  1  0
 10 11  1  0
 10 12  1  0
 12 13  1  0
 13 14  1  0
 14 15  1  0
 15 16  1  0
 16 17  1  0
  2 18  1  0
 18 19  2  0
 19 20  1  0
 20 21  2  0
 21 22  1  0
 22 23  2  0
 23 24  1  0
 23 25  1  0
 25 26  2  0
 26 27  1  0
 27 28  2  0
 12  7  1  0
 17 13  1  0
 28 18  1  0
 27 21  1  0
  3 29  1  0
  4 30  1  0
  4 31  1  0
  8 32  1  0
  8 33  1  0
  9 34  1  0
  9 35  1  0
 10 36  1  6
 11 37  1  0
 12 38  1  1
 13 39  1  0
 14 40  1  0
 14 41  1  0
 15 42  1  0
 15 43  1  0
 16 44  1  0
 16 45  1  0
 17 46  1  0
 17 47  1  0
 19 48  1  0
 20 49  1  0
 22 50  1  0
 25 51  1  0
 26 52  1  0
M  END
>  <smiles>  (34) 
O=C(NCC(=O)N1CC[C@H](O)[C@H]1C1CCCC1)c1ccc2cc(F)ccc2n1

>  <score_type>  (34) 
oracle

>  <origin>  (34) 
autodockgpu

>  <m_score__min__energy>  (34) 
-8.7899999999999991

>  <m_primary>  (34) 
energy

>  <rmsd>  (34) 
2.27208712101921

>  <m_score__min__rmsd>  (34) 
2.27208712101921

>  <meeko>  (34) 
{"free_energy": -8.0, "intermolecular_energy": -9.79, "internal_energy": -1.31, "cluster_size": 40, "cluster_id": 1, "rank_in_cluster": 37}

>  <energy>  (34) 
-8.27

>  <cluster_rmsd>  (34) 
0.48

>  <cluster>  (34) 
1

$$$$

     RDKit          3D

 52 55  0  0  0  0  0  0  0  0999 V2000
  140.6990   70.9330  221.7970 O   0  0  0  0  0  0  0  0  0  0  0  0
  140.2490   71.6200  222.7730 C   0  0  0  0  0  0  0  0  0  0  0  0
  139.6190   72.8790  222.5590 N   0  0  0  0  0  0  0  0  0  0  0  0
  139.4590   73.4380  221.2310 C   0  0  0  0  0  0  0  0  0  0  0  0
  140.6180   74.3550  220.9090 C   0  0  0  0  0  0  0  0  0  0  0  0
  140.8930   75.1850  221.8070 O   0  0  0  0  0  0  0  0  0  0  0  0
  141.2760   74.2190  219.6760 N   0  0  0  0  0  0  0  0  0  0  0  0
  140.7760   74.8130  218.4070 C   0  0  0  0  0  0  0  0  0  0  0  0
  142.0610   75.2370  217.6850 C   0  0  0  0  0  0  0  0  0  0  0  0
  143.1730   74.7980  218.6310 C   0  0  2  0  0  0  0  0  0  0  0  0
  144.3520   74.4980  218.0000 O   0  0  0  0  0  0  0  0  0  0  0  0
  142.4910   73.5710  219.2540 C   0  0  1  0  0  0  0  0  0  0  0  0
  143.3530   72.9660  220.2820 C   0  0  0  0  0  0  0  0  0  0  0  0
  144.2450   71.8570  219.8700 C   0  0  0  0  0  0  0  0  0  0  0  0
  145.6960   72.2720  220.0680 C   0  0  0  0  0  0  0  0  0  0  0  0
  145.5910   73.3650  221.0850 C   0  0  0  0  0  0  0  0  0  0  0  0
  144.2680   74.0580  220.8170 C   0  0  0  0  0  0  0  0  0  0  0  0
  140.3810   71.1060  224.1440 C   0  0  0  0  0  0  0  0  0  0  0  0
  140.9780   71.8900  225.1080 C   0  0  0  0  0  0  0  0  0  0  0  0
  141.0770   71.3550  226.3830 C   0  0  0  0  0  0  0  0  0  0  0  0
  140.5990   70.0900  226.6920 C   0  0  0  0  0  0  0  0  0  0  0  0
  140.6940   69.5540  227.9600 C   0  0  0  0  0  0  0  0  0  0  0  0
  140.2040   68.2750  228.2400 C   0  0  0  0  0  0  0  0  0  0  0  0
  140.3110   67.7700  229.4990 F   0  0  0  0  0  0  0  0  0  0  0  0
  139.6110   67.5350  227.2180 C   0  0  0  0  0  0  0  0  0  0  0  0
  139.5290   68.0950  225.9670 C   0  0  0  0  0  0  0  0  0  0  0  0
  140.0140   69.3540  225.6950 C   0  0  0  0  0  0  0  0  0  0  0  0
  139.9140   69.8630  224.4580 N   0  0  0  0  0  0  0  0  0  0  0  0
  139.2740   73.3870  223.4150 H   0  0  0  0  0  0  0  0  0  0  0  0
  139.4256   72.6217  220.4944 H   0  0  0  0  0  0  0  0  0  0  0  0
  138.5230   74.0147  221.1939 H   0  0  0  0  0  0  0  0  0  0  0  0
  140.2193   74.0702  217.8168 H   0  0  0  0  0  0  0  0  0  0  0  0
  140.0777   75.6475  218.5683 H   0  0  0  0  0  0  0  0  0  0  0  0
  142.1501   74.7291  216.7134 H   0  0  0  0  0  0  0  0  0  0  0  0
  142.0898   76.3147  217.4666 H   0  0  0  0  0  0  0  0  0  0  0  0
  143.5035   75.5681  219.3435 H   0  0  0  0  0  0  0  0  0  0  0  0
  144.8320   75.3650  217.8470 H   0  0  0  0  0  0  0  0  0  0  0  0
  142.2939   72.6842  218.6338 H   0  0  0  0  0  0  0  0  0  0  0  0
  142.6434   72.5292  221.0001 H   0  0  0  0  0  0  0  0  0  0  0  0
  144.0312   70.9681  220.4816 H   0  0  0  0  0  0  0  0  0  0  0  0
  144.0724   71.6226  218.8092 H   0  0  0  0  0  0  0  0  0  0  0  0
  146.2997   71.4343  220.4472 H   0  0  0  0  0  0  0  0  0  0  0  0
  146.1899   72.5883  219.1374 H   0  0  0  0  0  0  0  0  0  0  0  0
  145.6034   72.9443  222.1013 H   0  0  0  0  0  0  0  0  0  0  0  0
  146.4356   74.0660  221.0126 H   0  0  0  0  0  0  0  0  0  0  0  0
  143.8597   74.4842  221.7453 H   0  0  0  0  0  0  0  0  0  0  0  0
  144.3746   74.8921  220.1079 H   0  0  0  0  0  0  0  0  0  0  0  0
  141.3589   72.8955  224.8758 H   0  0  0  0  0  0  0  0  0  0  0  0
  141.5501   71.9532  227.1757 H   0  0  0  0  0  0  0  0  0  0  0  0
  141.1625   70.1422  228.7628 H   0  0  0  0  0  0  0  0  0  0  0  0
  139.2178   66.5257  227.4095 H   0  0  0  0  0  0  0  0  0  0  0  0
  139.0604   67.5186  225.1557 H   0  0  0  0  0  0  0  0  0  0  0  0
  1  2  2  0
  2  3  1  0
  3  4  1  0
  4  5  1  0
  5  6  2  0
  5  7  1  0
  7  8  1  0
  8  9  1  0
  9 10  1  0
 10 11  1  0
 10 12  1  0
 12 13  1  0
 13 14  1  0
 14 15  1  0
 15 16  1  0
 16 17  1  0
  2 18  1  0
 18 19  2  0
 19 20  1  0
 20 21  2  0
 21 22  1  0
 22 23  2  0
 23 24  1  0
 23 25  1  0
 25 26  2  0
 26 27  1  0
 27 28  2  0
 12  7  1  0
 17 13  1  0
 28 18  1  0
 27 21  1  0
  3 29  1  0
  4 30  1  0
  4 31  1  0
  8 32  1  0
  8 33  1  0
  9 34  1  0
  9 35  1  0
 10 36  1  1
 11 37  1  0
 12 38  1  6
 13 39  1  0
 14 40  1  0
 14 41  1  0
 15 42  1  0
 15 43  1  0
 16 44  1  0
 16 45  1  0
 17 46  1  0
 17 47  1  0
 19 48  1  0
 20 49  1  0
 22 50  1  0
 25 51  1  0
 26 52  1  0
M  END
>  <smiles>  (35) 
O=C(NCC(=O)N1CC[C@H](O)[C@H]1C1CCCC1)c1ccc2cc(F)ccc2n1

>  <score_type>  (35) 
oracle

>  <origin>  (35) 
autodockgpu

>  <m_score__min__energy>  (35) 
-8.7899999999999991

>  <m_primary>  (35) 
energy

>  <rmsd>  (35) 
3.092069920940161

>  <m_score__min__rmsd>  (35) 
3.092069920940161

>  <meeko>  (35) 
{"free_energy": -7.61, "intermolecular_energy": -9.4, "internal_energy": -1.57, "cluster_size": 4, "cluster_id": 3, "rank_in_cluster": 4}

>  <energy>  (35) 
-8.25

>  <cluster_rmsd>  (35) 
0.5

>  <cluster>  (35) 
1

$$$$

     RDKit          3D

 52 55  0  0  0  0  0  0  0  0999 V2000
  141.0690   71.9290  221.2330 O   0  0  0  0  0  0  0  0  0  0  0  0
  140.4820   72.3990  222.2650 C   0  0  0  0  0  0  0  0  0  0  0  0
  140.0460   73.7530  222.3120 N   0  0  0  0  0  0  0  0  0  0  0  0
  140.2460   74.6600  221.1980 C   0  0  0  0  0  0  0  0  0  0  0  0
  140.3400   76.0850  221.6970 C   0  0  0  0  0  0  0  0  0  0  0  0
  139.6640   76.3250  222.7250 O   0  0  0  0  0  0  0  0  0  0  0  0
  141.1440   77.0020  221.0000 N   0  0  0  0  0  0  0  0  0  0  0  0
  141.4890   76.8630  219.5590 C   0  0  0  0  0  0  0  0  0  0  0  0
  141.4880   78.3120  219.0560 C   0  0  0  0  0  0  0  0  0  0  0  0
  141.1670   79.1310  220.3000 C   0  0  2  0  0  0  0  0  0  0  0  0
  141.6900   80.3970  220.2810 O   0  0  0  0  0  0  0  0  0  0  0  0
  141.8120   78.2250  221.3600 C   0  0  1  0  0  0  0  0  0  0  0  0
  141.5920   78.7710  222.7100 C   0  0  0  0  0  0  0  0  0  0  0  0
  142.5580   79.7750  223.2140 C   0  0  0  0  0  0  0  0  0  0  0  0
  141.8370   81.0940  223.4560 C   0  0  0  0  0  0  0  0  0  0  0  0
  140.4110   80.6680  223.6130 C   0  0  0  0  0  0  0  0  0  0  0  0
  140.2360   79.4600  222.7120 C   0  0  0  0  0  0  0  0  0  0  0  0
  140.2500   71.5290  223.4260 C   0  0  0  0  0  0  0  0  0  0  0  0
  139.5690   70.3410  223.2600 C   0  0  0  0  0  0  0  0  0  0  0  0
  139.3790   69.5600  224.3900 C   0  0  0  0  0  0  0  0  0  0  0  0
  139.8470   69.9410  225.6390 C   0  0  0  0  0  0  0  0  0  0  0  0
  139.6610   69.1660  226.7640 C   0  0  0  0  0  0  0  0  0  0  0  0
  140.1440   69.5770  228.0100 C   0  0  0  0  0  0  0  0  0  0  0  0
  139.9470   68.7950  229.1060 F   0  0  0  0  0  0  0  0  0  0  0  0
  140.8250   70.7900  228.1090 C   0  0  0  0  0  0  0  0  0  0  0  0
  140.9960   71.5390  226.9700 C   0  0  0  0  0  0  0  0  0  0  0  0
  140.5180   71.1310  225.7460 C   0  0  0  0  0  0  0  0  0  0  0  0
  140.7070   71.8940  224.6590 N   0  0  0  0  0  0  0  0  0  0  0  0
  139.5710   74.0670  223.1980 H   0  0  0  0  0  0  0  0  0  0  0  0
  141.1775   74.3952  220.6762 H   0  0  0  0  0  0  0  0  0  0  0  0
  139.3932   74.5760  220.5083 H   0  0  0  0  0  0  0  0  0  0  0  0
  142.4802   76.4028  219.4335 H   0  0  0  0  0  0  0  0  0  0  0  0
  140.7903   76.2154  219.0091 H   0  0  0  0  0  0  0  0  0  0  0  0
  142.4730   78.5862  218.6502 H   0  0  0  0  0  0  0  0  0  0  0  0
  140.7679   78.4779  218.2412 H   0  0  0  0  0  0  0  0  0  0  0  0
  140.0983   79.3454  220.4482 H   0  0  0  0  0  0  0  0  0  0  0  0
  141.3870   80.8280  219.4280 H   0  0  0  0  0  0  0  0  0  0  0  0
  142.9055   78.1078  221.3848 H   0  0  0  0  0  0  0  0  0  0  0  0
  141.6956   77.8978  223.3709 H   0  0  0  0  0  0  0  0  0  0  0  0
  142.9985   79.4192  224.1571 H   0  0  0  0  0  0  0  0  0  0  0  0
  143.3552   79.9232  222.4707 H   0  0  0  0  0  0  0  0  0  0  0  0
  142.2063   81.5860  224.3679 H   0  0  0  0  0  0  0  0  0  0  0  0
  141.9865   81.8266  222.6492 H   0  0  0  0  0  0  0  0  0  0  0  0
  140.2054   80.3979  224.6593 H   0  0  0  0  0  0  0  0  0  0  0  0
  139.7160   81.4768  223.3434 H   0  0  0  0  0  0  0  0  0  0  0  0
  139.4617   78.7886  223.1115 H   0  0  0  0  0  0  0  0  0  0  0  0
  139.9148   79.7432  221.6988 H   0  0  0  0  0  0  0  0  0  0  0  0
  139.1933   70.0271  222.2750 H   0  0  0  0  0  0  0  0  0  0  0  0
  138.8392   68.6065  224.2927 H   0  0  0  0  0  0  0  0  0  0  0  0
  139.1243   68.2095  226.6800 H   0  0  0  0  0  0  0  0  0  0  0  0
  141.2160   71.1388  229.0762 H   0  0  0  0  0  0  0  0  0  0  0  0
  141.5329   72.4966  227.0389 H   0  0  0  0  0  0  0  0  0  0  0  0
  1  2  2  0
  2  3  1  0
  3  4  1  0
  4  5  1  0
  5  6  2  0
  5  7  1  0
  7  8  1  0
  8  9  1  0
  9 10  1  0
 10 11  1  0
 10 12  1  0
 12 13  1  0
 13 14  1  0
 14 15  1  0
 15 16  1  0
 16 17  1  0
  2 18  1  0
 18 19  2  0
 19 20  1  0
 20 21  2  0
 21 22  1  0
 22 23  2  0
 23 24  1  0
 23 25  1  0
 25 26  2  0
 26 27  1  0
 27 28  2  0
 12  7  1  0
 17 13  1  0
 28 18  1  0
 27 21  1  0
  3 29  1  0
  4 30  1  0
  4 31  1  0
  8 32  1  0
  8 33  1  0
  9 34  1  0
  9 35  1  0
 10 36  1  1
 11 37  1  0
 12 38  1  6
 13 39  1  0
 14 40  1  0
 14 41  1  0
 15 42  1  0
 15 43  1  0
 16 44  1  0
 16 45  1  0
 17 46  1  0
 17 47  1  0
 19 48  1  0
 20 49  1  0
 22 50  1  0
 25 51  1  0
 26 52  1  0
M  END
>  <smiles>  (36) 
O=C(NCC(=O)N1CC[C@H](O)[C@H]1C1CCCC1)c1ccc2cc(F)ccc2n1

>  <score_type>  (36) 
oracle

>  <origin>  (36) 
autodockgpu

>  <m_score__min__energy>  (36) 
-8.7899999999999991

>  <m_primary>  (36) 
energy

>  <rmsd>  (36) 
2.7855325865706297

>  <m_score__min__rmsd>  (36) 
2.7855325865706297

>  <meeko>  (36) 
{"free_energy": -8.31, "intermolecular_energy": -10.1, "internal_energy": -1.74, "cluster_size": 40, "cluster_id": 1, "rank_in_cluster": 28}

>  <energy>  (36) 
-8.25

>  <cluster_rmsd>  (36) 
0.49

>  <cluster>  (36) 
1

$$$$

     RDKit          3D

 52 55  0  0  0  0  0  0  0  0999 V2000
  141.3450   72.3800  221.6980 O   0  0  0  0  0  0  0  0  0  0  0  0
  140.3610   72.5580  222.4910 C   0  0  0  0  0  0  0  0  0  0  0  0
  139.4650   73.6510  222.3200 N   0  0  0  0  0  0  0  0  0  0  0  0
  139.6240   74.6090  221.2440 C   0  0  0  0  0  0  0  0  0  0  0  0
  139.8930   75.9870  221.8080 C   0  0  0  0  0  0  0  0  0  0  0  0
  139.1380   76.3220  222.7510 O   0  0  0  0  0  0  0  0  0  0  0  0
  140.9270   76.7620  221.2570 N   0  0  0  0  0  0  0  0  0  0  0  0
  141.5450   76.4850  219.9320 C   0  0  0  0  0  0  0  0  0  0  0  0
  141.8190   77.8860  219.3720 C   0  0  0  0  0  0  0  0  0  0  0  0
  141.3450   78.8220  220.4780 C   0  0  2  0  0  0  0  0  0  0  0  0
  142.0060   80.0210  220.5120 O   0  0  0  0  0  0  0  0  0  0  0  0
  141.6440   77.9310  221.6930 C   0  0  1  0  0  0  0  0  0  0  0  0
  141.2150   78.5910  222.9370 C   0  0  0  0  0  0  0  0  0  0  0  0
  142.1600   79.5350  223.5800 C   0  0  0  0  0  0  0  0  0  0  0  0
  141.5510   80.9290  223.5970 C   0  0  0  0  0  0  0  0  0  0  0  0
  140.0860   80.6530  223.4740 C   0  0  0  0  0  0  0  0  0  0  0  0
  139.9680   79.4040  222.6200 C   0  0  0  0  0  0  0  0  0  0  0  0
  140.1460   71.6200  223.6020 C   0  0  0  0  0  0  0  0  0  0  0  0
  139.4080   70.4750  223.3900 C   0  0  0  0  0  0  0  0  0  0  0  0
  139.2360   69.6260  224.4730 C   0  0  0  0  0  0  0  0  0  0  0  0
  139.7780   69.9000  225.7200 C   0  0  0  0  0  0  0  0  0  0  0  0
  139.6110   69.0580  226.7990 C   0  0  0  0  0  0  0  0  0  0  0  0
  140.1690   69.3630  228.0440 C   0  0  0  0  0  0  0  0  0  0  0  0
  139.9890   68.5150  229.0940 F   0  0  0  0  0  0  0  0  0  0  0  0
  140.9050   70.5380  228.1900 C   0  0  0  0  0  0  0  0  0  0  0  0
  141.0550   71.3560  227.0980 C   0  0  0  0  0  0  0  0  0  0  0  0
  140.5040   71.0530  225.8740 C   0  0  0  0  0  0  0  0  0  0  0  0
  140.6750   71.8810  224.8330 N   0  0  0  0  0  0  0  0  0  0  0  0
  138.6770   73.7310  223.0150 H   0  0  0  0  0  0  0  0  0  0  0  0
  140.4688   74.3050  220.6085 H   0  0  0  0  0  0  0  0  0  0  0  0
  138.6990   74.6384  220.6495 H   0  0  0  0  0  0  0  0  0  0  0  0
  142.4794   75.9156  220.0441 H   0  0  0  0  0  0  0  0  0  0  0  0
  140.9045   75.8766  219.2765 H   0  0  0  0  0  0  0  0  0  0  0  0
  142.8921   78.0255  219.1743 H   0  0  0  0  0  0  0  0  0  0  0  0
  141.3084   78.0676  218.4147 H   0  0  0  0  0  0  0  0  0  0  0  0
  140.3020   79.1582  220.3827 H   0  0  0  0  0  0  0  0  0  0  0  0
  142.8960   79.8540  220.9430 H   0  0  0  0  0  0  0  0  0  0  0  0
  142.6871   77.7021  221.9568 H   0  0  0  0  0  0  0  0  0  0  0  0
  141.0892   77.7614  223.6483 H   0  0  0  0  0  0  0  0  0  0  0  0
  142.3589   79.2091  224.6116 H   0  0  0  0  0  0  0  0  0  0  0  0
  143.1026   79.5534  223.0133 H   0  0  0  0  0  0  0  0  0  0  0  0
  141.7783   81.4491  224.5392 H   0  0  0  0  0  0  0  0  0  0  0  0
  141.9388   81.5831  222.8022 H   0  0  0  0  0  0  0  0  0  0  0  0
  139.6445   80.4808  224.4667 H   0  0  0  0  0  0  0  0  0  0  0  0
  139.5516   81.5023  223.0233 H   0  0  0  0  0  0  0  0  0  0  0  0
  139.0612   78.8397  222.8834 H   0  0  0  0  0  0  0  0  0  0  0  0
  139.8909   79.6416  221.5487 H   0  0  0  0  0  0  0  0  0  0  0  0
  138.9748   70.2450  222.4054 H   0  0  0  0  0  0  0  0  0  0  0  0
  138.6502   68.7047  224.3386 H   0  0  0  0  0  0  0  0  0  0  0  0
  139.0297   68.1320  226.6783 H   0  0  0  0  0  0  0  0  0  0  0  0
  141.3551   70.8034  229.1580 H   0  0  0  0  0  0  0  0  0  0  0  0
  141.6349   72.2846  227.2049 H   0  0  0  0  0  0  0  0  0  0  0  0
  1  2  2  0
  2  3  1  0
  3  4  1  0
  4  5  1  0
  5  6  2  0
  5  7  1  0
  7  8  1  0
  8  9  1  0
  9 10  1  0
 10 11  1  0
 10 12  1  0
 12 13  1  0
 13 14  1  0
 14 15  1  0
 15 16  1  0
 16 17  1  0
  2 18  1  0
 18 19  2  0
 19 20  1  0
 20 21  2  0
 21 22  1  0
 22 23  2  0
 23 24  1  0
 23 25  1  0
 25 26  2  0
 26 27  1  0
 27 28  2  0
 12  7  1  0
 17 13  1  0
 28 18  1  0
 27 21  1  0
  3 29  1  0
  4 30  1  0
  4 31  1  0
  8 32  1  0
  8 33  1  0
  9 34  1  0
  9 35  1  0
 10 36  1  6
 11 37  1  0
 12 38  1  1
 13 39  1  0
 14 40  1  0
 14 41  1  0
 15 42  1  0
 15 43  1  0
 16 44  1  0
 16 45  1  0
 17 46  1  0
 17 47  1  0
 19 48  1  0
 20 49  1  0
 22 50  1  0
 25 51  1  0
 26 52  1  0
M  END
>  <smiles>  (37) 
O=C(NCC(=O)N1CC[C@H](O)[C@H]1C1CCCC1)c1ccc2cc(F)ccc2n1

>  <score_type>  (37) 
oracle

>  <origin>  (37) 
autodockgpu

>  <m_score__min__energy>  (37) 
-8.7899999999999991

>  <m_primary>  (37) 
energy

>  <rmsd>  (37) 
2.7933298963289412

>  <m_score__min__rmsd>  (37) 
2.7933298963289412

>  <meeko>  (37) 
{"free_energy": -8.74, "intermolecular_energy": -10.53, "internal_energy": -1.44, "cluster_size": 40, "cluster_id": 1, "rank_in_cluster": 8}

>  <energy>  (37) 
-8.0

>  <cluster_rmsd>  (37) 
1.05

>  <cluster>  (37) 
1

$$$$

     RDKit          3D

 52 55  0  0  0  0  0  0  0  0999 V2000
  141.0400   71.9440  221.2390 O   0  0  0  0  0  0  0  0  0  0  0  0
  140.4350   72.3950  222.2690 C   0  0  0  0  0  0  0  0  0  0  0  0
  139.9630   73.7370  222.3180 N   0  0  0  0  0  0  0  0  0  0  0  0
  140.1450   74.6520  221.2080 C   0  0  0  0  0  0  0  0  0  0  0  0
  140.2370   76.0740  221.7150 C   0  0  0  0  0  0  0  0  0  0  0  0
  139.4390   76.3510  222.6410 O   0  0  0  0  0  0  0  0  0  0  0  0
  141.1720   76.9470  221.1360 N   0  0  0  0  0  0  0  0  0  0  0  0
  141.7180   76.7730  219.7630 C   0  0  0  0  0  0  0  0  0  0  0  0
  141.8510   78.2120  219.2500 C   0  0  0  0  0  0  0  0  0  0  0  0
  141.3850   79.0630  220.4260 C   0  0  2  0  0  0  0  0  0  0  0  0
  141.9570   80.3070  220.4720 O   0  0  0  0  0  0  0  0  0  0  0  0
  141.8290   78.1490  221.5780 C   0  0  1  0  0  0  0  0  0  0  0  0
  141.4360   78.7240  222.8750 C   0  0  0  0  0  0  0  0  0  0  0  0
  142.3500   79.7090  223.4990 C   0  0  0  0  0  0  0  0  0  0  0  0
  141.6430   81.0520  223.6190 C   0  0  0  0  0  0  0  0  0  0  0  0
  140.1970   80.6690  223.5760 C   0  0  0  0  0  0  0  0  0  0  0  0
  140.1150   79.4520  222.6750 C   0  0  0  0  0  0  0  0  0  0  0  0
  140.2210   71.5140  223.4260 C   0  0  0  0  0  0  0  0  0  0  0  0
  139.5500   70.3220  223.2570 C   0  0  0  0  0  0  0  0  0  0  0  0
  139.3760   69.5310  224.3830 C   0  0  0  0  0  0  0  0  0  0  0  0
  139.8500   69.9080  225.6310 C   0  0  0  0  0  0  0  0  0  0  0  0
  139.6800   69.1240  226.7530 C   0  0  0  0  0  0  0  0  0  0  0  0
  140.1690   69.5320  227.9980 C   0  0  0  0  0  0  0  0  0  0  0  0
  139.9880   68.7410  229.0890 F   0  0  0  0  0  0  0  0  0  0  0  0
  140.8400   70.7510  228.0990 C   0  0  0  0  0  0  0  0  0  0  0  0
  140.9940   71.5090  226.9640 C   0  0  0  0  0  0  0  0  0  0  0  0
  140.5110   71.1040  225.7410 C   0  0  0  0  0  0  0  0  0  0  0  0
  140.6840   71.8760  224.6580 N   0  0  0  0  0  0  0  0  0  0  0  0
  139.4750   74.0340  223.2020 H   0  0  0  0  0  0  0  0  0  0  0  0
  141.0718   74.3958  220.6737 H   0  0  0  0  0  0  0  0  0  0  0  0
  139.2847   74.5677  220.5277 H   0  0  0  0  0  0  0  0  0  0  0  0
  142.6970   76.2721  219.7890 H   0  0  0  0  0  0  0  0  0  0  0  0
  141.0803   76.1455  219.1230 H   0  0  0  0  0  0  0  0  0  0  0  0
  142.8953   78.4405  218.9907 H   0  0  0  0  0  0  0  0  0  0  0  0
  141.2661   78.3932  218.3362 H   0  0  0  0  0  0  0  0  0  0  0  0
  140.3160   79.3219  220.4131 H   0  0  0  0  0  0  0  0  0  0  0  0
  142.9040   80.1840  220.7770 H   0  0  0  0  0  0  0  0  0  0  0  0
  142.9013   77.9896  221.7644 H   0  0  0  0  0  0  0  0  0  0  0  0
  141.4180   77.8591  223.5544 H   0  0  0  0  0  0  0  0  0  0  0  0
  142.6407   79.3569  224.4998 H   0  0  0  0  0  0  0  0  0  0  0  0
  143.2487   79.8221  222.8749 H   0  0  0  0  0  0  0  0  0  0  0  0
  141.8936   81.5485  224.5681 H   0  0  0  0  0  0  0  0  0  0  0  0
  141.9283   81.7667  222.8330 H   0  0  0  0  0  0  0  0  0  0  0  0
  139.8365   80.4224  224.5856 H   0  0  0  0  0  0  0  0  0  0  0  0
  139.5725   81.4926  223.1995 H   0  0  0  0  0  0  0  0  0  0  0  0
  139.2714   78.8099  222.9684 H   0  0  0  0  0  0  0  0  0  0  0  0
  139.9502   79.7273  221.6228 H   0  0  0  0  0  0  0  0  0  0  0  0
  139.1693   70.0117  222.2727 H   0  0  0  0  0  0  0  0  0  0  0  0
  138.8446   68.5731  224.2831 H   0  0  0  0  0  0  0  0  0  0  0  0
  139.1516   68.1630  226.6672 H   0  0  0  0  0  0  0  0  0  0  0  0
  141.2364   71.0970  229.0650 H   0  0  0  0  0  0  0  0  0  0  0  0
  141.5210   72.4719  227.0352 H   0  0  0  0  0  0  0  0  0  0  0  0
  1  2  2  0
  2  3  1  0
  3  4  1  0
  4  5  1  0
  5  6  2  0
  5  7  1  0
  7  8  1  0
  8  9  1  0
  9 10  1  0
 10 11  1  0
 10 12  1  0
 12 13  1  0
 13 14  1  0
 14 15  1  0
 15 16  1  0
 16 17  1  0
  2 18  1  0
 18 19  2  0
 19 20  1  0
 20 21  2  0
 21 22  1  0
 22 23  2  0
 23 24  1  0
 23 25  1  0
 25 26  2  0
 26 27  1  0
 27 28  2  0
 12  7  1  0
 17 13  1  0
 28 18  1  0
 27 21  1  0
  3 29  1  0
  4 30  1  0
  4 31  1  0
  8 32  1  0
  8 33  1  0
  9 34  1  0
  9 35  1  0
 10 36  1  6
 11 37  1  0
 12 38  1  1
 13 39  1  0
 14 40  1  0
 14 41  1  0
 15 42  1  0
 15 43  1  0
 16 44  1  0
 16 45  1  0
 17 46  1  0
 17 47  1  0
 19 48  1  0
 20 49  1  0
 22 50  1  0
 25 51  1  0
 26 52  1  0
M  END
>  <smiles>  (38) 
O=C(NCC(=O)N1CC[C@H](O)[C@H]1C1CCCC1)c1ccc2cc(F)ccc2n1

>  <score_type>  (38) 
oracle

>  <origin>  (38) 
autodockgpu

>  <m_score__min__energy>  (38) 
-8.7899999999999991

>  <m_primary>  (38) 
energy

>  <rmsd>  (38) 
2.873125492310074

>  <m_score__min__rmsd>  (38) 
2.873125492310074

>  <meeko>  (38) 
{"free_energy": -8.65, "intermolecular_energy": -10.44, "internal_energy": -1.68, "cluster_size": 40, "cluster_id": 1, "rank_in_cluster": 13}

>  <energy>  (38) 
-7.86

>  <cluster_rmsd>  (38) 
1.81

>  <cluster>  (38) 
1

$$$$

     RDKit          3D

 52 55  0  0  0  0  0  0  0  0999 V2000
  136.4370   77.4040  222.4530 O   0  0  0  0  0  0  0  0  0  0  0  0
  136.7100   76.2240  222.8590 C   0  0  0  0  0  0  0  0  0  0  0  0
  137.8680   75.5360  222.3990 N   0  0  0  0  0  0  0  0  0  0  0  0
  138.7900   76.1370  221.4540 C   0  0  0  0  0  0  0  0  0  0  0  0
  140.1480   75.4800  221.5610 C   0  0  0  0  0  0  0  0  0  0  0  0
  140.1740   74.4460  222.2690 O   0  0  0  0  0  0  0  0  0  0  0  0
  141.2400   76.0530  220.8880 N   0  0  0  0  0  0  0  0  0  0  0  0
  142.1140   75.2990  219.9490 C   0  0  0  0  0  0  0  0  0  0  0  0
  142.4400   76.3320  218.8640 C   0  0  0  0  0  0  0  0  0  0  0  0
  141.7260   77.5940  219.3340 C   0  0  2  0  0  0  0  0  0  0  0  0
  142.3230   78.7560  218.9220 O   0  0  0  0  0  0  0  0  0  0  0  0
  141.8150   77.3720  220.8510 C   0  0  1  0  0  0  0  0  0  0  0  0
  141.1270   78.4550  221.5740 C   0  0  0  0  0  0  0  0  0  0  0  0
  140.8150   78.2390  223.0060 C   0  0  0  0  0  0  0  0  0  0  0  0
  141.5630   79.2640  223.8470 C   0  0  0  0  0  0  0  0  0  0  0  0
  141.8350   80.3620  222.8680 C   0  0  0  0  0  0  0  0  0  0  0  0
  142.0240   79.6830  221.5240 C   0  0  0  0  0  0  0  0  0  0  0  0
  135.8150   75.5620  223.8180 C   0  0  0  0  0  0  0  0  0  0  0  0
  134.9900   76.3270  224.6160 C   0  0  0  0  0  0  0  0  0  0  0  0
  134.1670   75.6500  225.5030 C   0  0  0  0  0  0  0  0  0  0  0  0
  134.1590   74.2660  225.5950 C   0  0  0  0  0  0  0  0  0  0  0  0
  133.3410   73.5890  226.4750 C   0  0  0  0  0  0  0  0  0  0  0  0
  133.3570   72.1930  226.5440 C   0  0  0  0  0  0  0  0  0  0  0  0
  132.5400   71.5480  227.4210 F   0  0  0  0  0  0  0  0  0  0  0  0
  134.2150   71.4800  225.7080 C   0  0  0  0  0  0  0  0  0  0  0  0
  135.0170   72.1810  224.8420 C   0  0  0  0  0  0  0  0  0  0  0  0
  134.9990   73.5560  224.7770 C   0  0  0  0  0  0  0  0  0  0  0  0
  135.8000   74.2010  223.9160 N   0  0  0  0  0  0  0  0  0  0  0  0
  138.0250   74.5670  222.7790 H   0  0  0  0  0  0  0  0  0  0  0  0
  138.4017   76.0051  220.4333 H   0  0  0  0  0  0  0  0  0  0  0  0
  138.8902   77.2085  221.6816 H   0  0  0  0  0  0  0  0  0  0  0  0
  143.0291   74.9546  220.4529 H   0  0  0  0  0  0  0  0  0  0  0  0
  141.6360   74.3921  219.5502 H   0  0  0  0  0  0  0  0  0  0  0  0
  143.5251   76.4986  218.7955 H   0  0  0  0  0  0  0  0  0  0  0  0
  142.1191   76.0109  217.8620 H   0  0  0  0  0  0  0  0  0  0  0  0
  140.7097   77.7252  218.9340 H   0  0  0  0  0  0  0  0  0  0  0  0
  143.3130   78.6190  218.9950 H   0  0  0  0  0  0  0  0  0  0  0  0
  142.7945   77.4106  221.3501 H   0  0  0  0  0  0  0  0  0  0  0  0
  140.1553   78.5401  221.0654 H   0  0  0  0  0  0  0  0  0  0  0  0
  139.7327   78.3519  223.1668 H   0  0  0  0  0  0  0  0  0  0  0  0
  141.1250   77.2255  223.3006 H   0  0  0  0  0  0  0  0  0  0  0  0
  140.9412   79.6218  224.6809 H   0  0  0  0  0  0  0  0  0  0  0  0
  142.4740   78.8621  224.3144 H   0  0  0  0  0  0  0  0  0  0  0  0
  140.9848   81.0588  222.8285 H   0  0  0  0  0  0  0  0  0  0  0  0
  142.7217   80.9472  223.1533 H   0  0  0  0  0  0  0  0  0  0  0  0
  141.7182   80.3522  220.7063 H   0  0  0  0  0  0  0  0  0  0  0  0
  143.0757   79.4193  221.3384 H   0  0  0  0  0  0  0  0  0  0  0  0
  134.9852   77.4251  224.5515 H   0  0  0  0  0  0  0  0  0  0  0  0
  133.4979   76.2300  226.1557 H   0  0  0  0  0  0  0  0  0  0  0  0
  132.6658   74.1562  227.1326 H   0  0  0  0  0  0  0  0  0  0  0  0
  134.2486   70.3810  225.7415 H   0  0  0  0  0  0  0  0  0  0  0  0
  135.6962   71.6259  224.1783 H   0  0  0  0  0  0  0  0  0  0  0  0
  1  2  2  0
  2  3  1  0
  3  4  1  0
  4  5  1  0
  5  6  2  0
  5  7  1  0
  7  8  1  0
  8  9  1  0
  9 10  1  0
 10 11  1  0
 10 12  1  0
 12 13  1  0
 13 14  1  0
 14 15  1  0
 15 16  1  0
 16 17  1  0
  2 18  1  0
 18 19  2  0
 19 20  1  0
 20 21  2  0
 21 22  1  0
 22 23  2  0
 23 24  1  0
 23 25  1  0
 25 26  2  0
 26 27  1  0
 27 28  2  0
 12  7  1  0
 17 13  1  0
 28 18  1  0
 27 21  1  0
  3 29  1  0
  4 30  1  0
  4 31  1  0
  8 32  1  0
  8 33  1  0
  9 34  1  0
  9 35  1  0
 10 36  1  6
 11 37  1  0
 12 38  1  1
 13 39  1  0
 14 40  1  0
 14 41  1  0
 15 42  1  0
 15 43  1  0
 16 44  1  0
 16 45  1  0
 17 46  1  0
 17 47  1  0
 19 48  1  0
 20 49  1  0
 22 50  1  0
 25 51  1  0
 26 52  1  0
M  END
>  <smiles>  (39) 
O=C(NCC(=O)N1CC[C@H](O)[C@H]1C1CCCC1)c1ccc2cc(F)ccc2n1

>  <score_type>  (39) 
oracle

>  <origin>  (39) 
autodockgpu

>  <m_score__min__energy>  (39) 
-8.7899999999999991

>  <m_primary>  (39) 
energy

>  <rmsd>  (39) 
5.743767368441501

>  <m_score__min__rmsd>  (39) 
5.743767368441501

>  <meeko>  (39) 
{"free_energy": -6.98, "intermolecular_energy": -8.77, "internal_energy": -1.99, "cluster_size": 4, "cluster_id": 4, "rank_in_cluster": 4}

>  <energy>  (39) 
-7.8

>  <cluster_rmsd>  (39) 
1.73

>  <cluster>  (39) 
1

$$$$

     RDKit          3D

 52 55  0  0  0  0  0  0  0  0999 V2000
  141.2520   72.1810  221.4200 O   0  0  0  0  0  0  0  0  0  0  0  0
  140.4340   72.5170  222.3400 C   0  0  0  0  0  0  0  0  0  0  0  0
  139.7470   73.7630  222.2970 N   0  0  0  0  0  0  0  0  0  0  0  0
  139.9410   74.7060  221.2120 C   0  0  0  0  0  0  0  0  0  0  0  0
  140.1520   76.0990  221.7640 C   0  0  0  0  0  0  0  0  0  0  0  0
  139.4020   76.4000  222.7220 O   0  0  0  0  0  0  0  0  0  0  0  0
  141.1310   76.9220  221.1860 N   0  0  0  0  0  0  0  0  0  0  0  0
  141.7020   76.6940  219.8310 C   0  0  0  0  0  0  0  0  0  0  0  0
  141.9000   78.1140  219.2870 C   0  0  0  0  0  0  0  0  0  0  0  0
  141.4400   79.0110  220.4310 C   0  0  2  0  0  0  0  0  0  0  0  0
  142.0570   80.2340  220.4610 O   0  0  0  0  0  0  0  0  0  0  0  0
  141.8230   78.1100  221.6150 C   0  0  1  0  0  0  0  0  0  0  0  0
  141.4230   78.7300  222.8880 C   0  0  0  0  0  0  0  0  0  0  0  0
  142.3580   79.6970  223.5090 C   0  0  0  0  0  0  0  0  0  0  0  0
  141.6990   81.0670  223.5800 C   0  0  0  0  0  0  0  0  0  0  0  0
  140.2410   80.7360  223.5130 C   0  0  0  0  0  0  0  0  0  0  0  0
  140.1340   79.5000  222.6400 C   0  0  0  0  0  0  0  0  0  0  0  0
  140.1940   71.6040  223.4670 C   0  0  0  0  0  0  0  0  0  0  0  0
  139.4560   70.4570  223.2650 C   0  0  0  0  0  0  0  0  0  0  0  0
  139.2610   69.6320  224.3620 C   0  0  0  0  0  0  0  0  0  0  0  0
  139.7800   69.9320  225.6140 C   0  0  0  0  0  0  0  0  0  0  0  0
  139.5890   69.1130  226.7070 C   0  0  0  0  0  0  0  0  0  0  0  0
  140.1240   69.4420  227.9560 C   0  0  0  0  0  0  0  0  0  0  0  0
  139.9210   68.6190  229.0190 F   0  0  0  0  0  0  0  0  0  0  0  0
  140.8620   70.6180  228.0910 C   0  0  0  0  0  0  0  0  0  0  0  0
  141.0360   71.4120  226.9840 C   0  0  0  0  0  0  0  0  0  0  0  0
  140.5070   71.0840  225.7570 C   0  0  0  0  0  0  0  0  0  0  0  0
  140.7000   71.8890  224.7010 N   0  0  0  0  0  0  0  0  0  0  0  0
  139.0890   73.9690  223.0930 H   0  0  0  0  0  0  0  0  0  0  0  0
  140.8234   74.4096  220.6260 H   0  0  0  0  0  0  0  0  0  0  0  0
  139.0474   74.7049  220.5705 H   0  0  0  0  0  0  0  0  0  0  0  0
  142.6609   76.1586  219.8926 H   0  0  0  0  0  0  0  0  0  0  0  0
  141.0566   76.0744  219.1910 H   0  0  0  0  0  0  0  0  0  0  0  0
  142.9576   78.2973  219.0466 H   0  0  0  0  0  0  0  0  0  0  0  0
  141.3426   78.2937  218.3559 H   0  0  0  0  0  0  0  0  0  0  0  0
  140.3821   79.3091  220.3863 H   0  0  0  0  0  0  0  0  0  0  0  0
  142.9560   80.0980  220.8830 H   0  0  0  0  0  0  0  0  0  0  0  0
  142.8841   77.9162  221.8304 H   0  0  0  0  0  0  0  0  0  0  0  0
  141.3588   77.8833  223.5873 H   0  0  0  0  0  0  0  0  0  0  0  0
  142.6130   79.3598  224.5245 H   0  0  0  0  0  0  0  0  0  0  0  0
  143.2738   79.7619  222.9031 H   0  0  0  0  0  0  0  0  0  0  0  0
  141.9467   81.5777  224.5222 H   0  0  0  0  0  0  0  0  0  0  0  0
  142.0279   81.7508  222.7837 H   0  0  0  0  0  0  0  0  0  0  0  0
  139.8493   80.5283  224.5197 H   0  0  0  0  0  0  0  0  0  0  0  0
  139.6559   81.5720  223.1022 H   0  0  0  0  0  0  0  0  0  0  0  0
  139.2612   78.8964  222.9297 H   0  0  0  0  0  0  0  0  0  0  0  0
  140.0024   79.7544  221.5779 H   0  0  0  0  0  0  0  0  0  0  0  0
  139.0405   70.2076  222.2775 H   0  0  0  0  0  0  0  0  0  0  0  0
  138.6757   68.7092  224.2361 H   0  0  0  0  0  0  0  0  0  0  0  0
  139.0067   68.1866  226.5943 H   0  0  0  0  0  0  0  0  0  0  0  0
  141.2945   70.9028  229.0615 H   0  0  0  0  0  0  0  0  0  0  0  0
  141.6174   72.3407  227.0815 H   0  0  0  0  0  0  0  0  0  0  0  0
  1  2  2  0
  2  3  1  0
  3  4  1  0
  4  5  1  0
  5  6  2  0
  5  7  1  0
  7  8  1  0
  8  9  1  0
  9 10  1  0
 10 11  1  0
 10 12  1  0
 12 13  1  0
 13 14  1  0
 14 15  1  0
 15 16  1  0
 16 17  1  0
  2 18  1  0
 18 19  2  0
 19 20  1  0
 20 21  2  0
 21 22  1  0
 22 23  2  0
 23 24  1  0
 23 25  1  0
 25 26  2  0
 26 27  1  0
 27 28  2  0
 12  7  1  0
 17 13  1  0
 28 18  1  0
 27 21  1  0
  3 29  1  0
  4 30  1  0
  4 31  1  0
  8 32  1  0
  8 33  1  0
  9 34  1  0
  9 35  1  0
 10 36  1  6
 11 37  1  0
 12 38  1  1
 13 39  1  0
 14 40  1  0
 14 41  1  0
 15 42  1  0
 15 43  1  0
 16 44  1  0
 16 45  1  0
 17 46  1  0
 17 47  1  0
 19 48  1  0
 20 49  1  0
 22 50  1  0
 25 51  1  0
 26 52  1  0
M  END
>  <smiles>  (40) 
O=C(NCC(=O)N1CC[C@H](O)[C@H]1C1CCCC1)c1ccc2cc(F)ccc2n1

>  <score_type>  (40) 
oracle

>  <origin>  (40) 
autodockgpu

>  <m_score__min__energy>  (40) 
-8.7899999999999991

>  <m_primary>  (40) 
energy

>  <rmsd>  (40) 
2.8675816608978093

>  <m_score__min__rmsd>  (40) 
2.8675816608978093

>  <meeko>  (40) 
{"free_energy": -8.78, "intermolecular_energy": -10.57, "internal_energy": -1.54, "cluster_size": 40, "cluster_id": 1, "rank_in_cluster": 3}

>  <energy>  (40) 
-7.68

>  <cluster_rmsd>  (40) 
1.03

>  <cluster>  (40) 
1

$$$$

     RDKit          3D

 52 55  0  0  0  0  0  0  0  0999 V2000
  141.0790   71.9560  221.2650 O   0  0  0  0  0  0  0  0  0  0  0  0
  140.4400   72.4030  222.2760 C   0  0  0  0  0  0  0  0  0  0  0  0
  139.9440   73.7370  222.3030 N   0  0  0  0  0  0  0  0  0  0  0  0
  140.1390   74.6480  221.1910 C   0  0  0  0  0  0  0  0  0  0  0  0
  140.2200   76.0730  221.6930 C   0  0  0  0  0  0  0  0  0  0  0  0
  139.4110   76.3510  222.6100 O   0  0  0  0  0  0  0  0  0  0  0  0
  141.1560   76.9480  221.1190 N   0  0  0  0  0  0  0  0  0  0  0  0
  141.6960   76.7860  219.7420 C   0  0  0  0  0  0  0  0  0  0  0  0
  141.8320   78.2300  219.2440 C   0  0  0  0  0  0  0  0  0  0  0  0
  141.3750   79.0700  220.4310 C   0  0  2  0  0  0  0  0  0  0  0  0
  141.9520   80.3120  220.4870 O   0  0  0  0  0  0  0  0  0  0  0  0
  141.8200   78.1430  221.5710 C   0  0  1  0  0  0  0  0  0  0  0  0
  141.4350   78.7060  222.8760 C   0  0  0  0  0  0  0  0  0  0  0  0
  142.3330   79.7140  223.4850 C   0  0  0  0  0  0  0  0  0  0  0  0
  141.5930   81.0370  223.6190 C   0  0  0  0  0  0  0  0  0  0  0  0
  140.1570   80.6170  223.6010 C   0  0  0  0  0  0  0  0  0  0  0  0
  140.0910   79.3980  222.7000 C   0  0  0  0  0  0  0  0  0  0  0  0
  140.2100   71.5280  223.4330 C   0  0  0  0  0  0  0  0  0  0  0  0
  139.5220   70.3440  223.2640 C   0  0  0  0  0  0  0  0  0  0  0  0
  139.3340   69.5580  224.3900 C   0  0  0  0  0  0  0  0  0  0  0  0
  139.8110   69.9290  225.6390 C   0  0  0  0  0  0  0  0  0  0  0  0
  139.6270   69.1490  226.7610 C   0  0  0  0  0  0  0  0  0  0  0  0
  140.1190   69.5510  228.0070 C   0  0  0  0  0  0  0  0  0  0  0  0
  139.9240   68.7630  229.0990 F   0  0  0  0  0  0  0  0  0  0  0  0
  140.8060   70.7600  228.1080 C   0  0  0  0  0  0  0  0  0  0  0  0
  140.9750   71.5140  226.9730 C   0  0  0  0  0  0  0  0  0  0  0  0
  140.4880   71.1150  225.7500 C   0  0  0  0  0  0  0  0  0  0  0  0
  140.6750   71.8840  224.6660 N   0  0  0  0  0  0  0  0  0  0  0  0
  139.4280   74.0330  223.1720 H   0  0  0  0  0  0  0  0  0  0  0  0
  141.0738   74.3920  220.6708 H   0  0  0  0  0  0  0  0  0  0  0  0
  139.2885   74.5583  220.4992 H   0  0  0  0  0  0  0  0  0  0  0  0
  142.6733   76.2813  219.7589 H   0  0  0  0  0  0  0  0  0  0  0  0
  141.0538   76.1673  219.0979 H   0  0  0  0  0  0  0  0  0  0  0  0
  142.8759   78.4573  218.9822 H   0  0  0  0  0  0  0  0  0  0  0  0
  141.2433   78.4232  218.3351 H   0  0  0  0  0  0  0  0  0  0  0  0
  140.3069   79.3329  220.4261 H   0  0  0  0  0  0  0  0  0  0  0  0
  142.8940   80.1830  220.8060 H   0  0  0  0  0  0  0  0  0  0  0  0
  142.8924   77.9775  221.7513 H   0  0  0  0  0  0  0  0  0  0  0  0
  141.4526   77.8406  223.5549 H   0  0  0  0  0  0  0  0  0  0  0  0
  142.6504   79.3689  224.4801 H   0  0  0  0  0  0  0  0  0  0  0  0
  143.2174   79.8515  222.8455 H   0  0  0  0  0  0  0  0  0  0  0  0
  141.8471   81.5392  224.5641 H   0  0  0  0  0  0  0  0  0  0  0  0
  141.8454   81.7592  222.8286 H   0  0  0  0  0  0  0  0  0  0  0  0
  139.8206   80.3608  224.6165 H   0  0  0  0  0  0  0  0  0  0  0  0
  139.5049   81.4243  223.2363 H   0  0  0  0  0  0  0  0  0  0  0  0
  139.2705   78.7333  223.0081 H   0  0  0  0  0  0  0  0  0  0  0  0
  139.8995   79.6688  221.6512 H   0  0  0  0  0  0  0  0  0  0  0  0
  139.1396   70.0375  222.2792 H   0  0  0  0  0  0  0  0  0  0  0  0
  138.7883   68.6081  224.2901 H   0  0  0  0  0  0  0  0  0  0  0  0
  139.0848   68.1958  226.6748 H   0  0  0  0  0  0  0  0  0  0  0  0
  141.2036   71.1020  229.0749 H   0  0  0  0  0  0  0  0  0  0  0  0
  141.5175   72.4683  227.0441 H   0  0  0  0  0  0  0  0  0  0  0  0
  1  2  2  0
  2  3  1  0
  3  4  1  0
  4  5  1  0
  5  6  2  0
  5  7  1  0
  7  8  1  0
  8  9  1  0
  9 10  1  0
 10 11  1  0
 10 12  1  0
 12 13  1  0
 13 14  1  0
 14 15  1  0
 15 16  1  0
 16 17  1  0
  2 18  1  0
 18 19  2  0
 19 20  1  0
 20 21  2  0
 21 22  1  0
 22 23  2  0
 23 24  1  0
 23 25  1  0
 25 26  2  0
 26 27  1  0
 27 28  2  0
 12  7  1  0
 17 13  1  0
 28 18  1  0
 27 21  1  0
  3 29  1  0
  4 30  1  0
  4 31  1  0
  8 32  1  0
  8 33  1  0
  9 34  1  0
  9 35  1  0
 10 36  1  6
 11 37  1  0
 12 38  1  1
 13 39  1  0
 14 40  1  0
 14 41  1  0
 15 42  1  0
 15 43  1  0
 16 44  1  0
 16 45  1  0
 17 46  1  0
 17 47  1  0
 19 48  1  0
 20 49  1  0
 22 50  1  0
 25 51  1  0
 26 52  1  0
M  END
>  <smiles>  (41) 
O=C(NCC(=O)N1CC[C@H](O)[C@H]1C1CCCC1)c1ccc2cc(F)ccc2n1

>  <score_type>  (41) 
oracle

>  <origin>  (41) 
autodockgpu

>  <m_score__min__energy>  (41) 
-8.7899999999999991

>  <m_primary>  (41) 
energy

>  <rmsd>  (41) 
2.8755132284668607

>  <m_score__min__rmsd>  (41) 
2.8755132284668607

>  <meeko>  (41) 
{"free_energy": -8.67, "intermolecular_energy": -10.46, "internal_energy": -1.67, "cluster_size": 40, "cluster_id": 1, "rank_in_cluster": 12}

>  <energy>  (41) 
-7.85

>  <cluster_rmsd>  (41) 
0.0

>  <cluster>  (41) 
2

$$$$

     RDKit          3D

 52 55  0  0  0  0  0  0  0  0999 V2000
  135.9690   77.4950  223.0950 O   0  0  0  0  0  0  0  0  0  0  0  0
  136.4600   76.3550  223.3940 C   0  0  0  0  0  0  0  0  0  0  0  0
  137.7970   76.0140  223.0460 N   0  0  0  0  0  0  0  0  0  0  0  0
  138.6630   76.9380  222.3390 C   0  0  0  0  0  0  0  0  0  0  0  0
  139.9580   76.2540  221.9620 C   0  0  0  0  0  0  0  0  0  0  0  0
  139.9960   75.0280  222.2220 O   0  0  0  0  0  0  0  0  0  0  0  0
  140.9850   77.0090  221.3740 N   0  0  0  0  0  0  0  0  0  0  0  0
  141.5820   76.6930  220.0480 C   0  0  0  0  0  0  0  0  0  0  0  0
  141.8510   78.0760  219.4430 C   0  0  0  0  0  0  0  0  0  0  0  0
  141.3960   79.0440  220.5290 C   0  0  2  0  0  0  0  0  0  0  0  0
  142.0610   80.2430  220.5170 O   0  0  0  0  0  0  0  0  0  0  0  0
  141.7120   78.1890  221.7650 C   0  0  1  0  0  0  0  0  0  0  0  0
  141.3030   78.8860  222.9950 C   0  0  0  0  0  0  0  0  0  0  0  0
  142.2850   79.7950  223.6320 C   0  0  0  0  0  0  0  0  0  0  0  0
  141.7390   81.2160  223.6230 C   0  0  0  0  0  0  0  0  0  0  0  0
  140.2640   81.0040  223.4920 C   0  0  0  0  0  0  0  0  0  0  0  0
  140.0970   79.7500  222.6550 C   0  0  0  0  0  0  0  0  0  0  0  0
  135.6310   75.3750  224.1110 C   0  0  0  0  0  0  0  0  0  0  0  0
  135.7000   74.0430  223.7620 C   0  0  0  0  0  0  0  0  0  0  0  0
  134.8960   73.1630  224.4710 C   0  0  0  0  0  0  0  0  0  0  0  0
  134.0570   73.5880  225.4900 C   0  0  0  0  0  0  0  0  0  0  0  0
  133.2570   72.7150  226.1990 C   0  0  0  0  0  0  0  0  0  0  0  0
  132.4200   73.1740  227.2200 C   0  0  0  0  0  0  0  0  0  0  0  0
  131.6400   72.2930  227.9040 F   0  0  0  0  0  0  0  0  0  0  0  0
  132.3990   74.5350  227.5230 C   0  0  0  0  0  0  0  0  0  0  0  0
  133.2070   75.3780  226.8020 C   0  0  0  0  0  0  0  0  0  0  0  0
  134.0290   74.9230  225.7960 C   0  0  0  0  0  0  0  0  0  0  0  0
  134.8020   75.7820  225.1150 N   0  0  0  0  0  0  0  0  0  0  0  0
  138.1290   75.0550  223.3270 H   0  0  0  0  0  0  0  0  0  0  0  0
  138.1563   77.2854  221.4265 H   0  0  0  0  0  0  0  0  0  0  0  0
  138.8858   77.7938  222.9932 H   0  0  0  0  0  0  0  0  0  0  0  0
  142.5167   76.1244  220.1622 H   0  0  0  0  0  0  0  0  0  0  0  0
  140.9295   76.0683  219.4203 H   0  0  0  0  0  0  0  0  0  0  0  0
  142.9212   78.2068  219.2251 H   0  0  0  0  0  0  0  0  0  0  0  0
  141.3269   78.2315  218.4884 H   0  0  0  0  0  0  0  0  0  0  0  0
  140.3519   79.3789  220.4408 H   0  0  0  0  0  0  0  0  0  0  0  0
  142.9460   80.0920  220.9650 H   0  0  0  0  0  0  0  0  0  0  0  0
  142.7586   77.9657  222.0197 H   0  0  0  0  0  0  0  0  0  0  0  0
  141.1329   78.0740  223.7173 H   0  0  0  0  0  0  0  0  0  0  0  0
  142.4608   79.4760  224.6700 H   0  0  0  0  0  0  0  0  0  0  0  0
  143.2322   79.7619  223.0736 H   0  0  0  0  0  0  0  0  0  0  0  0
  141.9823   81.7398  224.5592 H   0  0  0  0  0  0  0  0  0  0  0  0
  142.1620   81.8398  222.8217 H   0  0  0  0  0  0  0  0  0  0  0  0
  139.8078   80.8659  224.4834 H   0  0  0  0  0  0  0  0  0  0  0  0
  139.7714   81.8697  223.0252 H   0  0  0  0  0  0  0  0  0  0  0  0
  139.1633   79.2312  222.9178 H   0  0  0  0  0  0  0  0  0  0  0  0
  140.0401   79.9754  221.5798 H   0  0  0  0  0  0  0  0  0  0  0  0
  136.3633   73.6937  222.9570 H   0  0  0  0  0  0  0  0  0  0  0  0
  134.9248   72.0932  224.2167 H   0  0  0  0  0  0  0  0  0  0  0  0
  133.2784   71.6422  225.9570 H   0  0  0  0  0  0  0  0  0  0  0  0
  131.7499   74.9239  228.3214 H   0  0  0  0  0  0  0  0  0  0  0  0
  133.1974   76.4528  227.0357 H   0  0  0  0  0  0  0  0  0  0  0  0
  1  2  2  0
  2  3  1  0
  3  4  1  0
  4  5  1  0
  5  6  2  0
  5  7  1  0
  7  8  1  0
  8  9  1  0
  9 10  1  0
 10 11  1  0
 10 12  1  0
 12 13  1  0
 13 14  1  0
 14 15  1  0
 15 16  1  0
 16 17  1  0
  2 18  1  0
 18 19  2  0
 19 20  1  0
 20 21  2  0
 21 22  1  0
 22 23  2  0
 23 24  1  0
 23 25  1  0
 25 26  2  0
 26 27  1  0
 27 28  2  0
 12  7  1  0
 17 13  1  0
 28 18  1  0
 27 21  1  0
  3 29  1  0
  4 30  1  0
  4 31  1  0
  8 32  1  0
  8 33  1  0
  9 34  1  0
  9 35  1  0
 10 36  1  6
 11 37  1  0
 12 38  1  1
 13 39  1  0
 14 40  1  0
 14 41  1  0
 15 42  1  0
 15 43  1  0
 16 44  1  0
 16 45  1  0
 17 46  1  0
 17 47  1  0
 19 48  1  0
 20 49  1  0
 22 50  1  0
 25 51  1  0
 26 52  1  0
M  END
>  <smiles>  (42) 
O=C(NCC(=O)N1CC[C@H](O)[C@H]1C1CCCC1)c1ccc2cc(F)ccc2n1

>  <score_type>  (42) 
oracle

>  <origin>  (42) 
autodockgpu

>  <m_score__min__energy>  (42) 
-8.7899999999999991

>  <m_primary>  (42) 
energy

>  <rmsd>  (42) 
6.089780882251418

>  <m_score__min__rmsd>  (42) 
6.089780882251418

>  <meeko>  (42) 
{"free_energy": -7.49, "intermolecular_energy": -9.28, "internal_energy": -1.81, "cluster_size": 4, "cluster_id": 4, "rank_in_cluster": 3}

>  <energy>  (42) 
-7.81

>  <cluster_rmsd>  (42) 
0.0

>  <cluster>  (42) 
3

$$$$

     RDKit          3D

 52 55  0  0  0  0  0  0  0  0999 V2000
  138.4620   71.2710  221.4760 O   0  0  0  0  0  0  0  0  0  0  0  0
  139.0560   71.7210  222.5120 C   0  0  0  0  0  0  0  0  0  0  0  0
  139.4750   73.0790  222.5900 N   0  0  0  0  0  0  0  0  0  0  0  0
  139.2490   74.0130  221.5030 C   0  0  0  0  0  0  0  0  0  0  0  0
  139.9710   75.3140  221.7760 C   0  0  0  0  0  0  0  0  0  0  0  0
  141.1990   75.1940  221.9990 O   0  0  0  0  0  0  0  0  0  0  0  0
  139.2440   76.5150  221.7620 N   0  0  0  0  0  0  0  0  0  0  0  0
  137.7580   76.5770  221.8040 C   0  0  0  0  0  0  0  0  0  0  0  0
  137.4800   77.8150  222.6650 C   0  0  0  0  0  0  0  0  0  0  0  0
  138.8690   78.3490  222.9960 C   0  0  2  0  0  0  0  0  0  0  0  0
  138.9090   79.7030  223.2010 O   0  0  0  0  0  0  0  0  0  0  0  0
  139.6080   77.9070  221.7240 C   0  0  1  0  0  0  0  0  0  0  0  0
  141.0350   78.2590  221.8060 C   0  0  0  0  0  0  0  0  0  0  0  0
  141.4530   79.5800  221.2810 C   0  0  0  0  0  0  0  0  0  0  0  0
  142.0240   80.4190  222.4140 C   0  0  0  0  0  0  0  0  0  0  0  0
  142.4250   79.3880  223.4210 C   0  0  0  0  0  0  0  0  0  0  0  0
  141.4260   78.2550  223.2770 C   0  0  0  0  0  0  0  0  0  0  0  0
  139.3130   70.8240  223.6470 C   0  0  0  0  0  0  0  0  0  0  0  0
  138.9380   69.5000  223.5640 C   0  0  0  0  0  0  0  0  0  0  0  0
  139.2040   68.6990  224.6640 C   0  0  0  0  0  0  0  0  0  0  0  0
  139.8210   69.1910  225.8050 C   0  0  0  0  0  0  0  0  0  0  0  0
  140.0880   68.3970  226.9010 C   0  0  0  0  0  0  0  0  0  0  0  0
  140.7110   68.9240  228.0370 C   0  0  0  0  0  0  0  0  0  0  0  0
  140.9630   68.1200  229.1050 F   0  0  0  0  0  0  0  0  0  0  0  0
  141.0650   70.2730  228.0550 C   0  0  0  0  0  0  0  0  0  0  0  0
  140.7870   71.0370  226.9490 C   0  0  0  0  0  0  0  0  0  0  0  0
  140.1730   70.5150  225.8330 C   0  0  0  0  0  0  0  0  0  0  0  0
  139.9190   71.2990  224.7740 N   0  0  0  0  0  0  0  0  0  0  0  0
  139.9580   73.3750  223.4780 H   0  0  0  0  0  0  0  0  0  0  0  0
  139.6254   73.5779  220.5655 H   0  0  0  0  0  0  0  0  0  0  0  0
  138.1704   74.2112  221.4175 H   0  0  0  0  0  0  0  0  0  0  0  0
  137.3401   76.6979  220.7937 H   0  0  0  0  0  0  0  0  0  0  0  0
  137.3005   75.6613  222.2068 H   0  0  0  0  0  0  0  0  0  0  0  0
  136.8977   78.5601  222.1031 H   0  0  0  0  0  0  0  0  0  0  0  0
  136.8886   77.5837  223.5632 H   0  0  0  0  0  0  0  0  0  0  0  0
  139.2922   77.9792  223.9416 H   0  0  0  0  0  0  0  0  0  0  0  0
  139.5390   79.8660  223.9650 H   0  0  0  0  0  0  0  0  0  0  0  0
  139.3586   78.3735  220.7595 H   0  0  0  0  0  0  0  0  0  0  0  0
  141.5294   77.5126  221.1669 H   0  0  0  0  0  0  0  0  0  0  0  0
  142.2206   79.4401  220.5056 H   0  0  0  0  0  0  0  0  0  0  0  0
  140.5826   80.0940  220.8472 H   0  0  0  0  0  0  0  0  0  0  0  0
  142.8935   81.0018  222.0760 H   0  0  0  0  0  0  0  0  0  0  0  0
  141.3126   81.1594  222.8087 H   0  0  0  0  0  0  0  0  0  0  0  0
  143.4439   79.0281  223.2152 H   0  0  0  0  0  0  0  0  0  0  0  0
  142.4252   79.7989  224.4414 H   0  0  0  0  0  0  0  0  0  0  0  0
  141.8878   77.2952  223.5517 H   0  0  0  0  0  0  0  0  0  0  0  0
  140.5552   78.3857  223.9363 H   0  0  0  0  0  0  0  0  0  0  0  0
  138.4493   69.0968  222.6647 H   0  0  0  0  0  0  0  0  0  0  0  0
  138.9162   67.6378  224.6309 H   0  0  0  0  0  0  0  0  0  0  0  0
  139.8068   67.3337  226.8813 H   0  0  0  0  0  0  0  0  0  0  0  0
  141.5556   70.7144  228.9351 H   0  0  0  0  0  0  0  0  0  0  0  0
  141.0640   72.1015  226.9547 H   0  0  0  0  0  0  0  0  0  0  0  0
  1  2  2  0
  2  3  1  0
  3  4  1  0
  4  5  1  0
  5  6  2  0
  5  7  1  0
  7  8  1  0
  8  9  1  0
  9 10  1  0
 10 11  1  0
 10 12  1  0
 12 13  1  0
 13 14  1  0
 14 15  1  0
 15 16  1  0
 16 17  1  0
  2 18  1  0
 18 19  2  0
 19 20  1  0
 20 21  2  0
 21 22  1  0
 22 23  2  0
 23 24  1  0
 23 25  1  0
 25 26  2  0
 26 27  1  0
 27 28  2  0
 12  7  1  0
 17 13  1  0
 28 18  1  0
 27 21  1  0
  3 29  1  0
  4 30  1  0
  4 31  1  0
  8 32  1  0
  8 33  1  0
  9 34  1  0
  9 35  1  0
 10 36  1  1
 11 37  1  0
 12 38  1  6
 13 39  1  0
 14 40  1  0
 14 41  1  0
 15 42  1  0
 15 43  1  0
 16 44  1  0
 16 45  1  0
 17 46  1  0
 17 47  1  0
 19 48  1  0
 20 49  1  0
 22 50  1  0
 25 51  1  0
 26 52  1  0
M  END
>  <smiles>  (43) 
O=C(NCC(=O)N1CC[C@H](O)[C@H]1C1CCCC1)c1ccc2cc(F)ccc2n1

>  <score_type>  (43) 
oracle

>  <origin>  (43) 
autodockgpu

>  <m_score__min__energy>  (43) 
-8.7899999999999991

>  <m_primary>  (43) 
energy

>  <rmsd>  (43) 
3.3115849118527345

>  <m_score__min__rmsd>  (43) 
3.3115849118527345

>  <meeko>  (43) 
{"free_energy": -7.8, "intermolecular_energy": -9.59, "internal_energy": -1.68, "cluster_size": 40, "cluster_id": 1, "rank_in_cluster": 39}

>  <energy>  (43) 
-7.67

>  <cluster_rmsd>  (43) 
1.44

>  <cluster>  (43) 
3

$$$$

     RDKit          3D

 52 55  0  0  0  0  0  0  0  0999 V2000
  141.0840   71.9700  221.2290 O   0  0  0  0  0  0  0  0  0  0  0  0
  140.4710   72.4270  222.2510 C   0  0  0  0  0  0  0  0  0  0  0  0
  140.0090   73.7720  222.2920 N   0  0  0  0  0  0  0  0  0  0  0  0
  140.2110   74.6850  221.1830 C   0  0  0  0  0  0  0  0  0  0  0  0
  140.3340   76.1040  221.6920 C   0  0  0  0  0  0  0  0  0  0  0  0
  139.6570   76.3520  222.7180 O   0  0  0  0  0  0  0  0  0  0  0  0
  141.1620   77.0070  221.0070 N   0  0  0  0  0  0  0  0  0  0  0  0
  141.5530   76.8440  219.5800 C   0  0  0  0  0  0  0  0  0  0  0  0
  141.5720   78.2840  219.0530 C   0  0  0  0  0  0  0  0  0  0  0  0
  141.2130   79.1250  220.2720 C   0  0  2  0  0  0  0  0  0  0  0  0
  141.7400   80.3890  220.2490 O   0  0  0  0  0  0  0  0  0  0  0  0
  141.8210   78.2350  221.3670 C   0  0  1  0  0  0  0  0  0  0  0  0
  141.5600   78.8040  222.7000 C   0  0  0  0  0  0  0  0  0  0  0  0
  142.5300   79.7890  223.2330 C   0  0  0  0  0  0  0  0  0  0  0  0
  141.8360   81.1290  223.4290 C   0  0  0  0  0  0  0  0  0  0  0  0
  140.3940   80.7430  223.5300 C   0  0  0  0  0  0  0  0  0  0  0  0
  140.2230   79.5290  222.6370 C   0  0  0  0  0  0  0  0  0  0  0  0
  140.2350   71.5500  223.4060 C   0  0  0  0  0  0  0  0  0  0  0  0
  139.5460   70.3680  223.2330 C   0  0  0  0  0  0  0  0  0  0  0  0
  139.3520   69.5810  224.3580 C   0  0  0  0  0  0  0  0  0  0  0  0
  139.8250   69.9500  225.6080 C   0  0  0  0  0  0  0  0  0  0  0  0
  139.6360   69.1680  226.7290 C   0  0  0  0  0  0  0  0  0  0  0  0
  140.1240   69.5670  227.9770 C   0  0  0  0  0  0  0  0  0  0  0  0
  139.9230   68.7790  229.0670 F   0  0  0  0  0  0  0  0  0  0  0  0
  140.8140   70.7750  228.0820 C   0  0  0  0  0  0  0  0  0  0  0  0
  140.9880   71.5300  226.9490 C   0  0  0  0  0  0  0  0  0  0  0  0
  140.5040   71.1340  225.7230 C   0  0  0  0  0  0  0  0  0  0  0  0
  140.6970   71.9030  224.6410 N   0  0  0  0  0  0  0  0  0  0  0  0
  139.5120   74.0750  223.1700 H   0  0  0  0  0  0  0  0  0  0  0  0
  141.1320   74.4094  220.6483 H   0  0  0  0  0  0  0  0  0  0  0  0
  139.3490   74.6206  220.5028 H   0  0  0  0  0  0  0  0  0  0  0  0
  142.5465   76.3798  219.4942 H   0  0  0  0  0  0  0  0  0  0  0  0
  140.8704   76.1891  219.0187 H   0  0  0  0  0  0  0  0  0  0  0  0
  142.5703   78.5492  218.6748 H   0  0  0  0  0  0  0  0  0  0  0  0
  140.8790   78.4374  218.2127 H   0  0  0  0  0  0  0  0  0  0  0  0
  140.1408   79.3448  220.3818 H   0  0  0  0  0  0  0  0  0  0  0  0
  140.9750   81.0280  220.3580 H   0  0  0  0  0  0  0  0  0  0  0  0
  142.9128   78.1159  221.4280 H   0  0  0  0  0  0  0  0  0  0  0  0
  141.6133   77.9366  223.3744 H   0  0  0  0  0  0  0  0  0  0  0  0
  142.9206   79.4337  224.1980 H   0  0  0  0  0  0  0  0  0  0  0  0
  143.3611   79.9069  222.5221 H   0  0  0  0  0  0  0  0  0  0  0  0
  142.1797   81.6224  224.3501 H   0  0  0  0  0  0  0  0  0  0  0  0
  142.0393   81.8473  222.6211 H   0  0  0  0  0  0  0  0  0  0  0  0
  140.1374   80.4919  224.5698 H   0  0  0  0  0  0  0  0  0  0  0  0
  139.7337   81.5668  223.2211 H   0  0  0  0  0  0  0  0  0  0  0  0
  139.4149   78.8837  223.0119 H   0  0  0  0  0  0  0  0  0  0  0  0
  139.9513   79.8072  221.6080 H   0  0  0  0  0  0  0  0  0  0  0  0
  139.1672   70.0630  222.2463 H   0  0  0  0  0  0  0  0  0  0  0  0
  138.8047   68.6324  224.2554 H   0  0  0  0  0  0  0  0  0  0  0  0
  139.0928   68.2157  226.6394 H   0  0  0  0  0  0  0  0  0  0  0  0
  141.2095   71.1146  229.0506 H   0  0  0  0  0  0  0  0  0  0  0  0
  141.5323   72.4830  227.0234 H   0  0  0  0  0  0  0  0  0  0  0  0
  1  2  2  0
  2  3  1  0
  3  4  1  0
  4  5  1  0
  5  6  2  0
  5  7  1  0
  7  8  1  0
  8  9  1  0
  9 10  1  0
 10 11  1  0
 10 12  1  0
 12 13  1  0
 13 14  1  0
 14 15  1  0
 15 16  1  0
 16 17  1  0
  2 18  1  0
 18 19  2  0
 19 20  1  0
 20 21  2  0
 21 22  1  0
 22 23  2  0
 23 24  1  0
 23 25  1  0
 25 26  2  0
 26 27  1  0
 27 28  2  0
 12  7  1  0
 17 13  1  0
 28 18  1  0
 27 21  1  0
  3 29  1  0
  4 30  1  0
  4 31  1  0
  8 32  1  0
  8 33  1  0
  9 34  1  0
  9 35  1  0
 10 36  1  1
 11 37  1  0
 12 38  1  6
 13 39  1  0
 14 40  1  0
 14 41  1  0
 15 42  1  0
 15 43  1  0
 16 44  1  0
 16 45  1  0
 17 46  1  0
 17 47  1  0
 19 48  1  0
 20 49  1  0
 22 50  1  0
 25 51  1  0
 26 52  1  0
M  END
>  <smiles>  (44) 
O=C(NCC(=O)N1CC[C@H](O)[C@H]1C1CCCC1)c1ccc2cc(F)ccc2n1

>  <score_type>  (44) 
oracle

>  <origin>  (44) 
autodockgpu

>  <m_score__min__energy>  (44) 
-8.7899999999999991

>  <m_primary>  (44) 
energy

>  <rmsd>  (44) 
2.8375253487530037

>  <m_score__min__rmsd>  (44) 
2.8375253487530037

>  <meeko>  (44) 
{"free_energy": -8.31, "intermolecular_energy": -10.1, "internal_energy": -1.72, "cluster_size": 40, "cluster_id": 1, "rank_in_cluster": 29}

>  <energy>  (44) 
-7.66

>  <cluster_rmsd>  (44) 
1.41

>  <cluster>  (44) 
3

$$$$

     RDKit          3D

 52 55  0  0  0  0  0  0  0  0999 V2000
  141.2730   72.8430  222.0180 O   0  0  0  0  0  0  0  0  0  0  0  0
  140.1620   72.7070  222.6320 C   0  0  0  0  0  0  0  0  0  0  0  0
  139.0430   73.5310  222.3220 N   0  0  0  0  0  0  0  0  0  0  0  0
  139.1100   74.5580  221.3000 C   0  0  0  0  0  0  0  0  0  0  0  0
  139.4980   75.8830  221.9170 C   0  0  0  0  0  0  0  0  0  0  0  0
  138.7120   76.2970  222.8020 O   0  0  0  0  0  0  0  0  0  0  0  0
  140.6620   76.5300  221.4730 N   0  0  0  0  0  0  0  0  0  0  0  0
  141.4180   76.1190  220.2590 C   0  0  0  0  0  0  0  0  0  0  0  0
  141.8930   77.4540  219.6710 C   0  0  0  0  0  0  0  0  0  0  0  0
  141.3710   78.4930  220.6550 C   0  0  2  0  0  0  0  0  0  0  0  0
  142.1320   79.6310  220.7180 O   0  0  0  0  0  0  0  0  0  0  0  0
  141.4240   77.6580  221.9420 C   0  0  1  0  0  0  0  0  0  0  0  0
  140.9010   78.4280  223.0830 C   0  0  0  0  0  0  0  0  0  0  0  0
  141.8390   79.3250  223.7980 C   0  0  0  0  0  0  0  0  0  0  0  0
  141.3660   80.7650  223.6630 C   0  0  0  0  0  0  0  0  0  0  0  0
  139.9090   80.6080  223.3580 C   0  0  0  0  0  0  0  0  0  0  0  0
  139.7870   79.3240  222.5600 C   0  0  0  0  0  0  0  0  0  0  0  0
  140.0320   71.6830  223.6780 C   0  0  0  0  0  0  0  0  0  0  0  0
  139.3410   70.5210  223.4090 C   0  0  0  0  0  0  0  0  0  0  0  0
  139.2490   69.5900  224.4330 C   0  0  0  0  0  0  0  0  0  0  0  0
  139.8220   69.8030  225.6780 C   0  0  0  0  0  0  0  0  0  0  0  0
  139.7340   68.8790  226.6980 C   0  0  0  0  0  0  0  0  0  0  0  0
  140.3220   69.1220  227.9430 C   0  0  0  0  0  0  0  0  0  0  0  0
  140.2210   68.1950  228.9330 F   0  0  0  0  0  0  0  0  0  0  0  0
  141.0080   70.3190  228.1490 C   0  0  0  0  0  0  0  0  0  0  0  0
  141.0790   71.2190  227.1140 C   0  0  0  0  0  0  0  0  0  0  0  0
  140.4980   70.9750  225.8900 C   0  0  0  0  0  0  0  0  0  0  0  0
  140.5920   71.8830  224.9070 N   0  0  0  0  0  0  0  0  0  0  0  0
  138.1620   73.3600  222.8720 H   0  0  0  0  0  0  0  0  0  0  0  0
  139.8604   74.2737  220.5476 H   0  0  0  0  0  0  0  0  0  0  0  0
  138.1225   74.6579  220.8258 H   0  0  0  0  0  0  0  0  0  0  0  0
  142.2724   75.4790  220.5246 H   0  0  0  0  0  0  0  0  0  0  0  0
  140.8136   75.5288  219.5545 H   0  0  0  0  0  0  0  0  0  0  0  0
  142.9909   77.4874  219.6121 H   0  0  0  0  0  0  0  0  0  0  0  0
  141.5298   77.6197  218.6460 H   0  0  0  0  0  0  0  0  0  0  0  0
  140.3853   78.9112  220.4030 H   0  0  0  0  0  0  0  0  0  0  0  0
  142.9510   79.4080  221.2520 H   0  0  0  0  0  0  0  0  0  0  0  0
  142.3983   77.3575  222.3548 H   0  0  0  0  0  0  0  0  0  0  0  0
  140.6070   77.6586  223.8121 H   0  0  0  0  0  0  0  0  0  0  0  0
  141.8720   79.0481  224.8621 H   0  0  0  0  0  0  0  0  0  0  0  0
  142.8443   79.2268  223.3623 H   0  0  0  0  0  0  0  0  0  0  0  0
  141.5170   81.3212  224.5999 H   0  0  0  0  0  0  0  0  0  0  0  0
  141.9128   81.3330  222.8960 H   0  0  0  0  0  0  0  0  0  0  0  0
  139.3287   80.5360  224.2897 H   0  0  0  0  0  0  0  0  0  0  0  0
  139.5186   81.4703  222.7976 H   0  0  0  0  0  0  0  0  0  0  0  0
  138.8050   78.8571  222.7264 H   0  0  0  0  0  0  0  0  0  0  0  0
  139.8723   79.5004  221.4776 H   0  0  0  0  0  0  0  0  0  0  0  0
  138.8827   70.3400  222.4255 H   0  0  0  0  0  0  0  0  0  0  0  0
  138.7037   68.6520  224.2518 H   0  0  0  0  0  0  0  0  0  0  0  0
  139.1928   67.9363  226.5295 H   0  0  0  0  0  0  0  0  0  0  0  0
  141.4811   70.5370  229.1179 H   0  0  0  0  0  0  0  0  0  0  0  0
  141.6176   72.1656  227.2681 H   0  0  0  0  0  0  0  0  0  0  0  0
  1  2  2  0
  2  3  1  0
  3  4  1  0
  4  5  1  0
  5  6  2  0
  5  7  1  0
  7  8  1  0
  8  9  1  0
  9 10  1  0
 10 11  1  0
 10 12  1  0
 12 13  1  0
 13 14  1  0
 14 15  1  0
 15 16  1  0
 16 17  1  0
  2 18  1  0
 18 19  2  0
 19 20  1  0
 20 21  2  0
 21 22  1  0
 22 23  2  0
 23 24  1  0
 23 25  1  0
 25 26  2  0
 26 27  1  0
 27 28  2  0
 12  7  1  0
 17 13  1  0
 28 18  1  0
 27 21  1  0
  3 29  1  0
  4 30  1  0
  4 31  1  0
  8 32  1  0
  8 33  1  0
  9 34  1  0
  9 35  1  0
 10 36  1  6
 11 37  1  0
 12 38  1  1
 13 39  1  0
 14 40  1  0
 14 41  1  0
 15 42  1  0
 15 43  1  0
 16 44  1  0
 16 45  1  0
 17 46  1  0
 17 47  1  0
 19 48  1  0
 20 49  1  0
 22 50  1  0
 25 51  1  0
 26 52  1  0
M  END
>  <smiles>  (45) 
O=C(NCC(=O)N1CC[C@H](O)[C@H]1C1CCCC1)c1ccc2cc(F)ccc2n1

>  <score_type>  (45) 
oracle

>  <origin>  (45) 
autodockgpu

>  <m_score__min__energy>  (45) 
-8.7899999999999991

>  <m_primary>  (45) 
energy

>  <rmsd>  (45) 
2.768872299002215

>  <m_score__min__rmsd>  (45) 
2.768872299002215

>  <meeko>  (45) 
{"free_energy": -8.7, "intermolecular_energy": -10.48, "internal_energy": -1.39, "cluster_size": 40, "cluster_id": 1, "rank_in_cluster": 10}

>  <energy>  (45) 
-7.61

>  <cluster_rmsd>  (45) 
0.88

>  <cluster>  (45) 
3

$$$$

     RDKit          3D

 52 55  0  0  0  0  0  0  0  0999 V2000
  141.1520   71.9440  221.2290 O   0  0  0  0  0  0  0  0  0  0  0  0
  140.5210   72.4070  222.2370 C   0  0  0  0  0  0  0  0  0  0  0  0
  140.0630   73.7540  222.2650 N   0  0  0  0  0  0  0  0  0  0  0  0
  140.2900   74.6620  221.1570 C   0  0  0  0  0  0  0  0  0  0  0  0
  140.3730   76.0860  221.6590 C   0  0  0  0  0  0  0  0  0  0  0  0
  139.7070   76.3150  222.6960 O   0  0  0  0  0  0  0  0  0  0  0  0
  141.1580   77.0150  220.9560 N   0  0  0  0  0  0  0  0  0  0  0  0
  141.4830   76.8880  219.5090 C   0  0  0  0  0  0  0  0  0  0  0  0
  141.4600   78.3390  219.0140 C   0  0  0  0  0  0  0  0  0  0  0  0
  141.1500   79.1480  220.2680 C   0  0  2  0  0  0  0  0  0  0  0  0
  141.6610   80.4190  220.2490 O   0  0  0  0  0  0  0  0  0  0  0  0
  141.8190   78.2430  221.3130 C   0  0  1  0  0  0  0  0  0  0  0  0
  141.6150   78.7780  222.6690 C   0  0  0  0  0  0  0  0  0  0  0  0
  142.5820   79.7840  223.1670 C   0  0  0  0  0  0  0  0  0  0  0  0
  141.8580   81.0970  223.4270 C   0  0  0  0  0  0  0  0  0  0  0  0
  140.4360   80.6640  223.6000 C   0  0  0  0  0  0  0  0  0  0  0  0
  140.2550   79.4610  222.6930 C   0  0  0  0  0  0  0  0  0  0  0  0
  140.2600   71.5350  223.3910 C   0  0  0  0  0  0  0  0  0  0  0  0
  139.5610   70.3600  223.2100 C   0  0  0  0  0  0  0  0  0  0  0  0
  139.3430   69.5770  224.3330 C   0  0  0  0  0  0  0  0  0  0  0  0
  139.8020   69.9440  225.5900 C   0  0  0  0  0  0  0  0  0  0  0  0
  139.5880   69.1670  226.7100 C   0  0  0  0  0  0  0  0  0  0  0  0
  140.0620   69.5640  227.9630 C   0  0  0  0  0  0  0  0  0  0  0  0
  139.8380   68.7800  229.0530 F   0  0  0  0  0  0  0  0  0  0  0  0
  140.7620   70.7650  228.0770 C   0  0  0  0  0  0  0  0  0  0  0  0
  140.9600   71.5160  226.9440 C   0  0  0  0  0  0  0  0  0  0  0  0
  140.4910   71.1220  225.7120 C   0  0  0  0  0  0  0  0  0  0  0  0
  140.7060   71.8870  224.6310 N   0  0  0  0  0  0  0  0  0  0  0  0
  139.5510   74.0620  223.1320 H   0  0  0  0  0  0  0  0  0  0  0  0
  141.2334   74.3971  220.6572 H   0  0  0  0  0  0  0  0  0  0  0  0
  139.4537   74.5792  220.4473 H   0  0  0  0  0  0  0  0  0  0  0  0
  142.4768   76.4386  219.3663 H   0  0  0  0  0  0  0  0  0  0  0  0
  140.7825   76.2366  218.9659 H   0  0  0  0  0  0  0  0  0  0  0  0
  142.4359   78.6252  218.5947 H   0  0  0  0  0  0  0  0  0  0  0  0
  140.7261   78.5022  218.2111 H   0  0  0  0  0  0  0  0  0  0  0  0
  140.0815   79.3511  220.4329 H   0  0  0  0  0  0  0  0  0  0  0  0
  140.8920   81.0430  220.0910 H   0  0  0  0  0  0  0  0  0  0  0  0
  142.9139   78.1373  221.3206 H   0  0  0  0  0  0  0  0  0  0  0  0
  141.7324   77.9009  223.3224 H   0  0  0  0  0  0  0  0  0  0  0  0
  143.0366   79.4244  224.1019 H   0  0  0  0  0  0  0  0  0  0  0  0
  143.3684   79.9413  222.4141 H   0  0  0  0  0  0  0  0  0  0  0  0
  142.2370   81.5848  224.3372 H   0  0  0  0  0  0  0  0  0  0  0  0
  141.9933   81.8352  222.6227 H   0  0  0  0  0  0  0  0  0  0  0  0
  140.2452   80.3860  224.6471 H   0  0  0  0  0  0  0  0  0  0  0  0
  139.7338   81.4715  223.3453 H   0  0  0  0  0  0  0  0  0  0  0  0
  139.4890   78.7832  223.0979 H   0  0  0  0  0  0  0  0  0  0  0  0
  139.9195   79.7494  221.6859 H   0  0  0  0  0  0  0  0  0  0  0  0
  139.1928   70.0575  222.2186 H   0  0  0  0  0  0  0  0  0  0  0  0
  138.7878   68.6336  224.2240 H   0  0  0  0  0  0  0  0  0  0  0  0
  139.0357   68.2204  226.6150 H   0  0  0  0  0  0  0  0  0  0  0  0
  141.1463   71.1027  229.0508 H   0  0  0  0  0  0  0  0  0  0  0  0
  141.5120   72.4641  227.0244 H   0  0  0  0  0  0  0  0  0  0  0  0
  1  2  2  0
  2  3  1  0
  3  4  1  0
  4  5  1  0
  5  6  2  0
  5  7  1  0
  7  8  1  0
  8  9  1  0
  9 10  1  0
 10 11  1  0
 10 12  1  0
 12 13  1  0
 13 14  1  0
 14 15  1  0
 15 16  1  0
 16 17  1  0
  2 18  1  0
 18 19  2  0
 19 20  1  0
 20 21  2  0
 21 22  1  0
 22 23  2  0
 23 24  1  0
 23 25  1  0
 25 26  2  0
 26 27  1  0
 27 28  2  0
 12  7  1  0
 17 13  1  0
 28 18  1  0
 27 21  1  0
  3 29  1  0
  4 30  1  0
  4 31  1  0
  8 32  1  0
  8 33  1  0
  9 34  1  0
  9 35  1  0
 10 36  1  1
 11 37  1  0
 12 38  1  6
 13 39  1  0
 14 40  1  0
 14 41  1  0
 15 42  1  0
 15 43  1  0
 16 44  1  0
 16 45  1  0
 17 46  1  0
 17 47  1  0
 19 48  1  0
 20 49  1  0
 22 50  1  0
 25 51  1  0
 26 52  1  0
M  END
>  <smiles>  (46) 
O=C(NCC(=O)N1CC[C@H](O)[C@H]1C1CCCC1)c1ccc2cc(F)ccc2n1

>  <score_type>  (46) 
oracle

>  <origin>  (46) 
autodockgpu

>  <m_score__min__energy>  (46) 
-8.7899999999999991

>  <m_primary>  (46) 
energy

>  <rmsd>  (46) 
2.8250557987256477

>  <m_score__min__rmsd>  (46) 
2.8250557987256477

>  <meeko>  (46) 
{"free_energy": -8.28, "intermolecular_energy": -10.07, "internal_energy": -1.76, "cluster_size": 40, "cluster_id": 1, "rank_in_cluster": 32}

>  <energy>  (46) 
-7.5

>  <cluster_rmsd>  (46) 
0.0

>  <cluster>  (46) 
4

$$$$

     RDKit          3D

 52 55  0  0  0  0  0  0  0  0999 V2000
  140.7320   71.7360  221.0800 O   0  0  0  0  0  0  0  0  0  0  0  0
  140.2870   72.2390  222.1650 C   0  0  0  0  0  0  0  0  0  0  0  0
  139.9400   73.6170  222.2510 N   0  0  0  0  0  0  0  0  0  0  0  0
  140.0740   74.5110  221.1170 C   0  0  0  0  0  0  0  0  0  0  0  0
  140.5190   75.8800  221.5830 C   0  0  0  0  0  0  0  0  0  0  0  0
  140.0180   76.2500  222.6710 O   0  0  0  0  0  0  0  0  0  0  0  0
  141.4230   76.6100  220.7950 N   0  0  0  0  0  0  0  0  0  0  0  0
  142.1600   76.0310  219.6400 C   0  0  0  0  0  0  0  0  0  0  0  0
  142.2050   77.1880  218.6340 C   0  0  0  0  0  0  0  0  0  0  0  0
  141.5010   78.3300  219.3590 C   0  0  2  0  0  0  0  0  0  0  0  0
  141.9270   79.5750  218.9780 O   0  0  0  0  0  0  0  0  0  0  0  0
  141.8850   77.9740  220.8030 C   0  0  1  0  0  0  0  0  0  0  0  0
  141.2680   78.9160  221.7500 C   0  0  0  0  0  0  0  0  0  0  0  0
  141.3960   78.6240  223.1970 C   0  0  0  0  0  0  0  0  0  0  0  0
  142.1820   79.7380  223.8720 C   0  0  0  0  0  0  0  0  0  0  0  0
  142.0080   80.8850  222.9270 C   0  0  0  0  0  0  0  0  0  0  0  0
  141.9220   80.2740  221.5410 C   0  0  0  0  0  0  0  0  0  0  0  0
  140.1280   71.3830  223.3500 C   0  0  0  0  0  0  0  0  0  0  0  0
  139.5680   70.1310  223.2120 C   0  0  0  0  0  0  0  0  0  0  0  0
  139.4420   69.3670  224.3620 C   0  0  0  0  0  0  0  0  0  0  0  0
  139.8570   69.8260  225.6030 C   0  0  0  0  0  0  0  0  0  0  0  0
  139.7350   69.0680  226.7500 C   0  0  0  0  0  0  0  0  0  0  0  0
  140.1620   69.5590  227.9870 C   0  0  0  0  0  0  0  0  0  0  0  0
  140.0290   68.7930  229.1030 F   0  0  0  0  0  0  0  0  0  0  0  0
  140.7200   70.8360  228.0560 C   0  0  0  0  0  0  0  0  0  0  0  0
  140.8300   71.5650  226.8980 C   0  0  0  0  0  0  0  0  0  0  0  0
  140.4070   71.0780  225.6820 C   0  0  0  0  0  0  0  0  0  0  0  0
  140.5330   71.8260  224.5750 N   0  0  0  0  0  0  0  0  0  0  0  0
  139.5800   73.9580  223.1800 H   0  0  0  0  0  0  0  0  0  0  0  0
  140.8205   74.1039  220.4192 H   0  0  0  0  0  0  0  0  0  0  0  0
  139.1004   74.6014  220.6132 H   0  0  0  0  0  0  0  0  0  0  0  0
  143.1748   75.7246  219.9337 H   0  0  0  0  0  0  0  0  0  0  0  0
  141.6828   75.1266  219.2347 H   0  0  0  0  0  0  0  0  0  0  0  0
  143.2440   77.4580  218.3939 H   0  0  0  0  0  0  0  0  0  0  0  0
  141.7287   76.9359  217.6751 H   0  0  0  0  0  0  0  0  0  0  0  0
  140.4214   78.4058  219.1621 H   0  0  0  0  0  0  0  0  0  0  0  0
  141.1080   80.1360  218.8410 H   0  0  0  0  0  0  0  0  0  0  0  0
  142.9344   78.0536  221.1231 H   0  0  0  0  0  0  0  0  0  0  0  0
  140.1931   78.8527  221.5252 H   0  0  0  0  0  0  0  0  0  0  0  0
  140.3947   78.5570  223.6474 H   0  0  0  0  0  0  0  0  0  0  0  0
  141.9241   77.6686  223.3328 H   0  0  0  0  0  0  0  0  0  0  0  0
  141.7650   79.9735  224.8622 H   0  0  0  0  0  0  0  0  0  0  0  0
  143.2355   79.4794  224.0542 H   0  0  0  0  0  0  0  0  0  0  0  0
  141.0848   81.4358  223.1601 H   0  0  0  0  0  0  0  0  0  0  0  0
  142.8411   81.5994  223.0019 H   0  0  0  0  0  0  0  0  0  0  0  0
  141.3072   80.9016  220.8791 H   0  0  0  0  0  0  0  0  0  0  0  0
  142.9099   80.1883  221.0649 H   0  0  0  0  0  0  0  0  0  0  0  0
  139.2359   69.7549  222.2331 H   0  0  0  0  0  0  0  0  0  0  0  0
  138.9981   68.3633  224.2876 H   0  0  0  0  0  0  0  0  0  0  0  0
  139.2948   68.0617  226.6897 H   0  0  0  0  0  0  0  0  0  0  0  0
  141.0637   71.2489  229.0159 H   0  0  0  0  0  0  0  0  0  0  0  0
  141.2708   72.5718  226.9433 H   0  0  0  0  0  0  0  0  0  0  0  0
  1  2  2  0
  2  3  1  0
  3  4  1  0
  4  5  1  0
  5  6  2  0
  5  7  1  0
  7  8  1  0
  8  9  1  0
  9 10  1  0
 10 11  1  0
 10 12  1  0
 12 13  1  0
 13 14  1  0
 14 15  1  0
 15 16  1  0
 16 17  1  0
  2 18  1  0
 18 19  2  0
 19 20  1  0
 20 21  2  0
 21 22  1  0
 22 23  2  0
 23 24  1  0
 23 25  1  0
 25 26  2  0
 26 27  1  0
 27 28  2  0
 12  7  1  0
 17 13  1  0
 28 18  1  0
 27 21  1  0
  3 29  1  0
  4 30  1  0
  4 31  1  0
  8 32  1  0
  8 33  1  0
  9 34  1  0
  9 35  1  0
 10 36  1  1
 11 37  1  0
 12 38  1  6
 13 39  1  0
 14 40  1  0
 14 41  1  0
 15 42  1  0
 15 43  1  0
 16 44  1  0
 16 45  1  0
 17 46  1  0
 17 47  1  0
 19 48  1  0
 20 49  1  0
 22 50  1  0
 25 51  1  0
 26 52  1  0
M  END
>  <smiles>  (47) 
O=C(NCC(=O)N1CC[C@H](O)[C@H]1C1CCCC1)c1ccc2cc(F)ccc2n1

>  <score_type>  (47) 
oracle

>  <origin>  (47) 
autodockgpu

>  <m_score__min__energy>  (47) 
-8.7899999999999991

>  <m_primary>  (47) 
energy

>  <rmsd>  (47) 
2.4011231277556933

>  <m_score__min__rmsd>  (47) 
2.4011231277556933

>  <meeko>  (47) 
{"free_energy": -8.34, "intermolecular_energy": -10.13, "internal_energy": -1.42, "cluster_size": 40, "cluster_id": 1, "rank_in_cluster": 26}

>  <energy>  (47) 
-7.49

>  <cluster_rmsd>  (47) 
0.06

>  <cluster>  (47) 
4

$$$$

     RDKit          3D

 52 55  0  0  0  0  0  0  0  0999 V2000
  139.1110   70.8430  221.0980 O   0  0  0  0  0  0  0  0  0  0  0  0
  139.2700   71.4150  222.2280 C   0  0  0  0  0  0  0  0  0  0  0  0
  139.2800   72.8340  222.3410 N   0  0  0  0  0  0  0  0  0  0  0  0
  139.1110   73.6940  221.1860 C   0  0  0  0  0  0  0  0  0  0  0  0
  140.0050   74.9080  221.3050 C   0  0  0  0  0  0  0  0  0  0  0  0
  140.0350   75.4250  222.4470 O   0  0  0  0  0  0  0  0  0  0  0  0
  140.7100   75.3520  220.1750 N   0  0  0  0  0  0  0  0  0  0  0  0
  140.1290   76.2590  219.1480 C   0  0  0  0  0  0  0  0  0  0  0  0
  141.3140   77.1480  218.7520 C   0  0  0  0  0  0  0  0  0  0  0  0
  142.4680   76.6140  219.5920 C   0  0  2  0  0  0  0  0  0  0  0  0
  143.7000   76.7890  219.0180 O   0  0  0  0  0  0  0  0  0  0  0  0
  142.0440   75.1410  219.6780 C   0  0  1  0  0  0  0  0  0  0  0  0
  142.9880   74.3780  220.5120 C   0  0  0  0  0  0  0  0  0  0  0  0
  142.6240   72.9880  220.8720 C   0  0  0  0  0  0  0  0  0  0  0  0
  143.6460   72.0270  220.2810 C   0  0  0  0  0  0  0  0  0  0  0  0
  144.8430   72.9010  220.0770 C   0  0  0  0  0  0  0  0  0  0  0  0
  144.3010   74.2800  219.7490 C   0  0  0  0  0  0  0  0  0  0  0  0
  139.4460   70.5960  223.4360 C   0  0  0  0  0  0  0  0  0  0  0  0
  139.0410   69.2780  223.4280 C   0  0  0  0  0  0  0  0  0  0  0  0
  139.2300   68.5530  224.5950 C   0  0  0  0  0  0  0  0  0  0  0  0
  139.8020   69.1130  225.7280 C   0  0  0  0  0  0  0  0  0  0  0  0
  139.9940   68.3950  226.8900 C   0  0  0  0  0  0  0  0  0  0  0  0
  140.5720   68.9880  228.0160 C   0  0  0  0  0  0  0  0  0  0  0  0
  140.7490   68.2580  229.1510 F   0  0  0  0  0  0  0  0  0  0  0  0
  140.9600   70.3270  227.9570 C   0  0  0  0  0  0  0  0  0  0  0  0
  140.7580   71.0150  226.7860 C   0  0  0  0  0  0  0  0  0  0  0  0
  140.1870   70.4280  225.6800 C   0  0  0  0  0  0  0  0  0  0  0  0
  140.0070   71.1380  224.5560 N   0  0  0  0  0  0  0  0  0  0  0  0
  139.4170   73.2300  223.3070 H   0  0  0  0  0  0  0  0  0  0  0  0
  139.3749   73.1360  220.2755 H   0  0  0  0  0  0  0  0  0  0  0  0
  138.0628   74.0233  221.1334 H   0  0  0  0  0  0  0  0  0  0  0  0
  139.7577   75.6890  218.2835 H   0  0  0  0  0  0  0  0  0  0  0  0
  139.2659   76.8317  219.5181 H   0  0  0  0  0  0  0  0  0  0  0  0
  141.5339   77.0521  217.6785 H   0  0  0  0  0  0  0  0  0  0  0  0
  141.1203   78.2166  218.9269 H   0  0  0  0  0  0  0  0  0  0  0  0
  142.6099   77.1223  220.5571 H   0  0  0  0  0  0  0  0  0  0  0  0
  144.1930   77.4580  219.5800 H   0  0  0  0  0  0  0  0  0  0  0  0
  142.0544   74.5180  218.7715 H   0  0  0  0  0  0  0  0  0  0  0  0
  143.0155   74.9352  221.4600 H   0  0  0  0  0  0  0  0  0  0  0  0
  142.6128   72.8837  221.9670 H   0  0  0  0  0  0  0  0  0  0  0  0
  141.6265   72.7546  220.4715 H   0  0  0  0  0  0  0  0  0  0  0  0
  143.8687   71.2067  220.9792 H   0  0  0  0  0  0  0  0  0  0  0  0
  143.3013   71.5380  219.3580 H   0  0  0  0  0  0  0  0  0  0  0  0
  145.4510   72.9369  220.9930 H   0  0  0  0  0  0  0  0  0  0  0  0
  145.4889   72.5194  219.2725 H   0  0  0  0  0  0  0  0  0  0  0  0
  145.0012   75.0601  220.0824 H   0  0  0  0  0  0  0  0  0  0  0  0
  144.1623   74.4232  218.6672 H   0  0  0  0  0  0  0  0  0  0  0  0
  138.5880   68.8218  222.5354 H   0  0  0  0  0  0  0  0  0  0  0  0
  138.9160   67.4991  224.6232 H   0  0  0  0  0  0  0  0  0  0  0  0
  139.6875   67.3394  226.9311 H   0  0  0  0  0  0  0  0  0  0  0  0
  141.4169   70.8197  228.8279 H   0  0  0  0  0  0  0  0  0  0  0  0
  141.0627   72.0705  226.7301 H   0  0  0  0  0  0  0  0  0  0  0  0
  1  2  2  0
  2  3  1  0
  3  4  1  0
  4  5  1  0
  5  6  2  0
  5  7  1  0
  7  8  1  0
  8  9  1  0
  9 10  1  0
 10 11  1  0
 10 12  1  0
 12 13  1  0
 13 14  1  0
 14 15  1  0
 15 16  1  0
 16 17  1  0
  2 18  1  0
 18 19  2  0
 19 20  1  0
 20 21  2  0
 21 22  1  0
 22 23  2  0
 23 24  1  0
 23 25  1  0
 25 26  2  0
 26 27  1  0
 27 28  2  0
 12  7  1  0
 17 13  1  0
 28 18  1  0
 27 21  1  0
  3 29  1  0
  4 30  1  0
  4 31  1  0
  8 32  1  0
  8 33  1  0
  9 34  1  0
  9 35  1  0
 10 36  1  1
 11 37  1  0
 12 38  1  6
 13 39  1  0
 14 40  1  0
 14 41  1  0
 15 42  1  0
 15 43  1  0
 16 44  1  0
 16 45  1  0
 17 46  1  0
 17 47  1  0
 19 48  1  0
 20 49  1  0
 22 50  1  0
 25 51  1  0
 26 52  1  0
M  END
>  <smiles>  (48) 
O=C(NCC(=O)N1CC[C@H](O)[C@H]1C1CCCC1)c1ccc2cc(F)ccc2n1

>  <score_type>  (48) 
oracle

>  <origin>  (48) 
autodockgpu

>  <m_score__min__energy>  (48) 
-8.7899999999999991

>  <m_primary>  (48) 
energy

>  <rmsd>  (48) 
1.8550259656178258

>  <m_score__min__rmsd>  (48) 
1.8550259656178258

>  <meeko>  (48) 
{"free_energy": -7.66, "intermolecular_energy": -9.45, "internal_energy": -1.88, "cluster_size": 4, "cluster_id": 3, "rank_in_cluster": 3}

>  <energy>  (48) 
-7.49

>  <cluster_rmsd>  (48) 
0.09

>  <cluster>  (48) 
4

$$$$

     RDKit          3D

 52 55  0  0  0  0  0  0  0  0999 V2000
  141.2950   72.6240  221.8470 O   0  0  0  0  0  0  0  0  0  0  0  0
  140.2400   72.5890  222.5650 C   0  0  0  0  0  0  0  0  0  0  0  0
  139.1600   73.4880  222.3320 N   0  0  0  0  0  0  0  0  0  0  0  0
  139.2060   74.4800  221.2760 C   0  0  0  0  0  0  0  0  0  0  0  0
  139.9440   75.7130  221.7500 C   0  0  0  0  0  0  0  0  0  0  0  0
  141.1330   75.5110  222.0910 O   0  0  0  0  0  0  0  0  0  0  0  0
  139.2710   76.9450  221.7760 N   0  0  0  0  0  0  0  0  0  0  0  0
  137.7880   77.0720  221.7940 C   0  0  0  0  0  0  0  0  0  0  0  0
  137.5500   78.2840  222.7030 C   0  0  0  0  0  0  0  0  0  0  0  0
  138.9540   78.7400  223.0810 C   0  0  2  0  0  0  0  0  0  0  0  0
  139.0500   80.0800  223.3460 O   0  0  0  0  0  0  0  0  0  0  0  0
  139.6980   78.3200  221.8050 C   0  0  1  0  0  0  0  0  0  0  0  0
  141.1370   78.6020  221.9270 C   0  0  0  0  0  0  0  0  0  0  0  0
  141.6410   79.8760  221.3630 C   0  0  0  0  0  0  0  0  0  0  0  0
  142.2130   80.7350  222.4810 C   0  0  0  0  0  0  0  0  0  0  0  0
  142.5240   79.7300  223.5450 C   0  0  0  0  0  0  0  0  0  0  0  0
  141.4730   78.6440  223.4110 C   0  0  0  0  0  0  0  0  0  0  0  0
  140.1340   71.6050  223.6510 C   0  0  0  0  0  0  0  0  0  0  0  0
  139.5520   70.3800  223.4030 C   0  0  0  0  0  0  0  0  0  0  0  0
  139.4790   69.4900  224.4640 C   0  0  0  0  0  0  0  0  0  0  0  0
  139.9640   69.8030  225.7250 C   0  0  0  0  0  0  0  0  0  0  0  0
  139.8940   68.9210  226.7830 C   0  0  0  0  0  0  0  0  0  0  0  0
  140.3920   69.2650  228.0430 C   0  0  0  0  0  0  0  0  0  0  0  0
  140.3090   68.3770  229.0710 F   0  0  0  0  0  0  0  0  0  0  0  0
  140.9680   70.5220  228.2260 C   0  0  0  0  0  0  0  0  0  0  0  0
  141.0250   71.3780  227.1540 C   0  0  0  0  0  0  0  0  0  0  0  0
  140.5330   71.0350  225.9160 C   0  0  0  0  0  0  0  0  0  0  0  0
  140.6090   71.9030  224.8950 N   0  0  0  0  0  0  0  0  0  0  0  0
  138.3240   73.3980  222.9660 H   0  0  0  0  0  0  0  0  0  0  0  0
  139.7261   74.0581  220.4034 H   0  0  0  0  0  0  0  0  0  0  0  0
  138.1783   74.7599  221.0011 H   0  0  0  0  0  0  0  0  0  0  0  0
  137.3956   77.2545  220.7827 H   0  0  0  0  0  0  0  0  0  0  0  0
  137.2818   76.1618  222.1480 H   0  0  0  0  0  0  0  0  0  0  0  0
  137.0125   79.0780  222.1639 H   0  0  0  0  0  0  0  0  0  0  0  0
  136.9322   78.0415  223.5802 H   0  0  0  0  0  0  0  0  0  0  0  0
  139.3416   78.3111  224.0168 H   0  0  0  0  0  0  0  0  0  0  0  0
  139.4590   80.1710  224.2580 H   0  0  0  0  0  0  0  0  0  0  0  0
  139.4893   78.8389  220.8578 H   0  0  0  0  0  0  0  0  0  0  0  0
  141.6154   77.8038  221.3404 H   0  0  0  0  0  0  0  0  0  0  0  0
  142.4281   79.6640  220.6244 H   0  0  0  0  0  0  0  0  0  0  0  0
  140.8145   80.4129  220.8746 H   0  0  0  0  0  0  0  0  0  0  0  0
  143.1229   81.2586  222.1524 H   0  0  0  0  0  0  0  0  0  0  0  0
  141.5268   81.5265  222.8167 H   0  0  0  0  0  0  0  0  0  0  0  0
  143.5294   79.3104  223.3929 H   0  0  0  0  0  0  0  0  0  0  0  0
  142.5097   80.1846  224.5466 H   0  0  0  0  0  0  0  0  0  0  0  0
  141.8734   77.6752  223.7443 H   0  0  0  0  0  0  0  0  0  0  0  0
  140.5867   78.8481  224.0297 H   0  0  0  0  0  0  0  0  0  0  0  0
  139.1628   70.1201  222.4075 H   0  0  0  0  0  0  0  0  0  0  0  0
  139.0213   68.5033  224.3000 H   0  0  0  0  0  0  0  0  0  0  0  0
  139.4389   67.9309  226.6329 H   0  0  0  0  0  0  0  0  0  0  0  0
  141.3674   70.8207  229.2065 H   0  0  0  0  0  0  0  0  0  0  0  0
  141.4790   72.3707  227.2896 H   0  0  0  0  0  0  0  0  0  0  0  0
  1  2  2  0
  2  3  1  0
  3  4  1  0
  4  5  1  0
  5  6  2  0
  5  7  1  0
  7  8  1  0
  8  9  1  0
  9 10  1  0
 10 11  1  0
 10 12  1  0
 12 13  1  0
 13 14  1  0
 14 15  1  0
 15 16  1  0
 16 17  1  0
  2 18  1  0
 18 19  2  0
 19 20  1  0
 20 21  2  0
 21 22  1  0
 22 23  2  0
 23 24  1  0
 23 25  1  0
 25 26  2  0
 26 27  1  0
 27 28  2  0
 12  7  1  0
 17 13  1  0
 28 18  1  0
 27 21  1  0
  3 29  1  0
  4 30  1  0
  4 31  1  0
  8 32  1  0
  8 33  1  0
  9 34  1  0
  9 35  1  0
 10 36  1  1
 11 37  1  0
 12 38  1  6
 13 39  1  0
 14 40  1  0
 14 41  1  0
 15 42  1  0
 15 43  1  0
 16 44  1  0
 16 45  1  0
 17 46  1  0
 17 47  1  0
 19 48  1  0
 20 49  1  0
 22 50  1  0
 25 51  1  0
 26 52  1  0
M  END
>  <smiles>  (49) 
O=C(NCC(=O)N1CC[C@H](O)[C@H]1C1CCCC1)c1ccc2cc(F)ccc2n1

>  <score_type>  (49) 
oracle

>  <origin>  (49) 
autodockgpu

>  <m_score__min__energy>  (49) 
-8.7899999999999991

>  <m_primary>  (49) 
energy

>  <rmsd>  (49) 
3.5266081438586445

>  <m_score__min__rmsd>  (49) 
3.5266081438586445

>  <meeko>  (49) 
{"free_energy": -8.47, "intermolecular_energy": -10.25, "internal_energy": -1.2, "cluster_size": 40, "cluster_id": 1, "rank_in_cluster": 23}

>  <energy>  (49) 
-6.98

>  <cluster_rmsd>  (49) 
1.19

>  <cluster>  (49) 
4

$$$$

     RDKit          3D

 52 55  0  0  0  0  0  0  0  0999 V2000
  141.0490   71.9030  221.1820 O   0  0  0  0  0  0  0  0  0  0  0  0
  140.4710   72.3790  222.2160 C   0  0  0  0  0  0  0  0  0  0  0  0
  140.0420   73.7350  222.2620 N   0  0  0  0  0  0  0  0  0  0  0  0
  140.2370   74.6370  221.1440 C   0  0  0  0  0  0  0  0  0  0  0  0
  140.3500   76.0630  221.6380 C   0  0  0  0  0  0  0  0  0  0  0  0
  139.6790   76.3130  222.6660 O   0  0  0  0  0  0  0  0  0  0  0  0
  141.1630   76.9680  220.9370 N   0  0  0  0  0  0  0  0  0  0  0  0
  141.5290   76.8040  219.5040 C   0  0  0  0  0  0  0  0  0  0  0  0
  141.5340   78.2430  218.9740 C   0  0  0  0  0  0  0  0  0  0  0  0
  141.1940   79.0840  220.1990 C   0  0  2  0  0  0  0  0  0  0  0  0
  141.7160   80.3510  220.1650 O   0  0  0  0  0  0  0  0  0  0  0  0
  141.8240   78.1980  221.2840 C   0  0  1  0  0  0  0  0  0  0  0  0
  141.5840   78.7670  222.6210 C   0  0  0  0  0  0  0  0  0  0  0  0
  142.5600   79.7570  223.1340 C   0  0  0  0  0  0  0  0  0  0  0  0
  141.8640   81.0950  223.3410 C   0  0  0  0  0  0  0  0  0  0  0  0
  140.4250   80.7040  223.4690 C   0  0  0  0  0  0  0  0  0  0  0  0
  140.2440   79.4870  222.5800 C   0  0  0  0  0  0  0  0  0  0  0  0
  140.2440   71.5130  223.3820 C   0  0  0  0  0  0  0  0  0  0  0  0
  139.5750   70.3180  223.2210 C   0  0  0  0  0  0  0  0  0  0  0  0
  139.3890   69.5420  224.3540 C   0  0  0  0  0  0  0  0  0  0  0  0
  139.8490   69.9350  225.6030 C   0  0  0  0  0  0  0  0  0  0  0  0
  139.6670   69.1650  226.7330 C   0  0  0  0  0  0  0  0  0  0  0  0
  140.1420   69.5880  227.9770 C   0  0  0  0  0  0  0  0  0  0  0  0
  139.9490   68.8110  229.0770 F   0  0  0  0  0  0  0  0  0  0  0  0
  140.8110   70.8080  228.0710 C   0  0  0  0  0  0  0  0  0  0  0  0
  140.9790   71.5520  226.9290 C   0  0  0  0  0  0  0  0  0  0  0  0
  140.5080   71.1320  225.7050 C   0  0  0  0  0  0  0  0  0  0  0  0
  140.6930   71.8900  224.6140 N   0  0  0  0  0  0  0  0  0  0  0  0
  139.5740   74.0540  223.1500 H   0  0  0  0  0  0  0  0  0  0  0  0
  141.1598   74.3624  220.6119 H   0  0  0  0  0  0  0  0  0  0  0  0
  139.3752   74.5591  220.4648 H   0  0  0  0  0  0  0  0  0  0  0  0
  142.5224   76.3429  219.4014 H   0  0  0  0  0  0  0  0  0  0  0  0
  140.8385   76.1460  218.9561 H   0  0  0  0  0  0  0  0  0  0  0  0
  142.5245   78.5110  218.5775 H   0  0  0  0  0  0  0  0  0  0  0  0
  140.8261   78.3932  218.1456 H   0  0  0  0  0  0  0  0  0  0  0  0
  140.1231   79.2997  220.3279 H   0  0  0  0  0  0  0  0  0  0  0  0
  140.9420   80.9880  220.1590 H   0  0  0  0  0  0  0  0  0  0  0  0
  142.9172   78.0833  221.3261 H   0  0  0  0  0  0  0  0  0  0  0  0
  141.6516   77.9012  223.2961 H   0  0  0  0  0  0  0  0  0  0  0  0
  142.9703   79.4050  224.0920 H   0  0  0  0  0  0  0  0  0  0  0  0
  143.3770   79.8771  222.4073 H   0  0  0  0  0  0  0  0  0  0  0  0
  142.2226   81.5909  224.2550 H   0  0  0  0  0  0  0  0  0  0  0  0
  142.0496   81.8127  222.5283 H   0  0  0  0  0  0  0  0  0  0  0  0
  140.1880   80.4535  224.5135 H   0  0  0  0  0  0  0  0  0  0  0  0
  139.7555   81.5246  223.1716 H   0  0  0  0  0  0  0  0  0  0  0  0
  139.4448   78.8391  222.9694 H   0  0  0  0  0  0  0  0  0  0  0  0
  139.9543   79.7630  221.5554 H   0  0  0  0  0  0  0  0  0  0  0  0
  139.2053   69.9950  222.2366 H   0  0  0  0  0  0  0  0  0  0  0  0
  138.8591   68.5826  224.2602 H   0  0  0  0  0  0  0  0  0  0  0  0
  139.1397   68.2029  226.6534 H   0  0  0  0  0  0  0  0  0  0  0  0
  141.1952   71.1661  229.0375 H   0  0  0  0  0  0  0  0  0  0  0  0
  141.5070   72.5148  226.9941 H   0  0  0  0  0  0  0  0  0  0  0  0
  1  2  2  0
  2  3  1  0
  3  4  1  0
  4  5  1  0
  5  6  2  0
  5  7  1  0
  7  8  1  0
  8  9  1  0
  9 10  1  0
 10 11  1  0
 10 12  1  0
 12 13  1  0
 13 14  1  0
 14 15  1  0
 15 16  1  0
 16 17  1  0
  2 18  1  0
 18 19  2  0
 19 20  1  0
 20 21  2  0
 21 22  1  0
 22 23  2  0
 23 24  1  0
 23 25  1  0
 25 26  2  0
 26 27  1  0
 27 28  2  0
 12  7  1  0
 17 13  1  0
 28 18  1  0
 27 21  1  0
  3 29  1  0
  4 30  1  0
  4 31  1  0
  8 32  1  0
  8 33  1  0
  9 34  1  0
  9 35  1  0
 10 36  1  1
 11 37  1  0
 12 38  1  6
 13 39  1  0
 14 40  1  0
 14 41  1  0
 15 42  1  0
 15 43  1  0
 16 44  1  0
 16 45  1  0
 17 46  1  0
 17 47  1  0
 19 48  1  0
 20 49  1  0
 22 50  1  0
 25 51  1  0
 26 52  1  0
M  END
>  <smiles>  (50) 
O=C(NCC(=O)N1CC[C@H](O)[C@H]1C1CCCC1)c1ccc2cc(F)ccc2n1

>  <score_type>  (50) 
oracle

>  <origin>  (50) 
autodockgpu

>  <m_score__min__energy>  (50) 
-8.7899999999999991

>  <m_primary>  (50) 
energy

>  <rmsd>  (50) 
2.7885566348912243

>  <m_score__min__rmsd>  (50) 
2.7885566348912243

>  <meeko>  (50) 
{"free_energy": -8.29, "intermolecular_energy": -10.08, "internal_energy": -1.76, "cluster_size": 40, "cluster_id": 1, "rank_in_cluster": 31}

>  <energy>  (50) 
-6.61

>  <cluster_rmsd>  (50) 
0.0

>  <cluster>  (50) 
5

$$$$
