
     RDKit          3D

 49 53  0  0  0  0  0  0  0  0999 V2000
  142.9090   73.9950  219.2250 O   0  0  0  0  0  0  0  0  0  0  0  0
  142.0780   74.0730  220.1920 C   0  0  0  0  0  0  0  0  0  0  0  0
  141.7480   72.8000  220.8650 C   0  0  0  0  0  0  0  0  0  0  0  0
  140.7910   73.0690  221.9590 C   0  0  0  0  0  0  0  0  0  0  0  0
  140.3730   71.9340  222.7890 C   0  0  0  0  0  0  0  0  0  0  0  0
  139.6420   70.8760  222.3010 C   0  0  0  0  0  0  0  0  0  0  0  0
  139.1950   69.8330  223.1080 C   0  0  0  0  0  0  0  0  0  0  0  0
  139.4810   69.8280  224.4780 C   0  0  0  0  0  0  0  0  0  0  0  0
  140.2120   70.8920  224.9560 C   0  0  0  0  0  0  0  0  0  0  0  0
  140.5240   71.0290  226.3980 C   0  0  0  0  0  0  0  0  0  0  0  0
  140.3390   72.0930  227.0290 O   0  0  0  0  0  0  0  0  0  0  0  0
  141.0470   69.8410  226.9990 N   0  0  0  0  0  0  0  0  0  0  0  0
  141.4430   69.5910  228.3700 C   0  0  0  0  0  0  0  0  0  0  0  0
  141.0830   68.1420  228.6450 C   0  0  0  0  0  0  0  0  0  0  0  0
  140.6970   67.5770  227.2820 C   0  0  0  0  0  0  0  0  0  0  0  0
  141.3170   68.5600  226.3180 C   0  0  0  0  0  0  0  0  0  0  0  0
  140.6590   71.9230  224.1620 C   0  0  0  0  0  0  0  0  0  0  0  0
  140.3140   74.2100  222.2740 N   0  0  0  0  0  0  0  0  0  0  0  0
  140.6380   75.4170  221.6140 C   0  0  0  0  0  0  0  0  0  0  0  0
  140.1210   76.6360  221.9970 C   0  0  0  0  0  0  0  0  0  0  0  0
  140.5190   77.7780  221.3050 C   0  0  0  0  0  0  0  0  0  0  0  0
  141.4070   77.7230  220.2550 C   0  0  0  0  0  0  0  0  0  0  0  0
  141.8600   78.9160  219.5320 C   0  0  0  0  0  0  0  0  0  0  0  0
  141.6160   80.2240  219.9370 C   0  0  0  0  0  0  0  0  0  0  0  0
  142.2080   81.0040  218.9560 C   0  0  0  0  0  0  0  0  0  0  0  0
  142.7630   80.2590  218.0380 O   0  0  0  0  0  0  0  0  0  0  0  0
  142.5770   78.9760  218.3450 C   0  0  0  0  0  0  0  0  0  0  0  0
  141.9240   76.5030  219.8720 C   0  0  0  0  0  0  0  0  0  0  0  0
  141.5320   75.3650  220.5590 C   0  0  0  0  0  0  0  0  0  0  0  0
  141.2954   72.1064  220.1411 H   0  0  0  0  0  0  0  0  0  0  0  0
  142.6632   72.3474  221.2743 H   0  0  0  0  0  0  0  0  0  0  0  0
  139.4003   70.8529  221.2281 H   0  0  0  0  0  0  0  0  0  0  0  0
  138.6145   69.0093  222.6668 H   0  0  0  0  0  0  0  0  0  0  0  0
  139.1397   69.0168  225.1379 H   0  0  0  0  0  0  0  0  0  0  0  0
  142.5252   69.7467  228.4909 H   0  0  0  0  0  0  0  0  0  0  0  0
  140.9381   70.2740  229.0689 H   0  0  0  0  0  0  0  0  0  0  0  0
  141.9451   67.5996  229.0604 H   0  0  0  0  0  0  0  0  0  0  0  0
  140.2718   68.0460  229.3817 H   0  0  0  0  0  0  0  0  0  0  0  0
  141.1127   66.5685  227.1401 H   0  0  0  0  0  0  0  0  0  0  0  0
  139.6104   67.4678  227.1503 H   0  0  0  0  0  0  0  0  0  0  0  0
  142.3968   68.3848  226.2028 H   0  0  0  0  0  0  0  0  0  0  0  0
  140.9179   68.5006  225.2947 H   0  0  0  0  0  0  0  0  0  0  0  0
  141.2433   72.7423  224.6061 H   0  0  0  0  0  0  0  0  0  0  0  0
  139.4085   76.7058  222.8322 H   0  0  0  0  0  0  0  0  0  0  0  0
  140.1108   78.7537  221.6073 H   0  0  0  0  0  0  0  0  0  0  0  0
  141.0755   80.5628  220.8331 H   0  0  0  0  0  0  0  0  0  0  0  0
  142.2101   82.1040  218.9513 H   0  0  0  0  0  0  0  0  0  0  0  0
  142.9302   78.1142  217.7597 H   0  0  0  0  0  0  0  0  0  0  0  0
  142.6352   76.4344  219.0356 H   0  0  0  0  0  0  0  0  0  0  0  0
  1  2  2  0
  2  3  1  0
  3  4  1  0
  4  5  1  0
  5  6  2  0
  6  7  1  0
  7  8  2  0
  8  9  1  0
  9 10  1  0
 10 11  2  0
 10 12  1  0
 12 13  1  0
 13 14  1  0
 14 15  1  0
 15 16  1  0
  9 17  2  0
  4 18  2  0
 18 19  1  0
 19 20  2  0
 20 21  1  0
 21 22  2  0
 22 23  1  0
 23 24  1  0
 24 25  2  0
 25 26  1  0
 26 27  1  0
 22 28  1  0
 28 29  2  0
 29  2  1  0
 17  5  1  0
 29 19  1  0
 16 12  1  0
 27 23  2  0
  3 30  1  0
  3 31  1  0
  6 32  1  0
  7 33  1  0
  8 34  1  0
 13 35  1  0
 13 36  1  0
 14 37  1  0
 14 38  1  0
 15 39  1  0
 15 40  1  0
 16 41  1  0
 16 42  1  0
 17 43  1  0
 20 44  1  0
 21 45  1  0
 24 46  1  0
 25 47  1  0
 27 48  1  0
 28 49  1  0
M  END
>  <smiles>  (1) 
O=C1CC(c2cccc(C(=O)N3CCCC3)c2)=Nc2ccc(-c3ccoc3)cc21

>  <score_type>  (1) 
oracle

>  <origin>  (1) 
autodockgpu

>  <m_score__min__energy>  (1) 
-8.2799999999999994

>  <m_primary>  (1) 
energy

>  <rmsd>  (1) 
7.512582733055706

>  <m_score__min__rmsd>  (1) 
7.512582733055706

>  <meeko>  (1) 
{"free_energy": -8.08, "intermolecular_energy": -8.97, "internal_energy": -0.66, "cluster_size": 40, "cluster_id": 1, "rank_in_cluster": 9}

>  <energy>  (1) 
-8.28

>  <cluster_rmsd>  (1) 
0.0

>  <cluster>  (1) 
1

$$$$

     RDKit          3D

 49 53  0  0  0  0  0  0  0  0999 V2000
  143.0620   73.8880  219.6630 O   0  0  0  0  0  0  0  0  0  0  0  0
  142.0990   74.0090  220.4930 C   0  0  0  0  0  0  0  0  0  0  0  0
  141.6950   72.7760  221.1990 C   0  0  0  0  0  0  0  0  0  0  0  0
  140.5850   73.0930  222.1230 C   0  0  0  0  0  0  0  0  0  0  0  0
  140.0690   72.0060  222.9620 C   0  0  0  0  0  0  0  0  0  0  0  0
  139.1750   71.0650  222.5070 C   0  0  0  0  0  0  0  0  0  0  0  0
  138.6420   70.0740  223.3260 C   0  0  0  0  0  0  0  0  0  0  0  0
  139.0060   70.0010  224.6750 C   0  0  0  0  0  0  0  0  0  0  0  0
  139.9010   70.9480  225.1200 C   0  0  0  0  0  0  0  0  0  0  0  0
  140.3140   71.0110  226.5420 C   0  0  0  0  0  0  0  0  0  0  0  0
  140.1350   72.0260  227.2520 O   0  0  0  0  0  0  0  0  0  0  0  0
  140.9290   69.8140  227.0270 N   0  0  0  0  0  0  0  0  0  0  0  0
  141.4360   69.5000  228.3470 C   0  0  0  0  0  0  0  0  0  0  0  0
  141.1560   68.0220  228.5550 C   0  0  0  0  0  0  0  0  0  0  0  0
  140.6920   67.5240  227.1900 C   0  0  0  0  0  0  0  0  0  0  0  0
  141.1980   68.5900  226.2480 C   0  0  0  0  0  0  0  0  0  0  0  0
  140.4330   71.9280  224.3140 C   0  0  0  0  0  0  0  0  0  0  0  0
  140.0490   74.2400  222.2850 N   0  0  0  0  0  0  0  0  0  0  0  0
  140.4460   75.4070  221.5950 C   0  0  0  0  0  0  0  0  0  0  0  0
  139.8590   76.6350  221.8120 C   0  0  0  0  0  0  0  0  0  0  0  0
  140.3340   77.7390  221.1050 C   0  0  0  0  0  0  0  0  0  0  0  0
  141.3670   77.6360  220.2010 C   0  0  0  0  0  0  0  0  0  0  0  0
  141.9010   78.7890  219.4680 C   0  0  0  0  0  0  0  0  0  0  0  0
  142.5870   78.7080  218.2610 C   0  0  0  0  0  0  0  0  0  0  0  0
  142.9070   80.0220  217.9590 C   0  0  0  0  0  0  0  0  0  0  0  0
  142.4650   80.8350  218.8810 O   0  0  0  0  0  0  0  0  0  0  0  0
  141.8430   80.1290  219.8250 C   0  0  0  0  0  0  0  0  0  0  0  0
  141.9530   76.4070  219.9840 C   0  0  0  0  0  0  0  0  0  0  0  0
  141.4840   75.3070  220.6850 C   0  0  0  0  0  0  0  0  0  0  0  0
  141.3631   72.0241  220.4679 H   0  0  0  0  0  0  0  0  0  0  0  0
  142.5482   72.3755  221.7661 H   0  0  0  0  0  0  0  0  0  0  0  0
  138.8683   71.0970  221.4511 H   0  0  0  0  0  0  0  0  0  0  0  0
  137.9311   69.3445  222.9107 H   0  0  0  0  0  0  0  0  0  0  0  0
  138.5990   69.2286  225.3441 H   0  0  0  0  0  0  0  0  0  0  0  0
  142.5171   69.6964  228.3992 H   0  0  0  0  0  0  0  0  0  0  0  0
  140.9577   70.1164  229.1224 H   0  0  0  0  0  0  0  0  0  0  0  0
  142.0679   67.4946  228.8717 H   0  0  0  0  0  0  0  0  0  0  0  0
  140.4069   67.8453  229.3409 H   0  0  0  0  0  0  0  0  0  0  0  0
  141.1360   66.5455  226.9545 H   0  0  0  0  0  0  0  0  0  0  0  0
  139.6038   67.3748  227.1306 H   0  0  0  0  0  0  0  0  0  0  0  0
  142.2722   68.4703  226.0439 H   0  0  0  0  0  0  0  0  0  0  0  0
  140.7259   68.5749  225.2546 H   0  0  0  0  0  0  0  0  0  0  0  0
  141.1467   72.6533  224.7318 H   0  0  0  0  0  0  0  0  0  0  0  0
  139.0318   76.7421  222.5291 H   0  0  0  0  0  0  0  0  0  0  0  0
  139.8694   78.7215  221.2747 H   0  0  0  0  0  0  0  0  0  0  0  0
  142.8223   77.8053  217.6781 H   0  0  0  0  0  0  0  0  0  0  0  0
  143.4597   80.3384  217.0621 H   0  0  0  0  0  0  0  0  0  0  0  0
  141.3670   80.5369  220.7289 H   0  0  0  0  0  0  0  0  0  0  0  0
  142.7796   76.3011  219.2660 H   0  0  0  0  0  0  0  0  0  0  0  0
  1  2  2  0
  2  3  1  0
  3  4  1  0
  4  5  1  0
  5  6  2  0
  6  7  1  0
  7  8  2  0
  8  9  1  0
  9 10  1  0
 10 11  2  0
 10 12  1  0
 12 13  1  0
 13 14  1  0
 14 15  1  0
 15 16  1  0
  9 17  2  0
  4 18  2  0
 18 19  1  0
 19 20  2  0
 20 21  1  0
 21 22  2  0
 22 23  1  0
 23 24  1  0
 24 25  2  0
 25 26  1  0
 26 27  1  0
 22 28  1  0
 28 29  2  0
 29  2  1  0
 17  5  1  0
 29 19  1  0
 16 12  1  0
 27 23  2  0
  3 30  1  0
  3 31  1  0
  6 32  1  0
  7 33  1  0
  8 34  1  0
 13 35  1  0
 13 36  1  0
 14 37  1  0
 14 38  1  0
 15 39  1  0
 15 40  1  0
 16 41  1  0
 16 42  1  0
 17 43  1  0
 20 44  1  0
 21 45  1  0
 24 46  1  0
 25 47  1  0
 27 48  1  0
 28 49  1  0
M  END
>  <smiles>  (2) 
O=C1CC(c2cccc(C(=O)N3CCCC3)c2)=Nc2ccc(-c3ccoc3)cc21

>  <score_type>  (2) 
oracle

>  <origin>  (2) 
autodockgpu

>  <m_score__min__energy>  (2) 
-8.2799999999999994

>  <m_primary>  (2) 
energy

>  <rmsd>  (2) 
7.435248103271242

>  <m_score__min__rmsd>  (2) 
7.435248103271242

>  <meeko>  (2) 
{"free_energy": -8.12, "intermolecular_energy": -9.02, "internal_energy": -0.81, "cluster_size": 40, "cluster_id": 1, "rank_in_cluster": 7}

>  <energy>  (2) 
-8.26

>  <cluster_rmsd>  (2) 
0.07

>  <cluster>  (2) 
1

$$$$

     RDKit          3D

 49 53  0  0  0  0  0  0  0  0999 V2000
  142.9690   75.2570  220.0870 O   0  0  0  0  0  0  0  0  0  0  0  0
  141.9440   74.9130  220.7670 C   0  0  0  0  0  0  0  0  0  0  0  0
  141.7010   73.4610  220.8790 C   0  0  0  0  0  0  0  0  0  0  0  0
  140.4930   73.2380  221.7020 C   0  0  0  0  0  0  0  0  0  0  0  0
  140.1070   71.8500  221.9780 C   0  0  0  0  0  0  0  0  0  0  0  0
  140.1950   70.8450  221.0430 C   0  0  0  0  0  0  0  0  0  0  0  0
  139.7680   69.5440  221.2920 C   0  0  0  0  0  0  0  0  0  0  0  0
  139.2190   69.2070  222.5340 C   0  0  0  0  0  0  0  0  0  0  0  0
  139.1350   70.2190  223.4620 C   0  0  0  0  0  0  0  0  0  0  0  0
  138.5150   69.9990  224.7900 C   0  0  0  0  0  0  0  0  0  0  0  0
  137.2760   70.0240  224.9680 O   0  0  0  0  0  0  0  0  0  0  0  0
  139.4530   69.7550  225.8410 N   0  0  0  0  0  0  0  0  0  0  0  0
  139.2250   69.4820  227.2460 C   0  0  0  0  0  0  0  0  0  0  0  0
  140.3170   68.5120  227.6590 C   0  0  0  0  0  0  0  0  0  0  0  0
  141.2670   68.4730  226.4680 C   0  0  0  0  0  0  0  0  0  0  0  0
  140.9240   69.7360  225.7160 C   0  0  0  0  0  0  0  0  0  0  0  0
  139.5580   71.5060  223.2220 C   0  0  0  0  0  0  0  0  0  0  0  0
  139.7670   74.1460  222.2270 N   0  0  0  0  0  0  0  0  0  0  0  0
  140.0120   75.5320  222.1030 C   0  0  0  0  0  0  0  0  0  0  0  0
  139.2180   76.4840  222.7050 C   0  0  0  0  0  0  0  0  0  0  0  0
  139.5530   77.8290  222.5500 C   0  0  0  0  0  0  0  0  0  0  0  0
  140.6480   78.2280  221.8180 C   0  0  0  0  0  0  0  0  0  0  0  0
  141.0330   79.6350  221.6670 C   0  0  0  0  0  0  0  0  0  0  0  0
  141.3820   80.4750  222.7200 C   0  0  0  0  0  0  0  0  0  0  0  0
  141.6500   81.6920  222.1140 C   0  0  0  0  0  0  0  0  0  0  0  0
  141.4860   81.6170  220.8210 O   0  0  0  0  0  0  0  0  0  0  0  0
  141.1090   80.3810  220.4980 C   0  0  0  0  0  0  0  0  0  0  0  0
  141.4420   77.2740  221.2170 C   0  0  0  0  0  0  0  0  0  0  0  0
  141.1120   75.9370  221.3680 C   0  0  0  0  0  0  0  0  0  0  0  0
  141.5486   73.0340  219.8768 H   0  0  0  0  0  0  0  0  0  0  0  0
  142.5674   72.9741  221.3505 H   0  0  0  0  0  0  0  0  0  0  0  0
  140.6211   71.0796  220.0564 H   0  0  0  0  0  0  0  0  0  0  0  0
  139.8626   68.7773  220.5089 H   0  0  0  0  0  0  0  0  0  0  0  0
  138.8729   68.1869  222.7566 H   0  0  0  0  0  0  0  0  0  0  0  0
  139.2941   70.4097  227.8330 H   0  0  0  0  0  0  0  0  0  0  0  0
  138.2229   69.0632  227.4206 H   0  0  0  0  0  0  0  0  0  0  0  0
  140.8369   68.8727  228.5588 H   0  0  0  0  0  0  0  0  0  0  0  0
  139.9191   67.5172  227.9080 H   0  0  0  0  0  0  0  0  0  0  0  0
  142.3160   68.4829  226.7990 H   0  0  0  0  0  0  0  0  0  0  0  0
  141.1595   67.5637  225.8584 H   0  0  0  0  0  0  0  0  0  0  0  0
  141.3797   70.6205  226.1850 H   0  0  0  0  0  0  0  0  0  0  0  0
  141.2888   69.7563  224.6784 H   0  0  0  0  0  0  0  0  0  0  0  0
  139.4652   72.2686  224.0093 H   0  0  0  0  0  0  0  0  0  0  0  0
  138.3381   76.1892  223.2956 H   0  0  0  0  0  0  0  0  0  0  0  0
  138.9229   78.5940  223.0273 H   0  0  0  0  0  0  0  0  0  0  0  0
  141.4335   80.2288  223.7908 H   0  0  0  0  0  0  0  0  0  0  0  0
  141.9598   82.6006  222.6511 H   0  0  0  0  0  0  0  0  0  0  0  0
  140.8952   80.0151  219.4829 H   0  0  0  0  0  0  0  0  0  0  0  0
  142.3225   77.5696  220.6277 H   0  0  0  0  0  0  0  0  0  0  0  0
  1  2  2  0
  2  3  1  0
  3  4  1  0
  4  5  1  0
  5  6  2  0
  6  7  1  0
  7  8  2  0
  8  9  1  0
  9 10  1  0
 10 11  2  0
 10 12  1  0
 12 13  1  0
 13 14  1  0
 14 15  1  0
 15 16  1  0
  9 17  2  0
  4 18  2  0
 18 19  1  0
 19 20  2  0
 20 21  1  0
 21 22  2  0
 22 23  1  0
 23 24  1  0
 24 25  2  0
 25 26  1  0
 26 27  1  0
 22 28  1  0
 28 29  2  0
 29  2  1  0
 17  5  1  0
 29 19  1  0
 16 12  1  0
 27 23  2  0
  3 30  1  0
  3 31  1  0
  6 32  1  0
  7 33  1  0
  8 34  1  0
 13 35  1  0
 13 36  1  0
 14 37  1  0
 14 38  1  0
 15 39  1  0
 15 40  1  0
 16 41  1  0
 16 42  1  0
 17 43  1  0
 20 44  1  0
 21 45  1  0
 24 46  1  0
 25 47  1  0
 27 48  1  0
 28 49  1  0
M  END
>  <smiles>  (3) 
O=C1CC(c2cccc(C(=O)N3CCCC3)c2)=Nc2ccc(-c3ccoc3)cc21

>  <score_type>  (3) 
oracle

>  <origin>  (3) 
autodockgpu

>  <m_score__min__energy>  (3) 
-8.2799999999999994

>  <m_primary>  (3) 
energy

>  <rmsd>  (3) 
6.875996819686048

>  <m_score__min__rmsd>  (3) 
6.875996819686048

>  <meeko>  (3) 
{"free_energy": -7.83, "intermolecular_energy": -8.73, "internal_energy": -0.94, "cluster_size": 40, "cluster_id": 1, "rank_in_cluster": 25}

>  <energy>  (3) 
-8.26

>  <cluster_rmsd>  (3) 
0.13

>  <cluster>  (3) 
1

$$$$

     RDKit          3D

 49 53  0  0  0  0  0  0  0  0999 V2000
  143.0260   75.2450  220.1740 O   0  0  0  0  0  0  0  0  0  0  0  0
  141.9800   74.9010  220.8210 C   0  0  0  0  0  0  0  0  0  0  0  0
  141.7370   73.4490  220.9320 C   0  0  0  0  0  0  0  0  0  0  0  0
  140.5030   73.2260  221.7150 C   0  0  0  0  0  0  0  0  0  0  0  0
  140.1120   71.8380  221.9850 C   0  0  0  0  0  0  0  0  0  0  0  0
  140.1740   70.8430  221.0380 C   0  0  0  0  0  0  0  0  0  0  0  0
  139.7420   69.5420  221.2830 C   0  0  0  0  0  0  0  0  0  0  0  0
  139.2160   69.1960  222.5330 C   0  0  0  0  0  0  0  0  0  0  0  0
  139.1580   70.2000  223.4730 C   0  0  0  0  0  0  0  0  0  0  0  0
  138.5640   69.9710  224.8110 C   0  0  0  0  0  0  0  0  0  0  0  0
  137.3280   69.9810  225.0110 O   0  0  0  0  0  0  0  0  0  0  0  0
  139.5240   69.7370  225.8460 N   0  0  0  0  0  0  0  0  0  0  0  0
  139.3230   69.4600  227.2530 C   0  0  0  0  0  0  0  0  0  0  0  0
  140.4330   68.5020  227.6470 C   0  0  0  0  0  0  0  0  0  0  0  0
  141.3640   68.4760  226.4390 C   0  0  0  0  0  0  0  0  0  0  0  0
  140.9920   69.7360  225.6950 C   0  0  0  0  0  0  0  0  0  0  0  0
  139.5860   71.4860  223.2370 C   0  0  0  0  0  0  0  0  0  0  0  0
  139.7570   74.1340  222.2110 N   0  0  0  0  0  0  0  0  0  0  0  0
  140.0020   75.5200  222.0890 C   0  0  0  0  0  0  0  0  0  0  0  0
  139.1860   76.4730  222.6580 C   0  0  0  0  0  0  0  0  0  0  0  0
  139.5210   77.8180  222.5080 C   0  0  0  0  0  0  0  0  0  0  0  0
  140.6390   78.2170  221.8110 C   0  0  0  0  0  0  0  0  0  0  0  0
  141.0250   79.6250  221.6660 C   0  0  0  0  0  0  0  0  0  0  0  0
  141.6450   80.3790  222.6570 C   0  0  0  0  0  0  0  0  0  0  0  0
  141.8010   81.6330  222.0870 C   0  0  0  0  0  0  0  0  0  0  0  0
  141.3290   81.6560  220.8700 O   0  0  0  0  0  0  0  0  0  0  0  0
  140.8430   80.4530  220.5660 C   0  0  0  0  0  0  0  0  0  0  0  0
  141.4550   77.2630  221.2420 C   0  0  0  0  0  0  0  0  0  0  0  0
  141.1250   75.9250  221.3890 C   0  0  0  0  0  0  0  0  0  0  0  0
  141.6194   73.0169  219.9273 H   0  0  0  0  0  0  0  0  0  0  0  0
  142.5884   72.9671  221.4349 H   0  0  0  0  0  0  0  0  0  0  0  0
  140.5819   71.0848  220.0454 H   0  0  0  0  0  0  0  0  0  0  0  0
  139.8145   68.7827  220.4904 H   0  0  0  0  0  0  0  0  0  0  0  0
  138.8675   68.1760  222.7526 H   0  0  0  0  0  0  0  0  0  0  0  0
  139.3911   70.3878  227.8399 H   0  0  0  0  0  0  0  0  0  0  0  0
  138.3289   69.0292  227.4435 H   0  0  0  0  0  0  0  0  0  0  0  0
  140.9635   68.8676  228.5386 H   0  0  0  0  0  0  0  0  0  0  0  0
  140.0511   67.5023  227.9015 H   0  0  0  0  0  0  0  0  0  0  0  0
  142.4183   68.4986  226.7520 H   0  0  0  0  0  0  0  0  0  0  0  0
  141.2579   67.5661  225.8300 H   0  0  0  0  0  0  0  0  0  0  0  0
  141.4451   70.6254  226.1572 H   0  0  0  0  0  0  0  0  0  0  0  0
  141.3379   69.7620  224.6511 H   0  0  0  0  0  0  0  0  0  0  0  0
  139.5155   72.2415  224.0334 H   0  0  0  0  0  0  0  0  0  0  0  0
  138.2874   76.1784  223.2199 H   0  0  0  0  0  0  0  0  0  0  0  0
  138.8727   78.5831  222.9600 H   0  0  0  0  0  0  0  0  0  0  0  0
  141.9438   80.0539  223.6645 H   0  0  0  0  0  0  0  0  0  0  0  0
  142.2614   82.4944  222.5930 H   0  0  0  0  0  0  0  0  0  0  0  0
  140.3789   80.1660  219.6109 H   0  0  0  0  0  0  0  0  0  0  0  0
  142.3534   77.5588  220.6804 H   0  0  0  0  0  0  0  0  0  0  0  0
  1  2  2  0
  2  3  1  0
  3  4  1  0
  4  5  1  0
  5  6  2  0
  6  7  1  0
  7  8  2  0
  8  9  1  0
  9 10  1  0
 10 11  2  0
 10 12  1  0
 12 13  1  0
 13 14  1  0
 14 15  1  0
 15 16  1  0
  9 17  2  0
  4 18  2  0
 18 19  1  0
 19 20  2  0
 20 21  1  0
 21 22  2  0
 22 23  1  0
 23 24  1  0
 24 25  2  0
 25 26  1  0
 26 27  1  0
 22 28  1  0
 28 29  2  0
 29  2  1  0
 17  5  1  0
 29 19  1  0
 16 12  1  0
 27 23  2  0
  3 30  1  0
  3 31  1  0
  6 32  1  0
  7 33  1  0
  8 34  1  0
 13 35  1  0
 13 36  1  0
 14 37  1  0
 14 38  1  0
 15 39  1  0
 15 40  1  0
 16 41  1  0
 16 42  1  0
 17 43  1  0
 20 44  1  0
 21 45  1  0
 24 46  1  0
 25 47  1  0
 27 48  1  0
 28 49  1  0
M  END
>  <smiles>  (4) 
O=C1CC(c2cccc(C(=O)N3CCCC3)c2)=Nc2ccc(-c3ccoc3)cc21

>  <score_type>  (4) 
oracle

>  <origin>  (4) 
autodockgpu

>  <m_score__min__energy>  (4) 
-8.2799999999999994

>  <m_primary>  (4) 
energy

>  <rmsd>  (4) 
6.8704960087282485

>  <m_score__min__rmsd>  (4) 
6.8704960087282485

>  <meeko>  (4) 
{"free_energy": -7.83, "intermolecular_energy": -8.72, "internal_energy": -0.93, "cluster_size": 40, "cluster_id": 1, "rank_in_cluster": 27}

>  <energy>  (4) 
-8.25

>  <cluster_rmsd>  (4) 
0.09

>  <cluster>  (4) 
1

$$$$

     RDKit          3D

 49 53  0  0  0  0  0  0  0  0999 V2000
  145.9850   73.3880  219.5740 O   0  0  0  0  0  0  0  0  0  0  0  0
  144.7660   73.1650  219.8820 C   0  0  0  0  0  0  0  0  0  0  0  0
  143.9840   74.3390  220.3210 C   0  0  0  0  0  0  0  0  0  0  0  0
  142.6020   73.9100  220.6250 C   0  0  0  0  0  0  0  0  0  0  0  0
  141.6450   74.9440  221.0310 C   0  0  0  0  0  0  0  0  0  0  0  0
  140.4510   74.6600  221.6530 C   0  0  0  0  0  0  0  0  0  0  0  0
  139.5200   75.6420  221.9800 C   0  0  0  0  0  0  0  0  0  0  0  0
  139.7730   76.9840  221.6770 C   0  0  0  0  0  0  0  0  0  0  0  0
  140.9700   77.2570  221.0550 C   0  0  0  0  0  0  0  0  0  0  0  0
  141.3230   78.6320  220.6280 C   0  0  0  0  0  0  0  0  0  0  0  0
  141.2050   79.0220  219.4450 O   0  0  0  0  0  0  0  0  0  0  0  0
  141.8040   79.4670  221.6850 N   0  0  0  0  0  0  0  0  0  0  0  0
  142.2210   80.8550  221.6560 C   0  0  0  0  0  0  0  0  0  0  0  0
  141.7980   81.4390  222.9920 C   0  0  0  0  0  0  0  0  0  0  0  0
  141.3530   80.2350  223.8150 C   0  0  0  0  0  0  0  0  0  0  0  0
  141.9950   79.0740  223.0950 C   0  0  0  0  0  0  0  0  0  0  0  0
  141.8950   76.2910  220.7320 C   0  0  0  0  0  0  0  0  0  0  0  0
  142.1510   72.7200  220.5350 N   0  0  0  0  0  0  0  0  0  0  0  0
  142.9160   71.6080  220.1190 C   0  0  0  0  0  0  0  0  0  0  0  0
  142.3880   70.3390  220.0120 C   0  0  0  0  0  0  0  0  0  0  0  0
  143.2120   69.3070  219.5670 C   0  0  0  0  0  0  0  0  0  0  0  0
  144.5310   69.5180  219.2340 C   0  0  0  0  0  0  0  0  0  0  0  0
  145.4060   68.4520  218.7360 C   0  0  0  0  0  0  0  0  0  0  0  0
  145.8720   67.3900  219.5050 C   0  0  0  0  0  0  0  0  0  0  0  0
  146.6620   66.6560  218.6340 C   0  0  0  0  0  0  0  0  0  0  0  0
  146.6860   67.2040  217.4490 O   0  0  0  0  0  0  0  0  0  0  0  0
  145.9330   68.3040  217.4600 C   0  0  0  0  0  0  0  0  0  0  0  0
  145.0580   70.7870  219.3410 C   0  0  0  0  0  0  0  0  0  0  0  0
  144.2420   71.8170  219.7830 C   0  0  0  0  0  0  0  0  0  0  0  0
  144.4426   74.7716  221.2224 H   0  0  0  0  0  0  0  0  0  0  0  0
  143.9712   75.0966  219.5236 H   0  0  0  0  0  0  0  0  0  0  0  0
  140.2225   73.6133  221.9023 H   0  0  0  0  0  0  0  0  0  0  0  0
  138.5808   75.3613  222.4791 H   0  0  0  0  0  0  0  0  0  0  0  0
  139.0535   77.7789  221.9228 H   0  0  0  0  0  0  0  0  0  0  0  0
  143.3120   80.9252  221.5349 H   0  0  0  0  0  0  0  0  0  0  0  0
  141.7672   81.3978  220.8137 H   0  0  0  0  0  0  0  0  0  0  0  0
  142.6426   81.9502  223.4772 H   0  0  0  0  0  0  0  0  0  0  0  0
  141.0004   82.1890  222.8855 H   0  0  0  0  0  0  0  0  0  0  0  0
  141.7170   80.3079  224.8505 H   0  0  0  0  0  0  0  0  0  0  0  0
  140.2595   80.1445  223.8937 H   0  0  0  0  0  0  0  0  0  0  0  0
  143.0620   78.9841  223.3470 H   0  0  0  0  0  0  0  0  0  0  0  0
  141.5679   78.0932  223.3512 H   0  0  0  0  0  0  0  0  0  0  0  0
  142.8349   76.5767  220.2370 H   0  0  0  0  0  0  0  0  0  0  0  0
  141.3371   70.1449  220.2727 H   0  0  0  0  0  0  0  0  0  0  0  0
  142.7957   68.2926  219.4791 H   0  0  0  0  0  0  0  0  0  0  0  0
  145.6612   67.1804  220.5641 H   0  0  0  0  0  0  0  0  0  0  0  0
  147.1976   65.7342  218.9051 H   0  0  0  0  0  0  0  0  0  0  0  0
  145.7595   68.9768  216.6072 H   0  0  0  0  0  0  0  0  0  0  0  0
  146.1091   70.9795  219.0799 H   0  0  0  0  0  0  0  0  0  0  0  0
  1  2  2  0
  2  3  1  0
  3  4  1  0
  4  5  1  0
  5  6  2  0
  6  7  1  0
  7  8  2  0
  8  9  1  0
  9 10  1  0
 10 11  2  0
 10 12  1  0
 12 13  1  0
 13 14  1  0
 14 15  1  0
 15 16  1  0
  9 17  2  0
  4 18  2  0
 18 19  1  0
 19 20  2  0
 20 21  1  0
 21 22  2  0
 22 23  1  0
 23 24  1  0
 24 25  2  0
 25 26  1  0
 26 27  1  0
 22 28  1  0
 28 29  2  0
 29  2  1  0
 17  5  1  0
 29 19  1  0
 16 12  1  0
 27 23  2  0
  3 30  1  0
  3 31  1  0
  6 32  1  0
  7 33  1  0
  8 34  1  0
 13 35  1  0
 13 36  1  0
 14 37  1  0
 14 38  1  0
 15 39  1  0
 15 40  1  0
 16 41  1  0
 16 42  1  0
 17 43  1  0
 20 44  1  0
 21 45  1  0
 24 46  1  0
 25 47  1  0
 27 48  1  0
 28 49  1  0
M  END
>  <smiles>  (5) 
O=C1CC(c2cccc(C(=O)N3CCCC3)c2)=Nc2ccc(-c3ccoc3)cc21

>  <score_type>  (5) 
oracle

>  <origin>  (5) 
autodockgpu

>  <m_score__min__energy>  (5) 
-8.2799999999999994

>  <m_primary>  (5) 
energy

>  <rmsd>  (5) 
8.472650846144292

>  <m_score__min__rmsd>  (5) 
8.472650846144292

>  <meeko>  (5) 
{"free_energy": -7.64, "intermolecular_energy": -8.53, "internal_energy": -0.93, "cluster_size": 8, "cluster_id": 2, "rank_in_cluster": 8}

>  <energy>  (5) 
-8.25

>  <cluster_rmsd>  (5) 
0.13

>  <cluster>  (5) 
1

$$$$

     RDKit          3D

 49 53  0  0  0  0  0  0  0  0999 V2000
  143.0160   75.2280  220.1250 O   0  0  0  0  0  0  0  0  0  0  0  0
  141.9810   74.8890  220.7920 C   0  0  0  0  0  0  0  0  0  0  0  0
  141.7310   73.4380  220.9050 C   0  0  0  0  0  0  0  0  0  0  0  0
  140.5110   73.2220  221.7120 C   0  0  0  0  0  0  0  0  0  0  0  0
  140.1160   71.8360  221.9860 C   0  0  0  0  0  0  0  0  0  0  0  0
  140.1860   70.8350  221.0450 C   0  0  0  0  0  0  0  0  0  0  0  0
  139.7500   69.5360  221.2930 C   0  0  0  0  0  0  0  0  0  0  0  0
  139.2110   69.1980  222.5390 C   0  0  0  0  0  0  0  0  0  0  0  0
  139.1460   70.2070  223.4730 C   0  0  0  0  0  0  0  0  0  0  0  0
  138.5380   69.9860  224.8060 C   0  0  0  0  0  0  0  0  0  0  0  0
  137.3010   70.0060  224.9950 O   0  0  0  0  0  0  0  0  0  0  0  0
  139.4860   69.7470  225.8500 N   0  0  0  0  0  0  0  0  0  0  0  0
  139.2710   69.4760  227.2570 C   0  0  0  0  0  0  0  0  0  0  0  0
  140.3700   68.5100  227.6620 C   0  0  0  0  0  0  0  0  0  0  0  0
  141.3110   68.4740  226.4630 C   0  0  0  0  0  0  0  0  0  0  0  0
  140.9560   69.7340  225.7120 C   0  0  0  0  0  0  0  0  0  0  0  0
  139.5770   71.4910  223.2340 C   0  0  0  0  0  0  0  0  0  0  0  0
  139.7810   74.1330  222.2240 N   0  0  0  0  0  0  0  0  0  0  0  0
  140.0330   75.5180  222.1010 C   0  0  0  0  0  0  0  0  0  0  0  0
  139.2340   76.4750  222.6890 C   0  0  0  0  0  0  0  0  0  0  0  0
  139.5760   77.8180  222.5360 C   0  0  0  0  0  0  0  0  0  0  0  0
  140.6820   78.2120  221.8170 C   0  0  0  0  0  0  0  0  0  0  0  0
  141.0750   79.6170  221.6680 C   0  0  0  0  0  0  0  0  0  0  0  0
  141.5960   80.4030  222.6910 C   0  0  0  0  0  0  0  0  0  0  0  0
  141.8000   81.6410  222.1020 C   0  0  0  0  0  0  0  0  0  0  0  0
  141.4450   81.6260  220.8460 O   0  0  0  0  0  0  0  0  0  0  0  0
  140.9940   80.4120  220.5330 C   0  0  0  0  0  0  0  0  0  0  0  0
  141.4810   77.2530  221.2290 C   0  0  0  0  0  0  0  0  0  0  0  0
  141.1440   75.9170  221.3800 C   0  0  0  0  0  0  0  0  0  0  0  0
  141.5908   73.0086  219.9020 H   0  0  0  0  0  0  0  0  0  0  0  0
  142.5890   72.9493  221.3897 H   0  0  0  0  0  0  0  0  0  0  0  0
  140.6039   71.0706  220.0551 H   0  0  0  0  0  0  0  0  0  0  0  0
  139.8297   68.7721  220.5056 H   0  0  0  0  0  0  0  0  0  0  0  0
  138.8579   68.1800  222.7605 H   0  0  0  0  0  0  0  0  0  0  0  0
  139.3422   70.4050  227.8418 H   0  0  0  0  0  0  0  0  0  0  0  0
  138.2718   69.0545  227.4412 H   0  0  0  0  0  0  0  0  0  0  0  0
  140.8956   68.8730  228.5575 H   0  0  0  0  0  0  0  0  0  0  0  0
  139.9778   67.5139  227.9147 H   0  0  0  0  0  0  0  0  0  0  0  0
  142.3625   68.4895  226.7856 H   0  0  0  0  0  0  0  0  0  0  0  0
  141.2030   67.5633  225.8555 H   0  0  0  0  0  0  0  0  0  0  0  0
  141.4120   70.6213  226.1754 H   0  0  0  0  0  0  0  0  0  0  0  0
  141.3115   69.7540  224.6712 H   0  0  0  0  0  0  0  0  0  0  0  0
  139.4986   72.2510  224.0254 H   0  0  0  0  0  0  0  0  0  0  0  0
  138.3444   76.1850  223.2673 H   0  0  0  0  0  0  0  0  0  0  0  0
  138.9428   78.5862  223.0040 H   0  0  0  0  0  0  0  0  0  0  0  0
  141.7997   80.1087  223.7311 H   0  0  0  0  0  0  0  0  0  0  0  0
  142.2071   82.5196  222.6238 H   0  0  0  0  0  0  0  0  0  0  0  0
  140.6224   80.0951  219.5474 H   0  0  0  0  0  0  0  0  0  0  0  0
  142.3702   77.5437  220.6503 H   0  0  0  0  0  0  0  0  0  0  0  0
  1  2  2  0
  2  3  1  0
  3  4  1  0
  4  5  1  0
  5  6  2  0
  6  7  1  0
  7  8  2  0
  8  9  1  0
  9 10  1  0
 10 11  2  0
 10 12  1  0
 12 13  1  0
 13 14  1  0
 14 15  1  0
 15 16  1  0
  9 17  2  0
  4 18  2  0
 18 19  1  0
 19 20  2  0
 20 21  1  0
 21 22  2  0
 22 23  1  0
 23 24  1  0
 24 25  2  0
 25 26  1  0
 26 27  1  0
 22 28  1  0
 28 29  2  0
 29  2  1  0
 17  5  1  0
 29 19  1  0
 16 12  1  0
 27 23  2  0
  3 30  1  0
  3 31  1  0
  6 32  1  0
  7 33  1  0
  8 34  1  0
 13 35  1  0
 13 36  1  0
 14 37  1  0
 14 38  1  0
 15 39  1  0
 15 40  1  0
 16 41  1  0
 16 42  1  0
 17 43  1  0
 20 44  1  0
 21 45  1  0
 24 46  1  0
 25 47  1  0
 27 48  1  0
 28 49  1  0
M  END
>  <smiles>  (6) 
O=C1CC(c2cccc(C(=O)N3CCCC3)c2)=Nc2ccc(-c3ccoc3)cc21

>  <score_type>  (6) 
oracle

>  <origin>  (6) 
autodockgpu

>  <m_score__min__energy>  (6) 
-8.2799999999999994

>  <m_primary>  (6) 
energy

>  <rmsd>  (6) 
6.870250778153472

>  <m_score__min__rmsd>  (6) 
6.870250778153472

>  <meeko>  (6) 
{"free_energy": -7.84, "intermolecular_energy": -8.73, "internal_energy": -0.94, "cluster_size": 40, "cluster_id": 1, "rank_in_cluster": 18}

>  <energy>  (6) 
-8.24

>  <cluster_rmsd>  (6) 
0.12

>  <cluster>  (6) 
1

$$$$

     RDKit          3D

 49 53  0  0  0  0  0  0  0  0999 V2000
  143.0130   75.3070  220.0670 O   0  0  0  0  0  0  0  0  0  0  0  0
  141.9950   74.9530  220.7530 C   0  0  0  0  0  0  0  0  0  0  0  0
  141.7670   73.4980  220.8650 C   0  0  0  0  0  0  0  0  0  0  0  0
  140.5660   73.2630  221.6960 C   0  0  0  0  0  0  0  0  0  0  0  0
  140.1950   71.8710  221.9730 C   0  0  0  0  0  0  0  0  0  0  0  0
  140.3040   70.8640  221.0420 C   0  0  0  0  0  0  0  0  0  0  0  0
  139.8910   69.5580  221.2920 C   0  0  0  0  0  0  0  0  0  0  0  0
  139.3360   69.2180  222.5300 C   0  0  0  0  0  0  0  0  0  0  0  0
  139.2320   70.2330  223.4550 C   0  0  0  0  0  0  0  0  0  0  0  0
  138.6040   70.0090  224.7780 C   0  0  0  0  0  0  0  0  0  0  0  0
  137.3650   70.0330  224.9500 O   0  0  0  0  0  0  0  0  0  0  0  0
  139.5370   69.7620  225.8350 N   0  0  0  0  0  0  0  0  0  0  0  0
  139.3000   69.4860  227.2370 C   0  0  0  0  0  0  0  0  0  0  0  0
  140.3900   68.5150  227.6540 C   0  0  0  0  0  0  0  0  0  0  0  0
  141.3480   68.4790  226.4690 C   0  0  0  0  0  0  0  0  0  0  0  0
  141.0080   69.7440  225.7180 C   0  0  0  0  0  0  0  0  0  0  0  0
  139.6410   71.5240  223.2140 C   0  0  0  0  0  0  0  0  0  0  0  0
  139.8340   74.1630  222.2260 N   0  0  0  0  0  0  0  0  0  0  0  0
  140.0660   75.5510  222.1010 C   0  0  0  0  0  0  0  0  0  0  0  0
  139.2660   76.4960  222.7080 C   0  0  0  0  0  0  0  0  0  0  0  0
  139.5860   77.8430  222.5520 C   0  0  0  0  0  0  0  0  0  0  0  0
  140.6730   78.2540  221.8140 C   0  0  0  0  0  0  0  0  0  0  0  0
  141.0440   79.6650  221.6620 C   0  0  0  0  0  0  0  0  0  0  0  0
  140.9650   80.3780  220.4690 C   0  0  0  0  0  0  0  0  0  0  0  0
  141.4250   81.6440  220.7950 C   0  0  0  0  0  0  0  0  0  0  0  0
  141.7550   81.7110  222.0560 O   0  0  0  0  0  0  0  0  0  0  0  0
  141.5410   80.5270  222.6290 C   0  0  0  0  0  0  0  0  0  0  0  0
  141.4730   77.3080  221.2070 C   0  0  0  0  0  0  0  0  0  0  0  0
  141.1570   75.9680  221.3600 C   0  0  0  0  0  0  0  0  0  0  0  0
  141.6122   73.0705  219.8634 H   0  0  0  0  0  0  0  0  0  0  0  0
  142.6411   73.0188  221.3300 H   0  0  0  0  0  0  0  0  0  0  0  0
  140.7358   71.1006  220.0583 H   0  0  0  0  0  0  0  0  0  0  0  0
  140.0017   68.7901  220.5123 H   0  0  0  0  0  0  0  0  0  0  0  0
  139.0004   68.1944  222.7529 H   0  0  0  0  0  0  0  0  0  0  0  0
  139.3652   70.4123  227.8267 H   0  0  0  0  0  0  0  0  0  0  0  0
  138.2968   69.0670  227.4046 H   0  0  0  0  0  0  0  0  0  0  0  0
  140.9041   68.8734  228.5580 H   0  0  0  0  0  0  0  0  0  0  0  0
  139.9905   67.5194  227.8974 H   0  0  0  0  0  0  0  0  0  0  0  0
  142.3949   68.4890  226.8066 H   0  0  0  0  0  0  0  0  0  0  0  0
  141.2458   67.5709  225.8567 H   0  0  0  0  0  0  0  0  0  0  0  0
  141.4606   70.6277  226.1916 H   0  0  0  0  0  0  0  0  0  0  0  0
  141.3782   69.7669  224.6824 H   0  0  0  0  0  0  0  0  0  0  0  0
  139.5331   72.2878  223.9982 H   0  0  0  0  0  0  0  0  0  0  0  0
  138.3925   76.1924  223.3036 H   0  0  0  0  0  0  0  0  0  0  0  0
  138.9507   78.6012  223.0332 H   0  0  0  0  0  0  0  0  0  0  0  0
  140.6165   80.0182  219.4897 H   0  0  0  0  0  0  0  0  0  0  0  0
  141.5018   82.4810  220.0854 H   0  0  0  0  0  0  0  0  0  0  0  0
  141.7260   80.2768  223.6841 H   0  0  0  0  0  0  0  0  0  0  0  0
  142.3466   77.6125  220.6119 H   0  0  0  0  0  0  0  0  0  0  0  0
  1  2  2  0
  2  3  1  0
  3  4  1  0
  4  5  1  0
  5  6  2  0
  6  7  1  0
  7  8  2  0
  8  9  1  0
  9 10  1  0
 10 11  2  0
 10 12  1  0
 12 13  1  0
 13 14  1  0
 14 15  1  0
 15 16  1  0
  9 17  2  0
  4 18  2  0
 18 19  1  0
 19 20  2  0
 20 21  1  0
 21 22  2  0
 22 23  1  0
 23 24  1  0
 24 25  2  0
 25 26  1  0
 26 27  1  0
 22 28  1  0
 28 29  2  0
 29  2  1  0
 17  5  1  0
 29 19  1  0
 16 12  1  0
 27 23  2  0
  3 30  1  0
  3 31  1  0
  6 32  1  0
  7 33  1  0
  8 34  1  0
 13 35  1  0
 13 36  1  0
 14 37  1  0
 14 38  1  0
 15 39  1  0
 15 40  1  0
 16 41  1  0
 16 42  1  0
 17 43  1  0
 20 44  1  0
 21 45  1  0
 24 46  1  0
 25 47  1  0
 27 48  1  0
 28 49  1  0
M  END
>  <smiles>  (7) 
O=C1CC(c2cccc(C(=O)N3CCCC3)c2)=Nc2ccc(-c3ccoc3)cc21

>  <score_type>  (7) 
oracle

>  <origin>  (7) 
autodockgpu

>  <m_score__min__energy>  (7) 
-8.2799999999999994

>  <m_primary>  (7) 
energy

>  <rmsd>  (7) 
6.895164309160693

>  <m_score__min__rmsd>  (7) 
6.895164309160693

>  <meeko>  (7) 
{"free_energy": -7.78, "intermolecular_energy": -8.68, "internal_energy": -0.94, "cluster_size": 40, "cluster_id": 1, "rank_in_cluster": 38}

>  <energy>  (7) 
-8.12

>  <cluster_rmsd>  (7) 
0.2

>  <cluster>  (7) 
1

$$$$

     RDKit          3D

 49 53  0  0  0  0  0  0  0  0999 V2000
  146.1350   73.2490  219.3310 O   0  0  0  0  0  0  0  0  0  0  0  0
  144.9250   73.0070  219.6610 C   0  0  0  0  0  0  0  0  0  0  0  0
  144.1430   74.1640  220.1410 C   0  0  0  0  0  0  0  0  0  0  0  0
  142.7720   73.7150  220.4660 C   0  0  0  0  0  0  0  0  0  0  0  0
  141.8140   74.7310  220.9160 C   0  0  0  0  0  0  0  0  0  0  0  0
  140.6350   74.4220  221.5530 C   0  0  0  0  0  0  0  0  0  0  0  0
  139.7010   75.3880  221.9200 C   0  0  0  0  0  0  0  0  0  0  0  0
  139.9380   76.7390  221.6450 C   0  0  0  0  0  0  0  0  0  0  0  0
  141.1210   77.0370  221.0070 C   0  0  0  0  0  0  0  0  0  0  0  0
  141.4540   78.4240  220.6080 C   0  0  0  0  0  0  0  0  0  0  0  0
  141.4200   78.8100  219.4180 O   0  0  0  0  0  0  0  0  0  0  0  0
  141.8130   79.2780  221.6990 N   0  0  0  0  0  0  0  0  0  0  0  0
  142.1770   80.6800  221.7000 C   0  0  0  0  0  0  0  0  0  0  0  0
  141.6220   81.2480  222.9940 C   0  0  0  0  0  0  0  0  0  0  0  0
  141.1570   80.0270  223.7810 C   0  0  0  0  0  0  0  0  0  0  0  0
  141.9010   78.8920  223.1200 C   0  0  0  0  0  0  0  0  0  0  0  0
  142.0480   76.0870  220.6440 C   0  0  0  0  0  0  0  0  0  0  0  0
  142.3290   72.5230  220.3610 N   0  0  0  0  0  0  0  0  0  0  0  0
  143.0960   71.4270  219.9040 C   0  0  0  0  0  0  0  0  0  0  0  0
  142.5770   70.1560  219.7810 C   0  0  0  0  0  0  0  0  0  0  0  0
  143.4000   69.1420  219.2960 C   0  0  0  0  0  0  0  0  0  0  0  0
  144.7090   69.3730  218.9390 C   0  0  0  0  0  0  0  0  0  0  0  0
  145.5840   68.3260  218.4000 C   0  0  0  0  0  0  0  0  0  0  0  0
  145.8030   68.1020  217.0440 C   0  0  0  0  0  0  0  0  0  0  0  0
  146.6710   67.0220  217.0110 C   0  0  0  0  0  0  0  0  0  0  0  0
  146.9600   66.6160  218.2180 O   0  0  0  0  0  0  0  0  0  0  0  0
  146.3200   67.3810  219.1020 C   0  0  0  0  0  0  0  0  0  0  0  0
  145.2280   70.6450  219.0630 C   0  0  0  0  0  0  0  0  0  0  0  0
  144.4120   71.6560  219.5440 C   0  0  0  0  0  0  0  0  0  0  0  0
  144.6174   74.5824  221.0409 H   0  0  0  0  0  0  0  0  0  0  0  0
  144.1060   74.9381  219.3603 H   0  0  0  0  0  0  0  0  0  0  0  0
  140.4206   73.3677  221.7823 H   0  0  0  0  0  0  0  0  0  0  0  0
  138.7730   75.0872  222.4283 H   0  0  0  0  0  0  0  0  0  0  0  0
  139.2173   77.5218  221.9238 H   0  0  0  0  0  0  0  0  0  0  0  0
  143.2709   80.7922  221.6700 H   0  0  0  0  0  0  0  0  0  0  0  0
  141.7744   81.2045  220.8209 H   0  0  0  0  0  0  0  0  0  0  0  0
  142.4028   81.7917  223.5460 H   0  0  0  0  0  0  0  0  0  0  0  0
  140.8079   81.9668  222.8191 H   0  0  0  0  0  0  0  0  0  0  0  0
  141.4307   80.1136  224.8429 H   0  0  0  0  0  0  0  0  0  0  0  0
  140.0651   79.8942  223.7690 H   0  0  0  0  0  0  0  0  0  0  0  0
  142.9460   78.8432  223.4601 H   0  0  0  0  0  0  0  0  0  0  0  0
  141.4923   77.8952  223.3423 H   0  0  0  0  0  0  0  0  0  0  0  0
  142.9761   76.3922  220.1386 H   0  0  0  0  0  0  0  0  0  0  0  0
  141.5338   69.9465  220.0602 H   0  0  0  0  0  0  0  0  0  0  0  0
  142.9912   68.1258  219.1953 H   0  0  0  0  0  0  0  0  0  0  0  0
  145.3826   68.6563  216.1919 H   0  0  0  0  0  0  0  0  0  0  0  0
  147.0644   66.5671  216.0900 H   0  0  0  0  0  0  0  0  0  0  0  0
  146.3668   67.2811  220.1965 H   0  0  0  0  0  0  0  0  0  0  0  0
  146.2717   70.8530  218.7848 H   0  0  0  0  0  0  0  0  0  0  0  0
  1  2  2  0
  2  3  1  0
  3  4  1  0
  4  5  1  0
  5  6  2  0
  6  7  1  0
  7  8  2  0
  8  9  1  0
  9 10  1  0
 10 11  2  0
 10 12  1  0
 12 13  1  0
 13 14  1  0
 14 15  1  0
 15 16  1  0
  9 17  2  0
  4 18  2  0
 18 19  1  0
 19 20  2  0
 20 21  1  0
 21 22  2  0
 22 23  1  0
 23 24  1  0
 24 25  2  0
 25 26  1  0
 26 27  1  0
 22 28  1  0
 28 29  2  0
 29  2  1  0
 17  5  1  0
 29 19  1  0
 16 12  1  0
 27 23  2  0
  3 30  1  0
  3 31  1  0
  6 32  1  0
  7 33  1  0
  8 34  1  0
 13 35  1  0
 13 36  1  0
 14 37  1  0
 14 38  1  0
 15 39  1  0
 15 40  1  0
 16 41  1  0
 16 42  1  0
 17 43  1  0
 20 44  1  0
 21 45  1  0
 24 46  1  0
 25 47  1  0
 27 48  1  0
 28 49  1  0
M  END
>  <smiles>  (8) 
O=C1CC(c2cccc(C(=O)N3CCCC3)c2)=Nc2ccc(-c3ccoc3)cc21

>  <score_type>  (8) 
oracle

>  <origin>  (8) 
autodockgpu

>  <m_score__min__energy>  (8) 
-8.2799999999999994

>  <m_primary>  (8) 
energy

>  <rmsd>  (8) 
8.490881329499487

>  <m_score__min__rmsd>  (8) 
8.490881329499487

>  <meeko>  (8) 
{"free_energy": -7.67, "intermolecular_energy": -8.57, "internal_energy": -0.91, "cluster_size": 8, "cluster_id": 2, "rank_in_cluster": 5}

>  <energy>  (8) 
-8.11

>  <cluster_rmsd>  (8) 
0.43

>  <cluster>  (8) 
1

$$$$

     RDKit          3D

 49 53  0  0  0  0  0  0  0  0999 V2000
  142.9950   75.2660  220.0720 O   0  0  0  0  0  0  0  0  0  0  0  0
  141.9690   74.9190  220.7490 C   0  0  0  0  0  0  0  0  0  0  0  0
  141.7320   73.4660  220.8660 C   0  0  0  0  0  0  0  0  0  0  0  0
  140.5220   73.2410  221.6850 C   0  0  0  0  0  0  0  0  0  0  0  0
  140.1410   71.8520  221.9640 C   0  0  0  0  0  0  0  0  0  0  0  0
  140.2350   70.8450  221.0320 C   0  0  0  0  0  0  0  0  0  0  0  0
  139.8130   69.5420  221.2840 C   0  0  0  0  0  0  0  0  0  0  0  0
  139.2630   69.2070  222.5270 C   0  0  0  0  0  0  0  0  0  0  0  0
  139.1740   70.2220  223.4520 C   0  0  0  0  0  0  0  0  0  0  0  0
  138.5530   70.0030  224.7790 C   0  0  0  0  0  0  0  0  0  0  0  0
  137.3140   70.0230  224.9560 O   0  0  0  0  0  0  0  0  0  0  0  0
  139.4910   69.7650  225.8330 N   0  0  0  0  0  0  0  0  0  0  0  0
  139.2620   69.4960  227.2380 C   0  0  0  0  0  0  0  0  0  0  0  0
  140.3570   68.5310  227.6560 C   0  0  0  0  0  0  0  0  0  0  0  0
  141.3100   68.4930  226.4660 C   0  0  0  0  0  0  0  0  0  0  0  0
  140.9620   69.7520  225.7090 C   0  0  0  0  0  0  0  0  0  0  0  0
  139.5920   71.5100  223.2080 C   0  0  0  0  0  0  0  0  0  0  0  0
  139.7890   74.1470  222.2040 N   0  0  0  0  0  0  0  0  0  0  0  0
  140.0280   75.5330  222.0760 C   0  0  0  0  0  0  0  0  0  0  0  0
  139.2270   76.4850  222.6700 C   0  0  0  0  0  0  0  0  0  0  0  0
  139.5560   77.8300  222.5120 C   0  0  0  0  0  0  0  0  0  0  0  0
  140.6520   78.2320  221.7830 C   0  0  0  0  0  0  0  0  0  0  0  0
  141.0320   79.6400  221.6290 C   0  0  0  0  0  0  0  0  0  0  0  0
  140.9870   80.3430  220.4280 C   0  0  0  0  0  0  0  0  0  0  0  0
  141.4430   81.6100  220.7560 C   0  0  0  0  0  0  0  0  0  0  0  0
  141.7390   81.6880  222.0250 O   0  0  0  0  0  0  0  0  0  0  0  0
  141.5050   80.5100  222.6020 C   0  0  0  0  0  0  0  0  0  0  0  0
  141.4530   77.2800  221.1880 C   0  0  0  0  0  0  0  0  0  0  0  0
  141.1300   75.9410  221.3440 C   0  0  0  0  0  0  0  0  0  0  0  0
  141.5855   73.0343  219.8649 H   0  0  0  0  0  0  0  0  0  0  0  0
  142.5987   72.9849  221.3428 H   0  0  0  0  0  0  0  0  0  0  0  0
  140.6617   71.0788  220.0454 H   0  0  0  0  0  0  0  0  0  0  0  0
  139.9122   68.7732  220.5035 H   0  0  0  0  0  0  0  0  0  0  0  0
  138.9201   68.1864  222.7524 H   0  0  0  0  0  0  0  0  0  0  0  0
  139.3270   70.4259  227.8220 H   0  0  0  0  0  0  0  0  0  0  0  0
  138.2612   69.0742  227.4125 H   0  0  0  0  0  0  0  0  0  0  0  0
  140.8737   68.8959  228.5560 H   0  0  0  0  0  0  0  0  0  0  0  0
  139.9625   67.5353  227.9069 H   0  0  0  0  0  0  0  0  0  0  0  0
  142.3583   68.5093  226.7988 H   0  0  0  0  0  0  0  0  0  0  0  0
  141.2081   67.5812  225.8591 H   0  0  0  0  0  0  0  0  0  0  0  0
  141.4135   70.6402  226.1751 H   0  0  0  0  0  0  0  0  0  0  0  0
  141.3274   69.7702  224.6716 H   0  0  0  0  0  0  0  0  0  0  0  0
  139.4950   72.2749  223.9925 H   0  0  0  0  0  0  0  0  0  0  0  0
  138.3453   76.1887  223.2573 H   0  0  0  0  0  0  0  0  0  0  0  0
  138.9204   78.5935  222.9843 H   0  0  0  0  0  0  0  0  0  0  0  0
  140.6632   79.9762  219.4428 H   0  0  0  0  0  0  0  0  0  0  0  0
  141.5424   82.4403  220.0413 H   0  0  0  0  0  0  0  0  0  0  0  0
  141.6596   80.2689  223.6641 H   0  0  0  0  0  0  0  0  0  0  0  0
  142.3333   77.5782  220.5996 H   0  0  0  0  0  0  0  0  0  0  0  0
  1  2  2  0
  2  3  1  0
  3  4  1  0
  4  5  1  0
  5  6  2  0
  6  7  1  0
  7  8  2  0
  8  9  1  0
  9 10  1  0
 10 11  2  0
 10 12  1  0
 12 13  1  0
 13 14  1  0
 14 15  1  0
 15 16  1  0
  9 17  2  0
  4 18  2  0
 18 19  1  0
 19 20  2  0
 20 21  1  0
 21 22  2  0
 22 23  1  0
 23 24  1  0
 24 25  2  0
 25 26  1  0
 26 27  1  0
 22 28  1  0
 28 29  2  0
 29  2  1  0
 17  5  1  0
 29 19  1  0
 16 12  1  0
 27 23  2  0
  3 30  1  0
  3 31  1  0
  6 32  1  0
  7 33  1  0
  8 34  1  0
 13 35  1  0
 13 36  1  0
 14 37  1  0
 14 38  1  0
 15 39  1  0
 15 40  1  0
 16 41  1  0
 16 42  1  0
 17 43  1  0
 20 44  1  0
 21 45  1  0
 24 46  1  0
 25 47  1  0
 27 48  1  0
 28 49  1  0
M  END
>  <smiles>  (9) 
O=C1CC(c2cccc(C(=O)N3CCCC3)c2)=Nc2ccc(-c3ccoc3)cc21

>  <score_type>  (9) 
oracle

>  <origin>  (9) 
autodockgpu

>  <m_score__min__energy>  (9) 
-8.2799999999999994

>  <m_primary>  (9) 
energy

>  <rmsd>  (9) 
6.883071037074186

>  <m_score__min__rmsd>  (9) 
6.883071037074186

>  <meeko>  (9) 
{"free_energy": -7.79, "intermolecular_energy": -8.69, "internal_energy": -0.94, "cluster_size": 40, "cluster_id": 1, "rank_in_cluster": 35}

>  <energy>  (9) 
-8.08

>  <cluster_rmsd>  (9) 
0.33

>  <cluster>  (9) 
1

$$$$

     RDKit          3D

 49 53  0  0  0  0  0  0  0  0999 V2000
  142.9990   75.2770  220.1990 O   0  0  0  0  0  0  0  0  0  0  0  0
  141.9570   74.9270  220.8510 C   0  0  0  0  0  0  0  0  0  0  0  0
  141.7170   73.4740  220.9550 C   0  0  0  0  0  0  0  0  0  0  0  0
  140.4890   73.2450  221.7450 C   0  0  0  0  0  0  0  0  0  0  0  0
  140.1010   71.8550  222.0090 C   0  0  0  0  0  0  0  0  0  0  0  0
  140.1680   70.8630  221.0590 C   0  0  0  0  0  0  0  0  0  0  0  0
  139.7400   69.5600  221.2980 C   0  0  0  0  0  0  0  0  0  0  0  0
  139.2120   69.2080  222.5450 C   0  0  0  0  0  0  0  0  0  0  0  0
  139.1490   70.2080  223.4890 C   0  0  0  0  0  0  0  0  0  0  0  0
  138.5530   69.9720  224.8240 C   0  0  0  0  0  0  0  0  0  0  0  0
  137.3170   69.9760  225.0210 O   0  0  0  0  0  0  0  0  0  0  0  0
  139.5110   69.7390  225.8610 N   0  0  0  0  0  0  0  0  0  0  0  0
  139.3080   69.4570  227.2670 C   0  0  0  0  0  0  0  0  0  0  0  0
  140.4220   68.5040  227.6610 C   0  0  0  0  0  0  0  0  0  0  0  0
  141.3550   68.4860  226.4550 C   0  0  0  0  0  0  0  0  0  0  0  0
  140.9790   69.7460  225.7140 C   0  0  0  0  0  0  0  0  0  0  0  0
  139.5740   71.4960  223.2580 C   0  0  0  0  0  0  0  0  0  0  0  0
  139.7450   74.1480  222.2520 N   0  0  0  0  0  0  0  0  0  0  0  0
  139.9880   75.5360  222.1370 C   0  0  0  0  0  0  0  0  0  0  0  0
  139.1740   76.4840  222.7180 C   0  0  0  0  0  0  0  0  0  0  0  0
  139.5070   77.8300  222.5740 C   0  0  0  0  0  0  0  0  0  0  0  0
  140.6190   78.2350  221.8710 C   0  0  0  0  0  0  0  0  0  0  0  0
  141.0030   79.6440  221.7330 C   0  0  0  0  0  0  0  0  0  0  0  0
  141.6880   80.3750  222.6990 C   0  0  0  0  0  0  0  0  0  0  0  0
  141.8140   81.6390  222.1470 C   0  0  0  0  0  0  0  0  0  0  0  0
  141.2670   81.6910  220.9630 O   0  0  0  0  0  0  0  0  0  0  0  0
  140.7570   80.4960  220.6650 C   0  0  0  0  0  0  0  0  0  0  0  0
  141.4330   77.2860  221.2900 C   0  0  0  0  0  0  0  0  0  0  0  0
  141.1050   75.9460  221.4310 C   0  0  0  0  0  0  0  0  0  0  0  0
  141.5931   73.0476  219.9486 H   0  0  0  0  0  0  0  0  0  0  0  0
  142.5725   72.9902  221.4489 H   0  0  0  0  0  0  0  0  0  0  0  0
  140.5772   71.1095  220.0681 H   0  0  0  0  0  0  0  0  0  0  0  0
  139.8173   68.8038  220.5029 H   0  0  0  0  0  0  0  0  0  0  0  0
  138.8656   68.1863  222.7597 H   0  0  0  0  0  0  0  0  0  0  0  0
  139.3698   70.3836  227.8566 H   0  0  0  0  0  0  0  0  0  0  0  0
  138.3158   69.0204  227.4539 H   0  0  0  0  0  0  0  0  0  0  0  0
  140.9488   68.8702  228.5545 H   0  0  0  0  0  0  0  0  0  0  0  0
  140.0450   67.5017  227.9126 H   0  0  0  0  0  0  0  0  0  0  0  0
  142.4086   68.5125  226.7701 H   0  0  0  0  0  0  0  0  0  0  0  0
  141.2540   67.5775  225.8431 H   0  0  0  0  0  0  0  0  0  0  0  0
  141.4264   70.6363  226.1801 H   0  0  0  0  0  0  0  0  0  0  0  0
  141.3277   69.7771  224.6712 H   0  0  0  0  0  0  0  0  0  0  0  0
  139.5000   72.2482  224.0572 H   0  0  0  0  0  0  0  0  0  0  0  0
  138.2795   76.1847  223.2840 H   0  0  0  0  0  0  0  0  0  0  0  0
  138.8616   78.5915  223.0362 H   0  0  0  0  0  0  0  0  0  0  0  0
  142.0478   80.0277  223.6788 H   0  0  0  0  0  0  0  0  0  0  0  0
  142.3098   82.4874  222.6413 H   0  0  0  0  0  0  0  0  0  0  0  0
  140.2327   80.2312  219.7350 H   0  0  0  0  0  0  0  0  0  0  0  0
  142.3272   77.5866  220.7243 H   0  0  0  0  0  0  0  0  0  0  0  0
  1  2  2  0
  2  3  1  0
  3  4  1  0
  4  5  1  0
  5  6  2  0
  6  7  1  0
  7  8  2  0
  8  9  1  0
  9 10  1  0
 10 11  2  0
 10 12  1  0
 12 13  1  0
 13 14  1  0
 14 15  1  0
 15 16  1  0
  9 17  2  0
  4 18  2  0
 18 19  1  0
 19 20  2  0
 20 21  1  0
 21 22  2  0
 22 23  1  0
 23 24  1  0
 24 25  2  0
 25 26  1  0
 26 27  1  0
 22 28  1  0
 28 29  2  0
 29  2  1  0
 17  5  1  0
 29 19  1  0
 16 12  1  0
 27 23  2  0
  3 30  1  0
  3 31  1  0
  6 32  1  0
  7 33  1  0
  8 34  1  0
 13 35  1  0
 13 36  1  0
 14 37  1  0
 14 38  1  0
 15 39  1  0
 15 40  1  0
 16 41  1  0
 16 42  1  0
 17 43  1  0
 20 44  1  0
 21 45  1  0
 24 46  1  0
 25 47  1  0
 27 48  1  0
 28 49  1  0
M  END
>  <smiles>  (10) 
O=C1CC(c2cccc(C(=O)N3CCCC3)c2)=Nc2ccc(-c3ccoc3)cc21

>  <score_type>  (10) 
oracle

>  <origin>  (10) 
autodockgpu

>  <m_score__min__energy>  (10) 
-8.2799999999999994

>  <m_primary>  (10) 
energy

>  <rmsd>  (10) 
6.869418293515821

>  <m_score__min__rmsd>  (10) 
6.869418293515821

>  <meeko>  (10) 
{"free_energy": -7.83, "intermolecular_energy": -8.73, "internal_energy": -0.94, "cluster_size": 40, "cluster_id": 1, "rank_in_cluster": 21}

>  <energy>  (10) 
-7.84

>  <cluster_rmsd>  (10) 
1.71

>  <cluster>  (10) 
1

$$$$

     RDKit          3D

 49 53  0  0  0  0  0  0  0  0999 V2000
  142.9950   75.2360  220.1370 O   0  0  0  0  0  0  0  0  0  0  0  0
  141.9600   74.8960  220.8030 C   0  0  0  0  0  0  0  0  0  0  0  0
  141.7130   73.4440  220.9160 C   0  0  0  0  0  0  0  0  0  0  0  0
  140.4930   73.2260  221.7230 C   0  0  0  0  0  0  0  0  0  0  0  0
  140.1000   71.8390  221.9970 C   0  0  0  0  0  0  0  0  0  0  0  0
  140.1410   70.8450  221.0480 C   0  0  0  0  0  0  0  0  0  0  0  0
  139.7080   69.5460  221.2980 C   0  0  0  0  0  0  0  0  0  0  0  0
  139.2020   69.2010  222.5560 C   0  0  0  0  0  0  0  0  0  0  0  0
  139.1650   70.2030  223.4980 C   0  0  0  0  0  0  0  0  0  0  0  0
  138.5930   69.9750  224.8460 C   0  0  0  0  0  0  0  0  0  0  0  0
  137.3610   69.9760  225.0650 O   0  0  0  0  0  0  0  0  0  0  0  0
  139.5700   69.7510  225.8670 N   0  0  0  0  0  0  0  0  0  0  0  0
  139.3930   69.4770  227.2780 C   0  0  0  0  0  0  0  0  0  0  0  0
  140.5160   68.5290  227.6580 C   0  0  0  0  0  0  0  0  0  0  0  0
  141.4280   68.5050  226.4360 C   0  0  0  0  0  0  0  0  0  0  0  0
  141.0360   69.7600  225.6930 C   0  0  0  0  0  0  0  0  0  0  0  0
  139.5950   71.4880  223.2570 C   0  0  0  0  0  0  0  0  0  0  0  0
  139.7610   74.1360  222.2350 N   0  0  0  0  0  0  0  0  0  0  0  0
  140.0100   75.5220  222.1100 C   0  0  0  0  0  0  0  0  0  0  0  0
  139.2090   76.4780  222.6970 C   0  0  0  0  0  0  0  0  0  0  0  0
  139.5490   77.8210  222.5440 C   0  0  0  0  0  0  0  0  0  0  0  0
  140.6550   78.2160  221.8260 C   0  0  0  0  0  0  0  0  0  0  0  0
  141.0450   79.6220  221.6770 C   0  0  0  0  0  0  0  0  0  0  0  0
  141.4930   80.4310  222.7160 C   0  0  0  0  0  0  0  0  0  0  0  0
  141.7250   81.6600  222.1190 C   0  0  0  0  0  0  0  0  0  0  0  0
  141.4500   81.6200  220.8430 O   0  0  0  0  0  0  0  0  0  0  0  0
  141.0300   80.3960  220.5240 C   0  0  0  0  0  0  0  0  0  0  0  0
  141.4550   77.2590  221.2390 C   0  0  0  0  0  0  0  0  0  0  0  0
  141.1220   75.9230  221.3900 C   0  0  0  0  0  0  0  0  0  0  0  0
  141.5738   73.0142  219.9131 H   0  0  0  0  0  0  0  0  0  0  0  0
  142.5719   72.9569  221.4007 H   0  0  0  0  0  0  0  0  0  0  0  0
  140.5326   71.0865  220.0488 H   0  0  0  0  0  0  0  0  0  0  0  0
  139.7638   68.7875  220.5033 H   0  0  0  0  0  0  0  0  0  0  0  0
  138.8522   68.1824  222.7800 H   0  0  0  0  0  0  0  0  0  0  0  0
  139.4631   70.4073  227.8608 H   0  0  0  0  0  0  0  0  0  0  0  0
  138.4054   69.0392  227.4851 H   0  0  0  0  0  0  0  0  0  0  0  0
  141.0577   68.9020  228.5397 H   0  0  0  0  0  0  0  0  0  0  0  0
  140.1455   67.5275  227.9222 H   0  0  0  0  0  0  0  0  0  0  0  0
  142.4868   68.5358  226.7325 H   0  0  0  0  0  0  0  0  0  0  0  0
  141.3185   67.5922  225.8320 H   0  0  0  0  0  0  0  0  0  0  0  0
  141.4900   70.6543  226.1449 H   0  0  0  0  0  0  0  0  0  0  0  0
  141.3657   69.7848  224.6439 H   0  0  0  0  0  0  0  0  0  0  0  0
  139.5423   72.2424  224.0558 H   0  0  0  0  0  0  0  0  0  0  0  0
  138.3193   76.1868  223.2746 H   0  0  0  0  0  0  0  0  0  0  0  0
  138.9143   78.5884  223.0111 H   0  0  0  0  0  0  0  0  0  0  0  0
  141.6317   80.1573  223.7723 H   0  0  0  0  0  0  0  0  0  0  0  0
  142.0921   82.5509  222.6496 H   0  0  0  0  0  0  0  0  0  0  0  0
  140.7249   80.0580  219.5227 H   0  0  0  0  0  0  0  0  0  0  0  0
  142.3434   77.5516  220.6601 H   0  0  0  0  0  0  0  0  0  0  0  0
  1  2  2  0
  2  3  1  0
  3  4  1  0
  4  5  1  0
  5  6  2  0
  6  7  1  0
  7  8  2  0
  8  9  1  0
  9 10  1  0
 10 11  2  0
 10 12  1  0
 12 13  1  0
 13 14  1  0
 14 15  1  0
 15 16  1  0
  9 17  2  0
  4 18  2  0
 18 19  1  0
 19 20  2  0
 20 21  1  0
 21 22  2  0
 22 23  1  0
 23 24  1  0
 24 25  2  0
 25 26  1  0
 26 27  1  0
 22 28  1  0
 28 29  2  0
 29  2  1  0
 17  5  1  0
 29 19  1  0
 16 12  1  0
 27 23  2  0
  3 30  1  0
  3 31  1  0
  6 32  1  0
  7 33  1  0
  8 34  1  0
 13 35  1  0
 13 36  1  0
 14 37  1  0
 14 38  1  0
 15 39  1  0
 15 40  1  0
 16 41  1  0
 16 42  1  0
 17 43  1  0
 20 44  1  0
 21 45  1  0
 24 46  1  0
 25 47  1  0
 27 48  1  0
 28 49  1  0
M  END
>  <smiles>  (11) 
O=C1CC(c2cccc(C(=O)N3CCCC3)c2)=Nc2ccc(-c3ccoc3)cc21

>  <score_type>  (11) 
oracle

>  <origin>  (11) 
autodockgpu

>  <m_score__min__energy>  (11) 
-8.2799999999999994

>  <m_primary>  (11) 
energy

>  <rmsd>  (11) 
6.878225052707385

>  <m_score__min__rmsd>  (11) 
6.878225052707385

>  <meeko>  (11) 
{"free_energy": -7.84, "intermolecular_energy": -8.73, "internal_energy": -0.93, "cluster_size": 40, "cluster_id": 1, "rank_in_cluster": 13}

>  <energy>  (11) 
-7.84

>  <cluster_rmsd>  (11) 
1.71

>  <cluster>  (11) 
1

$$$$

     RDKit          3D

 49 53  0  0  0  0  0  0  0  0999 V2000
  142.9890   75.2510  220.1350 O   0  0  0  0  0  0  0  0  0  0  0  0
  141.9550   74.9070  220.8010 C   0  0  0  0  0  0  0  0  0  0  0  0
  141.7080   73.4540  220.9070 C   0  0  0  0  0  0  0  0  0  0  0  0
  140.4900   73.2310  221.7150 C   0  0  0  0  0  0  0  0  0  0  0  0
  140.0990   71.8430  221.9820 C   0  0  0  0  0  0  0  0  0  0  0  0
  140.1630   70.8480  221.0340 C   0  0  0  0  0  0  0  0  0  0  0  0
  139.7310   69.5470  221.2770 C   0  0  0  0  0  0  0  0  0  0  0  0
  139.2010   69.2000  222.5240 C   0  0  0  0  0  0  0  0  0  0  0  0
  139.1410   70.2030  223.4650 C   0  0  0  0  0  0  0  0  0  0  0  0
  138.5430   69.9720  224.8010 C   0  0  0  0  0  0  0  0  0  0  0  0
  137.3070   69.9740  224.9970 O   0  0  0  0  0  0  0  0  0  0  0  0
  139.5010   69.7460  225.8400 N   0  0  0  0  0  0  0  0  0  0  0  0
  139.2960   69.4710  227.2480 C   0  0  0  0  0  0  0  0  0  0  0  0
  140.4110   68.5210  227.6470 C   0  0  0  0  0  0  0  0  0  0  0  0
  141.3470   68.4990  226.4430 C   0  0  0  0  0  0  0  0  0  0  0  0
  140.9690   69.7550  225.6950 C   0  0  0  0  0  0  0  0  0  0  0  0
  139.5700   71.4890  223.2320 C   0  0  0  0  0  0  0  0  0  0  0  0
  139.7590   74.1380  222.2330 N   0  0  0  0  0  0  0  0  0  0  0  0
  140.0070   75.5240  222.1160 C   0  0  0  0  0  0  0  0  0  0  0  0
  139.2070   76.4760  222.7100 C   0  0  0  0  0  0  0  0  0  0  0  0
  139.5460   77.8200  222.5630 C   0  0  0  0  0  0  0  0  0  0  0  0
  140.6500   78.2200  221.8450 C   0  0  0  0  0  0  0  0  0  0  0  0
  141.0400   79.6270  221.7030 C   0  0  0  0  0  0  0  0  0  0  0  0
  141.4690   80.4370  222.7500 C   0  0  0  0  0  0  0  0  0  0  0  0
  141.7070   81.6670  222.1570 C   0  0  0  0  0  0  0  0  0  0  0  0
  141.4540   81.6260  220.8770 O   0  0  0  0  0  0  0  0  0  0  0  0
  141.0430   80.4010  220.5500 C   0  0  0  0  0  0  0  0  0  0  0  0
  141.4500   77.2670  221.2510 C   0  0  0  0  0  0  0  0  0  0  0  0
  141.1170   75.9300  221.3950 C   0  0  0  0  0  0  0  0  0  0  0  0
  141.5669   73.0295  219.9021 H   0  0  0  0  0  0  0  0  0  0  0  0
  142.5679   72.9647  221.3878 H   0  0  0  0  0  0  0  0  0  0  0  0
  140.5727   71.0906  220.0424 H   0  0  0  0  0  0  0  0  0  0  0  0
  139.8069   68.7881  220.4843 H   0  0  0  0  0  0  0  0  0  0  0  0
  138.8508   68.1801  222.7412 H   0  0  0  0  0  0  0  0  0  0  0  0
  139.3562   70.4005  227.8332 H   0  0  0  0  0  0  0  0  0  0  0  0
  138.3039   69.0349  227.4365 H   0  0  0  0  0  0  0  0  0  0  0  0
  140.9357   68.8913  228.5401 H   0  0  0  0  0  0  0  0  0  0  0  0
  140.0345   67.5192  227.9010 H   0  0  0  0  0  0  0  0  0  0  0  0
  142.3998   68.5296  226.7602 H   0  0  0  0  0  0  0  0  0  0  0  0
  141.2499   67.5872  225.8354 H   0  0  0  0  0  0  0  0  0  0  0  0
  141.4140   70.6485  226.1573 H   0  0  0  0  0  0  0  0  0  0  0  0
  141.3189   69.7814  224.6525 H   0  0  0  0  0  0  0  0  0  0  0  0
  139.4979   72.2432  224.0295 H   0  0  0  0  0  0  0  0  0  0  0  0
  138.3190   76.1812  223.2884 H   0  0  0  0  0  0  0  0  0  0  0  0
  138.9117   78.5845  223.0354 H   0  0  0  0  0  0  0  0  0  0  0  0
  141.5915   80.1632  223.8083 H   0  0  0  0  0  0  0  0  0  0  0  0
  142.0619   82.5592  222.6937 H   0  0  0  0  0  0  0  0  0  0  0  0
  140.7564   80.0625  219.5434 H   0  0  0  0  0  0  0  0  0  0  0  0
  142.3375   77.5633  220.6726 H   0  0  0  0  0  0  0  0  0  0  0  0
  1  2  2  0
  2  3  1  0
  3  4  1  0
  4  5  1  0
  5  6  2  0
  6  7  1  0
  7  8  2  0
  8  9  1  0
  9 10  1  0
 10 11  2  0
 10 12  1  0
 12 13  1  0
 13 14  1  0
 14 15  1  0
 15 16  1  0
  9 17  2  0
  4 18  2  0
 18 19  1  0
 19 20  2  0
 20 21  1  0
 21 22  2  0
 22 23  1  0
 23 24  1  0
 24 25  2  0
 25 26  1  0
 26 27  1  0
 22 28  1  0
 28 29  2  0
 29  2  1  0
 17  5  1  0
 29 19  1  0
 16 12  1  0
 27 23  2  0
  3 30  1  0
  3 31  1  0
  6 32  1  0
  7 33  1  0
  8 34  1  0
 13 35  1  0
 13 36  1  0
 14 37  1  0
 14 38  1  0
 15 39  1  0
 15 40  1  0
 16 41  1  0
 16 42  1  0
 17 43  1  0
 20 44  1  0
 21 45  1  0
 24 46  1  0
 25 47  1  0
 27 48  1  0
 28 49  1  0
M  END
>  <smiles>  (12) 
O=C1CC(c2cccc(C(=O)N3CCCC3)c2)=Nc2ccc(-c3ccoc3)cc21

>  <score_type>  (12) 
oracle

>  <origin>  (12) 
autodockgpu

>  <m_score__min__energy>  (12) 
-8.2799999999999994

>  <m_primary>  (12) 
energy

>  <rmsd>  (12) 
6.868680761052438

>  <m_score__min__rmsd>  (12) 
6.868680761052438

>  <meeko>  (12) 
{"free_energy": -7.84, "intermolecular_energy": -8.74, "internal_energy": -0.93, "cluster_size": 40, "cluster_id": 1, "rank_in_cluster": 11}

>  <energy>  (12) 
-7.84

>  <cluster_rmsd>  (12) 
1.7

>  <cluster>  (12) 
1

$$$$

     RDKit          3D

 49 53  0  0  0  0  0  0  0  0999 V2000
  143.0270   75.2420  220.2010 O   0  0  0  0  0  0  0  0  0  0  0  0
  141.9780   74.9030  220.8460 C   0  0  0  0  0  0  0  0  0  0  0  0
  141.7280   73.4510  220.9550 C   0  0  0  0  0  0  0  0  0  0  0  0
  140.4910   73.2340  221.7370 C   0  0  0  0  0  0  0  0  0  0  0  0
  140.0920   71.8480  222.0040 C   0  0  0  0  0  0  0  0  0  0  0  0
  140.1310   70.8580  221.0510 C   0  0  0  0  0  0  0  0  0  0  0  0
  139.6920   69.5590  221.2950 C   0  0  0  0  0  0  0  0  0  0  0  0
  139.1810   69.2110  222.5500 C   0  0  0  0  0  0  0  0  0  0  0  0
  139.1470   70.2100  223.4970 C   0  0  0  0  0  0  0  0  0  0  0  0
  138.5700   69.9780  224.8420 C   0  0  0  0  0  0  0  0  0  0  0  0
  137.3370   69.9790  225.0570 O   0  0  0  0  0  0  0  0  0  0  0  0
  139.5440   69.7520  225.8650 N   0  0  0  0  0  0  0  0  0  0  0  0
  139.3620   69.4760  227.2760 C   0  0  0  0  0  0  0  0  0  0  0  0
  140.4850   68.5270  227.6570 C   0  0  0  0  0  0  0  0  0  0  0  0
  141.4010   68.5060  226.4380 C   0  0  0  0  0  0  0  0  0  0  0  0
  141.0100   69.7620  225.6960 C   0  0  0  0  0  0  0  0  0  0  0  0
  139.5820   71.4940  223.2610 C   0  0  0  0  0  0  0  0  0  0  0  0
  139.7490   74.1460  222.2320 N   0  0  0  0  0  0  0  0  0  0  0  0
  140.0020   75.5310  222.1120 C   0  0  0  0  0  0  0  0  0  0  0  0
  139.1890   76.4880  222.6810 C   0  0  0  0  0  0  0  0  0  0  0  0
  139.5320   77.8310  222.5330 C   0  0  0  0  0  0  0  0  0  0  0  0
  140.6530   78.2250  221.8380 C   0  0  0  0  0  0  0  0  0  0  0  0
  141.0470   79.6300  221.6950 C   0  0  0  0  0  0  0  0  0  0  0  0
  140.9360   80.3660  220.5190 C   0  0  0  0  0  0  0  0  0  0  0  0
  141.4350   81.6160  220.8480 C   0  0  0  0  0  0  0  0  0  0  0  0
  141.8160   81.6550  222.0960 O   0  0  0  0  0  0  0  0  0  0  0  0
  141.6000   80.4650  222.6570 C   0  0  0  0  0  0  0  0  0  0  0  0
  141.4660   77.2670  221.2690 C   0  0  0  0  0  0  0  0  0  0  0  0
  141.1280   75.9310  221.4140 C   0  0  0  0  0  0  0  0  0  0  0  0
  141.6094   73.0204  219.9497 H   0  0  0  0  0  0  0  0  0  0  0  0
  142.5765   72.9639  221.4578 H   0  0  0  0  0  0  0  0  0  0  0  0
  140.5256   71.1021  220.0536 H   0  0  0  0  0  0  0  0  0  0  0  0
  139.7473   68.8034  220.4975 H   0  0  0  0  0  0  0  0  0  0  0  0
  138.8253   68.1933  222.7686 H   0  0  0  0  0  0  0  0  0  0  0  0
  139.4302   70.4053  227.8606 H   0  0  0  0  0  0  0  0  0  0  0  0
  138.3737   69.0383  227.4800 H   0  0  0  0  0  0  0  0  0  0  0  0
  141.0238   68.8981  228.5413 H   0  0  0  0  0  0  0  0  0  0  0  0
  140.1139   67.5247  227.9173 H   0  0  0  0  0  0  0  0  0  0  0  0
  142.4588   68.5374  226.7380 H   0  0  0  0  0  0  0  0  0  0  0  0
  141.2945   67.5942  225.8320 H   0  0  0  0  0  0  0  0  0  0  0  0
  141.4619   70.6558  226.1509 H   0  0  0  0  0  0  0  0  0  0  0  0
  141.3428   69.7886  224.6479 H   0  0  0  0  0  0  0  0  0  0  0  0
  139.5293   72.2459  224.0621 H   0  0  0  0  0  0  0  0  0  0  0  0
  138.2876   76.1976  223.2406 H   0  0  0  0  0  0  0  0  0  0  0  0
  138.8874   78.5991  222.9852 H   0  0  0  0  0  0  0  0  0  0  0  0
  140.5415   80.0312  219.5483 H   0  0  0  0  0  0  0  0  0  0  0  0
  141.5013   82.4635  220.1499 H   0  0  0  0  0  0  0  0  0  0  0  0
  141.8212   80.1923  223.6995 H   0  0  0  0  0  0  0  0  0  0  0  0
  142.3672   77.5585  220.7097 H   0  0  0  0  0  0  0  0  0  0  0  0
  1  2  2  0
  2  3  1  0
  3  4  1  0
  4  5  1  0
  5  6  2  0
  6  7  1  0
  7  8  2  0
  8  9  1  0
  9 10  1  0
 10 11  2  0
 10 12  1  0
 12 13  1  0
 13 14  1  0
 14 15  1  0
 15 16  1  0
  9 17  2  0
  4 18  2  0
 18 19  1  0
 19 20  2  0
 20 21  1  0
 21 22  2  0
 22 23  1  0
 23 24  1  0
 24 25  2  0
 25 26  1  0
 26 27  1  0
 22 28  1  0
 28 29  2  0
 29  2  1  0
 17  5  1  0
 29 19  1  0
 16 12  1  0
 27 23  2  0
  3 30  1  0
  3 31  1  0
  6 32  1  0
  7 33  1  0
  8 34  1  0
 13 35  1  0
 13 36  1  0
 14 37  1  0
 14 38  1  0
 15 39  1  0
 15 40  1  0
 16 41  1  0
 16 42  1  0
 17 43  1  0
 20 44  1  0
 21 45  1  0
 24 46  1  0
 25 47  1  0
 27 48  1  0
 28 49  1  0
M  END
>  <smiles>  (13) 
O=C1CC(c2cccc(C(=O)N3CCCC3)c2)=Nc2ccc(-c3ccoc3)cc21

>  <score_type>  (13) 
oracle

>  <origin>  (13) 
autodockgpu

>  <m_score__min__energy>  (13) 
-8.2799999999999994

>  <m_primary>  (13) 
energy

>  <rmsd>  (13) 
6.869579095045889

>  <m_score__min__rmsd>  (13) 
6.869579095045889

>  <meeko>  (13) 
{"free_energy": -7.79, "intermolecular_energy": -8.69, "internal_energy": -0.93, "cluster_size": 40, "cluster_id": 1, "rank_in_cluster": 34}

>  <energy>  (13) 
-7.84

>  <cluster_rmsd>  (13) 
1.69

>  <cluster>  (13) 
1

$$$$

     RDKit          3D

 49 53  0  0  0  0  0  0  0  0999 V2000
  143.0190   75.4250  220.1720 O   0  0  0  0  0  0  0  0  0  0  0  0
  141.9890   75.0520  220.8290 C   0  0  0  0  0  0  0  0  0  0  0  0
  141.7840   73.5930  220.9330 C   0  0  0  0  0  0  0  0  0  0  0  0
  140.5650   73.3350  221.7300 C   0  0  0  0  0  0  0  0  0  0  0  0
  140.2110   71.9360  221.9950 C   0  0  0  0  0  0  0  0  0  0  0  0
  140.3360   70.9390  221.0560 C   0  0  0  0  0  0  0  0  0  0  0  0
  139.9400   69.6250  221.2950 C   0  0  0  0  0  0  0  0  0  0  0  0
  139.3850   69.2690  222.5290 C   0  0  0  0  0  0  0  0  0  0  0  0
  139.2650   70.2750  223.4610 C   0  0  0  0  0  0  0  0  0  0  0  0
  138.6360   70.0330  224.7810 C   0  0  0  0  0  0  0  0  0  0  0  0
  137.3950   70.0420  224.9490 O   0  0  0  0  0  0  0  0  0  0  0  0
  139.5680   69.7860  225.8370 N   0  0  0  0  0  0  0  0  0  0  0  0
  139.3300   69.4950  227.2370 C   0  0  0  0  0  0  0  0  0  0  0  0
  140.4290   68.5310  227.6480 C   0  0  0  0  0  0  0  0  0  0  0  0
  141.3900   68.5160  226.4650 C   0  0  0  0  0  0  0  0  0  0  0  0
  141.0390   69.7840  225.7240 C   0  0  0  0  0  0  0  0  0  0  0  0
  139.6570   71.5730  223.2310 C   0  0  0  0  0  0  0  0  0  0  0  0
  139.8020   74.2210  222.2400 N   0  0  0  0  0  0  0  0  0  0  0  0
  140.0120   75.6140  222.1230 C   0  0  0  0  0  0  0  0  0  0  0  0
  139.1790   76.5430  222.7080 C   0  0  0  0  0  0  0  0  0  0  0  0
  139.4790   77.8960  222.5630 C   0  0  0  0  0  0  0  0  0  0  0  0
  140.5790   78.3270  221.8550 C   0  0  0  0  0  0  0  0  0  0  0  0
  140.9280   79.7450  221.7150 C   0  0  0  0  0  0  0  0  0  0  0  0
  141.7700   80.2570  220.7320 C   0  0  0  0  0  0  0  0  0  0  0  0
  141.8190   81.6160  220.9960 C   0  0  0  0  0  0  0  0  0  0  0  0
  141.0860   81.9180  222.0340 O   0  0  0  0  0  0  0  0  0  0  0  0
  140.5210   80.8090  222.5090 C   0  0  0  0  0  0  0  0  0  0  0  0
  141.4120   77.3970  221.2710 C   0  0  0  0  0  0  0  0  0  0  0  0
  141.1160   76.0510  221.4130 C   0  0  0  0  0  0  0  0  0  0  0  0
  141.6647   73.1644  219.9270 H   0  0  0  0  0  0  0  0  0  0  0  0
  142.6534   73.1289  221.4216 H   0  0  0  0  0  0  0  0  0  0  0  0
  140.7666   71.1896  220.0753 H   0  0  0  0  0  0  0  0  0  0  0  0
  140.0642   68.8642  220.5103 H   0  0  0  0  0  0  0  0  0  0  0  0
  139.0616   68.2396  222.7432 H   0  0  0  0  0  0  0  0  0  0  0  0
  139.3845   70.4166  227.8351 H   0  0  0  0  0  0  0  0  0  0  0  0
  138.3306   69.0646  227.3984 H   0  0  0  0  0  0  0  0  0  0  0  0
  140.9372   68.8862  228.5566 H   0  0  0  0  0  0  0  0  0  0  0  0
  140.0392   67.5292  227.8813 H   0  0  0  0  0  0  0  0  0  0  0  0
  142.4359   68.5339  226.8053 H   0  0  0  0  0  0  0  0  0  0  0  0
  141.2983   67.6125  225.8443 H   0  0  0  0  0  0  0  0  0  0  0  0
  141.4813   70.6681  226.2065 H   0  0  0  0  0  0  0  0  0  0  0  0
  141.4118   69.8196  224.6897 H   0  0  0  0  0  0  0  0  0  0  0  0
  139.5354   72.3297  224.0200 H   0  0  0  0  0  0  0  0  0  0  0  0
  138.2946   76.2227  223.2782 H   0  0  0  0  0  0  0  0  0  0  0  0
  138.8177   78.6420  223.0278 H   0  0  0  0  0  0  0  0  0  0  0  0
  142.2808   79.7071  219.9278 H   0  0  0  0  0  0  0  0  0  0  0  0
  142.3983   82.3441  220.4093 H   0  0  0  0  0  0  0  0  0  0  0  0
  139.8496   80.7470  223.3781 H   0  0  0  0  0  0  0  0  0  0  0  0
  142.2968   77.7181  220.7018 H   0  0  0  0  0  0  0  0  0  0  0  0
  1  2  2  0
  2  3  1  0
  3  4  1  0
  4  5  1  0
  5  6  2  0
  6  7  1  0
  7  8  2  0
  8  9  1  0
  9 10  1  0
 10 11  2  0
 10 12  1  0
 12 13  1  0
 13 14  1  0
 14 15  1  0
 15 16  1  0
  9 17  2  0
  4 18  2  0
 18 19  1  0
 19 20  2  0
 20 21  1  0
 21 22  2  0
 22 23  1  0
 23 24  1  0
 24 25  2  0
 25 26  1  0
 26 27  1  0
 22 28  1  0
 28 29  2  0
 29  2  1  0
 17  5  1  0
 29 19  1  0
 16 12  1  0
 27 23  2  0
  3 30  1  0
  3 31  1  0
  6 32  1  0
  7 33  1  0
  8 34  1  0
 13 35  1  0
 13 36  1  0
 14 37  1  0
 14 38  1  0
 15 39  1  0
 15 40  1  0
 16 41  1  0
 16 42  1  0
 17 43  1  0
 20 44  1  0
 21 45  1  0
 24 46  1  0
 25 47  1  0
 27 48  1  0
 28 49  1  0
M  END
>  <smiles>  (14) 
O=C1CC(c2cccc(C(=O)N3CCCC3)c2)=Nc2ccc(-c3ccoc3)cc21

>  <score_type>  (14) 
oracle

>  <origin>  (14) 
autodockgpu

>  <m_score__min__energy>  (14) 
-8.2799999999999994

>  <m_primary>  (14) 
energy

>  <rmsd>  (14) 
6.906130964706271

>  <m_score__min__rmsd>  (14) 
6.906130964706271

>  <meeko>  (14) 
{"free_energy": -7.69, "intermolecular_energy": -8.58, "internal_energy": -0.94, "cluster_size": 40, "cluster_id": 1, "rank_in_cluster": 39}

>  <energy>  (14) 
-7.84

>  <cluster_rmsd>  (14) 
1.71

>  <cluster>  (14) 
1

$$$$

     RDKit          3D

 49 53  0  0  0  0  0  0  0  0999 V2000
  142.9720   73.9230  219.3160 O   0  0  0  0  0  0  0  0  0  0  0  0
  142.0890   74.0400  220.2320 C   0  0  0  0  0  0  0  0  0  0  0  0
  141.7160   72.7950  220.9330 C   0  0  0  0  0  0  0  0  0  0  0  0
  140.7000   73.1080  221.9610 C   0  0  0  0  0  0  0  0  0  0  0  0
  140.2320   72.0060  222.8090 C   0  0  0  0  0  0  0  0  0  0  0  0
  139.3990   71.0100  222.3550 C   0  0  0  0  0  0  0  0  0  0  0  0
  138.9080   70.0030  223.1810 C   0  0  0  0  0  0  0  0  0  0  0  0
  139.2530   69.9720  224.5370 C   0  0  0  0  0  0  0  0  0  0  0  0
  140.0860   70.9730  224.9810 C   0  0  0  0  0  0  0  0  0  0  0  0
  140.4700   71.0820  226.4080 C   0  0  0  0  0  0  0  0  0  0  0  0
  140.3470   72.1420  227.0610 O   0  0  0  0  0  0  0  0  0  0  0  0
  140.9880   69.8710  226.9680 N   0  0  0  0  0  0  0  0  0  0  0  0
  141.4430   69.5920  228.3150 C   0  0  0  0  0  0  0  0  0  0  0  0
  141.0550   68.1500  228.5890 C   0  0  0  0  0  0  0  0  0  0  0  0
  140.5880   67.6150  227.2400 C   0  0  0  0  0  0  0  0  0  0  0  0
  141.1880   68.5930  226.2590 C   0  0  0  0  0  0  0  0  0  0  0  0
  140.5760   71.9690  224.1680 C   0  0  0  0  0  0  0  0  0  0  0  0
  140.2120   74.2610  222.2050 N   0  0  0  0  0  0  0  0  0  0  0  0
  140.5770   75.4410  221.5180 C   0  0  0  0  0  0  0  0  0  0  0  0
  140.0460   76.6750  221.8250 C   0  0  0  0  0  0  0  0  0  0  0  0
  140.4860   77.7890  221.1130 C   0  0  0  0  0  0  0  0  0  0  0  0
  141.4310   77.6910  220.1170 C   0  0  0  0  0  0  0  0  0  0  0  0
  141.9290   78.8540  219.3750 C   0  0  0  0  0  0  0  0  0  0  0  0
  142.5830   78.7880  218.1490 C   0  0  0  0  0  0  0  0  0  0  0  0
  142.8770   80.1080  217.8450 C   0  0  0  0  0  0  0  0  0  0  0  0
  142.4500   80.9100  218.7820 O   0  0  0  0  0  0  0  0  0  0  0  0
  141.8630   80.1920  219.7390 C   0  0  0  0  0  0  0  0  0  0  0  0
  141.9630   76.4560  219.8110 C   0  0  0  0  0  0  0  0  0  0  0  0
  141.5280   75.3460  220.5170 C   0  0  0  0  0  0  0  0  0  0  0  0
  141.3014   72.0754  220.2116 H   0  0  0  0  0  0  0  0  0  0  0  0
  142.6048   72.3561  221.4100 H   0  0  0  0  0  0  0  0  0  0  0  0
  139.1085   71.0093  221.2940 H   0  0  0  0  0  0  0  0  0  0  0  0
  138.2461   69.2284  222.7663 H   0  0  0  0  0  0  0  0  0  0  0  0
  138.8780   69.1887  225.2121 H   0  0  0  0  0  0  0  0  0  0  0  0
  142.5338   69.7156  228.3847 H   0  0  0  0  0  0  0  0  0  0  0  0
  140.9930   70.2796  229.0462 H   0  0  0  0  0  0  0  0  0  0  0  0
  141.9201   67.5779  228.9554 H   0  0  0  0  0  0  0  0  0  0  0  0
  140.2776   68.0668  229.3628 H   0  0  0  0  0  0  0  0  0  0  0  0
  140.9676   66.5974  227.0657 H   0  0  0  0  0  0  0  0  0  0  0  0
  139.4936   67.5381  227.1601 H   0  0  0  0  0  0  0  0  0  0  0  0
  142.2555   68.3894  226.0889 H   0  0  0  0  0  0  0  0  0  0  0  0
  140.7383   68.5587  225.2557 H   0  0  0  0  0  0  0  0  0  0  0  0
  141.2405   72.7396  224.5858 H   0  0  0  0  0  0  0  0  0  0  0  0
  139.2895   76.7786  222.6168 H   0  0  0  0  0  0  0  0  0  0  0  0
  140.0655   78.7764  221.3541 H   0  0  0  0  0  0  0  0  0  0  0  0
  142.8144   77.8914  217.5553 H   0  0  0  0  0  0  0  0  0  0  0  0
  143.4006   80.4360  216.9349 H   0  0  0  0  0  0  0  0  0  0  0  0
  141.4060   80.5900  220.6570 H   0  0  0  0  0  0  0  0  0  0  0  0
  142.7201   76.3539  219.0196 H   0  0  0  0  0  0  0  0  0  0  0  0
  1  2  2  0
  2  3  1  0
  3  4  1  0
  4  5  1  0
  5  6  2  0
  6  7  1  0
  7  8  2  0
  8  9  1  0
  9 10  1  0
 10 11  2  0
 10 12  1  0
 12 13  1  0
 13 14  1  0
 14 15  1  0
 15 16  1  0
  9 17  2  0
  4 18  2  0
 18 19  1  0
 19 20  2  0
 20 21  1  0
 21 22  2  0
 22 23  1  0
 23 24  1  0
 24 25  2  0
 25 26  1  0
 26 27  1  0
 22 28  1  0
 28 29  2  0
 29  2  1  0
 17  5  1  0
 29 19  1  0
 16 12  1  0
 27 23  2  0
  3 30  1  0
  3 31  1  0
  6 32  1  0
  7 33  1  0
  8 34  1  0
 13 35  1  0
 13 36  1  0
 14 37  1  0
 14 38  1  0
 15 39  1  0
 15 40  1  0
 16 41  1  0
 16 42  1  0
 17 43  1  0
 20 44  1  0
 21 45  1  0
 24 46  1  0
 25 47  1  0
 27 48  1  0
 28 49  1  0
M  END
>  <smiles>  (15) 
O=C1CC(c2cccc(C(=O)N3CCCC3)c2)=Nc2ccc(-c3ccoc3)cc21

>  <score_type>  (15) 
oracle

>  <origin>  (15) 
autodockgpu

>  <m_score__min__energy>  (15) 
-8.2799999999999994

>  <m_primary>  (15) 
energy

>  <rmsd>  (15) 
7.494960786412884

>  <m_score__min__rmsd>  (15) 
7.494960786412884

>  <meeko>  (15) 
{"free_energy": -8.28, "intermolecular_energy": -9.17, "internal_energy": -0.71, "cluster_size": 40, "cluster_id": 1, "rank_in_cluster": 1}

>  <energy>  (15) 
-7.84

>  <cluster_rmsd>  (15) 
1.72

>  <cluster>  (15) 
1

$$$$

     RDKit          3D

 49 53  0  0  0  0  0  0  0  0999 V2000
  142.8860   73.9520  219.3760 O   0  0  0  0  0  0  0  0  0  0  0  0
  141.9970   74.0850  220.2830 C   0  0  0  0  0  0  0  0  0  0  0  0
  141.6080   72.8500  220.9930 C   0  0  0  0  0  0  0  0  0  0  0  0
  140.5870   73.1800  222.0100 C   0  0  0  0  0  0  0  0  0  0  0  0
  140.1020   72.0910  222.8640 C   0  0  0  0  0  0  0  0  0  0  0  0
  139.2170   71.1320  222.4290 C   0  0  0  0  0  0  0  0  0  0  0  0
  138.7130   70.1370  223.2630 C   0  0  0  0  0  0  0  0  0  0  0  0
  139.0990   70.0810  224.6070 C   0  0  0  0  0  0  0  0  0  0  0  0
  139.9850   71.0450  225.0320 C   0  0  0  0  0  0  0  0  0  0  0  0
  140.4170   71.1260  226.4470 C   0  0  0  0  0  0  0  0  0  0  0  0
  140.3260   72.1760  227.1210 O   0  0  0  0  0  0  0  0  0  0  0  0
  140.9430   69.9020  226.9690 N   0  0  0  0  0  0  0  0  0  0  0  0
  141.4400   69.5950  228.2950 C   0  0  0  0  0  0  0  0  0  0  0  0
  141.0480   68.1520  228.5570 C   0  0  0  0  0  0  0  0  0  0  0  0
  140.5320   67.6440  227.2150 C   0  0  0  0  0  0  0  0  0  0  0  0
  141.1070   68.6340  226.2310 C   0  0  0  0  0  0  0  0  0  0  0  0
  140.4880   72.0280  224.2110 C   0  0  0  0  0  0  0  0  0  0  0  0
  140.1060   74.3400  222.2390 N   0  0  0  0  0  0  0  0  0  0  0  0
  140.4870   75.5100  221.5450 C   0  0  0  0  0  0  0  0  0  0  0  0
  139.9630   76.7510  221.8360 C   0  0  0  0  0  0  0  0  0  0  0  0
  140.4180   77.8550  221.1170 C   0  0  0  0  0  0  0  0  0  0  0  0
  141.3710   77.7400  220.1300 C   0  0  0  0  0  0  0  0  0  0  0  0
  141.8840   78.8930  219.3820 C   0  0  0  0  0  0  0  0  0  0  0  0
  142.5650   78.8080  218.1720 C   0  0  0  0  0  0  0  0  0  0  0  0
  142.8650   80.1240  217.8540 C   0  0  0  0  0  0  0  0  0  0  0  0
  142.4160   80.9400  218.7690 O   0  0  0  0  0  0  0  0  0  0  0  0
  141.8100   80.2360  219.7240 C   0  0  0  0  0  0  0  0  0  0  0  0
  141.8950   76.4980  219.8390 C   0  0  0  0  0  0  0  0  0  0  0  0
  141.4450   75.3980  220.5520 C   0  0  0  0  0  0  0  0  0  0  0  0
  141.1931   72.1271  220.2751 H   0  0  0  0  0  0  0  0  0  0  0  0
  142.4895   72.4090  221.4813 H   0  0  0  0  0  0  0  0  0  0  0  0
  138.8936   71.1518  221.3778 H   0  0  0  0  0  0  0  0  0  0  0  0
  138.0088   69.3922  222.8638 H   0  0  0  0  0  0  0  0  0  0  0  0
  138.7146   69.3074  225.2880 H   0  0  0  0  0  0  0  0  0  0  0  0
  142.5336   69.7077  228.3302 H   0  0  0  0  0  0  0  0  0  0  0  0
  141.0209   70.2734  229.0527 H   0  0  0  0  0  0  0  0  0  0  0  0
  141.9194   67.5663  228.8849 H   0  0  0  0  0  0  0  0  0  0  0  0
  140.2956   68.0623  229.3544 H   0  0  0  0  0  0  0  0  0  0  0  0
  140.8972   66.6267  227.0108 H   0  0  0  0  0  0  0  0  0  0  0  0
  139.4349   67.5771  227.1705 H   0  0  0  0  0  0  0  0  0  0  0  0
  142.1662   68.4243  226.0208 H   0  0  0  0  0  0  0  0  0  0  0  0
  140.6229   68.6212  225.2434 H   0  0  0  0  0  0  0  0  0  0  0  0
  141.1960   72.7678  224.6128 H   0  0  0  0  0  0  0  0  0  0  0  0
  139.2006   76.8680  222.6203 H   0  0  0  0  0  0  0  0  0  0  0  0
  140.0032   78.8480  221.3450 H   0  0  0  0  0  0  0  0  0  0  0  0
  142.8100   77.9023  217.5977 H   0  0  0  0  0  0  0  0  0  0  0  0
  143.4089   80.4385  216.9511 H   0  0  0  0  0  0  0  0  0  0  0  0
  141.3340   80.6475  220.6263 H   0  0  0  0  0  0  0  0  0  0  0  0
  142.6572   76.3823  219.0543 H   0  0  0  0  0  0  0  0  0  0  0  0
  1  2  2  0
  2  3  1  0
  3  4  1  0
  4  5  1  0
  5  6  2  0
  6  7  1  0
  7  8  2  0
  8  9  1  0
  9 10  1  0
 10 11  2  0
 10 12  1  0
 12 13  1  0
 13 14  1  0
 14 15  1  0
 15 16  1  0
  9 17  2  0
  4 18  2  0
 18 19  1  0
 19 20  2  0
 20 21  1  0
 21 22  2  0
 22 23  1  0
 23 24  1  0
 24 25  2  0
 25 26  1  0
 26 27  1  0
 22 28  1  0
 28 29  2  0
 29  2  1  0
 17  5  1  0
 29 19  1  0
 16 12  1  0
 27 23  2  0
  3 30  1  0
  3 31  1  0
  6 32  1  0
  7 33  1  0
  8 34  1  0
 13 35  1  0
 13 36  1  0
 14 37  1  0
 14 38  1  0
 15 39  1  0
 15 40  1  0
 16 41  1  0
 16 42  1  0
 17 43  1  0
 20 44  1  0
 21 45  1  0
 24 46  1  0
 25 47  1  0
 27 48  1  0
 28 49  1  0
M  END
>  <smiles>  (16) 
O=C1CC(c2cccc(C(=O)N3CCCC3)c2)=Nc2ccc(-c3ccoc3)cc21

>  <score_type>  (16) 
oracle

>  <origin>  (16) 
autodockgpu

>  <m_score__min__energy>  (16) 
-8.2799999999999994

>  <m_primary>  (16) 
energy

>  <rmsd>  (16) 
7.486294570164408

>  <m_score__min__rmsd>  (16) 
7.486294570164408

>  <meeko>  (16) 
{"free_energy": -8.24, "intermolecular_energy": -9.13, "internal_energy": -0.74, "cluster_size": 40, "cluster_id": 1, "rank_in_cluster": 6}

>  <energy>  (16) 
-7.84

>  <cluster_rmsd>  (16) 
1.71

>  <cluster>  (16) 
1

$$$$

     RDKit          3D

 49 53  0  0  0  0  0  0  0  0999 V2000
  142.9950   75.2700  220.1230 O   0  0  0  0  0  0  0  0  0  0  0  0
  141.9640   74.9220  220.7910 C   0  0  0  0  0  0  0  0  0  0  0  0
  141.7270   73.4680  220.9040 C   0  0  0  0  0  0  0  0  0  0  0  0
  140.5110   73.2400  221.7130 C   0  0  0  0  0  0  0  0  0  0  0  0
  140.1290   71.8510  221.9870 C   0  0  0  0  0  0  0  0  0  0  0  0
  140.2070   70.8500  221.0470 C   0  0  0  0  0  0  0  0  0  0  0  0
  139.7840   69.5470  221.2950 C   0  0  0  0  0  0  0  0  0  0  0  0
  139.2500   69.2050  222.5420 C   0  0  0  0  0  0  0  0  0  0  0  0
  139.1760   70.2130  223.4760 C   0  0  0  0  0  0  0  0  0  0  0  0
  138.5720   69.9870  224.8100 C   0  0  0  0  0  0  0  0  0  0  0  0
  137.3350   70.0020  225.0020 O   0  0  0  0  0  0  0  0  0  0  0  0
  139.5240   69.7490  225.8510 N   0  0  0  0  0  0  0  0  0  0  0  0
  139.3120   69.4730  227.2580 C   0  0  0  0  0  0  0  0  0  0  0  0
  140.4160   68.5110  227.6590 C   0  0  0  0  0  0  0  0  0  0  0  0
  141.3540   68.4810  226.4570 C   0  0  0  0  0  0  0  0  0  0  0  0
  140.9930   69.7420  225.7100 C   0  0  0  0  0  0  0  0  0  0  0  0
  139.5950   71.5020  223.2360 C   0  0  0  0  0  0  0  0  0  0  0  0
  139.7730   74.1450  222.2270 N   0  0  0  0  0  0  0  0  0  0  0  0
  140.0120   75.5320  222.1020 C   0  0  0  0  0  0  0  0  0  0  0  0
  139.2050   76.4820  222.6920 C   0  0  0  0  0  0  0  0  0  0  0  0
  139.5340   77.8280  222.5380 C   0  0  0  0  0  0  0  0  0  0  0  0
  140.6360   78.2320  221.8180 C   0  0  0  0  0  0  0  0  0  0  0  0
  141.0150   79.6400  221.6690 C   0  0  0  0  0  0  0  0  0  0  0  0
  140.7150   80.4260  220.5600 C   0  0  0  0  0  0  0  0  0  0  0  0
  141.2760   81.6590  220.8500 C   0  0  0  0  0  0  0  0  0  0  0  0
  141.8630   81.6430  222.0170 O   0  0  0  0  0  0  0  0  0  0  0  0
  141.7310   80.4320  222.5570 C   0  0  0  0  0  0  0  0  0  0  0  0
  141.4420   77.2810  221.2290 C   0  0  0  0  0  0  0  0  0  0  0  0
  141.1190   75.9420  221.3800 C   0  0  0  0  0  0  0  0  0  0  0  0
  141.5887   73.0378  219.9011 H   0  0  0  0  0  0  0  0  0  0  0  0
  142.5904   72.9872  221.3872 H   0  0  0  0  0  0  0  0  0  0  0  0
  140.6215   71.0893  220.0566 H   0  0  0  0  0  0  0  0  0  0  0  0
  139.8700   68.7837  220.5076 H   0  0  0  0  0  0  0  0  0  0  0  0
  138.9072   68.1837  222.7644 H   0  0  0  0  0  0  0  0  0  0  0  0
  139.3796   70.4007  227.8452 H   0  0  0  0  0  0  0  0  0  0  0  0
  138.3150   69.0463  227.4422 H   0  0  0  0  0  0  0  0  0  0  0  0
  140.9425   68.8749  228.5536 H   0  0  0  0  0  0  0  0  0  0  0  0
  140.0288   67.5129  227.9115 H   0  0  0  0  0  0  0  0  0  0  0  0
  142.4064   68.4989  226.7767 H   0  0  0  0  0  0  0  0  0  0  0  0
  141.2471   67.5716  225.8475 H   0  0  0  0  0  0  0  0  0  0  0  0
  141.4467   70.6297  226.1749 H   0  0  0  0  0  0  0  0  0  0  0  0
  141.3464   69.7663  224.6686 H   0  0  0  0  0  0  0  0  0  0  0  0
  139.5107   72.2616  224.0272 H   0  0  0  0  0  0  0  0  0  0  0  0
  138.3195   76.1837  223.2725 H   0  0  0  0  0  0  0  0  0  0  0  0
  138.8938   78.5904  223.0059 H   0  0  0  0  0  0  0  0  0  0  0  0
  140.1583   80.1340  219.6573 H   0  0  0  0  0  0  0  0  0  0  0  0
  141.2329   82.5349  220.1860 H   0  0  0  0  0  0  0  0  0  0  0  0
  142.1211   80.1150  223.5354 H   0  0  0  0  0  0  0  0  0  0  0  0
  142.3272   77.5804  220.6486 H   0  0  0  0  0  0  0  0  0  0  0  0
  1  2  2  0
  2  3  1  0
  3  4  1  0
  4  5  1  0
  5  6  2  0
  6  7  1  0
  7  8  2  0
  8  9  1  0
  9 10  1  0
 10 11  2  0
 10 12  1  0
 12 13  1  0
 13 14  1  0
 14 15  1  0
 15 16  1  0
  9 17  2  0
  4 18  2  0
 18 19  1  0
 19 20  2  0
 20 21  1  0
 21 22  2  0
 22 23  1  0
 23 24  1  0
 24 25  2  0
 25 26  1  0
 26 27  1  0
 22 28  1  0
 28 29  2  0
 29  2  1  0
 17  5  1  0
 29 19  1  0
 16 12  1  0
 27 23  2  0
  3 30  1  0
  3 31  1  0
  6 32  1  0
  7 33  1  0
  8 34  1  0
 13 35  1  0
 13 36  1  0
 14 37  1  0
 14 38  1  0
 15 39  1  0
 15 40  1  0
 16 41  1  0
 16 42  1  0
 17 43  1  0
 20 44  1  0
 21 45  1  0
 24 46  1  0
 25 47  1  0
 27 48  1  0
 28 49  1  0
M  END
>  <smiles>  (17) 
O=C1CC(c2cccc(C(=O)N3CCCC3)c2)=Nc2ccc(-c3ccoc3)cc21

>  <score_type>  (17) 
oracle

>  <origin>  (17) 
autodockgpu

>  <m_score__min__energy>  (17) 
-8.2799999999999994

>  <m_primary>  (17) 
energy

>  <rmsd>  (17) 
6.881348194048299

>  <m_score__min__rmsd>  (17) 
6.881348194048299

>  <meeko>  (17) 
{"free_energy": -7.79, "intermolecular_energy": -8.68, "internal_energy": -0.94, "cluster_size": 40, "cluster_id": 1, "rank_in_cluster": 37}

>  <energy>  (17) 
-7.84

>  <cluster_rmsd>  (17) 
1.72

>  <cluster>  (17) 
1

$$$$

     RDKit          3D

 49 53  0  0  0  0  0  0  0  0999 V2000
  143.0180   75.2640  220.1640 O   0  0  0  0  0  0  0  0  0  0  0  0
  141.9740   74.9190  220.8150 C   0  0  0  0  0  0  0  0  0  0  0  0
  141.7320   73.4660  220.9250 C   0  0  0  0  0  0  0  0  0  0  0  0
  140.5010   73.2420  221.7140 C   0  0  0  0  0  0  0  0  0  0  0  0
  140.1110   71.8540  221.9830 C   0  0  0  0  0  0  0  0  0  0  0  0
  140.1880   70.8560  221.0390 C   0  0  0  0  0  0  0  0  0  0  0  0
  139.7570   69.5540  221.2830 C   0  0  0  0  0  0  0  0  0  0  0  0
  139.2160   69.2110  222.5270 C   0  0  0  0  0  0  0  0  0  0  0  0
  139.1440   70.2170  223.4630 C   0  0  0  0  0  0  0  0  0  0  0  0
  138.5340   69.9900  224.7940 C   0  0  0  0  0  0  0  0  0  0  0  0
  137.2960   70.0050  224.9800 O   0  0  0  0  0  0  0  0  0  0  0  0
  139.4810   69.7520  225.8400 N   0  0  0  0  0  0  0  0  0  0  0  0
  139.2630   69.4760  227.2450 C   0  0  0  0  0  0  0  0  0  0  0  0
  140.3650   68.5140  227.6510 C   0  0  0  0  0  0  0  0  0  0  0  0
  141.3090   68.4840  226.4540 C   0  0  0  0  0  0  0  0  0  0  0  0
  140.9500   69.7460  225.7050 C   0  0  0  0  0  0  0  0  0  0  0  0
  139.5710   71.5040  223.2280 C   0  0  0  0  0  0  0  0  0  0  0  0
  139.7580   74.1490  222.2150 N   0  0  0  0  0  0  0  0  0  0  0  0
  140.0030   75.5360  222.0940 C   0  0  0  0  0  0  0  0  0  0  0  0
  139.1890   76.4880  222.6690 C   0  0  0  0  0  0  0  0  0  0  0  0
  139.5240   77.8330  222.5200 C   0  0  0  0  0  0  0  0  0  0  0  0
  140.6390   78.2330  221.8180 C   0  0  0  0  0  0  0  0  0  0  0  0
  141.0240   79.6410  221.6740 C   0  0  0  0  0  0  0  0  0  0  0  0
  141.6470   80.3940  222.6640 C   0  0  0  0  0  0  0  0  0  0  0  0
  141.8020   81.6480  222.0960 C   0  0  0  0  0  0  0  0  0  0  0  0
  141.3260   81.6730  220.8800 O   0  0  0  0  0  0  0  0  0  0  0  0
  140.8400   80.4700  220.5760 C   0  0  0  0  0  0  0  0  0  0  0  0
  141.4520   77.2800  221.2430 C   0  0  0  0  0  0  0  0  0  0  0  0
  141.1230   75.9420  221.3890 C   0  0  0  0  0  0  0  0  0  0  0  0
  141.6097   73.0352  219.9203 H   0  0  0  0  0  0  0  0  0  0  0  0
  142.5859   72.9833  221.4228 H   0  0  0  0  0  0  0  0  0  0  0  0
  140.6072   71.0962  220.0508 H   0  0  0  0  0  0  0  0  0  0  0  0
  139.8424   68.7921  220.4942 H   0  0  0  0  0  0  0  0  0  0  0  0
  138.8667   68.1910  222.7452 H   0  0  0  0  0  0  0  0  0  0  0  0
  139.3281   70.4036  227.8326 H   0  0  0  0  0  0  0  0  0  0  0  0
  138.2652   69.0492  227.4246 H   0  0  0  0  0  0  0  0  0  0  0  0
  140.8870   68.8778  228.5483 H   0  0  0  0  0  0  0  0  0  0  0  0
  139.9764   67.5158  227.9012 H   0  0  0  0  0  0  0  0  0  0  0  0
  142.3598   68.5026  226.7788 H   0  0  0  0  0  0  0  0  0  0  0  0
  141.2062   67.5743  225.8441 H   0  0  0  0  0  0  0  0  0  0  0  0
  141.4012   70.6339  226.1719 H   0  0  0  0  0  0  0  0  0  0  0  0
  141.3077   69.7707  224.6651 H   0  0  0  0  0  0  0  0  0  0  0  0
  139.4881   72.2616  224.0212 H   0  0  0  0  0  0  0  0  0  0  0  0
  138.2928   76.1924  223.2343 H   0  0  0  0  0  0  0  0  0  0  0  0
  138.8784   78.5975  222.9768 H   0  0  0  0  0  0  0  0  0  0  0  0
  141.9484   80.0675  223.6703 H   0  0  0  0  0  0  0  0  0  0  0  0
  142.2645   82.5083  222.6019 H   0  0  0  0  0  0  0  0  0  0  0  0
  140.3742   80.1839  219.6214 H   0  0  0  0  0  0  0  0  0  0  0  0
  142.3475   77.5769  220.6774 H   0  0  0  0  0  0  0  0  0  0  0  0
  1  2  2  0
  2  3  1  0
  3  4  1  0
  4  5  1  0
  5  6  2  0
  6  7  1  0
  7  8  2  0
  8  9  1  0
  9 10  1  0
 10 11  2  0
 10 12  1  0
 12 13  1  0
 13 14  1  0
 14 15  1  0
 15 16  1  0
  9 17  2  0
  4 18  2  0
 18 19  1  0
 19 20  2  0
 20 21  1  0
 21 22  2  0
 22 23  1  0
 23 24  1  0
 24 25  2  0
 25 26  1  0
 26 27  1  0
 22 28  1  0
 28 29  2  0
 29  2  1  0
 17  5  1  0
 29 19  1  0
 16 12  1  0
 27 23  2  0
  3 30  1  0
  3 31  1  0
  6 32  1  0
  7 33  1  0
  8 34  1  0
 13 35  1  0
 13 36  1  0
 14 37  1  0
 14 38  1  0
 15 39  1  0
 15 40  1  0
 16 41  1  0
 16 42  1  0
 17 43  1  0
 20 44  1  0
 21 45  1  0
 24 46  1  0
 25 47  1  0
 27 48  1  0
 28 49  1  0
M  END
>  <smiles>  (18) 
O=C1CC(c2cccc(C(=O)N3CCCC3)c2)=Nc2ccc(-c3ccoc3)cc21

>  <score_type>  (18) 
oracle

>  <origin>  (18) 
autodockgpu

>  <m_score__min__energy>  (18) 
-8.2799999999999994

>  <m_primary>  (18) 
energy

>  <rmsd>  (18) 
6.870370143094928

>  <m_score__min__rmsd>  (18) 
6.870370143094928

>  <meeko>  (18) 
{"free_energy": -7.84, "intermolecular_energy": -8.73, "internal_energy": -0.94, "cluster_size": 40, "cluster_id": 1, "rank_in_cluster": 14}

>  <energy>  (18) 
-7.84

>  <cluster_rmsd>  (18) 
1.7

>  <cluster>  (18) 
1

$$$$

     RDKit          3D

 49 53  0  0  0  0  0  0  0  0999 V2000
  142.9950   75.3080  220.1020 O   0  0  0  0  0  0  0  0  0  0  0  0
  141.9690   74.9590  220.7790 C   0  0  0  0  0  0  0  0  0  0  0  0
  141.7310   73.5050  220.8870 C   0  0  0  0  0  0  0  0  0  0  0  0
  140.5220   73.2760  221.7070 C   0  0  0  0  0  0  0  0  0  0  0  0
  140.1400   71.8860  221.9780 C   0  0  0  0  0  0  0  0  0  0  0  0
  140.2290   70.8860  221.0390 C   0  0  0  0  0  0  0  0  0  0  0  0
  139.8050   69.5820  221.2840 C   0  0  0  0  0  0  0  0  0  0  0  0
  139.2600   69.2390  222.5260 C   0  0  0  0  0  0  0  0  0  0  0  0
  139.1750   70.2480  223.4590 C   0  0  0  0  0  0  0  0  0  0  0  0
  138.5590   70.0210  224.7870 C   0  0  0  0  0  0  0  0  0  0  0  0
  137.3200   70.0180  224.9630 O   0  0  0  0  0  0  0  0  0  0  0  0
  139.5020   69.8050  225.8410 N   0  0  0  0  0  0  0  0  0  0  0  0
  139.2780   69.5360  227.2470 C   0  0  0  0  0  0  0  0  0  0  0  0
  140.3920   68.5940  227.6670 C   0  0  0  0  0  0  0  0  0  0  0  0
  141.3450   68.5710  226.4770 C   0  0  0  0  0  0  0  0  0  0  0  0
  140.9720   69.8210  225.7170 C   0  0  0  0  0  0  0  0  0  0  0  0
  139.5950   71.5370  223.2220 C   0  0  0  0  0  0  0  0  0  0  0  0
  139.7910   74.1800  222.2320 N   0  0  0  0  0  0  0  0  0  0  0  0
  140.0320   75.5670  222.1130 C   0  0  0  0  0  0  0  0  0  0  0  0
  139.2330   76.5160  222.7140 C   0  0  0  0  0  0  0  0  0  0  0  0
  139.5640   77.8620  222.5640 C   0  0  0  0  0  0  0  0  0  0  0  0
  140.6590   78.2670  221.8350 C   0  0  0  0  0  0  0  0  0  0  0  0
  141.0400   79.6750  221.6890 C   0  0  0  0  0  0  0  0  0  0  0  0
  140.8940   80.4150  220.5200 C   0  0  0  0  0  0  0  0  0  0  0  0
  141.3930   81.6680  220.8420 C   0  0  0  0  0  0  0  0  0  0  0  0
  141.8060   81.7030  222.0800 O   0  0  0  0  0  0  0  0  0  0  0  0
  141.6110   80.5100  222.6400 C   0  0  0  0  0  0  0  0  0  0  0  0
  141.4580   77.3170  221.2340 C   0  0  0  0  0  0  0  0  0  0  0  0
  141.1330   75.9780  221.3810 C   0  0  0  0  0  0  0  0  0  0  0  0
  141.5822   73.0799  219.8834 H   0  0  0  0  0  0  0  0  0  0  0  0
  142.5982   73.0199  221.3589 H   0  0  0  0  0  0  0  0  0  0  0  0
  140.6529   71.1256  220.0527 H   0  0  0  0  0  0  0  0  0  0  0  0
  139.8991   68.8187  220.4976 H   0  0  0  0  0  0  0  0  0  0  0  0
  138.9174   68.2170  222.7456 H   0  0  0  0  0  0  0  0  0  0  0  0
  139.3248   70.4687  227.8282 H   0  0  0  0  0  0  0  0  0  0  0  0
  138.2855   69.0956  227.4232 H   0  0  0  0  0  0  0  0  0  0  0  0
  140.9018   68.9716  228.5656 H   0  0  0  0  0  0  0  0  0  0  0  0
  140.0172   67.5915  227.9208 H   0  0  0  0  0  0  0  0  0  0  0  0
  142.3929   68.6086  226.8093 H   0  0  0  0  0  0  0  0  0  0  0  0
  141.2609   67.6557  225.8727 H   0  0  0  0  0  0  0  0  0  0  0  0
  141.4058   70.7191  226.1809 H   0  0  0  0  0  0  0  0  0  0  0  0
  141.3370   69.8439  224.6796 H   0  0  0  0  0  0  0  0  0  0  0  0
  139.5028   72.2969  224.0120 H   0  0  0  0  0  0  0  0  0  0  0  0
  138.3516   76.2172  223.3004 H   0  0  0  0  0  0  0  0  0  0  0  0
  138.9308   78.6234  223.0428 H   0  0  0  0  0  0  0  0  0  0  0  0
  140.4771   80.0816  219.5582 H   0  0  0  0  0  0  0  0  0  0  0  0
  141.4353   82.5194  220.1467 H   0  0  0  0  0  0  0  0  0  0  0  0
  141.8592   80.2345  223.6756 H   0  0  0  0  0  0  0  0  0  0  0  0
  142.3388   77.6173  220.6475 H   0  0  0  0  0  0  0  0  0  0  0  0
  1  2  2  0
  2  3  1  0
  3  4  1  0
  4  5  1  0
  5  6  2  0
  6  7  1  0
  7  8  2  0
  8  9  1  0
  9 10  1  0
 10 11  2  0
 10 12  1  0
 12 13  1  0
 13 14  1  0
 14 15  1  0
 15 16  1  0
  9 17  2  0
  4 18  2  0
 18 19  1  0
 19 20  2  0
 20 21  1  0
 21 22  2  0
 22 23  1  0
 23 24  1  0
 24 25  2  0
 25 26  1  0
 26 27  1  0
 22 28  1  0
 28 29  2  0
 29  2  1  0
 17  5  1  0
 29 19  1  0
 16 12  1  0
 27 23  2  0
  3 30  1  0
  3 31  1  0
  6 32  1  0
  7 33  1  0
  8 34  1  0
 13 35  1  0
 13 36  1  0
 14 37  1  0
 14 38  1  0
 15 39  1  0
 15 40  1  0
 16 41  1  0
 16 42  1  0
 17 43  1  0
 20 44  1  0
 21 45  1  0
 24 46  1  0
 25 47  1  0
 27 48  1  0
 28 49  1  0
M  END
>  <smiles>  (19) 
O=C1CC(c2cccc(C(=O)N3CCCC3)c2)=Nc2ccc(-c3ccoc3)cc21

>  <score_type>  (19) 
oracle

>  <origin>  (19) 
autodockgpu

>  <m_score__min__energy>  (19) 
-8.2799999999999994

>  <m_primary>  (19) 
energy

>  <rmsd>  (19) 
6.882849712120636

>  <m_score__min__rmsd>  (19) 
6.882849712120636

>  <meeko>  (19) 
{"free_energy": -7.8, "intermolecular_energy": -8.69, "internal_energy": -0.94, "cluster_size": 40, "cluster_id": 1, "rank_in_cluster": 33}

>  <energy>  (19) 
-7.84

>  <cluster_rmsd>  (19) 
1.71

>  <cluster>  (19) 
1

$$$$

     RDKit          3D

 49 53  0  0  0  0  0  0  0  0999 V2000
  141.5470   81.2400  224.0580 O   0  0  0  0  0  0  0  0  0  0  0  0
  140.9580   80.3910  223.3080 C   0  0  0  0  0  0  0  0  0  0  0  0
  141.8170   79.6740  222.3440 C   0  0  0  0  0  0  0  0  0  0  0  0
  140.9850   78.7280  221.5690 C   0  0  0  0  0  0  0  0  0  0  0  0
  141.6630   77.8770  220.5860 C   0  0  0  0  0  0  0  0  0  0  0  0
  142.2030   78.3620  219.4180 C   0  0  0  0  0  0  0  0  0  0  0  0
  142.7890   77.5380  218.4600 C   0  0  0  0  0  0  0  0  0  0  0  0
  142.8490   76.1550  218.6600 C   0  0  0  0  0  0  0  0  0  0  0  0
  142.3060   75.6800  219.8320 C   0  0  0  0  0  0  0  0  0  0  0  0
  142.2530   74.2290  220.1270 C   0  0  0  0  0  0  0  0  0  0  0  0
  141.1840   73.5790  220.1260 O   0  0  0  0  0  0  0  0  0  0  0  0
  143.5280   73.6420  220.4060 N   0  0  0  0  0  0  0  0  0  0  0  0
  143.8700   72.2680  220.7150 C   0  0  0  0  0  0  0  0  0  0  0  0
  145.2310   72.0330  220.0860 C   0  0  0  0  0  0  0  0  0  0  0  0
  145.6920   73.4150  219.6370 C   0  0  0  0  0  0  0  0  0  0  0  0
  144.8250   74.3450  220.4520 C   0  0  0  0  0  0  0  0  0  0  0  0
  141.7270   76.4900  220.7830 C   0  0  0  0  0  0  0  0  0  0  0  0
  139.7280   78.5580  221.6990 N   0  0  0  0  0  0  0  0  0  0  0  0
  138.9210   79.2580  222.6230 C   0  0  0  0  0  0  0  0  0  0  0  0
  137.5670   79.0310  222.7510 C   0  0  0  0  0  0  0  0  0  0  0  0
  136.8560   79.7500  223.7100 C   0  0  0  0  0  0  0  0  0  0  0  0
  137.4640   80.6760  224.5280 C   0  0  0  0  0  0  0  0  0  0  0  0
  136.7400   81.4210  225.5620 C   0  0  0  0  0  0  0  0  0  0  0  0
  137.3200   82.3560  226.4140 C   0  0  0  0  0  0  0  0  0  0  0  0
  136.2750   82.7830  227.2180 C   0  0  0  0  0  0  0  0  0  0  0  0
  135.1620   82.1780  226.9000 O   0  0  0  0  0  0  0  0  0  0  0  0
  135.3940   81.3360  225.8930 C   0  0  0  0  0  0  0  0  0  0  0  0
  138.8180   80.9020  224.3990 C   0  0  0  0  0  0  0  0  0  0  0  0
  139.5290   80.1890  223.4470 C   0  0  0  0  0  0  0  0  0  0  0  0
  142.2876   80.3964  221.6609 H   0  0  0  0  0  0  0  0  0  0  0  0
  142.6018   79.1233  222.8833 H   0  0  0  0  0  0  0  0  0  0  0  0
  142.1708   79.4458  219.2325 H   0  0  0  0  0  0  0  0  0  0  0  0
  143.2065   77.9770  217.5419 H   0  0  0  0  0  0  0  0  0  0  0  0
  143.3062   75.4823  217.9194 H   0  0  0  0  0  0  0  0  0  0  0  0
  143.9200   72.1206  221.8039 H   0  0  0  0  0  0  0  0  0  0  0  0
  143.1171   71.5652  220.3288 H   0  0  0  0  0  0  0  0  0  0  0  0
  145.9310   71.6104  220.8219 H   0  0  0  0  0  0  0  0  0  0  0  0
  145.1867   71.3171  219.2520 H   0  0  0  0  0  0  0  0  0  0  0  0
  146.7575   73.5688  219.8628 H   0  0  0  0  0  0  0  0  0  0  0  0
  145.5958   73.5724  218.5526 H   0  0  0  0  0  0  0  0  0  0  0  0
  145.1952   74.4408  221.4834 H   0  0  0  0  0  0  0  0  0  0  0  0
  144.7922   75.3779  220.0750 H   0  0  0  0  0  0  0  0  0  0  0  0
  141.3130   76.0474  221.7010 H   0  0  0  0  0  0  0  0  0  0  0  0
  137.0581   78.2970  222.1089 H   0  0  0  0  0  0  0  0  0  0  0  0
  135.7757   79.5723  223.8168 H   0  0  0  0  0  0  0  0  0  0  0  0
  138.3701   82.6823  226.4428 H   0  0  0  0  0  0  0  0  0  0  0  0
  136.3703   83.5321  228.0179 H   0  0  0  0  0  0  0  0  0  0  0  0
  134.6493   80.6872  225.4088 H   0  0  0  0  0  0  0  0  0  0  0  0
  139.3257   81.6365  225.0415 H   0  0  0  0  0  0  0  0  0  0  0  0
  1  2  2  0
  2  3  1  0
  3  4  1  0
  4  5  1  0
  5  6  2  0
  6  7  1  0
  7  8  2  0
  8  9  1  0
  9 10  1  0
 10 11  2  0
 10 12  1  0
 12 13  1  0
 13 14  1  0
 14 15  1  0
 15 16  1  0
  9 17  2  0
  4 18  2  0
 18 19  1  0
 19 20  2  0
 20 21  1  0
 21 22  2  0
 22 23  1  0
 23 24  1  0
 24 25  2  0
 25 26  1  0
 26 27  1  0
 22 28  1  0
 28 29  2  0
 29  2  1  0
 17  5  1  0
 29 19  1  0
 16 12  1  0
 27 23  2  0
  3 30  1  0
  3 31  1  0
  6 32  1  0
  7 33  1  0
  8 34  1  0
 13 35  1  0
 13 36  1  0
 14 37  1  0
 14 38  1  0
 15 39  1  0
 15 40  1  0
 16 41  1  0
 16 42  1  0
 17 43  1  0
 20 44  1  0
 21 45  1  0
 24 46  1  0
 25 47  1  0
 27 48  1  0
 28 49  1  0
M  END
>  <smiles>  (20) 
O=C1CC(c2cccc(C(=O)N3CCCC3)c2)=Nc2ccc(-c3ccoc3)cc21

>  <score_type>  (20) 
oracle

>  <origin>  (20) 
autodockgpu

>  <m_score__min__energy>  (20) 
-8.2799999999999994

>  <m_primary>  (20) 
energy

>  <rmsd>  (20) 
8.919154831337854

>  <m_score__min__rmsd>  (20) 
8.919154831337854

>  <meeko>  (20) 
{"free_energy": -7.27, "intermolecular_energy": -8.17, "internal_energy": -0.89, "cluster_size": 1, "cluster_id": 3, "rank_in_cluster": 1}

>  <energy>  (20) 
-7.83

>  <cluster_rmsd>  (20) 
1.69

>  <cluster>  (20) 
1

$$$$

     RDKit          3D

 49 53  0  0  0  0  0  0  0  0999 V2000
  145.9620   73.3900  219.4890 O   0  0  0  0  0  0  0  0  0  0  0  0
  144.7530   73.1620  219.8340 C   0  0  0  0  0  0  0  0  0  0  0  0
  143.9710   74.3390  220.2640 C   0  0  0  0  0  0  0  0  0  0  0  0
  142.6010   73.9040  220.6130 C   0  0  0  0  0  0  0  0  0  0  0  0
  141.6440   74.9380  221.0190 C   0  0  0  0  0  0  0  0  0  0  0  0
  140.4450   74.6540  221.6300 C   0  0  0  0  0  0  0  0  0  0  0  0
  139.5130   75.6360  221.9550 C   0  0  0  0  0  0  0  0  0  0  0  0
  139.7730   76.9790  221.6630 C   0  0  0  0  0  0  0  0  0  0  0  0
  140.9760   77.2530  221.0520 C   0  0  0  0  0  0  0  0  0  0  0  0
  141.3350   78.6290  220.6380 C   0  0  0  0  0  0  0  0  0  0  0  0
  141.2450   79.0220  219.4530 O   0  0  0  0  0  0  0  0  0  0  0  0
  141.7890   79.4630  221.7080 N   0  0  0  0  0  0  0  0  0  0  0  0
  142.2040   80.8510  221.6920 C   0  0  0  0  0  0  0  0  0  0  0  0
  141.7480   81.4320  223.0190 C   0  0  0  0  0  0  0  0  0  0  0  0
  141.2860   80.2250  223.8280 C   0  0  0  0  0  0  0  0  0  0  0  0
  141.9470   79.0670  223.1210 C   0  0  0  0  0  0  0  0  0  0  0  0
  141.9000   76.2860  220.7310 C   0  0  0  0  0  0  0  0  0  0  0  0
  142.1600   72.7080  220.5630 N   0  0  0  0  0  0  0  0  0  0  0  0
  142.9260   71.5930  220.1540 C   0  0  0  0  0  0  0  0  0  0  0  0
  142.4080   70.3170  220.0910 C   0  0  0  0  0  0  0  0  0  0  0  0
  143.2310   69.2830  219.6490 C   0  0  0  0  0  0  0  0  0  0  0  0
  144.5390   69.4990  219.2780 C   0  0  0  0  0  0  0  0  0  0  0  0
  145.4130   68.4290  218.7840 C   0  0  0  0  0  0  0  0  0  0  0  0
  145.8590   67.3570  219.5500 C   0  0  0  0  0  0  0  0  0  0  0  0
  146.6560   66.6250  218.6850 C   0  0  0  0  0  0  0  0  0  0  0  0
  146.7000   67.1820  217.5050 O   0  0  0  0  0  0  0  0  0  0  0  0
  145.9570   68.2880  217.5150 C   0  0  0  0  0  0  0  0  0  0  0  0
  145.0560   70.7750  219.3420 C   0  0  0  0  0  0  0  0  0  0  0  0
  144.2410   71.8070  219.7800 C   0  0  0  0  0  0  0  0  0  0  0  0
  144.4477   74.7977  221.1428 H   0  0  0  0  0  0  0  0  0  0  0  0
  143.9310   75.0771  219.4494 H   0  0  0  0  0  0  0  0  0  0  0  0
  140.2125   73.6065  221.8722 H   0  0  0  0  0  0  0  0  0  0  0  0
  138.5684   75.3545  222.4434 H   0  0  0  0  0  0  0  0  0  0  0  0
  139.0541   77.7745  221.9086 H   0  0  0  0  0  0  0  0  0  0  0  0
  143.2975   80.9232  221.5973 H   0  0  0  0  0  0  0  0  0  0  0  0
  141.7695   81.3947  220.8402 H   0  0  0  0  0  0  0  0  0  0  0  0
  142.5797   81.9437  223.5253 H   0  0  0  0  0  0  0  0  0  0  0  0
  140.9520   82.1811  222.8953 H   0  0  0  0  0  0  0  0  0  0  0  0
  141.6250   80.2960  224.8720 H   0  0  0  0  0  0  0  0  0  0  0  0
  140.1911   80.1323  223.8801 H   0  0  0  0  0  0  0  0  0  0  0  0
  143.0078   78.9784  223.3982 H   0  0  0  0  0  0  0  0  0  0  0  0
  141.5158   78.0848  223.3646 H   0  0  0  0  0  0  0  0  0  0  0  0
  142.8449   76.5718  220.2457 H   0  0  0  0  0  0  0  0  0  0  0  0
  141.3663   70.1191  220.3837 H   0  0  0  0  0  0  0  0  0  0  0  0
  142.8230   68.2629  219.5949 H   0  0  0  0  0  0  0  0  0  0  0  0
  145.6306   67.1397  220.6039 H   0  0  0  0  0  0  0  0  0  0  0  0
  147.1819   65.6977  218.9563 H   0  0  0  0  0  0  0  0  0  0  0  0
  145.8019   68.9700  216.6660 H   0  0  0  0  0  0  0  0  0  0  0  0
  146.0983   70.9712  219.0503 H   0  0  0  0  0  0  0  0  0  0  0  0
  1  2  2  0
  2  3  1  0
  3  4  1  0
  4  5  1  0
  5  6  2  0
  6  7  1  0
  7  8  2  0
  8  9  1  0
  9 10  1  0
 10 11  2  0
 10 12  1  0
 12 13  1  0
 13 14  1  0
 14 15  1  0
 15 16  1  0
  9 17  2  0
  4 18  2  0
 18 19  1  0
 19 20  2  0
 20 21  1  0
 21 22  2  0
 22 23  1  0
 23 24  1  0
 24 25  2  0
 25 26  1  0
 26 27  1  0
 22 28  1  0
 28 29  2  0
 29  2  1  0
 17  5  1  0
 29 19  1  0
 16 12  1  0
 27 23  2  0
  3 30  1  0
  3 31  1  0
  6 32  1  0
  7 33  1  0
  8 34  1  0
 13 35  1  0
 13 36  1  0
 14 37  1  0
 14 38  1  0
 15 39  1  0
 15 40  1  0
 16 41  1  0
 16 42  1  0
 17 43  1  0
 20 44  1  0
 21 45  1  0
 24 46  1  0
 25 47  1  0
 27 48  1  0
 28 49  1  0
M  END
>  <smiles>  (21) 
O=C1CC(c2cccc(C(=O)N3CCCC3)c2)=Nc2ccc(-c3ccoc3)cc21

>  <score_type>  (21) 
oracle

>  <origin>  (21) 
autodockgpu

>  <m_score__min__energy>  (21) 
-8.2799999999999994

>  <m_primary>  (21) 
energy

>  <rmsd>  (21) 
8.47898655567198

>  <m_score__min__rmsd>  (21) 
8.47898655567198

>  <meeko>  (21) 
{"free_energy": -7.65, "intermolecular_energy": -8.54, "internal_energy": -0.92, "cluster_size": 8, "cluster_id": 2, "rank_in_cluster": 7}

>  <energy>  (21) 
-7.83

>  <cluster_rmsd>  (21) 
1.72

>  <cluster>  (21) 
1

$$$$

     RDKit          3D

 49 53  0  0  0  0  0  0  0  0999 V2000
  143.0080   75.2340  220.1360 O   0  0  0  0  0  0  0  0  0  0  0  0
  141.9680   74.8940  220.7950 C   0  0  0  0  0  0  0  0  0  0  0  0
  141.7230   73.4430  220.9130 C   0  0  0  0  0  0  0  0  0  0  0  0
  140.4970   73.2250  221.7100 C   0  0  0  0  0  0  0  0  0  0  0  0
  140.1050   71.8390  221.9870 C   0  0  0  0  0  0  0  0  0  0  0  0
  140.1650   70.8380  221.0450 C   0  0  0  0  0  0  0  0  0  0  0  0
  139.7330   69.5390  221.2970 C   0  0  0  0  0  0  0  0  0  0  0  0
  139.2080   69.2000  222.5500 C   0  0  0  0  0  0  0  0  0  0  0  0
  139.1530   70.2090  223.4850 C   0  0  0  0  0  0  0  0  0  0  0  0
  138.5600   69.9870  224.8240 C   0  0  0  0  0  0  0  0  0  0  0  0
  137.3250   69.9960  225.0260 O   0  0  0  0  0  0  0  0  0  0  0  0
  139.5210   69.7610  225.8600 N   0  0  0  0  0  0  0  0  0  0  0  0
  139.3220   69.4920  227.2690 C   0  0  0  0  0  0  0  0  0  0  0  0
  140.4340   68.5390  227.6670 C   0  0  0  0  0  0  0  0  0  0  0  0
  141.3640   68.5060  226.4590 C   0  0  0  0  0  0  0  0  0  0  0  0
  140.9890   69.7610  225.7070 C   0  0  0  0  0  0  0  0  0  0  0  0
  139.5810   71.4940  223.2410 C   0  0  0  0  0  0  0  0  0  0  0  0
  139.7580   74.1360  222.2110 N   0  0  0  0  0  0  0  0  0  0  0  0
  140.0060   75.5210  222.0820 C   0  0  0  0  0  0  0  0  0  0  0  0
  139.1970   76.4780  222.6580 C   0  0  0  0  0  0  0  0  0  0  0  0
  139.5350   77.8210  222.5010 C   0  0  0  0  0  0  0  0  0  0  0  0
  140.6460   78.2160  221.7910 C   0  0  0  0  0  0  0  0  0  0  0  0
  141.0340   79.6220  221.6380 C   0  0  0  0  0  0  0  0  0  0  0  0
  141.6280   80.3900  222.6350 C   0  0  0  0  0  0  0  0  0  0  0  0
  141.7970   81.6360  222.0540 C   0  0  0  0  0  0  0  0  0  0  0  0
  141.3550   81.6440  220.8260 O   0  0  0  0  0  0  0  0  0  0  0  0
  140.8790   80.4360  220.5240 C   0  0  0  0  0  0  0  0  0  0  0  0
  141.4540   77.2580  221.2150 C   0  0  0  0  0  0  0  0  0  0  0  0
  141.1220   75.9220  221.3700 C   0  0  0  0  0  0  0  0  0  0  0  0
  141.5936   73.0082  219.9109 H   0  0  0  0  0  0  0  0  0  0  0  0
  142.5787   72.9607  221.4081 H   0  0  0  0  0  0  0  0  0  0  0  0
  140.5716   71.0743  220.0506 H   0  0  0  0  0  0  0  0  0  0  0  0
  139.8044   68.7755  220.5084 H   0  0  0  0  0  0  0  0  0  0  0  0
  138.8581   68.1817  222.7753 H   0  0  0  0  0  0  0  0  0  0  0  0
  139.3889   70.4234  227.8503 H   0  0  0  0  0  0  0  0  0  0  0  0
  138.3290   69.0605  227.4633 H   0  0  0  0  0  0  0  0  0  0  0  0
  140.9649   68.9113  228.5556 H   0  0  0  0  0  0  0  0  0  0  0  0
  140.0537   67.5403  227.9278 H   0  0  0  0  0  0  0  0  0  0  0  0
  142.4185   68.5323  226.7710 H   0  0  0  0  0  0  0  0  0  0  0  0
  141.2592   67.5919  225.8562 H   0  0  0  0  0  0  0  0  0  0  0  0
  141.4415   70.6541  226.1627 H   0  0  0  0  0  0  0  0  0  0  0  0
  141.3334   69.7806  224.6625 H   0  0  0  0  0  0  0  0  0  0  0  0
  139.5117   72.2539  224.0333 H   0  0  0  0  0  0  0  0  0  0  0  0
  138.3033   76.1873  223.2296 H   0  0  0  0  0  0  0  0  0  0  0  0
  138.8941   78.5890  222.9587 H   0  0  0  0  0  0  0  0  0  0  0  0
  141.9014   80.0781  223.6538 H   0  0  0  0  0  0  0  0  0  0  0  0
  142.2445   82.5039  222.5605 H   0  0  0  0  0  0  0  0  0  0  0  0
  140.4402   80.1365  219.5608 H   0  0  0  0  0  0  0  0  0  0  0  0
  142.3467   77.5498  220.6424 H   0  0  0  0  0  0  0  0  0  0  0  0
  1  2  2  0
  2  3  1  0
  3  4  1  0
  4  5  1  0
  5  6  2  0
  6  7  1  0
  7  8  2  0
  8  9  1  0
  9 10  1  0
 10 11  2  0
 10 12  1  0
 12 13  1  0
 13 14  1  0
 14 15  1  0
 15 16  1  0
  9 17  2  0
  4 18  2  0
 18 19  1  0
 19 20  2  0
 20 21  1  0
 21 22  2  0
 22 23  1  0
 23 24  1  0
 24 25  2  0
 25 26  1  0
 26 27  1  0
 22 28  1  0
 28 29  2  0
 29  2  1  0
 17  5  1  0
 29 19  1  0
 16 12  1  0
 27 23  2  0
  3 30  1  0
  3 31  1  0
  6 32  1  0
  7 33  1  0
  8 34  1  0
 13 35  1  0
 13 36  1  0
 14 37  1  0
 14 38  1  0
 15 39  1  0
 15 40  1  0
 16 41  1  0
 16 42  1  0
 17 43  1  0
 20 44  1  0
 21 45  1  0
 24 46  1  0
 25 47  1  0
 27 48  1  0
 28 49  1  0
M  END
>  <smiles>  (22) 
O=C1CC(c2cccc(C(=O)N3CCCC3)c2)=Nc2ccc(-c3ccoc3)cc21

>  <score_type>  (22) 
oracle

>  <origin>  (22) 
autodockgpu

>  <m_score__min__energy>  (22) 
-8.2799999999999994

>  <m_primary>  (22) 
energy

>  <rmsd>  (22) 
6.874774824966136

>  <m_score__min__rmsd>  (22) 
6.874774824966136

>  <meeko>  (22) 
{"free_energy": -7.83, "intermolecular_energy": -8.73, "internal_energy": -0.94, "cluster_size": 40, "cluster_id": 1, "rank_in_cluster": 24}

>  <energy>  (22) 
-7.83

>  <cluster_rmsd>  (22) 
1.7

>  <cluster>  (22) 
1

$$$$

     RDKit          3D

 49 53  0  0  0  0  0  0  0  0999 V2000
  146.2980   72.9460  219.7460 O   0  0  0  0  0  0  0  0  0  0  0  0
  145.0260   73.0430  219.6760 C   0  0  0  0  0  0  0  0  0  0  0  0
  144.4800   74.4150  219.7290 C   0  0  0  0  0  0  0  0  0  0  0  0
  143.0060   74.3490  219.6230 C   0  0  0  0  0  0  0  0  0  0  0  0
  142.2710   75.6180  219.6040 C   0  0  0  0  0  0  0  0  0  0  0  0
  142.1330   76.3890  218.4740 C   0  0  0  0  0  0  0  0  0  0  0  0
  141.4870   77.6230  218.4780 C   0  0  0  0  0  0  0  0  0  0  0  0
  140.9440   78.1320  219.6630 C   0  0  0  0  0  0  0  0  0  0  0  0
  141.0880   77.3520  220.7880 C   0  0  0  0  0  0  0  0  0  0  0  0
  140.6100   77.8130  222.1130 C   0  0  0  0  0  0  0  0  0  0  0  0
  139.7660   77.1780  222.7840 O   0  0  0  0  0  0  0  0  0  0  0  0
  141.2010   79.0390  222.5540 N   0  0  0  0  0  0  0  0  0  0  0  0
  140.9990   79.7780  223.7840 C   0  0  0  0  0  0  0  0  0  0  0  0
  142.3460   80.3920  224.1200 C   0  0  0  0  0  0  0  0  0  0  0  0
  143.2030   80.1380  222.8850 C   0  0  0  0  0  0  0  0  0  0  0  0
  142.1800   79.8570  221.8110 C   0  0  0  0  0  0  0  0  0  0  0  0
  141.7230   76.1310  220.7890 C   0  0  0  0  0  0  0  0  0  0  0  0
  142.3100   73.2860  219.5140 N   0  0  0  0  0  0  0  0  0  0  0  0
  142.8510   71.9810  219.4720 C   0  0  0  0  0  0  0  0  0  0  0  0
  142.0690   70.8560  219.3290 C   0  0  0  0  0  0  0  0  0  0  0  0
  142.6920   69.6110  219.2700 C   0  0  0  0  0  0  0  0  0  0  0  0
  144.0600   69.4750  219.3490 C   0  0  0  0  0  0  0  0  0  0  0  0
  144.7370   68.1770  219.2600 C   0  0  0  0  0  0  0  0  0  0  0  0
  144.1030   66.9740  218.9660 C   0  0  0  0  0  0  0  0  0  0  0  0
  145.1180   66.0320  219.0040 C   0  0  0  0  0  0  0  0  0  0  0  0
  146.2630   66.5900  219.2910 O   0  0  0  0  0  0  0  0  0  0  0  0
  146.0830   67.9000  219.4570 C   0  0  0  0  0  0  0  0  0  0  0  0
  144.8420   70.6020  219.4920 C   0  0  0  0  0  0  0  0  0  0  0  0
  144.2260   71.8420  219.5510 C   0  0  0  0  0  0  0  0  0  0  0  0
  144.7608   74.8875  220.6818 H   0  0  0  0  0  0  0  0  0  0  0  0
  144.8869   75.0102  218.8983 H   0  0  0  0  0  0  0  0  0  0  0  0
  142.5502   76.0157  217.5271 H   0  0  0  0  0  0  0  0  0  0  0  0
  141.4033   78.2001  217.5453 H   0  0  0  0  0  0  0  0  0  0  0  0
  140.4295   79.1038  219.6938 H   0  0  0  0  0  0  0  0  0  0  0  0
  140.2442   80.5649  223.6391 H   0  0  0  0  0  0  0  0  0  0  0  0
  140.6359   79.1277  224.5935 H   0  0  0  0  0  0  0  0  0  0  0  0
  142.2450   81.4712  224.3073 H   0  0  0  0  0  0  0  0  0  0  0  0
  142.7867   79.9587  225.0300 H   0  0  0  0  0  0  0  0  0  0  0  0
  143.8063   81.0229  222.6340 H   0  0  0  0  0  0  0  0  0  0  0  0
  143.9246   79.3188  223.0201 H   0  0  0  0  0  0  0  0  0  0  0  0
  141.7260   80.7853  221.4340 H   0  0  0  0  0  0  0  0  0  0  0  0
  142.5892   79.3678  220.9148 H   0  0  0  0  0  0  0  0  0  0  0  0
  141.8011   75.5550  221.7229 H   0  0  0  0  0  0  0  0  0  0  0  0
  140.9741   70.9389  219.2627 H   0  0  0  0  0  0  0  0  0  0  0  0
  142.0721   68.7094  219.1569 H   0  0  0  0  0  0  0  0  0  0  0  0
  143.0368   66.8083  218.7518 H   0  0  0  0  0  0  0  0  0  0  0  0
  144.9780   64.9570  218.8172 H   0  0  0  0  0  0  0  0  0  0  0  0
  146.8641   68.6333  219.7064 H   0  0  0  0  0  0  0  0  0  0  0  0
  145.9368   70.5180  219.5582 H   0  0  0  0  0  0  0  0  0  0  0  0
  1  2  2  0
  2  3  1  0
  3  4  1  0
  4  5  1  0
  5  6  2  0
  6  7  1  0
  7  8  2  0
  8  9  1  0
  9 10  1  0
 10 11  2  0
 10 12  1  0
 12 13  1  0
 13 14  1  0
 14 15  1  0
 15 16  1  0
  9 17  2  0
  4 18  2  0
 18 19  1  0
 19 20  2  0
 20 21  1  0
 21 22  2  0
 22 23  1  0
 23 24  1  0
 24 25  2  0
 25 26  1  0
 26 27  1  0
 22 28  1  0
 28 29  2  0
 29  2  1  0
 17  5  1  0
 29 19  1  0
 16 12  1  0
 27 23  2  0
  3 30  1  0
  3 31  1  0
  6 32  1  0
  7 33  1  0
  8 34  1  0
 13 35  1  0
 13 36  1  0
 14 37  1  0
 14 38  1  0
 15 39  1  0
 15 40  1  0
 16 41  1  0
 16 42  1  0
 17 43  1  0
 20 44  1  0
 21 45  1  0
 24 46  1  0
 25 47  1  0
 27 48  1  0
 28 49  1  0
M  END
>  <smiles>  (23) 
O=C1CC(c2cccc(C(=O)N3CCCC3)c2)=Nc2ccc(-c3ccoc3)cc21

>  <score_type>  (23) 
oracle

>  <origin>  (23) 
autodockgpu

>  <m_score__min__energy>  (23) 
-8.2799999999999994

>  <m_primary>  (23) 
energy

>  <rmsd>  (23) 
8.210003796286454

>  <m_score__min__rmsd>  (23) 
8.210003796286454

>  <meeko>  (23) 
{"free_energy": -7.68, "intermolecular_energy": -8.58, "internal_energy": -0.81, "cluster_size": 8, "cluster_id": 2, "rank_in_cluster": 3}

>  <energy>  (23) 
-7.83

>  <cluster_rmsd>  (23) 
1.7

>  <cluster>  (23) 
1

$$$$

     RDKit          3D

 49 53  0  0  0  0  0  0  0  0999 V2000
  142.9950   75.2450  220.1570 O   0  0  0  0  0  0  0  0  0  0  0  0
  141.9570   74.9020  220.8170 C   0  0  0  0  0  0  0  0  0  0  0  0
  141.7120   73.4500  220.9290 C   0  0  0  0  0  0  0  0  0  0  0  0
  140.4880   73.2290  221.7280 C   0  0  0  0  0  0  0  0  0  0  0  0
  140.0970   71.8410  222.0000 C   0  0  0  0  0  0  0  0  0  0  0  0
  140.1580   70.8440  221.0550 C   0  0  0  0  0  0  0  0  0  0  0  0
  139.7260   69.5440  221.3020 C   0  0  0  0  0  0  0  0  0  0  0  0
  139.2020   69.2000  222.5520 C   0  0  0  0  0  0  0  0  0  0  0  0
  139.1460   70.2050  223.4910 C   0  0  0  0  0  0  0  0  0  0  0  0
  138.5530   69.9780  224.8300 C   0  0  0  0  0  0  0  0  0  0  0  0
  137.3180   69.9870  225.0320 O   0  0  0  0  0  0  0  0  0  0  0  0
  139.5140   69.7450  225.8640 N   0  0  0  0  0  0  0  0  0  0  0  0
  139.3150   69.4710  227.2730 C   0  0  0  0  0  0  0  0  0  0  0  0
  140.4260   68.5140  227.6660 C   0  0  0  0  0  0  0  0  0  0  0  0
  141.3550   68.4860  226.4580 C   0  0  0  0  0  0  0  0  0  0  0  0
  140.9820   69.7450  225.7120 C   0  0  0  0  0  0  0  0  0  0  0  0
  139.5730   71.4910  223.2530 C   0  0  0  0  0  0  0  0  0  0  0  0
  139.7510   74.1370  222.2360 N   0  0  0  0  0  0  0  0  0  0  0  0
  139.9980   75.5230  222.1130 C   0  0  0  0  0  0  0  0  0  0  0  0
  139.1910   76.4770  222.6950 C   0  0  0  0  0  0  0  0  0  0  0  0
  139.5280   77.8210  222.5430 C   0  0  0  0  0  0  0  0  0  0  0  0
  140.6370   78.2190  221.8320 C   0  0  0  0  0  0  0  0  0  0  0  0
  141.0250   79.6260  221.6850 C   0  0  0  0  0  0  0  0  0  0  0  0
  141.5290   80.4170  222.7120 C   0  0  0  0  0  0  0  0  0  0  0  0
  141.7350   81.6550  222.1230 C   0  0  0  0  0  0  0  0  0  0  0  0
  141.3940   81.6360  220.8630 O   0  0  0  0  0  0  0  0  0  0  0  0
  140.9540   80.4180  220.5470 C   0  0  0  0  0  0  0  0  0  0  0  0
  141.4440   77.2640  221.2500 C   0  0  0  0  0  0  0  0  0  0  0  0
  141.1120   75.9270  221.3990 C   0  0  0  0  0  0  0  0  0  0  0  0
  141.5800   73.0197  219.9253 H   0  0  0  0  0  0  0  0  0  0  0  0
  142.5689   72.9651  221.4196 H   0  0  0  0  0  0  0  0  0  0  0  0
  140.5654   71.0839  220.0618 H   0  0  0  0  0  0  0  0  0  0  0  0
  139.7971   68.7837  220.5102 H   0  0  0  0  0  0  0  0  0  0  0  0
  138.8531   68.1805  222.7732 H   0  0  0  0  0  0  0  0  0  0  0  0
  139.3842   70.4000  227.8579 H   0  0  0  0  0  0  0  0  0  0  0  0
  138.3212   69.0411  227.4667 H   0  0  0  0  0  0  0  0  0  0  0  0
  140.9577   68.8810  228.5563 H   0  0  0  0  0  0  0  0  0  0  0  0
  140.0444   67.5145  227.9219 H   0  0  0  0  0  0  0  0  0  0  0  0
  142.4096   68.5092  226.7699 H   0  0  0  0  0  0  0  0  0  0  0  0
  141.2483   67.5751  225.8507 H   0  0  0  0  0  0  0  0  0  0  0  0
  141.4348   70.6354  226.1726 H   0  0  0  0  0  0  0  0  0  0  0  0
  141.3274   69.7699  224.6680 H   0  0  0  0  0  0  0  0  0  0  0  0
  139.5032   72.2476  224.0484 H   0  0  0  0  0  0  0  0  0  0  0  0
  138.2990   76.1836  223.2679 H   0  0  0  0  0  0  0  0  0  0  0  0
  138.8880   78.5868  223.0055 H   0  0  0  0  0  0  0  0  0  0  0  0
  141.7208   80.1262  223.7554 H   0  0  0  0  0  0  0  0  0  0  0  0
  142.1329   82.5362  222.6476 H   0  0  0  0  0  0  0  0  0  0  0  0
  140.5970   80.0966  219.5574 H   0  0  0  0  0  0  0  0  0  0  0  0
  142.3358   77.5586  220.6774 H   0  0  0  0  0  0  0  0  0  0  0  0
  1  2  2  0
  2  3  1  0
  3  4  1  0
  4  5  1  0
  5  6  2  0
  6  7  1  0
  7  8  2  0
  8  9  1  0
  9 10  1  0
 10 11  2  0
 10 12  1  0
 12 13  1  0
 13 14  1  0
 14 15  1  0
 15 16  1  0
  9 17  2  0
  4 18  2  0
 18 19  1  0
 19 20  2  0
 20 21  1  0
 21 22  2  0
 22 23  1  0
 23 24  1  0
 24 25  2  0
 25 26  1  0
 26 27  1  0
 22 28  1  0
 28 29  2  0
 29  2  1  0
 17  5  1  0
 29 19  1  0
 16 12  1  0
 27 23  2  0
  3 30  1  0
  3 31  1  0
  6 32  1  0
  7 33  1  0
  8 34  1  0
 13 35  1  0
 13 36  1  0
 14 37  1  0
 14 38  1  0
 15 39  1  0
 15 40  1  0
 16 41  1  0
 16 42  1  0
 17 43  1  0
 20 44  1  0
 21 45  1  0
 24 46  1  0
 25 47  1  0
 27 48  1  0
 28 49  1  0
M  END
>  <smiles>  (24) 
O=C1CC(c2cccc(C(=O)N3CCCC3)c2)=Nc2ccc(-c3ccoc3)cc21

>  <score_type>  (24) 
oracle

>  <origin>  (24) 
autodockgpu

>  <m_score__min__energy>  (24) 
-8.2799999999999994

>  <m_primary>  (24) 
energy

>  <rmsd>  (24) 
6.871987829365355

>  <m_score__min__rmsd>  (24) 
6.871987829365355

>  <meeko>  (24) 
{"free_energy": -7.84, "intermolecular_energy": -8.73, "internal_energy": -0.94, "cluster_size": 40, "cluster_id": 1, "rank_in_cluster": 12}

>  <energy>  (24) 
-7.83

>  <cluster_rmsd>  (24) 
1.69

>  <cluster>  (24) 
1

$$$$

     RDKit          3D

 49 53  0  0  0  0  0  0  0  0999 V2000
  142.7300   73.9480  219.2300 O   0  0  0  0  0  0  0  0  0  0  0  0
  141.9080   74.0800  220.1990 C   0  0  0  0  0  0  0  0  0  0  0  0
  141.5210   72.8350  220.8930 C   0  0  0  0  0  0  0  0  0  0  0  0
  140.5820   73.1660  221.9860 C   0  0  0  0  0  0  0  0  0  0  0  0
  140.1160   72.0650  222.8360 C   0  0  0  0  0  0  0  0  0  0  0  0
  139.2610   71.0830  222.3910 C   0  0  0  0  0  0  0  0  0  0  0  0
  138.7730   70.0770  223.2200 C   0  0  0  0  0  0  0  0  0  0  0  0
  139.1440   70.0310  224.5690 C   0  0  0  0  0  0  0  0  0  0  0  0
  140.0000   71.0180  225.0030 C   0  0  0  0  0  0  0  0  0  0  0  0
  140.4140   71.1110  226.4230 C   0  0  0  0  0  0  0  0  0  0  0  0
  140.3200   72.1680  227.0850 O   0  0  0  0  0  0  0  0  0  0  0  0
  140.9240   69.8890  226.9650 N   0  0  0  0  0  0  0  0  0  0  0  0
  141.4010   69.5930  228.3000 C   0  0  0  0  0  0  0  0  0  0  0  0
  140.9960   68.1550  228.5720 C   0  0  0  0  0  0  0  0  0  0  0  0
  140.4950   67.6370  227.2290 C   0  0  0  0  0  0  0  0  0  0  0  0
  141.0900   68.6130  226.2430 C   0  0  0  0  0  0  0  0  0  0  0  0
  140.4870   72.0130  224.1870 C   0  0  0  0  0  0  0  0  0  0  0  0
  140.1610   74.3320  222.2840 N   0  0  0  0  0  0  0  0  0  0  0  0
  140.5370   75.5120  221.6030 C   0  0  0  0  0  0  0  0  0  0  0  0
  140.0790   76.7600  221.9680 C   0  0  0  0  0  0  0  0  0  0  0  0
  140.5260   77.8710  221.2560 C   0  0  0  0  0  0  0  0  0  0  0  0
  141.4070   77.7580  220.2040 C   0  0  0  0  0  0  0  0  0  0  0  0
  141.9110   78.9170  219.4600 C   0  0  0  0  0  0  0  0  0  0  0  0
  142.5930   78.8420  218.2500 C   0  0  0  0  0  0  0  0  0  0  0  0
  142.8820   80.1610  217.9370 C   0  0  0  0  0  0  0  0  0  0  0  0
  142.4280   80.9700  218.8550 O   0  0  0  0  0  0  0  0  0  0  0  0
  141.8270   80.2590  219.8080 C   0  0  0  0  0  0  0  0  0  0  0  0
  141.8650   76.5090  219.8400 C   0  0  0  0  0  0  0  0  0  0  0  0
  141.4230   75.4020  220.5460 C   0  0  0  0  0  0  0  0  0  0  0  0
  141.0332   72.1524  220.1816 H   0  0  0  0  0  0  0  0  0  0  0  0
  142.4155   72.3461  221.3064 H   0  0  0  0  0  0  0  0  0  0  0  0
  138.9501   71.0934  221.3359 H   0  0  0  0  0  0  0  0  0  0  0  0
  138.0925   69.3145  222.8131 H   0  0  0  0  0  0  0  0  0  0  0  0
  138.7715   69.2481  225.2460 H   0  0  0  0  0  0  0  0  0  0  0  0
  142.4948   69.6991  228.3487 H   0  0  0  0  0  0  0  0  0  0  0  0
  140.9763   70.2821  229.0448 H   0  0  0  0  0  0  0  0  0  0  0  0
  141.8591   67.5671  228.9177 H   0  0  0  0  0  0  0  0  0  0  0  0
  140.2326   68.0782  229.3602 H   0  0  0  0  0  0  0  0  0  0  0  0
  140.8559   66.6152  227.0402 H   0  0  0  0  0  0  0  0  0  0  0  0
  139.3982   67.5770  227.1702 H   0  0  0  0  0  0  0  0  0  0  0  0
  142.1506   68.3944  226.0499 H   0  0  0  0  0  0  0  0  0  0  0  0
  140.6196   68.5929  225.2489 H   0  0  0  0  0  0  0  0  0  0  0  0
  141.1706   72.7712  224.5965 H   0  0  0  0  0  0  0  0  0  0  0  0
  139.3746   76.8763  222.8048 H   0  0  0  0  0  0  0  0  0  0  0  0
  140.1639   78.8692  221.5432 H   0  0  0  0  0  0  0  0  0  0  0  0
  142.8457   77.9405  217.6726 H   0  0  0  0  0  0  0  0  0  0  0  0
  143.4223   80.4832  217.0346 H   0  0  0  0  0  0  0  0  0  0  0  0
  141.3483   80.6638  220.7119 H   0  0  0  0  0  0  0  0  0  0  0  0
  142.5695   76.3938  219.0031 H   0  0  0  0  0  0  0  0  0  0  0  0
  1  2  2  0
  2  3  1  0
  3  4  1  0
  4  5  1  0
  5  6  2  0
  6  7  1  0
  7  8  2  0
  8  9  1  0
  9 10  1  0
 10 11  2  0
 10 12  1  0
 12 13  1  0
 13 14  1  0
 14 15  1  0
 15 16  1  0
  9 17  2  0
  4 18  2  0
 18 19  1  0
 19 20  2  0
 20 21  1  0
 21 22  2  0
 22 23  1  0
 23 24  1  0
 24 25  2  0
 25 26  1  0
 26 27  1  0
 22 28  1  0
 28 29  2  0
 29  2  1  0
 17  5  1  0
 29 19  1  0
 16 12  1  0
 27 23  2  0
  3 30  1  0
  3 31  1  0
  6 32  1  0
  7 33  1  0
  8 34  1  0
 13 35  1  0
 13 36  1  0
 14 37  1  0
 14 38  1  0
 15 39  1  0
 15 40  1  0
 16 41  1  0
 16 42  1  0
 17 43  1  0
 20 44  1  0
 21 45  1  0
 24 46  1  0
 25 47  1  0
 27 48  1  0
 28 49  1  0
M  END
>  <smiles>  (25) 
O=C1CC(c2cccc(C(=O)N3CCCC3)c2)=Nc2ccc(-c3ccoc3)cc21

>  <score_type>  (25) 
oracle

>  <origin>  (25) 
autodockgpu

>  <m_score__min__energy>  (25) 
-8.2799999999999994

>  <m_primary>  (25) 
energy

>  <rmsd>  (25) 
7.4907294761442635

>  <m_score__min__rmsd>  (25) 
7.4907294761442635

>  <meeko>  (25) 
{"free_energy": -8.25, "intermolecular_energy": -9.15, "internal_energy": -0.71, "cluster_size": 40, "cluster_id": 1, "rank_in_cluster": 5}

>  <energy>  (25) 
-7.83

>  <cluster_rmsd>  (25) 
1.71

>  <cluster>  (25) 
1

$$$$

     RDKit          3D

 49 53  0  0  0  0  0  0  0  0999 V2000
  142.9840   75.2370  220.1240 O   0  0  0  0  0  0  0  0  0  0  0  0
  141.9490   74.8980  220.7910 C   0  0  0  0  0  0  0  0  0  0  0  0
  141.6990   73.4460  220.9010 C   0  0  0  0  0  0  0  0  0  0  0  0
  140.4790   73.2290  221.7080 C   0  0  0  0  0  0  0  0  0  0  0  0
  140.0840   71.8430  221.9810 C   0  0  0  0  0  0  0  0  0  0  0  0
  140.1440   70.8450  221.0360 C   0  0  0  0  0  0  0  0  0  0  0  0
  139.7090   69.5460  221.2830 C   0  0  0  0  0  0  0  0  0  0  0  0
  139.1800   69.2040  222.5330 C   0  0  0  0  0  0  0  0  0  0  0  0
  139.1250   70.2100  223.4710 C   0  0  0  0  0  0  0  0  0  0  0  0
  138.5290   69.9850  224.8090 C   0  0  0  0  0  0  0  0  0  0  0  0
  137.2930   69.9970  225.0070 O   0  0  0  0  0  0  0  0  0  0  0  0
  139.4870   69.7530  225.8450 N   0  0  0  0  0  0  0  0  0  0  0  0
  139.2840   69.4800  227.2540 C   0  0  0  0  0  0  0  0  0  0  0  0
  140.3930   68.5220  227.6510 C   0  0  0  0  0  0  0  0  0  0  0  0
  141.3250   68.4920  226.4450 C   0  0  0  0  0  0  0  0  0  0  0  0
  140.9550   69.7500  225.6960 C   0  0  0  0  0  0  0  0  0  0  0  0
  139.5560   71.4940  223.2330 C   0  0  0  0  0  0  0  0  0  0  0  0
  139.7490   74.1400  222.2220 N   0  0  0  0  0  0  0  0  0  0  0  0
  140.0010   75.5250  222.1000 C   0  0  0  0  0  0  0  0  0  0  0  0
  139.2030   76.4810  222.6900 C   0  0  0  0  0  0  0  0  0  0  0  0
  139.5440   77.8240  222.5380 C   0  0  0  0  0  0  0  0  0  0  0  0
  140.6500   78.2180  221.8200 C   0  0  0  0  0  0  0  0  0  0  0  0
  141.0430   79.6240  221.6730 C   0  0  0  0  0  0  0  0  0  0  0  0
  141.4370   80.4480  222.7230 C   0  0  0  0  0  0  0  0  0  0  0  0
  141.6940   81.6700  222.1220 C   0  0  0  0  0  0  0  0  0  0  0  0
  141.4830   81.6130  220.8350 O   0  0  0  0  0  0  0  0  0  0  0  0
  141.0830   80.3830  220.5110 C   0  0  0  0  0  0  0  0  0  0  0  0
  141.4490   77.2610  221.2310 C   0  0  0  0  0  0  0  0  0  0  0  0
  141.1130   75.9250  221.3800 C   0  0  0  0  0  0  0  0  0  0  0  0
  141.5585   73.0186  219.8972 H   0  0  0  0  0  0  0  0  0  0  0  0
  142.5571   72.9560  221.3842 H   0  0  0  0  0  0  0  0  0  0  0  0
  140.5530   71.0836  220.0432 H   0  0  0  0  0  0  0  0  0  0  0  0
  139.7813   68.7848  220.4923 H   0  0  0  0  0  0  0  0  0  0  0  0
  138.8271   68.1858  222.7539 H   0  0  0  0  0  0  0  0  0  0  0  0
  139.3525   70.4094  227.8385 H   0  0  0  0  0  0  0  0  0  0  0  0
  138.2893   69.0511  227.4452 H   0  0  0  0  0  0  0  0  0  0  0  0
  140.9229   68.8893  228.5423 H   0  0  0  0  0  0  0  0  0  0  0  0
  140.0098   67.5232  227.9071 H   0  0  0  0  0  0  0  0  0  0  0  0
  142.3788   68.5150  226.7595 H   0  0  0  0  0  0  0  0  0  0  0  0
  141.2189   67.5803  225.8387 H   0  0  0  0  0  0  0  0  0  0  0  0
  141.4084   70.6406  226.1557 H   0  0  0  0  0  0  0  0  0  0  0  0
  141.3023   69.7720  224.6525 H   0  0  0  0  0  0  0  0  0  0  0  0
  139.4864   72.2510  224.0281 H   0  0  0  0  0  0  0  0  0  0  0  0
  138.3144   76.1901  223.2695 H   0  0  0  0  0  0  0  0  0  0  0  0
  138.9102   78.5917  223.0059 H   0  0  0  0  0  0  0  0  0  0  0  0
  141.5246   80.1883  223.7883 H   0  0  0  0  0  0  0  0  0  0  0  0
  142.0312   82.5691  222.6585 H   0  0  0  0  0  0  0  0  0  0  0  0
  140.8291   80.0312  219.5002 H   0  0  0  0  0  0  0  0  0  0  0  0
  142.3380   77.5531  220.6527 H   0  0  0  0  0  0  0  0  0  0  0  0
  1  2  2  0
  2  3  1  0
  3  4  1  0
  4  5  1  0
  5  6  2  0
  6  7  1  0
  7  8  2  0
  8  9  1  0
  9 10  1  0
 10 11  2  0
 10 12  1  0
 12 13  1  0
 13 14  1  0
 14 15  1  0
 15 16  1  0
  9 17  2  0
  4 18  2  0
 18 19  1  0
 19 20  2  0
 20 21  1  0
 21 22  2  0
 22 23  1  0
 23 24  1  0
 24 25  2  0
 25 26  1  0
 26 27  1  0
 22 28  1  0
 28 29  2  0
 29  2  1  0
 17  5  1  0
 29 19  1  0
 16 12  1  0
 27 23  2  0
  3 30  1  0
  3 31  1  0
  6 32  1  0
  7 33  1  0
  8 34  1  0
 13 35  1  0
 13 36  1  0
 14 37  1  0
 14 38  1  0
 15 39  1  0
 15 40  1  0
 16 41  1  0
 16 42  1  0
 17 43  1  0
 20 44  1  0
 21 45  1  0
 24 46  1  0
 25 47  1  0
 27 48  1  0
 28 49  1  0
M  END
>  <smiles>  (26) 
O=C1CC(c2cccc(C(=O)N3CCCC3)c2)=Nc2ccc(-c3ccoc3)cc21

>  <score_type>  (26) 
oracle

>  <origin>  (26) 
autodockgpu

>  <m_score__min__energy>  (26) 
-8.2799999999999994

>  <m_primary>  (26) 
energy

>  <rmsd>  (26) 
6.870515829539482

>  <m_score__min__rmsd>  (26) 
6.870515829539482

>  <meeko>  (26) 
{"free_energy": -7.83, "intermolecular_energy": -8.73, "internal_energy": -0.94, "cluster_size": 40, "cluster_id": 1, "rank_in_cluster": 22}

>  <energy>  (26) 
-7.83

>  <cluster_rmsd>  (26) 
1.7

>  <cluster>  (26) 
1

$$$$

     RDKit          3D

 49 53  0  0  0  0  0  0  0  0999 V2000
  142.5300   72.7480  220.8760 O   0  0  0  0  0  0  0  0  0  0  0  0
  141.3570   72.9740  221.3280 C   0  0  0  0  0  0  0  0  0  0  0  0
  140.7170   71.8570  222.0530 C   0  0  0  0  0  0  0  0  0  0  0  0
  139.3800   72.2870  222.5150 C   0  0  0  0  0  0  0  0  0  0  0  0
  138.5970   71.3320  223.3070 C   0  0  0  0  0  0  0  0  0  0  0  0
  137.2380   71.4440  223.4900 C   0  0  0  0  0  0  0  0  0  0  0  0
  136.5110   70.5700  224.2940 C   0  0  0  0  0  0  0  0  0  0  0  0
  137.1560   69.5220  224.9600 C   0  0  0  0  0  0  0  0  0  0  0  0
  138.5150   69.4190  224.7700 C   0  0  0  0  0  0  0  0  0  0  0  0
  139.3170   68.3890  225.4720 C   0  0  0  0  0  0  0  0  0  0  0  0
  139.5750   67.2740  224.9660 O   0  0  0  0  0  0  0  0  0  0  0  0
  139.7680   68.7840  226.7710 N   0  0  0  0  0  0  0  0  0  0  0  0
  140.5790   68.0630  227.7310 C   0  0  0  0  0  0  0  0  0  0  0  0
  141.4290   69.1130  228.4230 C   0  0  0  0  0  0  0  0  0  0  0  0
  140.8570   70.4440  227.9480 C   0  0  0  0  0  0  0  0  0  0  0  0
  139.4850   70.0660  227.4450 C   0  0  0  0  0  0  0  0  0  0  0  0
  139.2380   70.2790  223.9750 C   0  0  0  0  0  0  0  0  0  0  0  0
  138.8520   73.4300  222.3180 N   0  0  0  0  0  0  0  0  0  0  0  0
  139.4770   74.4850  221.6160 C   0  0  0  0  0  0  0  0  0  0  0  0
  138.8840   75.7170  221.4410 C   0  0  0  0  0  0  0  0  0  0  0  0
  139.5880   76.7080  220.7580 C   0  0  0  0  0  0  0  0  0  0  0  0
  140.8510   76.4900  220.2550 C   0  0  0  0  0  0  0  0  0  0  0  0
  141.6190   77.5270  219.5590 C   0  0  0  0  0  0  0  0  0  0  0  0
  142.4170   77.3020  218.4410 C   0  0  0  0  0  0  0  0  0  0  0  0
  142.9500   78.5460  218.1440 C   0  0  0  0  0  0  0  0  0  0  0  0
  142.5280   79.4500  218.9870 O   0  0  0  0  0  0  0  0  0  0  0  0
  141.7130   78.8770  219.8710 C   0  0  0  0  0  0  0  0  0  0  0  0
  141.4430   75.2570  220.4300 C   0  0  0  0  0  0  0  0  0  0  0  0
  140.7470   74.2700  221.1090 C   0  0  0  0  0  0  0  0  0  0  0  0
  140.6146   70.9918  221.3814 H   0  0  0  0  0  0  0  0  0  0  0  0
  141.3351   71.5718  222.9171 H   0  0  0  0  0  0  0  0  0  0  0  0
  136.7032   72.2585  222.9796 H   0  0  0  0  0  0  0  0  0  0  0  0
  135.4250   70.7040  224.4061 H   0  0  0  0  0  0  0  0  0  0  0  0
  136.6059   68.8178  225.6015 H   0  0  0  0  0  0  0  0  0  0  0  0
  139.9394   67.5454  228.4611 H   0  0  0  0  0  0  0  0  0  0  0  0
  141.1989   67.2962  227.2435 H   0  0  0  0  0  0  0  0  0  0  0  0
  141.3451   69.0221  229.5160 H   0  0  0  0  0  0  0  0  0  0  0  0
  142.4977   69.0088  228.1840 H   0  0  0  0  0  0  0  0  0  0  0  0
  140.7893   71.1634  228.7774 H   0  0  0  0  0  0  0  0  0  0  0  0
  141.4782   70.9339  227.1838 H   0  0  0  0  0  0  0  0  0  0  0  0
  138.7735   69.9368  228.2739 H   0  0  0  0  0  0  0  0  0  0  0  0
  139.0182   70.8225  226.7971 H   0  0  0  0  0  0  0  0  0  0  0  0
  140.3234   70.1396  223.8632 H   0  0  0  0  0  0  0  0  0  0  0  0
  137.8752   75.9145  221.8325 H   0  0  0  0  0  0  0  0  0  0  0  0
  139.1203   77.6936  220.6168 H   0  0  0  0  0  0  0  0  0  0  0  0
  142.5862   76.3520  217.9129 H   0  0  0  0  0  0  0  0  0  0  0  0
  143.6375   78.7458  217.3089 H   0  0  0  0  0  0  0  0  0  0  0  0
  141.2032   79.3846  220.7032 H   0  0  0  0  0  0  0  0  0  0  0  0
  142.4513   75.0602  220.0369 H   0  0  0  0  0  0  0  0  0  0  0  0
  1  2  2  0
  2  3  1  0
  3  4  1  0
  4  5  1  0
  5  6  2  0
  6  7  1  0
  7  8  2  0
  8  9  1  0
  9 10  1  0
 10 11  2  0
 10 12  1  0
 12 13  1  0
 13 14  1  0
 14 15  1  0
 15 16  1  0
  9 17  2  0
  4 18  2  0
 18 19  1  0
 19 20  2  0
 20 21  1  0
 21 22  2  0
 22 23  1  0
 23 24  1  0
 24 25  2  0
 25 26  1  0
 26 27  1  0
 22 28  1  0
 28 29  2  0
 29  2  1  0
 17  5  1  0
 29 19  1  0
 16 12  1  0
 27 23  2  0
  3 30  1  0
  3 31  1  0
  6 32  1  0
  7 33  1  0
  8 34  1  0
 13 35  1  0
 13 36  1  0
 14 37  1  0
 14 38  1  0
 15 39  1  0
 15 40  1  0
 16 41  1  0
 16 42  1  0
 17 43  1  0
 20 44  1  0
 21 45  1  0
 24 46  1  0
 25 47  1  0
 27 48  1  0
 28 49  1  0
M  END
>  <smiles>  (27) 
O=C1CC(c2cccc(C(=O)N3CCCC3)c2)=Nc2ccc(-c3ccoc3)cc21

>  <score_type>  (27) 
oracle

>  <origin>  (27) 
autodockgpu

>  <m_score__min__energy>  (27) 
-8.2799999999999994

>  <m_primary>  (27) 
energy

>  <rmsd>  (27) 
6.7329850785212635

>  <m_score__min__rmsd>  (27) 
6.7329850785212635

>  <meeko>  (27) 
{"free_energy": -7.32, "intermolecular_energy": -8.21, "internal_energy": -0.98, "cluster_size": 40, "cluster_id": 1, "rank_in_cluster": 40}

>  <energy>  (27) 
-7.83

>  <cluster_rmsd>  (27) 
1.7

>  <cluster>  (27) 
1

$$$$

     RDKit          3D

 49 53  0  0  0  0  0  0  0  0999 V2000
  142.9970   75.2390  220.1580 O   0  0  0  0  0  0  0  0  0  0  0  0
  141.9580   74.8960  220.8180 C   0  0  0  0  0  0  0  0  0  0  0  0
  141.7150   73.4440  220.9310 C   0  0  0  0  0  0  0  0  0  0  0  0
  140.4890   73.2230  221.7290 C   0  0  0  0  0  0  0  0  0  0  0  0
  140.0990   71.8360  222.0030 C   0  0  0  0  0  0  0  0  0  0  0  0
  140.1470   70.8410  221.0540 C   0  0  0  0  0  0  0  0  0  0  0  0
  139.7150   69.5410  221.3040 C   0  0  0  0  0  0  0  0  0  0  0  0
  139.2050   69.1950  222.5600 C   0  0  0  0  0  0  0  0  0  0  0  0
  139.1620   70.1980  223.5020 C   0  0  0  0  0  0  0  0  0  0  0  0
  138.5850   69.9700  224.8470 C   0  0  0  0  0  0  0  0  0  0  0  0
  137.3520   69.9700  225.0610 O   0  0  0  0  0  0  0  0  0  0  0  0
  139.5580   69.7470  225.8720 N   0  0  0  0  0  0  0  0  0  0  0  0
  139.3750   69.4740  227.2830 C   0  0  0  0  0  0  0  0  0  0  0  0
  140.4980   68.5260  227.6670 C   0  0  0  0  0  0  0  0  0  0  0  0
  141.4150   68.5030  226.4490 C   0  0  0  0  0  0  0  0  0  0  0  0
  141.0240   69.7570  225.7040 C   0  0  0  0  0  0  0  0  0  0  0  0
  139.5890   71.4840  223.2610 C   0  0  0  0  0  0  0  0  0  0  0  0
  139.7510   74.1320  222.2340 N   0  0  0  0  0  0  0  0  0  0  0  0
  139.9970   75.5180  222.1090 C   0  0  0  0  0  0  0  0  0  0  0  0
  139.1880   76.4720  222.6880 C   0  0  0  0  0  0  0  0  0  0  0  0
  139.5240   77.8160  222.5350 C   0  0  0  0  0  0  0  0  0  0  0  0
  140.6340   78.2140  221.8250 C   0  0  0  0  0  0  0  0  0  0  0  0
  141.0210   79.6210  221.6760 C   0  0  0  0  0  0  0  0  0  0  0  0
  141.5380   80.4100  222.6990 C   0  0  0  0  0  0  0  0  0  0  0  0
  141.7380   81.6480  222.1100 C   0  0  0  0  0  0  0  0  0  0  0  0
  141.3830   81.6320  220.8530 O   0  0  0  0  0  0  0  0  0  0  0  0
  140.9380   80.4150  220.5400 C   0  0  0  0  0  0  0  0  0  0  0  0
  141.4430   77.2590  221.2450 C   0  0  0  0  0  0  0  0  0  0  0  0
  141.1120   75.9210  221.3960 C   0  0  0  0  0  0  0  0  0  0  0  0
  141.5851   73.0123  219.9276 H   0  0  0  0  0  0  0  0  0  0  0  0
  142.5717   72.9604  221.4231 H   0  0  0  0  0  0  0  0  0  0  0  0
  140.5430   71.0824  220.0565 H   0  0  0  0  0  0  0  0  0  0  0  0
  139.7750   68.7822  220.5099 H   0  0  0  0  0  0  0  0  0  0  0  0
  138.8569   68.1757  222.7830 H   0  0  0  0  0  0  0  0  0  0  0  0
  139.4425   70.4046  227.8657 H   0  0  0  0  0  0  0  0  0  0  0  0
  138.3866   69.0365  227.4871 H   0  0  0  0  0  0  0  0  0  0  0  0
  141.0359   68.8990  228.5511 H   0  0  0  0  0  0  0  0  0  0  0  0
  140.1270   67.5241  227.9290 H   0  0  0  0  0  0  0  0  0  0  0  0
  142.4725   68.5357  226.7499 H   0  0  0  0  0  0  0  0  0  0  0  0
  141.3095   67.5898  225.8449 H   0  0  0  0  0  0  0  0  0  0  0  0
  141.4753   70.6520  226.1571 H   0  0  0  0  0  0  0  0  0  0  0  0
  141.3575   69.7812  224.6560 H   0  0  0  0  0  0  0  0  0  0  0  0
  139.5300   72.2391  224.0587 H   0  0  0  0  0  0  0  0  0  0  0  0
  138.2951   76.1785  223.2594 H   0  0  0  0  0  0  0  0  0  0  0  0
  138.8827   78.5819  222.9956 H   0  0  0  0  0  0  0  0  0  0  0  0
  141.7417   80.1172  223.7396 H   0  0  0  0  0  0  0  0  0  0  0  0
  142.1423   82.5279  222.6318 H   0  0  0  0  0  0  0  0  0  0  0  0
  140.5695   80.0956  219.5540 H   0  0  0  0  0  0  0  0  0  0  0  0
  142.3350   77.5538  220.6728 H   0  0  0  0  0  0  0  0  0  0  0  0
  1  2  2  0
  2  3  1  0
  3  4  1  0
  4  5  1  0
  5  6  2  0
  6  7  1  0
  7  8  2  0
  8  9  1  0
  9 10  1  0
 10 11  2  0
 10 12  1  0
 12 13  1  0
 13 14  1  0
 14 15  1  0
 15 16  1  0
  9 17  2  0
  4 18  2  0
 18 19  1  0
 19 20  2  0
 20 21  1  0
 21 22  2  0
 22 23  1  0
 23 24  1  0
 24 25  2  0
 25 26  1  0
 26 27  1  0
 22 28  1  0
 28 29  2  0
 29  2  1  0
 17  5  1  0
 29 19  1  0
 16 12  1  0
 27 23  2  0
  3 30  1  0
  3 31  1  0
  6 32  1  0
  7 33  1  0
  8 34  1  0
 13 35  1  0
 13 36  1  0
 14 37  1  0
 14 38  1  0
 15 39  1  0
 15 40  1  0
 16 41  1  0
 16 42  1  0
 17 43  1  0
 20 44  1  0
 21 45  1  0
 24 46  1  0
 25 47  1  0
 27 48  1  0
 28 49  1  0
M  END
>  <smiles>  (28) 
O=C1CC(c2cccc(C(=O)N3CCCC3)c2)=Nc2ccc(-c3ccoc3)cc21

>  <score_type>  (28) 
oracle

>  <origin>  (28) 
autodockgpu

>  <m_score__min__energy>  (28) 
-8.2799999999999994

>  <m_primary>  (28) 
energy

>  <rmsd>  (28) 
6.875121497049049

>  <m_score__min__rmsd>  (28) 
6.875121497049049

>  <meeko>  (28) 
{"free_energy": -7.83, "intermolecular_energy": -8.73, "internal_energy": -0.93, "cluster_size": 40, "cluster_id": 1, "rank_in_cluster": 20}

>  <energy>  (28) 
-7.82

>  <cluster_rmsd>  (28) 
1.72

>  <cluster>  (28) 
1

$$$$

     RDKit          3D

 49 53  0  0  0  0  0  0  0  0999 V2000
  142.9740   75.2800  220.0960 O   0  0  0  0  0  0  0  0  0  0  0  0
  141.9500   74.9330  220.7760 C   0  0  0  0  0  0  0  0  0  0  0  0
  141.7090   73.4800  220.8870 C   0  0  0  0  0  0  0  0  0  0  0  0
  140.5020   73.2540  221.7100 C   0  0  0  0  0  0  0  0  0  0  0  0
  140.1180   71.8660  221.9850 C   0  0  0  0  0  0  0  0  0  0  0  0
  140.1950   70.8650  221.0450 C   0  0  0  0  0  0  0  0  0  0  0  0
  139.7700   69.5620  221.2930 C   0  0  0  0  0  0  0  0  0  0  0  0
  139.2350   69.2210  222.5400 C   0  0  0  0  0  0  0  0  0  0  0  0
  139.1620   70.2290  223.4740 C   0  0  0  0  0  0  0  0  0  0  0  0
  138.5570   70.0050  224.8080 C   0  0  0  0  0  0  0  0  0  0  0  0
  137.3200   69.9990  224.9950 O   0  0  0  0  0  0  0  0  0  0  0  0
  139.5090   69.7920  225.8540 N   0  0  0  0  0  0  0  0  0  0  0  0
  139.2980   69.5250  227.2620 C   0  0  0  0  0  0  0  0  0  0  0  0
  140.4170   68.5870  227.6760 C   0  0  0  0  0  0  0  0  0  0  0  0
  141.3600   68.5620  226.4780 C   0  0  0  0  0  0  0  0  0  0  0  0
  140.9790   69.8100  225.7180 C   0  0  0  0  0  0  0  0  0  0  0  0
  139.5830   71.5170  223.2340 C   0  0  0  0  0  0  0  0  0  0  0  0
  139.7740   74.1600  222.2360 N   0  0  0  0  0  0  0  0  0  0  0  0
  140.0170   75.5470  222.1140 C   0  0  0  0  0  0  0  0  0  0  0  0
  139.2220   76.4980  222.7160 C   0  0  0  0  0  0  0  0  0  0  0  0
  139.5540   77.8430  222.5630 C   0  0  0  0  0  0  0  0  0  0  0  0
  140.6480   78.2450  221.8310 C   0  0  0  0  0  0  0  0  0  0  0  0
  141.0310   79.6530  221.6810 C   0  0  0  0  0  0  0  0  0  0  0  0
  140.8860   80.3900  220.5110 C   0  0  0  0  0  0  0  0  0  0  0  0
  141.3870   81.6420  220.8290 C   0  0  0  0  0  0  0  0  0  0  0  0
  141.8000   81.6800  222.0670 O   0  0  0  0  0  0  0  0  0  0  0  0
  141.6050   80.4880  222.6300 C   0  0  0  0  0  0  0  0  0  0  0  0
  141.4440   77.2930  221.2290 C   0  0  0  0  0  0  0  0  0  0  0  0
  141.1170   75.9550  221.3790 C   0  0  0  0  0  0  0  0  0  0  0  0
  141.5569   73.0537  219.8844 H   0  0  0  0  0  0  0  0  0  0  0  0
  142.5763   72.9943  221.3580 H   0  0  0  0  0  0  0  0  0  0  0  0
  140.6101   71.1037  220.0547 H   0  0  0  0  0  0  0  0  0  0  0  0
  139.8553   68.7984  220.5058 H   0  0  0  0  0  0  0  0  0  0  0  0
  138.8906   68.2002  222.7623 H   0  0  0  0  0  0  0  0  0  0  0  0
  139.3471   70.4591  227.8408 H   0  0  0  0  0  0  0  0  0  0  0  0
  138.3084   69.0817  227.4466 H   0  0  0  0  0  0  0  0  0  0  0  0
  140.9335   68.9688  228.5690 H   0  0  0  0  0  0  0  0  0  0  0  0
  140.0465   67.5846  227.9366 H   0  0  0  0  0  0  0  0  0  0  0  0
  142.4107   68.6015  226.8013 H   0  0  0  0  0  0  0  0  0  0  0  0
  141.2719   67.6451  225.8767 H   0  0  0  0  0  0  0  0  0  0  0  0
  141.4151   70.7098  226.1764 H   0  0  0  0  0  0  0  0  0  0  0  0
  141.3356   69.8312  224.6776 H   0  0  0  0  0  0  0  0  0  0  0  0
  139.4996   72.2765  224.0253 H   0  0  0  0  0  0  0  0  0  0  0  0
  138.3423   76.2014  223.3060 H   0  0  0  0  0  0  0  0  0  0  0  0
  138.9227   78.6061  223.0417 H   0  0  0  0  0  0  0  0  0  0  0  0
  140.4681   80.0549  219.5502 H   0  0  0  0  0  0  0  0  0  0  0  0
  141.4309   82.4912  220.1312 H   0  0  0  0  0  0  0  0  0  0  0  0
  141.8551   80.2137  223.6655 H   0  0  0  0  0  0  0  0  0  0  0  0
  142.3237   77.5910  220.6397 H   0  0  0  0  0  0  0  0  0  0  0  0
  1  2  2  0
  2  3  1  0
  3  4  1  0
  4  5  1  0
  5  6  2  0
  6  7  1  0
  7  8  2  0
  8  9  1  0
  9 10  1  0
 10 11  2  0
 10 12  1  0
 12 13  1  0
 13 14  1  0
 14 15  1  0
 15 16  1  0
  9 17  2  0
  4 18  2  0
 18 19  1  0
 19 20  2  0
 20 21  1  0
 21 22  2  0
 22 23  1  0
 23 24  1  0
 24 25  2  0
 25 26  1  0
 26 27  1  0
 22 28  1  0
 28 29  2  0
 29  2  1  0
 17  5  1  0
 29 19  1  0
 16 12  1  0
 27 23  2  0
  3 30  1  0
  3 31  1  0
  6 32  1  0
  7 33  1  0
  8 34  1  0
 13 35  1  0
 13 36  1  0
 14 37  1  0
 14 38  1  0
 15 39  1  0
 15 40  1  0
 16 41  1  0
 16 42  1  0
 17 43  1  0
 20 44  1  0
 21 45  1  0
 24 46  1  0
 25 47  1  0
 27 48  1  0
 28 49  1  0
M  END
>  <smiles>  (29) 
O=C1CC(c2cccc(C(=O)N3CCCC3)c2)=Nc2ccc(-c3ccoc3)cc21

>  <score_type>  (29) 
oracle

>  <origin>  (29) 
autodockgpu

>  <m_score__min__energy>  (29) 
-8.2799999999999994

>  <m_primary>  (29) 
energy

>  <rmsd>  (29) 
6.879887725841745

>  <m_score__min__rmsd>  (29) 
6.879887725841745

>  <meeko>  (29) 
{"free_energy": -7.8, "intermolecular_energy": -8.69, "internal_energy": -0.94, "cluster_size": 40, "cluster_id": 1, "rank_in_cluster": 31}

>  <energy>  (29) 
-7.82

>  <cluster_rmsd>  (29) 
1.7

>  <cluster>  (29) 
1

$$$$

     RDKit          3D

 49 53  0  0  0  0  0  0  0  0999 V2000
  146.1680   73.2580  219.3210 O   0  0  0  0  0  0  0  0  0  0  0  0
  144.9560   73.0190  219.6490 C   0  0  0  0  0  0  0  0  0  0  0  0
  144.1800   74.1760  220.1410 C   0  0  0  0  0  0  0  0  0  0  0  0
  142.8060   73.7310  220.4610 C   0  0  0  0  0  0  0  0  0  0  0  0
  141.8540   74.7470  220.9200 C   0  0  0  0  0  0  0  0  0  0  0  0
  140.6900   74.4400  221.5860 C   0  0  0  0  0  0  0  0  0  0  0  0
  139.7610   75.4060  221.9630 C   0  0  0  0  0  0  0  0  0  0  0  0
  139.9850   76.7550  221.6690 C   0  0  0  0  0  0  0  0  0  0  0  0
  141.1530   77.0510  221.0030 C   0  0  0  0  0  0  0  0  0  0  0  0
  141.4710   78.4360  220.5820 C   0  0  0  0  0  0  0  0  0  0  0  0
  141.4170   78.8070  219.3880 O   0  0  0  0  0  0  0  0  0  0  0  0
  141.8410   79.3040  221.6570 N   0  0  0  0  0  0  0  0  0  0  0  0
  142.1960   80.7090  221.6370 C   0  0  0  0  0  0  0  0  0  0  0  0
  141.6570   81.2880  222.9320 C   0  0  0  0  0  0  0  0  0  0  0  0
  141.2110   80.0740  223.7400 C   0  0  0  0  0  0  0  0  0  0  0  0
  141.9530   78.9360  223.0820 C   0  0  0  0  0  0  0  0  0  0  0  0
  142.0760   76.1010  220.6300 C   0  0  0  0  0  0  0  0  0  0  0  0
  142.3580   72.5430  220.3430 N   0  0  0  0  0  0  0  0  0  0  0  0
  143.1180   71.4470  219.8760 C   0  0  0  0  0  0  0  0  0  0  0  0
  142.5930   70.1800  219.7400 C   0  0  0  0  0  0  0  0  0  0  0  0
  143.4110   69.1660  219.2450 C   0  0  0  0  0  0  0  0  0  0  0  0
  144.7210   69.3940  218.8910 C   0  0  0  0  0  0  0  0  0  0  0  0
  145.5900   68.3480  218.3410 C   0  0  0  0  0  0  0  0  0  0  0  0
  145.7980   68.1280  216.9830 C   0  0  0  0  0  0  0  0  0  0  0  0
  146.6640   67.0470  216.9390 C   0  0  0  0  0  0  0  0  0  0  0  0
  146.9640   66.6380  218.1430 O   0  0  0  0  0  0  0  0  0  0  0  0
  146.3320   67.4010  219.0340 C   0  0  0  0  0  0  0  0  0  0  0  0
  145.2460   70.6620  219.0270 C   0  0  0  0  0  0  0  0  0  0  0  0
  144.4360   71.6730  219.5180 C   0  0  0  0  0  0  0  0  0  0  0  0
  144.6564   74.5824  221.0454 H   0  0  0  0  0  0  0  0  0  0  0  0
  144.1477   74.9584  219.3685 H   0  0  0  0  0  0  0  0  0  0  0  0
  140.4848   73.3874  221.8308 H   0  0  0  0  0  0  0  0  0  0  0  0
  138.8459   75.1067  222.4950 H   0  0  0  0  0  0  0  0  0  0  0  0
  139.2665   77.5374  221.9546 H   0  0  0  0  0  0  0  0  0  0  0  0
  143.2885   80.8278  221.5894 H   0  0  0  0  0  0  0  0  0  0  0  0
  141.7767   81.2209  220.7582 H   0  0  0  0  0  0  0  0  0  0  0  0
  142.4426   81.8426  223.4661 H   0  0  0  0  0  0  0  0  0  0  0  0
  140.8359   81.9997  222.7608 H   0  0  0  0  0  0  0  0  0  0  0  0
  141.4991   80.1750  224.7968 H   0  0  0  0  0  0  0  0  0  0  0  0
  140.1199   79.9342  223.7453 H   0  0  0  0  0  0  0  0  0  0  0  0
  143.0032   78.8986  223.4070 H   0  0  0  0  0  0  0  0  0  0  0  0
  141.5547   77.9393  223.3227 H   0  0  0  0  0  0  0  0  0  0  0  0
  142.9919   76.4049  220.1021 H   0  0  0  0  0  0  0  0  0  0  0  0
  141.5487   69.9731  220.0168 H   0  0  0  0  0  0  0  0  0  0  0  0
  142.9969   68.1530  219.1339 H   0  0  0  0  0  0  0  0  0  0  0  0
  145.3717   68.6858  216.1362 H   0  0  0  0  0  0  0  0  0  0  0  0
  147.0479   66.5935  216.0133 H   0  0  0  0  0  0  0  0  0  0  0  0
  146.3883   67.2985  220.1278 H   0  0  0  0  0  0  0  0  0  0  0  0
  146.2906   70.8673  218.7502 H   0  0  0  0  0  0  0  0  0  0  0  0
  1  2  2  0
  2  3  1  0
  3  4  1  0
  4  5  1  0
  5  6  2  0
  6  7  1  0
  7  8  2  0
  8  9  1  0
  9 10  1  0
 10 11  2  0
 10 12  1  0
 12 13  1  0
 13 14  1  0
 14 15  1  0
 15 16  1  0
  9 17  2  0
  4 18  2  0
 18 19  1  0
 19 20  2  0
 20 21  1  0
 21 22  2  0
 22 23  1  0
 23 24  1  0
 24 25  2  0
 25 26  1  0
 26 27  1  0
 22 28  1  0
 28 29  2  0
 29  2  1  0
 17  5  1  0
 29 19  1  0
 16 12  1  0
 27 23  2  0
  3 30  1  0
  3 31  1  0
  6 32  1  0
  7 33  1  0
  8 34  1  0
 13 35  1  0
 13 36  1  0
 14 37  1  0
 14 38  1  0
 15 39  1  0
 15 40  1  0
 16 41  1  0
 16 42  1  0
 17 43  1  0
 20 44  1  0
 21 45  1  0
 24 46  1  0
 25 47  1  0
 27 48  1  0
 28 49  1  0
M  END
>  <smiles>  (30) 
O=C1CC(c2cccc(C(=O)N3CCCC3)c2)=Nc2ccc(-c3ccoc3)cc21

>  <score_type>  (30) 
oracle

>  <origin>  (30) 
autodockgpu

>  <m_score__min__energy>  (30) 
-8.2799999999999994

>  <m_primary>  (30) 
energy

>  <rmsd>  (30) 
8.51770826439383

>  <m_score__min__rmsd>  (30) 
8.51770826439383

>  <meeko>  (30) 
{"free_energy": -7.69, "intermolecular_energy": -8.59, "internal_energy": -0.9, "cluster_size": 8, "cluster_id": 2, "rank_in_cluster": 2}

>  <energy>  (30) 
-7.8

>  <cluster_rmsd>  (30) 
1.73

>  <cluster>  (30) 
1

$$$$

     RDKit          3D

 49 53  0  0  0  0  0  0  0  0999 V2000
  142.9680   75.2330  220.1050 O   0  0  0  0  0  0  0  0  0  0  0  0
  141.9390   74.8920  220.7810 C   0  0  0  0  0  0  0  0  0  0  0  0
  141.6930   73.4400  220.8940 C   0  0  0  0  0  0  0  0  0  0  0  0
  140.4810   73.2200  221.7120 C   0  0  0  0  0  0  0  0  0  0  0  0
  140.0910   71.8330  221.9880 C   0  0  0  0  0  0  0  0  0  0  0  0
  140.1720   70.8290  221.0510 C   0  0  0  0  0  0  0  0  0  0  0  0
  139.7410   69.5290  221.3010 C   0  0  0  0  0  0  0  0  0  0  0  0
  139.1960   69.1920  222.5450 C   0  0  0  0  0  0  0  0  0  0  0  0
  139.1200   70.2040  223.4750 C   0  0  0  0  0  0  0  0  0  0  0  0
  138.5050   69.9850  224.8050 C   0  0  0  0  0  0  0  0  0  0  0  0
  137.2670   70.0060  224.9880 O   0  0  0  0  0  0  0  0  0  0  0  0
  139.4480   69.7450  225.8540 N   0  0  0  0  0  0  0  0  0  0  0  0
  139.2250   69.4750  227.2600 C   0  0  0  0  0  0  0  0  0  0  0  0
  140.3220   68.5080  227.6710 C   0  0  0  0  0  0  0  0  0  0  0  0
  141.2690   68.4700  226.4770 C   0  0  0  0  0  0  0  0  0  0  0  0
  140.9180   69.7310  225.7230 C   0  0  0  0  0  0  0  0  0  0  0  0
  139.5460   71.4900  223.2340 C   0  0  0  0  0  0  0  0  0  0  0  0
  139.7540   74.1300  222.2330 N   0  0  0  0  0  0  0  0  0  0  0  0
  140.0020   75.5150  222.1090 C   0  0  0  0  0  0  0  0  0  0  0  0
  139.2070   76.4700  222.7050 C   0  0  0  0  0  0  0  0  0  0  0  0
  139.5450   77.8130  222.5500 C   0  0  0  0  0  0  0  0  0  0  0  0
  140.6440   78.2100  221.8220 C   0  0  0  0  0  0  0  0  0  0  0  0
  141.0330   79.6160  221.6720 C   0  0  0  0  0  0  0  0  0  0  0  0
  141.5070   80.4190  222.7040 C   0  0  0  0  0  0  0  0  0  0  0  0
  141.7260   81.6510  222.1090 C   0  0  0  0  0  0  0  0  0  0  0  0
  141.4210   81.6180  220.8390 O   0  0  0  0  0  0  0  0  0  0  0  0
  140.9920   80.3960  220.5240 C   0  0  0  0  0  0  0  0  0  0  0  0
  141.4390   77.2540  221.2260 C   0  0  0  0  0  0  0  0  0  0  0  0
  141.1060   75.9170  221.3780 C   0  0  0  0  0  0  0  0  0  0  0  0
  141.5443   73.0119  219.8917 H   0  0  0  0  0  0  0  0  0  0  0  0
  142.5565   72.9524  221.3700 H   0  0  0  0  0  0  0  0  0  0  0  0
  140.5950   71.0631  220.0629 H   0  0  0  0  0  0  0  0  0  0  0  0
  139.8293   68.7629  220.5166 H   0  0  0  0  0  0  0  0  0  0  0  0
  138.8470   68.1729  222.7678 H   0  0  0  0  0  0  0  0  0  0  0  0
  139.2937   70.4042  227.8447 H   0  0  0  0  0  0  0  0  0  0  0  0
  138.2245   69.0545  227.4393 H   0  0  0  0  0  0  0  0  0  0  0  0
  140.8435   68.8714  228.5688 H   0  0  0  0  0  0  0  0  0  0  0  0
  139.9276   67.5123  227.9222 H   0  0  0  0  0  0  0  0  0  0  0  0
  142.3189   68.4849  226.8048 H   0  0  0  0  0  0  0  0  0  0  0  0
  141.1637   67.5589  225.8697 H   0  0  0  0  0  0  0  0  0  0  0  0
  141.3724   70.6182  226.1881 H   0  0  0  0  0  0  0  0  0  0  0  0
  141.2784   69.7502  224.6839 H   0  0  0  0  0  0  0  0  0  0  0  0
  139.4587   72.2525  224.0221 H   0  0  0  0  0  0  0  0  0  0  0  0
  138.3233   76.1780  223.2914 H   0  0  0  0  0  0  0  0  0  0  0  0
  138.9143   78.5795  223.0239 H   0  0  0  0  0  0  0  0  0  0  0  0
  141.6710   80.1392  223.7551 H   0  0  0  0  0  0  0  0  0  0  0  0
  142.1061   82.5387  222.6358 H   0  0  0  0  0  0  0  0  0  0  0  0
  140.6629   80.0635  219.5284 H   0  0  0  0  0  0  0  0  0  0  0  0
  142.3224   77.5473  220.6399 H   0  0  0  0  0  0  0  0  0  0  0  0
  1  2  2  0
  2  3  1  0
  3  4  1  0
  4  5  1  0
  5  6  2  0
  6  7  1  0
  7  8  2  0
  8  9  1  0
  9 10  1  0
 10 11  2  0
 10 12  1  0
 12 13  1  0
 13 14  1  0
 14 15  1  0
 15 16  1  0
  9 17  2  0
  4 18  2  0
 18 19  1  0
 19 20  2  0
 20 21  1  0
 21 22  2  0
 22 23  1  0
 23 24  1  0
 24 25  2  0
 25 26  1  0
 26 27  1  0
 22 28  1  0
 28 29  2  0
 29  2  1  0
 17  5  1  0
 29 19  1  0
 16 12  1  0
 27 23  2  0
  3 30  1  0
  3 31  1  0
  6 32  1  0
  7 33  1  0
  8 34  1  0
 13 35  1  0
 13 36  1  0
 14 37  1  0
 14 38  1  0
 15 39  1  0
 15 40  1  0
 16 41  1  0
 16 42  1  0
 17 43  1  0
 20 44  1  0
 21 45  1  0
 24 46  1  0
 25 47  1  0
 27 48  1  0
 28 49  1  0
M  END
>  <smiles>  (31) 
O=C1CC(c2cccc(C(=O)N3CCCC3)c2)=Nc2ccc(-c3ccoc3)cc21

>  <score_type>  (31) 
oracle

>  <origin>  (31) 
autodockgpu

>  <m_score__min__energy>  (31) 
-8.2799999999999994

>  <m_primary>  (31) 
energy

>  <rmsd>  (31) 
6.869117723867073

>  <m_score__min__rmsd>  (31) 
6.869117723867073

>  <meeko>  (31) 
{"free_energy": -7.84, "intermolecular_energy": -8.73, "internal_energy": -0.94, "cluster_size": 40, "cluster_id": 1, "rank_in_cluster": 16}

>  <energy>  (31) 
-7.8

>  <cluster_rmsd>  (31) 
1.72

>  <cluster>  (31) 
1

$$$$

     RDKit          3D

 49 53  0  0  0  0  0  0  0  0999 V2000
  143.0110   75.2760  220.1530 O   0  0  0  0  0  0  0  0  0  0  0  0
  141.9730   74.9270  220.8110 C   0  0  0  0  0  0  0  0  0  0  0  0
  141.7360   73.4730  220.9210 C   0  0  0  0  0  0  0  0  0  0  0  0
  140.5120   73.2450  221.7180 C   0  0  0  0  0  0  0  0  0  0  0  0
  140.1270   71.8550  221.9880 C   0  0  0  0  0  0  0  0  0  0  0  0
  140.2140   70.8560  221.0470 C   0  0  0  0  0  0  0  0  0  0  0  0
  139.7890   69.5530  221.2900 C   0  0  0  0  0  0  0  0  0  0  0  0
  139.2430   69.2090  222.5320 C   0  0  0  0  0  0  0  0  0  0  0  0
  139.1600   70.2160  223.4660 C   0  0  0  0  0  0  0  0  0  0  0  0
  138.5440   69.9890  224.7940 C   0  0  0  0  0  0  0  0  0  0  0  0
  137.3060   70.0030  224.9740 O   0  0  0  0  0  0  0  0  0  0  0  0
  139.4860   69.7510  225.8440 N   0  0  0  0  0  0  0  0  0  0  0  0
  139.2620   69.4740  227.2480 C   0  0  0  0  0  0  0  0  0  0  0  0
  140.3620   68.5120  227.6590 C   0  0  0  0  0  0  0  0  0  0  0  0
  141.3120   68.4830  226.4660 C   0  0  0  0  0  0  0  0  0  0  0  0
  140.9570   69.7450  225.7160 C   0  0  0  0  0  0  0  0  0  0  0  0
  139.5820   71.5050  223.2310 C   0  0  0  0  0  0  0  0  0  0  0  0
  139.7690   74.1490  222.2250 N   0  0  0  0  0  0  0  0  0  0  0  0
  140.0090   75.5370  222.1050 C   0  0  0  0  0  0  0  0  0  0  0  0
  139.1970   76.4860  222.6870 C   0  0  0  0  0  0  0  0  0  0  0  0
  139.5280   77.8320  222.5380 C   0  0  0  0  0  0  0  0  0  0  0  0
  140.6360   78.2360  221.8280 C   0  0  0  0  0  0  0  0  0  0  0  0
  141.0170   79.6450  221.6840 C   0  0  0  0  0  0  0  0  0  0  0  0
  141.7050   80.3790  222.6450 C   0  0  0  0  0  0  0  0  0  0  0  0
  141.8280   81.6430  222.0890 C   0  0  0  0  0  0  0  0  0  0  0  0
  141.2750   81.6900  220.9070 O   0  0  0  0  0  0  0  0  0  0  0  0
  140.7650   80.4940  220.6140 C   0  0  0  0  0  0  0  0  0  0  0  0
  141.4480   77.2860  221.2460 C   0  0  0  0  0  0  0  0  0  0  0  0
  141.1230   75.9470  221.3930 C   0  0  0  0  0  0  0  0  0  0  0  0
  141.6078   73.0430  219.9167 H   0  0  0  0  0  0  0  0  0  0  0  0
  142.5948   72.9921  221.4121 H   0  0  0  0  0  0  0  0  0  0  0  0
  140.6373   71.0968  220.0607 H   0  0  0  0  0  0  0  0  0  0  0  0
  139.8826   68.7905  220.5027 H   0  0  0  0  0  0  0  0  0  0  0  0
  138.8984   68.1874  222.7500 H   0  0  0  0  0  0  0  0  0  0  0  0
  139.3243   70.4014  227.8363 H   0  0  0  0  0  0  0  0  0  0  0  0
  138.2636   69.0467  227.4226 H   0  0  0  0  0  0  0  0  0  0  0  0
  140.8796   68.8753  228.5590 H   0  0  0  0  0  0  0  0  0  0  0  0
  139.9724   67.5136  227.9069 H   0  0  0  0  0  0  0  0  0  0  0  0
  142.3612   68.5014  226.7959 H   0  0  0  0  0  0  0  0  0  0  0  0
  141.2119   67.5738  225.8550 H   0  0  0  0  0  0  0  0  0  0  0  0
  141.4060   70.6327  226.1855 H   0  0  0  0  0  0  0  0  0  0  0  0
  141.3198   69.7702  224.6779 H   0  0  0  0  0  0  0  0  0  0  0  0
  139.4911   72.2637  224.0222 H   0  0  0  0  0  0  0  0  0  0  0  0
  138.3054   76.1875  223.2578 H   0  0  0  0  0  0  0  0  0  0  0  0
  138.8845   78.5941  223.0017 H   0  0  0  0  0  0  0  0  0  0  0  0
  142.0689   80.0344  223.6242 H   0  0  0  0  0  0  0  0  0  0  0  0
  142.3253   82.4933  222.5785 H   0  0  0  0  0  0  0  0  0  0  0  0
  140.2369   80.2261  219.6870 H   0  0  0  0  0  0  0  0  0  0  0  0
  142.3388   77.5859  220.6746 H   0  0  0  0  0  0  0  0  0  0  0  0
  1  2  2  0
  2  3  1  0
  3  4  1  0
  4  5  1  0
  5  6  2  0
  6  7  1  0
  7  8  2  0
  8  9  1  0
  9 10  1  0
 10 11  2  0
 10 12  1  0
 12 13  1  0
 13 14  1  0
 14 15  1  0
 15 16  1  0
  9 17  2  0
  4 18  2  0
 18 19  1  0
 19 20  2  0
 20 21  1  0
 21 22  2  0
 22 23  1  0
 23 24  1  0
 24 25  2  0
 25 26  1  0
 26 27  1  0
 22 28  1  0
 28 29  2  0
 29  2  1  0
 17  5  1  0
 29 19  1  0
 16 12  1  0
 27 23  2  0
  3 30  1  0
  3 31  1  0
  6 32  1  0
  7 33  1  0
  8 34  1  0
 13 35  1  0
 13 36  1  0
 14 37  1  0
 14 38  1  0
 15 39  1  0
 15 40  1  0
 16 41  1  0
 16 42  1  0
 17 43  1  0
 20 44  1  0
 21 45  1  0
 24 46  1  0
 25 47  1  0
 27 48  1  0
 28 49  1  0
M  END
>  <smiles>  (32) 
O=C1CC(c2cccc(C(=O)N3CCCC3)c2)=Nc2ccc(-c3ccoc3)cc21

>  <score_type>  (32) 
oracle

>  <origin>  (32) 
autodockgpu

>  <m_score__min__energy>  (32) 
-8.2799999999999994

>  <m_primary>  (32) 
energy

>  <rmsd>  (32) 
6.873368963786651

>  <m_score__min__rmsd>  (32) 
6.873368963786651

>  <meeko>  (32) 
{"free_energy": -7.84, "intermolecular_energy": -8.73, "internal_energy": -0.94, "cluster_size": 40, "cluster_id": 1, "rank_in_cluster": 17}

>  <energy>  (32) 
-7.8

>  <cluster_rmsd>  (32) 
1.72

>  <cluster>  (32) 
1

$$$$

     RDKit          3D

 49 53  0  0  0  0  0  0  0  0999 V2000
  142.9970   75.2600  220.1310 O   0  0  0  0  0  0  0  0  0  0  0  0
  141.9610   74.9170  220.7940 C   0  0  0  0  0  0  0  0  0  0  0  0
  141.7170   73.4640  220.9060 C   0  0  0  0  0  0  0  0  0  0  0  0
  140.4950   73.2430  221.7090 C   0  0  0  0  0  0  0  0  0  0  0  0
  140.1050   71.8550  221.9810 C   0  0  0  0  0  0  0  0  0  0  0  0
  140.1880   70.8530  221.0420 C   0  0  0  0  0  0  0  0  0  0  0  0
  139.7570   69.5530  221.2890 C   0  0  0  0  0  0  0  0  0  0  0  0
  139.2100   69.2130  222.5320 C   0  0  0  0  0  0  0  0  0  0  0  0
  139.1330   70.2230  223.4640 C   0  0  0  0  0  0  0  0  0  0  0  0
  138.5160   70.0010  224.7920 C   0  0  0  0  0  0  0  0  0  0  0  0
  137.2770   70.0160  224.9720 O   0  0  0  0  0  0  0  0  0  0  0  0
  139.4580   69.7670  225.8430 N   0  0  0  0  0  0  0  0  0  0  0  0
  139.2340   69.4960  227.2490 C   0  0  0  0  0  0  0  0  0  0  0  0
  140.3340   68.5360  227.6630 C   0  0  0  0  0  0  0  0  0  0  0  0
  141.2840   68.5020  226.4710 C   0  0  0  0  0  0  0  0  0  0  0  0
  140.9280   69.7600  225.7160 C   0  0  0  0  0  0  0  0  0  0  0  0
  139.5590   71.5100  223.2260 C   0  0  0  0  0  0  0  0  0  0  0  0
  139.7590   74.1510  222.2190 N   0  0  0  0  0  0  0  0  0  0  0  0
  140.0060   75.5370  222.0960 C   0  0  0  0  0  0  0  0  0  0  0  0
  139.2010   76.4910  222.6810 C   0  0  0  0  0  0  0  0  0  0  0  0
  139.5370   77.8350  222.5290 C   0  0  0  0  0  0  0  0  0  0  0  0
  140.6440   78.2330  221.8140 C   0  0  0  0  0  0  0  0  0  0  0  0
  141.0320   79.6400  221.6660 C   0  0  0  0  0  0  0  0  0  0  0  0
  141.3640   80.4830  222.7230 C   0  0  0  0  0  0  0  0  0  0  0  0
  141.6400   81.6990  222.1190 C   0  0  0  0  0  0  0  0  0  0  0  0
  141.4960   81.6210  220.8230 O   0  0  0  0  0  0  0  0  0  0  0  0
  141.1250   80.3840  220.4970 C   0  0  0  0  0  0  0  0  0  0  0  0
  141.4490   77.2790  221.2290 C   0  0  0  0  0  0  0  0  0  0  0  0
  141.1180   75.9410  221.3780 C   0  0  0  0  0  0  0  0  0  0  0  0
  141.5820   73.0340  219.9026 H   0  0  0  0  0  0  0  0  0  0  0  0
  142.5755   72.9788  221.3934 H   0  0  0  0  0  0  0  0  0  0  0  0
  140.6126   71.0891  220.0551 H   0  0  0  0  0  0  0  0  0  0  0  0
  139.8466   68.7884  220.5032 H   0  0  0  0  0  0  0  0  0  0  0  0
  138.8605   68.1935  222.7520 H   0  0  0  0  0  0  0  0  0  0  0  0
  139.2965   70.4258  227.8334 H   0  0  0  0  0  0  0  0  0  0  0  0
  138.2355   69.0698  227.4261 H   0  0  0  0  0  0  0  0  0  0  0  0
  140.8516   68.9028  228.5616 H   0  0  0  0  0  0  0  0  0  0  0  0
  139.9442   67.5385  227.9142 H   0  0  0  0  0  0  0  0  0  0  0  0
  142.3331   68.5226  226.8010 H   0  0  0  0  0  0  0  0  0  0  0  0
  141.1851   67.5899  225.8641 H   0  0  0  0  0  0  0  0  0  0  0  0
  141.3767   70.6498  226.1818 H   0  0  0  0  0  0  0  0  0  0  0  0
  141.2906   69.7802  224.6777 H   0  0  0  0  0  0  0  0  0  0  0  0
  139.4709   72.2710  224.0154 H   0  0  0  0  0  0  0  0  0  0  0  0
  138.3108   76.1972  223.2565 H   0  0  0  0  0  0  0  0  0  0  0  0
  138.8986   78.6006  222.9942 H   0  0  0  0  0  0  0  0  0  0  0  0
  141.3992   80.2389  223.7950 H   0  0  0  0  0  0  0  0  0  0  0  0
  141.9404   82.6090  222.6590 H   0  0  0  0  0  0  0  0  0  0  0  0
  140.9269   80.0160  219.4795 H   0  0  0  0  0  0  0  0  0  0  0  0
  142.3389   77.5744  220.6538 H   0  0  0  0  0  0  0  0  0  0  0  0
  1  2  2  0
  2  3  1  0
  3  4  1  0
  4  5  1  0
  5  6  2  0
  6  7  1  0
  7  8  2  0
  8  9  1  0
  9 10  1  0
 10 11  2  0
 10 12  1  0
 12 13  1  0
 13 14  1  0
 14 15  1  0
 15 16  1  0
  9 17  2  0
  4 18  2  0
 18 19  1  0
 19 20  2  0
 20 21  1  0
 21 22  2  0
 22 23  1  0
 23 24  1  0
 24 25  2  0
 25 26  1  0
 26 27  1  0
 22 28  1  0
 28 29  2  0
 29  2  1  0
 17  5  1  0
 29 19  1  0
 16 12  1  0
 27 23  2  0
  3 30  1  0
  3 31  1  0
  6 32  1  0
  7 33  1  0
  8 34  1  0
 13 35  1  0
 13 36  1  0
 14 37  1  0
 14 38  1  0
 15 39  1  0
 15 40  1  0
 16 41  1  0
 16 42  1  0
 17 43  1  0
 20 44  1  0
 21 45  1  0
 24 46  1  0
 25 47  1  0
 27 48  1  0
 28 49  1  0
M  END
>  <smiles>  (33) 
O=C1CC(c2cccc(C(=O)N3CCCC3)c2)=Nc2ccc(-c3ccoc3)cc21

>  <score_type>  (33) 
oracle

>  <origin>  (33) 
autodockgpu

>  <m_score__min__energy>  (33) 
-8.2799999999999994

>  <m_primary>  (33) 
energy

>  <rmsd>  (33) 
6.871176788255687

>  <m_score__min__rmsd>  (33) 
6.871176788255687

>  <meeko>  (33) 
{"free_energy": -7.84, "intermolecular_energy": -8.73, "internal_energy": -0.94, "cluster_size": 40, "cluster_id": 1, "rank_in_cluster": 19}

>  <energy>  (33) 
-7.8

>  <cluster_rmsd>  (33) 
1.73

>  <cluster>  (33) 
1

$$$$

     RDKit          3D

 49 53  0  0  0  0  0  0  0  0999 V2000
  146.3230   72.8850  219.7160 O   0  0  0  0  0  0  0  0  0  0  0  0
  145.0510   72.9880  219.6450 C   0  0  0  0  0  0  0  0  0  0  0  0
  144.5100   74.3610  219.6920 C   0  0  0  0  0  0  0  0  0  0  0  0
  143.0370   74.3010  219.5870 C   0  0  0  0  0  0  0  0  0  0  0  0
  142.3060   75.5730  219.5630 C   0  0  0  0  0  0  0  0  0  0  0  0
  142.1870   76.3500  218.4340 C   0  0  0  0  0  0  0  0  0  0  0  0
  141.5460   77.5860  218.4340 C   0  0  0  0  0  0  0  0  0  0  0  0
  140.9880   78.0910  219.6130 C   0  0  0  0  0  0  0  0  0  0  0  0
  141.1120   77.3060  220.7370 C   0  0  0  0  0  0  0  0  0  0  0  0
  140.6160   77.7620  222.0560 C   0  0  0  0  0  0  0  0  0  0  0  0
  139.7770   77.1160  222.7220 O   0  0  0  0  0  0  0  0  0  0  0  0
  141.1830   78.9990  222.4980 N   0  0  0  0  0  0  0  0  0  0  0  0
  140.9600   79.7370  223.7250 C   0  0  0  0  0  0  0  0  0  0  0  0
  142.2940   80.3750  224.0700 C   0  0  0  0  0  0  0  0  0  0  0  0
  143.1650   80.1320  222.8420 C   0  0  0  0  0  0  0  0  0  0  0  0
  142.1540   79.8310  221.7610 C   0  0  0  0  0  0  0  0  0  0  0  0
  141.7420   76.0830  220.7410 C   0  0  0  0  0  0  0  0  0  0  0  0
  142.3360   73.2400  219.4810 N   0  0  0  0  0  0  0  0  0  0  0  0
  142.8720   71.9330  219.4440 C   0  0  0  0  0  0  0  0  0  0  0  0
  142.0850   70.8100  219.3060 C   0  0  0  0  0  0  0  0  0  0  0  0
  142.7040   69.5620  219.2510 C   0  0  0  0  0  0  0  0  0  0  0  0
  144.0710   69.4220  219.3310 C   0  0  0  0  0  0  0  0  0  0  0  0
  144.7430   68.1210  219.2470 C   0  0  0  0  0  0  0  0  0  0  0  0
  144.1100   66.9250  218.9230 C   0  0  0  0  0  0  0  0  0  0  0  0
  145.1190   65.9770  218.9800 C   0  0  0  0  0  0  0  0  0  0  0  0
  146.2590   66.5250  219.3040 O   0  0  0  0  0  0  0  0  0  0  0  0
  146.0820   67.8340  219.4780 C   0  0  0  0  0  0  0  0  0  0  0  0
  144.8570   70.5460  219.4700 C   0  0  0  0  0  0  0  0  0  0  0  0
  144.2460   71.7890  219.5240 C   0  0  0  0  0  0  0  0  0  0  0  0
  144.7930   74.8367  220.6426 H   0  0  0  0  0  0  0  0  0  0  0  0
  144.9186   74.9505  218.8580 H   0  0  0  0  0  0  0  0  0  0  0  0
  142.6163   75.9792  217.4916 H   0  0  0  0  0  0  0  0  0  0  0  0
  141.4781   78.1678  217.5029 H   0  0  0  0  0  0  0  0  0  0  0  0
  140.4768   79.0646  219.6406 H   0  0  0  0  0  0  0  0  0  0  0  0
  140.1929   80.5106  223.5731 H   0  0  0  0  0  0  0  0  0  0  0  0
  140.6026   79.0819  224.5331 H   0  0  0  0  0  0  0  0  0  0  0  0
  142.1732   81.4529  224.2534 H   0  0  0  0  0  0  0  0  0  0  0  0
  142.7348   79.9520  224.9847 H   0  0  0  0  0  0  0  0  0  0  0  0
  143.7553   81.0262  222.5930 H   0  0  0  0  0  0  0  0  0  0  0  0
  143.8994   79.3256  222.9847 H   0  0  0  0  0  0  0  0  0  0  0  0
  141.6877   80.7508  221.3782 H   0  0  0  0  0  0  0  0  0  0  0  0
  142.5782   79.3460  220.8695 H   0  0  0  0  0  0  0  0  0  0  0  0
  141.8036   75.5023  221.6732 H   0  0  0  0  0  0  0  0  0  0  0  0
  140.9904   70.8967  219.2406 H   0  0  0  0  0  0  0  0  0  0  0  0
  142.0812   68.6621  219.1404 H   0  0  0  0  0  0  0  0  0  0  0  0
  143.0494   66.7678  218.6774 H   0  0  0  0  0  0  0  0  0  0  0  0
  144.9782   64.9047  218.7789 H   0  0  0  0  0  0  0  0  0  0  0  0
  146.8601   68.5602  219.7559 H   0  0  0  0  0  0  0  0  0  0  0  0
  145.9514   70.4578  219.5370 H   0  0  0  0  0  0  0  0  0  0  0  0
  1  2  2  0
  2  3  1  0
  3  4  1  0
  4  5  1  0
  5  6  2  0
  6  7  1  0
  7  8  2  0
  8  9  1  0
  9 10  1  0
 10 11  2  0
 10 12  1  0
 12 13  1  0
 13 14  1  0
 14 15  1  0
 15 16  1  0
  9 17  2  0
  4 18  2  0
 18 19  1  0
 19 20  2  0
 20 21  1  0
 21 22  2  0
 22 23  1  0
 23 24  1  0
 24 25  2  0
 25 26  1  0
 26 27  1  0
 22 28  1  0
 28 29  2  0
 29  2  1  0
 17  5  1  0
 29 19  1  0
 16 12  1  0
 27 23  2  0
  3 30  1  0
  3 31  1  0
  6 32  1  0
  7 33  1  0
  8 34  1  0
 13 35  1  0
 13 36  1  0
 14 37  1  0
 14 38  1  0
 15 39  1  0
 15 40  1  0
 16 41  1  0
 16 42  1  0
 17 43  1  0
 20 44  1  0
 21 45  1  0
 24 46  1  0
 25 47  1  0
 27 48  1  0
 28 49  1  0
M  END
>  <smiles>  (34) 
O=C1CC(c2cccc(C(=O)N3CCCC3)c2)=Nc2ccc(-c3ccoc3)cc21

>  <score_type>  (34) 
oracle

>  <origin>  (34) 
autodockgpu

>  <m_score__min__energy>  (34) 
-8.2799999999999994

>  <m_primary>  (34) 
energy

>  <rmsd>  (34) 
8.193326613139234

>  <m_score__min__rmsd>  (34) 
8.193326613139234

>  <meeko>  (34) 
{"free_energy": -7.73, "intermolecular_energy": -8.62, "internal_energy": -0.79, "cluster_size": 8, "cluster_id": 2, "rank_in_cluster": 1}

>  <energy>  (34) 
-7.79

>  <cluster_rmsd>  (34) 
1.71

>  <cluster>  (34) 
1

$$$$

     RDKit          3D

 49 53  0  0  0  0  0  0  0  0999 V2000
  142.9970   75.2260  220.1490 O   0  0  0  0  0  0  0  0  0  0  0  0
  141.9580   74.8850  220.8090 C   0  0  0  0  0  0  0  0  0  0  0  0
  141.7110   73.4330  220.9210 C   0  0  0  0  0  0  0  0  0  0  0  0
  140.4860   73.2130  221.7200 C   0  0  0  0  0  0  0  0  0  0  0  0
  140.0940   71.8270  221.9930 C   0  0  0  0  0  0  0  0  0  0  0  0
  140.1450   70.8310  221.0450 C   0  0  0  0  0  0  0  0  0  0  0  0
  139.7110   69.5320  221.2930 C   0  0  0  0  0  0  0  0  0  0  0  0
  139.1940   69.1870  222.5470 C   0  0  0  0  0  0  0  0  0  0  0  0
  139.1480   70.1910  223.4880 C   0  0  0  0  0  0  0  0  0  0  0  0
  138.5640   69.9630  224.8300 C   0  0  0  0  0  0  0  0  0  0  0  0
  137.3300   69.9700  225.0390 O   0  0  0  0  0  0  0  0  0  0  0  0
  139.5320   69.7330  225.8580 N   0  0  0  0  0  0  0  0  0  0  0  0
  139.3420   69.4580  227.2680 C   0  0  0  0  0  0  0  0  0  0  0  0
  140.4570   68.5030  227.6550 C   0  0  0  0  0  0  0  0  0  0  0  0
  141.3790   68.4770  226.4410 C   0  0  0  0  0  0  0  0  0  0  0  0
  140.9980   69.7340  225.6960 C   0  0  0  0  0  0  0  0  0  0  0  0
  139.5770   71.4760  223.2480 C   0  0  0  0  0  0  0  0  0  0  0  0
  139.7500   74.1230  222.2270 N   0  0  0  0  0  0  0  0  0  0  0  0
  139.9990   75.5090  222.1030 C   0  0  0  0  0  0  0  0  0  0  0  0
  139.1930   76.4640  222.6840 C   0  0  0  0  0  0  0  0  0  0  0  0
  139.5320   77.8080  222.5320 C   0  0  0  0  0  0  0  0  0  0  0  0
  140.6420   78.2040  221.8210 C   0  0  0  0  0  0  0  0  0  0  0  0
  141.0320   79.6100  221.6740 C   0  0  0  0  0  0  0  0  0  0  0  0
  141.5170   80.4070  222.7060 C   0  0  0  0  0  0  0  0  0  0  0  0
  141.7330   81.6420  222.1140 C   0  0  0  0  0  0  0  0  0  0  0  0
  141.4150   81.6150  220.8480 O   0  0  0  0  0  0  0  0  0  0  0  0
  140.9810   80.3960  220.5300 C   0  0  0  0  0  0  0  0  0  0  0  0
  141.4480   77.2480  221.2400 C   0  0  0  0  0  0  0  0  0  0  0  0
  141.1140   75.9110  221.3900 C   0  0  0  0  0  0  0  0  0  0  0  0
  141.5788   73.0029  219.9172 H   0  0  0  0  0  0  0  0  0  0  0  0
  142.5671   72.9473  221.4120 H   0  0  0  0  0  0  0  0  0  0  0  0
  140.5457   71.0715  220.0492 H   0  0  0  0  0  0  0  0  0  0  0  0
  139.7746   68.7728  220.4995 H   0  0  0  0  0  0  0  0  0  0  0  0
  138.8432   68.1683  222.7689 H   0  0  0  0  0  0  0  0  0  0  0  0
  139.4127   70.3870  227.8528 H   0  0  0  0  0  0  0  0  0  0  0  0
  138.3503   69.0257  227.4670 H   0  0  0  0  0  0  0  0  0  0  0  0
  140.9932   68.8710  228.5422 H   0  0  0  0  0  0  0  0  0  0  0  0
  140.0790   67.5029  227.9135 H   0  0  0  0  0  0  0  0  0  0  0  0
  142.4354   68.5037  226.7465 H   0  0  0  0  0  0  0  0  0  0  0  0
  141.2712   67.5653  225.8351 H   0  0  0  0  0  0  0  0  0  0  0  0
  141.4529   70.6258  226.1519 H   0  0  0  0  0  0  0  0  0  0  0  0
  141.3355   69.7570  224.6493 H   0  0  0  0  0  0  0  0  0  0  0  0
  139.5140   72.2318  224.0448 H   0  0  0  0  0  0  0  0  0  0  0  0
  138.3001   76.1719  223.2562 H   0  0  0  0  0  0  0  0  0  0  0  0
  138.8931   78.5749  222.9942 H   0  0  0  0  0  0  0  0  0  0  0  0
  141.6899   80.1219  223.7542 H   0  0  0  0  0  0  0  0  0  0  0  0
  142.1206   82.5265  222.6407 H   0  0  0  0  0  0  0  0  0  0  0  0
  140.6418   80.0694  219.5359 H   0  0  0  0  0  0  0  0  0  0  0  0
  142.3404   77.5411  220.6675 H   0  0  0  0  0  0  0  0  0  0  0  0
  1  2  2  0
  2  3  1  0
  3  4  1  0
  4  5  1  0
  5  6  2  0
  6  7  1  0
  7  8  2  0
  8  9  1  0
  9 10  1  0
 10 11  2  0
 10 12  1  0
 12 13  1  0
 13 14  1  0
 14 15  1  0
 15 16  1  0
  9 17  2  0
  4 18  2  0
 18 19  1  0
 19 20  2  0
 20 21  1  0
 21 22  2  0
 22 23  1  0
 23 24  1  0
 24 25  2  0
 25 26  1  0
 26 27  1  0
 22 28  1  0
 28 29  2  0
 29  2  1  0
 17  5  1  0
 29 19  1  0
 16 12  1  0
 27 23  2  0
  3 30  1  0
  3 31  1  0
  6 32  1  0
  7 33  1  0
  8 34  1  0
 13 35  1  0
 13 36  1  0
 14 37  1  0
 14 38  1  0
 15 39  1  0
 15 40  1  0
 16 41  1  0
 16 42  1  0
 17 43  1  0
 20 44  1  0
 21 45  1  0
 24 46  1  0
 25 47  1  0
 27 48  1  0
 28 49  1  0
M  END
>  <smiles>  (35) 
O=C1CC(c2cccc(C(=O)N3CCCC3)c2)=Nc2ccc(-c3ccoc3)cc21

>  <score_type>  (35) 
oracle

>  <origin>  (35) 
autodockgpu

>  <m_score__min__energy>  (35) 
-8.2799999999999994

>  <m_primary>  (35) 
energy

>  <rmsd>  (35) 
6.870686022570133

>  <m_score__min__rmsd>  (35) 
6.870686022570133

>  <meeko>  (35) 
{"free_energy": -7.83, "intermolecular_energy": -8.73, "internal_energy": -0.93, "cluster_size": 40, "cluster_id": 1, "rank_in_cluster": 23}

>  <energy>  (35) 
-7.79

>  <cluster_rmsd>  (35) 
1.71

>  <cluster>  (35) 
1

$$$$

     RDKit          3D

 49 53  0  0  0  0  0  0  0  0999 V2000
  142.9790   75.2800  220.1270 O   0  0  0  0  0  0  0  0  0  0  0  0
  141.9480   74.9340  220.7970 C   0  0  0  0  0  0  0  0  0  0  0  0
  141.7040   73.4820  220.9050 C   0  0  0  0  0  0  0  0  0  0  0  0
  140.4890   73.2570  221.7170 C   0  0  0  0  0  0  0  0  0  0  0  0
  140.1000   71.8690  221.9870 C   0  0  0  0  0  0  0  0  0  0  0  0
  140.1850   70.8680  221.0460 C   0  0  0  0  0  0  0  0  0  0  0  0
  139.7560   69.5670  221.2900 C   0  0  0  0  0  0  0  0  0  0  0  0
  139.2090   69.2250  222.5310 C   0  0  0  0  0  0  0  0  0  0  0  0
  139.1280   70.2330  223.4650 C   0  0  0  0  0  0  0  0  0  0  0  0
  138.5100   70.0080  224.7930 C   0  0  0  0  0  0  0  0  0  0  0  0
  137.2710   70.0160  224.9700 O   0  0  0  0  0  0  0  0  0  0  0  0
  139.4520   69.7790  225.8460 N   0  0  0  0  0  0  0  0  0  0  0  0
  139.2260   69.5070  227.2510 C   0  0  0  0  0  0  0  0  0  0  0  0
  140.3310   68.5530  227.6670 C   0  0  0  0  0  0  0  0  0  0  0  0
  141.2830   68.5240  226.4770 C   0  0  0  0  0  0  0  0  0  0  0  0
  140.9220   69.7810  225.7210 C   0  0  0  0  0  0  0  0  0  0  0  0
  139.5530   71.5200  223.2300 C   0  0  0  0  0  0  0  0  0  0  0  0
  139.7580   74.1640  222.2360 N   0  0  0  0  0  0  0  0  0  0  0  0
  140.0040   75.5500  222.1170 C   0  0  0  0  0  0  0  0  0  0  0  0
  139.2040   76.5020  222.7130 C   0  0  0  0  0  0  0  0  0  0  0  0
  139.5400   77.8460  222.5640 C   0  0  0  0  0  0  0  0  0  0  0  0
  140.6410   78.2470  221.8420 C   0  0  0  0  0  0  0  0  0  0  0  0
  141.0280   79.6550  221.6970 C   0  0  0  0  0  0  0  0  0  0  0  0
  140.8920   80.3940  220.5270 C   0  0  0  0  0  0  0  0  0  0  0  0
  141.3930   81.6450  220.8510 C   0  0  0  0  0  0  0  0  0  0  0  0
  141.7970   81.6800  222.0920 O   0  0  0  0  0  0  0  0  0  0  0  0
  141.5960   80.4880  222.6520 C   0  0  0  0  0  0  0  0  0  0  0  0
  141.4410   77.2950  221.2470 C   0  0  0  0  0  0  0  0  0  0  0  0
  141.1110   75.9570  221.3930 C   0  0  0  0  0  0  0  0  0  0  0  0
  141.5605   73.0565  219.9008 H   0  0  0  0  0  0  0  0  0  0  0  0
  142.5663   72.9949  221.3837 H   0  0  0  0  0  0  0  0  0  0  0  0
  140.6099   71.1065  220.0598 H   0  0  0  0  0  0  0  0  0  0  0  0
  139.8475   68.8038  220.5031 H   0  0  0  0  0  0  0  0  0  0  0  0
  138.8618   68.2043  222.7492 H   0  0  0  0  0  0  0  0  0  0  0  0
  139.2819   70.4371  227.8357 H   0  0  0  0  0  0  0  0  0  0  0  0
  138.2294   69.0754  227.4261 H   0  0  0  0  0  0  0  0  0  0  0  0
  140.8450   68.9229  228.5665 H   0  0  0  0  0  0  0  0  0  0  0  0
  139.9463   67.5534  227.9176 H   0  0  0  0  0  0  0  0  0  0  0  0
  142.3314   68.5498  226.8089 H   0  0  0  0  0  0  0  0  0  0  0  0
  141.1896   67.6115  225.8698 H   0  0  0  0  0  0  0  0  0  0  0  0
  141.3649   70.6732  226.1876 H   0  0  0  0  0  0  0  0  0  0  0  0
  141.2866   69.8040  224.6834 H   0  0  0  0  0  0  0  0  0  0  0  0
  139.4633   72.2791  224.0211 H   0  0  0  0  0  0  0  0  0  0  0  0
  138.3183   76.2063  223.2944 H   0  0  0  0  0  0  0  0  0  0  0  0
  138.9060   78.6098  223.0379 H   0  0  0  0  0  0  0  0  0  0  0  0
  140.4801   80.0612  219.5628 H   0  0  0  0  0  0  0  0  0  0  0  0
  141.4435   82.4953  220.1550 H   0  0  0  0  0  0  0  0  0  0  0  0
  141.8376   80.2120  223.6890 H   0  0  0  0  0  0  0  0  0  0  0  0
  142.3265   77.5924  220.6660 H   0  0  0  0  0  0  0  0  0  0  0  0
  1  2  2  0
  2  3  1  0
  3  4  1  0
  4  5  1  0
  5  6  2  0
  6  7  1  0
  7  8  2  0
  8  9  1  0
  9 10  1  0
 10 11  2  0
 10 12  1  0
 12 13  1  0
 13 14  1  0
 14 15  1  0
 15 16  1  0
  9 17  2  0
  4 18  2  0
 18 19  1  0
 19 20  2  0
 20 21  1  0
 21 22  2  0
 22 23  1  0
 23 24  1  0
 24 25  2  0
 25 26  1  0
 26 27  1  0
 22 28  1  0
 28 29  2  0
 29  2  1  0
 17  5  1  0
 29 19  1  0
 16 12  1  0
 27 23  2  0
  3 30  1  0
  3 31  1  0
  6 32  1  0
  7 33  1  0
  8 34  1  0
 13 35  1  0
 13 36  1  0
 14 37  1  0
 14 38  1  0
 15 39  1  0
 15 40  1  0
 16 41  1  0
 16 42  1  0
 17 43  1  0
 20 44  1  0
 21 45  1  0
 24 46  1  0
 25 47  1  0
 27 48  1  0
 28 49  1  0
M  END
>  <smiles>  (36) 
O=C1CC(c2cccc(C(=O)N3CCCC3)c2)=Nc2ccc(-c3ccoc3)cc21

>  <score_type>  (36) 
oracle

>  <origin>  (36) 
autodockgpu

>  <m_score__min__energy>  (36) 
-8.2799999999999994

>  <m_primary>  (36) 
energy

>  <rmsd>  (36) 
6.872097758287075

>  <m_score__min__rmsd>  (36) 
6.872097758287075

>  <meeko>  (36) 
{"free_energy": -7.8, "intermolecular_energy": -8.7, "internal_energy": -0.94, "cluster_size": 40, "cluster_id": 1, "rank_in_cluster": 30}

>  <energy>  (36) 
-7.79

>  <cluster_rmsd>  (36) 
1.73

>  <cluster>  (36) 
1

$$$$

     RDKit          3D

 49 53  0  0  0  0  0  0  0  0999 V2000
  140.5670   73.0170  222.3580 O   0  0  0  0  0  0  0  0  0  0  0  0
  141.4490   73.4260  221.5290 C   0  0  0  0  0  0  0  0  0  0  0  0
  142.2720   72.3780  220.8910 C   0  0  0  0  0  0  0  0  0  0  0  0
  143.2260   73.0170  219.9600 C   0  0  0  0  0  0  0  0  0  0  0  0
  144.1060   72.1380  219.1820 C   0  0  0  0  0  0  0  0  0  0  0  0
  144.7330   72.5370  218.0250 C   0  0  0  0  0  0  0  0  0  0  0  0
  145.5170   71.6780  217.2580 C   0  0  0  0  0  0  0  0  0  0  0  0
  145.6950   70.3470  217.6500 C   0  0  0  0  0  0  0  0  0  0  0  0
  145.0640   69.9590  218.8090 C   0  0  0  0  0  0  0  0  0  0  0  0
  145.1270   68.5590  219.2910 C   0  0  0  0  0  0  0  0  0  0  0  0
  145.9870   68.1660  220.1110 O   0  0  0  0  0  0  0  0  0  0  0  0
  144.1210   67.7040  218.7400 N   0  0  0  0  0  0  0  0  0  0  0  0
  143.8600   66.3000  218.9850 C   0  0  0  0  0  0  0  0  0  0  0  0
  142.3520   66.1420  218.9030 C   0  0  0  0  0  0  0  0  0  0  0  0
  141.8540   67.4810  218.3690 C   0  0  0  0  0  0  0  0  0  0  0  0
  143.0930   68.0840  217.7530 C   0  0  0  0  0  0  0  0  0  0  0  0
  144.2900   70.8040  219.5720 C   0  0  0  0  0  0  0  0  0  0  0  0
  143.3350   74.2690  219.7420 N   0  0  0  0  0  0  0  0  0  0  0  0
  142.5430   75.2580  220.3680 C   0  0  0  0  0  0  0  0  0  0  0  0
  142.6740   76.6020  220.0900 C   0  0  0  0  0  0  0  0  0  0  0  0
  141.8290   77.5030  220.7350 C   0  0  0  0  0  0  0  0  0  0  0  0
  140.8740   77.0910  221.6370 C   0  0  0  0  0  0  0  0  0  0  0  0
  139.9570   78.0200  222.3050 C   0  0  0  0  0  0  0  0  0  0  0  0
  140.3570   79.1150  223.0650 C   0  0  0  0  0  0  0  0  0  0  0  0
  139.1710   79.6820  223.5020 C   0  0  0  0  0  0  0  0  0  0  0  0
  138.1410   79.0110  223.0610 O   0  0  0  0  0  0  0  0  0  0  0  0
  138.5690   77.9860  222.3240 C   0  0  0  0  0  0  0  0  0  0  0  0
  140.7440   75.7460  221.9140 C   0  0  0  0  0  0  0  0  0  0  0  0
  141.5820   74.8470  221.2740 C   0  0  0  0  0  0  0  0  0  0  0  0
  142.8253   71.8226  221.6626 H   0  0  0  0  0  0  0  0  0  0  0  0
  141.6243   71.6806  220.3395 H   0  0  0  0  0  0  0  0  0  0  0  0
  144.6104   73.5779  217.6911 H   0  0  0  0  0  0  0  0  0  0  0  0
  145.9980   72.0478  216.3405 H   0  0  0  0  0  0  0  0  0  0  0  0
  146.3075   69.6474  217.0622 H   0  0  0  0  0  0  0  0  0  0  0  0
  144.3527   65.6795  218.2220 H   0  0  0  0  0  0  0  0  0  0  0  0
  144.2493   65.9792  219.9625 H   0  0  0  0  0  0  0  0  0  0  0  0
  142.0837   65.3258  218.2160 H   0  0  0  0  0  0  0  0  0  0  0  0
  141.9054   65.8884  219.8757 H   0  0  0  0  0  0  0  0  0  0  0  0
  141.0671   67.3373  217.6139 H   0  0  0  0  0  0  0  0  0  0  0  0
  141.4033   68.1164  219.1456 H   0  0  0  0  0  0  0  0  0  0  0  0
  143.3036   67.6495  216.7647 H   0  0  0  0  0  0  0  0  0  0  0  0
  143.0235   69.1663  217.5691 H   0  0  0  0  0  0  0  0  0  0  0  0
  143.8142   70.4311  220.4910 H   0  0  0  0  0  0  0  0  0  0  0  0
  143.4301   76.9559  219.3737 H   0  0  0  0  0  0  0  0  0  0  0  0
  141.9281   78.5766  220.5167 H   0  0  0  0  0  0  0  0  0  0  0  0
  141.3829   79.4537  223.2719 H   0  0  0  0  0  0  0  0  0  0  0  0
  139.1055   80.5784  224.1362 H   0  0  0  0  0  0  0  0  0  0  0  0
  137.9338   77.2432  221.8192 H   0  0  0  0  0  0  0  0  0  0  0  0
  139.9879   75.3931  222.6308 H   0  0  0  0  0  0  0  0  0  0  0  0
  1  2  2  0
  2  3  1  0
  3  4  1  0
  4  5  1  0
  5  6  2  0
  6  7  1  0
  7  8  2  0
  8  9  1  0
  9 10  1  0
 10 11  2  0
 10 12  1  0
 12 13  1  0
 13 14  1  0
 14 15  1  0
 15 16  1  0
  9 17  2  0
  4 18  2  0
 18 19  1  0
 19 20  2  0
 20 21  1  0
 21 22  2  0
 22 23  1  0
 23 24  1  0
 24 25  2  0
 25 26  1  0
 26 27  1  0
 22 28  1  0
 28 29  2  0
 29  2  1  0
 17  5  1  0
 29 19  1  0
 16 12  1  0
 27 23  2  0
  3 30  1  0
  3 31  1  0
  6 32  1  0
  7 33  1  0
  8 34  1  0
 13 35  1  0
 13 36  1  0
 14 37  1  0
 14 38  1  0
 15 39  1  0
 15 40  1  0
 16 41  1  0
 16 42  1  0
 17 43  1  0
 20 44  1  0
 21 45  1  0
 24 46  1  0
 25 47  1  0
 27 48  1  0
 28 49  1  0
M  END
>  <smiles>  (37) 
O=C1CC(c2cccc(C(=O)N3CCCC3)c2)=Nc2ccc(-c3ccoc3)cc21

>  <score_type>  (37) 
oracle

>  <origin>  (37) 
autodockgpu

>  <m_score__min__energy>  (37) 
-8.2799999999999994

>  <m_primary>  (37) 
energy

>  <rmsd>  (37) 
7.8337450255249

>  <m_score__min__rmsd>  (37) 
7.8337450255249

>  <meeko>  (37) 
{"free_energy": -7.11, "intermolecular_energy": -8.0, "internal_energy": -0.99, "cluster_size": 1, "cluster_id": 4, "rank_in_cluster": 1}

>  <energy>  (37) 
-7.79

>  <cluster_rmsd>  (37) 
1.71

>  <cluster>  (37) 
1

$$$$

     RDKit          3D

 49 53  0  0  0  0  0  0  0  0999 V2000
  143.0150   75.2860  220.1790 O   0  0  0  0  0  0  0  0  0  0  0  0
  141.9730   74.9350  220.8300 C   0  0  0  0  0  0  0  0  0  0  0  0
  141.7400   73.4810  220.9410 C   0  0  0  0  0  0  0  0  0  0  0  0
  140.5110   73.2500  221.7300 C   0  0  0  0  0  0  0  0  0  0  0  0
  140.1290   71.8600  222.0000 C   0  0  0  0  0  0  0  0  0  0  0  0
  140.2160   70.8600  221.0600 C   0  0  0  0  0  0  0  0  0  0  0  0
  139.7930   69.5570  221.3040 C   0  0  0  0  0  0  0  0  0  0  0  0
  139.2500   69.2120  222.5460 C   0  0  0  0  0  0  0  0  0  0  0  0
  139.1670   70.2200  223.4810 C   0  0  0  0  0  0  0  0  0  0  0  0
  138.5530   69.9910  224.8100 C   0  0  0  0  0  0  0  0  0  0  0  0
  137.3150   70.0050  224.9920 O   0  0  0  0  0  0  0  0  0  0  0  0
  139.4970   69.7520  225.8570 N   0  0  0  0  0  0  0  0  0  0  0  0
  139.2760   69.4750  227.2620 C   0  0  0  0  0  0  0  0  0  0  0  0
  140.3770   68.5130  227.6700 C   0  0  0  0  0  0  0  0  0  0  0  0
  141.3240   68.4850  226.4750 C   0  0  0  0  0  0  0  0  0  0  0  0
  140.9670   69.7460  225.7270 C   0  0  0  0  0  0  0  0  0  0  0  0
  139.5860   71.5090  223.2450 C   0  0  0  0  0  0  0  0  0  0  0  0
  139.7610   74.1530  222.2300 N   0  0  0  0  0  0  0  0  0  0  0  0
  139.9980   75.5410  222.1070 C   0  0  0  0  0  0  0  0  0  0  0  0
  139.1780   76.4890  222.6810 C   0  0  0  0  0  0  0  0  0  0  0  0
  139.5050   77.8360  222.5310 C   0  0  0  0  0  0  0  0  0  0  0  0
  140.6180   78.2420  221.8290 C   0  0  0  0  0  0  0  0  0  0  0  0
  140.9950   79.6520  221.6840 C   0  0  0  0  0  0  0  0  0  0  0  0
  141.7060   80.3810  222.6320 C   0  0  0  0  0  0  0  0  0  0  0  0
  141.8150   81.6470  222.0810 C   0  0  0  0  0  0  0  0  0  0  0  0
  141.2340   81.7010  220.9130 O   0  0  0  0  0  0  0  0  0  0  0  0
  140.7180   80.5070  220.6250 C   0  0  0  0  0  0  0  0  0  0  0  0
  141.4370   77.2930  221.2550 C   0  0  0  0  0  0  0  0  0  0  0  0
  141.1150   75.9530  221.4030 C   0  0  0  0  0  0  0  0  0  0  0  0
  141.6203   73.0488  219.9366 H   0  0  0  0  0  0  0  0  0  0  0  0
  142.5969   73.0039  221.4391 H   0  0  0  0  0  0  0  0  0  0  0  0
  140.6380   71.1004  220.0730 H   0  0  0  0  0  0  0  0  0  0  0  0
  139.8861   68.7947  220.5164 H   0  0  0  0  0  0  0  0  0  0  0  0
  138.9074   68.1898  222.7645 H   0  0  0  0  0  0  0  0  0  0  0  0
  139.3397   70.4023  227.8502 H   0  0  0  0  0  0  0  0  0  0  0  0
  138.2779   69.0479  227.4391 H   0  0  0  0  0  0  0  0  0  0  0  0
  140.8966   68.8759  228.5691 H   0  0  0  0  0  0  0  0  0  0  0  0
  139.9882   67.5144  227.9183 H   0  0  0  0  0  0  0  0  0  0  0  0
  142.3740   68.5038  226.8025 H   0  0  0  0  0  0  0  0  0  0  0  0
  141.2229   67.5760  225.8639 H   0  0  0  0  0  0  0  0  0  0  0  0
  141.4165   70.6336  226.1962 H   0  0  0  0  0  0  0  0  0  0  0  0
  141.3278   69.7714  224.6882 H   0  0  0  0  0  0  0  0  0  0  0  0
  139.4948   72.2678  224.0361 H   0  0  0  0  0  0  0  0  0  0  0  0
  138.2834   76.1886  223.2462 H   0  0  0  0  0  0  0  0  0  0  0  0
  138.8547   78.5970  222.9870 H   0  0  0  0  0  0  0  0  0  0  0  0
  142.0938   80.0311  223.6001 H   0  0  0  0  0  0  0  0  0  0  0  0
  142.3237   82.4946  222.5635 H   0  0  0  0  0  0  0  0  0  0  0  0
  140.1687   80.2443  219.7089 H   0  0  0  0  0  0  0  0  0  0  0  0
  142.3309   77.5942  220.6891 H   0  0  0  0  0  0  0  0  0  0  0  0
  1  2  2  0
  2  3  1  0
  3  4  1  0
  4  5  1  0
  5  6  2  0
  6  7  1  0
  7  8  2  0
  8  9  1  0
  9 10  1  0
 10 11  2  0
 10 12  1  0
 12 13  1  0
 13 14  1  0
 14 15  1  0
 15 16  1  0
  9 17  2  0
  4 18  2  0
 18 19  1  0
 19 20  2  0
 20 21  1  0
 21 22  2  0
 22 23  1  0
 23 24  1  0
 24 25  2  0
 25 26  1  0
 26 27  1  0
 22 28  1  0
 28 29  2  0
 29  2  1  0
 17  5  1  0
 29 19  1  0
 16 12  1  0
 27 23  2  0
  3 30  1  0
  3 31  1  0
  6 32  1  0
  7 33  1  0
  8 34  1  0
 13 35  1  0
 13 36  1  0
 14 37  1  0
 14 38  1  0
 15 39  1  0
 15 40  1  0
 16 41  1  0
 16 42  1  0
 17 43  1  0
 20 44  1  0
 21 45  1  0
 24 46  1  0
 25 47  1  0
 27 48  1  0
 28 49  1  0
M  END
>  <smiles>  (38) 
O=C1CC(c2cccc(C(=O)N3CCCC3)c2)=Nc2ccc(-c3ccoc3)cc21

>  <score_type>  (38) 
oracle

>  <origin>  (38) 
autodockgpu

>  <m_score__min__energy>  (38) 
-8.2799999999999994

>  <m_primary>  (38) 
energy

>  <rmsd>  (38) 
6.875426902482465

>  <m_score__min__rmsd>  (38) 
6.875426902482465

>  <meeko>  (38) 
{"free_energy": -7.82, "intermolecular_energy": -8.72, "internal_energy": -0.94, "cluster_size": 40, "cluster_id": 1, "rank_in_cluster": 28}

>  <energy>  (38) 
-7.78

>  <cluster_rmsd>  (38) 
1.71

>  <cluster>  (38) 
1

$$$$

     RDKit          3D

 49 53  0  0  0  0  0  0  0  0999 V2000
  143.1190   74.0200  219.4940 O   0  0  0  0  0  0  0  0  0  0  0  0
  142.1790   74.1230  220.3530 C   0  0  0  0  0  0  0  0  0  0  0  0
  141.8030   72.8760  221.0500 C   0  0  0  0  0  0  0  0  0  0  0  0
  140.7180   73.1720  222.0110 C   0  0  0  0  0  0  0  0  0  0  0  0
  140.2330   72.0680  222.8470 C   0  0  0  0  0  0  0  0  0  0  0  0
  139.3870   71.0890  222.3810 C   0  0  0  0  0  0  0  0  0  0  0  0
  138.8800   70.0800  223.1970 C   0  0  0  0  0  0  0  0  0  0  0  0
  139.2230   70.0300  224.5520 C   0  0  0  0  0  0  0  0  0  0  0  0
  140.0710   71.0140  225.0080 C   0  0  0  0  0  0  0  0  0  0  0  0
  140.4550   71.1020  226.4360 C   0  0  0  0  0  0  0  0  0  0  0  0
  140.3240   72.1500  227.1070 O   0  0  0  0  0  0  0  0  0  0  0  0
  140.9830   69.8860  226.9760 N   0  0  0  0  0  0  0  0  0  0  0  0
  141.4410   69.5880  228.3170 C   0  0  0  0  0  0  0  0  0  0  0  0
  141.0640   68.1380  228.5670 C   0  0  0  0  0  0  0  0  0  0  0  0
  140.6010   67.6220  227.2090 C   0  0  0  0  0  0  0  0  0  0  0  0
  141.1920   68.6220  226.2440 C   0  0  0  0  0  0  0  0  0  0  0  0
  140.5760   72.0110  224.2050 C   0  0  0  0  0  0  0  0  0  0  0  0
  140.1810   74.3120  222.2070 N   0  0  0  0  0  0  0  0  0  0  0  0
  140.5510   75.4930  221.5250 C   0  0  0  0  0  0  0  0  0  0  0  0
  139.9650   76.7140  221.7790 C   0  0  0  0  0  0  0  0  0  0  0  0
  140.4130   77.8310  221.0770 C   0  0  0  0  0  0  0  0  0  0  0  0
  141.4190   77.7490  220.1410 C   0  0  0  0  0  0  0  0  0  0  0  0
  141.9250   78.9170  219.4120 C   0  0  0  0  0  0  0  0  0  0  0  0
  142.5990   78.8580  218.1960 C   0  0  0  0  0  0  0  0  0  0  0  0
  142.8930   80.1790  217.9020 C   0  0  0  0  0  0  0  0  0  0  0  0
  142.4490   80.9770  218.8360 O   0  0  0  0  0  0  0  0  0  0  0  0
  141.8500   80.2530  219.7810 C   0  0  0  0  0  0  0  0  0  0  0  0
  142.0060   76.5270  219.8870 C   0  0  0  0  0  0  0  0  0  0  0  0
  141.5630   75.4140  220.5840 C   0  0  0  0  0  0  0  0  0  0  0  0
  141.4543   72.1339  220.3167 H   0  0  0  0  0  0  0  0  0  0  0  0
  142.6745   72.4712  221.5853 H   0  0  0  0  0  0  0  0  0  0  0  0
  139.0985   71.1032  221.3196 H   0  0  0  0  0  0  0  0  0  0  0  0
  138.2072   69.3196  222.7739 H   0  0  0  0  0  0  0  0  0  0  0  0
  138.8355   69.2454  225.2185 H   0  0  0  0  0  0  0  0  0  0  0  0
  142.5309   69.7187  228.3880 H   0  0  0  0  0  0  0  0  0  0  0  0
  140.9864   70.2597  229.0601 H   0  0  0  0  0  0  0  0  0  0  0  0
  141.9336   67.5665  228.9238 H   0  0  0  0  0  0  0  0  0  0  0  0
  140.2873   68.0358  229.3393 H   0  0  0  0  0  0  0  0  0  0  0  0
  140.9894   66.6109  227.0172 H   0  0  0  0  0  0  0  0  0  0  0  0
  139.5073   67.5371  227.1283 H   0  0  0  0  0  0  0  0  0  0  0  0
  142.2608   68.4298  226.0688 H   0  0  0  0  0  0  0  0  0  0  0  0
  140.7411   68.6017  225.2409 H   0  0  0  0  0  0  0  0  0  0  0  0
  141.2522   72.7669  224.6309 H   0  0  0  0  0  0  0  0  0  0  0  0
  139.1589   76.8051  222.5219 H   0  0  0  0  0  0  0  0  0  0  0  0
  139.9487   78.8080  221.2768 H   0  0  0  0  0  0  0  0  0  0  0  0
  142.8430   77.9645  217.6027 H   0  0  0  0  0  0  0  0  0  0  0  0
  143.4294   80.5121  217.0013 H   0  0  0  0  0  0  0  0  0  0  0  0
  141.3785   80.6456  220.6940 H   0  0  0  0  0  0  0  0  0  0  0  0
  142.8120   76.4373  219.1438 H   0  0  0  0  0  0  0  0  0  0  0  0
  1  2  2  0
  2  3  1  0
  3  4  1  0
  4  5  1  0
  5  6  2  0
  6  7  1  0
  7  8  2  0
  8  9  1  0
  9 10  1  0
 10 11  2  0
 10 12  1  0
 12 13  1  0
 13 14  1  0
 14 15  1  0
 15 16  1  0
  9 17  2  0
  4 18  2  0
 18 19  1  0
 19 20  2  0
 20 21  1  0
 21 22  2  0
 22 23  1  0
 23 24  1  0
 24 25  2  0
 25 26  1  0
 26 27  1  0
 22 28  1  0
 28 29  2  0
 29  2  1  0
 17  5  1  0
 29 19  1  0
 16 12  1  0
 27 23  2  0
  3 30  1  0
  3 31  1  0
  6 32  1  0
  7 33  1  0
  8 34  1  0
 13 35  1  0
 13 36  1  0
 14 37  1  0
 14 38  1  0
 15 39  1  0
 15 40  1  0
 16 41  1  0
 16 42  1  0
 17 43  1  0
 20 44  1  0
 21 45  1  0
 24 46  1  0
 25 47  1  0
 27 48  1  0
 28 49  1  0
M  END
>  <smiles>  (39) 
O=C1CC(c2cccc(C(=O)N3CCCC3)c2)=Nc2ccc(-c3ccoc3)cc21

>  <score_type>  (39) 
oracle

>  <origin>  (39) 
autodockgpu

>  <m_score__min__energy>  (39) 
-8.2799999999999994

>  <m_primary>  (39) 
energy

>  <rmsd>  (39) 
7.496158473652926

>  <m_score__min__rmsd>  (39) 
7.496158473652926

>  <meeko>  (39) 
{"free_energy": -8.25, "intermolecular_energy": -9.15, "internal_energy": -0.73, "cluster_size": 40, "cluster_id": 1, "rank_in_cluster": 4}

>  <energy>  (39) 
-7.69

>  <cluster_rmsd>  (39) 
1.75

>  <cluster>  (39) 
1

$$$$

     RDKit          3D

 49 53  0  0  0  0  0  0  0  0999 V2000
  146.1450   73.2420  219.3310 O   0  0  0  0  0  0  0  0  0  0  0  0
  144.9330   73.0030  219.6560 C   0  0  0  0  0  0  0  0  0  0  0  0
  144.1530   74.1610  220.1390 C   0  0  0  0  0  0  0  0  0  0  0  0
  142.7790   73.7150  220.4580 C   0  0  0  0  0  0  0  0  0  0  0  0
  141.8240   74.7330  220.9090 C   0  0  0  0  0  0  0  0  0  0  0  0
  140.6470   74.4260  221.5510 C   0  0  0  0  0  0  0  0  0  0  0  0
  139.7150   75.3930  221.9200 C   0  0  0  0  0  0  0  0  0  0  0  0
  139.9520   76.7440  221.6420 C   0  0  0  0  0  0  0  0  0  0  0  0
  141.1330   77.0400  220.9990 C   0  0  0  0  0  0  0  0  0  0  0  0
  141.4650   78.4260  220.5950 C   0  0  0  0  0  0  0  0  0  0  0  0
  141.4240   78.8100  219.4050 O   0  0  0  0  0  0  0  0  0  0  0  0
  141.8320   79.2810  221.6830 N   0  0  0  0  0  0  0  0  0  0  0  0
  142.1980   80.6820  221.6800 C   0  0  0  0  0  0  0  0  0  0  0  0
  141.6520   81.2520  222.9760 C   0  0  0  0  0  0  0  0  0  0  0  0
  141.1900   80.0340  223.7680 C   0  0  0  0  0  0  0  0  0  0  0  0
  141.9280   78.8960  223.1040 C   0  0  0  0  0  0  0  0  0  0  0  0
  142.0570   76.0880  220.6340 C   0  0  0  0  0  0  0  0  0  0  0  0
  142.3330   72.5260  220.3460 N   0  0  0  0  0  0  0  0  0  0  0  0
  143.0970   71.4290  219.8880 C   0  0  0  0  0  0  0  0  0  0  0  0
  142.5740   70.1600  219.7580 C   0  0  0  0  0  0  0  0  0  0  0  0
  143.3950   69.1450  219.2710 C   0  0  0  0  0  0  0  0  0  0  0  0
  144.7060   69.3730  218.9190 C   0  0  0  0  0  0  0  0  0  0  0  0
  145.5780   68.3250  218.3770 C   0  0  0  0  0  0  0  0  0  0  0  0
  145.7950   68.1010  217.0210 C   0  0  0  0  0  0  0  0  0  0  0  0
  146.6610   67.0200  216.9860 C   0  0  0  0  0  0  0  0  0  0  0  0
  146.9530   66.6140  218.1930 O   0  0  0  0  0  0  0  0  0  0  0  0
  146.3150   67.3800  219.0780 C   0  0  0  0  0  0  0  0  0  0  0  0
  145.2290   70.6420  219.0490 C   0  0  0  0  0  0  0  0  0  0  0  0
  144.4150   71.6550  219.5320 C   0  0  0  0  0  0  0  0  0  0  0  0
  144.6261   74.5738  221.0422 H   0  0  0  0  0  0  0  0  0  0  0  0
  144.1210   74.9386  219.3617 H   0  0  0  0  0  0  0  0  0  0  0  0
  140.4327   73.3723  221.7828 H   0  0  0  0  0  0  0  0  0  0  0  0
  138.7887   75.0936  222.4321 H   0  0  0  0  0  0  0  0  0  0  0  0
  139.2329   77.5278  221.9223 H   0  0  0  0  0  0  0  0  0  0  0  0
  143.2918   80.7925  221.6432 H   0  0  0  0  0  0  0  0  0  0  0  0
  141.7908   81.2060  220.8027 H   0  0  0  0  0  0  0  0  0  0  0  0
  142.4370   81.7954  223.5223 H   0  0  0  0  0  0  0  0  0  0  0  0
  140.8376   81.9713  222.8047 H   0  0  0  0  0  0  0  0  0  0  0  0
  141.4707   80.1221  224.8279 H   0  0  0  0  0  0  0  0  0  0  0  0
  140.0978   79.9032  223.7634 H   0  0  0  0  0  0  0  0  0  0  0  0
  142.9749   78.8454  223.4379 H   0  0  0  0  0  0  0  0  0  0  0  0
  141.5189   77.9003  223.3301 H   0  0  0  0  0  0  0  0  0  0  0  0
  142.9831   76.3915  220.1239 H   0  0  0  0  0  0  0  0  0  0  0  0
  141.5293   69.9529  220.0333 H   0  0  0  0  0  0  0  0  0  0  0  0
  142.9829   68.1307  219.1646 H   0  0  0  0  0  0  0  0  0  0  0  0
  145.3744   68.6563  216.1697 H   0  0  0  0  0  0  0  0  0  0  0  0
  147.0510   66.5640  216.0641 H   0  0  0  0  0  0  0  0  0  0  0  0
  146.3639   67.2807  220.1724 H   0  0  0  0  0  0  0  0  0  0  0  0
  146.2742   70.8472  218.7742 H   0  0  0  0  0  0  0  0  0  0  0  0
  1  2  2  0
  2  3  1  0
  3  4  1  0
  4  5  1  0
  5  6  2  0
  6  7  1  0
  7  8  2  0
  8  9  1  0
  9 10  1  0
 10 11  2  0
 10 12  1  0
 12 13  1  0
 13 14  1  0
 14 15  1  0
 15 16  1  0
  9 17  2  0
  4 18  2  0
 18 19  1  0
 19 20  2  0
 20 21  1  0
 21 22  2  0
 22 23  1  0
 23 24  1  0
 24 25  2  0
 25 26  1  0
 26 27  1  0
 22 28  1  0
 28 29  2  0
 29  2  1  0
 17  5  1  0
 29 19  1  0
 16 12  1  0
 27 23  2  0
  3 30  1  0
  3 31  1  0
  6 32  1  0
  7 33  1  0
  8 34  1  0
 13 35  1  0
 13 36  1  0
 14 37  1  0
 14 38  1  0
 15 39  1  0
 15 40  1  0
 16 41  1  0
 16 42  1  0
 17 43  1  0
 20 44  1  0
 21 45  1  0
 24 46  1  0
 25 47  1  0
 27 48  1  0
 28 49  1  0
M  END
>  <smiles>  (40) 
O=C1CC(c2cccc(C(=O)N3CCCC3)c2)=Nc2ccc(-c3ccoc3)cc21

>  <score_type>  (40) 
oracle

>  <origin>  (40) 
autodockgpu

>  <m_score__min__energy>  (40) 
-8.2799999999999994

>  <m_primary>  (40) 
energy

>  <rmsd>  (40) 
8.498738463287157

>  <m_score__min__rmsd>  (40) 
8.498738463287157

>  <meeko>  (40) 
{"free_energy": -7.67, "intermolecular_energy": -8.57, "internal_energy": -0.91, "cluster_size": 8, "cluster_id": 2, "rank_in_cluster": 4}

>  <energy>  (40) 
-7.32

>  <cluster_rmsd>  (40) 
1.72

>  <cluster>  (40) 
1

$$$$

     RDKit          3D

 49 53  0  0  0  0  0  0  0  0999 V2000
  142.9750   75.2780  220.1200 O   0  0  0  0  0  0  0  0  0  0  0  0
  141.9480   74.9280  220.7950 C   0  0  0  0  0  0  0  0  0  0  0  0
  141.7110   73.4750  220.9060 C   0  0  0  0  0  0  0  0  0  0  0  0
  140.5000   73.2460  221.7220 C   0  0  0  0  0  0  0  0  0  0  0  0
  140.1190   71.8560  221.9960 C   0  0  0  0  0  0  0  0  0  0  0  0
  140.2190   70.8520  221.0610 C   0  0  0  0  0  0  0  0  0  0  0  0
  139.7970   69.5480  221.3080 C   0  0  0  0  0  0  0  0  0  0  0  0
  139.2410   69.2090  222.5460 C   0  0  0  0  0  0  0  0  0  0  0  0
  139.1450   70.2210  223.4740 C   0  0  0  0  0  0  0  0  0  0  0  0
  138.5170   69.9980  224.7970 C   0  0  0  0  0  0  0  0  0  0  0  0
  137.2780   70.0180  224.9680 O   0  0  0  0  0  0  0  0  0  0  0  0
  139.4500   69.7570  225.8550 N   0  0  0  0  0  0  0  0  0  0  0  0
  139.2140   69.4830  227.2580 C   0  0  0  0  0  0  0  0  0  0  0  0
  140.3070   68.5170  227.6780 C   0  0  0  0  0  0  0  0  0  0  0  0
  141.2650   68.4820  226.4930 C   0  0  0  0  0  0  0  0  0  0  0  0
  140.9220   69.7440  225.7390 C   0  0  0  0  0  0  0  0  0  0  0  0
  139.5640   71.5100  223.2360 C   0  0  0  0  0  0  0  0  0  0  0  0
  139.7670   74.1500  222.2430 N   0  0  0  0  0  0  0  0  0  0  0  0
  140.0060   75.5370  222.1210 C   0  0  0  0  0  0  0  0  0  0  0  0
  139.2040   76.4860  222.7180 C   0  0  0  0  0  0  0  0  0  0  0  0
  139.5330   77.8320  222.5660 C   0  0  0  0  0  0  0  0  0  0  0  0
  140.6300   78.2370  221.8390 C   0  0  0  0  0  0  0  0  0  0  0  0
  141.0100   79.6460  221.6910 C   0  0  0  0  0  0  0  0  0  0  0  0
  140.9780   80.3500  220.4910 C   0  0  0  0  0  0  0  0  0  0  0  0
  141.4280   81.6170  220.8250 C   0  0  0  0  0  0  0  0  0  0  0  0
  141.7100   81.6940  222.0970 O   0  0  0  0  0  0  0  0  0  0  0  0
  141.4710   80.5150  222.6700 C   0  0  0  0  0  0  0  0  0  0  0  0
  141.4320   77.2870  221.2420 C   0  0  0  0  0  0  0  0  0  0  0  0
  141.1080   75.9480  221.3920 C   0  0  0  0  0  0  0  0  0  0  0  0
  141.5662   73.0472  219.9030 H   0  0  0  0  0  0  0  0  0  0  0  0
  142.5770   72.9925  221.3826 H   0  0  0  0  0  0  0  0  0  0  0  0
  140.6503   71.0890  220.0772 H   0  0  0  0  0  0  0  0  0  0  0  0
  139.9014   68.7813  220.5262 H   0  0  0  0  0  0  0  0  0  0  0  0
  138.8984   68.1872  222.7664 H   0  0  0  0  0  0  0  0  0  0  0  0
  139.2758   70.4109  227.8456 H   0  0  0  0  0  0  0  0  0  0  0  0
  138.2124   69.0604  227.4260 H   0  0  0  0  0  0  0  0  0  0  0  0
  140.8196   68.8794  228.5812 H   0  0  0  0  0  0  0  0  0  0  0  0
  139.9113   67.5206  227.9242 H   0  0  0  0  0  0  0  0  0  0  0  0
  142.3118   68.4958  226.8308 H   0  0  0  0  0  0  0  0  0  0  0  0
  141.1649   67.5725  225.8825 H   0  0  0  0  0  0  0  0  0  0  0  0
  141.3713   70.6302  226.2110 H   0  0  0  0  0  0  0  0  0  0  0  0
  141.2933   69.7662  224.7038 H   0  0  0  0  0  0  0  0  0  0  0  0
  139.4630   72.2725  224.0224 H   0  0  0  0  0  0  0  0  0  0  0  0
  138.3217   76.1870  223.3029 H   0  0  0  0  0  0  0  0  0  0  0  0
  138.8971   78.5935  223.0411 H   0  0  0  0  0  0  0  0  0  0  0  0
  140.6662   79.9836  219.5018 H   0  0  0  0  0  0  0  0  0  0  0  0
  141.5336   82.4482  220.1123 H   0  0  0  0  0  0  0  0  0  0  0  0
  141.6141   80.2727  223.7334 H   0  0  0  0  0  0  0  0  0  0  0  0
  142.3138   77.5870  220.6568 H   0  0  0  0  0  0  0  0  0  0  0  0
  1  2  2  0
  2  3  1  0
  3  4  1  0
  4  5  1  0
  5  6  2  0
  6  7  1  0
  7  8  2  0
  8  9  1  0
  9 10  1  0
 10 11  2  0
 10 12  1  0
 12 13  1  0
 13 14  1  0
 14 15  1  0
 15 16  1  0
  9 17  2  0
  4 18  2  0
 18 19  1  0
 19 20  2  0
 20 21  1  0
 21 22  2  0
 22 23  1  0
 23 24  1  0
 24 25  2  0
 25 26  1  0
 26 27  1  0
 22 28  1  0
 28 29  2  0
 29  2  1  0
 17  5  1  0
 29 19  1  0
 16 12  1  0
 27 23  2  0
  3 30  1  0
  3 31  1  0
  6 32  1  0
  7 33  1  0
  8 34  1  0
 13 35  1  0
 13 36  1  0
 14 37  1  0
 14 38  1  0
 15 39  1  0
 15 40  1  0
 16 41  1  0
 16 42  1  0
 17 43  1  0
 20 44  1  0
 21 45  1  0
 24 46  1  0
 25 47  1  0
 27 48  1  0
 28 49  1  0
M  END
>  <smiles>  (41) 
O=C1CC(c2cccc(C(=O)N3CCCC3)c2)=Nc2ccc(-c3ccoc3)cc21

>  <score_type>  (41) 
oracle

>  <origin>  (41) 
autodockgpu

>  <m_score__min__energy>  (41) 
-8.2799999999999994

>  <m_primary>  (41) 
energy

>  <rmsd>  (41) 
6.874654160715331

>  <m_score__min__rmsd>  (41) 
6.874654160715331

>  <meeko>  (41) 
{"free_energy": -7.79, "intermolecular_energy": -8.69, "internal_energy": -0.94, "cluster_size": 40, "cluster_id": 1, "rank_in_cluster": 36}

>  <energy>  (41) 
-7.73

>  <cluster_rmsd>  (41) 
0.0

>  <cluster>  (41) 
2

$$$$

     RDKit          3D

 49 53  0  0  0  0  0  0  0  0999 V2000
  143.0610   73.9950  219.4390 O   0  0  0  0  0  0  0  0  0  0  0  0
  142.1330   74.0940  220.3110 C   0  0  0  0  0  0  0  0  0  0  0  0
  141.7660   72.8450  221.0090 C   0  0  0  0  0  0  0  0  0  0  0  0
  140.6950   73.1370  221.9860 C   0  0  0  0  0  0  0  0  0  0  0  0
  140.2210   72.0310  222.8240 C   0  0  0  0  0  0  0  0  0  0  0  0
  139.3860   71.0410  222.3610 C   0  0  0  0  0  0  0  0  0  0  0  0
  138.8910   70.0290  223.1790 C   0  0  0  0  0  0  0  0  0  0  0  0
  139.2340   69.9860  224.5340 C   0  0  0  0  0  0  0  0  0  0  0  0
  140.0690   70.9810  224.9880 C   0  0  0  0  0  0  0  0  0  0  0  0
  140.4520   71.0770  226.4160 C   0  0  0  0  0  0  0  0  0  0  0  0
  140.3200   72.1290  227.0810 O   0  0  0  0  0  0  0  0  0  0  0  0
  140.9790   69.8650  226.9640 N   0  0  0  0  0  0  0  0  0  0  0  0
  141.4350   69.5730  228.3080 C   0  0  0  0  0  0  0  0  0  0  0  0
  141.0570   68.1260  228.5650 C   0  0  0  0  0  0  0  0  0  0  0  0
  140.5960   67.6020  227.2100 C   0  0  0  0  0  0  0  0  0  0  0  0
  141.1890   68.5950  226.2400 C   0  0  0  0  0  0  0  0  0  0  0  0
  140.5640   71.9820  224.1830 C   0  0  0  0  0  0  0  0  0  0  0  0
  140.1610   74.2770  222.1920 N   0  0  0  0  0  0  0  0  0  0  0  0
  140.5210   75.4600  221.5100 C   0  0  0  0  0  0  0  0  0  0  0  0
  139.9380   76.6800  221.7760 C   0  0  0  0  0  0  0  0  0  0  0  0
  140.3760   77.8000  221.0720 C   0  0  0  0  0  0  0  0  0  0  0  0
  141.3700   77.7210  220.1220 C   0  0  0  0  0  0  0  0  0  0  0  0
  141.8650   78.8920  219.3900 C   0  0  0  0  0  0  0  0  0  0  0  0
  142.5400   78.8350  218.1740 C   0  0  0  0  0  0  0  0  0  0  0  0
  142.8220   80.1590  217.8770 C   0  0  0  0  0  0  0  0  0  0  0  0
  142.3710   80.9550  218.8090 O   0  0  0  0  0  0  0  0  0  0  0  0
  141.7790   80.2280  219.7560 C   0  0  0  0  0  0  0  0  0  0  0  0
  141.9530   76.5000  219.8560 C   0  0  0  0  0  0  0  0  0  0  0  0
  141.5200   75.3850  220.5550 C   0  0  0  0  0  0  0  0  0  0  0  0
  141.4069   72.1057  220.2779 H   0  0  0  0  0  0  0  0  0  0  0  0
  142.6449   72.4387  221.5310 H   0  0  0  0  0  0  0  0  0  0  0  0
  139.0971   71.0491  221.2996 H   0  0  0  0  0  0  0  0  0  0  0  0
  138.2271   69.2598  222.7576 H   0  0  0  0  0  0  0  0  0  0  0  0
  138.8560   69.1980  225.2020 H   0  0  0  0  0  0  0  0  0  0  0  0
  142.5249   69.7032  228.3799 H   0  0  0  0  0  0  0  0  0  0  0  0
  140.9796   70.2488  229.0469 H   0  0  0  0  0  0  0  0  0  0  0  0
  141.9257   67.5562  228.9265 H   0  0  0  0  0  0  0  0  0  0  0  0
  140.2787   68.0290  229.3363 H   0  0  0  0  0  0  0  0  0  0  0  0
  140.9839   66.5894  227.0253 H   0  0  0  0  0  0  0  0  0  0  0  0
  139.5023   67.5174  227.1281 H   0  0  0  0  0  0  0  0  0  0  0  0
  142.2580   68.4012  226.0681 H   0  0  0  0  0  0  0  0  0  0  0  0
  140.7399   68.5684  225.2362 H   0  0  0  0  0  0  0  0  0  0  0  0
  141.2313   72.7466  224.6074 H   0  0  0  0  0  0  0  0  0  0  0  0
  139.1418   76.7681  222.5299 H   0  0  0  0  0  0  0  0  0  0  0  0
  139.9142   78.7762  221.2813 H   0  0  0  0  0  0  0  0  0  0  0  0
  142.7922   77.9421  217.5831 H   0  0  0  0  0  0  0  0  0  0  0  0
  143.3552   80.4950  216.9755 H   0  0  0  0  0  0  0  0  0  0  0  0
  141.3049   80.6186  220.6685 H   0  0  0  0  0  0  0  0  0  0  0  0
  142.7486   76.4128  219.1014 H   0  0  0  0  0  0  0  0  0  0  0  0
  1  2  2  0
  2  3  1  0
  3  4  1  0
  4  5  1  0
  5  6  2  0
  6  7  1  0
  7  8  2  0
  8  9  1  0
  9 10  1  0
 10 11  2  0
 10 12  1  0
 12 13  1  0
 13 14  1  0
 14 15  1  0
 15 16  1  0
  9 17  2  0
  4 18  2  0
 18 19  1  0
 19 20  2  0
 20 21  1  0
 21 22  2  0
 22 23  1  0
 23 24  1  0
 24 25  2  0
 25 26  1  0
 26 27  1  0
 22 28  1  0
 28 29  2  0
 29  2  1  0
 17  5  1  0
 29 19  1  0
 16 12  1  0
 27 23  2  0
  3 30  1  0
  3 31  1  0
  6 32  1  0
  7 33  1  0
  8 34  1  0
 13 35  1  0
 13 36  1  0
 14 37  1  0
 14 38  1  0
 15 39  1  0
 15 40  1  0
 16 41  1  0
 16 42  1  0
 17 43  1  0
 20 44  1  0
 21 45  1  0
 24 46  1  0
 25 47  1  0
 27 48  1  0
 28 49  1  0
M  END
>  <smiles>  (42) 
O=C1CC(c2cccc(C(=O)N3CCCC3)c2)=Nc2ccc(-c3ccoc3)cc21

>  <score_type>  (42) 
oracle

>  <origin>  (42) 
autodockgpu

>  <m_score__min__energy>  (42) 
-8.2799999999999994

>  <m_primary>  (42) 
energy

>  <rmsd>  (42) 
7.490436513667558

>  <m_score__min__rmsd>  (42) 
7.490436513667558

>  <meeko>  (42) 
{"free_energy": -8.26, "intermolecular_energy": -9.16, "internal_energy": -0.72, "cluster_size": 40, "cluster_id": 1, "rank_in_cluster": 2}

>  <energy>  (42) 
-7.69

>  <cluster_rmsd>  (42) 
1.5

>  <cluster>  (42) 
2

$$$$

     RDKit          3D

 49 53  0  0  0  0  0  0  0  0999 V2000
  145.9900   73.3960  219.4210 O   0  0  0  0  0  0  0  0  0  0  0  0
  144.7830   73.1680  219.7700 C   0  0  0  0  0  0  0  0  0  0  0  0
  144.0030   74.3430  220.2080 C   0  0  0  0  0  0  0  0  0  0  0  0
  142.6350   73.9080  220.5610 C   0  0  0  0  0  0  0  0  0  0  0  0
  141.6800   74.9410  220.9750 C   0  0  0  0  0  0  0  0  0  0  0  0
  140.4760   74.6540  221.5770 C   0  0  0  0  0  0  0  0  0  0  0  0
  139.5470   75.6370  221.9100 C   0  0  0  0  0  0  0  0  0  0  0  0
  139.8140   76.9820  221.6350 C   0  0  0  0  0  0  0  0  0  0  0  0
  141.0210   77.2580  221.0330 C   0  0  0  0  0  0  0  0  0  0  0  0
  141.3880   78.6380  220.6370 C   0  0  0  0  0  0  0  0  0  0  0  0
  141.3390   79.0350  219.4520 O   0  0  0  0  0  0  0  0  0  0  0  0
  141.7990   79.4700  221.7270 N   0  0  0  0  0  0  0  0  0  0  0  0
  142.2060   80.8600  221.7310 C   0  0  0  0  0  0  0  0  0  0  0  0
  141.7000   81.4340  223.0420 C   0  0  0  0  0  0  0  0  0  0  0  0
  141.2150   80.2210  223.8290 C   0  0  0  0  0  0  0  0  0  0  0  0
  141.9070   79.0690  223.1430 C   0  0  0  0  0  0  0  0  0  0  0  0
  141.9430   76.2920  220.7050 C   0  0  0  0  0  0  0  0  0  0  0  0
  142.1930   72.7120  220.5090 N   0  0  0  0  0  0  0  0  0  0  0  0
  142.9560   71.5990  220.0930 C   0  0  0  0  0  0  0  0  0  0  0  0
  142.4380   70.3240  220.0270 C   0  0  0  0  0  0  0  0  0  0  0  0
  143.2580   69.2900  219.5780 C   0  0  0  0  0  0  0  0  0  0  0  0
  144.5640   69.5070  219.2020 C   0  0  0  0  0  0  0  0  0  0  0  0
  145.4350   68.4380  218.7000 C   0  0  0  0  0  0  0  0  0  0  0  0
  145.8850   67.3640  219.4610 C   0  0  0  0  0  0  0  0  0  0  0  0
  146.6780   66.6340  218.5890 C   0  0  0  0  0  0  0  0  0  0  0  0
  146.7160   67.1940  217.4100 O   0  0  0  0  0  0  0  0  0  0  0  0
  145.9720   68.3000  217.4270 C   0  0  0  0  0  0  0  0  0  0  0  0
  145.0830   70.7830  219.2680 C   0  0  0  0  0  0  0  0  0  0  0  0
  144.2700   71.8130  219.7130 C   0  0  0  0  0  0  0  0  0  0  0  0
  144.4836   74.7981  221.0866 H   0  0  0  0  0  0  0  0  0  0  0  0
  143.9596   75.0839  219.3961 H   0  0  0  0  0  0  0  0  0  0  0  0
  140.2374   73.6046  221.8046 H   0  0  0  0  0  0  0  0  0  0  0  0
  138.5992   75.3542  222.3914 H   0  0  0  0  0  0  0  0  0  0  0  0
  139.0972   77.7776  221.8865 H   0  0  0  0  0  0  0  0  0  0  0  0
  143.3018   80.9387  221.6757 H   0  0  0  0  0  0  0  0  0  0  0  0
  141.7986   81.4042  220.8662 H   0  0  0  0  0  0  0  0  0  0  0  0
  142.5104   81.9476  223.5799 H   0  0  0  0  0  0  0  0  0  0  0  0
  140.9057   82.1802  222.8927 H   0  0  0  0  0  0  0  0  0  0  0  0
  141.5151   80.2897  224.8850 H   0  0  0  0  0  0  0  0  0  0  0  0
  140.1195   80.1226  223.8401 H   0  0  0  0  0  0  0  0  0  0  0  0
  142.9573   78.9843  223.4587 H   0  0  0  0  0  0  0  0  0  0  0  0
  141.4721   78.0838  223.3671 H   0  0  0  0  0  0  0  0  0  0  0  0
  142.8916   76.5802  220.2285 H   0  0  0  0  0  0  0  0  0  0  0  0
  141.3973   70.1258  220.3229 H   0  0  0  0  0  0  0  0  0  0  0  0
  142.8491   68.2703  219.5226 H   0  0  0  0  0  0  0  0  0  0  0  0
  145.6622   67.1439  220.5155 H   0  0  0  0  0  0  0  0  0  0  0  0
  147.2053   65.7060  218.8551 H   0  0  0  0  0  0  0  0  0  0  0  0
  145.8115   68.9838  216.5805 H   0  0  0  0  0  0  0  0  0  0  0  0
  146.1242   70.9796  218.9726 H   0  0  0  0  0  0  0  0  0  0  0  0
  1  2  2  0
  2  3  1  0
  3  4  1  0
  4  5  1  0
  5  6  2  0
  6  7  1  0
  7  8  2  0
  8  9  1  0
  9 10  1  0
 10 11  2  0
 10 12  1  0
 12 13  1  0
 13 14  1  0
 14 15  1  0
 15 16  1  0
  9 17  2  0
  4 18  2  0
 18 19  1  0
 19 20  2  0
 20 21  1  0
 21 22  2  0
 22 23  1  0
 23 24  1  0
 24 25  2  0
 25 26  1  0
 26 27  1  0
 22 28  1  0
 28 29  2  0
 29  2  1  0
 17  5  1  0
 29 19  1  0
 16 12  1  0
 27 23  2  0
  3 30  1  0
  3 31  1  0
  6 32  1  0
  7 33  1  0
  8 34  1  0
 13 35  1  0
 13 36  1  0
 14 37  1  0
 14 38  1  0
 15 39  1  0
 15 40  1  0
 16 41  1  0
 16 42  1  0
 17 43  1  0
 20 44  1  0
 21 45  1  0
 24 46  1  0
 25 47  1  0
 27 48  1  0
 28 49  1  0
M  END
>  <smiles>  (43) 
O=C1CC(c2cccc(C(=O)N3CCCC3)c2)=Nc2ccc(-c3ccoc3)cc21

>  <score_type>  (43) 
oracle

>  <origin>  (43) 
autodockgpu

>  <m_score__min__energy>  (43) 
-8.2799999999999994

>  <m_primary>  (43) 
energy

>  <rmsd>  (43) 
8.520097980607888

>  <m_score__min__rmsd>  (43) 
8.520097980607888

>  <meeko>  (43) 
{"free_energy": -7.66, "intermolecular_energy": -8.56, "internal_energy": -0.92, "cluster_size": 8, "cluster_id": 2, "rank_in_cluster": 6}

>  <energy>  (43) 
-7.68

>  <cluster_rmsd>  (43) 
0.07

>  <cluster>  (43) 
2

$$$$

     RDKit          3D

 49 53  0  0  0  0  0  0  0  0999 V2000
  142.9930   75.2740  220.1110 O   0  0  0  0  0  0  0  0  0  0  0  0
  141.9690   74.9220  220.7880 C   0  0  0  0  0  0  0  0  0  0  0  0
  141.7360   73.4670  220.8970 C   0  0  0  0  0  0  0  0  0  0  0  0
  140.5270   73.2350  221.7170 C   0  0  0  0  0  0  0  0  0  0  0  0
  140.1500   71.8440  221.9900 C   0  0  0  0  0  0  0  0  0  0  0  0
  140.2410   70.8420  221.0510 C   0  0  0  0  0  0  0  0  0  0  0  0
  139.8230   69.5380  221.2980 C   0  0  0  0  0  0  0  0  0  0  0  0
  139.2810   69.1930  222.5410 C   0  0  0  0  0  0  0  0  0  0  0  0
  139.1940   70.2030  223.4730 C   0  0  0  0  0  0  0  0  0  0  0  0
  138.5810   69.9750  224.8030 C   0  0  0  0  0  0  0  0  0  0  0  0
  137.3430   69.9880  224.9850 O   0  0  0  0  0  0  0  0  0  0  0  0
  139.5260   69.7380  225.8500 N   0  0  0  0  0  0  0  0  0  0  0  0
  139.3040   69.4610  227.2550 C   0  0  0  0  0  0  0  0  0  0  0  0
  140.4070   68.5000  227.6630 C   0  0  0  0  0  0  0  0  0  0  0  0
  141.3540   68.4720  226.4690 C   0  0  0  0  0  0  0  0  0  0  0  0
  140.9960   69.7330  225.7200 C   0  0  0  0  0  0  0  0  0  0  0  0
  139.6090   71.4930  223.2350 C   0  0  0  0  0  0  0  0  0  0  0  0
  139.7930   74.1360  222.2410 N   0  0  0  0  0  0  0  0  0  0  0  0
  140.0280   75.5240  222.1190 C   0  0  0  0  0  0  0  0  0  0  0  0
  139.2250   76.4710  222.7190 C   0  0  0  0  0  0  0  0  0  0  0  0
  139.5500   77.8170  222.5670 C   0  0  0  0  0  0  0  0  0  0  0  0
  140.6450   78.2260  221.8380 C   0  0  0  0  0  0  0  0  0  0  0  0
  141.0200   79.6360  221.6910 C   0  0  0  0  0  0  0  0  0  0  0  0
  140.9830   80.3410  220.4920 C   0  0  0  0  0  0  0  0  0  0  0  0
  141.4310   81.6090  220.8250 C   0  0  0  0  0  0  0  0  0  0  0  0
  141.7160   81.6850  222.0970 O   0  0  0  0  0  0  0  0  0  0  0  0
  141.4830   80.5050  222.6700 C   0  0  0  0  0  0  0  0  0  0  0  0
  141.4470   77.2790  221.2390 C   0  0  0  0  0  0  0  0  0  0  0  0
  141.1280   75.9380  221.3880 C   0  0  0  0  0  0  0  0  0  0  0  0
  141.5890   73.0405  219.8938 H   0  0  0  0  0  0  0  0  0  0  0  0
  142.6046   72.9850  221.3694 H   0  0  0  0  0  0  0  0  0  0  0  0
  140.6619   71.0821  220.0635 H   0  0  0  0  0  0  0  0  0  0  0  0
  139.9191   68.7744  220.5120 H   0  0  0  0  0  0  0  0  0  0  0  0
  138.9426   68.1699  222.7618 H   0  0  0  0  0  0  0  0  0  0  0  0
  139.3661   70.3884  227.8434 H   0  0  0  0  0  0  0  0  0  0  0  0
  138.3062   69.0330  227.4320 H   0  0  0  0  0  0  0  0  0  0  0  0
  140.9262   68.8639  228.5619 H   0  0  0  0  0  0  0  0  0  0  0  0
  140.0191   67.5010  227.9111 H   0  0  0  0  0  0  0  0  0  0  0  0
  142.4038   68.4917  226.7968 H   0  0  0  0  0  0  0  0  0  0  0  0
  141.2539   67.5626  225.8583 H   0  0  0  0  0  0  0  0  0  0  0  0
  141.4449   70.6211  226.1887 H   0  0  0  0  0  0  0  0  0  0  0  0
  141.3568   69.7582  224.6812 H   0  0  0  0  0  0  0  0  0  0  0  0
  139.5159   72.2526  224.0252 H   0  0  0  0  0  0  0  0  0  0  0  0
  138.3451   76.1694  223.3061 H   0  0  0  0  0  0  0  0  0  0  0  0
  138.9128   78.5765  223.0436 H   0  0  0  0  0  0  0  0  0  0  0  0
  140.6691   79.9745  219.5035 H   0  0  0  0  0  0  0  0  0  0  0  0
  141.5330   82.4410  220.1127 H   0  0  0  0  0  0  0  0  0  0  0  0
  141.6314   80.2618  223.7325 H   0  0  0  0  0  0  0  0  0  0  0  0
  142.3264   77.5822  220.6519 H   0  0  0  0  0  0  0  0  0  0  0  0
  1  2  2  0
  2  3  1  0
  3  4  1  0
  4  5  1  0
  5  6  2  0
  6  7  1  0
  7  8  2  0
  8  9  1  0
  9 10  1  0
 10 11  2  0
 10 12  1  0
 12 13  1  0
 13 14  1  0
 14 15  1  0
 15 16  1  0
  9 17  2  0
  4 18  2  0
 18 19  1  0
 19 20  2  0
 20 21  1  0
 21 22  2  0
 22 23  1  0
 23 24  1  0
 24 25  2  0
 25 26  1  0
 26 27  1  0
 22 28  1  0
 28 29  2  0
 29  2  1  0
 17  5  1  0
 29 19  1  0
 16 12  1  0
 27 23  2  0
  3 30  1  0
  3 31  1  0
  6 32  1  0
  7 33  1  0
  8 34  1  0
 13 35  1  0
 13 36  1  0
 14 37  1  0
 14 38  1  0
 15 39  1  0
 15 40  1  0
 16 41  1  0
 16 42  1  0
 17 43  1  0
 20 44  1  0
 21 45  1  0
 24 46  1  0
 25 47  1  0
 27 48  1  0
 28 49  1  0
M  END
>  <smiles>  (44) 
O=C1CC(c2cccc(C(=O)N3CCCC3)c2)=Nc2ccc(-c3ccoc3)cc21

>  <score_type>  (44) 
oracle

>  <origin>  (44) 
autodockgpu

>  <m_score__min__energy>  (44) 
-8.2799999999999994

>  <m_primary>  (44) 
energy

>  <rmsd>  (44) 
6.880524737719063

>  <m_score__min__rmsd>  (44) 
6.880524737719063

>  <meeko>  (44) 
{"free_energy": -7.8, "intermolecular_energy": -8.69, "internal_energy": -0.94, "cluster_size": 40, "cluster_id": 1, "rank_in_cluster": 32}

>  <energy>  (44) 
-7.67

>  <cluster_rmsd>  (44) 
1.49

>  <cluster>  (44) 
2

$$$$

     RDKit          3D

 49 53  0  0  0  0  0  0  0  0999 V2000
  142.9900   75.2500  220.1140 O   0  0  0  0  0  0  0  0  0  0  0  0
  141.9580   74.9100  220.7850 C   0  0  0  0  0  0  0  0  0  0  0  0
  141.7110   73.4580  220.9000 C   0  0  0  0  0  0  0  0  0  0  0  0
  140.4940   73.2410  221.7120 C   0  0  0  0  0  0  0  0  0  0  0  0
  140.1020   71.8550  221.9900 C   0  0  0  0  0  0  0  0  0  0  0  0
  140.1700   70.8530  221.0500 C   0  0  0  0  0  0  0  0  0  0  0  0
  139.7380   69.5530  221.3010 C   0  0  0  0  0  0  0  0  0  0  0  0
  139.2050   69.2160  222.5500 C   0  0  0  0  0  0  0  0  0  0  0  0
  139.1420   70.2260  223.4830 C   0  0  0  0  0  0  0  0  0  0  0  0
  138.5400   70.0060  224.8190 C   0  0  0  0  0  0  0  0  0  0  0  0
  137.3030   70.0150  225.0120 O   0  0  0  0  0  0  0  0  0  0  0  0
  139.4940   69.7820  225.8620 N   0  0  0  0  0  0  0  0  0  0  0  0
  139.2850   69.5160  227.2700 C   0  0  0  0  0  0  0  0  0  0  0  0
  140.3950   68.5640  227.6770 C   0  0  0  0  0  0  0  0  0  0  0  0
  141.3330   68.5300  226.4760 C   0  0  0  0  0  0  0  0  0  0  0  0
  140.9630   69.7830  225.7190 C   0  0  0  0  0  0  0  0  0  0  0  0
  139.5700   71.5110  223.2400 C   0  0  0  0  0  0  0  0  0  0  0  0
  139.7640   74.1520  222.2260 N   0  0  0  0  0  0  0  0  0  0  0  0
  140.0140   75.5370  222.1000 C   0  0  0  0  0  0  0  0  0  0  0  0
  139.2150   76.4940  222.6890 C   0  0  0  0  0  0  0  0  0  0  0  0
  139.5540   77.8370  222.5330 C   0  0  0  0  0  0  0  0  0  0  0  0
  140.6570   78.2310  221.8100 C   0  0  0  0  0  0  0  0  0  0  0  0
  141.0470   79.6370  221.6580 C   0  0  0  0  0  0  0  0  0  0  0  0
  141.4100   80.4740  222.7080 C   0  0  0  0  0  0  0  0  0  0  0  0
  141.6770   81.6910  222.1020 C   0  0  0  0  0  0  0  0  0  0  0  0
  141.4990   81.6190  220.8100 O   0  0  0  0  0  0  0  0  0  0  0  0
  141.1130   80.3840  220.4900 C   0  0  0  0  0  0  0  0  0  0  0  0
  141.4550   77.2740  221.2210 C   0  0  0  0  0  0  0  0  0  0  0  0
  141.1220   75.9370  221.3740 C   0  0  0  0  0  0  0  0  0  0  0  0
  141.5677   73.0275  219.8979 H   0  0  0  0  0  0  0  0  0  0  0  0
  142.5717   72.9709  221.3816 H   0  0  0  0  0  0  0  0  0  0  0  0
  140.5831   71.0885  220.0581 H   0  0  0  0  0  0  0  0  0  0  0  0
  139.8161   68.7882  220.5142 H   0  0  0  0  0  0  0  0  0  0  0  0
  138.8548   68.1977  222.7745 H   0  0  0  0  0  0  0  0  0  0  0  0
  139.3476   70.4486  227.8500 H   0  0  0  0  0  0  0  0  0  0  0  0
  138.2907   69.0849  227.4587 H   0  0  0  0  0  0  0  0  0  0  0  0
  140.9195   68.9378  228.5687 H   0  0  0  0  0  0  0  0  0  0  0  0
  140.0135   67.5654  227.9364 H   0  0  0  0  0  0  0  0  0  0  0  0
  142.3852   68.5575  226.7955 H   0  0  0  0  0  0  0  0  0  0  0  0
  141.2327   67.6148  225.8740 H   0  0  0  0  0  0  0  0  0  0  0  0
  141.4118   70.6773  226.1760 H   0  0  0  0  0  0  0  0  0  0  0  0
  141.3148   69.8010  224.6769 H   0  0  0  0  0  0  0  0  0  0  0  0
  139.4942   72.2719  224.0308 H   0  0  0  0  0  0  0  0  0  0  0  0
  138.3276   76.2034  223.2705 H   0  0  0  0  0  0  0  0  0  0  0  0
  138.9211   78.6050  223.0017 H   0  0  0  0  0  0  0  0  0  0  0  0
  141.4713   80.2257  223.7779 H   0  0  0  0  0  0  0  0  0  0  0  0
  141.9964   82.5972  222.6376 H   0  0  0  0  0  0  0  0  0  0  0  0
  140.8863   80.0202  219.4770 H   0  0  0  0  0  0  0  0  0  0  0  0
  142.3415   77.5663  220.6391 H   0  0  0  0  0  0  0  0  0  0  0  0
  1  2  2  0
  2  3  1  0
  3  4  1  0
  4  5  1  0
  5  6  2  0
  6  7  1  0
  7  8  2  0
  8  9  1  0
  9 10  1  0
 10 11  2  0
 10 12  1  0
 12 13  1  0
 13 14  1  0
 14 15  1  0
 15 16  1  0
  9 17  2  0
  4 18  2  0
 18 19  1  0
 19 20  2  0
 20 21  1  0
 21 22  2  0
 22 23  1  0
 23 24  1  0
 24 25  2  0
 25 26  1  0
 26 27  1  0
 22 28  1  0
 28 29  2  0
 29  2  1  0
 17  5  1  0
 29 19  1  0
 16 12  1  0
 27 23  2  0
  3 30  1  0
  3 31  1  0
  6 32  1  0
  7 33  1  0
  8 34  1  0
 13 35  1  0
 13 36  1  0
 14 37  1  0
 14 38  1  0
 15 39  1  0
 15 40  1  0
 16 41  1  0
 16 42  1  0
 17 43  1  0
 20 44  1  0
 21 45  1  0
 24 46  1  0
 25 47  1  0
 27 48  1  0
 28 49  1  0
M  END
>  <smiles>  (45) 
O=C1CC(c2cccc(C(=O)N3CCCC3)c2)=Nc2ccc(-c3ccoc3)cc21

>  <score_type>  (45) 
oracle

>  <origin>  (45) 
autodockgpu

>  <m_score__min__energy>  (45) 
-8.2799999999999994

>  <m_primary>  (45) 
energy

>  <rmsd>  (45) 
6.876166948250776

>  <m_score__min__rmsd>  (45) 
6.876166948250776

>  <meeko>  (45) 
{"free_energy": -7.83, "intermolecular_energy": -8.73, "internal_energy": -0.94, "cluster_size": 40, "cluster_id": 1, "rank_in_cluster": 26}

>  <energy>  (45) 
-7.67

>  <cluster_rmsd>  (45) 
1.48

>  <cluster>  (45) 
2

$$$$

     RDKit          3D

 49 53  0  0  0  0  0  0  0  0999 V2000
  141.7820   73.9430  218.5920 O   0  0  0  0  0  0  0  0  0  0  0  0
  141.3320   74.0420  219.7830 C   0  0  0  0  0  0  0  0  0  0  0  0
  140.9810   72.7710  220.4490 C   0  0  0  0  0  0  0  0  0  0  0  0
  140.4920   73.0620  221.8130 C   0  0  0  0  0  0  0  0  0  0  0  0
  140.1370   71.9220  222.6650 C   0  0  0  0  0  0  0  0  0  0  0  0
  139.4140   70.8430  222.2120 C   0  0  0  0  0  0  0  0  0  0  0  0
  139.0270   69.7930  223.0410 C   0  0  0  0  0  0  0  0  0  0  0  0
  139.3690   69.8030  224.3980 C   0  0  0  0  0  0  0  0  0  0  0  0
  140.0920   70.8870  224.8410 C   0  0  0  0  0  0  0  0  0  0  0  0
  140.4590   71.0400  226.2680 C   0  0  0  0  0  0  0  0  0  0  0  0
  140.3260   72.1200  226.8870 O   0  0  0  0  0  0  0  0  0  0  0  0
  140.9710   69.8480  226.8720 N   0  0  0  0  0  0  0  0  0  0  0  0
  141.4090   69.6110  228.2330 C   0  0  0  0  0  0  0  0  0  0  0  0
  141.0180   68.1780  228.5460 C   0  0  0  0  0  0  0  0  0  0  0  0
  140.5690   67.6010  227.2080 C   0  0  0  0  0  0  0  0  0  0  0  0
  141.1800   68.5490  226.2050 C   0  0  0  0  0  0  0  0  0  0  0  0
  140.4800   71.9250  224.0250 C   0  0  0  0  0  0  0  0  0  0  0  0
  140.3790   74.2200  222.3370 N   0  0  0  0  0  0  0  0  0  0  0  0
  140.7150   75.4260  221.6820 C   0  0  0  0  0  0  0  0  0  0  0  0
  140.6020   76.6590  222.2880 C   0  0  0  0  0  0  0  0  0  0  0  0
  140.9820   77.7930  221.5730 C   0  0  0  0  0  0  0  0  0  0  0  0
  141.4640   77.7170  220.2860 C   0  0  0  0  0  0  0  0  0  0  0  0
  141.8970   78.8950  219.5280 C   0  0  0  0  0  0  0  0  0  0  0  0
  142.5370   78.8480  218.2930 C   0  0  0  0  0  0  0  0  0  0  0  0
  142.7640   80.1770  217.9730 C   0  0  0  0  0  0  0  0  0  0  0  0
  142.3130   80.9670  218.9090 O   0  0  0  0  0  0  0  0  0  0  0  0
  141.7740   80.2320  219.8810 C   0  0  0  0  0  0  0  0  0  0  0  0
  141.5770   76.4830  219.6800 C   0  0  0  0  0  0  0  0  0  0  0  0
  141.2000   75.3530  220.3880 C   0  0  0  0  0  0  0  0  0  0  0  0
  140.1935   72.2596  219.8761 H   0  0  0  0  0  0  0  0  0  0  0  0
  141.8676   72.1220  220.5024 H   0  0  0  0  0  0  0  0  0  0  0  0
  139.1295   70.8080  221.1500 H   0  0  0  0  0  0  0  0  0  0  0  0
  138.4502   68.9525  222.6276 H   0  0  0  0  0  0  0  0  0  0  0  0
  139.0754   68.9873  225.0750 H   0  0  0  0  0  0  0  0  0  0  0  0
  142.4988   69.7375  228.3128 H   0  0  0  0  0  0  0  0  0  0  0  0
  140.9496   70.3205  228.9370 H   0  0  0  0  0  0  0  0  0  0  0  0
  141.8785   67.6182  228.9412 H   0  0  0  0  0  0  0  0  0  0  0  0
  140.2304   68.1182  229.3116 H   0  0  0  0  0  0  0  0  0  0  0  0
  140.9521   66.5791  227.0700 H   0  0  0  0  0  0  0  0  0  0  0  0
  139.4758   67.5200  227.1167 H   0  0  0  0  0  0  0  0  0  0  0  0
  142.2496   68.3412  226.0539 H   0  0  0  0  0  0  0  0  0  0  0  0
  140.7421   68.4836  225.1980 H   0  0  0  0  0  0  0  0  0  0  0  0
  141.0617   72.7607  224.4412 H   0  0  0  0  0  0  0  0  0  0  0  0
  140.2194   76.7459  223.3157 H   0  0  0  0  0  0  0  0  0  0  0  0
  140.8940   78.7794  222.0519 H   0  0  0  0  0  0  0  0  0  0  0  0
  142.8025   77.9575  217.7043 H   0  0  0  0  0  0  0  0  0  0  0  0
  143.2586   80.5205  217.0525 H   0  0  0  0  0  0  0  0  0  0  0  0
  141.3123   80.6173  220.8021 H   0  0  0  0  0  0  0  0  0  0  0  0
  141.9598   76.3974  218.6523 H   0  0  0  0  0  0  0  0  0  0  0  0
  1  2  2  0
  2  3  1  0
  3  4  1  0
  4  5  1  0
  5  6  2  0
  6  7  1  0
  7  8  2  0
  8  9  1  0
  9 10  1  0
 10 11  2  0
 10 12  1  0
 12 13  1  0
 13 14  1  0
 14 15  1  0
 15 16  1  0
  9 17  2  0
  4 18  2  0
 18 19  1  0
 19 20  2  0
 20 21  1  0
 21 22  2  0
 22 23  1  0
 23 24  1  0
 24 25  2  0
 25 26  1  0
 26 27  1  0
 22 28  1  0
 28 29  2  0
 29  2  1  0
 17  5  1  0
 29 19  1  0
 16 12  1  0
 27 23  2  0
  3 30  1  0
  3 31  1  0
  6 32  1  0
  7 33  1  0
  8 34  1  0
 13 35  1  0
 13 36  1  0
 14 37  1  0
 14 38  1  0
 15 39  1  0
 15 40  1  0
 16 41  1  0
 16 42  1  0
 17 43  1  0
 20 44  1  0
 21 45  1  0
 24 46  1  0
 25 47  1  0
 27 48  1  0
 28 49  1  0
M  END
>  <smiles>  (46) 
O=C1CC(c2cccc(C(=O)N3CCCC3)c2)=Nc2ccc(-c3ccoc3)cc21

>  <score_type>  (46) 
oracle

>  <origin>  (46) 
autodockgpu

>  <m_score__min__energy>  (46) 
-8.2799999999999994

>  <m_primary>  (46) 
energy

>  <rmsd>  (46) 
7.511168942682703

>  <m_score__min__rmsd>  (46) 
7.511168942682703

>  <meeko>  (46) 
{"free_energy": -8.11, "intermolecular_energy": -9.01, "internal_energy": -0.61, "cluster_size": 40, "cluster_id": 1, "rank_in_cluster": 8}

>  <energy>  (46) 
-7.66

>  <cluster_rmsd>  (46) 
1.44

>  <cluster>  (46) 
2

$$$$

     RDKit          3D

 49 53  0  0  0  0  0  0  0  0999 V2000
  143.1810   73.9720  219.4570 O   0  0  0  0  0  0  0  0  0  0  0  0
  142.2400   74.0470  220.3180 C   0  0  0  0  0  0  0  0  0  0  0  0
  141.8880   72.7870  221.0020 C   0  0  0  0  0  0  0  0  0  0  0  0
  140.7990   73.0510  221.9660 C   0  0  0  0  0  0  0  0  0  0  0  0
  140.3360   71.9300  222.7900 C   0  0  0  0  0  0  0  0  0  0  0  0
  139.5480   70.9140  222.3020 C   0  0  0  0  0  0  0  0  0  0  0  0
  139.0600   69.8860  223.1050 C   0  0  0  0  0  0  0  0  0  0  0  0
  139.3620   69.8530  224.4710 C   0  0  0  0  0  0  0  0  0  0  0  0
  140.1510   70.8750  224.9490 C   0  0  0  0  0  0  0  0  0  0  0  0
  140.4860   70.9820  226.3890 C   0  0  0  0  0  0  0  0  0  0  0  0
  140.3090   72.0330  227.0460 O   0  0  0  0  0  0  0  0  0  0  0  0
  141.0220   69.7830  226.9560 N   0  0  0  0  0  0  0  0  0  0  0  0
  141.4420   69.5060  228.3150 C   0  0  0  0  0  0  0  0  0  0  0  0
  141.0890   68.0500  228.5640 C   0  0  0  0  0  0  0  0  0  0  0  0
  140.6820   67.5130  227.1970 C   0  0  0  0  0  0  0  0  0  0  0  0
  141.2830   68.5180  226.2430 C   0  0  0  0  0  0  0  0  0  0  0  0
  140.6370   71.8910  224.1590 C   0  0  0  0  0  0  0  0  0  0  0  0
  140.2410   74.1790  222.1740 N   0  0  0  0  0  0  0  0  0  0  0  0
  140.5870   75.3740  221.5050 C   0  0  0  0  0  0  0  0  0  0  0  0
  139.9780   76.5810  221.7730 C   0  0  0  0  0  0  0  0  0  0  0  0
  140.4040   77.7140  221.0820 C   0  0  0  0  0  0  0  0  0  0  0  0
  141.4110   77.6610  220.1450 C   0  0  0  0  0  0  0  0  0  0  0  0
  141.8940   78.8460  219.4280 C   0  0  0  0  0  0  0  0  0  0  0  0
  142.5570   78.8130  218.2060 C   0  0  0  0  0  0  0  0  0  0  0  0
  142.8300   80.1430  217.9270 C   0  0  0  0  0  0  0  0  0  0  0  0
  142.3840   80.9210  218.8760 O   0  0  0  0  0  0  0  0  0  0  0  0
  141.8030   80.1760  219.8160 C   0  0  0  0  0  0  0  0  0  0  0  0
  142.0210   76.4530  219.8770 C   0  0  0  0  0  0  0  0  0  0  0  0
  141.6000   75.3240  220.5630 C   0  0  0  0  0  0  0  0  0  0  0  0
  141.5531   72.0462  220.2610 H   0  0  0  0  0  0  0  0  0  0  0  0
  142.7675   72.3941  221.5331 H   0  0  0  0  0  0  0  0  0  0  0  0
  139.2923   70.9132  221.2321 H   0  0  0  0  0  0  0  0  0  0  0  0
  138.4343   69.0964  222.6634 H   0  0  0  0  0  0  0  0  0  0  0  0
  138.9890   69.0533  225.1277 H   0  0  0  0  0  0  0  0  0  0  0  0
  142.5257   69.6617  228.4210 H   0  0  0  0  0  0  0  0  0  0  0  0
  140.9486   70.1732  229.0370 H   0  0  0  0  0  0  0  0  0  0  0  0
  141.9589   67.5008  228.9535 H   0  0  0  0  0  0  0  0  0  0  0  0
  140.2897   67.9368  229.3111 H   0  0  0  0  0  0  0  0  0  0  0  0
  141.0981   66.5090  227.0270 H   0  0  0  0  0  0  0  0  0  0  0  0
  139.5936   67.4034  227.0814 H   0  0  0  0  0  0  0  0  0  0  0  0
  142.3610   68.3481  226.1052 H   0  0  0  0  0  0  0  0  0  0  0  0
  140.8664   68.4793  225.2257 H   0  0  0  0  0  0  0  0  0  0  0  0
  141.2651   72.6770  224.6036 H   0  0  0  0  0  0  0  0  0  0  0  0
  139.1714   76.6488  222.5178 H   0  0  0  0  0  0  0  0  0  0  0  0
  139.9209   78.6797  221.2918 H   0  0  0  0  0  0  0  0  0  0  0  0
  142.8080   77.9311  217.5984 H   0  0  0  0  0  0  0  0  0  0  0  0
  143.3529   80.4961  217.0259 H   0  0  0  0  0  0  0  0  0  0  0  0
  141.3335   80.5495  220.7380 H   0  0  0  0  0  0  0  0  0  0  0  0
  142.8275   76.3866  219.1319 H   0  0  0  0  0  0  0  0  0  0  0  0
  1  2  2  0
  2  3  1  0
  3  4  1  0
  4  5  1  0
  5  6  2  0
  6  7  1  0
  7  8  2  0
  8  9  1  0
  9 10  1  0
 10 11  2  0
 10 12  1  0
 12 13  1  0
 13 14  1  0
 14 15  1  0
 15 16  1  0
  9 17  2  0
  4 18  2  0
 18 19  1  0
 19 20  2  0
 20 21  1  0
 21 22  2  0
 22 23  1  0
 23 24  1  0
 24 25  2  0
 25 26  1  0
 26 27  1  0
 22 28  1  0
 28 29  2  0
 29  2  1  0
 17  5  1  0
 29 19  1  0
 16 12  1  0
 27 23  2  0
  3 30  1  0
  3 31  1  0
  6 32  1  0
  7 33  1  0
  8 34  1  0
 13 35  1  0
 13 36  1  0
 14 37  1  0
 14 38  1  0
 15 39  1  0
 15 40  1  0
 16 41  1  0
 16 42  1  0
 17 43  1  0
 20 44  1  0
 21 45  1  0
 24 46  1  0
 25 47  1  0
 27 48  1  0
 28 49  1  0
M  END
>  <smiles>  (47) 
O=C1CC(c2cccc(C(=O)N3CCCC3)c2)=Nc2ccc(-c3ccoc3)cc21

>  <score_type>  (47) 
oracle

>  <origin>  (47) 
autodockgpu

>  <m_score__min__energy>  (47) 
-8.2799999999999994

>  <m_primary>  (47) 
energy

>  <rmsd>  (47) 
7.48656169141667

>  <m_score__min__rmsd>  (47) 
7.48656169141667

>  <meeko>  (47) 
{"free_energy": -8.26, "intermolecular_energy": -9.16, "internal_energy": -0.72, "cluster_size": 40, "cluster_id": 1, "rank_in_cluster": 3}

>  <energy>  (47) 
-7.65

>  <cluster_rmsd>  (47) 
1.44

>  <cluster>  (47) 
2

$$$$

     RDKit          3D

 49 53  0  0  0  0  0  0  0  0999 V2000
  143.0150   75.2900  220.1860 O   0  0  0  0  0  0  0  0  0  0  0  0
  141.9770   74.9390  220.8430 C   0  0  0  0  0  0  0  0  0  0  0  0
  141.7390   73.4850  220.9480 C   0  0  0  0  0  0  0  0  0  0  0  0
  140.5140   73.2540  221.7430 C   0  0  0  0  0  0  0  0  0  0  0  0
  140.1300   71.8640  222.0090 C   0  0  0  0  0  0  0  0  0  0  0  0
  140.2090   70.8690  221.0620 C   0  0  0  0  0  0  0  0  0  0  0  0
  139.7830   69.5650  221.3030 C   0  0  0  0  0  0  0  0  0  0  0  0
  139.2460   69.2150  222.5470 C   0  0  0  0  0  0  0  0  0  0  0  0
  139.1720   70.2190  223.4860 C   0  0  0  0  0  0  0  0  0  0  0  0
  138.5650   69.9860  224.8180 C   0  0  0  0  0  0  0  0  0  0  0  0
  137.3280   69.9920  225.0050 O   0  0  0  0  0  0  0  0  0  0  0  0
  139.5150   69.7510  225.8610 N   0  0  0  0  0  0  0  0  0  0  0  0
  139.3010   69.4710  227.2670 C   0  0  0  0  0  0  0  0  0  0  0  0
  140.4100   68.5150  227.6690 C   0  0  0  0  0  0  0  0  0  0  0  0
  141.3520   68.4940  226.4700 C   0  0  0  0  0  0  0  0  0  0  0  0
  140.9850   69.7540  225.7250 C   0  0  0  0  0  0  0  0  0  0  0  0
  139.5940   71.5080  223.2550 C   0  0  0  0  0  0  0  0  0  0  0  0
  139.7710   74.1570  222.2520 N   0  0  0  0  0  0  0  0  0  0  0  0
  140.0110   75.5450  222.1360 C   0  0  0  0  0  0  0  0  0  0  0  0
  139.1980   76.4920  222.7200 C   0  0  0  0  0  0  0  0  0  0  0  0
  139.5290   77.8380  222.5740 C   0  0  0  0  0  0  0  0  0  0  0  0
  140.6380   78.2450  221.8670 C   0  0  0  0  0  0  0  0  0  0  0  0
  141.0180   79.6550  221.7270 C   0  0  0  0  0  0  0  0  0  0  0  0
  141.6770   80.3950  222.7030 C   0  0  0  0  0  0  0  0  0  0  0  0
  141.8110   81.6570  222.1450 C   0  0  0  0  0  0  0  0  0  0  0  0
  141.2920   81.6960  220.9480 O   0  0  0  0  0  0  0  0  0  0  0  0
  140.7940   80.4970  220.6470 C   0  0  0  0  0  0  0  0  0  0  0  0
  141.4500   77.2970  221.2830 C   0  0  0  0  0  0  0  0  0  0  0  0
  141.1260   75.9570  221.4260 C   0  0  0  0  0  0  0  0  0  0  0  0
  141.6117   73.0585  219.9421 H   0  0  0  0  0  0  0  0  0  0  0  0
  142.5971   73.0024  221.4387 H   0  0  0  0  0  0  0  0  0  0  0  0
  140.6258   71.1135  220.0738 H   0  0  0  0  0  0  0  0  0  0  0  0
  139.8691   68.8062  220.5113 H   0  0  0  0  0  0  0  0  0  0  0  0
  138.9016   68.1928  222.7629 H   0  0  0  0  0  0  0  0  0  0  0  0
  139.3614   70.3979  227.8562 H   0  0  0  0  0  0  0  0  0  0  0  0
  138.3062   69.0378  227.4479 H   0  0  0  0  0  0  0  0  0  0  0  0
  140.9313   68.8800  228.5662 H   0  0  0  0  0  0  0  0  0  0  0  0
  140.0284   67.5137  227.9177 H   0  0  0  0  0  0  0  0  0  0  0  0
  142.4032   68.5182  226.7931 H   0  0  0  0  0  0  0  0  0  0  0  0
  141.2532   67.5853  225.8581 H   0  0  0  0  0  0  0  0  0  0  0  0
  141.4312   70.6436  226.1936 H   0  0  0  0  0  0  0  0  0  0  0  0
  141.3417   69.7831  224.6848 H   0  0  0  0  0  0  0  0  0  0  0  0
  139.5106   72.2625  224.0511 H   0  0  0  0  0  0  0  0  0  0  0  0
  138.3062   76.1918  223.2897 H   0  0  0  0  0  0  0  0  0  0  0  0
  138.8841   78.5987  223.0381 H   0  0  0  0  0  0  0  0  0  0  0  0
  142.0152   80.0558  223.6932 H   0  0  0  0  0  0  0  0  0  0  0  0
  142.2908   82.5116  222.6445 H   0  0  0  0  0  0  0  0  0  0  0  0
  140.2930   80.2228  219.7069 H   0  0  0  0  0  0  0  0  0  0  0  0
  142.3408   77.5989  220.7126 H   0  0  0  0  0  0  0  0  0  0  0  0
  1  2  2  0
  2  3  1  0
  3  4  1  0
  4  5  1  0
  5  6  2  0
  6  7  1  0
  7  8  2  0
  8  9  1  0
  9 10  1  0
 10 11  2  0
 10 12  1  0
 12 13  1  0
 13 14  1  0
 14 15  1  0
 15 16  1  0
  9 17  2  0
  4 18  2  0
 18 19  1  0
 19 20  2  0
 20 21  1  0
 21 22  2  0
 22 23  1  0
 23 24  1  0
 24 25  2  0
 25 26  1  0
 26 27  1  0
 22 28  1  0
 28 29  2  0
 29  2  1  0
 17  5  1  0
 29 19  1  0
 16 12  1  0
 27 23  2  0
  3 30  1  0
  3 31  1  0
  6 32  1  0
  7 33  1  0
  8 34  1  0
 13 35  1  0
 13 36  1  0
 14 37  1  0
 14 38  1  0
 15 39  1  0
 15 40  1  0
 16 41  1  0
 16 42  1  0
 17 43  1  0
 20 44  1  0
 21 45  1  0
 24 46  1  0
 25 47  1  0
 27 48  1  0
 28 49  1  0
M  END
>  <smiles>  (48) 
O=C1CC(c2cccc(C(=O)N3CCCC3)c2)=Nc2ccc(-c3ccoc3)cc21

>  <score_type>  (48) 
oracle

>  <origin>  (48) 
autodockgpu

>  <m_score__min__energy>  (48) 
-8.2799999999999994

>  <m_primary>  (48) 
energy

>  <rmsd>  (48) 
6.874417551930683

>  <m_score__min__rmsd>  (48) 
6.874417551930683

>  <meeko>  (48) 
{"free_energy": -7.84, "intermolecular_energy": -8.73, "internal_energy": -0.93, "cluster_size": 40, "cluster_id": 1, "rank_in_cluster": 15}

>  <energy>  (48) 
-7.64

>  <cluster_rmsd>  (48) 
1.45

>  <cluster>  (48) 
2

$$$$

     RDKit          3D

 49 53  0  0  0  0  0  0  0  0999 V2000
  142.9780   75.2660  220.0920 O   0  0  0  0  0  0  0  0  0  0  0  0
  141.9520   74.9220  220.7720 C   0  0  0  0  0  0  0  0  0  0  0  0
  141.7070   73.4700  220.8810 C   0  0  0  0  0  0  0  0  0  0  0  0
  140.4990   73.2470  221.7050 C   0  0  0  0  0  0  0  0  0  0  0  0
  140.1110   71.8590  221.9780 C   0  0  0  0  0  0  0  0  0  0  0  0
  140.1920   70.8580  221.0390 C   0  0  0  0  0  0  0  0  0  0  0  0
  139.7630   69.5560  221.2860 C   0  0  0  0  0  0  0  0  0  0  0  0
  139.2200   69.2160  222.5300 C   0  0  0  0  0  0  0  0  0  0  0  0
  139.1440   70.2260  223.4620 C   0  0  0  0  0  0  0  0  0  0  0  0
  138.5310   70.0030  224.7930 C   0  0  0  0  0  0  0  0  0  0  0  0
  137.2930   70.0130  224.9750 O   0  0  0  0  0  0  0  0  0  0  0  0
  139.4760   69.7740  225.8420 N   0  0  0  0  0  0  0  0  0  0  0  0
  139.2550   69.5030  227.2480 C   0  0  0  0  0  0  0  0  0  0  0  0
  140.3610   68.5480  227.6610 C   0  0  0  0  0  0  0  0  0  0  0  0
  141.3080   68.5170  226.4670 C   0  0  0  0  0  0  0  0  0  0  0  0
  140.9460   69.7730  225.7120 C   0  0  0  0  0  0  0  0  0  0  0  0
  139.5690   71.5130  223.2240 C   0  0  0  0  0  0  0  0  0  0  0  0
  139.7750   74.1550  222.2320 N   0  0  0  0  0  0  0  0  0  0  0  0
  140.0220   75.5410  222.1110 C   0  0  0  0  0  0  0  0  0  0  0  0
  139.2300   76.4930  222.7150 C   0  0  0  0  0  0  0  0  0  0  0  0
  139.5660   77.8370  222.5630 C   0  0  0  0  0  0  0  0  0  0  0  0
  140.6610   78.2370  221.8310 C   0  0  0  0  0  0  0  0  0  0  0  0
  141.0490   79.6440  221.6830 C   0  0  0  0  0  0  0  0  0  0  0  0
  141.5630   80.4330  222.7070 C   0  0  0  0  0  0  0  0  0  0  0  0
  141.7650   81.6710  222.1180 C   0  0  0  0  0  0  0  0  0  0  0  0
  141.4130   81.6540  220.8610 O   0  0  0  0  0  0  0  0  0  0  0  0
  140.9690   80.4380  220.5470 C   0  0  0  0  0  0  0  0  0  0  0  0
  141.4540   77.2830  221.2270 C   0  0  0  0  0  0  0  0  0  0  0  0
  141.1220   75.9460  221.3760 C   0  0  0  0  0  0  0  0  0  0  0  0
  141.5530   73.0455  219.8780 H   0  0  0  0  0  0  0  0  0  0  0  0
  142.5732   72.9807  221.3505 H   0  0  0  0  0  0  0  0  0  0  0  0
  140.6134   71.0953  220.0510 H   0  0  0  0  0  0  0  0  0  0  0  0
  139.8515   68.7918  220.4997 H   0  0  0  0  0  0  0  0  0  0  0  0
  138.8725   68.1961  222.7513 H   0  0  0  0  0  0  0  0  0  0  0  0
  139.3138   70.4334  227.8318 H   0  0  0  0  0  0  0  0  0  0  0  0
  138.2588   69.0723  227.4268 H   0  0  0  0  0  0  0  0  0  0  0  0
  140.8790   68.9183  228.5580 H   0  0  0  0  0  0  0  0  0  0  0  0
  139.9765   67.5491  227.9145 H   0  0  0  0  0  0  0  0  0  0  0  0
  142.3578   68.5416  226.7946 H   0  0  0  0  0  0  0  0  0  0  0  0
  141.2107   67.6043  225.8608 H   0  0  0  0  0  0  0  0  0  0  0  0
  141.3921   70.6648  226.1764 H   0  0  0  0  0  0  0  0  0  0  0  0
  141.3067   69.7942  224.6730 H   0  0  0  0  0  0  0  0  0  0  0  0
  139.4832   72.2733  224.0143 H   0  0  0  0  0  0  0  0  0  0  0  0
  138.3500   76.1981  223.3054 H   0  0  0  0  0  0  0  0  0  0  0  0
  138.9370   78.6014  223.0426 H   0  0  0  0  0  0  0  0  0  0  0  0
  141.7636   80.1405  223.7482 H   0  0  0  0  0  0  0  0  0  0  0  0
  142.1684   82.5511  222.6402 H   0  0  0  0  0  0  0  0  0  0  0  0
  140.6029   80.1188  219.5600 H   0  0  0  0  0  0  0  0  0  0  0  0
  142.3344   77.5787  220.6375 H   0  0  0  0  0  0  0  0  0  0  0  0
  1  2  2  0
  2  3  1  0
  3  4  1  0
  4  5  1  0
  5  6  2  0
  6  7  1  0
  7  8  2  0
  8  9  1  0
  9 10  1  0
 10 11  2  0
 10 12  1  0
 12 13  1  0
 13 14  1  0
 14 15  1  0
 15 16  1  0
  9 17  2  0
  4 18  2  0
 18 19  1  0
 19 20  2  0
 20 21  1  0
 21 22  2  0
 22 23  1  0
 23 24  1  0
 24 25  2  0
 25 26  1  0
 26 27  1  0
 22 28  1  0
 28 29  2  0
 29  2  1  0
 17  5  1  0
 29 19  1  0
 16 12  1  0
 27 23  2  0
  3 30  1  0
  3 31  1  0
  6 32  1  0
  7 33  1  0
  8 34  1  0
 13 35  1  0
 13 36  1  0
 14 37  1  0
 14 38  1  0
 15 39  1  0
 15 40  1  0
 16 41  1  0
 16 42  1  0
 17 43  1  0
 20 44  1  0
 21 45  1  0
 24 46  1  0
 25 47  1  0
 27 48  1  0
 28 49  1  0
M  END
>  <smiles>  (49) 
O=C1CC(c2cccc(C(=O)N3CCCC3)c2)=Nc2ccc(-c3ccoc3)cc21

>  <score_type>  (49) 
oracle

>  <origin>  (49) 
autodockgpu

>  <m_score__min__energy>  (49) 
-8.2799999999999994

>  <m_primary>  (49) 
energy

>  <rmsd>  (49) 
6.876145574120122

>  <m_score__min__rmsd>  (49) 
6.876145574120122

>  <meeko>  (49) 
{"free_energy": -7.84, "intermolecular_energy": -8.74, "internal_energy": -0.93, "cluster_size": 40, "cluster_id": 1, "rank_in_cluster": 10}

>  <energy>  (49) 
-7.27

>  <cluster_rmsd>  (49) 
0.0

>  <cluster>  (49) 
3

$$$$

     RDKit          3D

 49 53  0  0  0  0  0  0  0  0999 V2000
  143.0080   75.2460  220.1210 O   0  0  0  0  0  0  0  0  0  0  0  0
  141.9690   74.9030  220.7810 C   0  0  0  0  0  0  0  0  0  0  0  0
  141.7270   73.4500  220.8940 C   0  0  0  0  0  0  0  0  0  0  0  0
  140.5020   73.2280  221.6930 C   0  0  0  0  0  0  0  0  0  0  0  0
  140.1140   71.8410  221.9670 C   0  0  0  0  0  0  0  0  0  0  0  0
  140.1890   70.8400  221.0260 C   0  0  0  0  0  0  0  0  0  0  0  0
  139.7590   69.5390  221.2740 C   0  0  0  0  0  0  0  0  0  0  0  0
  139.2210   69.1990  222.5200 C   0  0  0  0  0  0  0  0  0  0  0  0
  139.1500   70.2070  223.4540 C   0  0  0  0  0  0  0  0  0  0  0  0
  138.5430   69.9840  224.7860 C   0  0  0  0  0  0  0  0  0  0  0  0
  137.3060   70.0000  224.9750 O   0  0  0  0  0  0  0  0  0  0  0  0
  139.4920   69.7480  225.8310 N   0  0  0  0  0  0  0  0  0  0  0  0
  139.2770   69.4750  227.2370 C   0  0  0  0  0  0  0  0  0  0  0  0
  140.3800   68.5140  227.6430 C   0  0  0  0  0  0  0  0  0  0  0  0
  141.3210   68.4810  226.4440 C   0  0  0  0  0  0  0  0  0  0  0  0
  140.9610   69.7410  225.6930 C   0  0  0  0  0  0  0  0  0  0  0  0
  139.5760   71.4940  223.2140 C   0  0  0  0  0  0  0  0  0  0  0  0
  139.7630   74.1360  222.1980 N   0  0  0  0  0  0  0  0  0  0  0  0
  140.0080   75.5230  222.0740 C   0  0  0  0  0  0  0  0  0  0  0  0
  139.2000   76.4760  222.6540 C   0  0  0  0  0  0  0  0  0  0  0  0
  139.5340   77.8200  222.5010 C   0  0  0  0  0  0  0  0  0  0  0  0
  140.6440   78.2190  221.7890 C   0  0  0  0  0  0  0  0  0  0  0  0
  141.0290   79.6270  221.6410 C   0  0  0  0  0  0  0  0  0  0  0  0
  141.1980   80.5150  222.6980 C   0  0  0  0  0  0  0  0  0  0  0  0
  141.5410   81.7120  222.0900 C   0  0  0  0  0  0  0  0  0  0  0  0
  141.5820   81.5820  220.7920 O   0  0  0  0  0  0  0  0  0  0  0  0
  141.2770   80.3260  220.4670 C   0  0  0  0  0  0  0  0  0  0  0  0
  141.4520   77.2650  221.2090 C   0  0  0  0  0  0  0  0  0  0  0  0
  141.1230   75.9270  221.3600 C   0  0  0  0  0  0  0  0  0  0  0  0
  141.5965   73.0185  219.8906 H   0  0  0  0  0  0  0  0  0  0  0  0
  142.5845   72.9669  221.3852 H   0  0  0  0  0  0  0  0  0  0  0  0
  140.6061   71.0774  220.0362 H   0  0  0  0  0  0  0  0  0  0  0  0
  139.8427   68.7752  220.4868 H   0  0  0  0  0  0  0  0  0  0  0  0
  138.8730   68.1793  222.7414 H   0  0  0  0  0  0  0  0  0  0  0  0
  139.3431   70.4039  227.8224 H   0  0  0  0  0  0  0  0  0  0  0  0
  138.2797   69.0484  227.4196 H   0  0  0  0  0  0  0  0  0  0  0  0
  140.9041   68.8801  228.5382 H   0  0  0  0  0  0  0  0  0  0  0  0
  139.9920   67.5164  227.8967 H   0  0  0  0  0  0  0  0  0  0  0  0
  142.3725   68.5000  226.7664 H   0  0  0  0  0  0  0  0  0  0  0  0
  141.2163   67.5700  225.8364 H   0  0  0  0  0  0  0  0  0  0  0  0
  141.4136   70.6298  226.1568 H   0  0  0  0  0  0  0  0  0  0  0  0
  141.3165   69.7631  224.6523 H   0  0  0  0  0  0  0  0  0  0  0  0
  139.4938   72.2540  224.0050 H   0  0  0  0  0  0  0  0  0  0  0  0
  138.3083   76.1816  223.2269 H   0  0  0  0  0  0  0  0  0  0  0  0
  138.8924   78.5852  222.9624 H   0  0  0  0  0  0  0  0  0  0  0  0
  141.0849   80.3128  223.7733 H   0  0  0  0  0  0  0  0  0  0  0  0
  141.7508   82.6473  222.6295 H   0  0  0  0  0  0  0  0  0  0  0  0
  141.2299   79.9151  219.4477 H   0  0  0  0  0  0  0  0  0  0  0  0
  142.3431   77.5605  220.6358 H   0  0  0  0  0  0  0  0  0  0  0  0
  1  2  2  0
  2  3  1  0
  3  4  1  0
  4  5  1  0
  5  6  2  0
  6  7  1  0
  7  8  2  0
  8  9  1  0
  9 10  1  0
 10 11  2  0
 10 12  1  0
 12 13  1  0
 13 14  1  0
 14 15  1  0
 15 16  1  0
  9 17  2  0
  4 18  2  0
 18 19  1  0
 19 20  2  0
 20 21  1  0
 21 22  2  0
 22 23  1  0
 23 24  1  0
 24 25  2  0
 25 26  1  0
 26 27  1  0
 22 28  1  0
 28 29  2  0
 29  2  1  0
 17  5  1  0
 29 19  1  0
 16 12  1  0
 27 23  2  0
  3 30  1  0
  3 31  1  0
  6 32  1  0
  7 33  1  0
  8 34  1  0
 13 35  1  0
 13 36  1  0
 14 37  1  0
 14 38  1  0
 15 39  1  0
 15 40  1  0
 16 41  1  0
 16 42  1  0
 17 43  1  0
 20 44  1  0
 21 45  1  0
 24 46  1  0
 25 47  1  0
 27 48  1  0
 28 49  1  0
M  END
>  <smiles>  (50) 
O=C1CC(c2cccc(C(=O)N3CCCC3)c2)=Nc2ccc(-c3ccoc3)cc21

>  <score_type>  (50) 
oracle

>  <origin>  (50) 
autodockgpu

>  <m_score__min__energy>  (50) 
-8.2799999999999994

>  <m_primary>  (50) 
energy

>  <rmsd>  (50) 
6.873342595719241

>  <m_score__min__rmsd>  (50) 
6.873342595719241

>  <meeko>  (50) 
{"free_energy": -7.82, "intermolecular_energy": -8.71, "internal_energy": -0.94, "cluster_size": 40, "cluster_id": 1, "rank_in_cluster": 29}

>  <energy>  (50) 
-7.11

>  <cluster_rmsd>  (50) 
0.0

>  <cluster>  (50) 
4

$$$$
