
     RDKit          3D

 70 73  0  0  0  0  0  0  0  0999 V2000
  138.4930   67.7300  222.4370 C   0  0  0  0  0  0  0  0  0  0  0  0
  137.2930   68.5650  222.7010 C   0  0  0  0  0  0  0  0  0  0  0  0
  137.4980   69.6910  223.6400 C   0  0  0  0  0  0  0  0  0  0  0  0
  136.4500   70.1930  224.1210 O   0  0  0  0  0  0  0  0  0  0  0  0
  138.8240   70.1870  223.9830 N   0  0  0  0  0  0  0  0  0  0  0  0
  139.4330   69.8200  225.2200 C   0  0  0  0  0  0  0  0  0  0  0  0
  139.5760   68.5160  225.6420 C   0  0  0  0  0  0  0  0  0  0  0  0
  140.2010   68.1460  226.8170 C   0  0  0  0  0  0  0  0  0  0  0  0
  140.7300   69.0900  227.6540 C   0  0  0  0  0  0  0  0  0  0  0  0
  140.6120   70.4050  227.2740 C   0  0  0  0  0  0  0  0  0  0  0  0
  139.9790   70.7740  226.0840 C   0  0  0  0  0  0  0  0  0  0  0  0
  139.4080   71.0430  222.9940 C   0  0  0  0  0  0  0  0  0  0  0  0
  138.5190   72.2280  222.7280 C   0  0  0  0  0  0  0  0  0  0  0  0
  138.9760   72.7530  221.3510 C   0  0  0  0  0  0  0  0  0  0  0  0
  140.4150   72.9280  221.3030 N   0  0  0  0  0  0  0  0  0  0  0  0
  141.0220   74.1750  220.9100 C   0  0  0  0  0  0  0  0  0  0  0  0
  142.2700   74.2250  220.8960 O   0  0  0  0  0  0  0  0  0  0  0  0
  140.1040   75.2730  220.5650 C   0  0  0  0  0  0  0  0  0  0  0  0
  140.6300   76.6540  220.7630 C   0  0  2  0  0  0  0  0  0  0  0  0
  142.0520   76.7230  220.3920 N   0  0  0  0  0  0  0  0  0  0  0  0
  140.4400   77.2140  222.1220 C   0  0  0  0  0  0  0  0  0  0  0  0
  138.9780   77.3180  222.4220 C   0  0  0  0  0  0  0  0  0  0  0  0
  138.3080   78.5390  222.3880 C   0  0  0  0  0  0  0  0  0  0  0  0
  136.9830   78.6920  222.6400 C   0  0  0  0  0  0  0  0  0  0  0  0
  136.2370   77.5650  222.9530 C   0  0  0  0  0  0  0  0  0  0  0  0
  136.8360   76.3310  223.0030 C   0  0  0  0  0  0  0  0  0  0  0  0
  138.2030   76.2220  222.7360 C   0  0  0  0  0  0  0  0  0  0  0  0
  141.1340   78.4700  222.4210 C   0  0  0  0  0  0  0  0  0  0  0  0
  141.3860   79.4740  221.5120 C   0  0  0  0  0  0  0  0  0  0  0  0
  142.0460   80.6460  221.8550 C   0  0  0  0  0  0  0  0  0  0  0  0
  142.4800   80.8420  223.1570 C   0  0  0  0  0  0  0  0  0  0  0  0
  142.2380   79.8400  224.0970 C   0  0  0  0  0  0  0  0  0  0  0  0
  141.5850   78.7010  223.7210 C   0  0  0  0  0  0  0  0  0  0  0  0
  141.2720   71.7860  221.6800 C   0  0  0  0  0  0  0  0  0  0  0  0
  140.8040   71.5030  223.1480 C   0  0  0  0  0  0  0  0  0  0  0  0
  138.9405   67.4186  223.3924 H   0  0  0  0  0  0  0  0  0  0  0  0
  138.2005   66.8393  221.8615 H   0  0  0  0  0  0  0  0  0  0  0  0
  139.2265   68.3138  221.8615 H   0  0  0  0  0  0  0  0  0  0  0  0
  136.9510   68.9808  221.7418 H   0  0  0  0  0  0  0  0  0  0  0  0
  136.5599   67.8997  223.1804 H   0  0  0  0  0  0  0  0  0  0  0  0
  139.1667   67.7196  225.0030 H   0  0  0  0  0  0  0  0  0  0  0  0
  140.2741   67.0810  227.0825 H   0  0  0  0  0  0  0  0  0  0  0  0
  141.2293   68.8078  228.5927 H   0  0  0  0  0  0  0  0  0  0  0  0
  141.0272   71.1890  227.9243 H   0  0  0  0  0  0  0  0  0  0  0  0
  139.9087   71.8398  225.8210 H   0  0  0  0  0  0  0  0  0  0  0  0
  139.4822   70.3518  222.1415 H   0  0  0  0  0  0  0  0  0  0  0  0
  137.4628   71.9223  222.6965 H   0  0  0  0  0  0  0  0  0  0  0  0
  138.5964   72.9936  223.5141 H   0  0  0  0  0  0  0  0  0  0  0  0
  138.6770   72.0322  220.5758 H   0  0  0  0  0  0  0  0  0  0  0  0
  138.5021   73.7306  221.1782 H   0  0  0  0  0  0  0  0  0  0  0  0
  139.8344   75.1649  219.5041 H   0  0  0  0  0  0  0  0  0  0  0  0
  139.2553   75.1777  221.2583 H   0  0  0  0  0  0  0  0  0  0  0  0
  140.0214   77.2825  220.0962 H   0  0  0  0  0  0  0  0  0  0  0  0
  142.2760   76.0650  219.6110 H   0  0  0  0  0  0  0  0  0  0  0  0
  142.6450   76.4350  221.2080 H   0  0  0  0  0  0  0  0  0  0  0  0
  140.9322   76.4951  222.7935 H   0  0  0  0  0  0  0  0  0  0  0  0
  138.8911   79.4383  222.1407 H   0  0  0  0  0  0  0  0  0  0  0  0
  136.5123   79.6853  222.5971 H   0  0  0  0  0  0  0  0  0  0  0  0
  135.1613   77.6607  223.1619 H   0  0  0  0  0  0  0  0  0  0  0  0
  136.2455   75.4366  223.2509 H   0  0  0  0  0  0  0  0  0  0  0  0
  138.6761   75.2298  222.7776 H   0  0  0  0  0  0  0  0  0  0  0  0
  141.0508   79.3416  220.4727 H   0  0  0  0  0  0  0  0  0  0  0  0
  142.2247   81.4195  221.0935 H   0  0  0  0  0  0  0  0  0  0  0  0
  143.0032   81.7665  223.4424 H   0  0  0  0  0  0  0  0  0  0  0  0
  142.5720   79.9669  225.1374 H   0  0  0  0  0  0  0  0  0  0  0  0
  141.4056   77.9266  224.4814 H   0  0  0  0  0  0  0  0  0  0  0  0
  141.0922   70.9183  221.0282 H   0  0  0  0  0  0  0  0  0  0  0  0
  142.3492   71.9887  221.5877 H   0  0  0  0  0  0  0  0  0  0  0  0
  141.4242   70.7224  223.6128 H   0  0  0  0  0  0  0  0  0  0  0  0
  140.8902   72.3860  223.7982 H   0  0  0  0  0  0  0  0  0  0  0  0
  1  2  1  0
  2  3  1  0
  3  4  2  0
  3  5  1  0
  5  6  1  0
  6  7  2  0
  7  8  1  0
  8  9  2  0
  9 10  1  0
 10 11  2  0
  5 12  1  0
 12 13  1  0
 13 14  1  0
 14 15  1  0
 15 16  1  0
 16 17  2  0
 16 18  1  0
 18 19  1  0
 19 20  1  0
 19 21  1  0
 21 22  1  0
 22 23  2  0
 23 24  1  0
 24 25  2  0
 25 26  1  0
 26 27  2  0
 21 28  1  0
 28 29  2  0
 29 30  1  0
 30 31  2  0
 31 32  1  0
 32 33  2  0
 15 34  1  0
 34 35  1  0
 11  6  1  0
 35 12  1  0
 27 22  1  0
 33 28  1  0
  1 36  1  0
  1 37  1  0
  1 38  1  0
  2 39  1  0
  2 40  1  0
  7 41  1  0
  8 42  1  0
  9 43  1  0
 10 44  1  0
 11 45  1  0
 12 46  1  0
 13 47  1  0
 13 48  1  0
 14 49  1  0
 14 50  1  0
 18 51  1  0
 18 52  1  0
 19 53  1  6
 20 54  1  0
 20 55  1  0
 21 56  1  0
 23 57  1  0
 24 58  1  0
 25 59  1  0
 26 60  1  0
 27 61  1  0
 29 62  1  0
 30 63  1  0
 31 64  1  0
 32 65  1  0
 33 66  1  0
 34 67  1  0
 34 68  1  0
 35 69  1  0
 35 70  1  0
M  END
>  <smiles>  (1) 
CCC(=O)N(c1ccccc1)C1CCN(C(=O)CC(N)C(c2ccccc2)c2ccccc2)CC1

>  <score_type>  (1) 
oracle

>  <origin>  (1) 
autodockgpu

>  <m_score__min__energy>  (1) 
-8.6799999999999997

>  <m_primary>  (1) 
energy

>  <rmsd>  (1) 
7.4692029109389395

>  <m_score__min__rmsd>  (1) 
7.4692029109389395

>  <meeko>  (1) 
{"free_energy": -8.32, "intermolecular_energy": -11.3, "internal_energy": -3.25, "cluster_size": 36, "cluster_id": 1, "rank_in_cluster": 26}

>  <energy>  (1) 
-8.68

>  <cluster_rmsd>  (1) 
0.0

>  <cluster>  (1) 
1

$$$$

     RDKit          3D

 70 73  0  0  0  0  0  0  0  0999 V2000
  138.5490   67.4380  222.2990 C   0  0  0  0  0  0  0  0  0  0  0  0
  137.3720   68.2930  222.5970 C   0  0  0  0  0  0  0  0  0  0  0  0
  137.5090   69.1700  223.7820 C   0  0  0  0  0  0  0  0  0  0  0  0
  136.4480   69.3850  224.4240 O   0  0  0  0  0  0  0  0  0  0  0  0
  138.7860   69.7490  224.1780 N   0  0  0  0  0  0  0  0  0  0  0  0
  139.4320   69.3170  225.3740 C   0  0  0  0  0  0  0  0  0  0  0  0
  139.8250   70.1740  226.3800 C   0  0  0  0  0  0  0  0  0  0  0  0
  140.4150   69.7620  227.5610 C   0  0  0  0  0  0  0  0  0  0  0  0
  140.6470   68.4360  227.8010 C   0  0  0  0  0  0  0  0  0  0  0  0
  140.2710   67.5450  226.8250 C   0  0  0  0  0  0  0  0  0  0  0  0
  139.6760   67.9660  225.6330 C   0  0  0  0  0  0  0  0  0  0  0  0
  139.2830   70.7500  223.2820 C   0  0  0  0  0  0  0  0  0  0  0  0
  138.2810   71.8620  223.1220 C   0  0  0  0  0  0  0  0  0  0  0  0
  138.6850   72.5600  221.8070 C   0  0  0  0  0  0  0  0  0  0  0  0
  140.0990   72.8810  221.7920 N   0  0  0  0  0  0  0  0  0  0  0  0
  140.5800   74.2140  221.5280 C   0  0  0  0  0  0  0  0  0  0  0  0
  141.8170   74.3880  221.5330 O   0  0  0  0  0  0  0  0  0  0  0  0
  139.5580   75.2430  221.2790 C   0  0  0  0  0  0  0  0  0  0  0  0
  140.0460   76.6510  221.2210 C   0  0  2  0  0  0  0  0  0  0  0  0
  141.4260   76.6990  220.7120 N   0  0  0  0  0  0  0  0  0  0  0  0
  139.9570   77.4050  222.4950 C   0  0  0  0  0  0  0  0  0  0  0  0
  138.5400   77.8240  222.7310 C   0  0  0  0  0  0  0  0  0  0  0  0
  138.2000   79.1510  222.9820 C   0  0  0  0  0  0  0  0  0  0  0  0
  136.9330   79.5900  223.1930 C   0  0  0  0  0  0  0  0  0  0  0  0
  135.9000   78.6640  223.1580 C   0  0  0  0  0  0  0  0  0  0  0  0
  136.1670   77.3400  222.9150 C   0  0  0  0  0  0  0  0  0  0  0  0
  137.4870   76.9340  222.7040 C   0  0  0  0  0  0  0  0  0  0  0  0
  140.8790   78.5320  222.6610 C   0  0  0  0  0  0  0  0  0  0  0  0
  141.6420   78.7740  223.7810 C   0  0  0  0  0  0  0  0  0  0  0  0
  142.5030   79.8590  223.8810 C   0  0  0  0  0  0  0  0  0  0  0  0
  142.6200   80.7500  222.8250 C   0  0  0  0  0  0  0  0  0  0  0  0
  141.8580   80.5260  221.6790 C   0  0  0  0  0  0  0  0  0  0  0  0
  141.0230   79.4480  221.6190 C   0  0  0  0  0  0  0  0  0  0  0  0
  141.0650   71.7980  222.0680 C   0  0  0  0  0  0  0  0  0  0  0  0
  140.6260   71.3300  223.4960 C   0  0  0  0  0  0  0  0  0  0  0  0
  139.0080   67.1046  223.2414 H   0  0  0  0  0  0  0  0  0  0  0  0
  138.2276   66.5614  221.7174 H   0  0  0  0  0  0  0  0  0  0  0  0
  139.2833   68.0147  221.7174 H   0  0  0  0  0  0  0  0  0  0  0  0
  137.1861   68.9321  221.7212 H   0  0  0  0  0  0  0  0  0  0  0  0
  136.5455   67.6034  222.8237 H   0  0  0  0  0  0  0  0  0  0  0  0
  139.6591   71.2516  226.2343 H   0  0  0  0  0  0  0  0  0  0  0  0
  140.7008   70.5094  228.3158 H   0  0  0  0  0  0  0  0  0  0  0  0
  141.1153   68.0966  228.7367 H   0  0  0  0  0  0  0  0  0  0  0  0
  140.4432   66.4706  226.9865 H   0  0  0  0  0  0  0  0  0  0  0  0
  139.3928   67.2156  224.8802 H   0  0  0  0  0  0  0  0  0  0  0  0
  139.4265   70.1551  222.3680 H   0  0  0  0  0  0  0  0  0  0  0  0
  137.2603   71.4582  223.0502 H   0  0  0  0  0  0  0  0  0  0  0  0
  138.2814   72.5518  223.9788 H   0  0  0  0  0  0  0  0  0  0  0  0
  138.4607   71.8911  220.9630 H   0  0  0  0  0  0  0  0  0  0  0  0
  138.1159   73.4976  221.7234 H   0  0  0  0  0  0  0  0  0  0  0  0
  139.0776   75.0137  220.3164 H   0  0  0  0  0  0  0  0  0  0  0  0
  138.8790   75.2007  222.1434 H   0  0  0  0  0  0  0  0  0  0  0  0
  139.3561   77.1562  220.5291 H   0  0  0  0  0  0  0  0  0  0  0  0
  141.6040   75.9360  220.0190 H   0  0  0  0  0  0  0  0  0  0  0  0
  142.1000   76.5510  221.5020 H   0  0  0  0  0  0  0  0  0  0  0  0
  140.2949   76.6965  223.2656 H   0  0  0  0  0  0  0  0  0  0  0  0
  139.0120   79.8925  223.0112 H   0  0  0  0  0  0  0  0  0  0  0  0
  136.7301   80.6536  223.3869 H   0  0  0  0  0  0  0  0  0  0  0  0
  134.8636   78.9924  223.3256 H   0  0  0  0  0  0  0  0  0  0  0  0
  135.3491   76.6050  222.8866 H   0  0  0  0  0  0  0  0  0  0  0  0
  137.6929   75.8709  222.5102 H   0  0  0  0  0  0  0  0  0  0  0  0
  141.5666   78.0799  224.6311 H   0  0  0  0  0  0  0  0  0  0  0  0
  143.0919   80.0115  224.7975 H   0  0  0  0  0  0  0  0  0  0  0  0
  143.2983   81.6136  222.8899 H   0  0  0  0  0  0  0  0  0  0  0  0
  141.9296   81.2162  220.8255 H   0  0  0  0  0  0  0  0  0  0  0  0
  140.4340   79.2938  220.7029 H   0  0  0  0  0  0  0  0  0  0  0  0
  140.9734   70.9836  221.3343 H   0  0  0  0  0  0  0  0  0  0  0  0
  142.1168   72.1145  222.0077 H   0  0  0  0  0  0  0  0  0  0  0  0
  141.3206   70.5740  223.8910 H   0  0  0  0  0  0  0  0  0  0  0  0
  140.6224   72.1501  224.2291 H   0  0  0  0  0  0  0  0  0  0  0  0
  1  2  1  0
  2  3  1  0
  3  4  2  0
  3  5  1  0
  5  6  1  0
  6  7  2  0
  7  8  1  0
  8  9  2  0
  9 10  1  0
 10 11  2  0
  5 12  1  0
 12 13  1  0
 13 14  1  0
 14 15  1  0
 15 16  1  0
 16 17  2  0
 16 18  1  0
 18 19  1  0
 19 20  1  0
 19 21  1  0
 21 22  1  0
 22 23  2  0
 23 24  1  0
 24 25  2  0
 25 26  1  0
 26 27  2  0
 21 28  1  0
 28 29  2  0
 29 30  1  0
 30 31  2  0
 31 32  1  0
 32 33  2  0
 15 34  1  0
 34 35  1  0
 11  6  1  0
 35 12  1  0
 27 22  1  0
 33 28  1  0
  1 36  1  0
  1 37  1  0
  1 38  1  0
  2 39  1  0
  2 40  1  0
  7 41  1  0
  8 42  1  0
  9 43  1  0
 10 44  1  0
 11 45  1  0
 12 46  1  0
 13 47  1  0
 13 48  1  0
 14 49  1  0
 14 50  1  0
 18 51  1  0
 18 52  1  0
 19 53  1  6
 20 54  1  0
 20 55  1  0
 21 56  1  0
 23 57  1  0
 24 58  1  0
 25 59  1  0
 26 60  1  0
 27 61  1  0
 29 62  1  0
 30 63  1  0
 31 64  1  0
 32 65  1  0
 33 66  1  0
 34 67  1  0
 34 68  1  0
 35 69  1  0
 35 70  1  0
M  END
>  <smiles>  (2) 
CCC(=O)N(c1ccccc1)C1CCN(C(=O)CC(N)C(c2ccccc2)c2ccccc2)CC1

>  <score_type>  (2) 
oracle

>  <origin>  (2) 
autodockgpu

>  <m_score__min__energy>  (2) 
-8.6799999999999997

>  <m_primary>  (2) 
energy

>  <rmsd>  (2) 
7.82207016669485

>  <m_score__min__rmsd>  (2) 
7.82207016669485

>  <meeko>  (2) 
{"free_energy": -8.59, "intermolecular_energy": -11.57, "internal_energy": -3.01, "cluster_size": 36, "cluster_id": 1, "rank_in_cluster": 4}

>  <energy>  (2) 
-8.64

>  <cluster_rmsd>  (2) 
0.29

>  <cluster>  (2) 
1

$$$$

     RDKit          3D

 70 73  0  0  0  0  0  0  0  0999 V2000
  138.2150   67.6670  222.3890 C   0  0  0  0  0  0  0  0  0  0  0  0
  137.1110   68.5380  222.8670 C   0  0  0  0  0  0  0  0  0  0  0  0
  137.4320   69.3810  224.0410 C   0  0  0  0  0  0  0  0  0  0  0  0
  136.4570   69.6780  224.7780 O   0  0  0  0  0  0  0  0  0  0  0  0
  138.7850   69.8400  224.3240 N   0  0  0  0  0  0  0  0  0  0  0  0
  139.4600   69.4080  225.5040 C   0  0  0  0  0  0  0  0  0  0  0  0
  139.7370   68.0870  225.7840 C   0  0  0  0  0  0  0  0  0  0  0  0
  140.4270   67.6610  226.9030 C   0  0  0  0  0  0  0  0  0  0  0  0
  140.8880   68.5610  227.8240 C   0  0  0  0  0  0  0  0  0  0  0  0
  140.6360   69.8910  227.5870 C   0  0  0  0  0  0  0  0  0  0  0  0
  139.9380   70.3160  226.4530 C   0  0  0  0  0  0  0  0  0  0  0  0
  139.3250   70.7280  223.3380 C   0  0  0  0  0  0  0  0  0  0  0  0
  138.3890   71.8820  223.0970 C   0  0  0  0  0  0  0  0  0  0  0  0
  138.8090   72.4400  221.7220 C   0  0  0  0  0  0  0  0  0  0  0  0
  140.2400   72.6700  221.6590 N   0  0  0  0  0  0  0  0  0  0  0  0
  140.7940   73.9440  221.2750 C   0  0  0  0  0  0  0  0  0  0  0  0
  142.0400   74.0420  221.2480 O   0  0  0  0  0  0  0  0  0  0  0  0
  139.8320   75.0090  220.9530 C   0  0  0  0  0  0  0  0  0  0  0  0
  140.3600   76.4030  220.9900 C   0  0  2  0  0  0  0  0  0  0  0  0
  141.7710   76.4320  220.5720 N   0  0  0  0  0  0  0  0  0  0  0  0
  140.2090   77.1040  222.2870 C   0  0  0  0  0  0  0  0  0  0  0  0
  138.7580   77.3470  222.5600 C   0  0  0  0  0  0  0  0  0  0  0  0
  137.8850   76.3050  222.8640 C   0  0  0  0  0  0  0  0  0  0  0  0
  136.5640   76.4660  223.1300 C   0  0  0  0  0  0  0  0  0  0  0  0
  136.0370   77.7490  223.1000 C   0  0  0  0  0  0  0  0  0  0  0  0
  136.8440   78.8210  222.8060 C   0  0  0  0  0  0  0  0  0  0  0  0
  138.1980   78.6060  222.5390 C   0  0  0  0  0  0  0  0  0  0  0  0
  140.9970   78.3260  222.4740 C   0  0  0  0  0  0  0  0  0  0  0  0
  141.2860   79.2420  221.4870 C   0  0  0  0  0  0  0  0  0  0  0  0
  142.0350   80.3870  221.7230 C   0  0  0  0  0  0  0  0  0  0  0  0
  142.5240   80.6440  222.9940 C   0  0  0  0  0  0  0  0  0  0  0  0
  142.2450   79.7320  224.0120 C   0  0  0  0  0  0  0  0  0  0  0  0
  141.5040   78.6170  223.7390 C   0  0  0  0  0  0  0  0  0  0  0  0
  141.1430   71.5570  222.0140 C   0  0  0  0  0  0  0  0  0  0  0  0
  140.7040   71.2400  223.4830 C   0  0  0  0  0  0  0  0  0  0  0  0
  138.7496   67.2452  223.2529 H   0  0  0  0  0  0  0  0  0  0  0  0
  137.8002   66.8502  221.7800 H   0  0  0  0  0  0  0  0  0  0  0  0
  138.9128   68.2605  221.7800 H   0  0  0  0  0  0  0  0  0  0  0  0
  136.8209   69.2032  222.0403 H   0  0  0  0  0  0  0  0  0  0  0  0
  136.3075   67.8600  223.1905 H   0  0  0  0  0  0  0  0  0  0  0  0
  139.3871   67.3246  225.0725 H   0  0  0  0  0  0  0  0  0  0  0  0
  140.6074   66.5865  227.0546 H   0  0  0  0  0  0  0  0  0  0  0  0
  141.4383   68.2334  228.7184 H   0  0  0  0  0  0  0  0  0  0  0  0
  140.9929   70.6407  228.3085 H   0  0  0  0  0  0  0  0  0  0  0  0
  139.7606   71.3913  226.3038 H   0  0  0  0  0  0  0  0  0  0  0  0
  139.4155   70.0498  222.4767 H   0  0  0  0  0  0  0  0  0  0  0  0
  137.3447   71.5372  223.0741 H   0  0  0  0  0  0  0  0  0  0  0  0
  138.4473   72.6405  223.8915 H   0  0  0  0  0  0  0  0  0  0  0  0
  138.5279   71.7176  220.9415 H   0  0  0  0  0  0  0  0  0  0  0  0
  138.2967   73.4010  221.5671 H   0  0  0  0  0  0  0  0  0  0  0  0
  139.4497   74.8212  219.9388 H   0  0  0  0  0  0  0  0  0  0  0  0
  139.0652   74.9625  221.7403 H   0  0  0  0  0  0  0  0  0  0  0  0
  139.7295   76.9577  220.2795 H   0  0  0  0  0  0  0  0  0  0  0  0
  141.9680   75.7110  219.8400 H   0  0  0  0  0  0  0  0  0  0  0  0
  142.3870   76.2040  221.3900 H   0  0  0  0  0  0  0  0  0  0  0  0
  140.6427   76.4174  223.0290 H   0  0  0  0  0  0  0  0  0  0  0  0
  138.2934   75.2840  222.8902 H   0  0  0  0  0  0  0  0  0  0  0  0
  135.9267   75.6004  223.3637 H   0  0  0  0  0  0  0  0  0  0  0  0
  134.9695   77.9083  223.3123 H   0  0  0  0  0  0  0  0  0  0  0  0
  136.4279   79.8390  222.7811 H   0  0  0  0  0  0  0  0  0  0  0  0
  138.8379   79.4694  222.3044 H   0  0  0  0  0  0  0  0  0  0  0  0
  140.9080   79.0590  220.4703 H   0  0  0  0  0  0  0  0  0  0  0  0
  142.2401   81.0896  220.9018 H   0  0  0  0  0  0  0  0  0  0  0  0
  143.1189   81.5470  223.1956 H   0  0  0  0  0  0  0  0  0  0  0  0
  142.6201   79.9098  225.0306 H   0  0  0  0  0  0  0  0  0  0  0  0
  141.2972   77.9136  224.5591 H   0  0  0  0  0  0  0  0  0  0  0  0
  140.9882   70.6904  221.3544 H   0  0  0  0  0  0  0  0  0  0  0  0
  142.2107   71.8015  221.9124 H   0  0  0  0  0  0  0  0  0  0  0  0
  141.3591   70.4789  223.9319 H   0  0  0  0  0  0  0  0  0  0  0  0
  140.7638   72.1180  224.1430 H   0  0  0  0  0  0  0  0  0  0  0  0
  1  2  1  0
  2  3  1  0
  3  4  2  0
  3  5  1  0
  5  6  1  0
  6  7  2  0
  7  8  1  0
  8  9  2  0
  9 10  1  0
 10 11  2  0
  5 12  1  0
 12 13  1  0
 13 14  1  0
 14 15  1  0
 15 16  1  0
 16 17  2  0
 16 18  1  0
 18 19  1  0
 19 20  1  0
 19 21  1  0
 21 22  1  0
 22 23  2  0
 23 24  1  0
 24 25  2  0
 25 26  1  0
 26 27  2  0
 21 28  1  0
 28 29  2  0
 29 30  1  0
 30 31  2  0
 31 32  1  0
 32 33  2  0
 15 34  1  0
 34 35  1  0
 11  6  1  0
 35 12  1  0
 27 22  1  0
 33 28  1  0
  1 36  1  0
  1 37  1  0
  1 38  1  0
  2 39  1  0
  2 40  1  0
  7 41  1  0
  8 42  1  0
  9 43  1  0
 10 44  1  0
 11 45  1  0
 12 46  1  0
 13 47  1  0
 13 48  1  0
 14 49  1  0
 14 50  1  0
 18 51  1  0
 18 52  1  0
 19 53  1  6
 20 54  1  0
 20 55  1  0
 21 56  1  0
 23 57  1  0
 24 58  1  0
 25 59  1  0
 26 60  1  0
 27 61  1  0
 29 62  1  0
 30 63  1  0
 31 64  1  0
 32 65  1  0
 33 66  1  0
 34 67  1  0
 34 68  1  0
 35 69  1  0
 35 70  1  0
M  END
>  <smiles>  (3) 
CCC(=O)N(c1ccccc1)C1CCN(C(=O)CC(N)C(c2ccccc2)c2ccccc2)CC1

>  <score_type>  (3) 
oracle

>  <origin>  (3) 
autodockgpu

>  <m_score__min__energy>  (3) 
-8.6799999999999997

>  <m_primary>  (3) 
energy

>  <rmsd>  (3) 
7.642779257103591

>  <m_score__min__rmsd>  (3) 
7.642779257103591

>  <meeko>  (3) 
{"free_energy": -8.48, "intermolecular_energy": -11.46, "internal_energy": -3.18, "cluster_size": 36, "cluster_id": 1, "rank_in_cluster": 10}

>  <energy>  (3) 
-8.6

>  <cluster_rmsd>  (3) 
0.45

>  <cluster>  (3) 
1

$$$$

     RDKit          3D

 70 73  0  0  0  0  0  0  0  0999 V2000
  135.7970   69.2790  224.9670 C   0  0  0  0  0  0  0  0  0  0  0  0
  136.5520   70.0720  223.9630 C   0  0  0  0  0  0  0  0  0  0  0  0
  137.8890   69.5410  223.6120 C   0  0  0  0  0  0  0  0  0  0  0  0
  137.8920   68.4530  222.9810 O   0  0  0  0  0  0  0  0  0  0  0  0
  139.1200   70.2300  223.9740 N   0  0  0  0  0  0  0  0  0  0  0  0
  139.6900   70.0530  225.2700 C   0  0  0  0  0  0  0  0  0  0  0  0
  140.1790   71.0900  226.0360 C   0  0  0  0  0  0  0  0  0  0  0  0
  140.6940   70.9360  227.3090 C   0  0  0  0  0  0  0  0  0  0  0  0
  140.7470   69.7020  227.8970 C   0  0  0  0  0  0  0  0  0  0  0  0
  140.2700   68.6380  227.1710 C   0  0  0  0  0  0  0  0  0  0  0  0
  139.7500   68.7990  225.8840 C   0  0  0  0  0  0  0  0  0  0  0  0
  139.6570   71.0630  222.9400 C   0  0  0  0  0  0  0  0  0  0  0  0
  138.7710   72.2570  222.7080 C   0  0  0  0  0  0  0  0  0  0  0  0
  139.1540   72.7550  221.2990 C   0  0  0  0  0  0  0  0  0  0  0  0
  140.5900   72.9090  221.1650 N   0  0  0  0  0  0  0  0  0  0  0  0
  141.1890   74.1420  220.7190 C   0  0  0  0  0  0  0  0  0  0  0  0
  142.4350   74.1740  220.6330 O   0  0  0  0  0  0  0  0  0  0  0  0
  140.2680   75.2470  220.4110 C   0  0  0  0  0  0  0  0  0  0  0  0
  140.7880   76.6220  220.6570 C   0  0  2  0  0  0  0  0  0  0  0  0
  142.2090   76.7110  220.2870 N   0  0  0  0  0  0  0  0  0  0  0  0
  140.5990   77.1330  222.0360 C   0  0  0  0  0  0  0  0  0  0  0  0
  139.1400   77.1520  222.3670 C   0  0  0  0  0  0  0  0  0  0  0  0
  138.3940   78.3280  222.3270 C   0  0  0  0  0  0  0  0  0  0  0  0
  137.0680   78.4040  222.6060 C   0  0  0  0  0  0  0  0  0  0  0  0
  136.4000   77.2380  222.9560 C   0  0  0  0  0  0  0  0  0  0  0  0
  137.0770   76.0450  223.0160 C   0  0  0  0  0  0  0  0  0  0  0  0
  138.4420   76.0160  222.7200 C   0  0  0  0  0  0  0  0  0  0  0  0
  141.2330   78.4140  222.3590 C   0  0  0  0  0  0  0  0  0  0  0  0
  141.4510   79.4390  221.4660 C   0  0  0  0  0  0  0  0  0  0  0  0
  142.0550   80.6350  221.8310 C   0  0  0  0  0  0  0  0  0  0  0  0
  142.4650   80.8320  223.1400 C   0  0  0  0  0  0  0  0  0  0  0  0
  142.2560   79.8090  224.0650 C   0  0  0  0  0  0  0  0  0  0  0  0
  141.6580   78.6480  223.6670 C   0  0  0  0  0  0  0  0  0  0  0  0
  141.4520   71.7600  221.5110 C   0  0  0  0  0  0  0  0  0  0  0  0
  141.0660   71.5060  223.0070 C   0  0  0  0  0  0  0  0  0  0  0  0
  136.0940   69.5909  225.9792 H   0  0  0  0  0  0  0  0  0  0  0  0
  134.7185   69.4488  224.8326 H   0  0  0  0  0  0  0  0  0  0  0  0
  136.0195   68.2101  224.8326 H   0  0  0  0  0  0  0  0  0  0  0  0
  135.9512   70.1151  223.0426 H   0  0  0  0  0  0  0  0  0  0  0  0
  136.7268   71.0562  224.4221 H   0  0  0  0  0  0  0  0  0  0  0  0
  140.1578   72.1027  225.6071 H   0  0  0  0  0  0  0  0  0  0  0  0
  141.0654   71.8154  227.8556 H   0  0  0  0  0  0  0  0  0  0  0  0
  141.1549   69.5673  228.9097 H   0  0  0  0  0  0  0  0  0  0  0  0
  140.2981   67.6319  227.6147 H   0  0  0  0  0  0  0  0  0  0  0  0
  139.3789   67.9173  225.3410 H   0  0  0  0  0  0  0  0  0  0  0  0
  139.6718   70.3584  222.0954 H   0  0  0  0  0  0  0  0  0  0  0  0
  137.7105   71.9668  222.7427 H   0  0  0  0  0  0  0  0  0  0  0  0
  138.9051   73.0327  223.4763 H   0  0  0  0  0  0  0  0  0  0  0  0
  138.8009   72.0270  220.5537 H   0  0  0  0  0  0  0  0  0  0  0  0
  138.6839   73.7365  221.1387 H   0  0  0  0  0  0  0  0  0  0  0  0
  140.0001   75.1745  219.3466 H   0  0  0  0  0  0  0  0  0  0  0  0
  139.4190   75.1246  221.0996 H   0  0  0  0  0  0  0  0  0  0  0  0
  140.1747   77.2701  220.0138 H   0  0  0  0  0  0  0  0  0  0  0  0
  142.4280   76.1070  219.4620 H   0  0  0  0  0  0  0  0  0  0  0  0
  142.8040   76.3650  221.0790 H   0  0  0  0  0  0  0  0  0  0  0  0
  141.1428   76.4225  222.6759 H   0  0  0  0  0  0  0  0  0  0  0  0
  138.9145   79.2569  222.0508 H   0  0  0  0  0  0  0  0  0  0  0  0
  136.5357   79.3653  222.5561 H   0  0  0  0  0  0  0  0  0  0  0  0
  135.3248   77.2702  223.1859 H   0  0  0  0  0  0  0  0  0  0  0  0
  136.5496   75.1208  223.2945 H   0  0  0  0  0  0  0  0  0  0  0  0
  138.9773   75.0563  222.7701 H   0  0  0  0  0  0  0  0  0  0  0  0
  141.1339   79.3052  220.4212 H   0  0  0  0  0  0  0  0  0  0  0  0
  142.2079   81.4255  221.0815 H   0  0  0  0  0  0  0  0  0  0  0  0
  142.9447   81.7744  223.4430 H   0  0  0  0  0  0  0  0  0  0  0  0
  142.5717   79.9372  225.1109 H   0  0  0  0  0  0  0  0  0  0  0  0
  141.5035   77.8570  224.4156 H   0  0  0  0  0  0  0  0  0  0  0  0
  141.2232   70.8852  220.8846 H   0  0  0  0  0  0  0  0  0  0  0  0
  142.5248   71.9459  221.3541 H   0  0  0  0  0  0  0  0  0  0  0  0
  141.7016   70.7240  223.4479 H   0  0  0  0  0  0  0  0  0  0  0  0
  141.2011   72.3973  223.6373 H   0  0  0  0  0  0  0  0  0  0  0  0
  1  2  1  0
  2  3  1  0
  3  4  2  0
  3  5  1  0
  5  6  1  0
  6  7  2  0
  7  8  1  0
  8  9  2  0
  9 10  1  0
 10 11  2  0
  5 12  1  0
 12 13  1  0
 13 14  1  0
 14 15  1  0
 15 16  1  0
 16 17  2  0
 16 18  1  0
 18 19  1  0
 19 20  1  0
 19 21  1  0
 21 22  1  0
 22 23  2  0
 23 24  1  0
 24 25  2  0
 25 26  1  0
 26 27  2  0
 21 28  1  0
 28 29  2  0
 29 30  1  0
 30 31  2  0
 31 32  1  0
 32 33  2  0
 15 34  1  0
 34 35  1  0
 11  6  1  0
 35 12  1  0
 27 22  1  0
 33 28  1  0
  1 36  1  0
  1 37  1  0
  1 38  1  0
  2 39  1  0
  2 40  1  0
  7 41  1  0
  8 42  1  0
  9 43  1  0
 10 44  1  0
 11 45  1  0
 12 46  1  0
 13 47  1  0
 13 48  1  0
 14 49  1  0
 14 50  1  0
 18 51  1  0
 18 52  1  0
 19 53  1  6
 20 54  1  0
 20 55  1  0
 21 56  1  0
 23 57  1  0
 24 58  1  0
 25 59  1  0
 26 60  1  0
 27 61  1  0
 29 62  1  0
 30 63  1  0
 31 64  1  0
 32 65  1  0
 33 66  1  0
 34 67  1  0
 34 68  1  0
 35 69  1  0
 35 70  1  0
M  END
>  <smiles>  (4) 
CCC(=O)N(c1ccccc1)C1CCN(C(=O)CC(N)C(c2ccccc2)c2ccccc2)CC1

>  <score_type>  (4) 
oracle

>  <origin>  (4) 
autodockgpu

>  <m_score__min__energy>  (4) 
-8.6799999999999997

>  <m_primary>  (4) 
energy

>  <rmsd>  (4) 
7.350657150671963

>  <m_score__min__rmsd>  (4) 
7.350657150671963

>  <meeko>  (4) 
{"free_energy": -8.27, "intermolecular_energy": -11.26, "internal_energy": -3.25, "cluster_size": 36, "cluster_id": 1, "rank_in_cluster": 29}

>  <energy>  (4) 
-8.59

>  <cluster_rmsd>  (4) 
0.21

>  <cluster>  (4) 
1

$$$$

     RDKit          3D

 70 73  0  0  0  0  0  0  0  0999 V2000
  135.9970   72.0190  223.8610 C   0  0  0  0  0  0  0  0  0  0  0  0
  136.4800   70.6330  224.0940 C   0  0  0  0  0  0  0  0  0  0  0  0
  137.6990   70.2530  223.3450 C   0  0  0  0  0  0  0  0  0  0  0  0
  137.5230   69.4390  222.4010 O   0  0  0  0  0  0  0  0  0  0  0  0
  139.0150   70.7800  223.6790 N   0  0  0  0  0  0  0  0  0  0  0  0
  139.5800   70.5450  224.9670 C   0  0  0  0  0  0  0  0  0  0  0  0
  140.2700   71.4990  225.6830 C   0  0  0  0  0  0  0  0  0  0  0  0
  140.7850   71.2950  226.9490 C   0  0  0  0  0  0  0  0  0  0  0  0
  140.6310   70.0910  227.5800 C   0  0  0  0  0  0  0  0  0  0  0  0
  139.9500   69.1090  226.9050 C   0  0  0  0  0  0  0  0  0  0  0  0
  139.4300   69.3200  225.6250 C   0  0  0  0  0  0  0  0  0  0  0  0
  139.6360   71.5260  222.6260 C   0  0  0  0  0  0  0  0  0  0  0  0
  138.8610   72.7850  222.3400 C   0  0  0  0  0  0  0  0  0  0  0  0
  139.3040   73.1980  220.9220 C   0  0  0  0  0  0  0  0  0  0  0  0
  140.7490   73.2210  220.8050 N   0  0  0  0  0  0  0  0  0  0  0  0
  141.4610   74.3800  220.3270 C   0  0  0  0  0  0  0  0  0  0  0  0
  142.7060   74.2990  220.2580 O   0  0  0  0  0  0  0  0  0  0  0  0
  140.6450   75.5500  219.9680 C   0  0  0  0  0  0  0  0  0  0  0  0
  141.1840   76.8770  220.3820 C   0  0  2  0  0  0  0  0  0  0  0  0
  142.6260   76.9590  220.1060 N   0  0  0  0  0  0  0  0  0  0  0  0
  140.9240   77.2530  221.7930 C   0  0  0  0  0  0  0  0  0  0  0  0
  139.4560   77.1680  222.0720 C   0  0  0  0  0  0  0  0  0  0  0  0
  138.5800   78.1870  221.7050 C   0  0  0  0  0  0  0  0  0  0  0  0
  137.2400   78.1600  221.9220 C   0  0  0  0  0  0  0  0  0  0  0  0
  136.6970   77.0480  222.5500 C   0  0  0  0  0  0  0  0  0  0  0  0
  137.5050   76.0090  222.9370 C   0  0  0  0  0  0  0  0  0  0  0  0
  138.8790   76.0810  222.6930 C   0  0  0  0  0  0  0  0  0  0  0  0
  141.4780   78.5310  222.2490 C   0  0  0  0  0  0  0  0  0  0  0  0
  141.6930   79.6330  221.4500 C   0  0  0  0  0  0  0  0  0  0  0  0
  142.2180   80.8220  221.9390 C   0  0  0  0  0  0  0  0  0  0  0  0
  142.5480   80.9330  223.2810 C   0  0  0  0  0  0  0  0  0  0  0  0
  142.3390   79.8320  224.1110 C   0  0  0  0  0  0  0  0  0  0  0  0
  141.8200   78.6800  223.5920 C   0  0  0  0  0  0  0  0  0  0  0  0
  141.5020   72.0140  221.2010 C   0  0  0  0  0  0  0  0  0  0  0  0
  141.0780   71.8460  222.6990 C   0  0  0  0  0  0  0  0  0  0  0  0
  135.8243   72.5145  224.8278 H   0  0  0  0  0  0  0  0  0  0  0  0
  136.7527   72.5797  223.2914 H   0  0  0  0  0  0  0  0  0  0  0  0
  135.0565   71.9886  223.2914 H   0  0  0  0  0  0  0  0  0  0  0  0
  136.6929   70.5234  225.1676 H   0  0  0  0  0  0  0  0  0  0  0  0
  135.6816   69.9682  223.7326 H   0  0  0  0  0  0  0  0  0  0  0  0
  140.4202   72.4844  225.2178 H   0  0  0  0  0  0  0  0  0  0  0  0
  141.3245   72.1093  227.4547 H   0  0  0  0  0  0  0  0  0  0  0  0
  141.0365   69.9170  228.5876 H   0  0  0  0  0  0  0  0  0  0  0  0
  139.8096   68.1291  227.3846 H   0  0  0  0  0  0  0  0  0  0  0  0
  138.8901   68.5034  225.1233 H   0  0  0  0  0  0  0  0  0  0  0  0
  139.5991   70.7934  221.8063 H   0  0  0  0  0  0  0  0  0  0  0  0
  137.7788   72.5901  222.3678 H   0  0  0  0  0  0  0  0  0  0  0  0
  139.0530   73.5722  223.0839 H   0  0  0  0  0  0  0  0  0  0  0  0
  138.8976   72.4783  220.1962 H   0  0  0  0  0  0  0  0  0  0  0  0
  138.9243   74.2108  220.7218 H   0  0  0  0  0  0  0  0  0  0  0  0
  140.5334   75.5590  218.8737 H   0  0  0  0  0  0  0  0  0  0  0  0
  139.6993   75.4306  220.5170 H   0  0  0  0  0  0  0  0  0  0  0  0
  140.6278   77.6049  219.7730 H   0  0  0  0  0  0  0  0  0  0  0  0
  143.1740   76.3420  220.7490 H   0  0  0  0  0  0  0  0  0  0  0  0
  142.9630   77.9380  220.2680 H   0  0  0  0  0  0  0  0  0  0  0  0
  141.4844   76.5167  222.3878 H   0  0  0  0  0  0  0  0  0  0  0  0
  139.0018   79.0721  221.2064 H   0  0  0  0  0  0  0  0  0  0  0  0
  136.6009   78.9984  221.6079 H   0  0  0  0  0  0  0  0  0  0  0  0
  135.6143   76.9994  222.7383 H   0  0  0  0  0  0  0  0  0  0  0  0
  137.0752   75.1273  223.4348 H   0  0  0  0  0  0  0  0  0  0  0  0
  139.5203   75.2440  223.0063 H   0  0  0  0  0  0  0  0  0  0  0  0
  141.4385   79.5682  220.3818 H   0  0  0  0  0  0  0  0  0  0  0  0
  142.3719   81.6752  221.2620 H   0  0  0  0  0  0  0  0  0  0  0  0
  142.9653   81.8684  223.6820 H   0  0  0  0  0  0  0  0  0  0  0  0
  142.5913   79.8911  225.1800 H   0  0  0  0  0  0  0  0  0  0  0  0
  141.6640   77.8266  224.2682 H   0  0  0  0  0  0  0  0  0  0  0  0
  141.2042   71.1417  220.6006 H   0  0  0  0  0  0  0  0  0  0  0  0
  142.5887   72.0997  221.0535 H   0  0  0  0  0  0  0  0  0  0  0  0
  141.6372   71.0268  223.1746 H   0  0  0  0  0  0  0  0  0  0  0  0
  141.2838   72.7429  223.3016 H   0  0  0  0  0  0  0  0  0  0  0  0
  1  2  1  0
  2  3  1  0
  3  4  2  0
  3  5  1  0
  5  6  1  0
  6  7  2  0
  7  8  1  0
  8  9  2  0
  9 10  1  0
 10 11  2  0
  5 12  1  0
 12 13  1  0
 13 14  1  0
 14 15  1  0
 15 16  1  0
 16 17  2  0
 16 18  1  0
 18 19  1  0
 19 20  1  0
 19 21  1  0
 21 22  1  0
 22 23  2  0
 23 24  1  0
 24 25  2  0
 25 26  1  0
 26 27  2  0
 21 28  1  0
 28 29  2  0
 29 30  1  0
 30 31  2  0
 31 32  1  0
 32 33  2  0
 15 34  1  0
 34 35  1  0
 11  6  1  0
 35 12  1  0
 27 22  1  0
 33 28  1  0
  1 36  1  0
  1 37  1  0
  1 38  1  0
  2 39  1  0
  2 40  1  0
  7 41  1  0
  8 42  1  0
  9 43  1  0
 10 44  1  0
 11 45  1  0
 12 46  1  0
 13 47  1  0
 13 48  1  0
 14 49  1  0
 14 50  1  0
 18 51  1  0
 18 52  1  0
 19 53  1  6
 20 54  1  0
 20 55  1  0
 21 56  1  0
 23 57  1  0
 24 58  1  0
 25 59  1  0
 26 60  1  0
 27 61  1  0
 29 62  1  0
 30 63  1  0
 31 64  1  0
 32 65  1  0
 33 66  1  0
 34 67  1  0
 34 68  1  0
 35 69  1  0
 35 70  1  0
M  END
>  <smiles>  (5) 
CCC(=O)N(c1ccccc1)C1CCN(C(=O)CC(N)C(c2ccccc2)c2ccccc2)CC1

>  <score_type>  (5) 
oracle

>  <origin>  (5) 
autodockgpu

>  <m_score__min__energy>  (5) 
-8.6799999999999997

>  <m_primary>  (5) 
energy

>  <rmsd>  (5) 
7.471801477075461

>  <m_score__min__rmsd>  (5) 
7.471801477075461

>  <meeko>  (5) 
{"free_energy": -8.38, "intermolecular_energy": -11.36, "internal_energy": -3.21, "cluster_size": 36, "cluster_id": 1, "rank_in_cluster": 19}

>  <energy>  (5) 
-8.58

>  <cluster_rmsd>  (5) 
0.45

>  <cluster>  (5) 
1

$$$$

     RDKit          3D

 70 73  0  0  0  0  0  0  0  0999 V2000
  138.4970   67.6000  222.3520 C   0  0  0  0  0  0  0  0  0  0  0  0
  137.2850   68.3460  222.7760 C   0  0  0  0  0  0  0  0  0  0  0  0
  137.4730   69.2600  223.9260 C   0  0  0  0  0  0  0  0  0  0  0  0
  136.4350   69.5220  224.5860 O   0  0  0  0  0  0  0  0  0  0  0  0
  138.7720   69.8220  224.2690 N   0  0  0  0  0  0  0  0  0  0  0  0
  139.4140   69.4610  225.4900 C   0  0  0  0  0  0  0  0  0  0  0  0
  139.8830   70.3780  226.4060 C   0  0  0  0  0  0  0  0  0  0  0  0
  140.4690   70.0400  227.6110 C   0  0  0  0  0  0  0  0  0  0  0  0
  140.6180   68.7290  227.9710 C   0  0  0  0  0  0  0  0  0  0  0  0
  140.1640   67.7780  227.0900 C   0  0  0  0  0  0  0  0  0  0  0  0
  139.5730   68.1250  225.8730 C   0  0  0  0  0  0  0  0  0  0  0  0
  139.2970   70.7330  223.2960 C   0  0  0  0  0  0  0  0  0  0  0  0
  138.3490   71.8830  223.0820 C   0  0  0  0  0  0  0  0  0  0  0  0
  138.7530   72.4680  221.7140 C   0  0  0  0  0  0  0  0  0  0  0  0
  140.1820   72.7130  221.6450 N   0  0  0  0  0  0  0  0  0  0  0  0
  140.7220   73.9980  221.2790 C   0  0  0  0  0  0  0  0  0  0  0  0
  141.9660   74.1070  221.2450 O   0  0  0  0  0  0  0  0  0  0  0  0
  139.7480   75.0610  220.9840 C   0  0  0  0  0  0  0  0  0  0  0  0
  140.2730   76.4560  221.0080 C   0  0  2  0  0  0  0  0  0  0  0  0
  141.6740   76.4890  220.5600 N   0  0  0  0  0  0  0  0  0  0  0  0
  140.1480   77.1570  222.3090 C   0  0  0  0  0  0  0  0  0  0  0  0
  138.7050   77.4380  222.5900 C   0  0  0  0  0  0  0  0  0  0  0  0
  138.2010   78.7370  222.6100 C   0  0  0  0  0  0  0  0  0  0  0  0
  136.9030   79.0510  222.8470 C   0  0  0  0  0  0  0  0  0  0  0  0
  136.0080   78.0180  223.0880 C   0  0  0  0  0  0  0  0  0  0  0  0
  136.4390   76.7150  223.0830 C   0  0  0  0  0  0  0  0  0  0  0  0
  137.7860   76.4400  222.8330 C   0  0  0  0  0  0  0  0  0  0  0  0
  140.9680   78.3570  222.4940 C   0  0  0  0  0  0  0  0  0  0  0  0
  141.2710   79.2710  221.5090 C   0  0  0  0  0  0  0  0  0  0  0  0
  142.0520   80.3950  221.7450 C   0  0  0  0  0  0  0  0  0  0  0  0
  142.5610   80.6310  223.0120 C   0  0  0  0  0  0  0  0  0  0  0  0
  142.2690   79.7210  224.0270 C   0  0  0  0  0  0  0  0  0  0  0  0
  141.4970   78.6270  223.7560 C   0  0  0  0  0  0  0  0  0  0  0  0
  141.0980   71.6010  221.9720 C   0  0  0  0  0  0  0  0  0  0  0  0
  140.6730   71.2540  223.4390 C   0  0  0  0  0  0  0  0  0  0  0  0
  139.0484   67.2606  223.2412 H   0  0  0  0  0  0  0  0  0  0  0  0
  138.1994   66.7285  221.7504 H   0  0  0  0  0  0  0  0  0  0  0  0
  139.1410   68.2583  221.7504 H   0  0  0  0  0  0  0  0  0  0  0  0
  136.9375   68.9437  221.9204 H   0  0  0  0  0  0  0  0  0  0  0  0
  136.5613   67.5866  223.1069 H   0  0  0  0  0  0  0  0  0  0  0  0
  139.7846   71.4462  226.1625 H   0  0  0  0  0  0  0  0  0  0  0  0
  140.8192   70.8335  228.2876 H   0  0  0  0  0  0  0  0  0  0  0  0
  141.0827   68.4475  228.9275 H   0  0  0  0  0  0  0  0  0  0  0  0
  140.2687   66.7143  227.3500 H   0  0  0  0  0  0  0  0  0  0  0  0
  139.2241   67.3284  225.1994 H   0  0  0  0  0  0  0  0  0  0  0  0
  139.3870   70.0708  222.4222 H   0  0  0  0  0  0  0  0  0  0  0  0
  137.3076   71.5295  223.0613 H   0  0  0  0  0  0  0  0  0  0  0  0
  138.4072   72.6283  223.8889 H   0  0  0  0  0  0  0  0  0  0  0  0
  138.4732   71.7562  220.9234 H   0  0  0  0  0  0  0  0  0  0  0  0
  138.2301   73.4263  221.5787 H   0  0  0  0  0  0  0  0  0  0  0  0
  139.3389   74.8730  219.9804 H   0  0  0  0  0  0  0  0  0  0  0  0
  139.0028   75.0116  221.7916 H   0  0  0  0  0  0  0  0  0  0  0  0
  139.6265   77.0084  220.3103 H   0  0  0  0  0  0  0  0  0  0  0  0
  141.8580   75.7640  219.8290 H   0  0  0  0  0  0  0  0  0  0  0  0
  142.3080   76.2710  221.3660 H   0  0  0  0  0  0  0  0  0  0  0  0
  140.5674   76.4572  223.0469 H   0  0  0  0  0  0  0  0  0  0  0  0
  138.9027   79.5628  222.4210 H   0  0  0  0  0  0  0  0  0  0  0  0
  136.5679   80.0987  222.8482 H   0  0  0  0  0  0  0  0  0  0  0  0
  134.9495   78.2444  223.2837 H   0  0  0  0  0  0  0  0  0  0  0  0
  135.7309   75.8951  223.2739 H   0  0  0  0  0  0  0  0  0  0  0  0
  138.1238   75.3932  222.8300 H   0  0  0  0  0  0  0  0  0  0  0  0
  140.8787   79.1040  220.4950 H   0  0  0  0  0  0  0  0  0  0  0  0
  142.2664   81.0977  220.9263 H   0  0  0  0  0  0  0  0  0  0  0  0
  143.1817   81.5167  223.2125 H   0  0  0  0  0  0  0  0  0  0  0  0
  142.6589   79.8833  225.0427 H   0  0  0  0  0  0  0  0  0  0  0  0
  141.2818   77.9238  224.5741 H   0  0  0  0  0  0  0  0  0  0  0  0
  140.9451   70.7452  221.2980 H   0  0  0  0  0  0  0  0  0  0  0  0
  142.1628   71.8561  221.8660 H   0  0  0  0  0  0  0  0  0  0  0  0
  141.3380   70.4905  223.8690 H   0  0  0  0  0  0  0  0  0  0  0  0
  140.7307   72.1207  224.1139 H   0  0  0  0  0  0  0  0  0  0  0  0
  1  2  1  0
  2  3  1  0
  3  4  2  0
  3  5  1  0
  5  6  1  0
  6  7  2  0
  7  8  1  0
  8  9  2  0
  9 10  1  0
 10 11  2  0
  5 12  1  0
 12 13  1  0
 13 14  1  0
 14 15  1  0
 15 16  1  0
 16 17  2  0
 16 18  1  0
 18 19  1  0
 19 20  1  0
 19 21  1  0
 21 22  1  0
 22 23  2  0
 23 24  1  0
 24 25  2  0
 25 26  1  0
 26 27  2  0
 21 28  1  0
 28 29  2  0
 29 30  1  0
 30 31  2  0
 31 32  1  0
 32 33  2  0
 15 34  1  0
 34 35  1  0
 11  6  1  0
 35 12  1  0
 27 22  1  0
 33 28  1  0
  1 36  1  0
  1 37  1  0
  1 38  1  0
  2 39  1  0
  2 40  1  0
  7 41  1  0
  8 42  1  0
  9 43  1  0
 10 44  1  0
 11 45  1  0
 12 46  1  0
 13 47  1  0
 13 48  1  0
 14 49  1  0
 14 50  1  0
 18 51  1  0
 18 52  1  0
 19 53  1  6
 20 54  1  0
 20 55  1  0
 21 56  1  0
 23 57  1  0
 24 58  1  0
 25 59  1  0
 26 60  1  0
 27 61  1  0
 29 62  1  0
 30 63  1  0
 31 64  1  0
 32 65  1  0
 33 66  1  0
 34 67  1  0
 34 68  1  0
 35 69  1  0
 35 70  1  0
M  END
>  <smiles>  (6) 
CCC(=O)N(c1ccccc1)C1CCN(C(=O)CC(N)C(c2ccccc2)c2ccccc2)CC1

>  <score_type>  (6) 
oracle

>  <origin>  (6) 
autodockgpu

>  <m_score__min__energy>  (6) 
-8.6799999999999997

>  <m_primary>  (6) 
energy

>  <rmsd>  (6) 
7.541404635425525

>  <m_score__min__rmsd>  (6) 
7.541404635425525

>  <meeko>  (6) 
{"free_energy": -8.54, "intermolecular_energy": -11.52, "internal_energy": -3.16, "cluster_size": 36, "cluster_id": 1, "rank_in_cluster": 7}

>  <energy>  (6) 
-8.54

>  <cluster_rmsd>  (6) 
0.39

>  <cluster>  (6) 
1

$$$$

     RDKit          3D

 70 73  0  0  0  0  0  0  0  0999 V2000
  146.3180   73.0410  221.6890 C   0  0  0  0  0  0  0  0  0  0  0  0
  145.9580   73.7630  220.4410 C   0  0  0  0  0  0  0  0  0  0  0  0
  145.5070   72.9070  219.3210 C   0  0  0  0  0  0  0  0  0  0  0  0
  146.1130   73.0760  218.2320 O   0  0  0  0  0  0  0  0  0  0  0  0
  144.4300   71.9370  219.4670 N   0  0  0  0  0  0  0  0  0  0  0  0
  144.7140   70.5390  219.4600 C   0  0  0  0  0  0  0  0  0  0  0  0
  145.9740   70.0180  219.2520 C   0  0  0  0  0  0  0  0  0  0  0  0
  146.2680   68.6690  219.2840 C   0  0  0  0  0  0  0  0  0  0  0  0
  145.2900   67.7460  219.5350 C   0  0  0  0  0  0  0  0  0  0  0  0
  144.0190   68.2190  219.7500 C   0  0  0  0  0  0  0  0  0  0  0  0
  143.7260   69.5850  219.7160 C   0  0  0  0  0  0  0  0  0  0  0  0
  143.1280   72.5170  219.6050 C   0  0  0  0  0  0  0  0  0  0  0  0
  143.0940   73.4740  220.7670 C   0  0  0  0  0  0  0  0  0  0  0  0
  141.5970   73.6120  221.1110 C   0  0  0  0  0  0  0  0  0  0  0  0
  140.8090   73.9110  219.9300 N   0  0  0  0  0  0  0  0  0  0  0  0
  139.9170   75.0420  219.8720 C   0  0  0  0  0  0  0  0  0  0  0  0
  139.2780   75.2130  218.8120 O   0  0  0  0  0  0  0  0  0  0  0  0
  139.8480   75.8880  221.0730 C   0  0  0  0  0  0  0  0  0  0  0  0
  139.4280   77.3020  220.8570 C   0  0  2  0  0  0  0  0  0  0  0  0
  138.4290   77.3840  219.7790 N   0  0  0  0  0  0  0  0  0  0  0  0
  140.5300   78.2570  220.5890 C   0  0  0  0  0  0  0  0  0  0  0  0
  141.5160   77.6340  219.6520 C   0  0  0  0  0  0  0  0  0  0  0  0
  141.3750   77.7310  218.2690 C   0  0  0  0  0  0  0  0  0  0  0  0
  142.2420   77.1970  217.3720 C   0  0  0  0  0  0  0  0  0  0  0  0
  143.3450   76.5060  217.8520 C   0  0  0  0  0  0  0  0  0  0  0  0
  143.5430   76.3730  219.2040 C   0  0  0  0  0  0  0  0  0  0  0  0
  142.6240   76.9400  220.0900 C   0  0  0  0  0  0  0  0  0  0  0  0
  141.2000   78.8360  221.7570 C   0  0  0  0  0  0  0  0  0  0  0  0
  141.1560   78.3210  223.0330 C   0  0  0  0  0  0  0  0  0  0  0  0
  141.8160   78.9120  224.1030 C   0  0  0  0  0  0  0  0  0  0  0  0
  142.5560   80.0670  223.9070 C   0  0  0  0  0  0  0  0  0  0  0  0
  142.6170   80.6090  222.6240 C   0  0  0  0  0  0  0  0  0  0  0  0
  141.9540   79.9980  221.5970 C   0  0  0  0  0  0  0  0  0  0  0  0
  140.9440   73.0260  218.7560 C   0  0  0  0  0  0  0  0  0  0  0  0
  142.4720   73.1430  218.4370 C   0  0  0  0  0  0  0  0  0  0  0  0
  146.0182   73.6423  222.5599 H   0  0  0  0  0  0  0  0  0  0  0  0
  145.7974   72.0724  221.7154 H   0  0  0  0  0  0  0  0  0  0  0  0
  147.4049   72.8739  221.7154 H   0  0  0  0  0  0  0  0  0  0  0  0
  145.1469   74.4672  220.6781 H   0  0  0  0  0  0  0  0  0  0  0  0
  146.8810   74.2523  220.0964 H   0  0  0  0  0  0  0  0  0  0  0  0
  146.7956   70.7204  219.0480 H   0  0  0  0  0  0  0  0  0  0  0  0
  147.3001   68.3329  219.1057 H   0  0  0  0  0  0  0  0  0  0  0  0
  145.5126   66.6691  219.5634 H   0  0  0  0  0  0  0  0  0  0  0  0
  143.2093   67.5031  219.9546 H   0  0  0  0  0  0  0  0  0  0  0  0
  142.6927   69.9170  219.8951 H   0  0  0  0  0  0  0  0  0  0  0  0
  142.5174   71.6157  219.7629 H   0  0  0  0  0  0  0  0  0  0  0  0
  143.6534   73.0670  221.6222 H   0  0  0  0  0  0  0  0  0  0  0  0
  143.5582   74.4415  220.5253 H   0  0  0  0  0  0  0  0  0  0  0  0
  141.2416   72.6676  221.5489 H   0  0  0  0  0  0  0  0  0  0  0  0
  141.4802   74.4408  221.8247 H   0  0  0  0  0  0  0  0  0  0  0  0
  139.1307   75.4269  221.7679 H   0  0  0  0  0  0  0  0  0  0  0  0
  140.8778   75.9413  221.4559 H   0  0  0  0  0  0  0  0  0  0  0  0
  138.9944   77.6133  221.8188 H   0  0  0  0  0  0  0  0  0  0  0  0
  137.8000   76.5480  219.7760 H   0  0  0  0  0  0  0  0  0  0  0  0
  138.9120   77.4000  218.8490 H   0  0  0  0  0  0  0  0  0  0  0  0
  140.0416   79.1286  220.1289 H   0  0  0  0  0  0  0  0  0  0  0  0
  140.5032   78.2765  217.8786 H   0  0  0  0  0  0  0  0  0  0  0  0
  142.0743   77.3093  216.2907 H   0  0  0  0  0  0  0  0  0  0  0  0
  144.0636   76.0630  217.1468 H   0  0  0  0  0  0  0  0  0  0  0  0
  144.4171   75.8251  219.5859 H   0  0  0  0  0  0  0  0  0  0  0  0
  142.7895   76.8293  221.1718 H   0  0  0  0  0  0  0  0  0  0  0  0
  140.5748   77.4045  223.2125 H   0  0  0  0  0  0  0  0  0  0  0  0
  141.7512   78.4634  225.1053 H   0  0  0  0  0  0  0  0  0  0  0  0
  143.0836   80.5456  224.7452 H   0  0  0  0  0  0  0  0  0  0  0  0
  143.1968   81.5253  222.4389 H   0  0  0  0  0  0  0  0  0  0  0  0
  142.0183   80.4452  220.5941 H   0  0  0  0  0  0  0  0  0  0  0  0
  140.6647   71.9907  219.0013 H   0  0  0  0  0  0  0  0  0  0  0  0
  140.2919   73.3020  217.9142 H   0  0  0  0  0  0  0  0  0  0  0  0
  142.7212   72.6025  217.5119 H   0  0  0  0  0  0  0  0  0  0  0  0
  142.7935   74.1827  218.2765 H   0  0  0  0  0  0  0  0  0  0  0  0
  1  2  1  0
  2  3  1  0
  3  4  2  0
  3  5  1  0
  5  6  1  0
  6  7  2  0
  7  8  1  0
  8  9  2  0
  9 10  1  0
 10 11  2  0
  5 12  1  0
 12 13  1  0
 13 14  1  0
 14 15  1  0
 15 16  1  0
 16 17  2  0
 16 18  1  0
 18 19  1  0
 19 20  1  0
 19 21  1  0
 21 22  1  0
 22 23  2  0
 23 24  1  0
 24 25  2  0
 25 26  1  0
 26 27  2  0
 21 28  1  0
 28 29  2  0
 29 30  1  0
 30 31  2  0
 31 32  1  0
 32 33  2  0
 15 34  1  0
 34 35  1  0
 11  6  1  0
 35 12  1  0
 27 22  1  0
 33 28  1  0
  1 36  1  0
  1 37  1  0
  1 38  1  0
  2 39  1  0
  2 40  1  0
  7 41  1  0
  8 42  1  0
  9 43  1  0
 10 44  1  0
 11 45  1  0
 12 46  1  0
 13 47  1  0
 13 48  1  0
 14 49  1  0
 14 50  1  0
 18 51  1  0
 18 52  1  0
 19 53  1  1
 20 54  1  0
 20 55  1  0
 21 56  1  0
 23 57  1  0
 24 58  1  0
 25 59  1  0
 26 60  1  0
 27 61  1  0
 29 62  1  0
 30 63  1  0
 31 64  1  0
 32 65  1  0
 33 66  1  0
 34 67  1  0
 34 68  1  0
 35 69  1  0
 35 70  1  0
M  END
>  <smiles>  (7) 
CCC(=O)N(c1ccccc1)C1CCN(C(=O)CC(N)C(c2ccccc2)c2ccccc2)CC1

>  <score_type>  (7) 
oracle

>  <origin>  (7) 
autodockgpu

>  <m_score__min__energy>  (7) 
-8.6799999999999997

>  <m_primary>  (7) 
energy

>  <rmsd>  (7) 
9.011354777364524

>  <m_score__min__rmsd>  (7) 
9.011354777364524

>  <meeko>  (7) 
{"free_energy": -7.39, "intermolecular_energy": -10.38, "internal_energy": -4.04, "cluster_size": 12, "cluster_id": 2, "rank_in_cluster": 12}

>  <energy>  (7) 
-8.54

>  <cluster_rmsd>  (7) 
0.46

>  <cluster>  (7) 
1

$$$$

     RDKit          3D

 70 73  0  0  0  0  0  0  0  0999 V2000
  138.5360   67.3740  222.4080 C   0  0  0  0  0  0  0  0  0  0  0  0
  137.5140   68.4230  222.6560 C   0  0  0  0  0  0  0  0  0  0  0  0
  137.6350   69.1340  223.9490 C   0  0  0  0  0  0  0  0  0  0  0  0
  136.6200   69.0860  224.6910 O   0  0  0  0  0  0  0  0  0  0  0  0
  138.8460   69.8440  224.3360 N   0  0  0  0  0  0  0  0  0  0  0  0
  139.4400   69.6130  225.6130 C   0  0  0  0  0  0  0  0  0  0  0  0
  139.9400   70.6170  226.4130 C   0  0  0  0  0  0  0  0  0  0  0  0
  140.4790   70.4110  227.6690 C   0  0  0  0  0  0  0  0  0  0  0  0
  140.5460   69.1530  228.2020 C   0  0  0  0  0  0  0  0  0  0  0  0
  140.0580   68.1190  227.4400 C   0  0  0  0  0  0  0  0  0  0  0  0
  139.5140   68.3340  226.1710 C   0  0  0  0  0  0  0  0  0  0  0  0
  139.3400   70.7530  223.3450 C   0  0  0  0  0  0  0  0  0  0  0  0
  138.3730   71.8890  223.1410 C   0  0  0  0  0  0  0  0  0  0  0  0
  138.7430   72.4680  221.7600 C   0  0  0  0  0  0  0  0  0  0  0  0
  140.1660   72.7300  221.6620 N   0  0  0  0  0  0  0  0  0  0  0  0
  140.6820   74.0200  221.2750 C   0  0  0  0  0  0  0  0  0  0  0  0
  141.9240   74.1450  221.2150 O   0  0  0  0  0  0  0  0  0  0  0  0
  139.6890   75.0670  220.9900 C   0  0  0  0  0  0  0  0  0  0  0  0
  140.1830   76.4720  221.0480 C   0  0  2  0  0  0  0  0  0  0  0  0
  141.5860   76.5450  220.6110 N   0  0  0  0  0  0  0  0  0  0  0  0
  140.0330   77.1430  222.3610 C   0  0  0  0  0  0  0  0  0  0  0  0
  138.5860   77.4220  222.6190 C   0  0  0  0  0  0  0  0  0  0  0  0
  138.0820   78.7210  222.6360 C   0  0  0  0  0  0  0  0  0  0  0  0
  136.7790   79.0340  222.8530 C   0  0  0  0  0  0  0  0  0  0  0  0
  135.8810   78.0000  223.0740 C   0  0  0  0  0  0  0  0  0  0  0  0
  136.3130   76.6960  223.0700 C   0  0  0  0  0  0  0  0  0  0  0  0
  137.6630   76.4230  222.8420 C   0  0  0  0  0  0  0  0  0  0  0  0
  140.8540   78.3350  222.5920 C   0  0  0  0  0  0  0  0  0  0  0  0
  141.4710   78.6560  223.7800 C   0  0  0  0  0  0  0  0  0  0  0  0
  142.2420   79.8000  223.9390 C   0  0  0  0  0  0  0  0  0  0  0  0
  142.4140   80.6720  222.8760 C   0  0  0  0  0  0  0  0  0  0  0  0
  141.8000   80.3700  221.6610 C   0  0  0  0  0  0  0  0  0  0  0  0
  141.0490   79.2350  221.5440 C   0  0  0  0  0  0  0  0  0  0  0  0
  141.1030   71.6340  221.9800 C   0  0  0  0  0  0  0  0  0  0  0  0
  140.7110   71.2940  223.4580 C   0  0  0  0  0  0  0  0  0  0  0  0
  138.9091   66.9910  223.3693 H   0  0  0  0  0  0  0  0  0  0  0  0
  138.0845   66.5503  221.8355 H   0  0  0  0  0  0  0  0  0  0  0  0
  139.3712   67.8038  221.8355 H   0  0  0  0  0  0  0  0  0  0  0  0
  137.5901   69.1682  221.8505 H   0  0  0  0  0  0  0  0  0  0  0  0
  136.5457   67.9019  222.6860 H   0  0  0  0  0  0  0  0  0  0  0  0
  139.9083   71.6470  226.0281 H   0  0  0  0  0  0  0  0  0  0  0  0
  140.8580   71.2675  228.2459 H   0  0  0  0  0  0  0  0  0  0  0  0
  140.9732   68.9763  229.2001 H   0  0  0  0  0  0  0  0  0  0  0  0
  140.0966   67.0949  227.8395 H   0  0  0  0  0  0  0  0  0  0  0  0
  139.1348   67.4755  225.5973 H   0  0  0  0  0  0  0  0  0  0  0  0
  139.4219   70.0848  222.4750 H   0  0  0  0  0  0  0  0  0  0  0  0
  137.3360   71.5221  223.1436 H   0  0  0  0  0  0  0  0  0  0  0  0
  138.4370   72.6415  223.9408 H   0  0  0  0  0  0  0  0  0  0  0  0
  138.4571   71.7462  220.9807 H   0  0  0  0  0  0  0  0  0  0  0  0
  138.2052   73.4183  221.6268 H   0  0  0  0  0  0  0  0  0  0  0  0
  139.2955   74.8906  219.9781 H   0  0  0  0  0  0  0  0  0  0  0  0
  138.9360   74.9852  221.7877 H   0  0  0  0  0  0  0  0  0  0  0  0
  139.5290   77.0248  220.3576 H   0  0  0  0  0  0  0  0  0  0  0  0
  141.7870   75.8530  219.8530 H   0  0  0  0  0  0  0  0  0  0  0  0
  142.2190   76.3040  221.4130 H   0  0  0  0  0  0  0  0  0  0  0  0
  140.4346   76.4247  223.0909 H   0  0  0  0  0  0  0  0  0  0  0  0
  138.7866   79.5476  222.4621 H   0  0  0  0  0  0  0  0  0  0  0  0
  136.4436   80.0816  222.8536 H   0  0  0  0  0  0  0  0  0  0  0  0
  134.8193   78.2251  223.2531 H   0  0  0  0  0  0  0  0  0  0  0  0
  135.6022   75.8749  223.2448 H   0  0  0  0  0  0  0  0  0  0  0  0
  138.0011   75.3763  222.8402 H   0  0  0  0  0  0  0  0  0  0  0  0
  141.3483   77.9789  224.6382 H   0  0  0  0  0  0  0  0  0  0  0  0
  142.7160   80.0138  224.9084 H   0  0  0  0  0  0  0  0  0  0  0  0
  143.0214   81.5822  222.9881 H   0  0  0  0  0  0  0  0  0  0  0  0
  141.9200   81.0435  220.7996 H   0  0  0  0  0  0  0  0  0  0  0  0
  140.5743   79.0199  220.5753 H   0  0  0  0  0  0  0  0  0  0  0  0
  140.9490   70.7705  221.3163 H   0  0  0  0  0  0  0  0  0  0  0  0
  142.1619   71.9025  221.8511 H   0  0  0  0  0  0  0  0  0  0  0  0
  141.3945   70.5435  223.8817 H   0  0  0  0  0  0  0  0  0  0  0  0
  140.7697   72.1670  224.1247 H   0  0  0  0  0  0  0  0  0  0  0  0
  1  2  1  0
  2  3  1  0
  3  4  2  0
  3  5  1  0
  5  6  1  0
  6  7  2  0
  7  8  1  0
  8  9  2  0
  9 10  1  0
 10 11  2  0
  5 12  1  0
 12 13  1  0
 13 14  1  0
 14 15  1  0
 15 16  1  0
 16 17  2  0
 16 18  1  0
 18 19  1  0
 19 20  1  0
 19 21  1  0
 21 22  1  0
 22 23  2  0
 23 24  1  0
 24 25  2  0
 25 26  1  0
 26 27  2  0
 21 28  1  0
 28 29  2  0
 29 30  1  0
 30 31  2  0
 31 32  1  0
 32 33  2  0
 15 34  1  0
 34 35  1  0
 11  6  1  0
 35 12  1  0
 27 22  1  0
 33 28  1  0
  1 36  1  0
  1 37  1  0
  1 38  1  0
  2 39  1  0
  2 40  1  0
  7 41  1  0
  8 42  1  0
  9 43  1  0
 10 44  1  0
 11 45  1  0
 12 46  1  0
 13 47  1  0
 13 48  1  0
 14 49  1  0
 14 50  1  0
 18 51  1  0
 18 52  1  0
 19 53  1  6
 20 54  1  0
 20 55  1  0
 21 56  1  0
 23 57  1  0
 24 58  1  0
 25 59  1  0
 26 60  1  0
 27 61  1  0
 29 62  1  0
 30 63  1  0
 31 64  1  0
 32 65  1  0
 33 66  1  0
 34 67  1  0
 34 68  1  0
 35 69  1  0
 35 70  1  0
M  END
>  <smiles>  (8) 
CCC(=O)N(c1ccccc1)C1CCN(C(=O)CC(N)C(c2ccccc2)c2ccccc2)CC1

>  <score_type>  (8) 
oracle

>  <origin>  (8) 
autodockgpu

>  <m_score__min__energy>  (8) 
-8.6799999999999997

>  <m_primary>  (8) 
energy

>  <rmsd>  (8) 
7.551937954664069

>  <m_score__min__rmsd>  (8) 
7.551937954664069

>  <meeko>  (8) 
{"free_energy": -8.6, "intermolecular_energy": -11.58, "internal_energy": -3.1, "cluster_size": 36, "cluster_id": 1, "rank_in_cluster": 3}

>  <energy>  (8) 
-8.52

>  <cluster_rmsd>  (8) 
0.49

>  <cluster>  (8) 
1

$$$$

     RDKit          3D

 70 73  0  0  0  0  0  0  0  0999 V2000
  138.7700   67.6570  222.5690 C   0  0  0  0  0  0  0  0  0  0  0  0
  137.6020   68.5680  222.6810 C   0  0  0  0  0  0  0  0  0  0  0  0
  137.7470   69.6660  223.6630 C   0  0  0  0  0  0  0  0  0  0  0  0
  136.6750   70.0760  224.1800 O   0  0  0  0  0  0  0  0  0  0  0  0
  139.0420   70.2370  224.0080 N   0  0  0  0  0  0  0  0  0  0  0  0
  139.6390   69.9580  225.2730 C   0  0  0  0  0  0  0  0  0  0  0  0
  140.1220   70.9330  226.1190 C   0  0  0  0  0  0  0  0  0  0  0  0
  140.6640   70.6790  227.3640 C   0  0  0  0  0  0  0  0  0  0  0  0
  140.7510   69.3990  227.8400 C   0  0  0  0  0  0  0  0  0  0  0  0
  140.2810   68.3940  227.0310 C   0  0  0  0  0  0  0  0  0  0  0  0
  139.7340   68.6560  225.7720 C   0  0  0  0  0  0  0  0  0  0  0  0
  139.6100   71.0680  222.9890 C   0  0  0  0  0  0  0  0  0  0  0  0
  138.7240   72.2550  222.7190 C   0  0  0  0  0  0  0  0  0  0  0  0
  139.1530   72.7490  221.3220 C   0  0  0  0  0  0  0  0  0  0  0  0
  140.5920   72.9120  221.2390 N   0  0  0  0  0  0  0  0  0  0  0  0
  141.1990   74.1470  220.8080 C   0  0  0  0  0  0  0  0  0  0  0  0
  142.4470   74.1870  220.7650 O   0  0  0  0  0  0  0  0  0  0  0  0
  140.2820   75.2440  220.4610 C   0  0  0  0  0  0  0  0  0  0  0  0
  140.7820   76.6240  220.7210 C   0  0  2  0  0  0  0  0  0  0  0  0
  142.2040   76.7340  220.3600 N   0  0  0  0  0  0  0  0  0  0  0  0
  140.5770   77.1220  222.1020 C   0  0  0  0  0  0  0  0  0  0  0  0
  139.1140   77.1530  222.4120 C   0  0  0  0  0  0  0  0  0  0  0  0
  138.3850   78.3400  222.3920 C   0  0  0  0  0  0  0  0  0  0  0  0
  137.0560   78.4280  222.6530 C   0  0  0  0  0  0  0  0  0  0  0  0
  136.3670   77.2630  222.9610 C   0  0  0  0  0  0  0  0  0  0  0  0
  137.0260   76.0590  222.9990 C   0  0  0  0  0  0  0  0  0  0  0  0
  138.3950   76.0180  222.7220 C   0  0  0  0  0  0  0  0  0  0  0  0
  141.2210   78.3930  222.4490 C   0  0  0  0  0  0  0  0  0  0  0  0
  141.7490   78.7040  223.6820 C   0  0  0  0  0  0  0  0  0  0  0  0
  142.3520   79.9260  223.9510 C   0  0  0  0  0  0  0  0  0  0  0  0
  142.4400   80.8890  222.9590 C   0  0  0  0  0  0  0  0  0  0  0  0
  141.9120   80.5980  221.7010 C   0  0  0  0  0  0  0  0  0  0  0  0
  141.3270   79.3850  221.4740 C   0  0  0  0  0  0  0  0  0  0  0  0
  141.4490   71.7710  221.6200 C   0  0  0  0  0  0  0  0  0  0  0  0
  141.0120   71.5220  223.1030 C   0  0  0  0  0  0  0  0  0  0  0  0
  139.1200   67.3840  223.5755 H   0  0  0  0  0  0  0  0  0  0  0  0
  138.4751   66.7480  222.0243 H   0  0  0  0  0  0  0  0  0  0  0  0
  139.5799   68.1644  222.0243 H   0  0  0  0  0  0  0  0  0  0  0  0
  137.4257   69.0174  221.6926 H   0  0  0  0  0  0  0  0  0  0  0  0
  136.7667   67.9484  223.0393 H   0  0  0  0  0  0  0  0  0  0  0  0
  140.0728   71.9789  225.7817 H   0  0  0  0  0  0  0  0  0  0  0  0
  141.0295   71.5144  227.9792 H   0  0  0  0  0  0  0  0  0  0  0  0
  141.1798   69.1840  228.8299 H   0  0  0  0  0  0  0  0  0  0  0  0
  140.3366   67.3536  227.3838 H   0  0  0  0  0  0  0  0  0  0  0  0
  139.3697   67.8180  225.1596 H   0  0  0  0  0  0  0  0  0  0  0  0
  139.6603   70.3583  222.1501 H   0  0  0  0  0  0  0  0  0  0  0  0
  137.6651   71.9572  222.7176 H   0  0  0  0  0  0  0  0  0  0  0  0
  138.8255   73.0355  223.4875 H   0  0  0  0  0  0  0  0  0  0  0  0
  138.8315   72.0152  220.5682 H   0  0  0  0  0  0  0  0  0  0  0  0
  138.6820   73.7262  221.1398 H   0  0  0  0  0  0  0  0  0  0  0  0
  140.0551   75.1655  219.3875 H   0  0  0  0  0  0  0  0  0  0  0  0
  139.4085   75.1177  221.1176 H   0  0  0  0  0  0  0  0  0  0  0  0
  140.1643   77.2696  220.0794 H   0  0  0  0  0  0  0  0  0  0  0  0
  142.4450   76.1080  219.5570 H   0  0  0  0  0  0  0  0  0  0  0  0
  142.7990   76.4280  221.1680 H   0  0  0  0  0  0  0  0  0  0  0  0
  141.1028   76.3983  222.7422 H   0  0  0  0  0  0  0  0  0  0  0  0
  138.9226   79.2682  222.1483 H   0  0  0  0  0  0  0  0  0  0  0  0
  136.5380   79.3979  222.6213 H   0  0  0  0  0  0  0  0  0  0  0  0
  135.2889   77.3045  223.1755 H   0  0  0  0  0  0  0  0  0  0  0  0
  136.4814   75.1355  223.2451 H   0  0  0  0  0  0  0  0  0  0  0  0
  138.9157   75.0495  222.7522 H   0  0  0  0  0  0  0  0  0  0  0  0
  141.6910   77.9552  224.4857 H   0  0  0  0  0  0  0  0  0  0  0  0
  142.7599   80.1292  224.9522 H   0  0  0  0  0  0  0  0  0  0  0  0
  142.9153   81.8607  223.1587 H   0  0  0  0  0  0  0  0  0  0  0  0
  141.9667   81.3435  220.8940 H   0  0  0  0  0  0  0  0  0  0  0  0
  140.9193   79.1802  220.4731 H   0  0  0  0  0  0  0  0  0  0  0  0
  141.2481   70.8916  220.9904 H   0  0  0  0  0  0  0  0  0  0  0  0
  142.5254   71.9631  221.4994 H   0  0  0  0  0  0  0  0  0  0  0  0
  141.6375   70.7473  223.5705 H   0  0  0  0  0  0  0  0  0  0  0  0
  141.1180   72.4178  223.7326 H   0  0  0  0  0  0  0  0  0  0  0  0
  1  2  1  0
  2  3  1  0
  3  4  2  0
  3  5  1  0
  5  6  1  0
  6  7  2  0
  7  8  1  0
  8  9  2  0
  9 10  1  0
 10 11  2  0
  5 12  1  0
 12 13  1  0
 13 14  1  0
 14 15  1  0
 15 16  1  0
 16 17  2  0
 16 18  1  0
 18 19  1  0
 19 20  1  0
 19 21  1  0
 21 22  1  0
 22 23  2  0
 23 24  1  0
 24 25  2  0
 25 26  1  0
 26 27  2  0
 21 28  1  0
 28 29  2  0
 29 30  1  0
 30 31  2  0
 31 32  1  0
 32 33  2  0
 15 34  1  0
 34 35  1  0
 11  6  1  0
 35 12  1  0
 27 22  1  0
 33 28  1  0
  1 36  1  0
  1 37  1  0
  1 38  1  0
  2 39  1  0
  2 40  1  0
  7 41  1  0
  8 42  1  0
  9 43  1  0
 10 44  1  0
 11 45  1  0
 12 46  1  0
 13 47  1  0
 13 48  1  0
 14 49  1  0
 14 50  1  0
 18 51  1  0
 18 52  1  0
 19 53  1  6
 20 54  1  0
 20 55  1  0
 21 56  1  0
 23 57  1  0
 24 58  1  0
 25 59  1  0
 26 60  1  0
 27 61  1  0
 29 62  1  0
 30 63  1  0
 31 64  1  0
 32 65  1  0
 33 66  1  0
 34 67  1  0
 34 68  1  0
 35 69  1  0
 35 70  1  0
M  END
>  <smiles>  (9) 
CCC(=O)N(c1ccccc1)C1CCN(C(=O)CC(N)C(c2ccccc2)c2ccccc2)CC1

>  <score_type>  (9) 
oracle

>  <origin>  (9) 
autodockgpu

>  <m_score__min__energy>  (9) 
-8.6799999999999997

>  <m_primary>  (9) 
energy

>  <rmsd>  (9) 
7.350359855146133

>  <m_score__min__rmsd>  (9) 
7.350359855146133

>  <meeko>  (9) 
{"free_energy": -8.33, "intermolecular_energy": -11.31, "internal_energy": -3.26, "cluster_size": 36, "cluster_id": 1, "rank_in_cluster": 25}

>  <energy>  (9) 
-8.49

>  <cluster_rmsd>  (9) 
0.74

>  <cluster>  (9) 
1

$$$$

     RDKit          3D

 70 73  0  0  0  0  0  0  0  0999 V2000
  138.8210   68.2400  222.4130 C   0  0  0  0  0  0  0  0  0  0  0  0
  137.5900   69.0210  222.6970 C   0  0  0  0  0  0  0  0  0  0  0  0
  137.8000   70.2920  223.4260 C   0  0  0  0  0  0  0  0  0  0  0  0
  136.7540   70.8700  223.8210 O   0  0  0  0  0  0  0  0  0  0  0  0
  139.1270   70.8410  223.6690 N   0  0  0  0  0  0  0  0  0  0  0  0
  139.7950   70.5920  224.9040 C   0  0  0  0  0  0  0  0  0  0  0  0
  140.4380   71.5690  225.6340 C   0  0  0  0  0  0  0  0  0  0  0  0
  141.0520   71.3490  226.8520 C   0  0  0  0  0  0  0  0  0  0  0  0
  141.0540   70.1030  227.4180 C   0  0  0  0  0  0  0  0  0  0  0  0
  140.4250   69.0970  226.7260 C   0  0  0  0  0  0  0  0  0  0  0  0
  139.8050   69.3250  225.4950 C   0  0  0  0  0  0  0  0  0  0  0  0
  139.6510   71.6200  222.5860 C   0  0  0  0  0  0  0  0  0  0  0  0
  138.7870   72.8280  222.3380 C   0  0  0  0  0  0  0  0  0  0  0  0
  139.1350   73.2630  220.9000 C   0  0  0  0  0  0  0  0  0  0  0  0
  140.5690   73.3730  220.7130 N   0  0  0  0  0  0  0  0  0  0  0  0
  141.1850   74.5720  220.2010 C   0  0  0  0  0  0  0  0  0  0  0  0
  142.4280   74.5670  220.0720 O   0  0  0  0  0  0  0  0  0  0  0  0
  140.2830   75.6890  219.8810 C   0  0  0  0  0  0  0  0  0  0  0  0
  140.8620   77.0570  220.0070 C   0  0  2  0  0  0  0  0  0  0  0  0
  142.2240   76.9920  220.5600 N   0  0  0  0  0  0  0  0  0  0  0  0
  140.0500   78.0190  220.7900 C   0  0  0  0  0  0  0  0  0  0  0  0
  140.9320   78.7520  221.7510 C   0  0  0  0  0  0  0  0  0  0  0  0
  141.6600   79.8760  221.3680 C   0  0  0  0  0  0  0  0  0  0  0  0
  142.4660   80.5860  222.1970 C   0  0  0  0  0  0  0  0  0  0  0  0
  142.5800   80.1740  223.5180 C   0  0  0  0  0  0  0  0  0  0  0  0
  141.8890   79.0730  223.9600 C   0  0  0  0  0  0  0  0  0  0  0  0
  141.0710   78.3740  223.0700 C   0  0  0  0  0  0  0  0  0  0  0  0
  138.8600   77.4870  221.4600 C   0  0  0  0  0  0  0  0  0  0  0  0
  138.8610   76.4770  222.3950 C   0  0  0  0  0  0  0  0  0  0  0  0
  137.7000   76.0160  223.0010 C   0  0  0  0  0  0  0  0  0  0  0  0
  136.4760   76.5770  222.6710 C   0  0  0  0  0  0  0  0  0  0  0  0
  136.4480   77.6020  221.7260 C   0  0  0  0  0  0  0  0  0  0  0  0
  137.6120   78.0280  221.1520 C   0  0  0  0  0  0  0  0  0  0  0  0
  141.4130   72.2150  221.0730 C   0  0  0  0  0  0  0  0  0  0  0  0
  141.0720   72.0270  222.5900 C   0  0  0  0  0  0  0  0  0  0  0  0
  139.2923   67.9410  223.3608 H   0  0  0  0  0  0  0  0  0  0  0  0
  138.5600   67.3419  221.8339 H   0  0  0  0  0  0  0  0  0  0  0  0
  139.5223   68.8587  221.8339 H   0  0  0  0  0  0  0  0  0  0  0  0
  137.1078   69.2560  221.7367 H   0  0  0  0  0  0  0  0  0  0  0  0
  136.9758   68.3905  223.3567 H   0  0  0  0  0  0  0  0  0  0  0  0
  140.4638   72.5880  225.2206 H   0  0  0  0  0  0  0  0  0  0  0  0
  141.5443   72.1839  227.3721 H   0  0  0  0  0  0  0  0  0  0  0  0
  141.5393   69.9149  228.3871 H   0  0  0  0  0  0  0  0  0  0  0  0
  140.4090   68.0834  227.1530 H   0  0  0  0  0  0  0  0  0  0  0  0
  139.3130   68.4877  224.9784 H   0  0  0  0  0  0  0  0  0  0  0  0
  139.6208   70.8845  221.7686 H   0  0  0  0  0  0  0  0  0  0  0  0
  137.7214   72.5670  222.4181 H   0  0  0  0  0  0  0  0  0  0  0  0
  138.9657   73.6278  223.0717 H   0  0  0  0  0  0  0  0  0  0  0  0
  138.7382   72.5179  220.1947 H   0  0  0  0  0  0  0  0  0  0  0  0
  138.6854   74.2504  220.7185 H   0  0  0  0  0  0  0  0  0  0  0  0
  139.9457   75.5613  218.8418 H   0  0  0  0  0  0  0  0  0  0  0  0
  139.4762   75.6400  220.6271 H   0  0  0  0  0  0  0  0  0  0  0  0
  140.8751   77.4494  218.9794 H   0  0  0  0  0  0  0  0  0  0  0  0
  142.9110   76.6550  219.8470 H   0  0  0  0  0  0  0  0  0  0  0  0
  142.2520   76.3050  221.3520 H   0  0  0  0  0  0  0  0  0  0  0  0
  139.6238   78.7030  220.0414 H   0  0  0  0  0  0  0  0  0  0  0  0
  141.5759   80.2105  220.3235 H   0  0  0  0  0  0  0  0  0  0  0  0
  143.0155   81.4661  221.8316 H   0  0  0  0  0  0  0  0  0  0  0  0
  143.2258   80.7313  224.2125 H   0  0  0  0  0  0  0  0  0  0  0  0
  141.9790   78.7445  225.0059 H   0  0  0  0  0  0  0  0  0  0  0  0
  140.5199   77.4938  223.4325 H   0  0  0  0  0  0  0  0  0  0  0  0
  139.8204   76.0164  222.6734 H   0  0  0  0  0  0  0  0  0  0  0  0
  137.7514   75.2056  223.7430 H   0  0  0  0  0  0  0  0  0  0  0  0
  135.5484   76.2218  223.1437 H   0  0  0  0  0  0  0  0  0  0  0  0
  135.4915   78.0661  221.4436 H   0  0  0  0  0  0  0  0  0  0  0  0
  137.5626   78.8383  220.4097 H   0  0  0  0  0  0  0  0  0  0  0  0
  141.1406   71.3240  220.4882 H   0  0  0  0  0  0  0  0  0  0  0  0
  142.4841   72.3661  220.8733 H   0  0  0  0  0  0  0  0  0  0  0  0
  141.7020   71.2450  223.0390 H   0  0  0  0  0  0  0  0  0  0  0  0
  141.2515   72.9369  223.1815 H   0  0  0  0  0  0  0  0  0  0  0  0
  1  2  1  0
  2  3  1  0
  3  4  2  0
  3  5  1  0
  5  6  1  0
  6  7  2  0
  7  8  1  0
  8  9  2  0
  9 10  1  0
 10 11  2  0
  5 12  1  0
 12 13  1  0
 13 14  1  0
 14 15  1  0
 15 16  1  0
 16 17  2  0
 16 18  1  0
 18 19  1  0
 19 20  1  0
 19 21  1  0
 21 22  1  0
 22 23  2  0
 23 24  1  0
 24 25  2  0
 25 26  1  0
 26 27  2  0
 21 28  1  0
 28 29  2  0
 29 30  1  0
 30 31  2  0
 31 32  1  0
 32 33  2  0
 15 34  1  0
 34 35  1  0
 11  6  1  0
 35 12  1  0
 27 22  1  0
 33 28  1  0
  1 36  1  0
  1 37  1  0
  1 38  1  0
  2 39  1  0
  2 40  1  0
  7 41  1  0
  8 42  1  0
  9 43  1  0
 10 44  1  0
 11 45  1  0
 12 46  1  0
 13 47  1  0
 13 48  1  0
 14 49  1  0
 14 50  1  0
 18 51  1  0
 18 52  1  0
 19 53  1  6
 20 54  1  0
 20 55  1  0
 21 56  1  0
 23 57  1  0
 24 58  1  0
 25 59  1  0
 26 60  1  0
 27 61  1  0
 29 62  1  0
 30 63  1  0
 31 64  1  0
 32 65  1  0
 33 66  1  0
 34 67  1  0
 34 68  1  0
 35 69  1  0
 35 70  1  0
M  END
>  <smiles>  (10) 
CCC(=O)N(c1ccccc1)C1CCN(C(=O)CC(N)C(c2ccccc2)c2ccccc2)CC1

>  <score_type>  (10) 
oracle

>  <origin>  (10) 
autodockgpu

>  <m_score__min__energy>  (10) 
-8.6799999999999997

>  <m_primary>  (10) 
energy

>  <rmsd>  (10) 
8.5072699785082

>  <m_score__min__rmsd>  (10) 
8.5072699785082

>  <meeko>  (10) 
{"free_energy": -7.46, "intermolecular_energy": -10.44, "internal_energy": -3.4, "cluster_size": 36, "cluster_id": 1, "rank_in_cluster": 36}

>  <energy>  (10) 
-8.48

>  <cluster_rmsd>  (10) 
0.55

>  <cluster>  (10) 
1

$$$$

     RDKit          3D

 70 73  0  0  0  0  0  0  0  0999 V2000
  146.3820   73.8070  220.9250 C   0  0  0  0  0  0  0  0  0  0  0  0
  145.3720   72.7180  220.8980 C   0  0  0  0  0  0  0  0  0  0  0  0
  145.1880   72.0570  219.5860 C   0  0  0  0  0  0  0  0  0  0  0  0
  145.9450   72.4590  218.6660 O   0  0  0  0  0  0  0  0  0  0  0  0
  144.1940   71.0140  219.3730 N   0  0  0  0  0  0  0  0  0  0  0  0
  144.5890   69.6450  219.3070 C   0  0  0  0  0  0  0  0  0  0  0  0
  145.9030   69.2320  219.2770 C   0  0  0  0  0  0  0  0  0  0  0  0
  146.2980   67.9080  219.2550 C   0  0  0  0  0  0  0  0  0  0  0  0
  145.3710   66.9020  219.2620 C   0  0  0  0  0  0  0  0  0  0  0  0
  144.0470   67.2660  219.2920 C   0  0  0  0  0  0  0  0  0  0  0  0
  143.6530   68.6070  219.3140 C   0  0  0  0  0  0  0  0  0  0  0  0
  142.8510   71.4970  219.2390 C   0  0  0  0  0  0  0  0  0  0  0  0
  142.3500   72.0390  220.5510 C   0  0  0  0  0  0  0  0  0  0  0  0
  140.8150   72.0330  220.4100 C   0  0  0  0  0  0  0  0  0  0  0  0
  140.3940   72.6740  219.1790 N   0  0  0  0  0  0  0  0  0  0  0  0
  139.4330   73.7480  219.1630 C   0  0  0  0  0  0  0  0  0  0  0  0
  139.1330   74.2320  218.0510 O   0  0  0  0  0  0  0  0  0  0  0  0
  138.9010   74.1720  220.4680 C   0  0  0  0  0  0  0  0  0  0  0  0
  139.8330   74.9460  221.3370 C   0  0  2  0  0  0  0  0  0  0  0  0
  139.3340   74.9880  222.7200 N   0  0  0  0  0  0  0  0  0  0  0  0
  140.1360   76.3210  220.8740 C   0  0  0  0  0  0  0  0  0  0  0  0
  141.3730   76.3050  220.0320 C   0  0  0  0  0  0  0  0  0  0  0  0
  141.5500   77.1900  218.9710 C   0  0  0  0  0  0  0  0  0  0  0  0
  142.6530   77.2290  218.1820 C   0  0  0  0  0  0  0  0  0  0  0  0
  143.6800   76.3310  218.4390 C   0  0  0  0  0  0  0  0  0  0  0  0
  143.5690   75.4310  219.4700 C   0  0  0  0  0  0  0  0  0  0  0  0
  142.4140   75.4290  220.2560 C   0  0  0  0  0  0  0  0  0  0  0  0
  140.2060   77.3640  221.9010 C   0  0  0  0  0  0  0  0  0  0  0  0
  141.3570   77.7750  222.5370 C   0  0  0  0  0  0  0  0  0  0  0  0
  141.3630   78.7730  223.5020 C   0  0  0  0  0  0  0  0  0  0  0  0
  140.1790   79.3990  223.8590 C   0  0  0  0  0  0  0  0  0  0  0  0
  139.0000   79.0010  223.2290 C   0  0  0  0  0  0  0  0  0  0  0  0
  139.0350   78.0160  222.2850 C   0  0  0  0  0  0  0  0  0  0  0  0
  140.9860   72.2050  217.9090 C   0  0  0  0  0  0  0  0  0  0  0  0
  142.5130   72.4460  218.1570 C   0  0  0  0  0  0  0  0  0  0  0  0
  146.6185   74.0620  221.9686 H   0  0  0  0  0  0  0  0  0  0  0  0
  147.2962   73.4720  220.4132 H   0  0  0  0  0  0  0  0  0  0  0  0
  145.9792   74.6935  220.4132 H   0  0  0  0  0  0  0  0  0  0  0  0
  145.6796   71.9514  221.6244 H   0  0  0  0  0  0  0  0  0  0  0  0
  144.4084   73.1914  221.1375 H   0  0  0  0  0  0  0  0  0  0  0  0
  146.6864   70.0042  219.2701 H   0  0  0  0  0  0  0  0  0  0  0  0
  147.3695   67.6603  219.2316 H   0  0  0  0  0  0  0  0  0  0  0  0
  145.6737   65.8446  219.2443 H   0  0  0  0  0  0  0  0  0  0  0  0
  143.2761   66.4814  219.2989 H   0  0  0  0  0  0  0  0  0  0  0  0
  142.5807   68.8512  219.3374 H   0  0  0  0  0  0  0  0  0  0  0  0
  142.3338   70.5808  218.9178 H   0  0  0  0  0  0  0  0  0  0  0  0
  142.6665   71.3944  221.3843 H   0  0  0  0  0  0  0  0  0  0  0  0
  142.7463   73.0420  220.7680 H   0  0  0  0  0  0  0  0  0  0  0  0
  140.4596   70.9920  220.4111 H   0  0  0  0  0  0  0  0  0  0  0  0
  140.3876   72.5924  221.2552 H   0  0  0  0  0  0  0  0  0  0  0  0
  138.0162   74.7986  220.2825 H   0  0  0  0  0  0  0  0  0  0  0  0
  138.6895   73.2423  221.0166 H   0  0  0  0  0  0  0  0  0  0  0  0
  140.7853   74.3983  221.2806 H   0  0  0  0  0  0  0  0  0  0  0  0
  139.5860   74.1190  223.2450 H   0  0  0  0  0  0  0  0  0  0  0  0
  138.2860   75.0430  222.7170 H   0  0  0  0  0  0  0  0  0  0  0  0
  139.2572   76.6183  220.2830 H   0  0  0  0  0  0  0  0  0  0  0  0
  140.7415   77.9050  218.7587 H   0  0  0  0  0  0  0  0  0  0  0  0
  142.7316   77.9544  217.3588 H   0  0  0  0  0  0  0  0  0  0  0  0
  144.5856   76.3405  217.8147 H   0  0  0  0  0  0  0  0  0  0  0  0
  144.3816   74.7185  219.6751 H   0  0  0  0  0  0  0  0  0  0  0  0
  142.3324   74.7051  221.0802 H   0  0  0  0  0  0  0  0  0  0  0  0
  142.3090   77.2932  222.2695 H   0  0  0  0  0  0  0  0  0  0  0  0
  142.3074   79.0670  223.9833 H   0  0  0  0  0  0  0  0  0  0  0  0
  140.1694   80.1916  224.6217 H   0  0  0  0  0  0  0  0  0  0  0  0
  138.0451   79.4794  223.4921 H   0  0  0  0  0  0  0  0  0  0  0  0
  138.0913   77.7215  221.8026 H   0  0  0  0  0  0  0  0  0  0  0  0
  140.7717   71.1399  217.7368 H   0  0  0  0  0  0  0  0  0  0  0  0
  140.5935   72.7185  217.0189 H   0  0  0  0  0  0  0  0  0  0  0  0
  143.0960   72.2291  217.2498 H   0  0  0  0  0  0  0  0  0  0  0  0
  142.7407   73.4893  218.4210 H   0  0  0  0  0  0  0  0  0  0  0  0
  1  2  1  0
  2  3  1  0
  3  4  2  0
  3  5  1  0
  5  6  1  0
  6  7  2  0
  7  8  1  0
  8  9  2  0
  9 10  1  0
 10 11  2  0
  5 12  1  0
 12 13  1  0
 13 14  1  0
 14 15  1  0
 15 16  1  0
 16 17  2  0
 16 18  1  0
 18 19  1  0
 19 20  1  0
 19 21  1  0
 21 22  1  0
 22 23  2  0
 23 24  1  0
 24 25  2  0
 25 26  1  0
 26 27  2  0
 21 28  1  0
 28 29  2  0
 29 30  1  0
 30 31  2  0
 31 32  1  0
 32 33  2  0
 15 34  1  0
 34 35  1  0
 11  6  1  0
 35 12  1  0
 27 22  1  0
 33 28  1  0
  1 36  1  0
  1 37  1  0
  1 38  1  0
  2 39  1  0
  2 40  1  0
  7 41  1  0
  8 42  1  0
  9 43  1  0
 10 44  1  0
 11 45  1  0
 12 46  1  0
 13 47  1  0
 13 48  1  0
 14 49  1  0
 14 50  1  0
 18 51  1  0
 18 52  1  0
 19 53  1  1
 20 54  1  0
 20 55  1  0
 21 56  1  0
 23 57  1  0
 24 58  1  0
 25 59  1  0
 26 60  1  0
 27 61  1  0
 29 62  1  0
 30 63  1  0
 31 64  1  0
 32 65  1  0
 33 66  1  0
 34 67  1  0
 34 68  1  0
 35 69  1  0
 35 70  1  0
M  END
>  <smiles>  (11) 
CCC(=O)N(c1ccccc1)C1CCN(C(=O)CC(N)C(c2ccccc2)c2ccccc2)CC1

>  <score_type>  (11) 
oracle

>  <origin>  (11) 
autodockgpu

>  <m_score__min__energy>  (11) 
-8.6799999999999997

>  <m_primary>  (11) 
energy

>  <rmsd>  (11) 
8.004139523758267

>  <m_score__min__rmsd>  (11) 
8.004139523758267

>  <meeko>  (11) 
{"free_energy": -7.77, "intermolecular_energy": -10.76, "internal_energy": -3.28, "cluster_size": 12, "cluster_id": 2, "rank_in_cluster": 5}

>  <energy>  (11) 
-8.48

>  <cluster_rmsd>  (11) 
0.47

>  <cluster>  (11) 
1

$$$$

     RDKit          3D

 70 73  0  0  0  0  0  0  0  0999 V2000
  145.6830   74.0770  220.8450 C   0  0  0  0  0  0  0  0  0  0  0  0
  146.0060   72.6500  220.5890 C   0  0  0  0  0  0  0  0  0  0  0  0
  145.3610   72.0590  219.3940 C   0  0  0  0  0  0  0  0  0  0  0  0
  145.7570   72.5060  218.2870 O   0  0  0  0  0  0  0  0  0  0  0  0
  144.3340   71.0310  219.4930 N   0  0  0  0  0  0  0  0  0  0  0  0
  144.6810   69.6520  219.3750 C   0  0  0  0  0  0  0  0  0  0  0  0
  143.7630   68.6260  219.4440 C   0  0  0  0  0  0  0  0  0  0  0  0
  144.0810   67.2900  219.2900 C   0  0  0  0  0  0  0  0  0  0  0  0
  145.3710   66.9030  219.0530 C   0  0  0  0  0  0  0  0  0  0  0  0
  146.3220   67.8910  218.9760 C   0  0  0  0  0  0  0  0  0  0  0  0
  145.9950   69.2410  219.1320 C   0  0  0  0  0  0  0  0  0  0  0  0
  143.0100   71.5370  219.7020 C   0  0  0  0  0  0  0  0  0  0  0  0
  142.9200   72.2530  221.0230 C   0  0  0  0  0  0  0  0  0  0  0  0
  141.4130   72.2810  221.3460 C   0  0  0  0  0  0  0  0  0  0  0  0
  140.6410   72.7780  220.2230 N   0  0  0  0  0  0  0  0  0  0  0  0
  139.7140   73.8740  220.3570 C   0  0  0  0  0  0  0  0  0  0  0  0
  139.0930   74.2260  219.3310 O   0  0  0  0  0  0  0  0  0  0  0  0
  139.5920   74.4720  221.6950 C   0  0  0  0  0  0  0  0  0  0  0  0
  139.5820   75.9620  221.7490 C   0  0  2  0  0  0  0  0  0  0  0  0
  138.8780   76.5160  220.5820 N   0  0  0  0  0  0  0  0  0  0  0  0
  140.9140   76.6000  221.8760 C   0  0  0  0  0  0  0  0  0  0  0  0
  140.7720   77.9250  222.5570 C   0  0  0  0  0  0  0  0  0  0  0  0
  139.5260   78.5120  222.7650 C   0  0  0  0  0  0  0  0  0  0  0  0
  139.3350   79.7040  223.3850 C   0  0  0  0  0  0  0  0  0  0  0  0
  140.4480   80.3930  223.8460 C   0  0  0  0  0  0  0  0  0  0  0  0
  141.7060   79.8700  223.6720 C   0  0  0  0  0  0  0  0  0  0  0  0
  141.8530   78.6390  223.0290 C   0  0  0  0  0  0  0  0  0  0  0  0
  141.7120   76.7140  220.6530 C   0  0  0  0  0  0  0  0  0  0  0  0
  141.7740   77.8300  219.8470 C   0  0  0  0  0  0  0  0  0  0  0  0
  142.5520   77.8820  218.6980 C   0  0  0  0  0  0  0  0  0  0  0  0
  143.3090   76.7830  218.3240 C   0  0  0  0  0  0  0  0  0  0  0  0
  143.2640   75.6410  219.1230 C   0  0  0  0  0  0  0  0  0  0  0  0
  142.4860   75.6280  220.2450 C   0  0  0  0  0  0  0  0  0  0  0  0
  140.8300   72.1370  218.9060 C   0  0  0  0  0  0  0  0  0  0  0  0
  142.3600   72.3560  218.6570 C   0  0  0  0  0  0  0  0  0  0  0  0
  145.6427   74.2549  221.9298 H   0  0  0  0  0  0  0  0  0  0  0  0
  146.4595   74.7147  220.3974 H   0  0  0  0  0  0  0  0  0  0  0  0
  144.7075   74.3182  220.3974 H   0  0  0  0  0  0  0  0  0  0  0  0
  147.0956   72.5655  220.4637 H   0  0  0  0  0  0  0  0  0  0  0  0
  145.6166   72.0907  221.4524 H   0  0  0  0  0  0  0  0  0  0  0  0
  142.7114   68.8871  219.6335 H   0  0  0  0  0  0  0  0  0  0  0  0
  143.2885   66.5302  219.3587 H   0  0  0  0  0  0  0  0  0  0  0  0
  145.6364   65.8427  218.9290 H   0  0  0  0  0  0  0  0  0  0  0  0
  147.3691   67.6124  218.7865 H   0  0  0  0  0  0  0  0  0  0  0  0
  146.7902   69.9978  219.0619 H   0  0  0  0  0  0  0  0  0  0  0  0
  142.4255   70.6058  219.6678 H   0  0  0  0  0  0  0  0  0  0  0  0
  143.4739   71.7060  221.8001 H   0  0  0  0  0  0  0  0  0  0  0  0
  143.3575   73.2614  220.9824 H   0  0  0  0  0  0  0  0  0  0  0  0
  141.0793   71.2608  221.5863 H   0  0  0  0  0  0  0  0  0  0  0  0
  141.2543   72.9547  222.2009 H   0  0  0  0  0  0  0  0  0  0  0  0
  138.6517   74.1133  222.1390 H   0  0  0  0  0  0  0  0  0  0  0  0
  140.4957   74.1626  222.2405 H   0  0  0  0  0  0  0  0  0  0  0  0
  139.0478   76.2028  222.6800 H   0  0  0  0  0  0  0  0  0  0  0  0
  138.0010   75.9840  220.3760 H   0  0  0  0  0  0  0  0  0  0  0  0
  139.4850   76.4360  219.7300 H   0  0  0  0  0  0  0  0  0  0  0  0
  141.5030   75.9004  222.4873 H   0  0  0  0  0  0  0  0  0  0  0  0
  138.6379   77.9736  222.4026 H   0  0  0  0  0  0  0  0  0  0  0  0
  138.3231   80.1139  223.5188 H   0  0  0  0  0  0  0  0  0  0  0  0
  140.3222   81.3613  224.3525 H   0  0  0  0  0  0  0  0  0  0  0  0
  142.5893   80.4155  224.0356 H   0  0  0  0  0  0  0  0  0  0  0  0
  142.8636   78.2258  222.8948 H   0  0  0  0  0  0  0  0  0  0  0  0
  141.1834   78.7154  220.1250 H   0  0  0  0  0  0  0  0  0  0  0  0
  142.5675   78.7951  218.0849 H   0  0  0  0  0  0  0  0  0  0  0  0
  143.9313   76.8109  217.4174 H   0  0  0  0  0  0  0  0  0  0  0  0
  143.8535   74.7533  218.8502 H   0  0  0  0  0  0  0  0  0  0  0  0
  142.4688   74.7148  220.8580 H   0  0  0  0  0  0  0  0  0  0  0  0
  140.5798   71.0665  218.9425 H   0  0  0  0  0  0  0  0  0  0  0  0
  140.1873   72.5497  218.1144 H   0  0  0  0  0  0  0  0  0  0  0  0
  142.6469   72.0096  217.6532 H   0  0  0  0  0  0  0  0  0  0  0  0
  142.6508   73.4157  218.7060 H   0  0  0  0  0  0  0  0  0  0  0  0
  1  2  1  0
  2  3  1  0
  3  4  2  0
  3  5  1  0
  5  6  1  0
  6  7  2  0
  7  8  1  0
  8  9  2  0
  9 10  1  0
 10 11  2  0
  5 12  1  0
 12 13  1  0
 13 14  1  0
 14 15  1  0
 15 16  1  0
 16 17  2  0
 16 18  1  0
 18 19  1  0
 19 20  1  0
 19 21  1  0
 21 22  1  0
 22 23  2  0
 23 24  1  0
 24 25  2  0
 25 26  1  0
 26 27  2  0
 21 28  1  0
 28 29  2  0
 29 30  1  0
 30 31  2  0
 31 32  1  0
 32 33  2  0
 15 34  1  0
 34 35  1  0
 11  6  1  0
 35 12  1  0
 27 22  1  0
 33 28  1  0
  1 36  1  0
  1 37  1  0
  1 38  1  0
  2 39  1  0
  2 40  1  0
  7 41  1  0
  8 42  1  0
  9 43  1  0
 10 44  1  0
 11 45  1  0
 12 46  1  0
 13 47  1  0
 13 48  1  0
 14 49  1  0
 14 50  1  0
 18 51  1  0
 18 52  1  0
 19 53  1  1
 20 54  1  0
 20 55  1  0
 21 56  1  0
 23 57  1  0
 24 58  1  0
 25 59  1  0
 26 60  1  0
 27 61  1  0
 29 62  1  0
 30 63  1  0
 31 64  1  0
 32 65  1  0
 33 66  1  0
 34 67  1  0
 34 68  1  0
 35 69  1  0
 35 70  1  0
M  END
>  <smiles>  (12) 
CCC(=O)N(c1ccccc1)C1CCN(C(=O)CC(N)C(c2ccccc2)c2ccccc2)CC1

>  <score_type>  (12) 
oracle

>  <origin>  (12) 
autodockgpu

>  <m_score__min__energy>  (12) 
-8.6799999999999997

>  <m_primary>  (12) 
energy

>  <rmsd>  (12) 
7.914003620551769

>  <m_score__min__rmsd>  (12) 
7.914003620551769

>  <meeko>  (12) 
{"free_energy": -7.51, "intermolecular_energy": -10.5, "internal_energy": -3.94, "cluster_size": 12, "cluster_id": 2, "rank_in_cluster": 10}

>  <energy>  (12) 
-8.47

>  <cluster_rmsd>  (12) 
0.71

>  <cluster>  (12) 
1

$$$$

     RDKit          3D

 70 73  0  0  0  0  0  0  0  0999 V2000
  135.1420   70.7370  224.5740 C   0  0  0  0  0  0  0  0  0  0  0  0
  136.0600   69.6250  224.9320 C   0  0  0  0  0  0  0  0  0  0  0  0
  137.1600   69.3780  223.9730 C   0  0  0  0  0  0  0  0  0  0  0  0
  136.8270   68.8170  222.8980 O   0  0  0  0  0  0  0  0  0  0  0  0
  138.5380   69.7560  224.2560 N   0  0  0  0  0  0  0  0  0  0  0  0
  139.2130   69.2210  225.3930 C   0  0  0  0  0  0  0  0  0  0  0  0
  139.5760   67.8960  225.5110 C   0  0  0  0  0  0  0  0  0  0  0  0
  140.2670   67.3750  226.5880 C   0  0  0  0  0  0  0  0  0  0  0  0
  140.6400   68.1760  227.6320 C   0  0  0  0  0  0  0  0  0  0  0  0
  140.3000   69.5050  227.5590 C   0  0  0  0  0  0  0  0  0  0  0  0
  139.6010   70.0270  226.4670 C   0  0  0  0  0  0  0  0  0  0  0  0
  139.1020   70.6790  223.3170 C   0  0  0  0  0  0  0  0  0  0  0  0
  138.1620   71.8310  223.0780 C   0  0  0  0  0  0  0  0  0  0  0  0
  138.6230   72.4340  221.7350 C   0  0  0  0  0  0  0  0  0  0  0  0
  140.0520   72.6800  221.7300 N   0  0  0  0  0  0  0  0  0  0  0  0
  140.6060   73.9710  221.4030 C   0  0  0  0  0  0  0  0  0  0  0  0
  141.8500   74.0820  221.4230 O   0  0  0  0  0  0  0  0  0  0  0  0
  139.6440   75.0360  221.0800 C   0  0  0  0  0  0  0  0  0  0  0  0
  140.1840   76.4250  221.0630 C   0  0  2  0  0  0  0  0  0  0  0  0
  141.5880   76.4270  220.6250 N   0  0  0  0  0  0  0  0  0  0  0  0
  140.0570   77.1700  222.3390 C   0  0  0  0  0  0  0  0  0  0  0  0
  138.6170   77.4880  222.5920 C   0  0  0  0  0  0  0  0  0  0  0  0
  137.6770   76.4890  222.8320 C   0  0  0  0  0  0  0  0  0  0  0  0
  136.3620   76.7180  223.0780 C   0  0  0  0  0  0  0  0  0  0  0  0
  135.9140   78.0310  223.0940 C   0  0  0  0  0  0  0  0  0  0  0  0
  136.7890   79.0640  222.8650 C   0  0  0  0  0  0  0  0  0  0  0  0
  138.1340   78.7790  222.6160 C   0  0  0  0  0  0  0  0  0  0  0  0
  140.9000   78.3580  222.4970 C   0  0  0  0  0  0  0  0  0  0  0  0
  141.2050   79.2530  221.4950 C   0  0  0  0  0  0  0  0  0  0  0  0
  142.0080   80.3670  221.7050 C   0  0  0  0  0  0  0  0  0  0  0  0
  142.5370   80.6130  222.9620 C   0  0  0  0  0  0  0  0  0  0  0  0
  142.2430   79.7210  223.9940 C   0  0  0  0  0  0  0  0  0  0  0  0
  141.4490   78.6370  223.7480 C   0  0  0  0  0  0  0  0  0  0  0  0
  140.9560   71.5660  222.0820 C   0  0  0  0  0  0  0  0  0  0  0  0
  140.4700   71.2000  223.5250 C   0  0  0  0  0  0  0  0  0  0  0  0
  134.7564   71.2041  225.4922 H   0  0  0  0  0  0  0  0  0  0  0  0
  135.6876   71.4869  223.9824 H   0  0  0  0  0  0  0  0  0  0  0  0
  134.3024   70.3433  223.9824 H   0  0  0  0  0  0  0  0  0  0  0  0
  136.5075   69.8555  225.9101 H   0  0  0  0  0  0  0  0  0  0  0  0
  135.4461   68.7123  224.9317 H   0  0  0  0  0  0  0  0  0  0  0  0
  139.2980   67.2108  224.6966 H   0  0  0  0  0  0  0  0  0  0  0  0
  140.5199   66.3046  226.6060 H   0  0  0  0  0  0  0  0  0  0  0  0
  141.1899   67.7724  228.4950 H   0  0  0  0  0  0  0  0  0  0  0  0
  140.5856   70.1765  228.3822 H   0  0  0  0  0  0  0  0  0  0  0  0
  139.3502   71.0979  226.4525 H   0  0  0  0  0  0  0  0  0  0  0  0
  139.2296   70.0280  222.4395 H   0  0  0  0  0  0  0  0  0  0  0  0
  137.1229   71.4769  223.0089 H   0  0  0  0  0  0  0  0  0  0  0  0
  138.1849   72.5660  223.8961 H   0  0  0  0  0  0  0  0  0  0  0  0
  138.3775   71.7323  220.9242 H   0  0  0  0  0  0  0  0  0  0  0  0
  138.1053   73.3936  221.5897 H   0  0  0  0  0  0  0  0  0  0  0  0
  139.2304   74.8241  220.0830 H   0  0  0  0  0  0  0  0  0  0  0  0
  138.9006   75.0182  221.8906 H   0  0  0  0  0  0  0  0  0  0  0  0
  139.5487   76.9620  220.3433 H   0  0  0  0  0  0  0  0  0  0  0  0
  141.7730   75.6690  219.9290 H   0  0  0  0  0  0  0  0  0  0  0  0
  142.2150   76.2410  221.4460 H   0  0  0  0  0  0  0  0  0  0  0  0
  140.4526   76.4864  223.1047 H   0  0  0  0  0  0  0  0  0  0  0  0
  138.0232   75.4450  222.8215 H   0  0  0  0  0  0  0  0  0  0  0  0
  135.6688   75.8835  223.2601 H   0  0  0  0  0  0  0  0  0  0  0  0
  134.8532   78.2453  223.2910 H   0  0  0  0  0  0  0  0  0  0  0  0
  136.4348   80.1053  222.8775 H   0  0  0  0  0  0  0  0  0  0  0  0
  138.8297   79.6113  222.4333 H   0  0  0  0  0  0  0  0  0  0  0  0
  140.7965   79.0786  220.4887 H   0  0  0  0  0  0  0  0  0  0  0  0
  142.2239   81.0539  220.8734 H   0  0  0  0  0  0  0  0  0  0  0  0
  143.1741   81.4914  223.1421 H   0  0  0  0  0  0  0  0  0  0  0  0
  142.6492   79.8902  225.0022 H   0  0  0  0  0  0  0  0  0  0  0  0
  141.2318   77.9495  224.5787 H   0  0  0  0  0  0  0  0  0  0  0  0
  140.8341   70.7183  221.3917 H   0  0  0  0  0  0  0  0  0  0  0  0
  142.0236   71.8246  222.0246 H   0  0  0  0  0  0  0  0  0  0  0  0
  141.1175   70.4320  223.9732 H   0  0  0  0  0  0  0  0  0  0  0  0
  140.4976   72.0581  224.2127 H   0  0  0  0  0  0  0  0  0  0  0  0
  1  2  1  0
  2  3  1  0
  3  4  2  0
  3  5  1  0
  5  6  1  0
  6  7  2  0
  7  8  1  0
  8  9  2  0
  9 10  1  0
 10 11  2  0
  5 12  1  0
 12 13  1  0
 13 14  1  0
 14 15  1  0
 15 16  1  0
 16 17  2  0
 16 18  1  0
 18 19  1  0
 19 20  1  0
 19 21  1  0
 21 22  1  0
 22 23  2  0
 23 24  1  0
 24 25  2  0
 25 26  1  0
 26 27  2  0
 21 28  1  0
 28 29  2  0
 29 30  1  0
 30 31  2  0
 31 32  1  0
 32 33  2  0
 15 34  1  0
 34 35  1  0
 11  6  1  0
 35 12  1  0
 27 22  1  0
 33 28  1  0
  1 36  1  0
  1 37  1  0
  1 38  1  0
  2 39  1  0
  2 40  1  0
  7 41  1  0
  8 42  1  0
  9 43  1  0
 10 44  1  0
 11 45  1  0
 12 46  1  0
 13 47  1  0
 13 48  1  0
 14 49  1  0
 14 50  1  0
 18 51  1  0
 18 52  1  0
 19 53  1  6
 20 54  1  0
 20 55  1  0
 21 56  1  0
 23 57  1  0
 24 58  1  0
 25 59  1  0
 26 60  1  0
 27 61  1  0
 29 62  1  0
 30 63  1  0
 31 64  1  0
 32 65  1  0
 33 66  1  0
 34 67  1  0
 34 68  1  0
 35 69  1  0
 35 70  1  0
M  END
>  <smiles>  (13) 
CCC(=O)N(c1ccccc1)C1CCN(C(=O)CC(N)C(c2ccccc2)c2ccccc2)CC1

>  <score_type>  (13) 
oracle

>  <origin>  (13) 
autodockgpu

>  <m_score__min__energy>  (13) 
-8.6799999999999997

>  <m_primary>  (13) 
energy

>  <rmsd>  (13) 
7.752458924248168

>  <m_score__min__rmsd>  (13) 
7.752458924248168

>  <meeko>  (13) 
{"free_energy": -8.46, "intermolecular_energy": -11.44, "internal_energy": -3.1, "cluster_size": 36, "cluster_id": 1, "rank_in_cluster": 14}

>  <energy>  (13) 
-8.47

>  <cluster_rmsd>  (13) 
1.14

>  <cluster>  (13) 
1

$$$$

     RDKit          3D

 70 73  0  0  0  0  0  0  0  0999 V2000
  135.4350   70.7250  224.5570 C   0  0  0  0  0  0  0  0  0  0  0  0
  136.2970   69.5700  224.9170 C   0  0  0  0  0  0  0  0  0  0  0  0
  137.4620   69.3480  224.0310 C   0  0  0  0  0  0  0  0  0  0  0  0
  137.2340   68.6770  222.9920 O   0  0  0  0  0  0  0  0  0  0  0  0
  138.7870   69.8680  224.3420 N   0  0  0  0  0  0  0  0  0  0  0  0
  139.4400   69.4970  225.5550 C   0  0  0  0  0  0  0  0  0  0  0  0
  139.9540   70.4070  226.4530 C   0  0  0  0  0  0  0  0  0  0  0  0
  140.5510   70.0610  227.6510 C   0  0  0  0  0  0  0  0  0  0  0  0
  140.6670   68.7490  228.0200 C   0  0  0  0  0  0  0  0  0  0  0  0
  140.1680   67.8060  227.1550 C   0  0  0  0  0  0  0  0  0  0  0  0
  139.5650   68.1610  225.9450 C   0  0  0  0  0  0  0  0  0  0  0  0
  139.3230   70.7500  223.3480 C   0  0  0  0  0  0  0  0  0  0  0  0
  138.3860   71.9010  223.1010 C   0  0  0  0  0  0  0  0  0  0  0  0
  138.8020   72.4490  221.7200 C   0  0  0  0  0  0  0  0  0  0  0  0
  140.2320   72.6800  221.6520 N   0  0  0  0  0  0  0  0  0  0  0  0
  140.7840   73.9510  221.2570 C   0  0  0  0  0  0  0  0  0  0  0  0
  142.0300   74.0500  221.2260 O   0  0  0  0  0  0  0  0  0  0  0  0
  139.8210   75.0140  220.9300 C   0  0  0  0  0  0  0  0  0  0  0  0
  140.3480   76.4080  220.9550 C   0  0  2  0  0  0  0  0  0  0  0  0
  141.7540   76.4360  220.5230 N   0  0  0  0  0  0  0  0  0  0  0  0
  140.2090   77.1140  222.2510 C   0  0  0  0  0  0  0  0  0  0  0  0
  138.7610   77.3540  222.5380 C   0  0  0  0  0  0  0  0  0  0  0  0
  137.8960   76.3130  222.8670 C   0  0  0  0  0  0  0  0  0  0  0  0
  136.5780   76.4710  223.1480 C   0  0  0  0  0  0  0  0  0  0  0  0
  136.0450   77.7520  223.1080 C   0  0  0  0  0  0  0  0  0  0  0  0
  136.8430   78.8230  222.7900 C   0  0  0  0  0  0  0  0  0  0  0  0
  138.1950   78.6110  222.5090 C   0  0  0  0  0  0  0  0  0  0  0  0
  140.9950   78.3390  222.4230 C   0  0  0  0  0  0  0  0  0  0  0  0
  141.2490   79.2640  221.4350 C   0  0  0  0  0  0  0  0  0  0  0  0
  141.9990   80.4120  221.6570 C   0  0  0  0  0  0  0  0  0  0  0  0
  142.5250   80.6620  222.9150 C   0  0  0  0  0  0  0  0  0  0  0  0
  142.2820   79.7400  223.9330 C   0  0  0  0  0  0  0  0  0  0  0  0
  141.5400   78.6240  223.6750 C   0  0  0  0  0  0  0  0  0  0  0  0
  141.1380   71.5700  222.0130 C   0  0  0  0  0  0  0  0  0  0  0  0
  140.7030   71.2640  223.4850 C   0  0  0  0  0  0  0  0  0  0  0  0
  135.0719   71.2115  225.4743 H   0  0  0  0  0  0  0  0  0  0  0  0
  136.0172   71.4466  223.9651 H   0  0  0  0  0  0  0  0  0  0  0  0
  134.5776   70.3722  223.9651 H   0  0  0  0  0  0  0  0  0  0  0  0
  136.6729   69.7320  225.9380 H   0  0  0  0  0  0  0  0  0  0  0  0
  135.6642   68.6759  224.8162 H   0  0  0  0  0  0  0  0  0  0  0  0
  139.8850   71.4755  226.2009 H   0  0  0  0  0  0  0  0  0  0  0  0
  140.9368   70.8491  228.3144 H   0  0  0  0  0  0  0  0  0  0  0  0
  141.1404   68.4610  228.9703 H   0  0  0  0  0  0  0  0  0  0  0  0
  140.2451   66.7417  227.4219 H   0  0  0  0  0  0  0  0  0  0  0  0
  139.1799   67.3703  225.2844 H   0  0  0  0  0  0  0  0  0  0  0  0
  139.4108   70.0656  222.4913 H   0  0  0  0  0  0  0  0  0  0  0  0
  137.3419   71.5554  223.0836 H   0  0  0  0  0  0  0  0  0  0  0  0
  138.4460   72.6656  223.8895 H   0  0  0  0  0  0  0  0  0  0  0  0
  138.5199   71.7202  220.9458 H   0  0  0  0  0  0  0  0  0  0  0  0
  138.2880   73.4081  221.5587 H   0  0  0  0  0  0  0  0  0  0  0  0
  139.4358   74.8187  219.9183 H   0  0  0  0  0  0  0  0  0  0  0  0
  139.0570   74.9732  221.7203 H   0  0  0  0  0  0  0  0  0  0  0  0
  139.7107   76.9595  220.2481 H   0  0  0  0  0  0  0  0  0  0  0  0
  141.9440   75.7120  219.7920 H   0  0  0  0  0  0  0  0  0  0  0  0
  142.3780   76.2140  221.3350 H   0  0  0  0  0  0  0  0  0  0  0  0
  140.6523   76.4322  222.9918 H   0  0  0  0  0  0  0  0  0  0  0  0
  138.3092   75.2942  222.9013 H   0  0  0  0  0  0  0  0  0  0  0  0
  135.9478   75.6057  223.4011 H   0  0  0  0  0  0  0  0  0  0  0  0
  134.9796   77.9096  223.3319 H   0  0  0  0  0  0  0  0  0  0  0  0
  136.4217   79.8386  222.7568 H   0  0  0  0  0  0  0  0  0  0  0  0
  138.8282   79.4744  222.2566 H   0  0  0  0  0  0  0  0  0  0  0  0
  140.8413   79.0866  220.4289 H   0  0  0  0  0  0  0  0  0  0  0  0
  142.1753   81.1219  220.8355 H   0  0  0  0  0  0  0  0  0  0  0  0
  143.1205   81.5669  223.1060 H   0  0  0  0  0  0  0  0  0  0  0  0
  142.6873   79.9119  224.9411 H   0  0  0  0  0  0  0  0  0  0  0  0
  141.3628   77.9134  224.4958 H   0  0  0  0  0  0  0  0  0  0  0  0
  140.9825   70.6982  221.3604 H   0  0  0  0  0  0  0  0  0  0  0  0
  142.2051   71.8147  221.9066 H   0  0  0  0  0  0  0  0  0  0  0  0
  141.3597   70.5066  223.9378 H   0  0  0  0  0  0  0  0  0  0  0  0
  140.7641   72.1472  224.1379 H   0  0  0  0  0  0  0  0  0  0  0  0
  1  2  1  0
  2  3  1  0
  3  4  2  0
  3  5  1  0
  5  6  1  0
  6  7  2  0
  7  8  1  0
  8  9  2  0
  9 10  1  0
 10 11  2  0
  5 12  1  0
 12 13  1  0
 13 14  1  0
 14 15  1  0
 15 16  1  0
 16 17  2  0
 16 18  1  0
 18 19  1  0
 19 20  1  0
 19 21  1  0
 21 22  1  0
 22 23  2  0
 23 24  1  0
 24 25  2  0
 25 26  1  0
 26 27  2  0
 21 28  1  0
 28 29  2  0
 29 30  1  0
 30 31  2  0
 31 32  1  0
 32 33  2  0
 15 34  1  0
 34 35  1  0
 11  6  1  0
 35 12  1  0
 27 22  1  0
 33 28  1  0
  1 36  1  0
  1 37  1  0
  1 38  1  0
  2 39  1  0
  2 40  1  0
  7 41  1  0
  8 42  1  0
  9 43  1  0
 10 44  1  0
 11 45  1  0
 12 46  1  0
 13 47  1  0
 13 48  1  0
 14 49  1  0
 14 50  1  0
 18 51  1  0
 18 52  1  0
 19 53  1  6
 20 54  1  0
 20 55  1  0
 21 56  1  0
 23 57  1  0
 24 58  1  0
 25 59  1  0
 26 60  1  0
 27 61  1  0
 29 62  1  0
 30 63  1  0
 31 64  1  0
 32 65  1  0
 33 66  1  0
 34 67  1  0
 34 68  1  0
 35 69  1  0
 35 70  1  0
M  END
>  <smiles>  (14) 
CCC(=O)N(c1ccccc1)C1CCN(C(=O)CC(N)C(c2ccccc2)c2ccccc2)CC1

>  <score_type>  (14) 
oracle

>  <origin>  (14) 
autodockgpu

>  <m_score__min__energy>  (14) 
-8.6799999999999997

>  <m_primary>  (14) 
energy

>  <rmsd>  (14) 
7.647169978921206

>  <m_score__min__rmsd>  (14) 
7.647169978921206

>  <meeko>  (14) 
{"free_energy": -8.42, "intermolecular_energy": -11.41, "internal_energy": -3.15, "cluster_size": 36, "cluster_id": 1, "rank_in_cluster": 17}

>  <energy>  (14) 
-8.46

>  <cluster_rmsd>  (14) 
0.83

>  <cluster>  (14) 
1

$$$$

     RDKit          3D

 70 73  0  0  0  0  0  0  0  0999 V2000
  142.5530   78.5950  218.2240 C   0  0  0  0  0  0  0  0  0  0  0  0
  141.9380   77.2830  218.5520 C   0  0  0  0  0  0  0  0  0  0  0  0
  142.1990   76.7850  219.9210 C   0  0  0  0  0  0  0  0  0  0  0  0
  143.2610   76.1260  220.0650 O   0  0  0  0  0  0  0  0  0  0  0  0
  141.2870   77.0360  221.0280 N   0  0  0  0  0  0  0  0  0  0  0  0
  141.5110   78.1330  221.9120 C   0  0  0  0  0  0  0  0  0  0  0  0
  141.7560   79.4200  221.4830 C   0  0  0  0  0  0  0  0  0  0  0  0
  141.9330   80.4980  222.3290 C   0  0  0  0  0  0  0  0  0  0  0  0
  141.8710   80.3380  223.6860 C   0  0  0  0  0  0  0  0  0  0  0  0
  141.6280   79.0720  224.1610 C   0  0  0  0  0  0  0  0  0  0  0  0
  141.4500   77.9850  223.3000 C   0  0  0  0  0  0  0  0  0  0  0  0
  140.2040   76.1030  221.1240 C   0  0  0  0  0  0  0  0  0  0  0  0
  140.7270   74.6950  221.2380 C   0  0  0  0  0  0  0  0  0  0  0  0
  139.5380   73.8060  220.8220 C   0  0  0  0  0  0  0  0  0  0  0  0
  138.3300   74.1670  221.5390 N   0  0  0  0  0  0  0  0  0  0  0  0
  137.5590   73.1990  222.2770 C   0  0  0  0  0  0  0  0  0  0  0  0
  136.5310   73.6080  222.8590 O   0  0  0  0  0  0  0  0  0  0  0  0
  138.0620   71.8170  222.2740 C   0  0  0  0  0  0  0  0  0  0  0  0
  137.3040   70.8400  223.1060 C   0  0  2  0  0  0  0  0  0  0  0  0
  136.6510   71.5210  224.2350 N   0  0  0  0  0  0  0  0  0  0  0  0
  138.0910   69.6880  223.6060 C   0  0  0  0  0  0  0  0  0  0  0  0
  139.0680   70.1580  224.6360 C   0  0  0  0  0  0  0  0  0  0  0  0
  139.0720   69.6450  225.9320 C   0  0  0  0  0  0  0  0  0  0  0  0
  139.9400   70.0250  226.9030 C   0  0  0  0  0  0  0  0  0  0  0  0
  140.8910   70.9880  226.5980 C   0  0  0  0  0  0  0  0  0  0  0  0
  140.9410   71.5360  225.3390 C   0  0  0  0  0  0  0  0  0  0  0  0
  140.0270   71.1130  224.3720 C   0  0  0  0  0  0  0  0  0  0  0  0
  138.7440   68.8470  222.5990 C   0  0  0  0  0  0  0  0  0  0  0  0
  139.5410   69.3100  221.5750 C   0  0  0  0  0  0  0  0  0  0  0  0
  140.1380   68.4640  220.6500 C   0  0  0  0  0  0  0  0  0  0  0  0
  139.9440   67.0940  220.7360 C   0  0  0  0  0  0  0  0  0  0  0  0
  139.1410   66.6000  221.7650 C   0  0  0  0  0  0  0  0  0  0  0  0
  138.5710   67.4640  222.6550 C   0  0  0  0  0  0  0  0  0  0  0  0
  137.8970   75.5790  221.5110 C   0  0  0  0  0  0  0  0  0  0  0  0
  139.1370   76.3100  222.1260 C   0  0  0  0  0  0  0  0  0  0  0  0
  142.8020   79.1261  219.1545 H   0  0  0  0  0  0  0  0  0  0  0  0
  143.4694   78.4340  217.6373 H   0  0  0  0  0  0  0  0  0  0  0  0
  141.8430   79.1963  217.6373 H   0  0  0  0  0  0  0  0  0  0  0  0
  140.8492   77.3776  218.4270 H   0  0  0  0  0  0  0  0  0  0  0  0
  142.3990   76.5529  217.8705 H   0  0  0  0  0  0  0  0  0  0  0  0
  141.8142   79.6000  220.3994 H   0  0  0  0  0  0  0  0  0  0  0  0
  142.1258   81.4953  221.9068 H   0  0  0  0  0  0  0  0  0  0  0  0
  142.0101   81.1886  224.3694 H   0  0  0  0  0  0  0  0  0  0  0  0
  141.5720   78.9093  225.2475 H   0  0  0  0  0  0  0  0  0  0  0  0
  141.2573   76.9892  223.7256 H   0  0  0  0  0  0  0  0  0  0  0  0
  139.6785   76.3007  220.1781 H   0  0  0  0  0  0  0  0  0  0  0  0
  141.5817   74.5420  220.5627 H   0  0  0  0  0  0  0  0  0  0  0  0
  141.0875   74.4637  222.2512 H   0  0  0  0  0  0  0  0  0  0  0  0
  139.3625   73.9253  219.7427 H   0  0  0  0  0  0  0  0  0  0  0  0
  139.7852   72.7620  221.0646 H   0  0  0  0  0  0  0  0  0  0  0  0
  138.0466   71.4563  221.2349 H   0  0  0  0  0  0  0  0  0  0  0  0
  139.0661   71.8678  222.7204 H   0  0  0  0  0  0  0  0  0  0  0  0
  136.5571   70.4124  222.4209 H   0  0  0  0  0  0  0  0  0  0  0  0
  135.7090   71.8900  223.9660 H   0  0  0  0  0  0  0  0  0  0  0  0
  137.2250   72.3480  224.5300 H   0  0  0  0  0  0  0  0  0  0  0  0
  137.3461   69.0089  224.0464 H   0  0  0  0  0  0  0  0  0  0  0  0
  138.3216   68.8813  226.1843 H   0  0  0  0  0  0  0  0  0  0  0  0
  139.8909   69.5803  227.9079 H   0  0  0  0  0  0  0  0  0  0  0  0
  141.6073   71.3139  227.3666 H   0  0  0  0  0  0  0  0  0  0  0  0
  141.6936   72.3004  225.0954 H   0  0  0  0  0  0  0  0  0  0  0  0
  140.0735   71.5562  223.3663 H   0  0  0  0  0  0  0  0  0  0  0  0
  139.7111   70.3932  221.4867 H   0  0  0  0  0  0  0  0  0  0  0  0
  140.7653   68.8810  219.8484 H   0  0  0  0  0  0  0  0  0  0  0  0
  140.4119   66.4125  220.0103 H   0  0  0  0  0  0  0  0  0  0  0  0
  138.9679   65.5177  221.8586 H   0  0  0  0  0  0  0  0  0  0  0  0
  137.9433   67.0485  223.4571 H   0  0  0  0  0  0  0  0  0  0  0  0
  137.7027   75.9174  220.4826 H   0  0  0  0  0  0  0  0  0  0  0  0
  136.9576   75.7663  222.0518 H   0  0  0  0  0  0  0  0  0  0  0  0
  138.9313   77.3819  222.2631 H   0  0  0  0  0  0  0  0  0  0  0  0
  139.4074   75.9240  223.1199 H   0  0  0  0  0  0  0  0  0  0  0  0
  1  2  1  0
  2  3  1  0
  3  4  2  0
  3  5  1  0
  5  6  1  0
  6  7  2  0
  7  8  1  0
  8  9  2  0
  9 10  1  0
 10 11  2  0
  5 12  1  0
 12 13  1  0
 13 14  1  0
 14 15  1  0
 15 16  1  0
 16 17  2  0
 16 18  1  0
 18 19  1  0
 19 20  1  0
 19 21  1  0
 21 22  1  0
 22 23  2  0
 23 24  1  0
 24 25  2  0
 25 26  1  0
 26 27  2  0
 21 28  1  0
 28 29  2  0
 29 30  1  0
 30 31  2  0
 31 32  1  0
 32 33  2  0
 15 34  1  0
 34 35  1  0
 11  6  1  0
 35 12  1  0
 27 22  1  0
 33 28  1  0
  1 36  1  0
  1 37  1  0
  1 38  1  0
  2 39  1  0
  2 40  1  0
  7 41  1  0
  8 42  1  0
  9 43  1  0
 10 44  1  0
 11 45  1  0
 12 46  1  0
 13 47  1  0
 13 48  1  0
 14 49  1  0
 14 50  1  0
 18 51  1  0
 18 52  1  0
 19 53  1  6
 20 54  1  0
 20 55  1  0
 21 56  1  0
 23 57  1  0
 24 58  1  0
 25 59  1  0
 26 60  1  0
 27 61  1  0
 29 62  1  0
 30 63  1  0
 31 64  1  0
 32 65  1  0
 33 66  1  0
 34 67  1  0
 34 68  1  0
 35 69  1  0
 35 70  1  0
M  END
>  <smiles>  (15) 
CCC(=O)N(c1ccccc1)C1CCN(C(=O)CC(N)C(c2ccccc2)c2ccccc2)CC1

>  <score_type>  (15) 
oracle

>  <origin>  (15) 
autodockgpu

>  <m_score__min__energy>  (15) 
-8.6799999999999997

>  <m_primary>  (15) 
energy

>  <rmsd>  (15) 
2.5140135579420977

>  <m_score__min__rmsd>  (15) 
2.5140135579420977

>  <meeko>  (15) 
{"free_energy": -7.56, "intermolecular_energy": -10.54, "internal_energy": -2.97, "cluster_size": 1, "cluster_id": 3, "rank_in_cluster": 1}

>  <energy>  (15) 
-8.46

>  <cluster_rmsd>  (15) 
1.16

>  <cluster>  (15) 
1

$$$$

     RDKit          3D

 70 73  0  0  0  0  0  0  0  0999 V2000
  146.3260   73.1410  221.6200 C   0  0  0  0  0  0  0  0  0  0  0  0
  145.7120   73.7890  220.4330 C   0  0  0  0  0  0  0  0  0  0  0  0
  145.3670   72.8760  219.3200 C   0  0  0  0  0  0  0  0  0  0  0  0
  146.0180   73.0470  218.2570 O   0  0  0  0  0  0  0  0  0  0  0  0
  144.3410   71.8500  219.4430 N   0  0  0  0  0  0  0  0  0  0  0  0
  144.6920   70.4690  219.3850 C   0  0  0  0  0  0  0  0  0  0  0  0
  145.9470   70.0150  219.0400 C   0  0  0  0  0  0  0  0  0  0  0  0
  146.3100   68.6820  219.0200 C   0  0  0  0  0  0  0  0  0  0  0  0
  145.4100   67.7080  219.3550 C   0  0  0  0  0  0  0  0  0  0  0  0
  144.1450   68.1130  219.7070 C   0  0  0  0  0  0  0  0  0  0  0  0
  143.7830   69.4630  219.7250 C   0  0  0  0  0  0  0  0  0  0  0  0
  143.0130   72.3610  219.6140 C   0  0  0  0  0  0  0  0  0  0  0  0
  142.8620   72.9970  220.9700 C   0  0  0  0  0  0  0  0  0  0  0  0
  141.3390   73.0270  221.2160 C   0  0  0  0  0  0  0  0  0  0  0  0
  140.6330   73.6010  220.0870 N   0  0  0  0  0  0  0  0  0  0  0  0
  139.7120   74.7000  220.2380 C   0  0  0  0  0  0  0  0  0  0  0  0
  139.1500   75.1230  219.2060 O   0  0  0  0  0  0  0  0  0  0  0  0
  139.5260   75.2180  221.6030 C   0  0  0  0  0  0  0  0  0  0  0  0
  139.7060   76.6880  221.7760 C   0  0  2  0  0  0  0  0  0  0  0  0
  138.9020   77.4260  220.7890 N   0  0  0  0  0  0  0  0  0  0  0  0
  141.1090   77.1640  221.7330 C   0  0  0  0  0  0  0  0  0  0  0  0
  141.2230   78.4560  222.4800 C   0  0  0  0  0  0  0  0  0  0  0  0
  142.4220   79.1630  222.5430 C   0  0  0  0  0  0  0  0  0  0  0  0
  142.5820   80.3420  223.1950 C   0  0  0  0  0  0  0  0  0  0  0  0
  141.4850   80.8900  223.8460 C   0  0  0  0  0  0  0  0  0  0  0  0
  140.2730   80.2440  223.8220 C   0  0  0  0  0  0  0  0  0  0  0  0
  140.1570   79.0320  223.1370 C   0  0  0  0  0  0  0  0  0  0  0  0
  141.7350   77.2580  220.4110 C   0  0  0  0  0  0  0  0  0  0  0  0
  141.4520   78.2200  219.4660 C   0  0  0  0  0  0  0  0  0  0  0  0
  142.0810   78.2610  218.2280 C   0  0  0  0  0  0  0  0  0  0  0  0
  143.0360   77.3110  217.9040 C   0  0  0  0  0  0  0  0  0  0  0  0
  143.3400   76.3260  218.8440 C   0  0  0  0  0  0  0  0  0  0  0  0
  142.7000   76.3190  220.0500 C   0  0  0  0  0  0  0  0  0  0  0  0
  140.8840   73.0390  218.7440 C   0  0  0  0  0  0  0  0  0  0  0  0
  142.4280   73.2510  218.5890 C   0  0  0  0  0  0  0  0  0  0  0  0
  145.9075   73.5827  222.5364 H   0  0  0  0  0  0  0  0  0  0  0  0
  146.1107   72.0624  221.6014 H   0  0  0  0  0  0  0  0  0  0  0  0
  147.4146   73.2979  221.6014 H   0  0  0  0  0  0  0  0  0  0  0  0
  144.7890   74.2906  220.7593 H   0  0  0  0  0  0  0  0  0  0  0  0
  146.4721   74.4780  220.0360 H   0  0  0  0  0  0  0  0  0  0  0  0
  146.7070   70.7606  218.7633 H   0  0  0  0  0  0  0  0  0  0  0  0
  147.3337   68.4011  218.7316 H   0  0  0  0  0  0  0  0  0  0  0  0
  145.6876   66.6437  219.3431 H   0  0  0  0  0  0  0  0  0  0  0  0
  143.3972   67.3546  219.9820 H   0  0  0  0  0  0  0  0  0  0  0  0
  142.7584   69.7403  220.0136 H   0  0  0  0  0  0  0  0  0  0  0  0
  142.4207   71.4420  219.4929 H   0  0  0  0  0  0  0  0  0  0  0  0
  143.3683   72.3960  221.7397 H   0  0  0  0  0  0  0  0  0  0  0  0
  143.3123   73.9996  221.0139 H   0  0  0  0  0  0  0  0  0  0  0  0
  140.9819   71.9991  221.3766 H   0  0  0  0  0  0  0  0  0  0  0  0
  141.1430   73.6505  222.1008 H   0  0  0  0  0  0  0  0  0  0  0  0
  138.5045   74.9644  221.9226 H   0  0  0  0  0  0  0  0  0  0  0  0
  140.3169   74.7499  222.2074 H   0  0  0  0  0  0  0  0  0  0  0  0
  139.3557   76.8925  222.7985 H   0  0  0  0  0  0  0  0  0  0  0  0
  138.9930   77.0110  219.8340 H   0  0  0  0  0  0  0  0  0  0  0  0
  139.2440   78.4150  220.7220 H   0  0  0  0  0  0  0  0  0  0  0  0
  141.6903   76.3691  222.2232 H   0  0  0  0  0  0  0  0  0  0  0  0
  143.2969   78.7370  222.0301 H   0  0  0  0  0  0  0  0  0  0  0  0
  143.5570   80.8512  223.2075 H   0  0  0  0  0  0  0  0  0  0  0  0
  141.5868   81.8447  224.3828 H   0  0  0  0  0  0  0  0  0  0  0  0
  139.4026   80.6766  224.3370 H   0  0  0  0  0  0  0  0  0  0  0  0
  139.1832   78.5207  223.1214 H   0  0  0  0  0  0  0  0  0  0  0  0
  140.6982   78.9858  219.7011 H   0  0  0  0  0  0  0  0  0  0  0  0
  141.8207   79.0479  217.5048 H   0  0  0  0  0  0  0  0  0  0  0  0
  143.5429   77.3329  216.9280 H   0  0  0  0  0  0  0  0  0  0  0  0
  144.0928   75.5575  218.6143 H   0  0  0  0  0  0  0  0  0  0  0  0
  142.9591   75.5322  220.7738 H   0  0  0  0  0  0  0  0  0  0  0  0
  140.6203   71.9719  218.7011 H   0  0  0  0  0  0  0  0  0  0  0  0
  140.2885   73.5085  217.9471 H   0  0  0  0  0  0  0  0  0  0  0  0
  142.7637   72.9622  217.5821 H   0  0  0  0  0  0  0  0  0  0  0  0
  142.7273   74.3016  218.7182 H   0  0  0  0  0  0  0  0  0  0  0  0
  1  2  1  0
  2  3  1  0
  3  4  2  0
  3  5  1  0
  5  6  1  0
  6  7  2  0
  7  8  1  0
  8  9  2  0
  9 10  1  0
 10 11  2  0
  5 12  1  0
 12 13  1  0
 13 14  1  0
 14 15  1  0
 15 16  1  0
 16 17  2  0
 16 18  1  0
 18 19  1  0
 19 20  1  0
 19 21  1  0
 21 22  1  0
 22 23  2  0
 23 24  1  0
 24 25  2  0
 25 26  1  0
 26 27  2  0
 21 28  1  0
 28 29  2  0
 29 30  1  0
 30 31  2  0
 31 32  1  0
 32 33  2  0
 15 34  1  0
 34 35  1  0
 11  6  1  0
 35 12  1  0
 27 22  1  0
 33 28  1  0
  1 36  1  0
  1 37  1  0
  1 38  1  0
  2 39  1  0
  2 40  1  0
  7 41  1  0
  8 42  1  0
  9 43  1  0
 10 44  1  0
 11 45  1  0
 12 46  1  0
 13 47  1  0
 13 48  1  0
 14 49  1  0
 14 50  1  0
 18 51  1  0
 18 52  1  0
 19 53  1  1
 20 54  1  0
 20 55  1  0
 21 56  1  0
 23 57  1  0
 24 58  1  0
 25 59  1  0
 26 60  1  0
 27 61  1  0
 29 62  1  0
 30 63  1  0
 31 64  1  0
 32 65  1  0
 33 66  1  0
 34 67  1  0
 34 68  1  0
 35 69  1  0
 35 70  1  0
M  END
>  <smiles>  (16) 
CCC(=O)N(c1ccccc1)C1CCN(C(=O)CC(N)C(c2ccccc2)c2ccccc2)CC1

>  <score_type>  (16) 
oracle

>  <origin>  (16) 
autodockgpu

>  <m_score__min__energy>  (16) 
-8.6799999999999997

>  <m_primary>  (16) 
energy

>  <rmsd>  (16) 
8.311882159504224

>  <m_score__min__rmsd>  (16) 
8.311882159504224

>  <meeko>  (16) 
{"free_energy": -7.86, "intermolecular_energy": -10.84, "internal_energy": -3.68, "cluster_size": 12, "cluster_id": 2, "rank_in_cluster": 4}

>  <energy>  (16) 
-8.45

>  <cluster_rmsd>  (16) 
0.8

>  <cluster>  (16) 
1

$$$$

     RDKit          3D

 70 73  0  0  0  0  0  0  0  0999 V2000
  138.4800   67.7170  222.4990 C   0  0  0  0  0  0  0  0  0  0  0  0
  137.3210   68.6280  222.6810 C   0  0  0  0  0  0  0  0  0  0  0  0
  137.5150   69.7100  223.6730 C   0  0  0  0  0  0  0  0  0  0  0  0
  136.4640   70.1550  224.2030 O   0  0  0  0  0  0  0  0  0  0  0  0
  138.8330   70.2290  224.0110 N   0  0  0  0  0  0  0  0  0  0  0  0
  139.4400   69.8960  225.2580 C   0  0  0  0  0  0  0  0  0  0  0  0
  139.6050   68.6030  225.7050 C   0  0  0  0  0  0  0  0  0  0  0  0
  140.2290   68.2670  226.8910 C   0  0  0  0  0  0  0  0  0  0  0  0
  140.7340   69.2360  227.7130 C   0  0  0  0  0  0  0  0  0  0  0  0
  140.5940   70.5410  227.3090 C   0  0  0  0  0  0  0  0  0  0  0  0
  139.9620   70.8750  226.1080 C   0  0  0  0  0  0  0  0  0  0  0  0
  139.4120   71.0690  223.0050 C   0  0  0  0  0  0  0  0  0  0  0  0
  138.5340   72.2640  222.7440 C   0  0  0  0  0  0  0  0  0  0  0  0
  138.9750   72.7720  221.3560 C   0  0  0  0  0  0  0  0  0  0  0  0
  140.4150   72.9280  221.2840 N   0  0  0  0  0  0  0  0  0  0  0  0
  141.0310   74.1650  220.8710 C   0  0  0  0  0  0  0  0  0  0  0  0
  142.2800   74.1990  220.8380 O   0  0  0  0  0  0  0  0  0  0  0  0
  140.1230   75.2710  220.5320 C   0  0  0  0  0  0  0  0  0  0  0  0
  140.6590   76.6460  220.7350 C   0  0  2  0  0  0  0  0  0  0  0  0
  142.0810   76.7060  220.3630 N   0  0  0  0  0  0  0  0  0  0  0  0
  140.4760   77.2030  222.0970 C   0  0  0  0  0  0  0  0  0  0  0  0
  139.0150   77.2880  222.4110 C   0  0  0  0  0  0  0  0  0  0  0  0
  138.3310   78.5020  222.3880 C   0  0  0  0  0  0  0  0  0  0  0  0
  137.0070   78.6390  222.6530 C   0  0  0  0  0  0  0  0  0  0  0  0
  136.2760   77.5010  222.9680 C   0  0  0  0  0  0  0  0  0  0  0  0
  136.8910   76.2740  223.0090 C   0  0  0  0  0  0  0  0  0  0  0  0
  138.2560   76.1820  222.7280 C   0  0  0  0  0  0  0  0  0  0  0  0
  141.1580   78.4660  222.3920 C   0  0  0  0  0  0  0  0  0  0  0  0
  141.4330   79.4530  221.4720 C   0  0  0  0  0  0  0  0  0  0  0  0
  142.0800   80.6340  221.8100 C   0  0  0  0  0  0  0  0  0  0  0  0
  142.4750   80.8560  223.1200 C   0  0  0  0  0  0  0  0  0  0  0  0
  142.2080   79.8720  224.0720 C   0  0  0  0  0  0  0  0  0  0  0  0
  141.5700   78.7240  223.6990 C   0  0  0  0  0  0  0  0  0  0  0  0
  141.2640   71.7780  221.6570 C   0  0  0  0  0  0  0  0  0  0  0  0
  140.8160   71.5130  223.1340 C   0  0  0  0  0  0  0  0  0  0  0  0
  138.8660   67.4136  223.4833 H   0  0  0  0  0  0  0  0  0  0  0  0
  138.1611   66.8253  221.9394 H   0  0  0  0  0  0  0  0  0  0  0  0
  139.2712   68.2375  221.9394 H   0  0  0  0  0  0  0  0  0  0  0  0
  137.0992   69.0937  221.7094 H   0  0  0  0  0  0  0  0  0  0  0  0
  136.5022   68.0040  223.0684 H   0  0  0  0  0  0  0  0  0  0  0  0
  139.2155   67.7872  225.0783 H   0  0  0  0  0  0  0  0  0  0  0  0
  140.3205   67.2088  227.1770 H   0  0  0  0  0  0  0  0  0  0  0  0
  141.2323   68.9805  228.6598 H   0  0  0  0  0  0  0  0  0  0  0  0
  140.9897   71.3446  227.9475 H   0  0  0  0  0  0  0  0  0  0  0  0
  139.8733   71.9342  225.8248 H   0  0  0  0  0  0  0  0  0  0  0  0
  139.4635   70.3701  222.1571 H   0  0  0  0  0  0  0  0  0  0  0  0
  137.4735   71.9720  222.7322 H   0  0  0  0  0  0  0  0  0  0  0  0
  138.6343   73.0346  223.5225 H   0  0  0  0  0  0  0  0  0  0  0  0
  138.6544   72.0489  220.5915 H   0  0  0  0  0  0  0  0  0  0  0  0
  138.5107   73.7540  221.1826 H   0  0  0  0  0  0  0  0  0  0  0  0
  139.8517   75.1696  219.4708 H   0  0  0  0  0  0  0  0  0  0  0  0
  139.2747   75.1796  221.2263 H   0  0  0  0  0  0  0  0  0  0  0  0
  140.0532   77.2808  220.0716 H   0  0  0  0  0  0  0  0  0  0  0  0
  142.2970   76.0590  219.5700 H   0  0  0  0  0  0  0  0  0  0  0  0
  142.6730   76.3980  221.1730 H   0  0  0  0  0  0  0  0  0  0  0  0
  140.9843   76.4902  222.7630 H   0  0  0  0  0  0  0  0  0  0  0  0
  138.9017   79.4087  222.1387 H   0  0  0  0  0  0  0  0  0  0  0  0
  136.5248   79.6271  222.6191 H   0  0  0  0  0  0  0  0  0  0  0  0
  135.2008   77.5828  223.1854 H   0  0  0  0  0  0  0  0  0  0  0  0
  136.3140   75.3720  223.2608 H   0  0  0  0  0  0  0  0  0  0  0  0
  138.7409   75.1952  222.7607 H   0  0  0  0  0  0  0  0  0  0  0  0
  141.1275   79.2995  220.4265 H   0  0  0  0  0  0  0  0  0  0  0  0
  142.2790   81.3928  221.0389 H   0  0  0  0  0  0  0  0  0  0  0  0
  142.9876   81.7874  223.4025 H   0  0  0  0  0  0  0  0  0  0  0  0
  142.5103   80.0204  225.1192 H   0  0  0  0  0  0  0  0  0  0  0  0
  141.3708   77.9638  224.4687 H   0  0  0  0  0  0  0  0  0  0  0  0
  141.0631   70.9074  221.0154 H   0  0  0  0  0  0  0  0  0  0  0  0
  142.3421   71.9663  221.5460 H   0  0  0  0  0  0  0  0  0  0  0  0
  141.4337   70.7286  223.5957 H   0  0  0  0  0  0  0  0  0  0  0  0
  140.9233   72.4000  223.7757 H   0  0  0  0  0  0  0  0  0  0  0  0
  1  2  1  0
  2  3  1  0
  3  4  2  0
  3  5  1  0
  5  6  1  0
  6  7  2  0
  7  8  1  0
  8  9  2  0
  9 10  1  0
 10 11  2  0
  5 12  1  0
 12 13  1  0
 13 14  1  0
 14 15  1  0
 15 16  1  0
 16 17  2  0
 16 18  1  0
 18 19  1  0
 19 20  1  0
 19 21  1  0
 21 22  1  0
 22 23  2  0
 23 24  1  0
 24 25  2  0
 25 26  1  0
 26 27  2  0
 21 28  1  0
 28 29  2  0
 29 30  1  0
 30 31  2  0
 31 32  1  0
 32 33  2  0
 15 34  1  0
 34 35  1  0
 11  6  1  0
 35 12  1  0
 27 22  1  0
 33 28  1  0
  1 36  1  0
  1 37  1  0
  1 38  1  0
  2 39  1  0
  2 40  1  0
  7 41  1  0
  8 42  1  0
  9 43  1  0
 10 44  1  0
 11 45  1  0
 12 46  1  0
 13 47  1  0
 13 48  1  0
 14 49  1  0
 14 50  1  0
 18 51  1  0
 18 52  1  0
 19 53  1  6
 20 54  1  0
 20 55  1  0
 21 56  1  0
 23 57  1  0
 24 58  1  0
 25 59  1  0
 26 60  1  0
 27 61  1  0
 29 62  1  0
 30 63  1  0
 31 64  1  0
 32 65  1  0
 33 66  1  0
 34 67  1  0
 34 68  1  0
 35 69  1  0
 35 70  1  0
M  END
>  <smiles>  (17) 
CCC(=O)N(c1ccccc1)C1CCN(C(=O)CC(N)C(c2ccccc2)c2ccccc2)CC1

>  <score_type>  (17) 
oracle

>  <origin>  (17) 
autodockgpu

>  <m_score__min__energy>  (17) 
-8.6799999999999997

>  <m_primary>  (17) 
energy

>  <rmsd>  (17) 
7.441811317840453

>  <m_score__min__rmsd>  (17) 
7.441811317840453

>  <meeko>  (17) 
{"free_energy": -8.32, "intermolecular_energy": -11.3, "internal_energy": -3.26, "cluster_size": 36, "cluster_id": 1, "rank_in_cluster": 27}

>  <energy>  (17) 
-8.42

>  <cluster_rmsd>  (17) 
0.81

>  <cluster>  (17) 
1

$$$$

     RDKit          3D

 70 73  0  0  0  0  0  0  0  0999 V2000
  136.0620   69.9170  224.5820 C   0  0  0  0  0  0  0  0  0  0  0  0
  136.7840   69.6100  223.3210 C   0  0  0  0  0  0  0  0  0  0  0  0
  138.2210   69.2860  223.4760 C   0  0  0  0  0  0  0  0  0  0  0  0
  138.5360   68.0910  223.2420 O   0  0  0  0  0  0  0  0  0  0  0  0
  139.2040   70.2830  223.8770 N   0  0  0  0  0  0  0  0  0  0  0  0
  139.6380   70.3620  225.2340 C   0  0  0  0  0  0  0  0  0  0  0  0
  139.4330   69.3620  226.1590 C   0  0  0  0  0  0  0  0  0  0  0  0
  139.8850   69.4090  227.4640 C   0  0  0  0  0  0  0  0  0  0  0  0
  140.5850   70.4910  227.9220 C   0  0  0  0  0  0  0  0  0  0  0  0
  140.8140   71.5140  227.0340 C   0  0  0  0  0  0  0  0  0  0  0  0
  140.3550   71.4610  225.7150 C   0  0  0  0  0  0  0  0  0  0  0  0
  139.6540   71.1300  222.8130 C   0  0  0  0  0  0  0  0  0  0  0  0
  138.8010   72.3670  222.7240 C   0  0  0  0  0  0  0  0  0  0  0  0
  139.0390   72.9000  221.2970 C   0  0  0  0  0  0  0  0  0  0  0  0
  140.4550   72.9990  220.9990 N   0  0  0  0  0  0  0  0  0  0  0  0
  141.0540   74.2210  220.5230 C   0  0  0  0  0  0  0  0  0  0  0  0
  142.2810   74.2050  220.2910 O   0  0  0  0  0  0  0  0  0  0  0  0
  140.1540   75.3740  220.3600 C   0  0  0  0  0  0  0  0  0  0  0  0
  140.7260   76.7070  220.7060 C   0  0  2  0  0  0  0  0  0  0  0  0
  142.1560   76.7580  220.3650 N   0  0  0  0  0  0  0  0  0  0  0  0
  140.5310   77.1340  222.1120 C   0  0  0  0  0  0  0  0  0  0  0  0
  139.0700   77.1620  222.4300 C   0  0  0  0  0  0  0  0  0  0  0  0
  138.3400   78.3490  222.4180 C   0  0  0  0  0  0  0  0  0  0  0  0
  137.0120   78.4340  222.6870 C   0  0  0  0  0  0  0  0  0  0  0  0
  136.3260   77.2670  222.9950 C   0  0  0  0  0  0  0  0  0  0  0  0
  136.9860   76.0640  223.0240 C   0  0  0  0  0  0  0  0  0  0  0  0
  138.3530   76.0260  222.7400 C   0  0  0  0  0  0  0  0  0  0  0  0
  141.1880   78.3790  222.5210 C   0  0  0  0  0  0  0  0  0  0  0  0
  141.6500   78.6520  223.7890 C   0  0  0  0  0  0  0  0  0  0  0  0
  142.2700   79.8510  224.1180 C   0  0  0  0  0  0  0  0  0  0  0  0
  142.4440   80.8290  223.1520 C   0  0  0  0  0  0  0  0  0  0  0  0
  141.9850   80.5760  221.8590 C   0  0  0  0  0  0  0  0  0  0  0  0
  141.3810   79.3850  221.5750 C   0  0  0  0  0  0  0  0  0  0  0  0
  141.2990   71.8040  221.2040 C   0  0  0  0  0  0  0  0  0  0  0  0
  141.0790   71.5120  222.7260 C   0  0  0  0  0  0  0  0  0  0  0  0
  136.6941   69.6482  225.4412 H   0  0  0  0  0  0  0  0  0  0  0  0
  135.8300   70.9916  224.6194 H   0  0  0  0  0  0  0  0  0  0  0  0
  135.1271   69.3386  224.6194 H   0  0  0  0  0  0  0  0  0  0  0  0
  136.2905   68.7480  222.8483 H   0  0  0  0  0  0  0  0  0  0  0  0
  136.7431   70.5280  222.7164 H   0  0  0  0  0  0  0  0  0  0  0  0
  138.8745   68.4701  225.8387 H   0  0  0  0  0  0  0  0  0  0  0  0
  139.6796   68.5672  228.1417 H   0  0  0  0  0  0  0  0  0  0  0  0
  140.9497   70.5401  228.9586 H   0  0  0  0  0  0  0  0  0  0  0  0
  141.3739   72.3990  227.3704 H   0  0  0  0  0  0  0  0  0  0  0  0
  140.5629   72.3040  225.0396 H   0  0  0  0  0  0  0  0  0  0  0  0
  139.5390   70.4557  221.9515 H   0  0  0  0  0  0  0  0  0  0  0  0
  137.7399   72.1189  222.8742 H   0  0  0  0  0  0  0  0  0  0  0  0
  139.0583   73.1082  223.4950 H   0  0  0  0  0  0  0  0  0  0  0  0
  138.5684   72.2154  220.5760 H   0  0  0  0  0  0  0  0  0  0  0  0
  138.5986   73.9054  221.2248 H   0  0  0  0  0  0  0  0  0  0  0  0
  139.8376   75.4071  219.3070 H   0  0  0  0  0  0  0  0  0  0  0  0
  139.3327   75.2108  221.0733 H   0  0  0  0  0  0  0  0  0  0  0  0
  140.1531   77.4230  220.0984 H   0  0  0  0  0  0  0  0  0  0  0  0
  142.3510   76.2720  219.4600 H   0  0  0  0  0  0  0  0  0  0  0  0
  142.7130   76.2600  221.1010 H   0  0  0  0  0  0  0  0  0  0  0  0
  141.0522   76.3731  222.7115 H   0  0  0  0  0  0  0  0  0  0  0  0
  138.8752   79.2786  222.1745 H   0  0  0  0  0  0  0  0  0  0  0  0
  136.4925   79.4033  222.6615 H   0  0  0  0  0  0  0  0  0  0  0  0
  135.2493   77.3067  223.2167 H   0  0  0  0  0  0  0  0  0  0  0  0
  136.4436   75.1388  223.2685 H   0  0  0  0  0  0  0  0  0  0  0  0
  138.8747   75.0579  222.7645 H   0  0  0  0  0  0  0  0  0  0  0  0
  141.5232   77.8906  224.5727 H   0  0  0  0  0  0  0  0  0  0  0  0
  142.6228   80.0239  225.1454 H   0  0  0  0  0  0  0  0  0  0  0  0
  142.9328   81.7830  223.3989 H   0  0  0  0  0  0  0  0  0  0  0  0
  142.1093   81.3335  221.0711 H   0  0  0  0  0  0  0  0  0  0  0  0
  141.0287   79.2102  220.5477 H   0  0  0  0  0  0  0  0  0  0  0  0
  140.9596   70.9627  220.5819 H   0  0  0  0  0  0  0  0  0  0  0  0
  142.3533   71.9512  220.9271 H   0  0  0  0  0  0  0  0  0  0  0  0
  141.7260   70.6891  223.0640 H   0  0  0  0  0  0  0  0  0  0  0  0
  141.3265   72.3739  223.3631 H   0  0  0  0  0  0  0  0  0  0  0  0
  1  2  1  0
  2  3  1  0
  3  4  2  0
  3  5  1  0
  5  6  1  0
  6  7  2  0
  7  8  1  0
  8  9  2  0
  9 10  1  0
 10 11  2  0
  5 12  1  0
 12 13  1  0
 13 14  1  0
 14 15  1  0
 15 16  1  0
 16 17  2  0
 16 18  1  0
 18 19  1  0
 19 20  1  0
 19 21  1  0
 21 22  1  0
 22 23  2  0
 23 24  1  0
 24 25  2  0
 25 26  1  0
 26 27  2  0
 21 28  1  0
 28 29  2  0
 29 30  1  0
 30 31  2  0
 31 32  1  0
 32 33  2  0
 15 34  1  0
 34 35  1  0
 11  6  1  0
 35 12  1  0
 27 22  1  0
 33 28  1  0
  1 36  1  0
  1 37  1  0
  1 38  1  0
  2 39  1  0
  2 40  1  0
  7 41  1  0
  8 42  1  0
  9 43  1  0
 10 44  1  0
 11 45  1  0
 12 46  1  0
 13 47  1  0
 13 48  1  0
 14 49  1  0
 14 50  1  0
 18 51  1  0
 18 52  1  0
 19 53  1  6
 20 54  1  0
 20 55  1  0
 21 56  1  0
 23 57  1  0
 24 58  1  0
 25 59  1  0
 26 60  1  0
 27 61  1  0
 29 62  1  0
 30 63  1  0
 31 64  1  0
 32 65  1  0
 33 66  1  0
 34 67  1  0
 34 68  1  0
 35 69  1  0
 35 70  1  0
M  END
>  <smiles>  (18) 
CCC(=O)N(c1ccccc1)C1CCN(C(=O)CC(N)C(c2ccccc2)c2ccccc2)CC1

>  <score_type>  (18) 
oracle

>  <origin>  (18) 
autodockgpu

>  <m_score__min__energy>  (18) 
-8.6799999999999997

>  <m_primary>  (18) 
energy

>  <rmsd>  (18) 
7.361780600948155

>  <m_score__min__rmsd>  (18) 
7.361780600948155

>  <meeko>  (18) 
{"free_energy": -8.23, "intermolecular_energy": -11.21, "internal_energy": -3.32, "cluster_size": 36, "cluster_id": 1, "rank_in_cluster": 33}

>  <energy>  (18) 
-8.41

>  <cluster_rmsd>  (18) 
1.2

>  <cluster>  (18) 
1

$$$$

     RDKit          3D

 70 73  0  0  0  0  0  0  0  0999 V2000
  135.9610   72.0270  223.8640 C   0  0  0  0  0  0  0  0  0  0  0  0
  136.5040   70.6710  224.1360 C   0  0  0  0  0  0  0  0  0  0  0  0
  137.6940   70.2940  223.3410 C   0  0  0  0  0  0  0  0  0  0  0  0
  137.4790   69.5040  222.3850 O   0  0  0  0  0  0  0  0  0  0  0  0
  139.0260   70.7990  223.6450 N   0  0  0  0  0  0  0  0  0  0  0  0
  139.6240   70.5350  224.9120 C   0  0  0  0  0  0  0  0  0  0  0  0
  140.2900   71.4880  225.6540 C   0  0  0  0  0  0  0  0  0  0  0  0
  140.8370   71.2550  226.9010 C   0  0  0  0  0  0  0  0  0  0  0  0
  140.7430   70.0220  227.4860 C   0  0  0  0  0  0  0  0  0  0  0  0
  140.0870   69.0410  226.7840 C   0  0  0  0  0  0  0  0  0  0  0  0
  139.5350   69.2810  225.5230 C   0  0  0  0  0  0  0  0  0  0  0  0
  139.6270   71.5530  222.5850 C   0  0  0  0  0  0  0  0  0  0  0  0
  138.8640   72.8280  222.3450 C   0  0  0  0  0  0  0  0  0  0  0  0
  139.2700   73.2590  220.9210 C   0  0  0  0  0  0  0  0  0  0  0  0
  140.7110   73.2610  220.7600 N   0  0  0  0  0  0  0  0  0  0  0  0
  141.4270   74.4170  220.2800 C   0  0  0  0  0  0  0  0  0  0  0  0
  142.6680   74.3180  220.1720 O   0  0  0  0  0  0  0  0  0  0  0  0
  140.6190   75.6060  219.9650 C   0  0  0  0  0  0  0  0  0  0  0  0
  141.1660   76.9120  220.4320 C   0  0  2  0  0  0  0  0  0  0  0  0
  142.6110   76.9900  220.1700 N   0  0  0  0  0  0  0  0  0  0  0  0
  140.8970   77.2390  221.8530 C   0  0  0  0  0  0  0  0  0  0  0  0
  139.4260   77.1660  222.1150 C   0  0  0  0  0  0  0  0  0  0  0  0
  138.5650   78.2000  221.7540 C   0  0  0  0  0  0  0  0  0  0  0  0
  137.2230   78.1850  221.9560 C   0  0  0  0  0  0  0  0  0  0  0  0
  136.6600   77.0700  222.5610 C   0  0  0  0  0  0  0  0  0  0  0  0
  137.4530   76.0160  222.9420 C   0  0  0  0  0  0  0  0  0  0  0  0
  138.8290   76.0760  222.7130 C   0  0  0  0  0  0  0  0  0  0  0  0
  141.4660   78.4910  222.3620 C   0  0  0  0  0  0  0  0  0  0  0  0
  141.8550   78.7130  223.6640 C   0  0  0  0  0  0  0  0  0  0  0  0
  142.3930   79.9210  224.0890 C   0  0  0  0  0  0  0  0  0  0  0  0
  142.5560   80.9620  223.1880 C   0  0  0  0  0  0  0  0  0  0  0  0
  142.1690   80.7610  221.8630 C   0  0  0  0  0  0  0  0  0  0  0  0
  141.6450   79.5590  221.4840 C   0  0  0  0  0  0  0  0  0  0  0  0
  141.4560   72.0350  221.1130 C   0  0  0  0  0  0  0  0  0  0  0  0
  141.0750   71.8490  222.6200 C   0  0  0  0  0  0  0  0  0  0  0  0
  135.7564   72.5379  224.8164 H   0  0  0  0  0  0  0  0  0  0  0  0
  136.6961   72.6074  223.2871 H   0  0  0  0  0  0  0  0  0  0  0  0
  135.0285   71.9396  223.2871 H   0  0  0  0  0  0  0  0  0  0  0  0
  136.7771   70.6217  225.2004 H   0  0  0  0  0  0  0  0  0  0  0  0
  135.7115   69.9636  223.8505 H   0  0  0  0  0  0  0  0  0  0  0  0
  140.3919   72.4963  225.2263 H   0  0  0  0  0  0  0  0  0  0  0  0
  141.3538   72.0698  227.4293 H   0  0  0  0  0  0  0  0  0  0  0  0
  141.1752   69.8245  228.4781 H   0  0  0  0  0  0  0  0  0  0  0  0
  139.9935   68.0383  227.2266 H   0  0  0  0  0  0  0  0  0  0  0  0
  139.0182   68.4637  224.9987 H   0  0  0  0  0  0  0  0  0  0  0  0
  139.5539   70.8360  221.7540 H   0  0  0  0  0  0  0  0  0  0  0  0
  137.7802   72.6493  222.4029 H   0  0  0  0  0  0  0  0  0  0  0  0
  139.0911   73.5990  223.0960 H   0  0  0  0  0  0  0  0  0  0  0  0
  138.8297   72.5588  220.1958 H   0  0  0  0  0  0  0  0  0  0  0  0
  138.9009   74.2810  220.7500 H   0  0  0  0  0  0  0  0  0  0  0  0
  140.5102   75.6586  218.8717 H   0  0  0  0  0  0  0  0  0  0  0  0
  139.6710   75.4716  220.5065 H   0  0  0  0  0  0  0  0  0  0  0  0
  140.6214   77.6674  219.8464 H   0  0  0  0  0  0  0  0  0  0  0  0
  143.1470   76.3310  220.7810 H   0  0  0  0  0  0  0  0  0  0  0  0
  142.9590   77.9550  220.3910 H   0  0  0  0  0  0  0  0  0  0  0  0
  141.4400   76.4723  222.4251 H   0  0  0  0  0  0  0  0  0  0  0  0
  139.0019   79.0877  221.2732 H   0  0  0  0  0  0  0  0  0  0  0  0
  136.5971   79.0354  221.6478 H   0  0  0  0  0  0  0  0  0  0  0  0
  135.5747   77.0306  222.7359 H   0  0  0  0  0  0  0  0  0  0  0  0
  137.0084   75.1324  223.4232 H   0  0  0  0  0  0  0  0  0  0  0  0
  139.4571   75.2265  223.0194 H   0  0  0  0  0  0  0  0  0  0  0  0
  141.7349   77.9014  224.3968 H   0  0  0  0  0  0  0  0  0  0  0  0
  142.6897   80.0516  225.1402 H   0  0  0  0  0  0  0  0  0  0  0  0
  142.9806   81.9241  223.5105 H   0  0  0  0  0  0  0  0  0  0  0  0
  142.2858   81.5689  221.1257 H   0  0  0  0  0  0  0  0  0  0  0  0
  141.3491   79.4263  220.4329 H   0  0  0  0  0  0  0  0  0  0  0  0
  141.1256   71.1778  220.5080 H   0  0  0  0  0  0  0  0  0  0  0  0
  142.5390   72.1055  220.9336 H   0  0  0  0  0  0  0  0  0  0  0  0
  141.6349   71.0134  223.0653 H   0  0  0  0  0  0  0  0  0  0  0  0
  141.3135   72.7323  223.2307 H   0  0  0  0  0  0  0  0  0  0  0  0
  1  2  1  0
  2  3  1  0
  3  4  2  0
  3  5  1  0
  5  6  1  0
  6  7  2  0
  7  8  1  0
  8  9  2  0
  9 10  1  0
 10 11  2  0
  5 12  1  0
 12 13  1  0
 13 14  1  0
 14 15  1  0
 15 16  1  0
 16 17  2  0
 16 18  1  0
 18 19  1  0
 19 20  1  0
 19 21  1  0
 21 22  1  0
 22 23  2  0
 23 24  1  0
 24 25  2  0
 25 26  1  0
 26 27  2  0
 21 28  1  0
 28 29  2  0
 29 30  1  0
 30 31  2  0
 31 32  1  0
 32 33  2  0
 15 34  1  0
 34 35  1  0
 11  6  1  0
 35 12  1  0
 27 22  1  0
 33 28  1  0
  1 36  1  0
  1 37  1  0
  1 38  1  0
  2 39  1  0
  2 40  1  0
  7 41  1  0
  8 42  1  0
  9 43  1  0
 10 44  1  0
 11 45  1  0
 12 46  1  0
 13 47  1  0
 13 48  1  0
 14 49  1  0
 14 50  1  0
 18 51  1  0
 18 52  1  0
 19 53  1  6
 20 54  1  0
 20 55  1  0
 21 56  1  0
 23 57  1  0
 24 58  1  0
 25 59  1  0
 26 60  1  0
 27 61  1  0
 29 62  1  0
 30 63  1  0
 31 64  1  0
 32 65  1  0
 33 66  1  0
 34 67  1  0
 34 68  1  0
 35 69  1  0
 35 70  1  0
M  END
>  <smiles>  (19) 
CCC(=O)N(c1ccccc1)C1CCN(C(=O)CC(N)C(c2ccccc2)c2ccccc2)CC1

>  <score_type>  (19) 
oracle

>  <origin>  (19) 
autodockgpu

>  <m_score__min__energy>  (19) 
-8.6799999999999997

>  <m_primary>  (19) 
energy

>  <rmsd>  (19) 
7.472858575418321

>  <m_score__min__rmsd>  (19) 
7.472858575418321

>  <meeko>  (19) 
{"free_energy": -8.33, "intermolecular_energy": -11.31, "internal_energy": -3.2, "cluster_size": 36, "cluster_id": 1, "rank_in_cluster": 24}

>  <energy>  (19) 
-8.38

>  <cluster_rmsd>  (19) 
1.3

>  <cluster>  (19) 
1

$$$$

     RDKit          3D

 70 73  0  0  0  0  0  0  0  0999 V2000
  138.4950   67.7100  222.4920 C   0  0  0  0  0  0  0  0  0  0  0  0
  137.3190   68.5930  222.7040 C   0  0  0  0  0  0  0  0  0  0  0  0
  137.5160   69.6860  223.6840 C   0  0  0  0  0  0  0  0  0  0  0  0
  136.4650   70.1430  224.2040 O   0  0  0  0  0  0  0  0  0  0  0  0
  138.8360   70.2010  224.0210 N   0  0  0  0  0  0  0  0  0  0  0  0
  139.4490   69.8530  225.2610 C   0  0  0  0  0  0  0  0  0  0  0  0
  139.6060   68.5540  225.6960 C   0  0  0  0  0  0  0  0  0  0  0  0
  140.2360   68.2030  226.8750 C   0  0  0  0  0  0  0  0  0  0  0  0
  140.7560   69.1610  227.7010 C   0  0  0  0  0  0  0  0  0  0  0  0
  140.6240   70.4700  227.3090 C   0  0  0  0  0  0  0  0  0  0  0  0
  139.9860   70.8200  226.1150 C   0  0  0  0  0  0  0  0  0  0  0  0
  139.4100   71.0530  223.0240 C   0  0  0  0  0  0  0  0  0  0  0  0
  138.5190   72.2400  222.7660 C   0  0  0  0  0  0  0  0  0  0  0  0
  138.9610   72.7610  221.3830 C   0  0  0  0  0  0  0  0  0  0  0  0
  140.3990   72.9340  221.3170 N   0  0  0  0  0  0  0  0  0  0  0  0
  141.0030   74.1800  220.9150 C   0  0  0  0  0  0  0  0  0  0  0  0
  142.2520   74.2280  220.8870 O   0  0  0  0  0  0  0  0  0  0  0  0
  140.0840   75.2780  220.5790 C   0  0  0  0  0  0  0  0  0  0  0  0
  140.6100   76.6580  220.7770 C   0  0  2  0  0  0  0  0  0  0  0  0
  142.0320   76.7270  220.4080 N   0  0  0  0  0  0  0  0  0  0  0  0
  140.4200   77.2190  222.1370 C   0  0  0  0  0  0  0  0  0  0  0  0
  138.9580   77.3080  222.4420 C   0  0  0  0  0  0  0  0  0  0  0  0
  138.2690   78.5180  222.3830 C   0  0  0  0  0  0  0  0  0  0  0  0
  136.9440   78.6570  222.6380 C   0  0  0  0  0  0  0  0  0  0  0  0
  136.2160   77.5270  222.9830 C   0  0  0  0  0  0  0  0  0  0  0  0
  136.8350   76.3030  223.0600 C   0  0  0  0  0  0  0  0  0  0  0  0
  138.2020   76.2090  222.7880 C   0  0  0  0  0  0  0  0  0  0  0  0
  141.1030   78.4820  222.4320 C   0  0  0  0  0  0  0  0  0  0  0  0
  141.3420   79.4860  221.5200 C   0  0  0  0  0  0  0  0  0  0  0  0
  141.9910   80.6660  221.8580 C   0  0  0  0  0  0  0  0  0  0  0  0
  142.4270   80.8690  223.1590 C   0  0  0  0  0  0  0  0  0  0  0  0
  142.1960   79.8670  224.1010 C   0  0  0  0  0  0  0  0  0  0  0  0
  141.5540   78.7210  223.7300 C   0  0  0  0  0  0  0  0  0  0  0  0
  141.2590   71.7910  221.6880 C   0  0  0  0  0  0  0  0  0  0  0  0
  140.8080   71.5130  223.1610 C   0  0  0  0  0  0  0  0  0  0  0  0
  138.9035   67.4032  223.4662 H   0  0  0  0  0  0  0  0  0  0  0  0
  138.1868   66.8183  221.9264 H   0  0  0  0  0  0  0  0  0  0  0  0
  139.2653   68.2547  221.9264 H   0  0  0  0  0  0  0  0  0  0  0  0
  137.0563   69.0469  221.7371 H   0  0  0  0  0  0  0  0  0  0  0  0
  136.5280   67.9513  223.1193 H   0  0  0  0  0  0  0  0  0  0  0  0
  139.2049   67.7469  225.0654 H   0  0  0  0  0  0  0  0  0  0  0  0
  140.3201   67.1418  227.1520 H   0  0  0  0  0  0  0  0  0  0  0  0
  141.2597   68.8934  228.6416 H   0  0  0  0  0  0  0  0  0  0  0  0
  141.0310   71.2648  227.9514 H   0  0  0  0  0  0  0  0  0  0  0  0
  139.9048   71.8823  225.8413 H   0  0  0  0  0  0  0  0  0  0  0  0
  139.4742   70.3589  222.1731 H   0  0  0  0  0  0  0  0  0  0  0  0
  137.4620   71.9360  222.7474 H   0  0  0  0  0  0  0  0  0  0  0  0
  138.6065   73.0070  223.5496 H   0  0  0  0  0  0  0  0  0  0  0  0
  138.6518   72.0388  220.6131 H   0  0  0  0  0  0  0  0  0  0  0  0
  138.4868   73.7391  221.2141 H   0  0  0  0  0  0  0  0  0  0  0  0
  139.8078   75.1726  219.5195 H   0  0  0  0  0  0  0  0  0  0  0  0
  139.2401   75.1808  221.2778 H   0  0  0  0  0  0  0  0  0  0  0  0
  140.0015   77.2856  220.1093 H   0  0  0  0  0  0  0  0  0  0  0  0
  142.2530   76.0810  219.6150 H   0  0  0  0  0  0  0  0  0  0  0  0
  142.6240   76.4210  221.2180 H   0  0  0  0  0  0  0  0  0  0  0  0
  140.9225   76.5069  222.8081 H   0  0  0  0  0  0  0  0  0  0  0  0
  138.8372   79.4199  222.1117 H   0  0  0  0  0  0  0  0  0  0  0  0
  136.4582   79.6418  222.5729 H   0  0  0  0  0  0  0  0  0  0  0  0
  135.1400   77.6116  223.1955 H   0  0  0  0  0  0  0  0  0  0  0  0
  136.2600   75.4059  223.3331 H   0  0  0  0  0  0  0  0  0  0  0  0
  138.6909   75.2257  222.8521 H   0  0  0  0  0  0  0  0  0  0  0  0
  141.0052   79.3475  220.4821 H   0  0  0  0  0  0  0  0  0  0  0  0
  142.1593   81.4396  221.0943 H   0  0  0  0  0  0  0  0  0  0  0  0
  142.9429   81.7986  223.4411 H   0  0  0  0  0  0  0  0  0  0  0  0
  142.5304   79.9998  225.1405 H   0  0  0  0  0  0  0  0  0  0  0  0
  141.3838   77.9471  224.4930 H   0  0  0  0  0  0  0  0  0  0  0  0
  141.0704   70.9217  221.0409 H   0  0  0  0  0  0  0  0  0  0  0  0
  142.3354   71.9919  221.5829 H   0  0  0  0  0  0  0  0  0  0  0  0
  141.4331   70.7336  223.6212 H   0  0  0  0  0  0  0  0  0  0  0  0
  140.9019   72.3979  223.8076 H   0  0  0  0  0  0  0  0  0  0  0  0
  1  2  1  0
  2  3  1  0
  3  4  2  0
  3  5  1  0
  5  6  1  0
  6  7  2  0
  7  8  1  0
  8  9  2  0
  9 10  1  0
 10 11  2  0
  5 12  1  0
 12 13  1  0
 13 14  1  0
 14 15  1  0
 15 16  1  0
 16 17  2  0
 16 18  1  0
 18 19  1  0
 19 20  1  0
 19 21  1  0
 21 22  1  0
 22 23  2  0
 23 24  1  0
 24 25  2  0
 25 26  1  0
 26 27  2  0
 21 28  1  0
 28 29  2  0
 29 30  1  0
 30 31  2  0
 31 32  1  0
 32 33  2  0
 15 34  1  0
 34 35  1  0
 11  6  1  0
 35 12  1  0
 27 22  1  0
 33 28  1  0
  1 36  1  0
  1 37  1  0
  1 38  1  0
  2 39  1  0
  2 40  1  0
  7 41  1  0
  8 42  1  0
  9 43  1  0
 10 44  1  0
 11 45  1  0
 12 46  1  0
 13 47  1  0
 13 48  1  0
 14 49  1  0
 14 50  1  0
 18 51  1  0
 18 52  1  0
 19 53  1  6
 20 54  1  0
 20 55  1  0
 21 56  1  0
 23 57  1  0
 24 58  1  0
 25 59  1  0
 26 60  1  0
 27 61  1  0
 29 62  1  0
 30 63  1  0
 31 64  1  0
 32 65  1  0
 33 66  1  0
 34 67  1  0
 34 68  1  0
 35 69  1  0
 35 70  1  0
M  END
>  <smiles>  (20) 
CCC(=O)N(c1ccccc1)C1CCN(C(=O)CC(N)C(c2ccccc2)c2ccccc2)CC1

>  <score_type>  (20) 
oracle

>  <origin>  (20) 
autodockgpu

>  <m_score__min__energy>  (20) 
-8.6799999999999997

>  <m_primary>  (20) 
energy

>  <rmsd>  (20) 
7.454668317485936

>  <m_score__min__rmsd>  (20) 
7.454668317485936

>  <meeko>  (20) 
{"free_energy": -8.29, "intermolecular_energy": -11.27, "internal_energy": -3.26, "cluster_size": 36, "cluster_id": 1, "rank_in_cluster": 28}

>  <energy>  (20) 
-8.36

>  <cluster_rmsd>  (20) 
0.69

>  <cluster>  (20) 
1

$$$$

     RDKit          3D

 70 73  0  0  0  0  0  0  0  0999 V2000
  145.8830   74.1400  220.8860 C   0  0  0  0  0  0  0  0  0  0  0  0
  146.0200   72.6690  220.7360 C   0  0  0  0  0  0  0  0  0  0  0  0
  145.4890   72.1080  219.4730 C   0  0  0  0  0  0  0  0  0  0  0  0
  145.9190   72.6430  218.4190 O   0  0  0  0  0  0  0  0  0  0  0  0
  144.5290   71.0120  219.4500 N   0  0  0  0  0  0  0  0  0  0  0  0
  144.9710   69.6720  219.2430 C   0  0  0  0  0  0  0  0  0  0  0  0
  144.4700   68.5890  219.9330 C   0  0  0  0  0  0  0  0  0  0  0  0
  144.8600   67.2820  219.7120 C   0  0  0  0  0  0  0  0  0  0  0  0
  145.7980   66.9840  218.7620 C   0  0  0  0  0  0  0  0  0  0  0  0
  146.3260   68.0320  218.0480 C   0  0  0  0  0  0  0  0  0  0  0  0
  145.9280   69.3520  218.2750 C   0  0  0  0  0  0  0  0  0  0  0  0
  143.1680   71.4160  219.6420 C   0  0  0  0  0  0  0  0  0  0  0  0
  142.9980   72.0840  220.9800 C   0  0  0  0  0  0  0  0  0  0  0  0
  141.4850   71.9930  221.2670 C   0  0  0  0  0  0  0  0  0  0  0  0
  140.7040   72.4670  220.1410 N   0  0  0  0  0  0  0  0  0  0  0  0
  139.6970   73.4890  220.2830 C   0  0  0  0  0  0  0  0  0  0  0  0
  139.0750   73.8270  219.2530 O   0  0  0  0  0  0  0  0  0  0  0  0
  139.5030   74.0370  221.6340 C   0  0  0  0  0  0  0  0  0  0  0  0
  139.4260   75.5230  221.7340 C   0  0  2  0  0  0  0  0  0  0  0  0
  138.7760   76.0880  220.5410 N   0  0  0  0  0  0  0  0  0  0  0  0
  140.7180   76.2100  221.9710 C   0  0  0  0  0  0  0  0  0  0  0  0
  140.4680   77.5420  222.6050 C   0  0  0  0  0  0  0  0  0  0  0  0
  139.1950   78.1050  222.6510 C   0  0  0  0  0  0  0  0  0  0  0  0
  138.9070   79.3020  223.2210 C   0  0  0  0  0  0  0  0  0  0  0  0
  139.9420   80.0230  223.8000 C   0  0  0  0  0  0  0  0  0  0  0  0
  141.2220   79.5240  223.7890 C   0  0  0  0  0  0  0  0  0  0  0  0
  141.4700   78.2870  223.1910 C   0  0  0  0  0  0  0  0  0  0  0  0
  141.6230   76.3280  220.8250 C   0  0  0  0  0  0  0  0  0  0  0  0
  142.5210   75.3650  220.4200 C   0  0  0  0  0  0  0  0  0  0  0  0
  143.3530   75.5320  219.3200 C   0  0  0  0  0  0  0  0  0  0  0  0
  143.2980   76.7030  218.5820 C   0  0  0  0  0  0  0  0  0  0  0  0
  142.3970   77.6940  218.9710 C   0  0  0  0  0  0  0  0  0  0  0  0
  141.5960   77.4930  220.0580 C   0  0  0  0  0  0  0  0  0  0  0  0
  140.9680   71.8810  218.8110 C   0  0  0  0  0  0  0  0  0  0  0  0
  142.4830   72.2170  218.6050 C   0  0  0  0  0  0  0  0  0  0  0  0
  145.8589   74.3989  221.9548 H   0  0  0  0  0  0  0  0  0  0  0  0
  146.7386   74.6387  220.4071 H   0  0  0  0  0  0  0  0  0  0  0  0
  144.9500   74.4721  220.4071 H   0  0  0  0  0  0  0  0  0  0  0  0
  147.0898   72.4199  220.7948 H   0  0  0  0  0  0  0  0  0  0  0  0
  145.4180   72.2244  221.5422 H   0  0  0  0  0  0  0  0  0  0  0  0
  143.7124   68.7770  220.7080 H   0  0  0  0  0  0  0  0  0  0  0  0
  144.4114   66.4724  220.3064 H   0  0  0  0  0  0  0  0  0  0  0  0
  146.1165   65.9474  218.5773 H   0  0  0  0  0  0  0  0  0  0  0  0
  147.0827   67.8265  217.2766 H   0  0  0  0  0  0  0  0  0  0  0  0
  146.3783   70.1587  217.6779 H   0  0  0  0  0  0  0  0  0  0  0  0
  142.6531   70.4468  219.5682 H   0  0  0  0  0  0  0  0  0  0  0  0
  143.5732   71.5555  221.7544 H   0  0  0  0  0  0  0  0  0  0  0  0
  143.3621   73.1220  220.9788 H   0  0  0  0  0  0  0  0  0  0  0  0
  141.2215   70.9444  221.4694 H   0  0  0  0  0  0  0  0  0  0  0  0
  141.2587   72.6270  222.1370 H   0  0  0  0  0  0  0  0  0  0  0  0
  138.5646   73.6242  222.0327 H   0  0  0  0  0  0  0  0  0  0  0  0
  140.4000   73.7486  222.2017 H   0  0  0  0  0  0  0  0  0  0  0  0
  138.8222   75.7098  222.6343 H   0  0  0  0  0  0  0  0  0  0  0  0
  137.9220   75.5440  220.2770 H   0  0  0  0  0  0  0  0  0  0  0  0
  139.4300   76.0350  219.7230 H   0  0  0  0  0  0  0  0  0  0  0  0
  141.2701   75.5445  222.6509 H   0  0  0  0  0  0  0  0  0  0  0  0
  138.3678   77.5415  222.1947 H   0  0  0  0  0  0  0  0  0  0  0  0
  137.8783   79.6916  223.2242 H   0  0  0  0  0  0  0  0  0  0  0  0
  139.7369   80.9966  224.2690 H   0  0  0  0  0  0  0  0  0  0  0  0
  142.0439   80.0938  224.2471 H   0  0  0  0  0  0  0  0  0  0  0  0
  142.4974   77.8940  223.1871 H   0  0  0  0  0  0  0  0  0  0  0  0
  142.5817   74.4264  220.9903 H   0  0  0  0  0  0  0  0  0  0  0  0
  144.0552   74.7346  219.0352 H   0  0  0  0  0  0  0  0  0  0  0  0
  143.9506   76.8481  217.7084 H   0  0  0  0  0  0  0  0  0  0  0  0
  142.3320   78.6343  218.4039 H   0  0  0  0  0  0  0  0  0  0  0  0
  140.8937   78.2900  220.3436 H   0  0  0  0  0  0  0  0  0  0  0  0
  140.7956   70.7946  218.8111 H   0  0  0  0  0  0  0  0  0  0  0  0
  140.3144   72.2699  218.0163 H   0  0  0  0  0  0  0  0  0  0  0  0
  142.8162   71.9222  217.5990 H   0  0  0  0  0  0  0  0  0  0  0  0
  142.6948   73.2930  218.6907 H   0  0  0  0  0  0  0  0  0  0  0  0
  1  2  1  0
  2  3  1  0
  3  4  2  0
  3  5  1  0
  5  6  1  0
  6  7  2  0
  7  8  1  0
  8  9  2  0
  9 10  1  0
 10 11  2  0
  5 12  1  0
 12 13  1  0
 13 14  1  0
 14 15  1  0
 15 16  1  0
 16 17  2  0
 16 18  1  0
 18 19  1  0
 19 20  1  0
 19 21  1  0
 21 22  1  0
 22 23  2  0
 23 24  1  0
 24 25  2  0
 25 26  1  0
 26 27  2  0
 21 28  1  0
 28 29  2  0
 29 30  1  0
 30 31  2  0
 31 32  1  0
 32 33  2  0
 15 34  1  0
 34 35  1  0
 11  6  1  0
 35 12  1  0
 27 22  1  0
 33 28  1  0
  1 36  1  0
  1 37  1  0
  1 38  1  0
  2 39  1  0
  2 40  1  0
  7 41  1  0
  8 42  1  0
  9 43  1  0
 10 44  1  0
 11 45  1  0
 12 46  1  0
 13 47  1  0
 13 48  1  0
 14 49  1  0
 14 50  1  0
 18 51  1  0
 18 52  1  0
 19 53  1  1
 20 54  1  0
 20 55  1  0
 21 56  1  0
 23 57  1  0
 24 58  1  0
 25 59  1  0
 26 60  1  0
 27 61  1  0
 29 62  1  0
 30 63  1  0
 31 64  1  0
 32 65  1  0
 33 66  1  0
 34 67  1  0
 34 68  1  0
 35 69  1  0
 35 70  1  0
M  END
>  <smiles>  (21) 
CCC(=O)N(c1ccccc1)C1CCN(C(=O)CC(N)C(c2ccccc2)c2ccccc2)CC1

>  <score_type>  (21) 
oracle

>  <origin>  (21) 
autodockgpu

>  <m_score__min__energy>  (21) 
-8.6799999999999997

>  <m_primary>  (21) 
energy

>  <rmsd>  (21) 
7.639621232474958

>  <m_score__min__rmsd>  (21) 
7.639621232474958

>  <meeko>  (21) 
{"free_energy": -7.43, "intermolecular_energy": -10.41, "internal_energy": -3.93, "cluster_size": 12, "cluster_id": 2, "rank_in_cluster": 11}

>  <energy>  (21) 
-8.36

>  <cluster_rmsd>  (21) 
1.21

>  <cluster>  (21) 
1

$$$$

     RDKit          3D

 70 73  0  0  0  0  0  0  0  0999 V2000
  138.6800   67.4660  222.5520 C   0  0  0  0  0  0  0  0  0  0  0  0
  137.7070   68.5860  222.4870 C   0  0  0  0  0  0  0  0  0  0  0  0
  137.7910   69.5630  223.5960 C   0  0  0  0  0  0  0  0  0  0  0  0
  136.7100   69.8010  224.1930 O   0  0  0  0  0  0  0  0  0  0  0  0
  139.0420   70.2100  223.9710 N   0  0  0  0  0  0  0  0  0  0  0  0
  139.6130   69.9820  225.2580 C   0  0  0  0  0  0  0  0  0  0  0  0
  140.0950   70.9880  226.0670 C   0  0  0  0  0  0  0  0  0  0  0  0
  140.6120   70.7840  227.3320 C   0  0  0  0  0  0  0  0  0  0  0  0
  140.6740   69.5270  227.8670 C   0  0  0  0  0  0  0  0  0  0  0  0
  140.2040   68.4910  227.0970 C   0  0  0  0  0  0  0  0  0  0  0  0
  139.6820   68.7030  225.8180 C   0  0  0  0  0  0  0  0  0  0  0  0
  139.5950   71.0570  222.9570 C   0  0  0  0  0  0  0  0  0  0  0  0
  138.7020   72.2440  222.7140 C   0  0  0  0  0  0  0  0  0  0  0  0
  139.1130   72.7580  221.3190 C   0  0  0  0  0  0  0  0  0  0  0  0
  140.5510   72.9280  221.2220 N   0  0  0  0  0  0  0  0  0  0  0  0
  141.1480   74.1710  220.8010 C   0  0  0  0  0  0  0  0  0  0  0  0
  142.3950   74.2170  220.7450 O   0  0  0  0  0  0  0  0  0  0  0  0
  140.2230   75.2690  220.4800 C   0  0  0  0  0  0  0  0  0  0  0  0
  140.7320   76.6490  220.7260 C   0  0  2  0  0  0  0  0  0  0  0  0
  142.1540   76.7470  220.3600 N   0  0  0  0  0  0  0  0  0  0  0  0
  140.5340   77.1610  222.1030 C   0  0  0  0  0  0  0  0  0  0  0  0
  139.0710   77.2130  222.4120 C   0  0  0  0  0  0  0  0  0  0  0  0
  138.3580   78.4100  222.3840 C   0  0  0  0  0  0  0  0  0  0  0  0
  137.0310   78.5170  222.6440 C   0  0  0  0  0  0  0  0  0  0  0  0
  136.3260   77.3640  222.9610 C   0  0  0  0  0  0  0  0  0  0  0  0
  136.9690   76.1510  223.0060 C   0  0  0  0  0  0  0  0  0  0  0  0
  138.3370   76.0910  222.7300 C   0  0  0  0  0  0  0  0  0  0  0  0
  141.1940   78.4260  222.4390 C   0  0  0  0  0  0  0  0  0  0  0  0
  141.4540   79.4450  221.5500 C   0  0  0  0  0  0  0  0  0  0  0  0
  142.0800   80.6260  221.9270 C   0  0  0  0  0  0  0  0  0  0  0  0
  142.4700   80.8140  223.2440 C   0  0  0  0  0  0  0  0  0  0  0  0
  142.2170   79.7960  224.1640 C   0  0  0  0  0  0  0  0  0  0  0  0
  141.5990   78.6490  223.7540 C   0  0  0  0  0  0  0  0  0  0  0  0
  141.4160   71.7860  221.5780 C   0  0  0  0  0  0  0  0  0  0  0  0
  140.9970   71.5140  223.0620 C   0  0  0  0  0  0  0  0  0  0  0  0
  138.8905   67.2237  223.6041 H   0  0  0  0  0  0  0  0  0  0  0  0
  138.2571   66.5833  222.0500 H   0  0  0  0  0  0  0  0  0  0  0  0
  139.6131   67.7614  222.0500 H   0  0  0  0  0  0  0  0  0  0  0  0
  137.8745   69.1272  221.5441 H   0  0  0  0  0  0  0  0  0  0  0  0
  136.7100   68.1271  222.5612 H   0  0  0  0  0  0  0  0  0  0  0  0
  140.0664   72.0179  225.6816 H   0  0  0  0  0  0  0  0  0  0  0  0
  140.9777   71.6420  227.9151 H   0  0  0  0  0  0  0  0  0  0  0  0
  141.0835   69.3526  228.8729 H   0  0  0  0  0  0  0  0  0  0  0  0
  140.2394   67.4672  227.4978 H   0  0  0  0  0  0  0  0  0  0  0  0
  139.3167   67.8427  225.2380 H   0  0  0  0  0  0  0  0  0  0  0  0
  139.6377   70.3600  222.1071 H   0  0  0  0  0  0  0  0  0  0  0  0
  137.6441   71.9425  222.7211 H   0  0  0  0  0  0  0  0  0  0  0  0
  138.8096   73.0143  223.4918 H   0  0  0  0  0  0  0  0  0  0  0  0
  138.7859   72.0328  220.5593 H   0  0  0  0  0  0  0  0  0  0  0  0
  138.6361   73.7356  221.1549 H   0  0  0  0  0  0  0  0  0  0  0  0
  139.9659   75.1908  219.4133 H   0  0  0  0  0  0  0  0  0  0  0  0
  139.3682   75.1437  221.1609 H   0  0  0  0  0  0  0  0  0  0  0  0
  140.1162   77.2923  220.0803 H   0  0  0  0  0  0  0  0  0  0  0  0
  142.3840   76.1290  219.5490 H   0  0  0  0  0  0  0  0  0  0  0  0
  142.7490   76.4240  221.1620 H   0  0  0  0  0  0  0  0  0  0  0  0
  141.0507   76.4366  222.7498 H   0  0  0  0  0  0  0  0  0  0  0  0
  138.9080   79.3294  222.1344 H   0  0  0  0  0  0  0  0  0  0  0  0
  136.5260   79.4934  222.6046 H   0  0  0  0  0  0  0  0  0  0  0  0
  135.2489   77.4219  223.1769 H   0  0  0  0  0  0  0  0  0  0  0  0
  136.4122   75.2361  223.2569 H   0  0  0  0  0  0  0  0  0  0  0  0
  138.8450   75.1161  222.7677 H   0  0  0  0  0  0  0  0  0  0  0  0
  141.1539   79.3185  220.4993 H   0  0  0  0  0  0  0  0  0  0  0  0
  142.2664   81.4122  221.1806 H   0  0  0  0  0  0  0  0  0  0  0  0
  142.9673   81.7441  223.5564 H   0  0  0  0  0  0  0  0  0  0  0  0
  142.5143   79.9168  225.2162 H   0  0  0  0  0  0  0  0  0  0  0  0
  141.4115   77.8617  224.4990 H   0  0  0  0  0  0  0  0  0  0  0  0
  141.2117   70.9147  220.9384 H   0  0  0  0  0  0  0  0  0  0  0  0
  142.4902   71.9847  221.4487 H   0  0  0  0  0  0  0  0  0  0  0  0
  141.6302   70.7346  223.5110 H   0  0  0  0  0  0  0  0  0  0  0  0
  141.1074   72.4007  223.7035 H   0  0  0  0  0  0  0  0  0  0  0  0
  1  2  1  0
  2  3  1  0
  3  4  2  0
  3  5  1  0
  5  6  1  0
  6  7  2  0
  7  8  1  0
  8  9  2  0
  9 10  1  0
 10 11  2  0
  5 12  1  0
 12 13  1  0
 13 14  1  0
 14 15  1  0
 15 16  1  0
 16 17  2  0
 16 18  1  0
 18 19  1  0
 19 20  1  0
 19 21  1  0
 21 22  1  0
 22 23  2  0
 23 24  1  0
 24 25  2  0
 25 26  1  0
 26 27  2  0
 21 28  1  0
 28 29  2  0
 29 30  1  0
 30 31  2  0
 31 32  1  0
 32 33  2  0
 15 34  1  0
 34 35  1  0
 11  6  1  0
 35 12  1  0
 27 22  1  0
 33 28  1  0
  1 36  1  0
  1 37  1  0
  1 38  1  0
  2 39  1  0
  2 40  1  0
  7 41  1  0
  8 42  1  0
  9 43  1  0
 10 44  1  0
 11 45  1  0
 12 46  1  0
 13 47  1  0
 13 48  1  0
 14 49  1  0
 14 50  1  0
 18 51  1  0
 18 52  1  0
 19 53  1  6
 20 54  1  0
 20 55  1  0
 21 56  1  0
 23 57  1  0
 24 58  1  0
 25 59  1  0
 26 60  1  0
 27 61  1  0
 29 62  1  0
 30 63  1  0
 31 64  1  0
 32 65  1  0
 33 66  1  0
 34 67  1  0
 34 68  1  0
 35 69  1  0
 35 70  1  0
M  END
>  <smiles>  (22) 
CCC(=O)N(c1ccccc1)C1CCN(C(=O)CC(N)C(c2ccccc2)c2ccccc2)CC1

>  <score_type>  (22) 
oracle

>  <origin>  (22) 
autodockgpu

>  <m_score__min__energy>  (22) 
-8.6799999999999997

>  <m_primary>  (22) 
energy

>  <rmsd>  (22) 
7.3949460307929415

>  <m_score__min__rmsd>  (22) 
7.3949460307929415

>  <meeko>  (22) 
{"free_energy": -8.33, "intermolecular_energy": -11.31, "internal_energy": -3.28, "cluster_size": 36, "cluster_id": 1, "rank_in_cluster": 23}

>  <energy>  (22) 
-8.35

>  <cluster_rmsd>  (22) 
1.25

>  <cluster>  (22) 
1

$$$$

     RDKit          3D

 70 73  0  0  0  0  0  0  0  0999 V2000
  146.3290   73.1270  221.5600 C   0  0  0  0  0  0  0  0  0  0  0  0
  145.7180   73.7550  220.3610 C   0  0  0  0  0  0  0  0  0  0  0  0
  145.3460   72.8200  219.2750 C   0  0  0  0  0  0  0  0  0  0  0  0
  145.9610   72.9770  218.1890 O   0  0  0  0  0  0  0  0  0  0  0  0
  144.3330   71.7880  219.4500 N   0  0  0  0  0  0  0  0  0  0  0  0
  144.6950   70.4090  219.4170 C   0  0  0  0  0  0  0  0  0  0  0  0
  143.8250   69.3850  219.7220 C   0  0  0  0  0  0  0  0  0  0  0  0
  144.1530   68.0440  219.6530 C   0  0  0  0  0  0  0  0  0  0  0  0
  145.4040   67.6500  219.2640 C   0  0  0  0  0  0  0  0  0  0  0  0
  146.3060   68.6370  218.9490 C   0  0  0  0  0  0  0  0  0  0  0  0
  145.9690   69.9920  219.0210 C   0  0  0  0  0  0  0  0  0  0  0  0
  143.0050   72.2910  219.6420 C   0  0  0  0  0  0  0  0  0  0  0  0
  142.8900   72.9900  220.9710 C   0  0  0  0  0  0  0  0  0  0  0  0
  141.3770   73.0130  221.2660 C   0  0  0  0  0  0  0  0  0  0  0  0
  140.6260   73.5250  220.1360 N   0  0  0  0  0  0  0  0  0  0  0  0
  139.6950   74.6180  220.2660 C   0  0  0  0  0  0  0  0  0  0  0  0
  139.0930   74.9840  219.2350 O   0  0  0  0  0  0  0  0  0  0  0  0
  139.5490   75.1990  221.6100 C   0  0  0  0  0  0  0  0  0  0  0  0
  139.7100   76.6780  221.7060 C   0  0  2  0  0  0  0  0  0  0  0  0
  138.9600   77.3500  220.6340 N   0  0  0  0  0  0  0  0  0  0  0  0
  141.1110   77.1640  221.7150 C   0  0  0  0  0  0  0  0  0  0  0  0
  141.1820   78.4770  222.4290 C   0  0  0  0  0  0  0  0  0  0  0  0
  140.0430   79.0930  222.9450 C   0  0  0  0  0  0  0  0  0  0  0  0
  140.0480   80.2760  223.6100 C   0  0  0  0  0  0  0  0  0  0  0  0
  141.2620   80.9230  223.7950 C   0  0  0  0  0  0  0  0  0  0  0  0
  142.4210   80.3700  223.3110 C   0  0  0  0  0  0  0  0  0  0  0  0
  142.3670   79.1500  222.6330 C   0  0  0  0  0  0  0  0  0  0  0  0
  141.7970   77.2250  220.4210 C   0  0  0  0  0  0  0  0  0  0  0  0
  141.6560   78.2360  219.4960 C   0  0  0  0  0  0  0  0  0  0  0  0
  142.3360   78.2430  218.2850 C   0  0  0  0  0  0  0  0  0  0  0  0
  143.1980   77.2050  217.9690 C   0  0  0  0  0  0  0  0  0  0  0  0
  143.3590   76.1690  218.8900 C   0  0  0  0  0  0  0  0  0  0  0  0
  142.6720   76.1980  220.0700 C   0  0  0  0  0  0  0  0  0  0  0  0
  140.8390   72.9010  218.8140 C   0  0  0  0  0  0  0  0  0  0  0  0
  142.3740   73.1240  218.5960 C   0  0  0  0  0  0  0  0  0  0  0  0
  145.8959   73.5721  222.4679 H   0  0  0  0  0  0  0  0  0  0  0  0
  146.1281   72.0456  221.5501 H   0  0  0  0  0  0  0  0  0  0  0  0
  147.4156   73.2982  221.5501 H   0  0  0  0  0  0  0  0  0  0  0  0
  144.8076   74.2830  220.6810 H   0  0  0  0  0  0  0  0  0  0  0  0
  146.4883   74.4179  219.9400 H   0  0  0  0  0  0  0  0  0  0  0  0
  142.8062   69.6512  220.0401 H   0  0  0  0  0  0  0  0  0  0  0  0
  143.4001   67.2856  219.9136 H   0  0  0  0  0  0  0  0  0  0  0  0
  145.6766   66.5859  219.2058 H   0  0  0  0  0  0  0  0  0  0  0  0
  147.3204   68.3538  218.6317 H   0  0  0  0  0  0  0  0  0  0  0  0
  146.7243   70.7478  218.7598 H   0  0  0  0  0  0  0  0  0  0  0  0
  142.4220   71.3599  219.5855 H   0  0  0  0  0  0  0  0  0  0  0  0
  143.4297   72.4331  221.7511 H   0  0  0  0  0  0  0  0  0  0  0  0
  143.3276   73.9990  220.9519 H   0  0  0  0  0  0  0  0  0  0  0  0
  141.0395   71.9894  221.4860 H   0  0  0  0  0  0  0  0  0  0  0  0
  141.2019   73.6749  222.1270 H   0  0  0  0  0  0  0  0  0  0  0  0
  138.5439   74.9457  221.9783 H   0  0  0  0  0  0  0  0  0  0  0  0
  140.3690   74.7731  222.2068 H   0  0  0  0  0  0  0  0  0  0  0  0
  139.3002   76.9381  222.6931 H   0  0  0  0  0  0  0  0  0  0  0  0
  137.9580   77.0480  220.6210 H   0  0  0  0  0  0  0  0  0  0  0  0
  139.3640   77.0900  219.7020 H   0  0  0  0  0  0  0  0  0  0  0  0
  141.6740   76.3884  222.2548 H   0  0  0  0  0  0  0  0  0  0  0  0
  139.0766   78.5870  222.8039 H   0  0  0  0  0  0  0  0  0  0  0  0
  139.1132   80.7113  223.9929 H   0  0  0  0  0  0  0  0  0  0  0  0
  141.2952   81.8827  224.3316 H   0  0  0  0  0  0  0  0  0  0  0  0
  143.3834   80.8827  223.4556 H   0  0  0  0  0  0  0  0  0  0  0  0
  143.3005   78.7124  222.2495 H   0  0  0  0  0  0  0  0  0  0  0  0
  140.9778   79.0711  219.7256 H   0  0  0  0  0  0  0  0  0  0  0  0
  142.1904   79.0722  217.5770 H   0  0  0  0  0  0  0  0  0  0  0  0
  143.7431   77.1978  217.0136 H   0  0  0  0  0  0  0  0  0  0  0  0
  144.0368   75.3320  218.6664 H   0  0  0  0  0  0  0  0  0  0  0  0
  142.8163   75.3695  220.7790 H   0  0  0  0  0  0  0  0  0  0  0  0
  140.5887   71.8300  218.8320 H   0  0  0  0  0  0  0  0  0  0  0  0
  140.2104   73.3235  218.0162 H   0  0  0  0  0  0  0  0  0  0  0  0
  142.6795   72.7912  217.5931 H   0  0  0  0  0  0  0  0  0  0  0  0
  142.6633   74.1831  218.6644 H   0  0  0  0  0  0  0  0  0  0  0  0
  1  2  1  0
  2  3  1  0
  3  4  2  0
  3  5  1  0
  5  6  1  0
  6  7  2  0
  7  8  1  0
  8  9  2  0
  9 10  1  0
 10 11  2  0
  5 12  1  0
 12 13  1  0
 13 14  1  0
 14 15  1  0
 15 16  1  0
 16 17  2  0
 16 18  1  0
 18 19  1  0
 19 20  1  0
 19 21  1  0
 21 22  1  0
 22 23  2  0
 23 24  1  0
 24 25  2  0
 25 26  1  0
 26 27  2  0
 21 28  1  0
 28 29  2  0
 29 30  1  0
 30 31  2  0
 31 32  1  0
 32 33  2  0
 15 34  1  0
 34 35  1  0
 11  6  1  0
 35 12  1  0
 27 22  1  0
 33 28  1  0
  1 36  1  0
  1 37  1  0
  1 38  1  0
  2 39  1  0
  2 40  1  0
  7 41  1  0
  8 42  1  0
  9 43  1  0
 10 44  1  0
 11 45  1  0
 12 46  1  0
 13 47  1  0
 13 48  1  0
 14 49  1  0
 14 50  1  0
 18 51  1  0
 18 52  1  0
 19 53  1  1
 20 54  1  0
 20 55  1  0
 21 56  1  0
 23 57  1  0
 24 58  1  0
 25 59  1  0
 26 60  1  0
 27 61  1  0
 29 62  1  0
 30 63  1  0
 31 64  1  0
 32 65  1  0
 33 66  1  0
 34 67  1  0
 34 68  1  0
 35 69  1  0
 35 70  1  0
M  END
>  <smiles>  (23) 
CCC(=O)N(c1ccccc1)C1CCN(C(=O)CC(N)C(c2ccccc2)c2ccccc2)CC1

>  <score_type>  (23) 
oracle

>  <origin>  (23) 
autodockgpu

>  <m_score__min__energy>  (23) 
-8.6799999999999997

>  <m_primary>  (23) 
energy

>  <rmsd>  (23) 
8.36994318590962

>  <m_score__min__rmsd>  (23) 
8.36994318590962

>  <meeko>  (23) 
{"free_energy": -7.77, "intermolecular_energy": -10.76, "internal_energy": -3.74, "cluster_size": 12, "cluster_id": 2, "rank_in_cluster": 6}

>  <energy>  (23) 
-8.33

>  <cluster_rmsd>  (23) 
0.77

>  <cluster>  (23) 
1

$$$$

     RDKit          3D

 70 73  0  0  0  0  0  0  0  0999 V2000
  138.5990   67.3720  222.3230 C   0  0  0  0  0  0  0  0  0  0  0  0
  137.5070   68.3480  222.5750 C   0  0  0  0  0  0  0  0  0  0  0  0
  137.6200   69.1130  223.8370 C   0  0  0  0  0  0  0  0  0  0  0  0
  136.5810   69.1480  224.5450 O   0  0  0  0  0  0  0  0  0  0  0  0
  138.8510   69.7850  224.2330 N   0  0  0  0  0  0  0  0  0  0  0  0
  139.4720   69.4750  225.4790 C   0  0  0  0  0  0  0  0  0  0  0  0
  139.9480   70.4300  226.3520 C   0  0  0  0  0  0  0  0  0  0  0  0
  140.5130   70.1430  227.5800 C   0  0  0  0  0  0  0  0  0  0  0  0
  140.6330   68.8500  228.0090 C   0  0  0  0  0  0  0  0  0  0  0  0
  140.1710   67.8640  227.1720 C   0  0  0  0  0  0  0  0  0  0  0  0
  139.6010   68.1590  225.9310 C   0  0  0  0  0  0  0  0  0  0  0  0
  139.3330   70.7420  223.2830 C   0  0  0  0  0  0  0  0  0  0  0  0
  138.3580   71.8800  223.1360 C   0  0  0  0  0  0  0  0  0  0  0  0
  138.7170   72.5250  221.7820 C   0  0  0  0  0  0  0  0  0  0  0  0
  140.1380   72.8000  221.6880 N   0  0  0  0  0  0  0  0  0  0  0  0
  140.6440   74.1090  221.3590 C   0  0  0  0  0  0  0  0  0  0  0  0
  141.8850   74.2450  221.2980 O   0  0  0  0  0  0  0  0  0  0  0  0
  139.6430   75.1620  221.1280 C   0  0  0  0  0  0  0  0  0  0  0  0
  140.1560   76.5620  221.1060 C   0  0  2  0  0  0  0  0  0  0  0  0
  141.5420   76.5960  220.6140 N   0  0  0  0  0  0  0  0  0  0  0  0
  140.0660   77.2890  222.3950 C   0  0  0  0  0  0  0  0  0  0  0  0
  138.6410   77.6550  222.6660 C   0  0  0  0  0  0  0  0  0  0  0  0
  138.2360   78.9820  222.7960 C   0  0  0  0  0  0  0  0  0  0  0  0
  136.9580   79.3730  223.0300 C   0  0  0  0  0  0  0  0  0  0  0  0
  135.9810   78.3950  223.1500 C   0  0  0  0  0  0  0  0  0  0  0  0
  136.3120   77.0680  223.0310 C   0  0  0  0  0  0  0  0  0  0  0  0
  137.6420   76.7130  222.7900 C   0  0  0  0  0  0  0  0  0  0  0  0
  140.9530   78.4440  222.5660 C   0  0  0  0  0  0  0  0  0  0  0  0
  141.6670   78.7340  223.7070 C   0  0  0  0  0  0  0  0  0  0  0  0
  142.4970   79.8430  223.8090 C   0  0  0  0  0  0  0  0  0  0  0  0
  142.6300   80.7100  222.7360 C   0  0  0  0  0  0  0  0  0  0  0  0
  141.9170   80.4380  221.5690 C   0  0  0  0  0  0  0  0  0  0  0  0
  141.1120   79.3370  221.5060 C   0  0  0  0  0  0  0  0  0  0  0  0
  141.0830   71.6960  221.9500 C   0  0  0  0  0  0  0  0  0  0  0  0
  140.7020   71.2850  223.4120 C   0  0  0  0  0  0  0  0  0  0  0  0
  138.9995   67.0140  223.2829 H   0  0  0  0  0  0  0  0  0  0  0  0
  138.2043   66.5201  221.7498 H   0  0  0  0  0  0  0  0  0  0  0  0
  139.4014   67.8594  221.7498 H   0  0  0  0  0  0  0  0  0  0  0  0
  137.4948   69.0665  221.7422 H   0  0  0  0  0  0  0  0  0  0  0  0
  136.5840   67.7558  222.6604 H   0  0  0  0  0  0  0  0  0  0  0  0
  139.8734   71.4858  226.0525 H   0  0  0  0  0  0  0  0  0  0  0  0
  140.8702   70.9636  228.2195 H   0  0  0  0  0  0  0  0  0  0  0  0
  141.0811   68.6096  228.9844 H   0  0  0  0  0  0  0  0  0  0  0  0
  140.2520   66.8133  227.4873 H   0  0  0  0  0  0  0  0  0  0  0  0
  139.2452   67.3355  225.2944 H   0  0  0  0  0  0  0  0  0  0  0  0
  139.4131   70.1150  222.3827 H   0  0  0  0  0  0  0  0  0  0  0  0
  137.3234   71.5066  223.1264 H   0  0  0  0  0  0  0  0  0  0  0  0
  138.4217   72.5951  223.9694 H   0  0  0  0  0  0  0  0  0  0  0  0
  138.4307   71.8388  220.9714 H   0  0  0  0  0  0  0  0  0  0  0  0
  138.1733   73.4774  221.6968 H   0  0  0  0  0  0  0  0  0  0  0  0
  139.1650   74.9640  220.1573 H   0  0  0  0  0  0  0  0  0  0  0  0
  138.9582   75.1120  221.9874 H   0  0  0  0  0  0  0  0  0  0  0  0
  139.4832   77.0946  220.4178 H   0  0  0  0  0  0  0  0  0  0  0  0
  141.7060   75.8670  219.8810 H   0  0  0  0  0  0  0  0  0  0  0  0
  142.2030   76.3850  221.4010 H   0  0  0  0  0  0  0  0  0  0  0  0
  140.4424   76.5779  223.1451 H   0  0  0  0  0  0  0  0  0  0  0  0
  139.0034   79.7645  222.7027 H   0  0  0  0  0  0  0  0  0  0  0  0
  136.7027   80.4390  223.1223 H   0  0  0  0  0  0  0  0  0  0  0  0
  134.9371   78.6841  223.3412 H   0  0  0  0  0  0  0  0  0  0  0  0
  135.5381   76.2919  223.1244 H   0  0  0  0  0  0  0  0  0  0  0  0
  137.9001   75.6478  222.6962 H   0  0  0  0  0  0  0  0  0  0  0  0
  141.5765   78.0607  224.5721 H   0  0  0  0  0  0  0  0  0  0  0  0
  143.0487   80.0332  224.7414 H   0  0  0  0  0  0  0  0  0  0  0  0
  143.2831   81.5925  222.8034 H   0  0  0  0  0  0  0  0  0  0  0  0
  142.0029   81.1087  220.7014 H   0  0  0  0  0  0  0  0  0  0  0  0
  140.5616   79.1446  220.5733 H   0  0  0  0  0  0  0  0  0  0  0  0
  140.9302   70.8634  221.2476 H   0  0  0  0  0  0  0  0  0  0  0  0
  142.1395   71.9769  221.8283 H   0  0  0  0  0  0  0  0  0  0  0  0
  141.3922   70.5193  223.7958 H   0  0  0  0  0  0  0  0  0  0  0  0
  140.7600   72.1264  224.1181 H   0  0  0  0  0  0  0  0  0  0  0  0
  1  2  1  0
  2  3  1  0
  3  4  2  0
  3  5  1  0
  5  6  1  0
  6  7  2  0
  7  8  1  0
  8  9  2  0
  9 10  1  0
 10 11  2  0
  5 12  1  0
 12 13  1  0
 13 14  1  0
 14 15  1  0
 15 16  1  0
 16 17  2  0
 16 18  1  0
 18 19  1  0
 19 20  1  0
 19 21  1  0
 21 22  1  0
 22 23  2  0
 23 24  1  0
 24 25  2  0
 25 26  1  0
 26 27  2  0
 21 28  1  0
 28 29  2  0
 29 30  1  0
 30 31  2  0
 31 32  1  0
 32 33  2  0
 15 34  1  0
 34 35  1  0
 11  6  1  0
 35 12  1  0
 27 22  1  0
 33 28  1  0
  1 36  1  0
  1 37  1  0
  1 38  1  0
  2 39  1  0
  2 40  1  0
  7 41  1  0
  8 42  1  0
  9 43  1  0
 10 44  1  0
 11 45  1  0
 12 46  1  0
 13 47  1  0
 13 48  1  0
 14 49  1  0
 14 50  1  0
 18 51  1  0
 18 52  1  0
 19 53  1  6
 20 54  1  0
 20 55  1  0
 21 56  1  0
 23 57  1  0
 24 58  1  0
 25 59  1  0
 26 60  1  0
 27 61  1  0
 29 62  1  0
 30 63  1  0
 31 64  1  0
 32 65  1  0
 33 66  1  0
 34 67  1  0
 34 68  1  0
 35 69  1  0
 35 70  1  0
M  END
>  <smiles>  (24) 
CCC(=O)N(c1ccccc1)C1CCN(C(=O)CC(N)C(c2ccccc2)c2ccccc2)CC1

>  <score_type>  (24) 
oracle

>  <origin>  (24) 
autodockgpu

>  <m_score__min__energy>  (24) 
-8.6799999999999997

>  <m_primary>  (24) 
energy

>  <rmsd>  (24) 
7.690473569287245

>  <m_score__min__rmsd>  (24) 
7.690473569287245

>  <meeko>  (24) 
{"free_energy": -8.64, "intermolecular_energy": -11.62, "internal_energy": -3.03, "cluster_size": 36, "cluster_id": 1, "rank_in_cluster": 2}

>  <energy>  (24) 
-8.33

>  <cluster_rmsd>  (24) 
1.3

>  <cluster>  (24) 
1

$$$$

     RDKit          3D

 70 73  0  0  0  0  0  0  0  0999 V2000
  135.8920   71.0960  224.2010 C   0  0  0  0  0  0  0  0  0  0  0  0
  136.5560   69.7810  224.3950 C   0  0  0  0  0  0  0  0  0  0  0  0
  137.7960   69.5760  223.6120 C   0  0  0  0  0  0  0  0  0  0  0  0
  137.6930   68.8000  222.6270 O   0  0  0  0  0  0  0  0  0  0  0  0
  139.0530   70.2250  223.9600 N   0  0  0  0  0  0  0  0  0  0  0  0
  139.6440   70.0090  225.2400 C   0  0  0  0  0  0  0  0  0  0  0  0
  140.1360   71.0230  226.0330 C   0  0  0  0  0  0  0  0  0  0  0  0
  140.6730   70.8310  227.2920 C   0  0  0  0  0  0  0  0  0  0  0  0
  140.7470   69.5780  227.8360 C   0  0  0  0  0  0  0  0  0  0  0  0
  140.2690   68.5350  227.0810 C   0  0  0  0  0  0  0  0  0  0  0  0
  139.7270   68.7350  225.8090 C   0  0  0  0  0  0  0  0  0  0  0  0
  139.5900   71.0610  222.9290 C   0  0  0  0  0  0  0  0  0  0  0  0
  138.7170   72.2690  222.7190 C   0  0  0  0  0  0  0  0  0  0  0  0
  139.0920   72.7770  221.3120 C   0  0  0  0  0  0  0  0  0  0  0  0
  140.5280   72.9140  221.1640 N   0  0  0  0  0  0  0  0  0  0  0  0
  141.1390   74.1430  220.7250 C   0  0  0  0  0  0  0  0  0  0  0  0
  142.3850   74.1600  220.6260 O   0  0  0  0  0  0  0  0  0  0  0  0
  140.2300   75.2630  220.4380 C   0  0  0  0  0  0  0  0  0  0  0  0
  140.7680   76.6290  220.6990 C   0  0  2  0  0  0  0  0  0  0  0  0
  142.1970   76.6950  220.3570 N   0  0  0  0  0  0  0  0  0  0  0  0
  140.5600   77.1390  222.0760 C   0  0  0  0  0  0  0  0  0  0  0  0
  139.0960   77.1860  222.3770 C   0  0  0  0  0  0  0  0  0  0  0  0
  138.3820   76.0430  222.7300 C   0  0  0  0  0  0  0  0  0  0  0  0
  137.0570   76.0270  223.0240 C   0  0  0  0  0  0  0  0  0  0  0  0
  136.3570   77.2240  222.9720 C   0  0  0  0  0  0  0  0  0  0  0  0
  137.0000   78.3880  222.6310 C   0  0  0  0  0  0  0  0  0  0  0  0
  138.3650   78.3550  222.3370 C   0  0  0  0  0  0  0  0  0  0  0  0
  141.2140   78.4050  222.4170 C   0  0  0  0  0  0  0  0  0  0  0  0
  141.5000   79.4160  221.5260 C   0  0  0  0  0  0  0  0  0  0  0  0
  142.1190   80.5990  221.9080 C   0  0  0  0  0  0  0  0  0  0  0  0
  142.4740   80.7980  223.2330 C   0  0  0  0  0  0  0  0  0  0  0  0
  142.1950   79.7900  224.1550 C   0  0  0  0  0  0  0  0  0  0  0  0
  141.5850   78.6410  223.7410 C   0  0  0  0  0  0  0  0  0  0  0  0
  141.3790   71.7510  221.4890 C   0  0  0  0  0  0  0  0  0  0  0  0
  141.0050   71.4850  222.9860 C   0  0  0  0  0  0  0  0  0  0  0  0
  135.6671   71.5414  225.1813 H   0  0  0  0  0  0  0  0  0  0  0  0
  136.5604   71.7649  223.6390 H   0  0  0  0  0  0  0  0  0  0  0  0
  134.9569   70.9552  223.6390 H   0  0  0  0  0  0  0  0  0  0  0  0
  136.8071   69.6812  225.4613 H   0  0  0  0  0  0  0  0  0  0  0  0
  135.8421   69.0244  224.0374 H   0  0  0  0  0  0  0  0  0  0  0  0
  140.0990   72.0495  225.6393 H   0  0  0  0  0  0  0  0  0  0  0  0
  141.0448   71.6948  227.8626 H   0  0  0  0  0  0  0  0  0  0  0  0
  141.1719   69.4126  228.8370 H   0  0  0  0  0  0  0  0  0  0  0  0
  140.3141   67.5144  227.4889 H   0  0  0  0  0  0  0  0  0  0  0  0
  139.3565   67.8687  225.2414 H   0  0  0  0  0  0  0  0  0  0  0  0
  139.5870   70.3652  222.0770 H   0  0  0  0  0  0  0  0  0  0  0  0
  137.6533   71.9920  222.7616 H   0  0  0  0  0  0  0  0  0  0  0  0
  138.8689   73.0345  223.4942 H   0  0  0  0  0  0  0  0  0  0  0  0
  138.7217   72.0617  220.5628 H   0  0  0  0  0  0  0  0  0  0  0  0
  138.6333   73.7663  221.1676 H   0  0  0  0  0  0  0  0  0  0  0  0
  139.9545   75.2080  219.3745 H   0  0  0  0  0  0  0  0  0  0  0  0
  139.3842   75.1416  221.1308 H   0  0  0  0  0  0  0  0  0  0  0  0
  140.1785   77.2897  220.0463 H   0  0  0  0  0  0  0  0  0  0  0  0
  142.4190   76.1020  219.5240 H   0  0  0  0  0  0  0  0  0  0  0  0
  142.7700   76.3220  221.1520 H   0  0  0  0  0  0  0  0  0  0  0  0
  141.0749   76.4152  222.7248 H   0  0  0  0  0  0  0  0  0  0  0  0
  138.9287   75.0895  222.7734 H   0  0  0  0  0  0  0  0  0  0  0  0
  136.5510   75.0891  223.2965 H   0  0  0  0  0  0  0  0  0  0  0  0
  135.2821   77.2403  223.2050 H   0  0  0  0  0  0  0  0  0  0  0  0
  136.4457   79.3372  222.5897 H   0  0  0  0  0  0  0  0  0  0  0  0
  138.8736   79.2916  222.0648 H   0  0  0  0  0  0  0  0  0  0  0  0
  141.2270   79.2807  220.4690 H   0  0  0  0  0  0  0  0  0  0  0  0
  142.3275   81.3777  221.1595 H   0  0  0  0  0  0  0  0  0  0  0  0
  142.9647   81.7301  223.5499 H   0  0  0  0  0  0  0  0  0  0  0  0
  142.4657   79.9202  225.2132 H   0  0  0  0  0  0  0  0  0  0  0  0
  141.3755   77.8621  224.4889 H   0  0  0  0  0  0  0  0  0  0  0  0
  141.1332   70.8860  220.8555 H   0  0  0  0  0  0  0  0  0  0  0  0
  142.4523   71.9257  221.3234 H   0  0  0  0  0  0  0  0  0  0  0  0
  141.6350   70.6899  223.4114 H   0  0  0  0  0  0  0  0  0  0  0  0
  141.1581   72.3674  223.6247 H   0  0  0  0  0  0  0  0  0  0  0  0
  1  2  1  0
  2  3  1  0
  3  4  2  0
  3  5  1  0
  5  6  1  0
  6  7  2  0
  7  8  1  0
  8  9  2  0
  9 10  1  0
 10 11  2  0
  5 12  1  0
 12 13  1  0
 13 14  1  0
 14 15  1  0
 15 16  1  0
 16 17  2  0
 16 18  1  0
 18 19  1  0
 19 20  1  0
 19 21  1  0
 21 22  1  0
 22 23  2  0
 23 24  1  0
 24 25  2  0
 25 26  1  0
 26 27  2  0
 21 28  1  0
 28 29  2  0
 29 30  1  0
 30 31  2  0
 31 32  1  0
 32 33  2  0
 15 34  1  0
 34 35  1  0
 11  6  1  0
 35 12  1  0
 27 22  1  0
 33 28  1  0
  1 36  1  0
  1 37  1  0
  1 38  1  0
  2 39  1  0
  2 40  1  0
  7 41  1  0
  8 42  1  0
  9 43  1  0
 10 44  1  0
 11 45  1  0
 12 46  1  0
 13 47  1  0
 13 48  1  0
 14 49  1  0
 14 50  1  0
 18 51  1  0
 18 52  1  0
 19 53  1  6
 20 54  1  0
 20 55  1  0
 21 56  1  0
 23 57  1  0
 24 58  1  0
 25 59  1  0
 26 60  1  0
 27 61  1  0
 29 62  1  0
 30 63  1  0
 31 64  1  0
 32 65  1  0
 33 66  1  0
 34 67  1  0
 34 68  1  0
 35 69  1  0
 35 70  1  0
M  END
>  <smiles>  (25) 
CCC(=O)N(c1ccccc1)C1CCN(C(=O)CC(N)C(c2ccccc2)c2ccccc2)CC1

>  <score_type>  (25) 
oracle

>  <origin>  (25) 
autodockgpu

>  <m_score__min__energy>  (25) 
-8.6799999999999997

>  <m_primary>  (25) 
energy

>  <rmsd>  (25) 
7.549089974560094

>  <m_score__min__rmsd>  (25) 
7.549089974560094

>  <meeko>  (25) 
{"free_energy": -8.19, "intermolecular_energy": -11.17, "internal_energy": -3.36, "cluster_size": 36, "cluster_id": 1, "rank_in_cluster": 35}

>  <energy>  (25) 
-8.33

>  <cluster_rmsd>  (25) 
0.79

>  <cluster>  (25) 
1

$$$$

     RDKit          3D

 70 73  0  0  0  0  0  0  0  0999 V2000
  138.8240   67.3700  222.6120 C   0  0  0  0  0  0  0  0  0  0  0  0
  137.8870   68.5160  222.4820 C   0  0  0  0  0  0  0  0  0  0  0  0
  137.9270   69.4960  223.5910 C   0  0  0  0  0  0  0  0  0  0  0  0
  136.8390   69.6740  224.1970 O   0  0  0  0  0  0  0  0  0  0  0  0
  139.1420   70.2110  223.9540 N   0  0  0  0  0  0  0  0  0  0  0  0
  139.7150   70.0470  225.2500 C   0  0  0  0  0  0  0  0  0  0  0  0
  140.2070   71.0900  226.0040 C   0  0  0  0  0  0  0  0  0  0  0  0
  140.7250   70.9490  227.2780 C   0  0  0  0  0  0  0  0  0  0  0  0
  140.7770   69.7210  227.8780 C   0  0  0  0  0  0  0  0  0  0  0  0
  140.2970   68.6500  227.1650 C   0  0  0  0  0  0  0  0  0  0  0  0
  139.7740   68.7990  225.8770 C   0  0  0  0  0  0  0  0  0  0  0  0
  139.6630   71.0550  222.9200 C   0  0  0  0  0  0  0  0  0  0  0  0
  138.7660   72.2450  222.7070 C   0  0  0  0  0  0  0  0  0  0  0  0
  139.1300   72.7560  221.2980 C   0  0  0  0  0  0  0  0  0  0  0  0
  140.5630   72.9200  221.1490 N   0  0  0  0  0  0  0  0  0  0  0  0
  141.1500   74.1600  220.7050 C   0  0  0  0  0  0  0  0  0  0  0  0
  142.3950   74.2000  220.6040 O   0  0  0  0  0  0  0  0  0  0  0  0
  140.2190   75.2610  220.4160 C   0  0  0  0  0  0  0  0  0  0  0  0
  140.7360   76.6380  220.6600 C   0  0  2  0  0  0  0  0  0  0  0  0
  142.1660   76.7200  220.3220 N   0  0  0  0  0  0  0  0  0  0  0  0
  140.5150   77.1640  222.0280 C   0  0  0  0  0  0  0  0  0  0  0  0
  139.0490   77.1910  222.3240 C   0  0  0  0  0  0  0  0  0  0  0  0
  138.3600   76.0480  222.7260 C   0  0  0  0  0  0  0  0  0  0  0  0
  137.0360   76.0150  223.0170 C   0  0  0  0  0  0  0  0  0  0  0  0
  136.3080   77.1920  222.9120 C   0  0  0  0  0  0  0  0  0  0  0  0
  136.9250   78.3540  222.5210 C   0  0  0  0  0  0  0  0  0  0  0  0
  138.2920   78.3400  222.2310 C   0  0  0  0  0  0  0  0  0  0  0  0
  141.1460   78.4470  222.3530 C   0  0  0  0  0  0  0  0  0  0  0  0
  141.3230   79.4900  221.4710 C   0  0  0  0  0  0  0  0  0  0  0  0
  141.9250   80.6860  221.8370 C   0  0  0  0  0  0  0  0  0  0  0  0
  142.3770   80.8660  223.1350 C   0  0  0  0  0  0  0  0  0  0  0  0
  142.2090   79.8240  224.0480 C   0  0  0  0  0  0  0  0  0  0  0  0
  141.6110   78.6630  223.6500 C   0  0  0  0  0  0  0  0  0  0  0  0
  141.4360   71.7740  221.4750 C   0  0  0  0  0  0  0  0  0  0  0  0
  141.0690   71.5060  222.9740 C   0  0  0  0  0  0  0  0  0  0  0  0
  138.9978   67.1575  223.6772 H   0  0  0  0  0  0  0  0  0  0  0  0
  138.3886   66.4836  222.1275 H   0  0  0  0  0  0  0  0  0  0  0  0
  139.7792   67.6206  222.1275 H   0  0  0  0  0  0  0  0  0  0  0  0
  138.1282   69.0479  221.5498 H   0  0  0  0  0  0  0  0  0  0  0  0
  136.8754   68.0842  222.4945 H   0  0  0  0  0  0  0  0  0  0  0  0
  140.1863   72.0982  225.5647 H   0  0  0  0  0  0  0  0  0  0  0  0
  141.0991   71.8334  227.8146 H   0  0  0  0  0  0  0  0  0  0  0  0
  141.1869   69.5963  228.8911 H   0  0  0  0  0  0  0  0  0  0  0  0
  140.3247   67.6485  227.6192 H   0  0  0  0  0  0  0  0  0  0  0  0
  139.3998   67.9125  225.3440 H   0  0  0  0  0  0  0  0  0  0  0  0
  139.6739   70.3567  222.0701 H   0  0  0  0  0  0  0  0  0  0  0  0
  137.7080   71.9472  222.7513 H   0  0  0  0  0  0  0  0  0  0  0  0
  138.9032   73.0157  223.4797 H   0  0  0  0  0  0  0  0  0  0  0  0
  138.7730   72.0315  220.5512 H   0  0  0  0  0  0  0  0  0  0  0  0
  138.6521   73.7357  221.1507 H   0  0  0  0  0  0  0  0  0  0  0  0
  139.9351   75.1916  219.3555 H   0  0  0  0  0  0  0  0  0  0  0  0
  139.3812   75.1313  221.1169 H   0  0  0  0  0  0  0  0  0  0  0  0
  140.1395   77.2810  219.9961 H   0  0  0  0  0  0  0  0  0  0  0  0
  142.3950   76.1370  219.4850 H   0  0  0  0  0  0  0  0  0  0  0  0
  142.7390   76.3450  221.1160 H   0  0  0  0  0  0  0  0  0  0  0  0
  141.0404   76.4582  222.6882 H   0  0  0  0  0  0  0  0  0  0  0  0
  138.9282   75.1101  222.8130 H   0  0  0  0  0  0  0  0  0  0  0  0
  136.5508   75.0783  223.3287 H   0  0  0  0  0  0  0  0  0  0  0  0
  135.2325   77.1936  223.1430 H   0  0  0  0  0  0  0  0  0  0  0  0
  136.3490   79.2873  222.4367 H   0  0  0  0  0  0  0  0  0  0  0  0
  138.7797   79.2752  221.9186 H   0  0  0  0  0  0  0  0  0  0  0  0
  140.9733   79.3704  220.4350 H   0  0  0  0  0  0  0  0  0  0  0  0
  142.0434   81.4911  221.0969 H   0  0  0  0  0  0  0  0  0  0  0  0
  142.8569   81.8082  223.4383 H   0  0  0  0  0  0  0  0  0  0  0  0
  142.5573   79.9378  225.0852 H   0  0  0  0  0  0  0  0  0  0  0  0
  141.4899   77.8576  224.3893 H   0  0  0  0  0  0  0  0  0  0  0  0
  141.2051   70.9028  220.8444 H   0  0  0  0  0  0  0  0  0  0  0  0
  142.5057   71.9675  221.3066 H   0  0  0  0  0  0  0  0  0  0  0  0
  141.7146   70.7246  223.4014 H   0  0  0  0  0  0  0  0  0  0  0  0
  141.2060   72.3932  223.6096 H   0  0  0  0  0  0  0  0  0  0  0  0
  1  2  1  0
  2  3  1  0
  3  4  2  0
  3  5  1  0
  5  6  1  0
  6  7  2  0
  7  8  1  0
  8  9  2  0
  9 10  1  0
 10 11  2  0
  5 12  1  0
 12 13  1  0
 13 14  1  0
 14 15  1  0
 15 16  1  0
 16 17  2  0
 16 18  1  0
 18 19  1  0
 19 20  1  0
 19 21  1  0
 21 22  1  0
 22 23  2  0
 23 24  1  0
 24 25  2  0
 25 26  1  0
 26 27  2  0
 21 28  1  0
 28 29  2  0
 29 30  1  0
 30 31  2  0
 31 32  1  0
 32 33  2  0
 15 34  1  0
 34 35  1  0
 11  6  1  0
 35 12  1  0
 27 22  1  0
 33 28  1  0
  1 36  1  0
  1 37  1  0
  1 38  1  0
  2 39  1  0
  2 40  1  0
  7 41  1  0
  8 42  1  0
  9 43  1  0
 10 44  1  0
 11 45  1  0
 12 46  1  0
 13 47  1  0
 13 48  1  0
 14 49  1  0
 14 50  1  0
 18 51  1  0
 18 52  1  0
 19 53  1  6
 20 54  1  0
 20 55  1  0
 21 56  1  0
 23 57  1  0
 24 58  1  0
 25 59  1  0
 26 60  1  0
 27 61  1  0
 29 62  1  0
 30 63  1  0
 31 64  1  0
 32 65  1  0
 33 66  1  0
 34 67  1  0
 34 68  1  0
 35 69  1  0
 35 70  1  0
M  END
>  <smiles>  (26) 
CCC(=O)N(c1ccccc1)C1CCN(C(=O)CC(N)C(c2ccccc2)c2ccccc2)CC1

>  <score_type>  (26) 
oracle

>  <origin>  (26) 
autodockgpu

>  <m_score__min__energy>  (26) 
-8.6799999999999997

>  <m_primary>  (26) 
energy

>  <rmsd>  (26) 
7.572076665099367

>  <m_score__min__rmsd>  (26) 
7.572076665099367

>  <meeko>  (26) 
{"free_energy": -8.26, "intermolecular_energy": -11.25, "internal_energy": -3.35, "cluster_size": 36, "cluster_id": 1, "rank_in_cluster": 31}

>  <energy>  (26) 
-8.32

>  <cluster_rmsd>  (26) 
0.69

>  <cluster>  (26) 
1

$$$$

     RDKit          3D

 70 73  0  0  0  0  0  0  0  0999 V2000
  145.6730   74.1170  220.8430 C   0  0  0  0  0  0  0  0  0  0  0  0
  145.9740   72.6830  220.6030 C   0  0  0  0  0  0  0  0  0  0  0  0
  145.3460   72.0970  219.3970 C   0  0  0  0  0  0  0  0  0  0  0  0
  145.7530   72.5530  218.2980 O   0  0  0  0  0  0  0  0  0  0  0  0
  144.3230   71.0640  219.4760 N   0  0  0  0  0  0  0  0  0  0  0  0
  144.6750   69.6890  219.3350 C   0  0  0  0  0  0  0  0  0  0  0  0
  145.9650   69.2490  219.1320 C   0  0  0  0  0  0  0  0  0  0  0  0
  146.3240   67.9180  219.0350 C   0  0  0  0  0  0  0  0  0  0  0  0
  145.3820   66.9310  219.1400 C   0  0  0  0  0  0  0  0  0  0  0  0
  144.0810   67.3220  219.3430 C   0  0  0  0  0  0  0  0  0  0  0  0
  143.7240   68.6700  219.4400 C   0  0  0  0  0  0  0  0  0  0  0  0
  142.9970   71.5610  219.6930 C   0  0  0  0  0  0  0  0  0  0  0  0
  142.9010   72.2430  221.0320 C   0  0  0  0  0  0  0  0  0  0  0  0
  141.3920   72.2600  221.3500 C   0  0  0  0  0  0  0  0  0  0  0  0
  140.6230   72.7830  220.2380 N   0  0  0  0  0  0  0  0  0  0  0  0
  139.6930   73.8730  220.3950 C   0  0  0  0  0  0  0  0  0  0  0  0
  139.0740   74.2500  219.3770 O   0  0  0  0  0  0  0  0  0  0  0  0
  139.5650   74.4380  221.7480 C   0  0  0  0  0  0  0  0  0  0  0  0
  139.5470   75.9260  221.8380 C   0  0  2  0  0  0  0  0  0  0  0  0
  138.8390   76.5050  220.6860 N   0  0  0  0  0  0  0  0  0  0  0  0
  140.8750   76.5680  221.9820 C   0  0  0  0  0  0  0  0  0  0  0  0
  140.7150   77.9130  222.6170 C   0  0  0  0  0  0  0  0  0  0  0  0
  141.8070   78.6290  223.1040 C   0  0  0  0  0  0  0  0  0  0  0  0
  141.7240   79.8550  223.6780 C   0  0  0  0  0  0  0  0  0  0  0  0
  140.4740   80.4460  223.7930 C   0  0  0  0  0  0  0  0  0  0  0  0
  139.3560   79.7940  223.3340 C   0  0  0  0  0  0  0  0  0  0  0  0
  139.4910   78.5330  222.7490 C   0  0  0  0  0  0  0  0  0  0  0  0
  141.7060   76.6440  220.7770 C   0  0  0  0  0  0  0  0  0  0  0  0
  142.5380   75.6450  220.3230 C   0  0  0  0  0  0  0  0  0  0  0  0
  143.3010   75.7720  219.1690 C   0  0  0  0  0  0  0  0  0  0  0  0
  143.2420   76.9400  218.4250 C   0  0  0  0  0  0  0  0  0  0  0  0
  142.4060   77.9670  218.8640 C   0  0  0  0  0  0  0  0  0  0  0  0
  141.6720   77.8040  220.0040 C   0  0  0  0  0  0  0  0  0  0  0  0
  140.8180   72.1770  218.9050 C   0  0  0  0  0  0  0  0  0  0  0  0
  142.3490   72.4050  218.6670 C   0  0  0  0  0  0  0  0  0  0  0  0
  145.6331   74.3071  221.9257 H   0  0  0  0  0  0  0  0  0  0  0  0
  146.4604   74.7377  220.3905 H   0  0  0  0  0  0  0  0  0  0  0  0
  144.7025   74.3687  220.3905 H   0  0  0  0  0  0  0  0  0  0  0  0
  147.0644   72.5768  220.5038 H   0  0  0  0  0  0  0  0  0  0  0  0
  145.5536   72.1368  221.4603 H   0  0  0  0  0  0  0  0  0  0  0  0
  146.7590   70.0048  219.0415 H   0  0  0  0  0  0  0  0  0  0  0  0
  147.3781   67.6491  218.8717 H   0  0  0  0  0  0  0  0  0  0  0  0
  145.6554   65.8682  219.0649 H   0  0  0  0  0  0  0  0  0  0  0  0
  143.2989   66.5536  219.4316 H   0  0  0  0  0  0  0  0  0  0  0  0
  142.6690   68.9353  219.6029 H   0  0  0  0  0  0  0  0  0  0  0  0
  142.4146   70.6298  219.6329 H   0  0  0  0  0  0  0  0  0  0  0  0
  143.4531   71.6772  221.7969 H   0  0  0  0  0  0  0  0  0  0  0  0
  143.3369   73.2529  221.0190 H   0  0  0  0  0  0  0  0  0  0  0  0
  141.0597   71.2334  221.5636 H   0  0  0  0  0  0  0  0  0  0  0  0
  141.2290   72.9121  222.2207 H   0  0  0  0  0  0  0  0  0  0  0  0
  138.6257   74.0637  222.1811 H   0  0  0  0  0  0  0  0  0  0  0  0
  140.4691   74.1201  222.2879 H   0  0  0  0  0  0  0  0  0  0  0  0
  139.0115   76.1409  222.7745 H   0  0  0  0  0  0  0  0  0  0  0  0
  137.9680   75.9690  220.4630 H   0  0  0  0  0  0  0  0  0  0  0  0
  139.4490   76.4540  219.8340 H   0  0  0  0  0  0  0  0  0  0  0  0
  141.4471   75.8887  222.6311 H   0  0  0  0  0  0  0  0  0  0  0  0
  142.8025   78.1692  223.0171 H   0  0  0  0  0  0  0  0  0  0  0  0
  142.6257   80.3683  224.0434 H   0  0  0  0  0  0  0  0  0  0  0  0
  140.3782   81.4404  224.2535 H   0  0  0  0  0  0  0  0  0  0  0  0
  138.3640   80.2603  223.4262 H   0  0  0  0  0  0  0  0  0  0  0  0
  138.5912   78.0178  222.3816 H   0  0  0  0  0  0  0  0  0  0  0  0
  142.6010   74.7088  220.8971 H   0  0  0  0  0  0  0  0  0  0  0  0
  143.9516   74.9460  218.8459 H   0  0  0  0  0  0  0  0  0  0  0  0
  143.8407   77.0546  217.5093 H   0  0  0  0  0  0  0  0  0  0  0  0
  142.3383   78.9051  218.2936 H   0  0  0  0  0  0  0  0  0  0  0  0
  141.0213   78.6293  220.3288 H   0  0  0  0  0  0  0  0  0  0  0  0
  140.5695   71.1055  218.9125 H   0  0  0  0  0  0  0  0  0  0  0  0
  140.1774   72.6094  218.1223 H   0  0  0  0  0  0  0  0  0  0  0  0
  142.6400   72.0847  217.6557 H   0  0  0  0  0  0  0  0  0  0  0  0
  142.6376   73.4637  218.7440 H   0  0  0  0  0  0  0  0  0  0  0  0
  1  2  1  0
  2  3  1  0
  3  4  2  0
  3  5  1  0
  5  6  1  0
  6  7  2  0
  7  8  1  0
  8  9  2  0
  9 10  1  0
 10 11  2  0
  5 12  1  0
 12 13  1  0
 13 14  1  0
 14 15  1  0
 15 16  1  0
 16 17  2  0
 16 18  1  0
 18 19  1  0
 19 20  1  0
 19 21  1  0
 21 22  1  0
 22 23  2  0
 23 24  1  0
 24 25  2  0
 25 26  1  0
 26 27  2  0
 21 28  1  0
 28 29  2  0
 29 30  1  0
 30 31  2  0
 31 32  1  0
 32 33  2  0
 15 34  1  0
 34 35  1  0
 11  6  1  0
 35 12  1  0
 27 22  1  0
 33 28  1  0
  1 36  1  0
  1 37  1  0
  1 38  1  0
  2 39  1  0
  2 40  1  0
  7 41  1  0
  8 42  1  0
  9 43  1  0
 10 44  1  0
 11 45  1  0
 12 46  1  0
 13 47  1  0
 13 48  1  0
 14 49  1  0
 14 50  1  0
 18 51  1  0
 18 52  1  0
 19 53  1  1
 20 54  1  0
 20 55  1  0
 21 56  1  0
 23 57  1  0
 24 58  1  0
 25 59  1  0
 26 60  1  0
 27 61  1  0
 29 62  1  0
 30 63  1  0
 31 64  1  0
 32 65  1  0
 33 66  1  0
 34 67  1  0
 34 68  1  0
 35 69  1  0
 35 70  1  0
M  END
>  <smiles>  (27) 
CCC(=O)N(c1ccccc1)C1CCN(C(=O)CC(N)C(c2ccccc2)c2ccccc2)CC1

>  <score_type>  (27) 
oracle

>  <origin>  (27) 
autodockgpu

>  <m_score__min__energy>  (27) 
-8.6799999999999997

>  <m_primary>  (27) 
energy

>  <rmsd>  (27) 
7.884696091051465

>  <m_score__min__rmsd>  (27) 
7.884696091051465

>  <meeko>  (27) 
{"free_energy": -7.52, "intermolecular_energy": -10.5, "internal_energy": -3.94, "cluster_size": 12, "cluster_id": 2, "rank_in_cluster": 9}

>  <energy>  (27) 
-8.32

>  <cluster_rmsd>  (27) 
0.72

>  <cluster>  (27) 
1

$$$$

     RDKit          3D

 70 73  0  0  0  0  0  0  0  0999 V2000
  138.8230   67.2160  222.5240 C   0  0  0  0  0  0  0  0  0  0  0  0
  138.1460   68.5220  222.3130 C   0  0  0  0  0  0  0  0  0  0  0  0
  138.0790   69.4010  223.5020 C   0  0  0  0  0  0  0  0  0  0  0  0
  137.0040   69.3500  224.1540 O   0  0  0  0  0  0  0  0  0  0  0  0
  139.1820   70.2690  223.8920 N   0  0  0  0  0  0  0  0  0  0  0  0
  139.6920   70.2320  225.2230 C   0  0  0  0  0  0  0  0  0  0  0  0
  139.6930   69.0990  226.0080 C   0  0  0  0  0  0  0  0  0  0  0  0
  140.2220   69.0410  227.2840 C   0  0  0  0  0  0  0  0  0  0  0  0
  140.7950   70.1450  227.8530 C   0  0  0  0  0  0  0  0  0  0  0  0
  140.8170   71.2980  227.1080 C   0  0  0  0  0  0  0  0  0  0  0  0
  140.2810   71.3520  225.8180 C   0  0  0  0  0  0  0  0  0  0  0  0
  139.6620   71.1190  222.8440 C   0  0  0  0  0  0  0  0  0  0  0  0
  138.7990   72.3470  222.7220 C   0  0  0  0  0  0  0  0  0  0  0  0
  139.0840   72.8810  221.3030 C   0  0  0  0  0  0  0  0  0  0  0  0
  140.5090   72.9960  221.0580 N   0  0  0  0  0  0  0  0  0  0  0  0
  141.1120   74.2240  220.6040 C   0  0  0  0  0  0  0  0  0  0  0  0
  142.3470   74.2220  220.4180 O   0  0  0  0  0  0  0  0  0  0  0  0
  140.2060   75.3660  220.4060 C   0  0  0  0  0  0  0  0  0  0  0  0
  140.7640   76.7100  220.7310 C   0  0  2  0  0  0  0  0  0  0  0  0
  142.1940   76.7710  220.3910 N   0  0  0  0  0  0  0  0  0  0  0  0
  140.5640   77.1570  222.1300 C   0  0  0  0  0  0  0  0  0  0  0  0
  139.1000   77.1910  222.4410 C   0  0  0  0  0  0  0  0  0  0  0  0
  138.3730   78.3790  222.4160 C   0  0  0  0  0  0  0  0  0  0  0  0
  137.0440   78.4690  222.6770 C   0  0  0  0  0  0  0  0  0  0  0  0
  136.3540   77.3070  222.9920 C   0  0  0  0  0  0  0  0  0  0  0  0
  137.0120   76.1030  223.0340 C   0  0  0  0  0  0  0  0  0  0  0  0
  138.3800   76.0590  222.7570 C   0  0  0  0  0  0  0  0  0  0  0  0
  141.2200   78.4070  222.5240 C   0  0  0  0  0  0  0  0  0  0  0  0
  141.6860   78.6940  223.7880 C   0  0  0  0  0  0  0  0  0  0  0  0
  142.3040   79.8970  224.1030 C   0  0  0  0  0  0  0  0  0  0  0  0
  142.4730   80.8660  223.1270 C   0  0  0  0  0  0  0  0  0  0  0  0
  142.0100   80.5990  221.8380 C   0  0  0  0  0  0  0  0  0  0  0  0
  141.4070   79.4040  221.5680 C   0  0  0  0  0  0  0  0  0  0  0  0
  141.3580   71.8110  221.2960 C   0  0  0  0  0  0  0  0  0  0  0  0
  141.0850   71.5170  222.8100 C   0  0  0  0  0  0  0  0  0  0  0  0
  138.9223   67.0245  223.6026 H   0  0  0  0  0  0  0  0  0  0  0  0
  138.2265   66.4151  222.0628 H   0  0  0  0  0  0  0  0  0  0  0  0
  139.8213   67.2418  222.0628 H   0  0  0  0  0  0  0  0  0  0  0  0
  138.6878   69.0614  221.5221 H   0  0  0  0  0  0  0  0  0  0  0  0
  137.1041   68.2849  222.0518 H   0  0  0  0  0  0  0  0  0  0  0  0
  139.2450   68.1839  225.5934 H   0  0  0  0  0  0  0  0  0  0  0  0
  140.1817   68.0972  227.8475 H   0  0  0  0  0  0  0  0  0  0  0  0
  141.2210   70.1104  228.8666 H   0  0  0  0  0  0  0  0  0  0  0  0
  141.2688   72.2041  227.5379 H   0  0  0  0  0  0  0  0  0  0  0  0
  140.3236   72.2977  225.2578 H   0  0  0  0  0  0  0  0  0  0  0  0
  139.5869   70.4427  221.9798 H   0  0  0  0  0  0  0  0  0  0  0  0
  137.7359   72.0875  222.8334 H   0  0  0  0  0  0  0  0  0  0  0  0
  139.0194   73.0918  223.5009 H   0  0  0  0  0  0  0  0  0  0  0  0
  138.6487   72.1899  220.5662 H   0  0  0  0  0  0  0  0  0  0  0  0
  138.6350   73.8811  221.2124 H   0  0  0  0  0  0  0  0  0  0  0  0
  139.9024   75.3748  219.3488 H   0  0  0  0  0  0  0  0  0  0  0  0
  139.3771   75.2115  221.1124 H   0  0  0  0  0  0  0  0  0  0  0  0
  140.1841   77.4095  220.1111 H   0  0  0  0  0  0  0  0  0  0  0  0
  142.3980   76.2580  219.5030 H   0  0  0  0  0  0  0  0  0  0  0  0
  142.7570   76.3060  221.1430 H   0  0  0  0  0  0  0  0  0  0  0  0
  141.0823   76.4046  222.7425 H   0  0  0  0  0  0  0  0  0  0  0  0
  138.9116   79.3056  222.1683 H   0  0  0  0  0  0  0  0  0  0  0  0
  136.5268   79.4391  222.6397 H   0  0  0  0  0  0  0  0  0  0  0  0
  135.2765   77.3508  223.2087 H   0  0  0  0  0  0  0  0  0  0  0  0
  136.4665   75.1810  223.2836 H   0  0  0  0  0  0  0  0  0  0  0  0
  138.8995   75.0900  222.7921 H   0  0  0  0  0  0  0  0  0  0  0  0
  141.5637   77.9401  224.5796 H   0  0  0  0  0  0  0  0  0  0  0  0
  142.6595   80.0808  225.1276 H   0  0  0  0  0  0  0  0  0  0  0  0
  142.9608   81.8233  223.3628 H   0  0  0  0  0  0  0  0  0  0  0  0
  142.1304   81.3487  221.0421 H   0  0  0  0  0  0  0  0  0  0  0  0
  141.0507   79.2187  220.5439 H   0  0  0  0  0  0  0  0  0  0  0  0
  141.0515   70.9655  220.6626 H   0  0  0  0  0  0  0  0  0  0  0  0
  142.4202   71.9703  221.0586 H   0  0  0  0  0  0  0  0  0  0  0  0
  141.7282   70.7016  223.1725 H   0  0  0  0  0  0  0  0  0  0  0  0
  141.2991   72.3817  223.4553 H   0  0  0  0  0  0  0  0  0  0  0  0
  1  2  1  0
  2  3  1  0
  3  4  2  0
  3  5  1  0
  5  6  1  0
  6  7  2  0
  7  8  1  0
  8  9  2  0
  9 10  1  0
 10 11  2  0
  5 12  1  0
 12 13  1  0
 13 14  1  0
 14 15  1  0
 15 16  1  0
 16 17  2  0
 16 18  1  0
 18 19  1  0
 19 20  1  0
 19 21  1  0
 21 22  1  0
 22 23  2  0
 23 24  1  0
 24 25  2  0
 25 26  1  0
 26 27  2  0
 21 28  1  0
 28 29  2  0
 29 30  1  0
 30 31  2  0
 31 32  1  0
 32 33  2  0
 15 34  1  0
 34 35  1  0
 11  6  1  0
 35 12  1  0
 27 22  1  0
 33 28  1  0
  1 36  1  0
  1 37  1  0
  1 38  1  0
  2 39  1  0
  2 40  1  0
  7 41  1  0
  8 42  1  0
  9 43  1  0
 10 44  1  0
 11 45  1  0
 12 46  1  0
 13 47  1  0
 13 48  1  0
 14 49  1  0
 14 50  1  0
 18 51  1  0
 18 52  1  0
 19 53  1  6
 20 54  1  0
 20 55  1  0
 21 56  1  0
 23 57  1  0
 24 58  1  0
 25 59  1  0
 26 60  1  0
 27 61  1  0
 29 62  1  0
 30 63  1  0
 31 64  1  0
 32 65  1  0
 33 66  1  0
 34 67  1  0
 34 68  1  0
 35 69  1  0
 35 70  1  0
M  END
>  <smiles>  (28) 
CCC(=O)N(c1ccccc1)C1CCN(C(=O)CC(N)C(c2ccccc2)c2ccccc2)CC1

>  <score_type>  (28) 
oracle

>  <origin>  (28) 
autodockgpu

>  <m_score__min__energy>  (28) 
-8.6799999999999997

>  <m_primary>  (28) 
energy

>  <rmsd>  (28) 
7.375874672223885

>  <m_score__min__rmsd>  (28) 
7.375874672223885

>  <meeko>  (28) 
{"free_energy": -8.24, "intermolecular_energy": -11.22, "internal_energy": -3.3, "cluster_size": 36, "cluster_id": 1, "rank_in_cluster": 32}

>  <energy>  (28) 
-8.29

>  <cluster_rmsd>  (28) 
0.69

>  <cluster>  (28) 
1

$$$$

     RDKit          3D

 70 73  0  0  0  0  0  0  0  0999 V2000
  146.3530   73.3260  221.7100 C   0  0  0  0  0  0  0  0  0  0  0  0
  145.7080   73.8990  220.5010 C   0  0  0  0  0  0  0  0  0  0  0  0
  145.4710   72.9440  219.3950 C   0  0  0  0  0  0  0  0  0  0  0  0
  146.2460   73.0510  218.4100 O   0  0  0  0  0  0  0  0  0  0  0  0
  144.4080   71.9480  219.4410 N   0  0  0  0  0  0  0  0  0  0  0  0
  144.7200   70.5580  219.3720 C   0  0  0  0  0  0  0  0  0  0  0  0
  145.9630   70.0720  219.0270 C   0  0  0  0  0  0  0  0  0  0  0  0
  146.2890   68.7290  218.9970 C   0  0  0  0  0  0  0  0  0  0  0  0
  145.3610   67.7780  219.3200 C   0  0  0  0  0  0  0  0  0  0  0  0
  144.1070   68.2160  219.6710 C   0  0  0  0  0  0  0  0  0  0  0  0
  143.7830   69.5750  219.7000 C   0  0  0  0  0  0  0  0  0  0  0  0
  143.0900   72.4970  219.5520 C   0  0  0  0  0  0  0  0  0  0  0  0
  142.8550   73.0360  220.9380 C   0  0  0  0  0  0  0  0  0  0  0  0
  141.3210   73.1070  221.0710 C   0  0  0  0  0  0  0  0  0  0  0  0
  140.7230   73.7910  219.9400 N   0  0  0  0  0  0  0  0  0  0  0  0
  139.8300   74.9100  220.1060 C   0  0  0  0  0  0  0  0  0  0  0  0
  139.3630   75.4290  219.0700 O   0  0  0  0  0  0  0  0  0  0  0  0
  139.5570   75.3340  221.4890 C   0  0  0  0  0  0  0  0  0  0  0  0
  139.7380   76.7850  221.7780 C   0  0  2  0  0  0  0  0  0  0  0  0
  138.9200   77.5990  220.8640 N   0  0  0  0  0  0  0  0  0  0  0  0
  141.1400   77.2660  221.7560 C   0  0  0  0  0  0  0  0  0  0  0  0
  141.2360   78.5640  222.4940 C   0  0  0  0  0  0  0  0  0  0  0  0
  142.4350   79.2680  222.5860 C   0  0  0  0  0  0  0  0  0  0  0  0
  142.5790   80.4530  223.2320 C   0  0  0  0  0  0  0  0  0  0  0  0
  141.4650   81.0100  223.8440 C   0  0  0  0  0  0  0  0  0  0  0  0
  140.2530   80.3670  223.7910 C   0  0  0  0  0  0  0  0  0  0  0  0
  140.1530   79.1490  223.1150 C   0  0  0  0  0  0  0  0  0  0  0  0
  141.7880   77.3510  220.4440 C   0  0  0  0  0  0  0  0  0  0  0  0
  142.7420   76.4770  219.9720 C   0  0  0  0  0  0  0  0  0  0  0  0
  143.3200   76.6050  218.7160 C   0  0  0  0  0  0  0  0  0  0  0  0
  142.9410   77.6450  217.8830 C   0  0  0  0  0  0  0  0  0  0  0  0
  141.9770   78.5450  218.3370 C   0  0  0  0  0  0  0  0  0  0  0  0
  141.4320   78.3850  219.5790 C   0  0  0  0  0  0  0  0  0  0  0  0
  141.0580   73.3190  218.5810 C   0  0  0  0  0  0  0  0  0  0  0  0
  142.6150   73.4820  218.5570 C   0  0  0  0  0  0  0  0  0  0  0  0
  145.8811   73.7452  222.6109 H   0  0  0  0  0  0  0  0  0  0  0  0
  146.2313   72.2328  221.7073 H   0  0  0  0  0  0  0  0  0  0  0  0
  147.4243   73.5757  221.7073 H   0  0  0  0  0  0  0  0  0  0  0  0
  144.7365   74.3186  220.8012 H   0  0  0  0  0  0  0  0  0  0  0  0
  146.4110   74.6487  220.1088 H   0  0  0  0  0  0  0  0  0  0  0  0
  146.7443   70.7983  218.7588 H   0  0  0  0  0  0  0  0  0  0  0  0
  147.3056   68.4220  218.7103 H   0  0  0  0  0  0  0  0  0  0  0  0
  145.6083   66.7064  219.2997 H   0  0  0  0  0  0  0  0  0  0  0  0
  143.3370   67.4767  219.9365 H   0  0  0  0  0  0  0  0  0  0  0  0
  142.7656   69.8781  219.9880 H   0  0  0  0  0  0  0  0  0  0  0  0
  142.4789   71.6129  219.3174 H   0  0  0  0  0  0  0  0  0  0  0  0
  143.2798   72.3603  221.6949 H   0  0  0  0  0  0  0  0  0  0  0  0
  143.3334   74.0144  221.0924 H   0  0  0  0  0  0  0  0  0  0  0  0
  140.9187   72.0846  221.1246 H   0  0  0  0  0  0  0  0  0  0  0  0
  141.0783   73.6702  221.9842 H   0  0  0  0  0  0  0  0  0  0  0  0
  138.5140   75.0727  221.7209 H   0  0  0  0  0  0  0  0  0  0  0  0
  140.3015   74.8140  222.1098 H   0  0  0  0  0  0  0  0  0  0  0  0
  139.4011   76.9054  222.8182 H   0  0  0  0  0  0  0  0  0  0  0  0
  138.0890   78.0030  221.3520 H   0  0  0  0  0  0  0  0  0  0  0  0
  138.5500   76.9970  220.0890 H   0  0  0  0  0  0  0  0  0  0  0  0
  141.7161   76.4782  222.2633 H   0  0  0  0  0  0  0  0  0  0  0  0
  143.3234   78.8348  222.1032 H   0  0  0  0  0  0  0  0  0  0  0  0
  143.5548   80.9594  223.2695 H   0  0  0  0  0  0  0  0  0  0  0  0
  141.5533   81.9701  224.3735 H   0  0  0  0  0  0  0  0  0  0  0  0
  139.3693   80.8069  224.2763 H   0  0  0  0  0  0  0  0  0  0  0  0
  139.1786   78.6400  223.0768 H   0  0  0  0  0  0  0  0  0  0  0  0
  143.0590   75.6436  220.6162 H   0  0  0  0  0  0  0  0  0  0  0  0
  144.0783   75.8812  218.3827 H   0  0  0  0  0  0  0  0  0  0  0  0
  143.3904   77.7585  216.8854 H   0  0  0  0  0  0  0  0  0  0  0  0
  141.6569   79.3805  217.6971 H   0  0  0  0  0  0  0  0  0  0  0  0
  140.6740   79.1084  219.9138 H   0  0  0  0  0  0  0  0  0  0  0  0
  140.7634   72.2688  218.4383 H   0  0  0  0  0  0  0  0  0  0  0  0
  140.5413   73.8679  217.7799 H   0  0  0  0  0  0  0  0  0  0  0  0
  143.0171   73.2551  217.5586 H   0  0  0  0  0  0  0  0  0  0  0  0
  142.9381   74.5079  218.7874 H   0  0  0  0  0  0  0  0  0  0  0  0
  1  2  1  0
  2  3  1  0
  3  4  2  0
  3  5  1  0
  5  6  1  0
  6  7  2  0
  7  8  1  0
  8  9  2  0
  9 10  1  0
 10 11  2  0
  5 12  1  0
 12 13  1  0
 13 14  1  0
 14 15  1  0
 15 16  1  0
 16 17  2  0
 16 18  1  0
 18 19  1  0
 19 20  1  0
 19 21  1  0
 21 22  1  0
 22 23  2  0
 23 24  1  0
 24 25  2  0
 25 26  1  0
 26 27  2  0
 21 28  1  0
 28 29  2  0
 29 30  1  0
 30 31  2  0
 31 32  1  0
 32 33  2  0
 15 34  1  0
 34 35  1  0
 11  6  1  0
 35 12  1  0
 27 22  1  0
 33 28  1  0
  1 36  1  0
  1 37  1  0
  1 38  1  0
  2 39  1  0
  2 40  1  0
  7 41  1  0
  8 42  1  0
  9 43  1  0
 10 44  1  0
 11 45  1  0
 12 46  1  0
 13 47  1  0
 13 48  1  0
 14 49  1  0
 14 50  1  0
 18 51  1  0
 18 52  1  0
 19 53  1  1
 20 54  1  0
 20 55  1  0
 21 56  1  0
 23 57  1  0
 24 58  1  0
 25 59  1  0
 26 60  1  0
 27 61  1  0
 29 62  1  0
 30 63  1  0
 31 64  1  0
 32 65  1  0
 33 66  1  0
 34 67  1  0
 34 68  1  0
 35 69  1  0
 35 70  1  0
M  END
>  <smiles>  (29) 
CCC(=O)N(c1ccccc1)C1CCN(C(=O)CC(N)C(c2ccccc2)c2ccccc2)CC1

>  <score_type>  (29) 
oracle

>  <origin>  (29) 
autodockgpu

>  <m_score__min__energy>  (29) 
-8.6799999999999997

>  <m_primary>  (29) 
energy

>  <rmsd>  (29) 
8.403763944257882

>  <m_score__min__rmsd>  (29) 
8.403763944257882

>  <meeko>  (29) 
{"free_energy": -7.97, "intermolecular_energy": -10.96, "internal_energy": -3.54, "cluster_size": 12, "cluster_id": 2, "rank_in_cluster": 1}

>  <energy>  (29) 
-8.27

>  <cluster_rmsd>  (29) 
0.99

>  <cluster>  (29) 
1

$$$$

     RDKit          3D

 70 73  0  0  0  0  0  0  0  0999 V2000
  138.4990   68.0110  222.4240 C   0  0  0  0  0  0  0  0  0  0  0  0
  137.4680   69.0790  222.3800 C   0  0  0  0  0  0  0  0  0  0  0  0
  137.6840   70.2070  223.3150 C   0  0  0  0  0  0  0  0  0  0  0  0
  136.6410   70.7150  223.8010 O   0  0  0  0  0  0  0  0  0  0  0  0
  139.0140   70.6990  223.6470 N   0  0  0  0  0  0  0  0  0  0  0  0
  139.5960   70.4020  224.9150 C   0  0  0  0  0  0  0  0  0  0  0  0
  140.2020   71.3460  225.7160 C   0  0  0  0  0  0  0  0  0  0  0  0
  140.7320   71.0780  226.9640 C   0  0  0  0  0  0  0  0  0  0  0  0
  140.6800   69.8160  227.4880 C   0  0  0  0  0  0  0  0  0  0  0  0
  140.0850   68.8410  226.7260 C   0  0  0  0  0  0  0  0  0  0  0  0
  139.5510   69.1170  225.4640 C   0  0  0  0  0  0  0  0  0  0  0  0
  139.6310   71.4760  222.6140 C   0  0  0  0  0  0  0  0  0  0  0  0
  138.8370   72.7270  222.3470 C   0  0  0  0  0  0  0  0  0  0  0  0
  139.2840   73.1760  220.9410 C   0  0  0  0  0  0  0  0  0  0  0  0
  140.7300   73.2260  220.8370 N   0  0  0  0  0  0  0  0  0  0  0  0
  141.4250   74.4070  220.3880 C   0  0  0  0  0  0  0  0  0  0  0  0
  142.6720   74.3490  220.3290 O   0  0  0  0  0  0  0  0  0  0  0  0
  140.5920   75.5700  220.0460 C   0  0  0  0  0  0  0  0  0  0  0  0
  141.1280   76.9020  220.4470 C   0  0  2  0  0  0  0  0  0  0  0  0
  142.5650   76.9920  220.1470 N   0  0  0  0  0  0  0  0  0  0  0  0
  140.8880   77.2810  221.8610 C   0  0  0  0  0  0  0  0  0  0  0  0
  139.4240   77.1970  222.1600 C   0  0  0  0  0  0  0  0  0  0  0  0
  138.5680   78.2730  221.9400 C   0  0  0  0  0  0  0  0  0  0  0  0
  137.2330   78.2520  222.1820 C   0  0  0  0  0  0  0  0  0  0  0  0
  136.6730   77.0850  222.6830 C   0  0  0  0  0  0  0  0  0  0  0  0
  137.4610   75.9870  222.9240 C   0  0  0  0  0  0  0  0  0  0  0  0
  138.8310   76.0560  222.6580 C   0  0  0  0  0  0  0  0  0  0  0  0
  141.4490   78.5590  222.3060 C   0  0  0  0  0  0  0  0  0  0  0  0
  141.6810   79.6490  221.4960 C   0  0  0  0  0  0  0  0  0  0  0  0
  142.2120   80.8390  221.9760 C   0  0  0  0  0  0  0  0  0  0  0  0
  142.5310   80.9640  223.3190 C   0  0  0  0  0  0  0  0  0  0  0  0
  142.3050   79.8740  224.1600 C   0  0  0  0  0  0  0  0  0  0  0  0
  141.7810   78.7210  223.6510 C   0  0  0  0  0  0  0  0  0  0  0  0
  141.5000   72.0240  221.2160 C   0  0  0  0  0  0  0  0  0  0  0  0
  141.0660   71.8190  222.7060 C   0  0  0  0  0  0  0  0  0  0  0  0
  138.7322   67.7694  223.4715 H   0  0  0  0  0  0  0  0  0  0  0  0
  138.1180   67.1125  221.9165 H   0  0  0  0  0  0  0  0  0  0  0  0
  139.4104   68.3601  221.9165 H   0  0  0  0  0  0  0  0  0  0  0  0
  137.4428   69.4850  221.3580 H   0  0  0  0  0  0  0  0  0  0  0  0
  136.5252   68.6042  222.6894 H   0  0  0  0  0  0  0  0  0  0  0  0
  140.2679   72.3770  225.3384 H   0  0  0  0  0  0  0  0  0  0  0  0
  141.2005   71.8883  227.5418 H   0  0  0  0  0  0  0  0  0  0  0  0
  141.0981   69.5909  228.4803 H   0  0  0  0  0  0  0  0  0  0  0  0
  140.0270   67.8153  227.1191 H   0  0  0  0  0  0  0  0  0  0  0  0
  139.0842   68.3037  224.8891 H   0  0  0  0  0  0  0  0  0  0  0  0
  139.6137   70.7595  221.7796 H   0  0  0  0  0  0  0  0  0  0  0  0
  137.7581   72.5133  222.3621 H   0  0  0  0  0  0  0  0  0  0  0  0
  139.0098   73.5022  223.1080 H   0  0  0  0  0  0  0  0  0  0  0  0
  138.8960   72.4641  220.1976 H   0  0  0  0  0  0  0  0  0  0  0  0
  138.8882   74.1858  220.7576 H   0  0  0  0  0  0  0  0  0  0  0  0
  140.4568   75.5770  218.9544 H   0  0  0  0  0  0  0  0  0  0  0  0
  139.6597   75.4432  220.6159 H   0  0  0  0  0  0  0  0  0  0  0  0
  140.5571   77.6246  219.8454 H   0  0  0  0  0  0  0  0  0  0  0  0
  143.1270   76.3760  220.7800 H   0  0  0  0  0  0  0  0  0  0  0  0
  142.9000   77.9730  220.3080 H   0  0  0  0  0  0  0  0  0  0  0  0
  141.4561   76.5461  222.4502 H   0  0  0  0  0  0  0  0  0  0  0  0
  139.0031   79.2022  221.5435 H   0  0  0  0  0  0  0  0  0  0  0  0
  136.6104   79.1374  221.9861 H   0  0  0  0  0  0  0  0  0  0  0  0
  135.5932   77.0397  222.8878 H   0  0  0  0  0  0  0  0  0  0  0  0
  137.0183   75.0622  223.3225 H   0  0  0  0  0  0  0  0  0  0  0  0
  139.4563   75.1721  222.8520 H   0  0  0  0  0  0  0  0  0  0  0  0
  141.4358   79.5737  220.4263 H   0  0  0  0  0  0  0  0  0  0  0  0
  142.3795   81.6826  221.2902 H   0  0  0  0  0  0  0  0  0  0  0  0
  142.9525   81.9007  223.7126 H   0  0  0  0  0  0  0  0  0  0  0  0
  142.5484   79.9436  225.2305 H   0  0  0  0  0  0  0  0  0  0  0  0
  141.6120   77.8771  224.3360 H   0  0  0  0  0  0  0  0  0  0  0  0
  141.2224   71.1590  220.5958 H   0  0  0  0  0  0  0  0  0  0  0  0
  142.5863   72.1310  221.0802 H   0  0  0  0  0  0  0  0  0  0  0  0
  141.6352   71.0002  223.1704 H   0  0  0  0  0  0  0  0  0  0  0  0
  141.2510   72.7073  223.3279 H   0  0  0  0  0  0  0  0  0  0  0  0
  1  2  1  0
  2  3  1  0
  3  4  2  0
  3  5  1  0
  5  6  1  0
  6  7  2  0
  7  8  1  0
  8  9  2  0
  9 10  1  0
 10 11  2  0
  5 12  1  0
 12 13  1  0
 13 14  1  0
 14 15  1  0
 15 16  1  0
 16 17  2  0
 16 18  1  0
 18 19  1  0
 19 20  1  0
 19 21  1  0
 21 22  1  0
 22 23  2  0
 23 24  1  0
 24 25  2  0
 25 26  1  0
 26 27  2  0
 21 28  1  0
 28 29  2  0
 29 30  1  0
 30 31  2  0
 31 32  1  0
 32 33  2  0
 15 34  1  0
 34 35  1  0
 11  6  1  0
 35 12  1  0
 27 22  1  0
 33 28  1  0
  1 36  1  0
  1 37  1  0
  1 38  1  0
  2 39  1  0
  2 40  1  0
  7 41  1  0
  8 42  1  0
  9 43  1  0
 10 44  1  0
 11 45  1  0
 12 46  1  0
 13 47  1  0
 13 48  1  0
 14 49  1  0
 14 50  1  0
 18 51  1  0
 18 52  1  0
 19 53  1  6
 20 54  1  0
 20 55  1  0
 21 56  1  0
 23 57  1  0
 24 58  1  0
 25 59  1  0
 26 60  1  0
 27 61  1  0
 29 62  1  0
 30 63  1  0
 31 64  1  0
 32 65  1  0
 33 66  1  0
 34 67  1  0
 34 68  1  0
 35 69  1  0
 35 70  1  0
M  END
>  <smiles>  (30) 
CCC(=O)N(c1ccccc1)C1CCN(C(=O)CC(N)C(c2ccccc2)c2ccccc2)CC1

>  <score_type>  (30) 
oracle

>  <origin>  (30) 
autodockgpu

>  <m_score__min__energy>  (30) 
-8.6799999999999997

>  <m_primary>  (30) 
energy

>  <rmsd>  (30) 
7.453741600003426

>  <m_score__min__rmsd>  (30) 
7.453741600003426

>  <meeko>  (30) 
{"free_energy": -8.47, "intermolecular_energy": -11.45, "internal_energy": -3.11, "cluster_size": 36, "cluster_id": 1, "rank_in_cluster": 13}

>  <energy>  (30) 
-8.26

>  <cluster_rmsd>  (30) 
0.99

>  <cluster>  (30) 
1

$$$$

     RDKit          3D

 70 73  0  0  0  0  0  0  0  0999 V2000
  135.8980   71.0160  224.1670 C   0  0  0  0  0  0  0  0  0  0  0  0
  136.6330   69.7450  224.3960 C   0  0  0  0  0  0  0  0  0  0  0  0
  137.8760   69.5810  223.6080 C   0  0  0  0  0  0  0  0  0  0  0  0
  137.7900   68.8200  222.6110 O   0  0  0  0  0  0  0  0  0  0  0  0
  139.1180   70.2540  223.9650 N   0  0  0  0  0  0  0  0  0  0  0  0
  139.7010   70.0540  225.2510 C   0  0  0  0  0  0  0  0  0  0  0  0
  140.1770   71.0800  226.0400 C   0  0  0  0  0  0  0  0  0  0  0  0
  140.7050   70.9030  227.3050 C   0  0  0  0  0  0  0  0  0  0  0  0
  140.7870   69.6560  227.8600 C   0  0  0  0  0  0  0  0  0  0  0  0
  140.3240   68.6020  227.1100 C   0  0  0  0  0  0  0  0  0  0  0  0
  139.7900   68.7860  225.8320 C   0  0  0  0  0  0  0  0  0  0  0  0
  139.6510   71.0950  222.9350 C   0  0  0  0  0  0  0  0  0  0  0  0
  138.7700   72.2970  222.7240 C   0  0  0  0  0  0  0  0  0  0  0  0
  139.1430   72.8080  221.3180 C   0  0  0  0  0  0  0  0  0  0  0  0
  140.5780   72.9550  221.1730 N   0  0  0  0  0  0  0  0  0  0  0  0
  141.1820   74.1890  220.7350 C   0  0  0  0  0  0  0  0  0  0  0  0
  142.4270   74.2140  220.6370 O   0  0  0  0  0  0  0  0  0  0  0  0
  140.2650   75.3030  220.4470 C   0  0  0  0  0  0  0  0  0  0  0  0
  140.7910   76.6720  220.7170 C   0  0  2  0  0  0  0  0  0  0  0  0
  142.2180   76.7540  220.3680 N   0  0  0  0  0  0  0  0  0  0  0  0
  140.5840   77.1690  222.0980 C   0  0  0  0  0  0  0  0  0  0  0  0
  139.1210   77.1970  222.4070 C   0  0  0  0  0  0  0  0  0  0  0  0
  138.3890   78.3830  222.3820 C   0  0  0  0  0  0  0  0  0  0  0  0
  137.0600   78.4670  222.6420 C   0  0  0  0  0  0  0  0  0  0  0  0
  136.3740   77.3020  222.9550 C   0  0  0  0  0  0  0  0  0  0  0  0
  137.0360   76.1000  222.9960 C   0  0  0  0  0  0  0  0  0  0  0  0
  138.4040   76.0620  222.7210 C   0  0  0  0  0  0  0  0  0  0  0  0
  141.2250   78.4410  222.4450 C   0  0  0  0  0  0  0  0  0  0  0  0
  141.5100   79.4540  221.5560 C   0  0  0  0  0  0  0  0  0  0  0  0
  142.1160   80.6420  221.9440 C   0  0  0  0  0  0  0  0  0  0  0  0
  142.4590   80.8430  223.2720 C   0  0  0  0  0  0  0  0  0  0  0  0
  142.1810   79.8330  224.1920 C   0  0  0  0  0  0  0  0  0  0  0  0
  141.5830   78.6790  223.7710 C   0  0  0  0  0  0  0  0  0  0  0  0
  141.4360   71.7970  221.4970 C   0  0  0  0  0  0  0  0  0  0  0  0
  141.0630   71.5280  222.9940 C   0  0  0  0  0  0  0  0  0  0  0  0
  135.6366   71.4680  225.1352 H   0  0  0  0  0  0  0  0  0  0  0  0
  136.5341   71.7101  223.5982 H   0  0  0  0  0  0  0  0  0  0  0  0
  134.9791   70.8108  223.5982 H   0  0  0  0  0  0  0  0  0  0  0  0
  136.8975   69.6930  225.4624 H   0  0  0  0  0  0  0  0  0  0  0  0
  135.9578   68.9405  224.0692 H   0  0  0  0  0  0  0  0  0  0  0  0
  140.1338   72.1028  225.6376 H   0  0  0  0  0  0  0  0  0  0  0  0
  141.0633   71.7751  227.8717 H   0  0  0  0  0  0  0  0  0  0  0  0
  141.2063   69.5030  228.8654 H   0  0  0  0  0  0  0  0  0  0  0  0
  140.3751   67.5854  227.5271 H   0  0  0  0  0  0  0  0  0  0  0  0
  139.4309   67.9116  225.2695 H   0  0  0  0  0  0  0  0  0  0  0  0
  139.6539   70.3999  222.0825 H   0  0  0  0  0  0  0  0  0  0  0  0
  137.7082   72.0127  222.7652 H   0  0  0  0  0  0  0  0  0  0  0  0
  138.9158   73.0634  223.4995 H   0  0  0  0  0  0  0  0  0  0  0  0
  138.7790   72.0904  220.5680 H   0  0  0  0  0  0  0  0  0  0  0  0
  138.6772   73.7938  221.1727 H   0  0  0  0  0  0  0  0  0  0  0  0
  139.9962   75.2503  219.3817 H   0  0  0  0  0  0  0  0  0  0  0  0
  139.4158   75.1719  221.1338 H   0  0  0  0  0  0  0  0  0  0  0  0
  140.1922   77.3329  220.0731 H   0  0  0  0  0  0  0  0  0  0  0  0
  142.4420   76.1690  219.5310 H   0  0  0  0  0  0  0  0  0  0  0  0
  142.7970   76.3810  221.1590 H   0  0  0  0  0  0  0  0  0  0  0  0
  141.1104   76.4462  222.7386 H   0  0  0  0  0  0  0  0  0  0  0  0
  138.9240   79.3119  222.1353 H   0  0  0  0  0  0  0  0  0  0  0  0
  136.5389   79.4351  222.6056 H   0  0  0  0  0  0  0  0  0  0  0  0
  135.2961   77.3418  223.1710 H   0  0  0  0  0  0  0  0  0  0  0  0
  136.4935   75.1756  223.2432 H   0  0  0  0  0  0  0  0  0  0  0  0
  138.9271   75.0949  222.7559 H   0  0  0  0  0  0  0  0  0  0  0  0
  141.2472   79.3166  220.4967 H   0  0  0  0  0  0  0  0  0  0  0  0
  142.3237   81.4231  221.1978 H   0  0  0  0  0  0  0  0  0  0  0  0
  142.9399   81.7788  223.5929 H   0  0  0  0  0  0  0  0  0  0  0  0
  142.4421   79.9647  225.2524 H   0  0  0  0  0  0  0  0  0  0  0  0
  141.3733   77.8978  224.5165 H   0  0  0  0  0  0  0  0  0  0  0  0
  141.1956   70.9310  220.8628 H   0  0  0  0  0  0  0  0  0  0  0  0
  142.5083   71.9780  221.3316 H   0  0  0  0  0  0  0  0  0  0  0  0
  141.6977   70.7368  223.4196 H   0  0  0  0  0  0  0  0  0  0  0  0
  141.2101   72.4108  223.6336 H   0  0  0  0  0  0  0  0  0  0  0  0
  1  2  1  0
  2  3  1  0
  3  4  2  0
  3  5  1  0
  5  6  1  0
  6  7  2  0
  7  8  1  0
  8  9  2  0
  9 10  1  0
 10 11  2  0
  5 12  1  0
 12 13  1  0
 13 14  1  0
 14 15  1  0
 15 16  1  0
 16 17  2  0
 16 18  1  0
 18 19  1  0
 19 20  1  0
 19 21  1  0
 21 22  1  0
 22 23  2  0
 23 24  1  0
 24 25  2  0
 25 26  1  0
 26 27  2  0
 21 28  1  0
 28 29  2  0
 29 30  1  0
 30 31  2  0
 31 32  1  0
 32 33  2  0
 15 34  1  0
 34 35  1  0
 11  6  1  0
 35 12  1  0
 27 22  1  0
 33 28  1  0
  1 36  1  0
  1 37  1  0
  1 38  1  0
  2 39  1  0
  2 40  1  0
  7 41  1  0
  8 42  1  0
  9 43  1  0
 10 44  1  0
 11 45  1  0
 12 46  1  0
 13 47  1  0
 13 48  1  0
 14 49  1  0
 14 50  1  0
 18 51  1  0
 18 52  1  0
 19 53  1  6
 20 54  1  0
 20 55  1  0
 21 56  1  0
 23 57  1  0
 24 58  1  0
 25 59  1  0
 26 60  1  0
 27 61  1  0
 29 62  1  0
 30 63  1  0
 31 64  1  0
 32 65  1  0
 33 66  1  0
 34 67  1  0
 34 68  1  0
 35 69  1  0
 35 70  1  0
M  END
>  <smiles>  (31) 
CCC(=O)N(c1ccccc1)C1CCN(C(=O)CC(N)C(c2ccccc2)c2ccccc2)CC1

>  <score_type>  (31) 
oracle

>  <origin>  (31) 
autodockgpu

>  <m_score__min__energy>  (31) 
-8.6799999999999997

>  <m_primary>  (31) 
energy

>  <rmsd>  (31) 
7.38148659150969

>  <m_score__min__rmsd>  (31) 
7.38148659150969

>  <meeko>  (31) 
{"free_energy": -8.22, "intermolecular_energy": -11.2, "internal_energy": -3.32, "cluster_size": 36, "cluster_id": 1, "rank_in_cluster": 34}

>  <energy>  (31) 
-8.26

>  <cluster_rmsd>  (31) 
0.8

>  <cluster>  (31) 
1

$$$$

     RDKit          3D

 70 73  0  0  0  0  0  0  0  0999 V2000
  136.0930   70.4100  224.1670 C   0  0  0  0  0  0  0  0  0  0  0  0
  136.8080   69.6160  223.1350 C   0  0  0  0  0  0  0  0  0  0  0  0
  138.1990   69.2410  223.4740 C   0  0  0  0  0  0  0  0  0  0  0  0
  138.4670   68.0150  223.3860 O   0  0  0  0  0  0  0  0  0  0  0  0
  139.1920   70.2240  223.8850 N   0  0  0  0  0  0  0  0  0  0  0  0
  139.6350   70.2780  225.2390 C   0  0  0  0  0  0  0  0  0  0  0  0
  140.3080   71.3530  225.7800 C   0  0  0  0  0  0  0  0  0  0  0  0
  140.7050   71.4330  227.1010 C   0  0  0  0  0  0  0  0  0  0  0  0
  140.4400   70.4130  227.9730 C   0  0  0  0  0  0  0  0  0  0  0  0
  139.7710   69.3200  227.4790 C   0  0  0  0  0  0  0  0  0  0  0  0
  139.3720   69.2430  226.1420 C   0  0  0  0  0  0  0  0  0  0  0  0
  139.6410   71.0850  222.8320 C   0  0  0  0  0  0  0  0  0  0  0  0
  138.7460   72.2910  222.7160 C   0  0  0  0  0  0  0  0  0  0  0  0
  139.0060   72.8300  221.2940 C   0  0  0  0  0  0  0  0  0  0  0  0
  140.4250   72.9810  221.0370 N   0  0  0  0  0  0  0  0  0  0  0  0
  140.9920   74.2230  220.5760 C   0  0  0  0  0  0  0  0  0  0  0  0
  142.2250   74.2520  220.3790 O   0  0  0  0  0  0  0  0  0  0  0  0
  140.0560   75.3420  220.3850 C   0  0  0  0  0  0  0  0  0  0  0  0
  140.5990   76.7050  220.6500 C   0  0  2  0  0  0  0  0  0  0  0  0
  142.0140   76.7820  220.2560 N   0  0  0  0  0  0  0  0  0  0  0  0
  140.4410   77.1900  222.0420 C   0  0  0  0  0  0  0  0  0  0  0  0
  138.9880   77.2220  222.3990 C   0  0  0  0  0  0  0  0  0  0  0  0
  138.2580   78.4080  222.3970 C   0  0  0  0  0  0  0  0  0  0  0  0
  136.9390   78.4960  222.7010 C   0  0  0  0  0  0  0  0  0  0  0  0
  136.2610   77.3330  223.0390 C   0  0  0  0  0  0  0  0  0  0  0  0
  136.9220   76.1300  223.0610 C   0  0  0  0  0  0  0  0  0  0  0  0
  138.2810   76.0880  222.7400 C   0  0  0  0  0  0  0  0  0  0  0  0
  141.0990   78.4550  222.3790 C   0  0  0  0  0  0  0  0  0  0  0  0
  141.2730   79.5130  221.5140 C   0  0  0  0  0  0  0  0  0  0  0  0
  141.9020   80.6930  221.8920 C   0  0  0  0  0  0  0  0  0  0  0  0
  142.3830   80.8390  223.1830 C   0  0  0  0  0  0  0  0  0  0  0  0
  142.2180   79.7820  224.0780 C   0  0  0  0  0  0  0  0  0  0  0  0
  141.5940   78.6380  223.6690 C   0  0  0  0  0  0  0  0  0  0  0  0
  141.3060   71.8170  221.2690 C   0  0  0  0  0  0  0  0  0  0  0  0
  141.0540   71.5190  222.7850 C   0  0  0  0  0  0  0  0  0  0  0  0
  136.3987   70.0706  225.1677 H   0  0  0  0  0  0  0  0  0  0  0  0
  136.3429   71.4747  224.0488 H   0  0  0  0  0  0  0  0  0  0  0  0
  135.0080   70.2727  224.0488 H   0  0  0  0  0  0  0  0  0  0  0  0
  136.2389   68.6903  222.9643 H   0  0  0  0  0  0  0  0  0  0  0  0
  136.8759   70.2628  222.2479 H   0  0  0  0  0  0  0  0  0  0  0  0
  140.5435   72.1998  225.1186 H   0  0  0  0  0  0  0  0  0  0  0  0
  141.2399   72.3265  227.4552 H   0  0  0  0  0  0  0  0  0  0  0  0
  140.7501   70.4660  229.0271 H   0  0  0  0  0  0  0  0  0  0  0  0
  139.5430   68.4822  228.1544 H   0  0  0  0  0  0  0  0  0  0  0  0
  138.8385   68.3472  225.7915 H   0  0  0  0  0  0  0  0  0  0  0  0
  139.5752   70.4059  221.9692 H   0  0  0  0  0  0  0  0  0  0  0  0
  137.6907   72.0050  222.8364 H   0  0  0  0  0  0  0  0  0  0  0  0
  138.9537   73.0421  223.4924 H   0  0  0  0  0  0  0  0  0  0  0  0
  138.5824   72.1269  220.5617 H   0  0  0  0  0  0  0  0  0  0  0  0
  138.5310   73.8183  221.2060 H   0  0  0  0  0  0  0  0  0  0  0  0
  139.7094   75.3156  219.3414 H   0  0  0  0  0  0  0  0  0  0  0  0
  139.2603   75.1915  221.1295 H   0  0  0  0  0  0  0  0  0  0  0  0
  139.9834   77.3750  220.0318 H   0  0  0  0  0  0  0  0  0  0  0  0
  142.2000   76.2320  219.3850 H   0  0  0  0  0  0  0  0  0  0  0  0
  142.6140   76.3650  221.0080 H   0  0  0  0  0  0  0  0  0  0  0  0
  140.9851   76.4593  222.6584 H   0  0  0  0  0  0  0  0  0  0  0  0
  138.7864   79.3354  222.1311 H   0  0  0  0  0  0  0  0  0  0  0  0
  136.4194   79.4653  222.6802 H   0  0  0  0  0  0  0  0  0  0  0  0
  135.1909   77.3754  223.2900 H   0  0  0  0  0  0  0  0  0  0  0  0
  136.3864   75.2074  223.3290 H   0  0  0  0  0  0  0  0  0  0  0  0
  138.8035   75.1202  222.7599 H   0  0  0  0  0  0  0  0  0  0  0  0
  140.8993   79.4200  220.4836 H   0  0  0  0  0  0  0  0  0  0  0  0
  142.0180   81.5113  221.1661 H   0  0  0  0  0  0  0  0  0  0  0  0
  142.8836   81.7674  223.4951 H   0  0  0  0  0  0  0  0  0  0  0  0
  142.5892   79.8695  225.1098 H   0  0  0  0  0  0  0  0  0  0  0  0
  141.4761   77.8196  224.3945 H   0  0  0  0  0  0  0  0  0  0  0  0
  141.0150   70.9631  220.6396 H   0  0  0  0  0  0  0  0  0  0  0  0
  142.3617   72.0021  221.0217 H   0  0  0  0  0  0  0  0  0  0  0  0
  141.7207   70.7207  223.1431 H   0  0  0  0  0  0  0  0  0  0  0  0
  141.2519   72.3899  223.4272 H   0  0  0  0  0  0  0  0  0  0  0  0
  1  2  1  0
  2  3  1  0
  3  4  2  0
  3  5  1  0
  5  6  1  0
  6  7  2  0
  7  8  1  0
  8  9  2  0
  9 10  1  0
 10 11  2  0
  5 12  1  0
 12 13  1  0
 13 14  1  0
 14 15  1  0
 15 16  1  0
 16 17  2  0
 16 18  1  0
 18 19  1  0
 19 20  1  0
 19 21  1  0
 21 22  1  0
 22 23  2  0
 23 24  1  0
 24 25  2  0
 25 26  1  0
 26 27  2  0
 21 28  1  0
 28 29  2  0
 29 30  1  0
 30 31  2  0
 31 32  1  0
 32 33  2  0
 15 34  1  0
 34 35  1  0
 11  6  1  0
 35 12  1  0
 27 22  1  0
 33 28  1  0
  1 36  1  0
  1 37  1  0
  1 38  1  0
  2 39  1  0
  2 40  1  0
  7 41  1  0
  8 42  1  0
  9 43  1  0
 10 44  1  0
 11 45  1  0
 12 46  1  0
 13 47  1  0
 13 48  1  0
 14 49  1  0
 14 50  1  0
 18 51  1  0
 18 52  1  0
 19 53  1  6
 20 54  1  0
 20 55  1  0
 21 56  1  0
 23 57  1  0
 24 58  1  0
 25 59  1  0
 26 60  1  0
 27 61  1  0
 29 62  1  0
 30 63  1  0
 31 64  1  0
 32 65  1  0
 33 66  1  0
 34 67  1  0
 34 68  1  0
 35 69  1  0
 35 70  1  0
M  END
>  <smiles>  (32) 
CCC(=O)N(c1ccccc1)C1CCN(C(=O)CC(N)C(c2ccccc2)c2ccccc2)CC1

>  <score_type>  (32) 
oracle

>  <origin>  (32) 
autodockgpu

>  <m_score__min__energy>  (32) 
-8.6799999999999997

>  <m_primary>  (32) 
energy

>  <rmsd>  (32) 
7.397274399510057

>  <m_score__min__rmsd>  (32) 
7.397274399510057

>  <meeko>  (32) 
{"free_energy": -8.26, "intermolecular_energy": -11.25, "internal_energy": -3.31, "cluster_size": 36, "cluster_id": 1, "rank_in_cluster": 30}

>  <energy>  (32) 
-8.24

>  <cluster_rmsd>  (32) 
0.84

>  <cluster>  (32) 
1

$$$$

     RDKit          3D

 70 73  0  0  0  0  0  0  0  0999 V2000
  138.7650   67.0370  222.3560 C   0  0  0  0  0  0  0  0  0  0  0  0
  137.8140   68.1790  222.3420 C   0  0  0  0  0  0  0  0  0  0  0  0
  137.7540   68.9690  223.5930 C   0  0  0  0  0  0  0  0  0  0  0  0
  136.6470   68.9570  224.1890 O   0  0  0  0  0  0  0  0  0  0  0  0
  138.8990   69.7140  224.0980 N   0  0  0  0  0  0  0  0  0  0  0  0
  139.4690   69.3880  225.3650 C   0  0  0  0  0  0  0  0  0  0  0  0
  139.7230   68.0970  225.7770 C   0  0  0  0  0  0  0  0  0  0  0  0
  140.3130   67.7710  226.9830 C   0  0  0  0  0  0  0  0  0  0  0  0
  140.6890   68.7480  227.8630 C   0  0  0  0  0  0  0  0  0  0  0  0
  140.4550   70.0510  227.4950 C   0  0  0  0  0  0  0  0  0  0  0  0
  139.8590   70.3750  226.2740 C   0  0  0  0  0  0  0  0  0  0  0  0
  139.3560   70.7570  223.2290 C   0  0  0  0  0  0  0  0  0  0  0  0
  138.3300   71.8550  223.1350 C   0  0  0  0  0  0  0  0  0  0  0  0
  138.6880   72.6080  221.8380 C   0  0  0  0  0  0  0  0  0  0  0  0
  140.0950   72.9560  221.7990 N   0  0  0  0  0  0  0  0  0  0  0  0
  140.5450   74.3070  221.5740 C   0  0  0  0  0  0  0  0  0  0  0  0
  141.7790   74.5040  221.5540 O   0  0  0  0  0  0  0  0  0  0  0  0
  139.4990   75.3250  221.3900 C   0  0  0  0  0  0  0  0  0  0  0  0
  139.9690   76.7370  221.2910 C   0  0  2  0  0  0  0  0  0  0  0  0
  141.3340   76.7900  220.7450 N   0  0  0  0  0  0  0  0  0  0  0  0
  139.9040   77.5160  222.5510 C   0  0  0  0  0  0  0  0  0  0  0  0
  138.4960   77.9620  222.7910 C   0  0  0  0  0  0  0  0  0  0  0  0
  137.4220   77.0780  222.7120 C   0  0  0  0  0  0  0  0  0  0  0  0
  136.1280   77.4230  222.9300 C   0  0  0  0  0  0  0  0  0  0  0  0
  135.8430   78.7420  223.2550 C   0  0  0  0  0  0  0  0  0  0  0  0
  136.8550   79.6640  223.3490 C   0  0  0  0  0  0  0  0  0  0  0  0
  138.1730   79.2630  223.1160 C   0  0  0  0  0  0  0  0  0  0  0  0
  140.8450   78.6310  222.6880 C   0  0  0  0  0  0  0  0  0  0  0  0
  141.6570   78.8540  223.7770 C   0  0  0  0  0  0  0  0  0  0  0  0
  142.5350   79.9270  223.8500 C   0  0  0  0  0  0  0  0  0  0  0  0
  142.6190   80.8260  222.7980 C   0  0  0  0  0  0  0  0  0  0  0  0
  141.8070   80.6220  221.6820 C   0  0  0  0  0  0  0  0  0  0  0  0
  140.9570   79.5540  221.6480 C   0  0  0  0  0  0  0  0  0  0  0  0
  141.0870   71.8820  222.0100 C   0  0  0  0  0  0  0  0  0  0  0  0
  140.6930   71.3530  223.4300 C   0  0  0  0  0  0  0  0  0  0  0  0
  138.9934   66.7628  223.3965 H   0  0  0  0  0  0  0  0  0  0  0  0
  138.3126   66.1768  221.8409 H   0  0  0  0  0  0  0  0  0  0  0  0
  139.6929   67.3262  221.8409 H   0  0  0  0  0  0  0  0  0  0  0  0
  138.1082   68.8561  221.5265 H   0  0  0  0  0  0  0  0  0  0  0  0
  136.8139   67.7399  222.2117 H   0  0  0  0  0  0  0  0  0  0  0  0
  139.4382   67.2753  225.1035 H   0  0  0  0  0  0  0  0  0  0  0  0
  140.4821   66.7144  227.2381 H   0  0  0  0  0  0  0  0  0  0  0  0
  141.1595   68.5008  228.8261 H   0  0  0  0  0  0  0  0  0  0  0  0
  140.7449   70.8609  228.1805 H   0  0  0  0  0  0  0  0  0  0  0  0
  139.6926   71.4327  226.0219 H   0  0  0  0  0  0  0  0  0  0  0  0
  139.4879   70.1989  222.2903 H   0  0  0  0  0  0  0  0  0  0  0  0
  137.3153   71.4347  223.0731 H   0  0  0  0  0  0  0  0  0  0  0  0
  138.3393   72.5127  224.0166 H   0  0  0  0  0  0  0  0  0  0  0  0
  138.4540   71.9665  220.9756 H   0  0  0  0  0  0  0  0  0  0  0  0
  138.1006   73.5374  221.8041 H   0  0  0  0  0  0  0  0  0  0  0  0
  138.9560   75.0856  220.4638 H   0  0  0  0  0  0  0  0  0  0  0  0
  138.8810   75.2819  222.2990 H   0  0  0  0  0  0  0  0  0  0  0  0
  139.2554   77.2203  220.6075 H   0  0  0  0  0  0  0  0  0  0  0  0
  141.4970   76.0280  220.0480 H   0  0  0  0  0  0  0  0  0  0  0  0
  142.0290   76.6450  221.5170 H   0  0  0  0  0  0  0  0  0  0  0  0
  140.2381   76.8169  223.3317 H   0  0  0  0  0  0  0  0  0  0  0  0
  137.6376   76.0302  222.4557 H   0  0  0  0  0  0  0  0  0  0  0  0
  135.3246   76.6758  222.8511 H   0  0  0  0  0  0  0  0  0  0  0  0
  134.8027   79.0492  223.4378 H   0  0  0  0  0  0  0  0  0  0  0  0
  136.6305   80.7098  223.6056 H   0  0  0  0  0  0  0  0  0  0  0  0
  138.9783   80.0082  223.1942 H   0  0  0  0  0  0  0  0  0  0  0  0
  141.6082   78.1536  224.6238 H   0  0  0  0  0  0  0  0  0  0  0  0
  143.1637   80.0638  224.7422 H   0  0  0  0  0  0  0  0  0  0  0  0
  143.3101   81.6806  222.8422 H   0  0  0  0  0  0  0  0  0  0  0  0
  141.8514   81.3192  220.8324 H   0  0  0  0  0  0  0  0  0  0  0  0
  140.3290   79.4144  220.7557 H   0  0  0  0  0  0  0  0  0  0  0  0
  140.9914   71.0938  221.2487 H   0  0  0  0  0  0  0  0  0  0  0  0
  142.1310   72.2203  221.9356 H   0  0  0  0  0  0  0  0  0  0  0  0
  141.4107   70.5957  223.7785 H   0  0  0  0  0  0  0  0  0  0  0  0
  140.6938   72.1453  224.1931 H   0  0  0  0  0  0  0  0  0  0  0  0
  1  2  1  0
  2  3  1  0
  3  4  2  0
  3  5  1  0
  5  6  1  0
  6  7  2  0
  7  8  1  0
  8  9  2  0
  9 10  1  0
 10 11  2  0
  5 12  1  0
 12 13  1  0
 13 14  1  0
 14 15  1  0
 15 16  1  0
 16 17  2  0
 16 18  1  0
 18 19  1  0
 19 20  1  0
 19 21  1  0
 21 22  1  0
 22 23  2  0
 23 24  1  0
 24 25  2  0
 25 26  1  0
 26 27  2  0
 21 28  1  0
 28 29  2  0
 29 30  1  0
 30 31  2  0
 31 32  1  0
 32 33  2  0
 15 34  1  0
 34 35  1  0
 11  6  1  0
 35 12  1  0
 27 22  1  0
 33 28  1  0
  1 36  1  0
  1 37  1  0
  1 38  1  0
  2 39  1  0
  2 40  1  0
  7 41  1  0
  8 42  1  0
  9 43  1  0
 10 44  1  0
 11 45  1  0
 12 46  1  0
 13 47  1  0
 13 48  1  0
 14 49  1  0
 14 50  1  0
 18 51  1  0
 18 52  1  0
 19 53  1  6
 20 54  1  0
 20 55  1  0
 21 56  1  0
 23 57  1  0
 24 58  1  0
 25 59  1  0
 26 60  1  0
 27 61  1  0
 29 62  1  0
 30 63  1  0
 31 64  1  0
 32 65  1  0
 33 66  1  0
 34 67  1  0
 34 68  1  0
 35 69  1  0
 35 70  1  0
M  END
>  <smiles>  (33) 
CCC(=O)N(c1ccccc1)C1CCN(C(=O)CC(N)C(c2ccccc2)c2ccccc2)CC1

>  <score_type>  (33) 
oracle

>  <origin>  (33) 
autodockgpu

>  <m_score__min__energy>  (33) 
-8.6799999999999997

>  <m_primary>  (33) 
energy

>  <rmsd>  (33) 
8.053273880895969

>  <m_score__min__rmsd>  (33) 
8.053273880895969

>  <meeko>  (33) 
{"free_energy": -8.68, "intermolecular_energy": -11.66, "internal_energy": -2.93, "cluster_size": 36, "cluster_id": 1, "rank_in_cluster": 1}

>  <energy>  (33) 
-8.23

>  <cluster_rmsd>  (33) 
1.03

>  <cluster>  (33) 
1

$$$$

     RDKit          3D

 70 73  0  0  0  0  0  0  0  0999 V2000
  138.4710   67.3970  222.4110 C   0  0  0  0  0  0  0  0  0  0  0  0
  137.4310   68.4260  222.6690 C   0  0  0  0  0  0  0  0  0  0  0  0
  137.5730   69.1650  223.9440 C   0  0  0  0  0  0  0  0  0  0  0  0
  136.5540   69.1770  224.6810 O   0  0  0  0  0  0  0  0  0  0  0  0
  138.8090   69.8390  224.3190 N   0  0  0  0  0  0  0  0  0  0  0  0
  139.4190   69.5750  225.5810 C   0  0  0  0  0  0  0  0  0  0  0  0
  139.9110   70.5590  226.4110 C   0  0  0  0  0  0  0  0  0  0  0  0
  140.4660   70.3190  227.6540 C   0  0  0  0  0  0  0  0  0  0  0  0
  140.5580   69.0450  228.1430 C   0  0  0  0  0  0  0  0  0  0  0  0
  140.0790   68.0300  227.3510 C   0  0  0  0  0  0  0  0  0  0  0  0
  139.5190   68.2780  226.0950 C   0  0  0  0  0  0  0  0  0  0  0  0
  139.3080   70.7490  223.3320 C   0  0  0  0  0  0  0  0  0  0  0  0
  138.3470   71.8900  223.1300 C   0  0  0  0  0  0  0  0  0  0  0  0
  138.7220   72.4730  221.7530 C   0  0  0  0  0  0  0  0  0  0  0  0
  140.1460   72.7290  221.6570 N   0  0  0  0  0  0  0  0  0  0  0  0
  140.6690   74.0170  221.2760 C   0  0  0  0  0  0  0  0  0  0  0  0
  141.9120   74.1360  221.2180 O   0  0  0  0  0  0  0  0  0  0  0  0
  139.6810   75.0700  220.9930 C   0  0  0  0  0  0  0  0  0  0  0  0
  140.1820   76.4730  221.0570 C   0  0  2  0  0  0  0  0  0  0  0  0
  141.5840   76.5410  220.6180 N   0  0  0  0  0  0  0  0  0  0  0  0
  140.0370   77.1380  222.3740 C   0  0  0  0  0  0  0  0  0  0  0  0
  138.5890   77.3960  222.6490 C   0  0  0  0  0  0  0  0  0  0  0  0
  138.0690   78.6880  222.6850 C   0  0  0  0  0  0  0  0  0  0  0  0
  136.7650   78.9820  222.9180 C   0  0  0  0  0  0  0  0  0  0  0  0
  135.8810   77.9340  223.1360 C   0  0  0  0  0  0  0  0  0  0  0  0
  136.3300   76.6360  223.1140 C   0  0  0  0  0  0  0  0  0  0  0  0
  137.6810   76.3820  222.8700 C   0  0  0  0  0  0  0  0  0  0  0  0
  140.8430   78.3410  222.5990 C   0  0  0  0  0  0  0  0  0  0  0  0
  141.4650   78.6690  223.7830 C   0  0  0  0  0  0  0  0  0  0  0  0
  142.2220   79.8240  223.9360 C   0  0  0  0  0  0  0  0  0  0  0  0
  142.3750   80.6980  222.8720 C   0  0  0  0  0  0  0  0  0  0  0  0
  141.7550   80.3880  221.6610 C   0  0  0  0  0  0  0  0  0  0  0  0
  141.0190   79.2430  221.5500 C   0  0  0  0  0  0  0  0  0  0  0  0
  141.0780   71.6270  221.9730 C   0  0  0  0  0  0  0  0  0  0  0  0
  140.6820   71.2830  223.4480 C   0  0  0  0  0  0  0  0  0  0  0  0
  138.8557   67.0164  223.3686 H   0  0  0  0  0  0  0  0  0  0  0  0
  138.0320   66.5679  221.8366 H   0  0  0  0  0  0  0  0  0  0  0  0
  139.2954   67.8448  221.8366 H   0  0  0  0  0  0  0  0  0  0  0  0
  137.4650   69.1566  221.8474 H   0  0  0  0  0  0  0  0  0  0  0  0
  136.4769   67.8829  222.7375 H   0  0  0  0  0  0  0  0  0  0  0  0
  139.8587   71.6010  226.0624 H   0  0  0  0  0  0  0  0  0  0  0  0
  140.8375   71.1613  228.2561 H   0  0  0  0  0  0  0  0  0  0  0  0
  140.9978   68.8414  229.1305 H   0  0  0  0  0  0  0  0  0  0  0  0
  140.1378   66.9938  227.7154 H   0  0  0  0  0  0  0  0  0  0  0  0
  139.1480   67.4331  225.4963 H   0  0  0  0  0  0  0  0  0  0  0  0
  139.3872   70.0831  222.4600 H   0  0  0  0  0  0  0  0  0  0  0  0
  137.3084   71.5277  223.1288 H   0  0  0  0  0  0  0  0  0  0  0  0
  138.4131   72.6390  223.9329 H   0  0  0  0  0  0  0  0  0  0  0  0
  138.4337   71.7560  220.9702 H   0  0  0  0  0  0  0  0  0  0  0  0
  138.1893   73.4267  221.6241 H   0  0  0  0  0  0  0  0  0  0  0  0
  139.2884   74.8991  219.9798 H   0  0  0  0  0  0  0  0  0  0  0  0
  138.9261   74.9889  221.7889 H   0  0  0  0  0  0  0  0  0  0  0  0
  139.5299   77.0329  220.3705 H   0  0  0  0  0  0  0  0  0  0  0  0
  141.7820   75.8500  219.8580 H   0  0  0  0  0  0  0  0  0  0  0  0
  142.2170   76.2970  221.4180 H   0  0  0  0  0  0  0  0  0  0  0  0
  140.4568   76.4232  223.0970 H   0  0  0  0  0  0  0  0  0  0  0  0
  138.7614   79.5253  222.5131 H   0  0  0  0  0  0  0  0  0  0  0  0
  136.4168   80.0253  222.9338 H   0  0  0  0  0  0  0  0  0  0  0  0
  134.8182   78.1436  223.3269 H   0  0  0  0  0  0  0  0  0  0  0  0
  135.6314   75.8041  223.2871 H   0  0  0  0  0  0  0  0  0  0  0  0
  138.0323   75.3397  222.8535 H   0  0  0  0  0  0  0  0  0  0  0  0
  141.3583   77.9897  224.6416 H   0  0  0  0  0  0  0  0  0  0  0  0
  142.6998   80.0445  224.9020 H   0  0  0  0  0  0  0  0  0  0  0  0
  142.9718   81.6157  222.9794 H   0  0  0  0  0  0  0  0  0  0  0  0
  141.8587   81.0634  220.7989 H   0  0  0  0  0  0  0  0  0  0  0  0
  140.5409   79.0210  220.5845 H   0  0  0  0  0  0  0  0  0  0  0  0
  140.9215   70.7667  221.3056 H   0  0  0  0  0  0  0  0  0  0  0  0
  142.1383   71.8915  221.8474 H   0  0  0  0  0  0  0  0  0  0  0  0
  141.3613   70.5274  223.8695 H   0  0  0  0  0  0  0  0  0  0  0  0
  140.7437   72.1534  224.1178 H   0  0  0  0  0  0  0  0  0  0  0  0
  1  2  1  0
  2  3  1  0
  3  4  2  0
  3  5  1  0
  5  6  1  0
  6  7  2  0
  7  8  1  0
  8  9  2  0
  9 10  1  0
 10 11  2  0
  5 12  1  0
 12 13  1  0
 13 14  1  0
 14 15  1  0
 15 16  1  0
 16 17  2  0
 16 18  1  0
 18 19  1  0
 19 20  1  0
 19 21  1  0
 21 22  1  0
 22 23  2  0
 23 24  1  0
 24 25  2  0
 25 26  1  0
 26 27  2  0
 21 28  1  0
 28 29  2  0
 29 30  1  0
 30 31  2  0
 31 32  1  0
 32 33  2  0
 15 34  1  0
 34 35  1  0
 11  6  1  0
 35 12  1  0
 27 22  1  0
 33 28  1  0
  1 36  1  0
  1 37  1  0
  1 38  1  0
  2 39  1  0
  2 40  1  0
  7 41  1  0
  8 42  1  0
  9 43  1  0
 10 44  1  0
 11 45  1  0
 12 46  1  0
 13 47  1  0
 13 48  1  0
 14 49  1  0
 14 50  1  0
 18 51  1  0
 18 52  1  0
 19 53  1  6
 20 54  1  0
 20 55  1  0
 21 56  1  0
 23 57  1  0
 24 58  1  0
 25 59  1  0
 26 60  1  0
 27 61  1  0
 29 62  1  0
 30 63  1  0
 31 64  1  0
 32 65  1  0
 33 66  1  0
 34 67  1  0
 34 68  1  0
 35 69  1  0
 35 70  1  0
M  END
>  <smiles>  (34) 
CCC(=O)N(c1ccccc1)C1CCN(C(=O)CC(N)C(c2ccccc2)c2ccccc2)CC1

>  <score_type>  (34) 
oracle

>  <origin>  (34) 
autodockgpu

>  <m_score__min__energy>  (34) 
-8.6799999999999997

>  <m_primary>  (34) 
energy

>  <rmsd>  (34) 
7.517694754859173

>  <m_score__min__rmsd>  (34) 
7.517694754859173

>  <meeko>  (34) 
{"free_energy": -8.58, "intermolecular_energy": -11.56, "internal_energy": -3.12, "cluster_size": 36, "cluster_id": 1, "rank_in_cluster": 5}

>  <energy>  (34) 
-8.22

>  <cluster_rmsd>  (34) 
1.01

>  <cluster>  (34) 
1

$$$$

     RDKit          3D

 70 73  0  0  0  0  0  0  0  0999 V2000
  145.6760   74.1320  220.8180 C   0  0  0  0  0  0  0  0  0  0  0  0
  146.0230   72.7100  220.5610 C   0  0  0  0  0  0  0  0  0  0  0  0
  145.3890   72.1090  219.3660 C   0  0  0  0  0  0  0  0  0  0  0  0
  145.8340   72.5060  218.2580 O   0  0  0  0  0  0  0  0  0  0  0  0
  144.3180   71.1260  219.4630 N   0  0  0  0  0  0  0  0  0  0  0  0
  144.6050   69.7340  219.3390 C   0  0  0  0  0  0  0  0  0  0  0  0
  145.8770   69.2290  219.1770 C   0  0  0  0  0  0  0  0  0  0  0  0
  146.1710   67.8810  219.0970 C   0  0  0  0  0  0  0  0  0  0  0  0
  145.1780   66.9440  219.1790 C   0  0  0  0  0  0  0  0  0  0  0  0
  143.8930   67.4010  219.3410 C   0  0  0  0  0  0  0  0  0  0  0  0
  143.6010   68.7650  219.4210 C   0  0  0  0  0  0  0  0  0  0  0  0
  143.0190   71.6880  219.6800 C   0  0  0  0  0  0  0  0  0  0  0  0
  142.9680   72.4110  221.0000 C   0  0  0  0  0  0  0  0  0  0  0  0
  141.4650   72.5030  221.3330 C   0  0  0  0  0  0  0  0  0  0  0  0
  140.7070   73.0300  220.2140 N   0  0  0  0  0  0  0  0  0  0  0  0
  139.8280   74.1640  220.3500 C   0  0  0  0  0  0  0  0  0  0  0  0
  139.2160   74.5400  219.3270 O   0  0  0  0  0  0  0  0  0  0  0  0
  139.7400   74.7710  221.6870 C   0  0  0  0  0  0  0  0  0  0  0  0
  139.7440   76.2610  221.7330 C   0  0  2  0  0  0  0  0  0  0  0  0
  138.9850   76.8140  220.6010 N   0  0  0  0  0  0  0  0  0  0  0  0
  141.0860   76.8890  221.7880 C   0  0  0  0  0  0  0  0  0  0  0  0
  140.9930   78.2070  222.4900 C   0  0  0  0  0  0  0  0  0  0  0  0
  142.1290   78.9470  222.8140 C   0  0  0  0  0  0  0  0  0  0  0  0
  142.1050   80.1510  223.4400 C   0  0  0  0  0  0  0  0  0  0  0  0
  140.8740   80.6910  223.7840 C   0  0  0  0  0  0  0  0  0  0  0  0
  139.7160   80.0130  223.4940 C   0  0  0  0  0  0  0  0  0  0  0  0
  139.7900   78.7760  222.8480 C   0  0  0  0  0  0  0  0  0  0  0  0
  141.8110   77.0120  220.5200 C   0  0  0  0  0  0  0  0  0  0  0  0
  141.7830   78.1150  219.6950 C   0  0  0  0  0  0  0  0  0  0  0  0
  142.4960   78.1770  218.5040 C   0  0  0  0  0  0  0  0  0  0  0  0
  143.2740   77.1010  218.1060 C   0  0  0  0  0  0  0  0  0  0  0  0
  143.3190   75.9730  218.9240 C   0  0  0  0  0  0  0  0  0  0  0  0
  142.6040   75.9500  220.0880 C   0  0  0  0  0  0  0  0  0  0  0  0
  140.8600   72.3780  218.8970 C   0  0  0  0  0  0  0  0  0  0  0  0
  142.3970   72.5320  218.6370 C   0  0  0  0  0  0  0  0  0  0  0  0
  145.6329   74.3086  221.9029 H   0  0  0  0  0  0  0  0  0  0  0  0
  146.4417   74.7829  220.3707 H   0  0  0  0  0  0  0  0  0  0  0  0
  144.6966   74.3570  220.3707 H   0  0  0  0  0  0  0  0  0  0  0  0
  147.1139   72.6438  220.4362 H   0  0  0  0  0  0  0  0  0  0  0  0
  145.6423   72.1438  221.4239 H   0  0  0  0  0  0  0  0  0  0  0  0
  146.7104   69.9435  219.1070 H   0  0  0  0  0  0  0  0  0  0  0  0
  147.2144   67.5583  218.9660 H   0  0  0  0  0  0  0  0  0  0  0  0
  145.3995   65.8683  219.1177 H   0  0  0  0  0  0  0  0  0  0  0  0
  143.0711   66.6731  219.4097 H   0  0  0  0  0  0  0  0  0  0  0  0
  142.5563   69.0838  219.5516 H   0  0  0  0  0  0  0  0  0  0  0  0
  142.3959   70.7819  219.6528 H   0  0  0  0  0  0  0  0  0  0  0  0
  143.5038   71.8433  221.7750 H   0  0  0  0  0  0  0  0  0  0  0  0
  143.4471   73.4001  220.9536 H   0  0  0  0  0  0  0  0  0  0  0  0
  141.0903   71.4981  221.5777 H   0  0  0  0  0  0  0  0  0  0  0  0
  141.3405   73.1844  222.1875 H   0  0  0  0  0  0  0  0  0  0  0  0
  138.8064   74.4230  222.1532 H   0  0  0  0  0  0  0  0  0  0  0  0
  140.6528   74.4570  222.2144 H   0  0  0  0  0  0  0  0  0  0  0  0
  139.2603   76.5114  222.6887 H   0  0  0  0  0  0  0  0  0  0  0  0
  138.1130   76.2650  220.4200 H   0  0  0  0  0  0  0  0  0  0  0  0
  139.5610   76.7580  219.7260 H   0  0  0  0  0  0  0  0  0  0  0  0
  141.7057   76.1793  222.3557 H   0  0  0  0  0  0  0  0  0  0  0  0
  143.1095   78.5275  222.5445 H   0  0  0  0  0  0  0  0  0  0  0  0
  143.0386   80.6857  223.6691 H   0  0  0  0  0  0  0  0  0  0  0  0
  140.8258   81.6660  224.2910 H   0  0  0  0  0  0  0  0  0  0  0  0
  138.7395   80.4392  223.7674 H   0  0  0  0  0  0  0  0  0  0  0  0
  138.8579   78.2392  222.6178 H   0  0  0  0  0  0  0  0  0  0  0  0
  141.1722   78.9807  219.9908 H   0  0  0  0  0  0  0  0  0  0  0  0
  142.4431   79.0795  217.8773 H   0  0  0  0  0  0  0  0  0  0  0  0
  143.8433   77.1364  217.1655 H   0  0  0  0  0  0  0  0  0  0  0  0
  143.9281   75.1044  218.6332 H   0  0  0  0  0  0  0  0  0  0  0  0
  142.6567   75.0483  220.7158 H   0  0  0  0  0  0  0  0  0  0  0  0
  140.5653   71.3190  218.9382 H   0  0  0  0  0  0  0  0  0  0  0  0
  140.2298   72.8153  218.1086 H   0  0  0  0  0  0  0  0  0  0  0  0
  142.6622   72.1718  217.6321 H   0  0  0  0  0  0  0  0  0  0  0  0
  142.7326   73.5786  218.6814 H   0  0  0  0  0  0  0  0  0  0  0  0
  1  2  1  0
  2  3  1  0
  3  4  2  0
  3  5  1  0
  5  6  1  0
  6  7  2  0
  7  8  1  0
  8  9  2  0
  9 10  1  0
 10 11  2  0
  5 12  1  0
 12 13  1  0
 13 14  1  0
 14 15  1  0
 15 16  1  0
 16 17  2  0
 16 18  1  0
 18 19  1  0
 19 20  1  0
 19 21  1  0
 21 22  1  0
 22 23  2  0
 23 24  1  0
 24 25  2  0
 25 26  1  0
 26 27  2  0
 21 28  1  0
 28 29  2  0
 29 30  1  0
 30 31  2  0
 31 32  1  0
 32 33  2  0
 15 34  1  0
 34 35  1  0
 11  6  1  0
 35 12  1  0
 27 22  1  0
 33 28  1  0
  1 36  1  0
  1 37  1  0
  1 38  1  0
  2 39  1  0
  2 40  1  0
  7 41  1  0
  8 42  1  0
  9 43  1  0
 10 44  1  0
 11 45  1  0
 12 46  1  0
 13 47  1  0
 13 48  1  0
 14 49  1  0
 14 50  1  0
 18 51  1  0
 18 52  1  0
 19 53  1  1
 20 54  1  0
 20 55  1  0
 21 56  1  0
 23 57  1  0
 24 58  1  0
 25 59  1  0
 26 60  1  0
 27 61  1  0
 29 62  1  0
 30 63  1  0
 31 64  1  0
 32 65  1  0
 33 66  1  0
 34 67  1  0
 34 68  1  0
 35 69  1  0
 35 70  1  0
M  END
>  <smiles>  (35) 
CCC(=O)N(c1ccccc1)C1CCN(C(=O)CC(N)C(c2ccccc2)c2ccccc2)CC1

>  <score_type>  (35) 
oracle

>  <origin>  (35) 
autodockgpu

>  <m_score__min__energy>  (35) 
-8.6799999999999997

>  <m_primary>  (35) 
energy

>  <rmsd>  (35) 
8.123645811809824

>  <m_score__min__rmsd>  (35) 
8.123645811809824

>  <meeko>  (35) 
{"free_energy": -7.63, "intermolecular_energy": -10.61, "internal_energy": -3.87, "cluster_size": 12, "cluster_id": 2, "rank_in_cluster": 7}

>  <energy>  (35) 
-8.19

>  <cluster_rmsd>  (35) 
1.0

>  <cluster>  (35) 
1

$$$$

     RDKit          3D

 70 73  0  0  0  0  0  0  0  0999 V2000
  145.7190   74.1490  220.8290 C   0  0  0  0  0  0  0  0  0  0  0  0
  146.0070   72.7140  220.5730 C   0  0  0  0  0  0  0  0  0  0  0  0
  145.3800   72.1490  219.3570 C   0  0  0  0  0  0  0  0  0  0  0  0
  145.8330   72.5780  218.2640 O   0  0  0  0  0  0  0  0  0  0  0  0
  144.3080   71.1650  219.4190 N   0  0  0  0  0  0  0  0  0  0  0  0
  144.5970   69.7750  219.2840 C   0  0  0  0  0  0  0  0  0  0  0  0
  145.8700   69.2740  219.1160 C   0  0  0  0  0  0  0  0  0  0  0  0
  146.1670   67.9270  219.0260 C   0  0  0  0  0  0  0  0  0  0  0  0
  145.1760   66.9870  219.1040 C   0  0  0  0  0  0  0  0  0  0  0  0
  143.8900   67.4400  219.2730 C   0  0  0  0  0  0  0  0  0  0  0  0
  143.5960   68.8030  219.3620 C   0  0  0  0  0  0  0  0  0  0  0  0
  143.0030   71.7250  219.6130 C   0  0  0  0  0  0  0  0  0  0  0  0
  142.9180   72.4190  220.9460 C   0  0  0  0  0  0  0  0  0  0  0  0
  141.4070   72.5070  221.2400 C   0  0  0  0  0  0  0  0  0  0  0  0
  140.6800   73.0590  220.1130 N   0  0  0  0  0  0  0  0  0  0  0  0
  139.7990   74.1920  220.2500 C   0  0  0  0  0  0  0  0  0  0  0  0
  139.2150   74.5900  219.2200 O   0  0  0  0  0  0  0  0  0  0  0  0
  139.6770   74.7700  221.5970 C   0  0  0  0  0  0  0  0  0  0  0  0
  139.7300   76.2580  221.6800 C   0  0  2  0  0  0  0  0  0  0  0  0
  138.9670   76.8630  220.5770 N   0  0  0  0  0  0  0  0  0  0  0  0
  141.0920   76.8410  221.7230 C   0  0  0  0  0  0  0  0  0  0  0  0
  141.0450   78.1720  222.4070 C   0  0  0  0  0  0  0  0  0  0  0  0
  139.8600   78.6880  222.9260 C   0  0  0  0  0  0  0  0  0  0  0  0
  139.7590   79.8810  223.5640 C   0  0  0  0  0  0  0  0  0  0  0  0
  140.9070   80.6470  223.7150 C   0  0  0  0  0  0  0  0  0  0  0  0
  142.1080   80.1960  223.2260 C   0  0  0  0  0  0  0  0  0  0  0  0
  142.1630   78.9610  222.5770 C   0  0  0  0  0  0  0  0  0  0  0  0
  141.8170   76.9220  220.4520 C   0  0  0  0  0  0  0  0  0  0  0  0
  141.7570   77.9790  219.5710 C   0  0  0  0  0  0  0  0  0  0  0  0
  142.4720   78.0020  218.3800 C   0  0  0  0  0  0  0  0  0  0  0  0
  143.2860   76.9330  218.0400 C   0  0  0  0  0  0  0  0  0  0  0  0
  143.3640   75.8510  218.9160 C   0  0  0  0  0  0  0  0  0  0  0  0
  142.6470   75.8650  220.0780 C   0  0  0  0  0  0  0  0  0  0  0  0
  140.8670   72.4350  218.7870 C   0  0  0  0  0  0  0  0  0  0  0  0
  142.4100   72.5920  218.5720 C   0  0  0  0  0  0  0  0  0  0  0  0
  145.6831   74.3279  221.9138 H   0  0  0  0  0  0  0  0  0  0  0  0
  146.5109   74.7675  220.3814 H   0  0  0  0  0  0  0  0  0  0  0  0
  144.7498   74.4140  220.3814 H   0  0  0  0  0  0  0  0  0  0  0  0
  147.0968   72.5979  220.4784 H   0  0  0  0  0  0  0  0  0  0  0  0
  145.5763   72.1618  221.4213 H   0  0  0  0  0  0  0  0  0  0  0  0
  146.7016   69.9909  219.0494 H   0  0  0  0  0  0  0  0  0  0  0  0
  147.2108   67.6076  218.8903 H   0  0  0  0  0  0  0  0  0  0  0  0
  145.3997   65.9123  219.0343 H   0  0  0  0  0  0  0  0  0  0  0  0
  143.0698   66.7100  219.3400 H   0  0  0  0  0  0  0  0  0  0  0  0
  142.5509   69.1187  219.4968 H   0  0  0  0  0  0  0  0  0  0  0  0
  142.3794   70.8211  219.5493 H   0  0  0  0  0  0  0  0  0  0  0  0
  143.4317   71.8334  221.7226 H   0  0  0  0  0  0  0  0  0  0  0  0
  143.4000   73.4077  220.9342 H   0  0  0  0  0  0  0  0  0  0  0  0
  141.0245   71.4979  221.4531 H   0  0  0  0  0  0  0  0  0  0  0  0
  141.2606   73.1706  222.1050 H   0  0  0  0  0  0  0  0  0  0  0  0
  138.7137   74.4442  222.0165 H   0  0  0  0  0  0  0  0  0  0  0  0
  140.5560   74.4117  222.1528 H   0  0  0  0  0  0  0  0  0  0  0  0
  139.2736   76.4998  222.6512 H   0  0  0  0  0  0  0  0  0  0  0  0
  138.0420   76.3920  220.4480 H   0  0  0  0  0  0  0  0  0  0  0  0
  139.4910   76.7460  219.6770 H   0  0  0  0  0  0  0  0  0  0  0  0
  141.6892   76.1189  222.2991 H   0  0  0  0  0  0  0  0  0  0  0  0
  138.9451   78.0883  222.8109 H   0  0  0  0  0  0  0  0  0  0  0  0
  138.7916   80.2326  223.9520 H   0  0  0  0  0  0  0  0  0  0  0  0
  140.8541   81.6185  224.2282 H   0  0  0  0  0  0  0  0  0  0  0  0
  143.0184   80.8019  223.3444 H   0  0  0  0  0  0  0  0  0  0  0  0
  143.1291   78.6061  222.1889 H   0  0  0  0  0  0  0  0  0  0  0  0
  141.1178   78.8388  219.8202 H   0  0  0  0  0  0  0  0  0  0  0  0
  142.3921   78.8684  217.7070 H   0  0  0  0  0  0  0  0  0  0  0  0
  143.8576   76.9381  217.1002 H   0  0  0  0  0  0  0  0  0  0  0  0
  144.0014   74.9884  218.6717 H   0  0  0  0  0  0  0  0  0  0  0  0
  142.7279   74.9999  220.7526 H   0  0  0  0  0  0  0  0  0  0  0  0
  140.5701   71.3759  218.7976 H   0  0  0  0  0  0  0  0  0  0  0  0
  140.2585   72.8898  217.9915 H   0  0  0  0  0  0  0  0  0  0  0  0
  142.7018   72.2529  217.5671 H   0  0  0  0  0  0  0  0  0  0  0  0
  142.7452   73.6369  218.6480 H   0  0  0  0  0  0  0  0  0  0  0  0
  1  2  1  0
  2  3  1  0
  3  4  2  0
  3  5  1  0
  5  6  1  0
  6  7  2  0
  7  8  1  0
  8  9  2  0
  9 10  1  0
 10 11  2  0
  5 12  1  0
 12 13  1  0
 13 14  1  0
 14 15  1  0
 15 16  1  0
 16 17  2  0
 16 18  1  0
 18 19  1  0
 19 20  1  0
 19 21  1  0
 21 22  1  0
 22 23  2  0
 23 24  1  0
 24 25  2  0
 25 26  1  0
 26 27  2  0
 21 28  1  0
 28 29  2  0
 29 30  1  0
 30 31  2  0
 31 32  1  0
 32 33  2  0
 15 34  1  0
 34 35  1  0
 11  6  1  0
 35 12  1  0
 27 22  1  0
 33 28  1  0
  1 36  1  0
  1 37  1  0
  1 38  1  0
  2 39  1  0
  2 40  1  0
  7 41  1  0
  8 42  1  0
  9 43  1  0
 10 44  1  0
 11 45  1  0
 12 46  1  0
 13 47  1  0
 13 48  1  0
 14 49  1  0
 14 50  1  0
 18 51  1  0
 18 52  1  0
 19 53  1  1
 20 54  1  0
 20 55  1  0
 21 56  1  0
 23 57  1  0
 24 58  1  0
 25 59  1  0
 26 60  1  0
 27 61  1  0
 29 62  1  0
 30 63  1  0
 31 64  1  0
 32 65  1  0
 33 66  1  0
 34 67  1  0
 34 68  1  0
 35 69  1  0
 35 70  1  0
M  END
>  <smiles>  (36) 
CCC(=O)N(c1ccccc1)C1CCN(C(=O)CC(N)C(c2ccccc2)c2ccccc2)CC1

>  <score_type>  (36) 
oracle

>  <origin>  (36) 
autodockgpu

>  <m_score__min__energy>  (36) 
-8.6799999999999997

>  <m_primary>  (36) 
energy

>  <rmsd>  (36) 
8.158450127233168

>  <m_score__min__rmsd>  (36) 
8.158450127233168

>  <meeko>  (36) 
{"free_energy": -7.6, "intermolecular_energy": -10.59, "internal_energy": -3.86, "cluster_size": 12, "cluster_id": 2, "rank_in_cluster": 8}

>  <energy>  (36) 
-7.46

>  <cluster_rmsd>  (36) 
1.2

>  <cluster>  (36) 
1

$$$$

     RDKit          3D

 70 73  0  0  0  0  0  0  0  0999 V2000
  135.4180   70.7270  224.5480 C   0  0  0  0  0  0  0  0  0  0  0  0
  136.3000   69.5840  224.8970 C   0  0  0  0  0  0  0  0  0  0  0  0
  137.4350   69.3540  223.9740 C   0  0  0  0  0  0  0  0  0  0  0  0
  137.1580   68.7260  222.9200 O   0  0  0  0  0  0  0  0  0  0  0  0
  138.7830   69.8210  224.2670 N   0  0  0  0  0  0  0  0  0  0  0  0
  139.4550   69.3870  225.4480 C   0  0  0  0  0  0  0  0  0  0  0  0
  139.7230   68.0650  225.7310 C   0  0  0  0  0  0  0  0  0  0  0  0
  140.4090   67.6360  226.8510 C   0  0  0  0  0  0  0  0  0  0  0  0
  140.8760   68.5350  227.7710 C   0  0  0  0  0  0  0  0  0  0  0  0
  140.6330   69.8650  227.5310 C   0  0  0  0  0  0  0  0  0  0  0  0
  139.9380   70.2940  226.3960 C   0  0  0  0  0  0  0  0  0  0  0  0
  139.3220   70.7200  223.2900 C   0  0  0  0  0  0  0  0  0  0  0  0
  138.3940   71.8850  223.0730 C   0  0  0  0  0  0  0  0  0  0  0  0
  138.8070   72.4590  221.7030 C   0  0  0  0  0  0  0  0  0  0  0  0
  140.2390   72.6790  221.6320 N   0  0  0  0  0  0  0  0  0  0  0  0
  140.8010   73.9530  221.2620 C   0  0  0  0  0  0  0  0  0  0  0  0
  142.0470   74.0410  221.2250 O   0  0  0  0  0  0  0  0  0  0  0  0
  139.8450   75.0310  220.9640 C   0  0  0  0  0  0  0  0  0  0  0  0
  140.3780   76.4210  221.0420 C   0  0  2  0  0  0  0  0  0  0  0  0
  141.7930   76.4550  220.6390 N   0  0  0  0  0  0  0  0  0  0  0  0
  140.2180   77.0880  222.3570 C   0  0  0  0  0  0  0  0  0  0  0  0
  138.7660   77.3400  222.6170 C   0  0  0  0  0  0  0  0  0  0  0  0
  138.2340   78.6280  222.6220 C   0  0  0  0  0  0  0  0  0  0  0  0
  136.9260   78.9150  222.8400 C   0  0  0  0  0  0  0  0  0  0  0  0
  136.0510   77.8640  223.0760 C   0  0  0  0  0  0  0  0  0  0  0  0
  136.5100   76.5710  223.0850 C   0  0  0  0  0  0  0  0  0  0  0  0
  137.8650   76.3230  222.8550 C   0  0  0  0  0  0  0  0  0  0  0  0
  141.0160   78.2950  222.5870 C   0  0  0  0  0  0  0  0  0  0  0  0
  141.5980   78.6450  223.7850 C   0  0  0  0  0  0  0  0  0  0  0  0
  142.3490   79.8030  223.9430 C   0  0  0  0  0  0  0  0  0  0  0  0
  142.5370   80.6590  222.8700 C   0  0  0  0  0  0  0  0  0  0  0  0
  141.9580   80.3270  221.6450 C   0  0  0  0  0  0  0  0  0  0  0  0
  141.2260   79.1800  221.5290 C   0  0  0  0  0  0  0  0  0  0  0  0
  141.1360   71.5530  221.9620 C   0  0  0  0  0  0  0  0  0  0  0  0
  140.7070   71.2180  223.4300 C   0  0  0  0  0  0  0  0  0  0  0  0
  135.0514   71.2021  225.4699 H   0  0  0  0  0  0  0  0  0  0  0  0
  135.9858   71.4614  223.9578 H   0  0  0  0  0  0  0  0  0  0  0  0
  134.5636   70.3640  223.9578 H   0  0  0  0  0  0  0  0  0  0  0  0
  136.7104   69.7661  225.9012 H   0  0  0  0  0  0  0  0  0  0  0  0
  135.6703   68.6843  224.8339 H   0  0  0  0  0  0  0  0  0  0  0  0
  139.3685   67.3036  225.0206 H   0  0  0  0  0  0  0  0  0  0  0  0
  140.5816   66.5606  227.0048 H   0  0  0  0  0  0  0  0  0  0  0  0
  141.4237   68.2056  228.6663 H   0  0  0  0  0  0  0  0  0  0  0  0
  140.9949   70.6134  228.2513 H   0  0  0  0  0  0  0  0  0  0  0  0
  139.7673   71.3702  226.2455 H   0  0  0  0  0  0  0  0  0  0  0  0
  139.3991   70.0535  222.4183 H   0  0  0  0  0  0  0  0  0  0  0  0
  137.3467   71.5493  223.0539 H   0  0  0  0  0  0  0  0  0  0  0  0
  138.4655   72.6317  223.8776 H   0  0  0  0  0  0  0  0  0  0  0  0
  138.5142   71.7498  220.9147 H   0  0  0  0  0  0  0  0  0  0  0  0
  138.3007   73.4258  221.5655 H   0  0  0  0  0  0  0  0  0  0  0  0
  139.4676   74.8727  219.9430 H   0  0  0  0  0  0  0  0  0  0  0  0
  139.0738   74.9662  221.7457 H   0  0  0  0  0  0  0  0  0  0  0  0
  139.7567   76.9966  220.3401 H   0  0  0  0  0  0  0  0  0  0  0  0
  141.9910   75.7630  219.8800 H   0  0  0  0  0  0  0  0  0  0  0  0
  142.3990   76.1900  221.4520 H   0  0  0  0  0  0  0  0  0  0  0  0
  140.6345   76.3769  223.0856 H   0  0  0  0  0  0  0  0  0  0  0  0
  138.9200   79.4677  222.4369 H   0  0  0  0  0  0  0  0  0  0  0  0
  136.5679   79.9550  222.8299 H   0  0  0  0  0  0  0  0  0  0  0  0
  134.9853   78.0683  223.2566 H   0  0  0  0  0  0  0  0  0  0  0  0
  135.8171   75.7373  223.2717 H   0  0  0  0  0  0  0  0  0  0  0  0
  138.2252   75.2837  222.8639 H   0  0  0  0  0  0  0  0  0  0  0  0
  141.4628   77.9810  224.6515 H   0  0  0  0  0  0  0  0  0  0  0  0
  142.7945   80.0404  224.9203 H   0  0  0  0  0  0  0  0  0  0  0  0
  143.1292   81.5793  222.9814 H   0  0  0  0  0  0  0  0  0  0  0  0
  142.0907   80.9871  220.7752 H   0  0  0  0  0  0  0  0  0  0  0  0
  140.7795   78.9418  220.5523 H   0  0  0  0  0  0  0  0  0  0  0  0
  140.9680   70.6977  221.2910 H   0  0  0  0  0  0  0  0  0  0  0  0
  142.2048   71.7898  221.8543 H   0  0  0  0  0  0  0  0  0  0  0  0
  141.3594   70.4447  223.8617 H   0  0  0  0  0  0  0  0  0  0  0  0
  140.7803   72.0856  224.1022 H   0  0  0  0  0  0  0  0  0  0  0  0
  1  2  1  0
  2  3  1  0
  3  4  2  0
  3  5  1  0
  5  6  1  0
  6  7  2  0
  7  8  1  0
  8  9  2  0
  9 10  1  0
 10 11  2  0
  5 12  1  0
 12 13  1  0
 13 14  1  0
 14 15  1  0
 15 16  1  0
 16 17  2  0
 16 18  1  0
 18 19  1  0
 19 20  1  0
 19 21  1  0
 21 22  1  0
 22 23  2  0
 23 24  1  0
 24 25  2  0
 25 26  1  0
 26 27  2  0
 21 28  1  0
 28 29  2  0
 29 30  1  0
 30 31  2  0
 31 32  1  0
 32 33  2  0
 15 34  1  0
 34 35  1  0
 11  6  1  0
 35 12  1  0
 27 22  1  0
 33 28  1  0
  1 36  1  0
  1 37  1  0
  1 38  1  0
  2 39  1  0
  2 40  1  0
  7 41  1  0
  8 42  1  0
  9 43  1  0
 10 44  1  0
 11 45  1  0
 12 46  1  0
 13 47  1  0
 13 48  1  0
 14 49  1  0
 14 50  1  0
 18 51  1  0
 18 52  1  0
 19 53  1  6
 20 54  1  0
 20 55  1  0
 21 56  1  0
 23 57  1  0
 24 58  1  0
 25 59  1  0
 26 60  1  0
 27 61  1  0
 29 62  1  0
 30 63  1  0
 31 64  1  0
 32 65  1  0
 33 66  1  0
 34 67  1  0
 34 68  1  0
 35 69  1  0
 35 70  1  0
M  END
>  <smiles>  (37) 
CCC(=O)N(c1ccccc1)C1CCN(C(=O)CC(N)C(c2ccccc2)c2ccccc2)CC1

>  <score_type>  (37) 
oracle

>  <origin>  (37) 
autodockgpu

>  <m_score__min__energy>  (37) 
-8.6799999999999997

>  <m_primary>  (37) 
energy

>  <rmsd>  (37) 
7.466556334574194

>  <m_score__min__rmsd>  (37) 
7.466556334574194

>  <meeko>  (37) 
{"free_energy": -8.45, "intermolecular_energy": -11.43, "internal_energy": -3.12, "cluster_size": 36, "cluster_id": 1, "rank_in_cluster": 16}

>  <energy>  (37) 
-7.97

>  <cluster_rmsd>  (37) 
0.0

>  <cluster>  (37) 
2

$$$$

     RDKit          3D

 70 73  0  0  0  0  0  0  0  0999 V2000
  138.5240   67.4470  222.4240 C   0  0  0  0  0  0  0  0  0  0  0  0
  137.4200   68.4010  222.7050 C   0  0  0  0  0  0  0  0  0  0  0  0
  137.5850   69.2200  223.9270 C   0  0  0  0  0  0  0  0  0  0  0  0
  136.5520   69.3550  224.6320 O   0  0  0  0  0  0  0  0  0  0  0  0
  138.8560   69.8310  224.2890 N   0  0  0  0  0  0  0  0  0  0  0  0
  139.4940   69.4930  225.5180 C   0  0  0  0  0  0  0  0  0  0  0  0
  139.9470   70.4270  226.4250 C   0  0  0  0  0  0  0  0  0  0  0  0
  140.5290   70.1110  227.6380 C   0  0  0  0  0  0  0  0  0  0  0  0
  140.6910   68.8070  228.0160 C   0  0  0  0  0  0  0  0  0  0  0  0
  140.2540   67.8390  227.1440 C   0  0  0  0  0  0  0  0  0  0  0  0
  139.6660   68.1640  225.9190 C   0  0  0  0  0  0  0  0  0  0  0  0
  139.3580   70.7630  223.3240 C   0  0  0  0  0  0  0  0  0  0  0  0
  138.3810   71.8890  223.1170 C   0  0  0  0  0  0  0  0  0  0  0  0
  138.7730   72.4970  221.7550 C   0  0  0  0  0  0  0  0  0  0  0  0
  140.1940   72.7790  221.6910 N   0  0  0  0  0  0  0  0  0  0  0  0
  140.7010   74.0810  221.3370 C   0  0  0  0  0  0  0  0  0  0  0  0
  141.9430   74.2230  221.3060 O   0  0  0  0  0  0  0  0  0  0  0  0
  139.7010   75.1200  221.0480 C   0  0  0  0  0  0  0  0  0  0  0  0
  140.1950   76.5260  221.0560 C   0  0  2  0  0  0  0  0  0  0  0  0
  141.5830   76.5890  220.5730 N   0  0  0  0  0  0  0  0  0  0  0  0
  140.0870   77.2280  222.3580 C   0  0  0  0  0  0  0  0  0  0  0  0
  138.6490   77.5100  222.6580 C   0  0  0  0  0  0  0  0  0  0  0  0
  138.1510   78.8100  222.7030 C   0  0  0  0  0  0  0  0  0  0  0  0
  136.8560   79.1260  222.9590 C   0  0  0  0  0  0  0  0  0  0  0  0
  135.9590   78.0920  223.1930 C   0  0  0  0  0  0  0  0  0  0  0  0
  136.3850   76.7880  223.1630 C   0  0  0  0  0  0  0  0  0  0  0  0
  137.7280   76.5110  222.8950 C   0  0  0  0  0  0  0  0  0  0  0  0
  140.9120   78.4270  222.5330 C   0  0  0  0  0  0  0  0  0  0  0  0
  141.1640   79.3650  221.5560 C   0  0  0  0  0  0  0  0  0  0  0  0
  141.9520   80.4860  221.7810 C   0  0  0  0  0  0  0  0  0  0  0  0
  142.5180   80.6960  223.0280 C   0  0  0  0  0  0  0  0  0  0  0  0
  142.2770   79.7610  224.0340 C   0  0  0  0  0  0  0  0  0  0  0  0
  141.4970   78.6710  223.7740 C   0  0  0  0  0  0  0  0  0  0  0  0
  141.1390   71.6890  222.0110 C   0  0  0  0  0  0  0  0  0  0  0  0
  140.7200   71.3190  223.4740 C   0  0  0  0  0  0  0  0  0  0  0  0
  138.9448   67.0834  223.3730 H   0  0  0  0  0  0  0  0  0  0  0  0
  138.1350   66.5961  221.8455 H   0  0  0  0  0  0  0  0  0  0  0  0
  139.3095   67.9553  221.8455 H   0  0  0  0  0  0  0  0  0  0  0  0
  137.3353   69.0844  221.8472 H   0  0  0  0  0  0  0  0  0  0  0  0
  136.5228   67.7865  222.8705 H   0  0  0  0  0  0  0  0  0  0  0  0
  139.8384   71.4908  226.1671 H   0  0  0  0  0  0  0  0  0  0  0  0
  140.8655   70.9171  228.3065 H   0  0  0  0  0  0  0  0  0  0  0  0
  141.1524   68.5435  228.9791 H   0  0  0  0  0  0  0  0  0  0  0  0
  140.3702   66.7800  227.4178 H   0  0  0  0  0  0  0  0  0  0  0  0
  139.3301   67.3550  225.2536 H   0  0  0  0  0  0  0  0  0  0  0  0
  139.4663   70.1104  222.4452 H   0  0  0  0  0  0  0  0  0  0  0  0
  137.3493   71.5083  223.0901 H   0  0  0  0  0  0  0  0  0  0  0  0
  138.4175   72.6285  223.9305 H   0  0  0  0  0  0  0  0  0  0  0  0
  138.5130   71.7856  220.9573 H   0  0  0  0  0  0  0  0  0  0  0  0
  138.2262   73.4429  221.6278 H   0  0  0  0  0  0  0  0  0  0  0  0
  139.2832   74.9163  220.0510 H   0  0  0  0  0  0  0  0  0  0  0  0
  138.9678   75.0599  221.8658 H   0  0  0  0  0  0  0  0  0  0  0  0
  139.5188   77.0618  220.3736 H   0  0  0  0  0  0  0  0  0  0  0  0
  141.7680   75.8600  219.8460 H   0  0  0  0  0  0  0  0  0  0  0  0
  142.2430   76.3990  221.3650 H   0  0  0  0  0  0  0  0  0  0  0  0
  140.5148   76.5279  223.0907 H   0  0  0  0  0  0  0  0  0  0  0  0
  138.8541   79.6357  222.5188 H   0  0  0  0  0  0  0  0  0  0  0  0
  136.5253   80.1749  222.9806 H   0  0  0  0  0  0  0  0  0  0  0  0
  134.9034   78.3191  223.4031 H   0  0  0  0  0  0  0  0  0  0  0  0
  135.6755   75.9680  223.3483 H   0  0  0  0  0  0  0  0  0  0  0  0
  138.0614   75.4630  222.8723 H   0  0  0  0  0  0  0  0  0  0  0  0
  140.7237   79.2202  220.5584 H   0  0  0  0  0  0  0  0  0  0  0  0
  142.1268   81.2073  220.9691 H   0  0  0  0  0  0  0  0  0  0  0  0
  143.1434   81.5803  223.2201 H   0  0  0  0  0  0  0  0  0  0  0  0
  142.7138   79.9011  225.0338 H   0  0  0  0  0  0  0  0  0  0  0  0
  141.3215   77.9490  224.5851 H   0  0  0  0  0  0  0  0  0  0  0  0
  141.0106   70.8350  221.3297 H   0  0  0  0  0  0  0  0  0  0  0  0
  142.1968   71.9731  221.9095 H   0  0  0  0  0  0  0  0  0  0  0  0
  141.4039   70.5698  223.8994 H   0  0  0  0  0  0  0  0  0  0  0  0
  140.7534   72.1815  224.1558 H   0  0  0  0  0  0  0  0  0  0  0  0
  1  2  1  0
  2  3  1  0
  3  4  2  0
  3  5  1  0
  5  6  1  0
  6  7  2  0
  7  8  1  0
  8  9  2  0
  9 10  1  0
 10 11  2  0
  5 12  1  0
 12 13  1  0
 13 14  1  0
 14 15  1  0
 15 16  1  0
 16 17  2  0
 16 18  1  0
 18 19  1  0
 19 20  1  0
 19 21  1  0
 21 22  1  0
 22 23  2  0
 23 24  1  0
 24 25  2  0
 25 26  1  0
 26 27  2  0
 21 28  1  0
 28 29  2  0
 29 30  1  0
 30 31  2  0
 31 32  1  0
 32 33  2  0
 15 34  1  0
 34 35  1  0
 11  6  1  0
 35 12  1  0
 27 22  1  0
 33 28  1  0
  1 36  1  0
  1 37  1  0
  1 38  1  0
  2 39  1  0
  2 40  1  0
  7 41  1  0
  8 42  1  0
  9 43  1  0
 10 44  1  0
 11 45  1  0
 12 46  1  0
 13 47  1  0
 13 48  1  0
 14 49  1  0
 14 50  1  0
 18 51  1  0
 18 52  1  0
 19 53  1  6
 20 54  1  0
 20 55  1  0
 21 56  1  0
 23 57  1  0
 24 58  1  0
 25 59  1  0
 26 60  1  0
 27 61  1  0
 29 62  1  0
 30 63  1  0
 31 64  1  0
 32 65  1  0
 33 66  1  0
 34 67  1  0
 34 68  1  0
 35 69  1  0
 35 70  1  0
M  END
>  <smiles>  (38) 
CCC(=O)N(c1ccccc1)C1CCN(C(=O)CC(N)C(c2ccccc2)c2ccccc2)CC1

>  <score_type>  (38) 
oracle

>  <origin>  (38) 
autodockgpu

>  <m_score__min__energy>  (38) 
-8.6799999999999997

>  <m_primary>  (38) 
energy

>  <rmsd>  (38) 
7.576097308826216

>  <m_score__min__rmsd>  (38) 
7.576097308826216

>  <meeko>  (38) 
{"free_energy": -8.54, "intermolecular_energy": -11.53, "internal_energy": -3.12, "cluster_size": 36, "cluster_id": 1, "rank_in_cluster": 6}

>  <energy>  (38) 
-7.93

>  <cluster_rmsd>  (38) 
0.23

>  <cluster>  (38) 
2

$$$$

     RDKit          3D

 70 73  0  0  0  0  0  0  0  0999 V2000
  142.5650   79.9680  223.4020 C   0  0  0  0  0  0  0  0  0  0  0  0
  141.8060   78.7000  223.5470 C   0  0  0  0  0  0  0  0  0  0  0  0
  140.4840   78.6720  222.8820 C   0  0  0  0  0  0  0  0  0  0  0  0
  139.5480   79.2270  223.5140 O   0  0  0  0  0  0  0  0  0  0  0  0
  140.2780   78.0430  221.5850 N   0  0  0  0  0  0  0  0  0  0  0  0
  141.0380   78.4610  220.4530 C   0  0  0  0  0  0  0  0  0  0  0  0
  141.1510   79.7750  220.0530 C   0  0  0  0  0  0  0  0  0  0  0  0
  141.9180   80.1960  218.9830 C   0  0  0  0  0  0  0  0  0  0  0  0
  142.6310   79.2970  218.2390 C   0  0  0  0  0  0  0  0  0  0  0  0
  142.5500   77.9750  218.6000 C   0  0  0  0  0  0  0  0  0  0  0  0
  141.7720   77.5540  219.6830 C   0  0  0  0  0  0  0  0  0  0  0  0
  139.2750   77.0200  221.5780 C   0  0  0  0  0  0  0  0  0  0  0  0
  139.8970   75.6720  221.3260 C   0  0  0  0  0  0  0  0  0  0  0  0
  138.7270   74.7910  220.8430 C   0  0  0  0  0  0  0  0  0  0  0  0
  137.5900   74.8840  221.7380 N   0  0  0  0  0  0  0  0  0  0  0  0
  136.9730   73.7160  222.3160 C   0  0  0  0  0  0  0  0  0  0  0  0
  135.9950   73.9010  223.0720 O   0  0  0  0  0  0  0  0  0  0  0  0
  137.5600   72.4160  221.9560 C   0  0  0  0  0  0  0  0  0  0  0  0
  137.8340   71.4850  223.0870 C   0  0  2  0  0  0  0  0  0  0  0  0
  136.8870   71.7170  224.1890 N   0  0  0  0  0  0  0  0  0  0  0  0
  139.2220   71.5130  223.6090 C   0  0  0  0  0  0  0  0  0  0  0  0
  140.1850   71.5770  222.4650 C   0  0  0  0  0  0  0  0  0  0  0  0
  140.2580   70.5660  221.5100 C   0  0  0  0  0  0  0  0  0  0  0  0
  141.1020   70.5750  220.4480 C   0  0  0  0  0  0  0  0  0  0  0  0
  141.9550   71.6590  220.2930 C   0  0  0  0  0  0  0  0  0  0  0  0
  141.9340   72.6900  221.2000 C   0  0  0  0  0  0  0  0  0  0  0  0
  141.0470   72.6370  222.2770 C   0  0  0  0  0  0  0  0  0  0  0  0
  139.5930   70.4590  224.5570 C   0  0  0  0  0  0  0  0  0  0  0  0
  139.0300   69.2030  224.6080 C   0  0  0  0  0  0  0  0  0  0  0  0
  139.4250   68.2410  225.5280 C   0  0  0  0  0  0  0  0  0  0  0  0
  140.4250   68.5290  226.4440 C   0  0  0  0  0  0  0  0  0  0  0  0
  141.0110   69.7940  226.4140 C   0  0  0  0  0  0  0  0  0  0  0  0
  140.5950   70.7130  225.4930 C   0  0  0  0  0  0  0  0  0  0  0  0
  137.0660   76.2250  222.0670 C   0  0  0  0  0  0  0  0  0  0  0  0
  138.3210   76.9140  222.7020 C   0  0  0  0  0  0  0  0  0  0  0  0
  142.8044   80.3680  224.3983 H   0  0  0  0  0  0  0  0  0  0  0  0
  143.4971   79.7764  222.8501 H   0  0  0  0  0  0  0  0  0  0  0  0
  141.9558   80.6990  222.8501 H   0  0  0  0  0  0  0  0  0  0  0  0
  142.4163   77.8888  223.1233 H   0  0  0  0  0  0  0  0  0  0  0  0
  141.6066   78.5874  224.6229 H   0  0  0  0  0  0  0  0  0  0  0  0
  140.5961   80.5364  220.6208 H   0  0  0  0  0  0  0  0  0  0  0  0
  141.9553   81.2652  218.7273 H   0  0  0  0  0  0  0  0  0  0  0  0
  143.2449   79.6202  217.3854 H   0  0  0  0  0  0  0  0  0  0  0  0
  143.1122   77.2268  218.0219 H   0  0  0  0  0  0  0  0  0  0  0  0
  141.7367   76.4838  219.9350 H   0  0  0  0  0  0  0  0  0  0  0  0
  138.6320   77.3676  220.7560 H   0  0  0  0  0  0  0  0  0  0  0  0
  140.6762   75.7418  220.5527 H   0  0  0  0  0  0  0  0  0  0  0  0
  140.3863   75.2630  222.2223 H   0  0  0  0  0  0  0  0  0  0  0  0
  138.4206   75.1216  219.8396 H   0  0  0  0  0  0  0  0  0  0  0  0
  139.0668   73.7450  220.8226 H   0  0  0  0  0  0  0  0  0  0  0  0
  136.8656   71.9128  221.2671 H   0  0  0  0  0  0  0  0  0  0  0  0
  138.5424   72.6463  221.5180 H   0  0  0  0  0  0  0  0  0  0  0  0
  137.6982   70.4810  222.6585 H   0  0  0  0  0  0  0  0  0  0  0  0
  135.8980   71.7320  223.8460 H   0  0  0  0  0  0  0  0  0  0  0  0
  137.0690   72.6550  224.6210 H   0  0  0  0  0  0  0  0  0  0  0  0
  139.2734   72.4238  224.2237 H   0  0  0  0  0  0  0  0  0  0  0  0
  139.5864   69.7024  221.6245 H   0  0  0  0  0  0  0  0  0  0  0  0
  141.1102   69.7438  219.7275 H   0  0  0  0  0  0  0  0  0  0  0  0
  142.6500   71.6923  219.4410 H   0  0  0  0  0  0  0  0  0  0  0  0
  142.6097   73.5496  221.0791 H   0  0  0  0  0  0  0  0  0  0  0  0
  141.0354   73.4672  222.9985 H   0  0  0  0  0  0  0  0  0  0  0  0
  138.2349   68.9518  223.8905 H   0  0  0  0  0  0  0  0  0  0  0  0
  138.9449   67.2513  225.5301 H   0  0  0  0  0  0  0  0  0  0  0  0
  140.7489   67.7765  227.1780 H   0  0  0  0  0  0  0  0  0  0  0  0
  141.8058   70.0510  227.1298 H   0  0  0  0  0  0  0  0  0  0  0  0
  141.0744   71.7030  225.4895 H   0  0  0  0  0  0  0  0  0  0  0  0
  136.7315   76.7567  221.1640 H   0  0  0  0  0  0  0  0  0  0  0  0
  136.1857   76.2093  222.7264 H   0  0  0  0  0  0  0  0  0  0  0  0
  138.0649   77.9097  223.0932 H   0  0  0  0  0  0  0  0  0  0  0  0
  138.7294   76.3498  223.5534 H   0  0  0  0  0  0  0  0  0  0  0  0
  1  2  1  0
  2  3  1  0
  3  4  2  0
  3  5  1  0
  5  6  1  0
  6  7  2  0
  7  8  1  0
  8  9  2  0
  9 10  1  0
 10 11  2  0
  5 12  1  0
 12 13  1  0
 13 14  1  0
 14 15  1  0
 15 16  1  0
 16 17  2  0
 16 18  1  0
 18 19  1  0
 19 20  1  0
 19 21  1  0
 21 22  1  0
 22 23  2  0
 23 24  1  0
 24 25  2  0
 25 26  1  0
 26 27  2  0
 21 28  1  0
 28 29  2  0
 29 30  1  0
 30 31  2  0
 31 32  1  0
 32 33  2  0
 15 34  1  0
 34 35  1  0
 11  6  1  0
 35 12  1  0
 27 22  1  0
 33 28  1  0
  1 36  1  0
  1 37  1  0
  1 38  1  0
  2 39  1  0
  2 40  1  0
  7 41  1  0
  8 42  1  0
  9 43  1  0
 10 44  1  0
 11 45  1  0
 12 46  1  0
 13 47  1  0
 13 48  1  0
 14 49  1  0
 14 50  1  0
 18 51  1  0
 18 52  1  0
 19 53  1  6
 20 54  1  0
 20 55  1  0
 21 56  1  0
 23 57  1  0
 24 58  1  0
 25 59  1  0
 26 60  1  0
 27 61  1  0
 29 62  1  0
 30 63  1  0
 31 64  1  0
 32 65  1  0
 33 66  1  0
 34 67  1  0
 34 68  1  0
 35 69  1  0
 35 70  1  0
M  END
>  <smiles>  (39) 
CCC(=O)N(c1ccccc1)C1CCN(C(=O)CC(N)C(c2ccccc2)c2ccccc2)CC1

>  <score_type>  (39) 
oracle

>  <origin>  (39) 
autodockgpu

>  <m_score__min__energy>  (39) 
-8.6799999999999997

>  <m_primary>  (39) 
energy

>  <rmsd>  (39) 
4.928498640296897

>  <m_score__min__rmsd>  (39) 
4.928498640296897

>  <meeko>  (39) 
{"free_energy": -7.26, "intermolecular_energy": -10.24, "internal_energy": -3.48, "cluster_size": 1, "cluster_id": 4, "rank_in_cluster": 1}

>  <energy>  (39) 
-7.86

>  <cluster_rmsd>  (39) 
0.28

>  <cluster>  (39) 
2

$$$$

     RDKit          3D

 70 73  0  0  0  0  0  0  0  0999 V2000
  138.4180   67.5290  222.3660 C   0  0  0  0  0  0  0  0  0  0  0  0
  137.3100   68.4530  222.7190 C   0  0  0  0  0  0  0  0  0  0  0  0
  137.5220   69.2590  223.9420 C   0  0  0  0  0  0  0  0  0  0  0  0
  136.5060   69.4250  224.6650 O   0  0  0  0  0  0  0  0  0  0  0  0
  138.8190   69.8260  224.2850 N   0  0  0  0  0  0  0  0  0  0  0  0
  139.4550   69.4780  225.5140 C   0  0  0  0  0  0  0  0  0  0  0  0
  139.6760   68.1790  225.9170 C   0  0  0  0  0  0  0  0  0  0  0  0
  140.3280   67.8300  227.0850 C   0  0  0  0  0  0  0  0  0  0  0  0
  140.8060   68.7920  227.9320 C   0  0  0  0  0  0  0  0  0  0  0  0
  140.6090   70.1030  227.5710 C   0  0  0  0  0  0  0  0  0  0  0  0
  139.9490   70.4500  226.3890 C   0  0  0  0  0  0  0  0  0  0  0  0
  139.3480   70.7270  223.3050 C   0  0  0  0  0  0  0  0  0  0  0  0
  138.4020   71.8760  223.0780 C   0  0  0  0  0  0  0  0  0  0  0  0
  138.8120   72.4480  221.7050 C   0  0  0  0  0  0  0  0  0  0  0  0
  140.2400   72.6890  221.6380 N   0  0  0  0  0  0  0  0  0  0  0  0
  140.7840   73.9700  221.2610 C   0  0  0  0  0  0  0  0  0  0  0  0
  142.0290   74.0770  221.2290 O   0  0  0  0  0  0  0  0  0  0  0  0
  139.8130   75.0310  220.9540 C   0  0  0  0  0  0  0  0  0  0  0  0
  140.3230   76.4300  221.0350 C   0  0  2  0  0  0  0  0  0  0  0  0
  141.7330   76.4910  220.6200 N   0  0  0  0  0  0  0  0  0  0  0  0
  140.1620   77.0870  222.3540 C   0  0  0  0  0  0  0  0  0  0  0  0
  138.7100   77.3370  222.6150 C   0  0  0  0  0  0  0  0  0  0  0  0
  137.8230   76.2960  222.8810 C   0  0  0  0  0  0  0  0  0  0  0  0
  136.5000   76.4630  223.1350 C   0  0  0  0  0  0  0  0  0  0  0  0
  135.9860   77.7520  223.1330 C   0  0  0  0  0  0  0  0  0  0  0  0
  136.8070   78.8230  222.8780 C   0  0  0  0  0  0  0  0  0  0  0  0
  138.1620   78.6020  222.6220 C   0  0  0  0  0  0  0  0  0  0  0  0
  140.9600   78.2930  222.5930 C   0  0  0  0  0  0  0  0  0  0  0  0
  141.5790   78.6120  223.7810 C   0  0  0  0  0  0  0  0  0  0  0  0
  142.3280   79.7690  223.9490 C   0  0  0  0  0  0  0  0  0  0  0  0
  142.4750   80.6570  222.8950 C   0  0  0  0  0  0  0  0  0  0  0  0
  141.8580   80.3570  221.6810 C   0  0  0  0  0  0  0  0  0  0  0  0
  141.1300   79.2090  221.5550 C   0  0  0  0  0  0  0  0  0  0  0  0
  141.1540   71.5790  221.9780 C   0  0  0  0  0  0  0  0  0  0  0  0
  140.7240   71.2470  223.4470 C   0  0  0  0  0  0  0  0  0  0  0  0
  138.8808   67.1430  223.2862 H   0  0  0  0  0  0  0  0  0  0  0  0
  138.0217   66.6901  221.7752 H   0  0  0  0  0  0  0  0  0  0  0  0
  139.1721   68.0696  221.7752 H   0  0  0  0  0  0  0  0  0  0  0  0
  137.1642   69.1456  221.8770 H   0  0  0  0  0  0  0  0  0  0  0  0
  136.4368   67.8159  222.9230 H   0  0  0  0  0  0  0  0  0  0  0  0
  139.3107   67.3689  225.2687 H   0  0  0  0  0  0  0  0  0  0  0  0
  140.4639   66.7677  227.3359 H   0  0  0  0  0  0  0  0  0  0  0  0
  141.3268   68.5268  228.8639 H   0  0  0  0  0  0  0  0  0  0  0  0
  140.9809   70.9012  228.2303 H   0  0  0  0  0  0  0  0  0  0  0  0
  139.8150   71.5133  226.1412 H   0  0  0  0  0  0  0  0  0  0  0  0
  139.4397   70.0570  222.4374 H   0  0  0  0  0  0  0  0  0  0  0  0
  137.3602   71.5236  223.0571 H   0  0  0  0  0  0  0  0  0  0  0  0
  138.4580   72.6285  223.8784 H   0  0  0  0  0  0  0  0  0  0  0  0
  138.5330   71.7296  220.9201 H   0  0  0  0  0  0  0  0  0  0  0  0
  138.2918   73.4062  221.5596 H   0  0  0  0  0  0  0  0  0  0  0  0
  139.4468   74.8655  219.9300 H   0  0  0  0  0  0  0  0  0  0  0  0
  139.0362   74.9542  221.7290 H   0  0  0  0  0  0  0  0  0  0  0  0
  139.6862   76.9985  220.3412 H   0  0  0  0  0  0  0  0  0  0  0  0
  141.9390   75.8000  219.8620 H   0  0  0  0  0  0  0  0  0  0  0  0
  142.3510   76.2420  221.4290 H   0  0  0  0  0  0  0  0  0  0  0  0
  140.5779   76.3706  223.0778 H   0  0  0  0  0  0  0  0  0  0  0  0
  138.2212   75.2706  222.8855 H   0  0  0  0  0  0  0  0  0  0  0  0
  135.8514   75.5979  223.3374 H   0  0  0  0  0  0  0  0  0  0  0  0
  134.9175   77.9165  223.3363 H   0  0  0  0  0  0  0  0  0  0  0  0
  136.4011   79.8454  222.8754 H   0  0  0  0  0  0  0  0  0  0  0  0
  138.8131   79.4652  222.4194 H   0  0  0  0  0  0  0  0  0  0  0  0
  141.4759   77.9221  224.6315 H   0  0  0  0  0  0  0  0  0  0  0  0
  142.8043   79.9807  224.9177 H   0  0  0  0  0  0  0  0  0  0  0  0
  143.0651   81.5777  223.0135 H   0  0  0  0  0  0  0  0  0  0  0  0
  141.9576   81.0434  220.8273 H   0  0  0  0  0  0  0  0  0  0  0  0
  140.6538   78.9958  220.5866 H   0  0  0  0  0  0  0  0  0  0  0  0
  141.0021   70.7169  221.3118 H   0  0  0  0  0  0  0  0  0  0  0  0
  142.2194   71.8315  221.8724 H   0  0  0  0  0  0  0  0  0  0  0  0
  141.3864   70.4867  223.8865 H   0  0  0  0  0  0  0  0  0  0  0  0
  140.7811   72.1201  224.1136 H   0  0  0  0  0  0  0  0  0  0  0  0
  1  2  1  0
  2  3  1  0
  3  4  2  0
  3  5  1  0
  5  6  1  0
  6  7  2  0
  7  8  1  0
  8  9  2  0
  9 10  1  0
 10 11  2  0
  5 12  1  0
 12 13  1  0
 13 14  1  0
 14 15  1  0
 15 16  1  0
 16 17  2  0
 16 18  1  0
 18 19  1  0
 19 20  1  0
 19 21  1  0
 21 22  1  0
 22 23  2  0
 23 24  1  0
 24 25  2  0
 25 26  1  0
 26 27  2  0
 21 28  1  0
 28 29  2  0
 29 30  1  0
 30 31  2  0
 31 32  1  0
 32 33  2  0
 15 34  1  0
 34 35  1  0
 11  6  1  0
 35 12  1  0
 27 22  1  0
 33 28  1  0
  1 36  1  0
  1 37  1  0
  1 38  1  0
  2 39  1  0
  2 40  1  0
  7 41  1  0
  8 42  1  0
  9 43  1  0
 10 44  1  0
 11 45  1  0
 12 46  1  0
 13 47  1  0
 13 48  1  0
 14 49  1  0
 14 50  1  0
 18 51  1  0
 18 52  1  0
 19 53  1  6
 20 54  1  0
 20 55  1  0
 21 56  1  0
 23 57  1  0
 24 58  1  0
 25 59  1  0
 26 60  1  0
 27 61  1  0
 29 62  1  0
 30 63  1  0
 31 64  1  0
 32 65  1  0
 33 66  1  0
 34 67  1  0
 34 68  1  0
 35 69  1  0
 35 70  1  0
M  END
>  <smiles>  (40) 
CCC(=O)N(c1ccccc1)C1CCN(C(=O)CC(N)C(c2ccccc2)c2ccccc2)CC1

>  <score_type>  (40) 
oracle

>  <origin>  (40) 
autodockgpu

>  <m_score__min__energy>  (40) 
-8.6799999999999997

>  <m_primary>  (40) 
energy

>  <rmsd>  (40) 
7.637967423538683

>  <m_score__min__rmsd>  (40) 
7.637967423538683

>  <meeko>  (40) 
{"free_energy": -8.52, "intermolecular_energy": -11.51, "internal_energy": -3.15, "cluster_size": 36, "cluster_id": 1, "rank_in_cluster": 8}

>  <energy>  (40) 
-7.86

>  <cluster_rmsd>  (40) 
0.31

>  <cluster>  (40) 
2

$$$$

     RDKit          3D

 70 73  0  0  0  0  0  0  0  0999 V2000
  146.3320   73.1040  221.6760 C   0  0  0  0  0  0  0  0  0  0  0  0
  145.8770   73.7820  220.4350 C   0  0  0  0  0  0  0  0  0  0  0  0
  145.5140   72.8820  219.3180 C   0  0  0  0  0  0  0  0  0  0  0  0
  146.1910   73.0220  218.2660 O   0  0  0  0  0  0  0  0  0  0  0  0
  144.4420   71.9010  219.4250 N   0  0  0  0  0  0  0  0  0  0  0  0
  144.7370   70.5060  219.3950 C   0  0  0  0  0  0  0  0  0  0  0  0
  143.8250   69.5270  219.7280 C   0  0  0  0  0  0  0  0  0  0  0  0
  144.0860   68.1720  219.6630 C   0  0  0  0  0  0  0  0  0  0  0  0
  145.3070   67.7140  219.2490 C   0  0  0  0  0  0  0  0  0  0  0  0
  146.2480   68.6540  218.9070 C   0  0  0  0  0  0  0  0  0  0  0  0
  145.9790   70.0240  218.9740 C   0  0  0  0  0  0  0  0  0  0  0  0
  143.1330   72.4690  219.5500 C   0  0  0  0  0  0  0  0  0  0  0  0
  142.9290   73.0290  220.9320 C   0  0  0  0  0  0  0  0  0  0  0  0
  141.3970   73.1220  221.0890 C   0  0  0  0  0  0  0  0  0  0  0  0
  140.7900   73.8000  219.9600 N   0  0  0  0  0  0  0  0  0  0  0  0
  139.9160   74.9340  220.1270 C   0  0  0  0  0  0  0  0  0  0  0  0
  139.4390   75.4460  219.0920 O   0  0  0  0  0  0  0  0  0  0  0  0
  139.6710   75.3780  221.5080 C   0  0  0  0  0  0  0  0  0  0  0  0
  139.8380   76.8360  221.7670 C   0  0  2  0  0  0  0  0  0  0  0  0
  138.9980   77.6230  220.8510 N   0  0  0  0  0  0  0  0  0  0  0  0
  141.2340   77.3330  221.7150 C   0  0  0  0  0  0  0  0  0  0  0  0
  141.3340   78.6250  222.4630 C   0  0  0  0  0  0  0  0  0  0  0  0
  142.5470   79.2940  222.6130 C   0  0  0  0  0  0  0  0  0  0  0  0
  142.6960   80.4720  223.2710 C   0  0  0  0  0  0  0  0  0  0  0  0
  141.5720   81.0580  223.8360 C   0  0  0  0  0  0  0  0  0  0  0  0
  140.3460   80.4500  223.7250 C   0  0  0  0  0  0  0  0  0  0  0  0
  140.2410   79.2380  223.0390 C   0  0  0  0  0  0  0  0  0  0  0  0
  141.8490   77.4390  220.3890 C   0  0  0  0  0  0  0  0  0  0  0  0
  142.7450   76.5390  219.8560 C   0  0  0  0  0  0  0  0  0  0  0  0
  143.2930   76.6890  218.5890 C   0  0  0  0  0  0  0  0  0  0  0  0
  142.9420   77.7780  217.8060 C   0  0  0  0  0  0  0  0  0  0  0  0
  142.0350   78.7040  218.3230 C   0  0  0  0  0  0  0  0  0  0  0  0
  141.5180   78.5210  219.5740 C   0  0  0  0  0  0  0  0  0  0  0  0
  141.0970   73.3080  218.6010 C   0  0  0  0  0  0  0  0  0  0  0  0
  142.6550   73.4490  218.5510 C   0  0  0  0  0  0  0  0  0  0  0  0
  145.9615   73.6560  222.5523 H   0  0  0  0  0  0  0  0  0  0  0  0
  145.9399   72.0765  221.6973 H   0  0  0  0  0  0  0  0  0  0  0  0
  147.4315   73.0774  221.6973 H   0  0  0  0  0  0  0  0  0  0  0  0
  144.9934   74.3881  220.6836 H   0  0  0  0  0  0  0  0  0  0  0  0
  146.7335   74.3746  220.0813 H   0  0  0  0  0  0  0  0  0  0  0  0
  142.8277   69.8446  220.0664 H   0  0  0  0  0  0  0  0  0  0  0  0
  143.3034   67.4532  219.9473 H   0  0  0  0  0  0  0  0  0  0  0  0
  145.5259   66.6375  219.1924 H   0  0  0  0  0  0  0  0  0  0  0  0
  147.2407   68.3196  218.5711 H   0  0  0  0  0  0  0  0  0  0  0  0
  146.7639   70.7398  218.6884 H   0  0  0  0  0  0  0  0  0  0  0  0
  142.5066   71.5905  219.3360 H   0  0  0  0  0  0  0  0  0  0  0  0
  143.3575   72.3576  221.6907 H   0  0  0  0  0  0  0  0  0  0  0  0
  143.4230   74.0027  221.0659 H   0  0  0  0  0  0  0  0  0  0  0  0
  140.9822   72.1058  221.1615 H   0  0  0  0  0  0  0  0  0  0  0  0
  141.1765   73.6992  221.9991 H   0  0  0  0  0  0  0  0  0  0  0  0
  138.6379   75.1062  221.7702 H   0  0  0  0  0  0  0  0  0  0  0  0
  140.4378   74.8795  222.1192 H   0  0  0  0  0  0  0  0  0  0  0  0
  139.5140   76.9716  222.8094 H   0  0  0  0  0  0  0  0  0  0  0  0
  137.9940   77.3330  220.9080 H   0  0  0  0  0  0  0  0  0  0  0  0
  139.3020   77.4570  219.8610 H   0  0  0  0  0  0  0  0  0  0  0  0
  141.8303   76.5459  222.1996 H   0  0  0  0  0  0  0  0  0  0  0  0
  143.4436   78.8372  222.1687 H   0  0  0  0  0  0  0  0  0  0  0  0
  143.6831   80.9502  223.3543 H   0  0  0  0  0  0  0  0  0  0  0  0
  141.6637   82.0128  224.3745 H   0  0  0  0  0  0  0  0  0  0  0  0
  139.4543   80.9134  224.1724 H   0  0  0  0  0  0  0  0  0  0  0  0
  139.2553   78.7570  222.9554 H   0  0  0  0  0  0  0  0  0  0  0  0
  143.0382   75.6664  220.4581 H   0  0  0  0  0  0  0  0  0  0  0  0
  144.0058   75.9436  218.2064 H   0  0  0  0  0  0  0  0  0  0  0  0
  143.3686   77.9090  216.8006 H   0  0  0  0  0  0  0  0  0  0  0  0
  141.7375   79.5782  217.7252 H   0  0  0  0  0  0  0  0  0  0  0  0
  140.8044   79.2649  219.9580 H   0  0  0  0  0  0  0  0  0  0  0  0
  140.7858   72.2605  218.4749 H   0  0  0  0  0  0  0  0  0  0  0  0
  140.5753   73.8550  217.8018 H   0  0  0  0  0  0  0  0  0  0  0  0
  143.0381   73.2051  217.5491 H   0  0  0  0  0  0  0  0  0  0  0  0
  142.9954   74.4730  218.7646 H   0  0  0  0  0  0  0  0  0  0  0  0
  1  2  1  0
  2  3  1  0
  3  4  2  0
  3  5  1  0
  5  6  1  0
  6  7  2  0
  7  8  1  0
  8  9  2  0
  9 10  1  0
 10 11  2  0
  5 12  1  0
 12 13  1  0
 13 14  1  0
 14 15  1  0
 15 16  1  0
 16 17  2  0
 16 18  1  0
 18 19  1  0
 19 20  1  0
 19 21  1  0
 21 22  1  0
 22 23  2  0
 23 24  1  0
 24 25  2  0
 25 26  1  0
 26 27  2  0
 21 28  1  0
 28 29  2  0
 29 30  1  0
 30 31  2  0
 31 32  1  0
 32 33  2  0
 15 34  1  0
 34 35  1  0
 11  6  1  0
 35 12  1  0
 27 22  1  0
 33 28  1  0
  1 36  1  0
  1 37  1  0
  1 38  1  0
  2 39  1  0
  2 40  1  0
  7 41  1  0
  8 42  1  0
  9 43  1  0
 10 44  1  0
 11 45  1  0
 12 46  1  0
 13 47  1  0
 13 48  1  0
 14 49  1  0
 14 50  1  0
 18 51  1  0
 18 52  1  0
 19 53  1  1
 20 54  1  0
 20 55  1  0
 21 56  1  0
 23 57  1  0
 24 58  1  0
 25 59  1  0
 26 60  1  0
 27 61  1  0
 29 62  1  0
 30 63  1  0
 31 64  1  0
 32 65  1  0
 33 66  1  0
 34 67  1  0
 34 68  1  0
 35 69  1  0
 35 70  1  0
M  END
>  <smiles>  (41) 
CCC(=O)N(c1ccccc1)C1CCN(C(=O)CC(N)C(c2ccccc2)c2ccccc2)CC1

>  <score_type>  (41) 
oracle

>  <origin>  (41) 
autodockgpu

>  <m_score__min__energy>  (41) 
-8.6799999999999997

>  <m_primary>  (41) 
energy

>  <rmsd>  (41) 
8.468323538826217

>  <m_score__min__rmsd>  (41) 
8.468323538826217

>  <meeko>  (41) 
{"free_energy": -7.93, "intermolecular_energy": -10.91, "internal_energy": -3.61, "cluster_size": 12, "cluster_id": 2, "rank_in_cluster": 2}

>  <energy>  (41) 
-7.77

>  <cluster_rmsd>  (41) 
1.5

>  <cluster>  (41) 
2

$$$$

     RDKit          3D

 70 73  0  0  0  0  0  0  0  0999 V2000
  138.4460   68.1240  222.5590 C   0  0  0  0  0  0  0  0  0  0  0  0
  137.3840   69.1630  222.5460 C   0  0  0  0  0  0  0  0  0  0  0  0
  137.6430   70.3450  223.3990 C   0  0  0  0  0  0  0  0  0  0  0  0
  136.6200   70.9410  223.8250 O   0  0  0  0  0  0  0  0  0  0  0  0
  138.9920   70.7920  223.7210 N   0  0  0  0  0  0  0  0  0  0  0  0
  139.5650   70.4950  224.9930 C   0  0  0  0  0  0  0  0  0  0  0  0
  139.5570   69.2370  225.5570 C   0  0  0  0  0  0  0  0  0  0  0  0
  140.1450   68.9290  226.7690 C   0  0  0  0  0  0  0  0  0  0  0  0
  140.7900   69.8910  227.4980 C   0  0  0  0  0  0  0  0  0  0  0  0
  140.8230   71.1600  226.9740 C   0  0  0  0  0  0  0  0  0  0  0  0
  140.2270   71.4670  225.7480 C   0  0  0  0  0  0  0  0  0  0  0  0
  139.6350   71.5280  222.6740 C   0  0  0  0  0  0  0  0  0  0  0  0
  138.8510   72.7690  222.3400 C   0  0  0  0  0  0  0  0  0  0  0  0
  139.3320   73.1630  220.9290 C   0  0  0  0  0  0  0  0  0  0  0  0
  140.7800   73.2060  220.8570 N   0  0  0  0  0  0  0  0  0  0  0  0
  141.4900   74.3670  220.3810 C   0  0  0  0  0  0  0  0  0  0  0  0
  142.7370   74.3040  220.3530 O   0  0  0  0  0  0  0  0  0  0  0  0
  140.6690   75.5180  219.9740 C   0  0  0  0  0  0  0  0  0  0  0  0
  141.1780   76.8610  220.3730 C   0  0  2  0  0  0  0  0  0  0  0  0
  142.6180   76.9710  220.0920 N   0  0  0  0  0  0  0  0  0  0  0  0
  140.9130   77.2470  221.7790 C   0  0  0  0  0  0  0  0  0  0  0  0
  139.4440   77.1660  222.0520 C   0  0  0  0  0  0  0  0  0  0  0  0
  138.5720   78.1880  221.6820 C   0  0  0  0  0  0  0  0  0  0  0  0
  137.2320   78.1650  221.8930 C   0  0  0  0  0  0  0  0  0  0  0  0
  136.6820   77.0550  222.5200 C   0  0  0  0  0  0  0  0  0  0  0  0
  137.4860   76.0130  222.9110 C   0  0  0  0  0  0  0  0  0  0  0  0
  138.8610   76.0810  222.6710 C   0  0  0  0  0  0  0  0  0  0  0  0
  141.4680   78.5270  222.2290 C   0  0  0  0  0  0  0  0  0  0  0  0
  141.7090   79.6150  221.4200 C   0  0  0  0  0  0  0  0  0  0  0  0
  142.2330   80.8060  221.9040 C   0  0  0  0  0  0  0  0  0  0  0  0
  142.5350   80.9340  223.2510 C   0  0  0  0  0  0  0  0  0  0  0  0
  142.2990   79.8460  224.0910 C   0  0  0  0  0  0  0  0  0  0  0  0
  141.7820   78.6910  223.5780 C   0  0  0  0  0  0  0  0  0  0  0  0
  141.5380   72.0180  221.3000 C   0  0  0  0  0  0  0  0  0  0  0  0
  141.0690   71.8710  222.7860 C   0  0  0  0  0  0  0  0  0  0  0  0
  138.7016   67.8739  223.5993 H   0  0  0  0  0  0  0  0  0  0  0  0
  138.0832   67.2224  222.0437 H   0  0  0  0  0  0  0  0  0  0  0  0
  139.3394   68.5064  222.0437 H   0  0  0  0  0  0  0  0  0  0  0  0
  137.2630   69.5119  221.5099 H   0  0  0  0  0  0  0  0  0  0  0  0
  136.4843   68.6826  222.9580 H   0  0  0  0  0  0  0  0  0  0  0  0
  139.0514   68.4286  225.0084 H   0  0  0  0  0  0  0  0  0  0  0  0
  140.0941   67.8991  227.1521 H   0  0  0  0  0  0  0  0  0  0  0  0
  141.2624   69.6575  228.4636 H   0  0  0  0  0  0  0  0  0  0  0  0
  141.3328   71.9570  227.5351 H   0  0  0  0  0  0  0  0  0  0  0  0
  140.2801   72.4980  225.3682 H   0  0  0  0  0  0  0  0  0  0  0  0
  139.6349   70.7800  221.8675 H   0  0  0  0  0  0  0  0  0  0  0  0
  137.7715   72.5578  222.3377 H   0  0  0  0  0  0  0  0  0  0  0  0
  139.0080   73.5727  223.0745 H   0  0  0  0  0  0  0  0  0  0  0  0
  138.9593   72.4241  220.2044 H   0  0  0  0  0  0  0  0  0  0  0  0
  138.9437   74.1659  220.6981 H   0  0  0  0  0  0  0  0  0  0  0  0
  140.5879   75.5017  218.8771 H   0  0  0  0  0  0  0  0  0  0  0  0
  139.7103   75.3975  220.4997 H   0  0  0  0  0  0  0  0  0  0  0  0
  140.6035   77.5700  219.7588 H   0  0  0  0  0  0  0  0  0  0  0  0
  143.1810   76.3730  220.7400 H   0  0  0  0  0  0  0  0  0  0  0  0
  142.9340   77.9590  220.2440 H   0  0  0  0  0  0  0  0  0  0  0  0
  141.4696   76.5142  222.3816 H   0  0  0  0  0  0  0  0  0  0  0  0
  138.9985   79.0723  221.1858 H   0  0  0  0  0  0  0  0  0  0  0  0
  136.5969   79.0050  221.5752 H   0  0  0  0  0  0  0  0  0  0  0  0
  135.5984   77.0103  222.7041 H   0  0  0  0  0  0  0  0  0  0  0  0
  137.0520   75.1331  223.4084 H   0  0  0  0  0  0  0  0  0  0  0  0
  139.4986   75.2418  222.9861 H   0  0  0  0  0  0  0  0  0  0  0  0
  141.4771   79.5373  220.3475 H   0  0  0  0  0  0  0  0  0  0  0  0
  142.4086   81.6483  221.2186 H   0  0  0  0  0  0  0  0  0  0  0  0
  142.9510   81.8717  223.6480 H   0  0  0  0  0  0  0  0  0  0  0  0
  142.5288   79.9182  225.1643 H   0  0  0  0  0  0  0  0  0  0  0  0
  141.6044   77.8484  224.2624 H   0  0  0  0  0  0  0  0  0  0  0  0
  141.2727   71.1302  220.7071 H   0  0  0  0  0  0  0  0  0  0  0  0
  142.6275   72.1180  221.1857 H   0  0  0  0  0  0  0  0  0  0  0  0
  141.6247   71.0692  223.2943 H   0  0  0  0  0  0  0  0  0  0  0  0
  141.2424   72.7820  223.3777 H   0  0  0  0  0  0  0  0  0  0  0  0
  1  2  1  0
  2  3  1  0
  3  4  2  0
  3  5  1  0
  5  6  1  0
  6  7  2  0
  7  8  1  0
  8  9  2  0
  9 10  1  0
 10 11  2  0
  5 12  1  0
 12 13  1  0
 13 14  1  0
 14 15  1  0
 15 16  1  0
 16 17  2  0
 16 18  1  0
 18 19  1  0
 19 20  1  0
 19 21  1  0
 21 22  1  0
 22 23  2  0
 23 24  1  0
 24 25  2  0
 25 26  1  0
 26 27  2  0
 21 28  1  0
 28 29  2  0
 29 30  1  0
 30 31  2  0
 31 32  1  0
 32 33  2  0
 15 34  1  0
 34 35  1  0
 11  6  1  0
 35 12  1  0
 27 22  1  0
 33 28  1  0
  1 36  1  0
  1 37  1  0
  1 38  1  0
  2 39  1  0
  2 40  1  0
  7 41  1  0
  8 42  1  0
  9 43  1  0
 10 44  1  0
 11 45  1  0
 12 46  1  0
 13 47  1  0
 13 48  1  0
 14 49  1  0
 14 50  1  0
 18 51  1  0
 18 52  1  0
 19 53  1  6
 20 54  1  0
 20 55  1  0
 21 56  1  0
 23 57  1  0
 24 58  1  0
 25 59  1  0
 26 60  1  0
 27 61  1  0
 29 62  1  0
 30 63  1  0
 31 64  1  0
 32 65  1  0
 33 66  1  0
 34 67  1  0
 34 68  1  0
 35 69  1  0
 35 70  1  0
M  END
>  <smiles>  (42) 
CCC(=O)N(c1ccccc1)C1CCN(C(=O)CC(N)C(c2ccccc2)c2ccccc2)CC1

>  <score_type>  (42) 
oracle

>  <origin>  (42) 
autodockgpu

>  <m_score__min__energy>  (42) 
-8.6799999999999997

>  <m_primary>  (42) 
energy

>  <rmsd>  (42) 
7.4789903675266185

>  <m_score__min__rmsd>  (42) 
7.4789903675266185

>  <meeko>  (42) 
{"free_energy": -8.41, "intermolecular_energy": -11.4, "internal_energy": -3.17, "cluster_size": 36, "cluster_id": 1, "rank_in_cluster": 18}

>  <energy>  (42) 
-7.77

>  <cluster_rmsd>  (42) 
0.34

>  <cluster>  (42) 
2

$$$$

     RDKit          3D

 70 73  0  0  0  0  0  0  0  0999 V2000
  138.5150   68.2480  222.4730 C   0  0  0  0  0  0  0  0  0  0  0  0
  137.3370   69.0880  222.8100 C   0  0  0  0  0  0  0  0  0  0  0  0
  137.6470   70.3910  223.4420 C   0  0  0  0  0  0  0  0  0  0  0  0
  136.6520   71.1080  223.7220 O   0  0  0  0  0  0  0  0  0  0  0  0
  139.0130   70.8170  223.7180 N   0  0  0  0  0  0  0  0  0  0  0  0
  139.6220   70.5160  224.9720 C   0  0  0  0  0  0  0  0  0  0  0  0
  140.2820   71.4490  225.7420 C   0  0  0  0  0  0  0  0  0  0  0  0
  140.8390   71.1790  226.9780 C   0  0  0  0  0  0  0  0  0  0  0  0
  140.7610   69.9260  227.5210 C   0  0  0  0  0  0  0  0  0  0  0  0
  140.1110   68.9620  226.7890 C   0  0  0  0  0  0  0  0  0  0  0  0
  139.5490   69.2400  225.5400 C   0  0  0  0  0  0  0  0  0  0  0  0
  139.6340   71.5370  222.6470 C   0  0  0  0  0  0  0  0  0  0  0  0
  138.8720   72.8010  222.3470 C   0  0  0  0  0  0  0  0  0  0  0  0
  139.3070   73.1850  220.9180 C   0  0  0  0  0  0  0  0  0  0  0  0
  140.7520   73.1880  220.7890 N   0  0  0  0  0  0  0  0  0  0  0  0
  141.4730   74.3300  220.2860 C   0  0  0  0  0  0  0  0  0  0  0  0
  142.7170   74.2330  220.2080 O   0  0  0  0  0  0  0  0  0  0  0  0
  140.6690   75.5040  219.9140 C   0  0  0  0  0  0  0  0  0  0  0  0
  141.1890   76.8260  220.3650 C   0  0  2  0  0  0  0  0  0  0  0  0
  142.6360   76.9230  220.1180 N   0  0  0  0  0  0  0  0  0  0  0  0
  140.9000   77.1710  221.7780 C   0  0  0  0  0  0  0  0  0  0  0  0
  139.4260   77.0970  222.0200 C   0  0  0  0  0  0  0  0  0  0  0  0
  138.5580   78.0900  221.5690 C   0  0  0  0  0  0  0  0  0  0  0  0
  137.2130   78.0710  221.7500 C   0  0  0  0  0  0  0  0  0  0  0  0
  136.6540   76.9970  222.4270 C   0  0  0  0  0  0  0  0  0  0  0  0
  137.4530   75.9850  222.8980 C   0  0  0  0  0  0  0  0  0  0  0  0
  138.8330   76.0470  222.6880 C   0  0  0  0  0  0  0  0  0  0  0  0
  141.4590   78.4310  222.2780 C   0  0  0  0  0  0  0  0  0  0  0  0
  141.8490   78.6650  223.5780 C   0  0  0  0  0  0  0  0  0  0  0  0
  142.3760   79.8800  223.9940 C   0  0  0  0  0  0  0  0  0  0  0  0
  142.5280   80.9170  223.0860 C   0  0  0  0  0  0  0  0  0  0  0  0
  142.1410   80.7040  221.7630 C   0  0  0  0  0  0  0  0  0  0  0  0
  141.6260   79.4950  221.3930 C   0  0  0  0  0  0  0  0  0  0  0  0
  141.4930   71.9780  221.1990 C   0  0  0  0  0  0  0  0  0  0  0  0
  141.0800   71.8400  222.7030 C   0  0  0  0  0  0  0  0  0  0  0  0
  138.9973   67.9041  223.3999 H   0  0  0  0  0  0  0  0  0  0  0  0
  138.1885   67.3777  221.8848 H   0  0  0  0  0  0  0  0  0  0  0  0
  139.2314   68.8402  221.8848 H   0  0  0  0  0  0  0  0  0  0  0  0
  136.7832   69.2848  221.8802 H   0  0  0  0  0  0  0  0  0  0  0  0
  136.7614   68.5188  223.5547 H   0  0  0  0  0  0  0  0  0  0  0  0
  140.3711   72.4724  225.3486 H   0  0  0  0  0  0  0  0  0  0  0  0
  141.3506   71.9806  227.5309 H   0  0  0  0  0  0  0  0  0  0  0  0
  141.2007   69.6994  228.5035 H   0  0  0  0  0  0  0  0  0  0  0  0
  140.0307   67.9437  227.1971 H   0  0  0  0  0  0  0  0  0  0  0  0
  139.0371   68.4362  224.9906 H   0  0  0  0  0  0  0  0  0  0  0  0
  139.5810   70.7917  221.8397 H   0  0  0  0  0  0  0  0  0  0  0  0
  137.7877   72.6202  222.3879 H   0  0  0  0  0  0  0  0  0  0  0  0
  139.0808   73.5980  223.0759 H   0  0  0  0  0  0  0  0  0  0  0  0
  138.8855   72.4583  220.2078 H   0  0  0  0  0  0  0  0  0  0  0  0
  138.9375   74.1986  220.7035 H   0  0  0  0  0  0  0  0  0  0  0  0
  140.5974   75.5279  218.8166 H   0  0  0  0  0  0  0  0  0  0  0  0
  139.7047   75.3757  220.4274 H   0  0  0  0  0  0  0  0  0  0  0  0
  140.6385   77.5625  219.7613 H   0  0  0  0  0  0  0  0  0  0  0  0
  143.1750   76.2750  220.7380 H   0  0  0  0  0  0  0  0  0  0  0  0
  142.9690   77.8930  220.3360 H   0  0  0  0  0  0  0  0  0  0  0  0
  141.4371   76.4140  222.3683 H   0  0  0  0  0  0  0  0  0  0  0  0
  138.9918   78.9457  221.0308 H   0  0  0  0  0  0  0  0  0  0  0  0
  136.5816   78.8873  221.3692 H   0  0  0  0  0  0  0  0  0  0  0  0
  135.5665   76.9561  222.5870 H   0  0  0  0  0  0  0  0  0  0  0  0
  137.0110   75.1332  223.4357 H   0  0  0  0  0  0  0  0  0  0  0  0
  139.4665   75.2319  223.0679 H   0  0  0  0  0  0  0  0  0  0  0  0
  141.7385   77.8569  224.3161 H   0  0  0  0  0  0  0  0  0  0  0  0
  142.6730   80.0202  225.0438 H   0  0  0  0  0  0  0  0  0  0  0  0
  142.9441   81.8851  223.4018 H   0  0  0  0  0  0  0  0  0  0  0  0
  142.2504   81.5077  221.0200 H   0  0  0  0  0  0  0  0  0  0  0  0
  141.3278   79.3533  220.3437 H   0  0  0  0  0  0  0  0  0  0  0  0
  141.1790   71.0998  220.6158 H   0  0  0  0  0  0  0  0  0  0  0  0
  142.5794   72.0475  221.0411 H   0  0  0  0  0  0  0  0  0  0  0  0
  141.6331   71.0218  223.1875 H   0  0  0  0  0  0  0  0  0  0  0  0
  141.3022   72.7439  223.2891 H   0  0  0  0  0  0  0  0  0  0  0  0
  1  2  1  0
  2  3  1  0
  3  4  2  0
  3  5  1  0
  5  6  1  0
  6  7  2  0
  7  8  1  0
  8  9  2  0
  9 10  1  0
 10 11  2  0
  5 12  1  0
 12 13  1  0
 13 14  1  0
 14 15  1  0
 15 16  1  0
 16 17  2  0
 16 18  1  0
 18 19  1  0
 19 20  1  0
 19 21  1  0
 21 22  1  0
 22 23  2  0
 23 24  1  0
 24 25  2  0
 25 26  1  0
 26 27  2  0
 21 28  1  0
 28 29  2  0
 29 30  1  0
 30 31  2  0
 31 32  1  0
 32 33  2  0
 15 34  1  0
 34 35  1  0
 11  6  1  0
 35 12  1  0
 27 22  1  0
 33 28  1  0
  1 36  1  0
  1 37  1  0
  1 38  1  0
  2 39  1  0
  2 40  1  0
  7 41  1  0
  8 42  1  0
  9 43  1  0
 10 44  1  0
 11 45  1  0
 12 46  1  0
 13 47  1  0
 13 48  1  0
 14 49  1  0
 14 50  1  0
 18 51  1  0
 18 52  1  0
 19 53  1  6
 20 54  1  0
 20 55  1  0
 21 56  1  0
 23 57  1  0
 24 58  1  0
 25 59  1  0
 26 60  1  0
 27 61  1  0
 29 62  1  0
 30 63  1  0
 31 64  1  0
 32 65  1  0
 33 66  1  0
 34 67  1  0
 34 68  1  0
 35 69  1  0
 35 70  1  0
M  END
>  <smiles>  (43) 
CCC(=O)N(c1ccccc1)C1CCN(C(=O)CC(N)C(c2ccccc2)c2ccccc2)CC1

>  <score_type>  (43) 
oracle

>  <origin>  (43) 
autodockgpu

>  <m_score__min__energy>  (43) 
-8.6799999999999997

>  <m_primary>  (43) 
energy

>  <rmsd>  (43) 
7.463913945688524

>  <m_score__min__rmsd>  (43) 
7.463913945688524

>  <meeko>  (43) 
{"free_energy": -8.36, "intermolecular_energy": -11.34, "internal_energy": -3.19, "cluster_size": 36, "cluster_id": 1, "rank_in_cluster": 21}

>  <energy>  (43) 
-7.63

>  <cluster_rmsd>  (43) 
0.75

>  <cluster>  (43) 
2

$$$$

     RDKit          3D

 70 73  0  0  0  0  0  0  0  0999 V2000
  136.0350   72.0970  223.9370 C   0  0  0  0  0  0  0  0  0  0  0  0
  136.4740   70.6870  224.0980 C   0  0  0  0  0  0  0  0  0  0  0  0
  137.6700   70.3020  223.3130 C   0  0  0  0  0  0  0  0  0  0  0  0
  137.4540   69.5440  222.3330 O   0  0  0  0  0  0  0  0  0  0  0  0
  139.0070   70.7660  223.6550 N   0  0  0  0  0  0  0  0  0  0  0  0
  139.5820   70.4410  224.9190 C   0  0  0  0  0  0  0  0  0  0  0  0
  140.1990   71.3640  225.7360 C   0  0  0  0  0  0  0  0  0  0  0  0
  140.7220   71.0680  226.9810 C   0  0  0  0  0  0  0  0  0  0  0  0
  140.6510   69.7990  227.4850 C   0  0  0  0  0  0  0  0  0  0  0  0
  140.0440   68.8450  226.7060 C   0  0  0  0  0  0  0  0  0  0  0  0
  139.5170   69.1480  225.4480 C   0  0  0  0  0  0  0  0  0  0  0  0
  139.6390   71.5480  222.6340 C   0  0  0  0  0  0  0  0  0  0  0  0
  138.8430   72.7950  222.3530 C   0  0  0  0  0  0  0  0  0  0  0  0
  139.3140   73.2470  220.9560 C   0  0  0  0  0  0  0  0  0  0  0  0
  140.7610   73.3050  220.8790 N   0  0  0  0  0  0  0  0  0  0  0  0
  141.4590   74.4900  220.4450 C   0  0  0  0  0  0  0  0  0  0  0  0
  142.7070   74.4390  220.4080 O   0  0  0  0  0  0  0  0  0  0  0  0
  140.6260   75.6490  220.0870 C   0  0  0  0  0  0  0  0  0  0  0  0
  141.1310   76.9800  220.5270 C   0  0  2  0  0  0  0  0  0  0  0  0
  142.5690   77.1080  220.2390 N   0  0  0  0  0  0  0  0  0  0  0  0
  140.8750   77.3180  221.9480 C   0  0  0  0  0  0  0  0  0  0  0  0
  139.4080   77.2270  222.2270 C   0  0  0  0  0  0  0  0  0  0  0  0
  138.5470   78.2940  221.9810 C   0  0  0  0  0  0  0  0  0  0  0  0
  137.2090   78.2660  222.2040 C   0  0  0  0  0  0  0  0  0  0  0  0
  136.6500   77.1010  222.7110 C   0  0  0  0  0  0  0  0  0  0  0  0
  137.4420   76.0120  222.9770 C   0  0  0  0  0  0  0  0  0  0  0  0
  138.8150   76.0880  222.7300 C   0  0  0  0  0  0  0  0  0  0  0  0
  141.4320   78.5820  222.4370 C   0  0  0  0  0  0  0  0  0  0  0  0
  141.8600   78.8130  223.7260 C   0  0  0  0  0  0  0  0  0  0  0  0
  142.3840   80.0330  224.1330 C   0  0  0  0  0  0  0  0  0  0  0  0
  142.4930   81.0770  223.2270 C   0  0  0  0  0  0  0  0  0  0  0  0
  142.0670   80.8680  221.9160 C   0  0  0  0  0  0  0  0  0  0  0  0
  141.5570   79.6530  221.5540 C   0  0  0  0  0  0  0  0  0  0  0  0
  141.5310   72.1070  221.2710 C   0  0  0  0  0  0  0  0  0  0  0  0
  141.0710   71.8990  222.7530 C   0  0  0  0  0  0  0  0  0  0  0  0
  135.8932   72.5524  224.9282 H   0  0  0  0  0  0  0  0  0  0  0  0
  136.8009   72.6584  223.3818 H   0  0  0  0  0  0  0  0  0  0  0  0
  135.0858   72.1244  223.3818 H   0  0  0  0  0  0  0  0  0  0  0  0
  136.6979   70.5203  225.1620 H   0  0  0  0  0  0  0  0  0  0  0  0
  135.6488   70.0666  223.7184 H   0  0  0  0  0  0  0  0  0  0  0  0
  140.2802   72.3999  225.3751 H   0  0  0  0  0  0  0  0  0  0  0  0
  141.2006   71.8622  227.5727 H   0  0  0  0  0  0  0  0  0  0  0  0
  141.0634   69.5523  228.4745 H   0  0  0  0  0  0  0  0  0  0  0  0
  139.9707   67.8141  227.0826 H   0  0  0  0  0  0  0  0  0  0  0  0
  139.0396   68.3506  224.8596 H   0  0  0  0  0  0  0  0  0  0  0  0
  139.6411   70.8322  221.7988 H   0  0  0  0  0  0  0  0  0  0  0  0
  137.7652   72.5753  222.3477 H   0  0  0  0  0  0  0  0  0  0  0  0
  138.9969   73.5707  223.1176 H   0  0  0  0  0  0  0  0  0  0  0  0
  138.9439   72.5333  220.2052 H   0  0  0  0  0  0  0  0  0  0  0  0
  138.9163   74.2548  220.7657 H   0  0  0  0  0  0  0  0  0  0  0  0
  140.5329   75.6703  218.9912 H   0  0  0  0  0  0  0  0  0  0  0  0
  139.6738   75.5039  220.6182 H   0  0  0  0  0  0  0  0  0  0  0  0
  140.5475   77.7053  219.9409 H   0  0  0  0  0  0  0  0  0  0  0  0
  143.1340   76.4440  220.8160 H   0  0  0  0  0  0  0  0  0  0  0  0
  142.8950   78.0740  220.4850 H   0  0  0  0  0  0  0  0  0  0  0  0
  141.4358   76.5658  222.5222 H   0  0  0  0  0  0  0  0  0  0  0  0
  138.9809   79.2214  221.5790 H   0  0  0  0  0  0  0  0  0  0  0  0
  136.5829   79.1444  221.9884 H   0  0  0  0  0  0  0  0  0  0  0  0
  135.5676   77.0503  222.9004 H   0  0  0  0  0  0  0  0  0  0  0  0
  137.0003   75.0889  223.3805 H   0  0  0  0  0  0  0  0  0  0  0  0
  139.4435   75.2108  222.9437 H   0  0  0  0  0  0  0  0  0  0  0  0
  141.7837   77.9990  224.4619 H   0  0  0  0  0  0  0  0  0  0  0  0
  142.7125   80.1711  225.1737 H   0  0  0  0  0  0  0  0  0  0  0  0
  142.9064   82.0485  223.5357 H   0  0  0  0  0  0  0  0  0  0  0  0
  142.1412   81.6782  221.1757 H   0  0  0  0  0  0  0  0  0  0  0  0
  141.2287   79.5133  220.5135 H   0  0  0  0  0  0  0  0  0  0  0  0
  141.2695   71.2408  220.6455 H   0  0  0  0  0  0  0  0  0  0  0  0
  142.6190   72.2199  221.1547 H   0  0  0  0  0  0  0  0  0  0  0  0
  141.6360   71.0831  223.2275 H   0  0  0  0  0  0  0  0  0  0  0  0
  141.2398   72.7878  223.3787 H   0  0  0  0  0  0  0  0  0  0  0  0
  1  2  1  0
  2  3  1  0
  3  4  2  0
  3  5  1  0
  5  6  1  0
  6  7  2  0
  7  8  1  0
  8  9  2  0
  9 10  1  0
 10 11  2  0
  5 12  1  0
 12 13  1  0
 13 14  1  0
 14 15  1  0
 15 16  1  0
 16 17  2  0
 16 18  1  0
 18 19  1  0
 19 20  1  0
 19 21  1  0
 21 22  1  0
 22 23  2  0
 23 24  1  0
 24 25  2  0
 25 26  1  0
 26 27  2  0
 21 28  1  0
 28 29  2  0
 29 30  1  0
 30 31  2  0
 31 32  1  0
 32 33  2  0
 15 34  1  0
 34 35  1  0
 11  6  1  0
 35 12  1  0
 27 22  1  0
 33 28  1  0
  1 36  1  0
  1 37  1  0
  1 38  1  0
  2 39  1  0
  2 40  1  0
  7 41  1  0
  8 42  1  0
  9 43  1  0
 10 44  1  0
 11 45  1  0
 12 46  1  0
 13 47  1  0
 13 48  1  0
 14 49  1  0
 14 50  1  0
 18 51  1  0
 18 52  1  0
 19 53  1  6
 20 54  1  0
 20 55  1  0
 21 56  1  0
 23 57  1  0
 24 58  1  0
 25 59  1  0
 26 60  1  0
 27 61  1  0
 29 62  1  0
 30 63  1  0
 31 64  1  0
 32 65  1  0
 33 66  1  0
 34 67  1  0
 34 68  1  0
 35 69  1  0
 35 70  1  0
M  END
>  <smiles>  (44) 
CCC(=O)N(c1ccccc1)C1CCN(C(=O)CC(N)C(c2ccccc2)c2ccccc2)CC1

>  <score_type>  (44) 
oracle

>  <origin>  (44) 
autodockgpu

>  <m_score__min__energy>  (44) 
-8.6799999999999997

>  <m_primary>  (44) 
energy

>  <rmsd>  (44) 
7.468018750764076

>  <m_score__min__rmsd>  (44) 
7.468018750764076

>  <meeko>  (44) 
{"free_energy": -8.35, "intermolecular_energy": -11.34, "internal_energy": -3.17, "cluster_size": 36, "cluster_id": 1, "rank_in_cluster": 22}

>  <energy>  (44) 
-7.6

>  <cluster_rmsd>  (44) 
0.74

>  <cluster>  (44) 
2

$$$$

     RDKit          3D

 70 73  0  0  0  0  0  0  0  0999 V2000
  138.4900   67.9580  222.5890 C   0  0  0  0  0  0  0  0  0  0  0  0
  137.5260   69.0760  222.4200 C   0  0  0  0  0  0  0  0  0  0  0  0
  137.7080   70.2150  223.3470 C   0  0  0  0  0  0  0  0  0  0  0  0
  136.6490   70.7050  223.8190 O   0  0  0  0  0  0  0  0  0  0  0  0
  139.0230   70.7390  223.6900 N   0  0  0  0  0  0  0  0  0  0  0  0
  139.5870   70.4850  224.9750 C   0  0  0  0  0  0  0  0  0  0  0  0
  140.2800   71.4280  225.7040 C   0  0  0  0  0  0  0  0  0  0  0  0
  140.7940   71.2060  226.9670 C   0  0  0  0  0  0  0  0  0  0  0  0
  140.6360   69.9950  227.5830 C   0  0  0  0  0  0  0  0  0  0  0  0
  139.9520   69.0230  226.8940 C   0  0  0  0  0  0  0  0  0  0  0  0
  139.4340   69.2520  225.6170 C   0  0  0  0  0  0  0  0  0  0  0  0
  139.6460   71.4990  222.6480 C   0  0  0  0  0  0  0  0  0  0  0  0
  138.8490   72.7410  222.3510 C   0  0  0  0  0  0  0  0  0  0  0  0
  139.3050   73.1660  220.9410 C   0  0  0  0  0  0  0  0  0  0  0  0
  140.7520   73.2200  220.8470 N   0  0  0  0  0  0  0  0  0  0  0  0
  141.4460   74.3950  220.3820 C   0  0  0  0  0  0  0  0  0  0  0  0
  142.6940   74.3410  220.3340 O   0  0  0  0  0  0  0  0  0  0  0  0
  140.6110   75.5480  220.0110 C   0  0  0  0  0  0  0  0  0  0  0  0
  141.1260   76.8870  220.4160 C   0  0  2  0  0  0  0  0  0  0  0  0
  142.5640   76.9970  220.1270 N   0  0  0  0  0  0  0  0  0  0  0  0
  140.8700   77.2640  221.8270 C   0  0  0  0  0  0  0  0  0  0  0  0
  139.4010   77.2020  222.1040 C   0  0  0  0  0  0  0  0  0  0  0  0
  138.8080   76.0750  222.6680 C   0  0  0  0  0  0  0  0  0  0  0  0
  137.4850   75.9660  222.9510 C   0  0  0  0  0  0  0  0  0  0  0  0
  136.6590   77.0440  222.6630 C   0  0  0  0  0  0  0  0  0  0  0  0
  137.1800   78.1850  222.1060 C   0  0  0  0  0  0  0  0  0  0  0  0
  138.5480   78.2510  221.8330 C   0  0  0  0  0  0  0  0  0  0  0  0
  141.4450   78.5310  222.2870 C   0  0  0  0  0  0  0  0  0  0  0  0
  141.6870   79.6280  221.4910 C   0  0  0  0  0  0  0  0  0  0  0  0
  142.2310   80.8070  221.9840 C   0  0  0  0  0  0  0  0  0  0  0  0
  142.5530   80.9120  223.3280 C   0  0  0  0  0  0  0  0  0  0  0  0
  142.3170   79.8150  224.1560 C   0  0  0  0  0  0  0  0  0  0  0  0
  141.7800   78.6730  223.6340 C   0  0  0  0  0  0  0  0  0  0  0  0
  141.5240   72.0280  221.2550 C   0  0  0  0  0  0  0  0  0  0  0  0
  141.0780   71.8500  222.7450 C   0  0  0  0  0  0  0  0  0  0  0  0
  138.6509   67.7715  223.6611 H   0  0  0  0  0  0  0  0  0  0  0  0
  138.0862   67.0509  222.1155 H   0  0  0  0  0  0  0  0  0  0  0  0
  139.4466   68.2240  222.1155 H   0  0  0  0  0  0  0  0  0  0  0  0
  137.6231   69.4557  221.3922 H   0  0  0  0  0  0  0  0  0  0  0  0
  136.5336   68.6577  222.6440 H   0  0  0  0  0  0  0  0  0  0  0  0
  140.4332   72.4190  225.2518 H   0  0  0  0  0  0  0  0  0  0  0  0
  141.3363   72.0120  227.4829 H   0  0  0  0  0  0  0  0  0  0  0  0
  141.0400   69.8071  228.5887 H   0  0  0  0  0  0  0  0  0  0  0  0
  139.8083   68.0373  227.3607 H   0  0  0  0  0  0  0  0  0  0  0  0
  138.8929   68.4432  225.1042 H   0  0  0  0  0  0  0  0  0  0  0  0
  139.6395   70.7664  221.8275 H   0  0  0  0  0  0  0  0  0  0  0  0
  137.7709   72.5226  222.3614 H   0  0  0  0  0  0  0  0  0  0  0  0
  139.0125   73.5310  223.0987 H   0  0  0  0  0  0  0  0  0  0  0  0
  138.9255   72.4391  220.2077 H   0  0  0  0  0  0  0  0  0  0  0  0
  138.9068   74.1707  220.7363 H   0  0  0  0  0  0  0  0  0  0  0  0
  140.5027   75.5464  218.9163 H   0  0  0  0  0  0  0  0  0  0  0  0
  139.6656   75.4168  220.5579 H   0  0  0  0  0  0  0  0  0  0  0  0
  140.5495   77.6011  219.8095 H   0  0  0  0  0  0  0  0  0  0  0  0
  143.1310   76.4010  220.7720 H   0  0  0  0  0  0  0  0  0  0  0  0
  142.8800   77.9860  220.2750 H   0  0  0  0  0  0  0  0  0  0  0  0
  141.4171   76.5172  222.4211 H   0  0  0  0  0  0  0  0  0  0  0  0
  139.4550   75.2160  222.8995 H   0  0  0  0  0  0  0  0  0  0  0  0
  137.0776   75.0468  223.3973 H   0  0  0  0  0  0  0  0  0  0  0  0
  135.5827   76.9834  222.8821 H   0  0  0  0  0  0  0  0  0  0  0  0
  136.5262   79.0394  221.8768 H   0  0  0  0  0  0  0  0  0  0  0  0
  138.9582   79.1693  221.3875 H   0  0  0  0  0  0  0  0  0  0  0  0
  141.4394   79.5682  220.4209 H   0  0  0  0  0  0  0  0  0  0  0  0
  142.4062   81.6570  221.3081 H   0  0  0  0  0  0  0  0  0  0  0  0
  142.9848   81.8394  223.7323 H   0  0  0  0  0  0  0  0  0  0  0  0
  142.5628   79.8694  225.2268 H   0  0  0  0  0  0  0  0  0  0  0  0
  141.6027   77.8228  224.3091 H   0  0  0  0  0  0  0  0  0  0  0  0
  141.2549   71.1502  220.6491 H   0  0  0  0  0  0  0  0  0  0  0  0
  142.6110   72.1365  221.1260 H   0  0  0  0  0  0  0  0  0  0  0  0
  141.6467   71.0430  223.2300 H   0  0  0  0  0  0  0  0  0  0  0  0
  141.2537   72.7511  223.3509 H   0  0  0  0  0  0  0  0  0  0  0  0
  1  2  1  0
  2  3  1  0
  3  4  2  0
  3  5  1  0
  5  6  1  0
  6  7  2  0
  7  8  1  0
  8  9  2  0
  9 10  1  0
 10 11  2  0
  5 12  1  0
 12 13  1  0
 13 14  1  0
 14 15  1  0
 15 16  1  0
 16 17  2  0
 16 18  1  0
 18 19  1  0
 19 20  1  0
 19 21  1  0
 21 22  1  0
 22 23  2  0
 23 24  1  0
 24 25  2  0
 25 26  1  0
 26 27  2  0
 21 28  1  0
 28 29  2  0
 29 30  1  0
 30 31  2  0
 31 32  1  0
 32 33  2  0
 15 34  1  0
 34 35  1  0
 11  6  1  0
 35 12  1  0
 27 22  1  0
 33 28  1  0
  1 36  1  0
  1 37  1  0
  1 38  1  0
  2 39  1  0
  2 40  1  0
  7 41  1  0
  8 42  1  0
  9 43  1  0
 10 44  1  0
 11 45  1  0
 12 46  1  0
 13 47  1  0
 13 48  1  0
 14 49  1  0
 14 50  1  0
 18 51  1  0
 18 52  1  0
 19 53  1  6
 20 54  1  0
 20 55  1  0
 21 56  1  0
 23 57  1  0
 24 58  1  0
 25 59  1  0
 26 60  1  0
 27 61  1  0
 29 62  1  0
 30 63  1  0
 31 64  1  0
 32 65  1  0
 33 66  1  0
 34 67  1  0
 34 68  1  0
 35 69  1  0
 35 70  1  0
M  END
>  <smiles>  (45) 
CCC(=O)N(c1ccccc1)C1CCN(C(=O)CC(N)C(c2ccccc2)c2ccccc2)CC1

>  <score_type>  (45) 
oracle

>  <origin>  (45) 
autodockgpu

>  <m_score__min__energy>  (45) 
-8.6799999999999997

>  <m_primary>  (45) 
energy

>  <rmsd>  (45) 
7.643630377001616

>  <m_score__min__rmsd>  (45) 
7.643630377001616

>  <meeko>  (45) 
{"free_energy": -8.46, "intermolecular_energy": -11.44, "internal_energy": -3.11, "cluster_size": 36, "cluster_id": 1, "rank_in_cluster": 15}

>  <energy>  (45) 
-7.52

>  <cluster_rmsd>  (45) 
0.92

>  <cluster>  (45) 
2

$$$$

     RDKit          3D

 70 73  0  0  0  0  0  0  0  0999 V2000
  138.2960   67.6580  222.3100 C   0  0  0  0  0  0  0  0  0  0  0  0
  137.1550   68.4910  222.7710 C   0  0  0  0  0  0  0  0  0  0  0  0
  137.4330   69.3520  223.9430 C   0  0  0  0  0  0  0  0  0  0  0  0
  136.4370   69.6290  224.6600 O   0  0  0  0  0  0  0  0  0  0  0  0
  138.7680   69.8490  224.2450 N   0  0  0  0  0  0  0  0  0  0  0  0
  139.4430   69.4270  225.4280 C   0  0  0  0  0  0  0  0  0  0  0  0
  139.7360   68.1100  225.7100 C   0  0  0  0  0  0  0  0  0  0  0  0
  140.4260   67.6930  226.8320 C   0  0  0  0  0  0  0  0  0  0  0  0
  140.8720   68.5990  227.7550 C   0  0  0  0  0  0  0  0  0  0  0  0
  140.6030   69.9250  227.5160 C   0  0  0  0  0  0  0  0  0  0  0  0
  139.9050   70.3410  226.3790 C   0  0  0  0  0  0  0  0  0  0  0  0
  139.2910   70.7640  223.2740 C   0  0  0  0  0  0  0  0  0  0  0  0
  138.3280   71.8980  223.0430 C   0  0  0  0  0  0  0  0  0  0  0  0
  138.7410   72.4840  221.6780 C   0  0  0  0  0  0  0  0  0  0  0  0
  140.1660   72.7500  221.6260 N   0  0  0  0  0  0  0  0  0  0  0  0
  140.6910   74.0430  221.2620 C   0  0  0  0  0  0  0  0  0  0  0  0
  141.9340   74.1710  221.2430 O   0  0  0  0  0  0  0  0  0  0  0  0
  139.7050   75.0880  220.9490 C   0  0  0  0  0  0  0  0  0  0  0  0
  140.2020   76.4930  220.9920 C   0  0  2  0  0  0  0  0  0  0  0  0
  141.6090   76.5560  220.5660 N   0  0  0  0  0  0  0  0  0  0  0  0
  140.0440   77.1820  222.2960 C   0  0  0  0  0  0  0  0  0  0  0  0
  138.5950   77.4620  222.5420 C   0  0  0  0  0  0  0  0  0  0  0  0
  137.6970   76.4480  222.8640 C   0  0  0  0  0  0  0  0  0  0  0  0
  136.3760   76.6430  223.1080 C   0  0  0  0  0  0  0  0  0  0  0  0
  135.8770   77.9360  223.0340 C   0  0  0  0  0  0  0  0  0  0  0  0
  136.7090   78.9820  222.7200 C   0  0  0  0  0  0  0  0  0  0  0  0
  138.0620   78.7320  222.4770 C   0  0  0  0  0  0  0  0  0  0  0  0
  140.8620   78.3780  222.5140 C   0  0  0  0  0  0  0  0  0  0  0  0
  141.5010   78.6980  223.6910 C   0  0  0  0  0  0  0  0  0  0  0  0
  142.2670   79.8470  223.8390 C   0  0  0  0  0  0  0  0  0  0  0  0
  142.4130   80.7240  222.7760 C   0  0  0  0  0  0  0  0  0  0  0  0
  141.7760   80.4230  221.5730 C   0  0  0  0  0  0  0  0  0  0  0  0
  141.0310   79.2830  221.4670 C   0  0  0  0  0  0  0  0  0  0  0  0
  141.0950   71.6550  221.9710 C   0  0  0  0  0  0  0  0  0  0  0  0
  140.6570   71.3070  223.4330 C   0  0  0  0  0  0  0  0  0  0  0  0
  138.8374   67.2628  223.1822 H   0  0  0  0  0  0  0  0  0  0  0  0
  137.9180   66.8219  221.7033 H   0  0  0  0  0  0  0  0  0  0  0  0
  138.9772   68.2727  221.7033 H   0  0  0  0  0  0  0  0  0  0  0  0
  136.8495   69.1402  221.9372 H   0  0  0  0  0  0  0  0  0  0  0  0
  136.3732   67.7861  223.0901 H   0  0  0  0  0  0  0  0  0  0  0  0
  139.3994   67.3429  224.9971 H   0  0  0  0  0  0  0  0  0  0  0  0
  140.6189   66.6209  226.9848 H   0  0  0  0  0  0  0  0  0  0  0  0
  141.4232   68.2790  228.6515 H   0  0  0  0  0  0  0  0  0  0  0  0
  140.9463   70.6795  228.2391 H   0  0  0  0  0  0  0  0  0  0  0  0
  139.7146   71.4139  226.2289 H   0  0  0  0  0  0  0  0  0  0  0  0
  139.4022   70.1002  222.4040 H   0  0  0  0  0  0  0  0  0  0  0  0
  137.2926   71.5281  223.0100 H   0  0  0  0  0  0  0  0  0  0  0  0
  138.3637   72.6472  223.8476 H   0  0  0  0  0  0  0  0  0  0  0  0
  138.4819   71.7652  220.8867 H   0  0  0  0  0  0  0  0  0  0  0  0
  138.2058   73.4340  221.5326 H   0  0  0  0  0  0  0  0  0  0  0  0
  139.3237   74.8973  219.9350 H   0  0  0  0  0  0  0  0  0  0  0  0
  138.9421   75.0203  221.7385 H   0  0  0  0  0  0  0  0  0  0  0  0
  139.5549   77.0382  220.2892 H   0  0  0  0  0  0  0  0  0  0  0  0
  141.8190   75.8400  219.8330 H   0  0  0  0  0  0  0  0  0  0  0  0
  142.2360   76.3450  221.3810 H   0  0  0  0  0  0  0  0  0  0  0  0
  140.4425   76.4750  223.0385 H   0  0  0  0  0  0  0  0  0  0  0  0
  138.0839   75.4201  222.9247 H   0  0  0  0  0  0  0  0  0  0  0  0
  135.7178   75.7978  223.3580 H   0  0  0  0  0  0  0  0  0  0  0  0
  134.8105   78.1235  223.2277 H   0  0  0  0  0  0  0  0  0  0  0  0
  136.3142   80.0070  222.6603 H   0  0  0  0  0  0  0  0  0  0  0  0
  138.7228   79.5748  222.2259 H   0  0  0  0  0  0  0  0  0  0  0  0
  141.4008   78.0162  224.5484 H   0  0  0  0  0  0  0  0  0  0  0  0
  142.7578   80.0609  224.7999 H   0  0  0  0  0  0  0  0  0  0  0  0
  143.0178   81.6370  222.8791 H   0  0  0  0  0  0  0  0  0  0  0  0
  141.8730   81.1011  220.7123 H   0  0  0  0  0  0  0  0  0  0  0  0
  140.5394   79.0681  220.5067 H   0  0  0  0  0  0  0  0  0  0  0  0
  140.9653   70.7939  221.2990 H   0  0  0  0  0  0  0  0  0  0  0  0
  142.1566   71.9277  221.8785 H   0  0  0  0  0  0  0  0  0  0  0  0
  141.3281   70.5556  223.8745 H   0  0  0  0  0  0  0  0  0  0  0  0
  140.6926   72.1768  224.1054 H   0  0  0  0  0  0  0  0  0  0  0  0
  1  2  1  0
  2  3  1  0
  3  4  2  0
  3  5  1  0
  5  6  1  0
  6  7  2  0
  7  8  1  0
  8  9  2  0
  9 10  1  0
 10 11  2  0
  5 12  1  0
 12 13  1  0
 13 14  1  0
 14 15  1  0
 15 16  1  0
 16 17  2  0
 16 18  1  0
 18 19  1  0
 19 20  1  0
 19 21  1  0
 21 22  1  0
 22 23  2  0
 23 24  1  0
 24 25  2  0
 25 26  1  0
 26 27  2  0
 21 28  1  0
 28 29  2  0
 29 30  1  0
 30 31  2  0
 31 32  1  0
 32 33  2  0
 15 34  1  0
 34 35  1  0
 11  6  1  0
 35 12  1  0
 27 22  1  0
 33 28  1  0
  1 36  1  0
  1 37  1  0
  1 38  1  0
  2 39  1  0
  2 40  1  0
  7 41  1  0
  8 42  1  0
  9 43  1  0
 10 44  1  0
 11 45  1  0
 12 46  1  0
 13 47  1  0
 13 48  1  0
 14 49  1  0
 14 50  1  0
 18 51  1  0
 18 52  1  0
 19 53  1  6
 20 54  1  0
 20 55  1  0
 21 56  1  0
 23 57  1  0
 24 58  1  0
 25 59  1  0
 26 60  1  0
 27 61  1  0
 29 62  1  0
 30 63  1  0
 31 64  1  0
 32 65  1  0
 33 66  1  0
 34 67  1  0
 34 68  1  0
 35 69  1  0
 35 70  1  0
M  END
>  <smiles>  (46) 
CCC(=O)N(c1ccccc1)C1CCN(C(=O)CC(N)C(c2ccccc2)c2ccccc2)CC1

>  <score_type>  (46) 
oracle

>  <origin>  (46) 
autodockgpu

>  <m_score__min__energy>  (46) 
-8.6799999999999997

>  <m_primary>  (46) 
energy

>  <rmsd>  (46) 
7.759977352368864

>  <m_score__min__rmsd>  (46) 
7.759977352368864

>  <meeko>  (46) 
{"free_energy": -8.48, "intermolecular_energy": -11.46, "internal_energy": -3.15, "cluster_size": 36, "cluster_id": 1, "rank_in_cluster": 11}

>  <energy>  (46) 
-7.51

>  <cluster_rmsd>  (46) 
0.92

>  <cluster>  (46) 
2

$$$$

     RDKit          3D

 70 73  0  0  0  0  0  0  0  0999 V2000
  146.3040   73.2040  221.5980 C   0  0  0  0  0  0  0  0  0  0  0  0
  145.6450   73.8280  220.4220 C   0  0  0  0  0  0  0  0  0  0  0  0
  145.3290   72.9050  219.3090 C   0  0  0  0  0  0  0  0  0  0  0  0
  146.0020   73.0700  218.2590 O   0  0  0  0  0  0  0  0  0  0  0  0
  144.3050   71.8750  219.4190 N   0  0  0  0  0  0  0  0  0  0  0  0
  144.6600   70.4950  219.3520 C   0  0  0  0  0  0  0  0  0  0  0  0
  145.9130   70.0470  218.9920 C   0  0  0  0  0  0  0  0  0  0  0  0
  146.2810   68.7160  218.9640 C   0  0  0  0  0  0  0  0  0  0  0  0
  145.3880   67.7370  219.3050 C   0  0  0  0  0  0  0  0  0  0  0  0
  144.1260   68.1360  219.6710 C   0  0  0  0  0  0  0  0  0  0  0  0
  143.7590   69.4840  219.6980 C   0  0  0  0  0  0  0  0  0  0  0  0
  142.9750   72.3810  219.5870 C   0  0  0  0  0  0  0  0  0  0  0  0
  142.8120   73.0000  220.9490 C   0  0  0  0  0  0  0  0  0  0  0  0
  141.2880   73.0230  221.1840 C   0  0  0  0  0  0  0  0  0  0  0  0
  140.5880   73.6090  220.0570 N   0  0  0  0  0  0  0  0  0  0  0  0
  139.6630   74.7040  220.2150 C   0  0  0  0  0  0  0  0  0  0  0  0
  139.1070   75.1370  219.1830 O   0  0  0  0  0  0  0  0  0  0  0  0
  139.4670   75.2060  221.5830 C   0  0  0  0  0  0  0  0  0  0  0  0
  139.6650   76.6700  221.7800 C   0  0  2  0  0  0  0  0  0  0  0  0
  138.8520   77.4350  220.8220 N   0  0  0  0  0  0  0  0  0  0  0  0
  141.0730   77.1320  221.7200 C   0  0  0  0  0  0  0  0  0  0  0  0
  141.2080   78.4240  222.4620 C   0  0  0  0  0  0  0  0  0  0  0  0
  142.4140   79.1210  222.5070 C   0  0  0  0  0  0  0  0  0  0  0  0
  142.5930   80.3000  223.1540 C   0  0  0  0  0  0  0  0  0  0  0  0
  141.5100   80.8580  223.8190 C   0  0  0  0  0  0  0  0  0  0  0  0
  140.2930   80.2230  223.8140 C   0  0  0  0  0  0  0  0  0  0  0  0
  140.1570   79.0100  223.1330 C   0  0  0  0  0  0  0  0  0  0  0  0
  141.6840   77.2160  220.3900 C   0  0  0  0  0  0  0  0  0  0  0  0
  141.3490   78.1340  219.4200 C   0  0  0  0  0  0  0  0  0  0  0  0
  141.9670   78.1690  218.1760 C   0  0  0  0  0  0  0  0  0  0  0  0
  142.9650   77.2560  217.8730 C   0  0  0  0  0  0  0  0  0  0  0  0
  143.3240   76.3170  218.8400 C   0  0  0  0  0  0  0  0  0  0  0  0
  142.6930   76.3150  220.0510 C   0  0  0  0  0  0  0  0  0  0  0  0
  140.8500   73.0630  218.7090 C   0  0  0  0  0  0  0  0  0  0  0  0
  142.3940   73.2810  218.5680 C   0  0  0  0  0  0  0  0  0  0  0  0
  145.8705   73.6145  222.5219 H   0  0  0  0  0  0  0  0  0  0  0  0
  146.1472   72.1156  221.5715 H   0  0  0  0  0  0  0  0  0  0  0  0
  147.3823   73.4199  221.5715 H   0  0  0  0  0  0  0  0  0  0  0  0
  144.7038   74.2842  220.7625 H   0  0  0  0  0  0  0  0  0  0  0  0
  146.3668   74.5537  220.0190 H   0  0  0  0  0  0  0  0  0  0  0  0
  146.6670   70.7964  218.7093 H   0  0  0  0  0  0  0  0  0  0  0  0
  147.3028   68.4401  218.6644 H   0  0  0  0  0  0  0  0  0  0  0  0
  145.6695   66.6738  219.2867 H   0  0  0  0  0  0  0  0  0  0  0  0
  143.3839   67.3737  219.9505 H   0  0  0  0  0  0  0  0  0  0  0  0
  142.7365   69.7560  219.9988 H   0  0  0  0  0  0  0  0  0  0  0  0
  142.3865   71.4616  219.4511 H   0  0  0  0  0  0  0  0  0  0  0  0
  143.3142   72.3912  221.7152 H   0  0  0  0  0  0  0  0  0  0  0  0
  143.2591   74.0033  221.0082 H   0  0  0  0  0  0  0  0  0  0  0  0
  140.9326   71.9922  221.3294 H   0  0  0  0  0  0  0  0  0  0  0  0
  141.0841   73.6353  222.0748 H   0  0  0  0  0  0  0  0  0  0  0  0
  138.4379   74.9625  221.8859 H   0  0  0  0  0  0  0  0  0  0  0  0
  140.2442   74.7189  222.1901 H   0  0  0  0  0  0  0  0  0  0  0  0
  139.3345   76.8588  222.8120 H   0  0  0  0  0  0  0  0  0  0  0  0
  137.8360   77.1990  220.9090 H   0  0  0  0  0  0  0  0  0  0  0  0
  139.1350   77.1890  219.8420 H   0  0  0  0  0  0  0  0  0  0  0  0
  141.6527   76.3334  222.2059 H   0  0  0  0  0  0  0  0  0  0  0  0
  143.2781   78.6864  221.9832 H   0  0  0  0  0  0  0  0  0  0  0  0
  143.5722   80.8013  223.1516 H   0  0  0  0  0  0  0  0  0  0  0  0
  141.6274   81.8129  224.3522 H   0  0  0  0  0  0  0  0  0  0  0  0
  139.4338   80.6642  224.3404 H   0  0  0  0  0  0  0  0  0  0  0  0
  139.1789   78.5068  223.1328 H   0  0  0  0  0  0  0  0  0  0  0  0
  140.5605   78.8692  219.6387 H   0  0  0  0  0  0  0  0  0  0  0  0
  141.6645   78.9207  217.4321 H   0  0  0  0  0  0  0  0  0  0  0  0
  143.4626   77.2716  216.8921 H   0  0  0  0  0  0  0  0  0  0  0  0
  144.1129   75.5804  218.6277 H   0  0  0  0  0  0  0  0  0  0  0  0
  142.9958   75.5650  220.7966 H   0  0  0  0  0  0  0  0  0  0  0  0
  140.5896   71.9958  218.6518 H   0  0  0  0  0  0  0  0  0  0  0  0
  140.2589   73.5398  217.9133 H   0  0  0  0  0  0  0  0  0  0  0  0
  142.7378   73.0048  217.5603 H   0  0  0  0  0  0  0  0  0  0  0  0
  142.6889   74.3309  218.7118 H   0  0  0  0  0  0  0  0  0  0  0  0
  1  2  1  0
  2  3  1  0
  3  4  2  0
  3  5  1  0
  5  6  1  0
  6  7  2  0
  7  8  1  0
  8  9  2  0
  9 10  1  0
 10 11  2  0
  5 12  1  0
 12 13  1  0
 13 14  1  0
 14 15  1  0
 15 16  1  0
 16 17  2  0
 16 18  1  0
 18 19  1  0
 19 20  1  0
 19 21  1  0
 21 22  1  0
 22 23  2  0
 23 24  1  0
 24 25  2  0
 25 26  1  0
 26 27  2  0
 21 28  1  0
 28 29  2  0
 29 30  1  0
 30 31  2  0
 31 32  1  0
 32 33  2  0
 15 34  1  0
 34 35  1  0
 11  6  1  0
 35 12  1  0
 27 22  1  0
 33 28  1  0
  1 36  1  0
  1 37  1  0
  1 38  1  0
  2 39  1  0
  2 40  1  0
  7 41  1  0
  8 42  1  0
  9 43  1  0
 10 44  1  0
 11 45  1  0
 12 46  1  0
 13 47  1  0
 13 48  1  0
 14 49  1  0
 14 50  1  0
 18 51  1  0
 18 52  1  0
 19 53  1  1
 20 54  1  0
 20 55  1  0
 21 56  1  0
 23 57  1  0
 24 58  1  0
 25 59  1  0
 26 60  1  0
 27 61  1  0
 29 62  1  0
 30 63  1  0
 31 64  1  0
 32 65  1  0
 33 66  1  0
 34 67  1  0
 34 68  1  0
 35 69  1  0
 35 70  1  0
M  END
>  <smiles>  (47) 
CCC(=O)N(c1ccccc1)C1CCN(C(=O)CC(N)C(c2ccccc2)c2ccccc2)CC1

>  <score_type>  (47) 
oracle

>  <origin>  (47) 
autodockgpu

>  <m_score__min__energy>  (47) 
-8.6799999999999997

>  <m_primary>  (47) 
energy

>  <rmsd>  (47) 
8.289983205576611

>  <m_score__min__rmsd>  (47) 
8.289983205576611

>  <meeko>  (47) 
{"free_energy": -7.86, "intermolecular_energy": -10.84, "internal_energy": -3.72, "cluster_size": 12, "cluster_id": 2, "rank_in_cluster": 3}

>  <energy>  (47) 
-7.43

>  <cluster_rmsd>  (47) 
1.12

>  <cluster>  (47) 
2

$$$$

     RDKit          3D

 70 73  0  0  0  0  0  0  0  0999 V2000
  138.7880   67.3950  222.4620 C   0  0  0  0  0  0  0  0  0  0  0  0
  137.8230   68.5240  222.4000 C   0  0  0  0  0  0  0  0  0  0  0  0
  137.8650   69.4570  223.5480 C   0  0  0  0  0  0  0  0  0  0  0  0
  136.7740   69.6190  224.1550 O   0  0  0  0  0  0  0  0  0  0  0  0
  139.0840   70.1460  223.9480 N   0  0  0  0  0  0  0  0  0  0  0  0
  139.6480   69.9210  225.2390 C   0  0  0  0  0  0  0  0  0  0  0  0
  140.0960   70.9330  226.0610 C   0  0  0  0  0  0  0  0  0  0  0  0
  140.6050   70.7310  227.3300 C   0  0  0  0  0  0  0  0  0  0  0  0
  140.6930   69.4710  227.8550 C   0  0  0  0  0  0  0  0  0  0  0  0
  140.2570   68.4300  227.0720 C   0  0  0  0  0  0  0  0  0  0  0  0
  139.7430   68.6400  225.7890 C   0  0  0  0  0  0  0  0  0  0  0  0
  139.6170   71.0280  222.9540 C   0  0  0  0  0  0  0  0  0  0  0  0
  138.6920   72.1950  222.7310 C   0  0  0  0  0  0  0  0  0  0  0  0
  139.0930   72.7490  221.3490 C   0  0  0  0  0  0  0  0  0  0  0  0
  140.5250   72.9610  221.2600 N   0  0  0  0  0  0  0  0  0  0  0  0
  141.0890   74.2280  220.8670 C   0  0  0  0  0  0  0  0  0  0  0  0
  142.3350   74.3090  220.8160 O   0  0  0  0  0  0  0  0  0  0  0  0
  140.1350   75.3060  220.5640 C   0  0  0  0  0  0  0  0  0  0  0  0
  140.6290   76.6970  220.7770 C   0  0  2  0  0  0  0  0  0  0  0  0
  142.0480   76.8030  220.4050 N   0  0  0  0  0  0  0  0  0  0  0  0
  140.4290   77.2390  222.1420 C   0  0  0  0  0  0  0  0  0  0  0  0
  138.9640   77.3580  222.4240 C   0  0  0  0  0  0  0  0  0  0  0  0
  138.1810   76.2440  222.7170 C   0  0  0  0  0  0  0  0  0  0  0  0
  136.8520   76.2920  222.9910 C   0  0  0  0  0  0  0  0  0  0  0  0
  136.2220   77.5290  222.9800 C   0  0  0  0  0  0  0  0  0  0  0  0
  136.9360   78.6670  222.6980 C   0  0  0  0  0  0  0  0  0  0  0  0
  138.3020   78.5670  222.4230 C   0  0  0  0  0  0  0  0  0  0  0  0
  141.1360   78.4790  222.4710 C   0  0  0  0  0  0  0  0  0  0  0  0
  141.4210   79.4900  221.5790 C   0  0  0  0  0  0  0  0  0  0  0  0
  142.0920   80.6480  221.9500 C   0  0  0  0  0  0  0  0  0  0  0  0
  142.5020   80.8210  223.2620 C   0  0  0  0  0  0  0  0  0  0  0  0
  142.2250   79.8130  224.1850 C   0  0  0  0  0  0  0  0  0  0  0  0
  141.5630   78.6880  223.7820 C   0  0  0  0  0  0  0  0  0  0  0  0
  141.4210   71.8350  221.5960 C   0  0  0  0  0  0  0  0  0  0  0  0
  141.0050   71.5220  223.0730 C   0  0  0  0  0  0  0  0  0  0  0  0
  138.9979   67.1494  223.5135 H   0  0  0  0  0  0  0  0  0  0  0  0
  138.3573   66.5165  221.9592 H   0  0  0  0  0  0  0  0  0  0  0  0
  139.7228   67.6836  221.9592 H   0  0  0  0  0  0  0  0  0  0  0  0
  138.0323   69.0999  221.4865 H   0  0  0  0  0  0  0  0  0  0  0  0
  136.8217   68.0688  222.4150 H   0  0  0  0  0  0  0  0  0  0  0  0
  140.0452   71.9650  225.6836 H   0  0  0  0  0  0  0  0  0  0  0  0
  140.9430   71.5928  227.9242 H   0  0  0  0  0  0  0  0  0  0  0  0
  141.0966   69.2983  228.8636 H   0  0  0  0  0  0  0  0  0  0  0  0
  140.3138   67.4041  227.4649 H   0  0  0  0  0  0  0  0  0  0  0  0
  139.4052   67.7759  225.1981 H   0  0  0  0  0  0  0  0  0  0  0  0
  139.6824   70.3489  222.0912 H   0  0  0  0  0  0  0  0  0  0  0  0
  137.6429   71.8641  222.7275 H   0  0  0  0  0  0  0  0  0  0  0  0
  138.7758   72.9519  223.5247 H   0  0  0  0  0  0  0  0  0  0  0  0
  138.7884   72.0310  220.5733 H   0  0  0  0  0  0  0  0  0  0  0  0
  138.5898   73.7163  221.2041 H   0  0  0  0  0  0  0  0  0  0  0  0
  139.8441   75.2105  219.5075 H   0  0  0  0  0  0  0  0  0  0  0  0
  139.3049   75.1748  221.2738 H   0  0  0  0  0  0  0  0  0  0  0  0
  140.0037   77.3177  220.1184 H   0  0  0  0  0  0  0  0  0  0  0  0
  142.2810   76.1780  219.5990 H   0  0  0  0  0  0  0  0  0  0  0  0
  142.6490   76.4950  221.2070 H   0  0  0  0  0  0  0  0  0  0  0  0
  140.9031   76.5036  222.8086 H   0  0  0  0  0  0  0  0  0  0  0  0
  138.6720   75.2597  222.7271 H   0  0  0  0  0  0  0  0  0  0  0  0
  136.2889   75.3742  223.2159 H   0  0  0  0  0  0  0  0  0  0  0  0
  135.1460   77.5975  223.1982 H   0  0  0  0  0  0  0  0  0  0  0  0
  136.4377   79.6476  222.6887 H   0  0  0  0  0  0  0  0  0  0  0  0
  138.8679   79.4831  222.1983 H   0  0  0  0  0  0  0  0  0  0  0  0
  141.1046   79.3753  220.5318 H   0  0  0  0  0  0  0  0  0  0  0  0
  142.2979   81.4279  221.2021 H   0  0  0  0  0  0  0  0  0  0  0  0
  143.0343   81.7334  223.5689 H   0  0  0  0  0  0  0  0  0  0  0  0
  142.5384   79.9233  225.2336 H   0  0  0  0  0  0  0  0  0  0  0  0
  141.3564   77.9077  224.5293 H   0  0  0  0  0  0  0  0  0  0  0  0
  141.2425   70.9715  220.9384 H   0  0  0  0  0  0  0  0  0  0  0  0
  142.4897   72.0653  221.4742 H   0  0  0  0  0  0  0  0  0  0  0  0
  141.6585   70.7520  223.5089 H   0  0  0  0  0  0  0  0  0  0  0  0
  141.0883   72.3987  223.7322 H   0  0  0  0  0  0  0  0  0  0  0  0
  1  2  1  0
  2  3  1  0
  3  4  2  0
  3  5  1  0
  5  6  1  0
  6  7  2  0
  7  8  1  0
  8  9  2  0
  9 10  1  0
 10 11  2  0
  5 12  1  0
 12 13  1  0
 13 14  1  0
 14 15  1  0
 15 16  1  0
 16 17  2  0
 16 18  1  0
 18 19  1  0
 19 20  1  0
 19 21  1  0
 21 22  1  0
 22 23  2  0
 23 24  1  0
 24 25  2  0
 25 26  1  0
 26 27  2  0
 21 28  1  0
 28 29  2  0
 29 30  1  0
 30 31  2  0
 31 32  1  0
 32 33  2  0
 15 34  1  0
 34 35  1  0
 11  6  1  0
 35 12  1  0
 27 22  1  0
 33 28  1  0
  1 36  1  0
  1 37  1  0
  1 38  1  0
  2 39  1  0
  2 40  1  0
  7 41  1  0
  8 42  1  0
  9 43  1  0
 10 44  1  0
 11 45  1  0
 12 46  1  0
 13 47  1  0
 13 48  1  0
 14 49  1  0
 14 50  1  0
 18 51  1  0
 18 52  1  0
 19 53  1  6
 20 54  1  0
 20 55  1  0
 21 56  1  0
 23 57  1  0
 24 58  1  0
 25 59  1  0
 26 60  1  0
 27 61  1  0
 29 62  1  0
 30 63  1  0
 31 64  1  0
 32 65  1  0
 33 66  1  0
 34 67  1  0
 34 68  1  0
 35 69  1  0
 35 70  1  0
M  END
>  <smiles>  (48) 
CCC(=O)N(c1ccccc1)C1CCN(C(=O)CC(N)C(c2ccccc2)c2ccccc2)CC1

>  <score_type>  (48) 
oracle

>  <origin>  (48) 
autodockgpu

>  <m_score__min__energy>  (48) 
-8.6799999999999997

>  <m_primary>  (48) 
energy

>  <rmsd>  (48) 
7.674785404957503

>  <m_score__min__rmsd>  (48) 
7.674785404957503

>  <meeko>  (48) 
{"free_energy": -8.36, "intermolecular_energy": -11.34, "internal_energy": -3.25, "cluster_size": 36, "cluster_id": 1, "rank_in_cluster": 20}

>  <energy>  (48) 
-7.39

>  <cluster_rmsd>  (48) 
0.75

>  <cluster>  (48) 
2

$$$$

     RDKit          3D

 70 73  0  0  0  0  0  0  0  0999 V2000
  136.1370   69.6110  224.9760 C   0  0  0  0  0  0  0  0  0  0  0  0
  136.7880   69.2500  223.6910 C   0  0  0  0  0  0  0  0  0  0  0  0
  138.2230   68.8980  223.7850 C   0  0  0  0  0  0  0  0  0  0  0  0
  138.5200   67.7300  223.4240 O   0  0  0  0  0  0  0  0  0  0  0  0
  139.2260   69.8390  224.2650 N   0  0  0  0  0  0  0  0  0  0  0  0
  139.7000   69.7630  225.6080 C   0  0  0  0  0  0  0  0  0  0  0  0
  140.0700   70.8640  226.3500 C   0  0  0  0  0  0  0  0  0  0  0  0
  140.4910   70.8060  227.6650 C   0  0  0  0  0  0  0  0  0  0  0  0
  140.5650   69.6090  228.3230 C   0  0  0  0  0  0  0  0  0  0  0  0
  140.2050   68.4830  227.6240 C   0  0  0  0  0  0  0  0  0  0  0  0
  139.7800   68.5470  226.2940 C   0  0  0  0  0  0  0  0  0  0  0  0
  139.6500   70.7990  223.2900 C   0  0  0  0  0  0  0  0  0  0  0  0
  138.6270   71.8930  223.1450 C   0  0  0  0  0  0  0  0  0  0  0  0
  138.9340   72.5290  221.7740 C   0  0  0  0  0  0  0  0  0  0  0  0
  140.3400   72.8610  221.6470 N   0  0  0  0  0  0  0  0  0  0  0  0
  140.7860   74.1830  221.2870 C   0  0  0  0  0  0  0  0  0  0  0  0
  142.0190   74.3680  221.1990 O   0  0  0  0  0  0  0  0  0  0  0  0
  139.7380   75.1910  221.0590 C   0  0  0  0  0  0  0  0  0  0  0  0
  140.1820   76.6140  221.0740 C   0  0  2  0  0  0  0  0  0  0  0  0
  141.5580   76.7310  220.5660 N   0  0  0  0  0  0  0  0  0  0  0  0
  140.0750   77.2960  222.3860 C   0  0  0  0  0  0  0  0  0  0  0  0
  138.6390   77.5980  222.6780 C   0  0  0  0  0  0  0  0  0  0  0  0
  138.1790   78.9060  222.8180 C   0  0  0  0  0  0  0  0  0  0  0  0
  136.8880   79.2400  223.0710 C   0  0  0  0  0  0  0  0  0  0  0  0
  135.9570   78.2200  223.2020 C   0  0  0  0  0  0  0  0  0  0  0  0
  136.3450   76.9090  223.0760 C   0  0  0  0  0  0  0  0  0  0  0  0
  137.6840   76.6130  222.8150 C   0  0  0  0  0  0  0  0  0  0  0  0
  140.9190   78.4780  222.5870 C   0  0  0  0  0  0  0  0  0  0  0  0
  141.2220   79.4090  221.6190 C   0  0  0  0  0  0  0  0  0  0  0  0
  142.0250   80.5150  221.8680 C   0  0  0  0  0  0  0  0  0  0  0  0
  142.5560   80.7140  223.1330 C   0  0  0  0  0  0  0  0  0  0  0  0
  142.2630   79.7850  224.1320 C   0  0  0  0  0  0  0  0  0  0  0  0
  141.4690   78.7110  223.8470 C   0  0  0  0  0  0  0  0  0  0  0  0
  141.3350   71.8000  221.9090 C   0  0  0  0  0  0  0  0  0  0  0  0
  140.9980   71.3990  223.3840 C   0  0  0  0  0  0  0  0  0  0  0  0
  136.7611   69.2649  225.8131 H   0  0  0  0  0  0  0  0  0  0  0  0
  136.0194   70.7032  225.0333 H   0  0  0  0  0  0  0  0  0  0  0  0
  135.1483   69.1323  225.0333 H   0  0  0  0  0  0  0  0  0  0  0  0
  136.2531   68.3858  223.2702 H   0  0  0  0  0  0  0  0  0  0  0  0
  136.7365   70.1501  223.0608 H   0  0  0  0  0  0  0  0  0  0  0  0
  140.0276   71.8505  225.8652 H   0  0  0  0  0  0  0  0  0  0  0  0
  140.7696   71.7325  228.1883 H   0  0  0  0  0  0  0  0  0  0  0  0
  140.8992   69.5507  229.3694 H   0  0  0  0  0  0  0  0  0  0  0  0
  140.2524   67.5045  228.1242 H   0  0  0  0  0  0  0  0  0  0  0  0
  139.5017   67.6183  225.7743 H   0  0  0  0  0  0  0  0  0  0  0  0
  139.7382   70.1618  222.3977 H   0  0  0  0  0  0  0  0  0  0  0  0
  137.6085   71.4777  223.1617 H   0  0  0  0  0  0  0  0  0  0  0  0
  138.6766   72.6237  223.9658 H   0  0  0  0  0  0  0  0  0  0  0  0
  138.6613   71.8177  220.9805 H   0  0  0  0  0  0  0  0  0  0  0  0
  138.3500   73.4569  221.6845 H   0  0  0  0  0  0  0  0  0  0  0  0
  139.2867   74.9902  220.0762 H   0  0  0  0  0  0  0  0  0  0  0  0
  139.0419   75.0899  221.9047 H   0  0  0  0  0  0  0  0  0  0  0  0
  139.4746   77.1335  220.4110 H   0  0  0  0  0  0  0  0  0  0  0  0
  141.7490   76.0300  219.8130 H   0  0  0  0  0  0  0  0  0  0  0  0
  142.2390   76.5350  221.3390 H   0  0  0  0  0  0  0  0  0  0  0  0
  140.4843   76.5771  223.1111 H   0  0  0  0  0  0  0  0  0  0  0  0
  138.9103   79.7214  222.7168 H   0  0  0  0  0  0  0  0  0  0  0  0
  136.5874   80.2935  223.1697 H   0  0  0  0  0  0  0  0  0  0  0  0
  134.9039   78.4624  223.4076 H   0  0  0  0  0  0  0  0  0  0  0  0
  135.6076   76.0994  223.1798 H   0  0  0  0  0  0  0  0  0  0  0  0
  137.9869   75.5602  222.7155 H   0  0  0  0  0  0  0  0  0  0  0  0
  140.8117   79.2716  220.6077 H   0  0  0  0  0  0  0  0  0  0  0  0
  142.2393   81.2323  221.0620 H   0  0  0  0  0  0  0  0  0  0  0  0
  143.1940   81.5848  223.3444 H   0  0  0  0  0  0  0  0  0  0  0  0
  142.6700   79.9172  225.1453 H   0  0  0  0  0  0  0  0  0  0  0  0
  141.2524   77.9935  224.6521 H   0  0  0  0  0  0  0  0  0  0  0  0
  141.2036   70.9500  221.2233 H   0  0  0  0  0  0  0  0  0  0  0  0
  142.3768   72.1214  221.7626 H   0  0  0  0  0  0  0  0  0  0  0  0
  141.7257   70.6685  223.7670 H   0  0  0  0  0  0  0  0  0  0  0  0
  141.0346   72.2540  224.0751 H   0  0  0  0  0  0  0  0  0  0  0  0
  1  2  1  0
  2  3  1  0
  3  4  2  0
  3  5  1  0
  5  6  1  0
  6  7  2  0
  7  8  1  0
  8  9  2  0
  9 10  1  0
 10 11  2  0
  5 12  1  0
 12 13  1  0
 13 14  1  0
 14 15  1  0
 15 16  1  0
 16 17  2  0
 16 18  1  0
 18 19  1  0
 19 20  1  0
 19 21  1  0
 21 22  1  0
 22 23  2  0
 23 24  1  0
 24 25  2  0
 25 26  1  0
 26 27  2  0
 21 28  1  0
 28 29  2  0
 29 30  1  0
 30 31  2  0
 31 32  1  0
 32 33  2  0
 15 34  1  0
 34 35  1  0
 11  6  1  0
 35 12  1  0
 27 22  1  0
 33 28  1  0
  1 36  1  0
  1 37  1  0
  1 38  1  0
  2 39  1  0
  2 40  1  0
  7 41  1  0
  8 42  1  0
  9 43  1  0
 10 44  1  0
 11 45  1  0
 12 46  1  0
 13 47  1  0
 13 48  1  0
 14 49  1  0
 14 50  1  0
 18 51  1  0
 18 52  1  0
 19 53  1  6
 20 54  1  0
 20 55  1  0
 21 56  1  0
 23 57  1  0
 24 58  1  0
 25 59  1  0
 26 60  1  0
 27 61  1  0
 29 62  1  0
 30 63  1  0
 31 64  1  0
 32 65  1  0
 33 66  1  0
 34 67  1  0
 34 68  1  0
 35 69  1  0
 35 70  1  0
M  END
>  <smiles>  (49) 
CCC(=O)N(c1ccccc1)C1CCN(C(=O)CC(N)C(c2ccccc2)c2ccccc2)CC1

>  <score_type>  (49) 
oracle

>  <origin>  (49) 
autodockgpu

>  <m_score__min__energy>  (49) 
-8.6799999999999997

>  <m_primary>  (49) 
energy

>  <rmsd>  (49) 
7.647661223641733

>  <m_score__min__rmsd>  (49) 
7.647661223641733

>  <meeko>  (49) 
{"free_energy": -8.47, "intermolecular_energy": -11.46, "internal_energy": -3.06, "cluster_size": 36, "cluster_id": 1, "rank_in_cluster": 12}

>  <energy>  (49) 
-7.56

>  <cluster_rmsd>  (49) 
0.0

>  <cluster>  (49) 
3

$$$$

     RDKit          3D

 70 73  0  0  0  0  0  0  0  0999 V2000
  135.2800   70.6670  224.5800 C   0  0  0  0  0  0  0  0  0  0  0  0
  136.0990   69.4440  224.7800 C   0  0  0  0  0  0  0  0  0  0  0  0
  137.2460   69.2910  223.8560 C   0  0  0  0  0  0  0  0  0  0  0  0
  136.9850   68.7450  222.7540 O   0  0  0  0  0  0  0  0  0  0  0  0
  138.5880   69.7390  224.2010 N   0  0  0  0  0  0  0  0  0  0  0  0
  139.2450   69.2230  225.3570 C   0  0  0  0  0  0  0  0  0  0  0  0
  139.5910   67.8970  225.5090 C   0  0  0  0  0  0  0  0  0  0  0  0
  140.2650   67.3930  226.6060 C   0  0  0  0  0  0  0  0  0  0  0  0
  140.6370   68.2140  227.6340 C   0  0  0  0  0  0  0  0  0  0  0  0
  140.3140   69.5450  227.5270 C   0  0  0  0  0  0  0  0  0  0  0  0
  139.6330   70.0490  226.4160 C   0  0  0  0  0  0  0  0  0  0  0  0
  139.1370   70.7070  223.3000 C   0  0  0  0  0  0  0  0  0  0  0  0
  138.1720   71.8440  223.0920 C   0  0  0  0  0  0  0  0  0  0  0  0
  138.6290   72.5040  221.7760 C   0  0  0  0  0  0  0  0  0  0  0  0
  140.0520   72.7850  221.7910 N   0  0  0  0  0  0  0  0  0  0  0  0
  140.5770   74.0980  221.5140 C   0  0  0  0  0  0  0  0  0  0  0  0
  141.8180   74.2380  221.5480 O   0  0  0  0  0  0  0  0  0  0  0  0
  139.5920   75.1510  221.2200 C   0  0  0  0  0  0  0  0  0  0  0  0
  140.1160   76.5460  221.1760 C   0  0  2  0  0  0  0  0  0  0  0  0
  141.5110   76.5590  220.7070 N   0  0  0  0  0  0  0  0  0  0  0  0
  140.0100   77.3030  222.4460 C   0  0  0  0  0  0  0  0  0  0  0  0
  138.5820   77.6830  222.6840 C   0  0  0  0  0  0  0  0  0  0  0  0
  137.5750   76.7260  222.7800 C   0  0  0  0  0  0  0  0  0  0  0  0
  136.2670   77.0100  223.0060 C   0  0  0  0  0  0  0  0  0  0  0  0
  135.8970   78.3400  223.1520 C   0  0  0  0  0  0  0  0  0  0  0  0
  136.8420   79.3330  223.0670 C   0  0  0  0  0  0  0  0  0  0  0  0
  138.1760   78.9920  222.8350 C   0  0  0  0  0  0  0  0  0  0  0  0
  140.9000   78.4560  222.6040 C   0  0  0  0  0  0  0  0  0  0  0  0
  141.6260   78.7480  223.7380 C   0  0  0  0  0  0  0  0  0  0  0  0
  142.4590   79.8550  223.8290 C   0  0  0  0  0  0  0  0  0  0  0  0
  142.5850   80.7180  222.7520 C   0  0  0  0  0  0  0  0  0  0  0  0
  141.8600   80.4450  221.5930 C   0  0  0  0  0  0  0  0  0  0  0  0
  141.0510   79.3460  221.5410 C   0  0  0  0  0  0  0  0  0  0  0  0
  140.9790   71.6800  222.1120 C   0  0  0  0  0  0  0  0  0  0  0  0
  140.4900   71.2530  223.5370 C   0  0  0  0  0  0  0  0  0  0  0  0
  135.0001   71.0849  225.5583 H   0  0  0  0  0  0  0  0  0  0  0  0
  135.8629   71.4106  224.0168 H   0  0  0  0  0  0  0  0  0  0  0  0
  134.3704   70.4111  224.0168 H   0  0  0  0  0  0  0  0  0  0  0  0
  136.4908   69.4620  225.8077 H   0  0  0  0  0  0  0  0  0  0  0  0
  135.4304   68.5943  224.5773 H   0  0  0  0  0  0  0  0  0  0  0  0
  139.3135   67.1965  224.7076 H   0  0  0  0  0  0  0  0  0  0  0  0
  140.5044   66.3204  226.6521 H   0  0  0  0  0  0  0  0  0  0  0  0
  141.1735   67.8244  228.5117 H   0  0  0  0  0  0  0  0  0  0  0  0
  140.5990   70.2320  228.3374 H   0  0  0  0  0  0  0  0  0  0  0  0
  139.3963   71.1224  226.3735 H   0  0  0  0  0  0  0  0  0  0  0  0
  139.2871   70.0891  222.4024 H   0  0  0  0  0  0  0  0  0  0  0  0
  137.1423   71.4680  223.0010 H   0  0  0  0  0  0  0  0  0  0  0  0
  138.1707   72.5504  223.9352 H   0  0  0  0  0  0  0  0  0  0  0  0
  138.4071   71.8252  220.9393 H   0  0  0  0  0  0  0  0  0  0  0  0
  138.0895   73.4556  221.6604 H   0  0  0  0  0  0  0  0  0  0  0  0
  139.1451   74.9289  220.2397 H   0  0  0  0  0  0  0  0  0  0  0  0
  138.8785   75.1299  222.0569 H   0  0  0  0  0  0  0  0  0  0  0  0
  139.4585   77.0674  220.4648 H   0  0  0  0  0  0  0  0  0  0  0  0
  141.6900   75.7920  220.0180 H   0  0  0  0  0  0  0  0  0  0  0  0
  142.1580   76.3940  221.5150 H   0  0  0  0  0  0  0  0  0  0  0  0
  140.3704   76.6083  223.2190 H   0  0  0  0  0  0  0  0  0  0  0  0
  137.8584   75.6694  222.6650 H   0  0  0  0  0  0  0  0  0  0  0  0
  135.5189   76.2063  223.0718 H   0  0  0  0  0  0  0  0  0  0  0  0
  134.8440   78.5993  223.3363 H   0  0  0  0  0  0  0  0  0  0  0  0
  136.5505   80.3876  223.1807 H   0  0  0  0  0  0  0  0  0  0  0  0
  138.9269   79.7932  222.7707 H   0  0  0  0  0  0  0  0  0  0  0  0
  141.5423   78.0773  224.6059 H   0  0  0  0  0  0  0  0  0  0  0  0
  143.0190   80.0471  224.7561 H   0  0  0  0  0  0  0  0  0  0  0  0
  143.2421   81.5983  222.8103 H   0  0  0  0  0  0  0  0  0  0  0  0
  141.9394   81.1130  220.7227 H   0  0  0  0  0  0  0  0  0  0  0  0
  140.4905   79.1531  220.6144 H   0  0  0  0  0  0  0  0  0  0  0  0
  140.8823   70.8544  221.3916 H   0  0  0  0  0  0  0  0  0  0  0  0
  142.0408   71.9646  222.0729 H   0  0  0  0  0  0  0  0  0  0  0  0
  141.1523   70.4857  223.9644 H   0  0  0  0  0  0  0  0  0  0  0  0
  140.4910   72.0876  224.2535 H   0  0  0  0  0  0  0  0  0  0  0  0
  1  2  1  0
  2  3  1  0
  3  4  2  0
  3  5  1  0
  5  6  1  0
  6  7  2  0
  7  8  1  0
  8  9  2  0
  9 10  1  0
 10 11  2  0
  5 12  1  0
 12 13  1  0
 13 14  1  0
 14 15  1  0
 15 16  1  0
 16 17  2  0
 16 18  1  0
 18 19  1  0
 19 20  1  0
 19 21  1  0
 21 22  1  0
 22 23  2  0
 23 24  1  0
 24 25  2  0
 25 26  1  0
 26 27  2  0
 21 28  1  0
 28 29  2  0
 29 30  1  0
 30 31  2  0
 31 32  1  0
 32 33  2  0
 15 34  1  0
 34 35  1  0
 11  6  1  0
 35 12  1  0
 27 22  1  0
 33 28  1  0
  1 36  1  0
  1 37  1  0
  1 38  1  0
  2 39  1  0
  2 40  1  0
  7 41  1  0
  8 42  1  0
  9 43  1  0
 10 44  1  0
 11 45  1  0
 12 46  1  0
 13 47  1  0
 13 48  1  0
 14 49  1  0
 14 50  1  0
 18 51  1  0
 18 52  1  0
 19 53  1  6
 20 54  1  0
 20 55  1  0
 21 56  1  0
 23 57  1  0
 24 58  1  0
 25 59  1  0
 26 60  1  0
 27 61  1  0
 29 62  1  0
 30 63  1  0
 31 64  1  0
 32 65  1  0
 33 66  1  0
 34 67  1  0
 34 68  1  0
 35 69  1  0
 35 70  1  0
M  END
>  <smiles>  (50) 
CCC(=O)N(c1ccccc1)C1CCN(C(=O)CC(N)C(c2ccccc2)c2ccccc2)CC1

>  <score_type>  (50) 
oracle

>  <origin>  (50) 
autodockgpu

>  <m_score__min__energy>  (50) 
-8.6799999999999997

>  <m_primary>  (50) 
energy

>  <rmsd>  (50) 
7.873623126851453

>  <m_score__min__rmsd>  (50) 
7.873623126851453

>  <meeko>  (50) 
{"free_energy": -8.49, "intermolecular_energy": -11.47, "internal_energy": -3.02, "cluster_size": 36, "cluster_id": 1, "rank_in_cluster": 9}

>  <energy>  (50) 
-7.26

>  <cluster_rmsd>  (50) 
0.0

>  <cluster>  (50) 
4

$$$$

     RDKit          3D

 70 73  0  0  0  0  0  0  0  0999 V2000
  143.3280   77.0500  217.0720 C   0  0  0  0  0  0  0  0  0  0  0  0
  143.5320   75.5630  216.8980 C   0  0  0  0  0  0  0  0  0  0  0  0
  142.5730   74.7710  217.7080 C   0  0  0  0  0  0  0  0  0  0  0  0
  141.6930   74.1320  217.0650 O   0  0  0  0  0  0  0  0  0  0  0  0
  142.6060   74.7100  219.1250 N   0  0  0  0  0  0  0  0  0  0  0  0
  143.7650   74.1270  219.7140 C   0  0  0  0  0  0  0  0  0  0  0  0
  143.9190   72.7510  219.5210 C   0  0  0  0  0  0  0  0  0  0  0  0
  145.0220   72.0880  220.0600 C   0  0  0  0  0  0  0  0  0  0  0  0
  145.9580   72.7860  220.7810 C   0  0  0  0  0  0  0  0  0  0  0  0
  145.8020   74.1530  220.9710 C   0  0  0  0  0  0  0  0  0  0  0  0
  144.6970   74.8340  220.4340 C   0  0  0  0  0  0  0  0  0  0  0  0
  141.4970   75.2250  219.8770 C   0  0  0  0  0  0  0  0  0  0  0  0
  141.4710   76.7210  219.6770 C   0  0  0  0  0  0  0  0  0  0  0  0
  141.2210   77.3600  221.0240 C   0  0  0  0  0  0  0  0  0  0  0  0
  140.0220   76.7370  221.5510 N   0  0  0  0  0  0  0  0  0  0  0  0
  138.7840   77.4520  221.7090 C   0  0  0  0  0  0  0  0  0  0  0  0
  137.8290   76.8030  222.1720 O   0  0  0  0  0  0  0  0  0  0  0  0
  138.7850   78.8650  221.3090 C   0  0  0  0  0  0  0  0  0  0  0  0
  137.9120   79.6790  222.1950 C   0  0  1  0  0  0  0  0  0  0  0  0
  136.6210   78.9830  222.2560 N   0  0  0  0  0  0  0  0  0  0  0  0
  138.4390   79.9390  223.5720 C   0  0  0  0  0  0  0  0  0  0  0  0
  139.9320   80.1160  223.4670 C   0  0  0  0  0  0  0  0  0  0  0  0
  140.4980   81.2580  222.9350 C   0  0  0  0  0  0  0  0  0  0  0  0
  141.8580   81.4510  222.8130 C   0  0  0  0  0  0  0  0  0  0  0  0
  142.7260   80.4550  223.2410 C   0  0  0  0  0  0  0  0  0  0  0  0
  142.1980   79.3010  223.7770 C   0  0  0  0  0  0  0  0  0  0  0  0
  140.8090   79.1340  223.8870 C   0  0  0  0  0  0  0  0  0  0  0  0
  137.7750   80.9880  224.3380 C   0  0  0  0  0  0  0  0  0  0  0  0
  137.5620   80.9750  225.7010 C   0  0  0  0  0  0  0  0  0  0  0  0
  136.9350   81.9910  226.3870 C   0  0  0  0  0  0  0  0  0  0  0  0
  136.4790   83.0970  225.7170 C   0  0  0  0  0  0  0  0  0  0  0  0
  136.6700   83.1490  224.3550 C   0  0  0  0  0  0  0  0  0  0  0  0
  137.3000   82.1300  223.6700 C   0  0  0  0  0  0  0  0  0  0  0  0
  140.1470   75.3260  221.9160 C   0  0  0  0  0  0  0  0  0  0  0  0
  141.4670   74.8040  221.3230 C   0  0  0  0  0  0  0  0  0  0  0  0
  143.2947   77.2925  218.1444 H   0  0  0  0  0  0  0  0  0  0  0  0
  144.1602   77.5921  216.5991 H   0  0  0  0  0  0  0  0  0  0  0  0
  142.3806   77.3479  216.5991 H   0  0  0  0  0  0  0  0  0  0  0  0
  143.3958   75.3078  215.8367 H   0  0  0  0  0  0  0  0  0  0  0  0
  144.5485   75.3175  217.2394 H   0  0  0  0  0  0  0  0  0  0  0  0
  143.1695   72.1902  218.9433 H   0  0  0  0  0  0  0  0  0  0  0  0
  145.1414   71.0053  219.9069 H   0  0  0  0  0  0  0  0  0  0  0  0
  146.8282   72.2650  221.2067 H   0  0  0  0  0  0  0  0  0  0  0  0
  146.5538   74.7098  221.5497 H   0  0  0  0  0  0  0  0  0  0  0  0
  144.5798   75.9169  220.5877 H   0  0  0  0  0  0  0  0  0  0  0  0
  140.5675   74.7791  219.4933 H   0  0  0  0  0  0  0  0  0  0  0  0
  142.4360   77.0620  219.2738 H   0  0  0  0  0  0  0  0  0  0  0  0
  140.6807   77.0010  218.9649 H   0  0  0  0  0  0  0  0  0  0  0  0
  142.0724   77.1780  221.6963 H   0  0  0  0  0  0  0  0  0  0  0  0
  141.1004   78.4497  220.9346 H   0  0  0  0  0  0  0  0  0  0  0  0
  139.8130   79.2524  221.3652 H   0  0  0  0  0  0  0  0  0  0  0  0
  138.3978   78.9348  220.2818 H   0  0  0  0  0  0  0  0  0  0  0  0
  137.8409   80.6872  221.7608 H   0  0  0  0  0  0  0  0  0  0  0  0
  136.5540   78.3900  221.4030 H   0  0  0  0  0  0  0  0  0  0  0  0
  136.5920   78.3460  223.0690 H   0  0  0  0  0  0  0  0  0  0  0  0
  138.1958   79.0603  224.1875 H   0  0  0  0  0  0  0  0  0  0  0  0
  139.8267   82.0580  222.5894 H   0  0  0  0  0  0  0  0  0  0  0  0
  142.2509   82.3834  222.3815 H   0  0  0  0  0  0  0  0  0  0  0  0
  143.8148   80.5851  223.1537 H   0  0  0  0  0  0  0  0  0  0  0  0
  142.8716   78.5028  224.1221 H   0  0  0  0  0  0  0  0  0  0  0  0
  140.4103   78.2029  224.3161 H   0  0  0  0  0  0  0  0  0  0  0  0
  137.9131   80.1031  226.2724 H   0  0  0  0  0  0  0  0  0  0  0  0
  136.7995   81.9151  227.4760 H   0  0  0  0  0  0  0  0  0  0  0  0
  135.9764   83.9168  226.2512 H   0  0  0  0  0  0  0  0  0  0  0  0
  136.3108   84.0265  223.7974 H   0  0  0  0  0  0  0  0  0  0  0  0
  137.4329   82.2129  222.5812 H   0  0  0  0  0  0  0  0  0  0  0  0
  140.1614   75.2223  223.0110 H   0  0  0  0  0  0  0  0  0  0  0  0
  139.2951   74.7503  221.5252 H   0  0  0  0  0  0  0  0  0  0  0  0
  142.3215   75.2400  221.8612 H   0  0  0  0  0  0  0  0  0  0  0  0
  141.5331   73.7098  221.4148 H   0  0  0  0  0  0  0  0  0  0  0  0
  1  2  1  0
  2  3  1  0
  3  4  2  0
  3  5  1  0
  5  6  1  0
  6  7  2  0
  7  8  1  0
  8  9  2  0
  9 10  1  0
 10 11  2  0
  5 12  1  0
 12 13  1  0
 13 14  1  0
 14 15  1  0
 15 16  1  0
 16 17  2  0
 16 18  1  0
 18 19  1  0
 19 20  1  0
 19 21  1  0
 21 22  1  0
 22 23  2  0
 23 24  1  0
 24 25  2  0
 25 26  1  0
 26 27  2  0
 21 28  1  0
 28 29  2  0
 29 30  1  0
 30 31  2  0
 31 32  1  0
 32 33  2  0
 15 34  1  0
 34 35  1  0
 11  6  1  0
 35 12  1  0
 27 22  1  0
 33 28  1  0
  1 36  1  0
  1 37  1  0
  1 38  1  0
  2 39  1  0
  2 40  1  0
  7 41  1  0
  8 42  1  0
  9 43  1  0
 10 44  1  0
 11 45  1  0
 12 46  1  0
 13 47  1  0
 13 48  1  0
 14 49  1  0
 14 50  1  0
 18 51  1  0
 18 52  1  0
 19 53  1  6
 20 54  1  0
 20 55  1  0
 21 56  1  0
 23 57  1  0
 24 58  1  0
 25 59  1  0
 26 60  1  0
 27 61  1  0
 29 62  1  0
 30 63  1  0
 31 64  1  0
 32 65  1  0
 33 66  1  0
 34 67  1  0
 34 68  1  0
 35 69  1  0
 35 70  1  0
M  END
>  <smiles>  (51) 
CCC(=O)N(c1ccccc1)C1CCN(C(=O)CC(N)C(c2ccccc2)c2ccccc2)CC1

>  <score_type>  (51) 
oracle

>  <origin>  (51) 
autodockgpu

>  <m_score__min__energy>  (51) 
-8.6099999999999994

>  <m_primary>  (51) 
energy

>  <rmsd>  (51) 
9.466711893784952

>  <m_score__min__rmsd>  (51) 
9.466711893784952

>  <meeko>  (51) 
{"free_energy": -7.16, "intermolecular_energy": -10.14, "internal_energy": -3.68, "cluster_size": 5, "cluster_id": 6, "rank_in_cluster": 5}

>  <energy>  (51) 
-8.61

>  <cluster_rmsd>  (51) 
0.0

>  <cluster>  (51) 
1

$$$$

     RDKit          3D

 70 73  0  0  0  0  0  0  0  0999 V2000
  138.7470   67.8690  223.1190 C   0  0  0  0  0  0  0  0  0  0  0  0
  138.4750   69.1130  222.3050 C   0  0  0  0  0  0  0  0  0  0  0  0
  138.4160   70.3300  223.1520 C   0  0  0  0  0  0  0  0  0  0  0  0
  137.2610   70.7350  223.4680 O   0  0  0  0  0  0  0  0  0  0  0  0
  139.5650   71.0310  223.6030 N   0  0  0  0  0  0  0  0  0  0  0  0
  139.9180   70.8670  224.9740 C   0  0  0  0  0  0  0  0  0  0  0  0
  140.6960   71.8880  225.5260 C   0  0  0  0  0  0  0  0  0  0  0  0
  141.0950   71.8190  226.8620 C   0  0  0  0  0  0  0  0  0  0  0  0
  140.7220   70.7480  227.6340 C   0  0  0  0  0  0  0  0  0  0  0  0
  139.9490   69.7350  227.0820 C   0  0  0  0  0  0  0  0  0  0  0  0
  139.5400   69.7910  225.7400 C   0  0  0  0  0  0  0  0  0  0  0  0
  140.2970   71.8490  222.6780 C   0  0  0  0  0  0  0  0  0  0  0  0
  139.4730   73.0880  222.4200 C   0  0  0  0  0  0  0  0  0  0  0  0
  139.5050   73.3590  220.9330 C   0  0  0  0  0  0  0  0  0  0  0  0
  140.9060   73.4000  220.5600 N   0  0  0  0  0  0  0  0  0  0  0  0
  141.5580   74.6100  220.1350 C   0  0  0  0  0  0  0  0  0  0  0  0
  142.7630   74.5110  219.8430 O   0  0  0  0  0  0  0  0  0  0  0  0
  140.7320   75.8230  220.0940 C   0  0  0  0  0  0  0  0  0  0  0  0
  141.2710   76.8750  220.9950 C   0  0  1  0  0  0  0  0  0  0  0  0
  142.5750   77.2630  220.4440 N   0  0  0  0  0  0  0  0  0  0  0  0
  140.4000   78.0770  221.1910 C   0  0  0  0  0  0  0  0  0  0  0  0
  139.0730   77.6010  221.7250 C   0  0  0  0  0  0  0  0  0  0  0  0
  137.8840   78.2170  221.3860 C   0  0  0  0  0  0  0  0  0  0  0  0
  136.6540   77.8170  221.8620 C   0  0  0  0  0  0  0  0  0  0  0  0
  136.5810   76.7370  222.7320 C   0  0  0  0  0  0  0  0  0  0  0  0
  137.7460   76.0980  223.0940 C   0  0  0  0  0  0  0  0  0  0  0  0
  138.9840   76.5290  222.5930 C   0  0  0  0  0  0  0  0  0  0  0  0
  140.9750   79.1840  221.9470 C   0  0  0  0  0  0  0  0  0  0  0  0
  140.9000   80.5170  221.6000 C   0  0  0  0  0  0  0  0  0  0  0  0
  141.4530   81.5340  222.3470 C   0  0  0  0  0  0  0  0  0  0  0  0
  142.1270   81.2500  223.5060 C   0  0  0  0  0  0  0  0  0  0  0  0
  142.2260   79.9320  223.8870 C   0  0  0  0  0  0  0  0  0  0  0  0
  141.6700   78.9140  223.1380 C   0  0  0  0  0  0  0  0  0  0  0  0
  141.6230   72.1270  220.6400 C   0  0  0  0  0  0  0  0  0  0  0  0
  140.7400   71.1420  221.4250 C   0  0  0  0  0  0  0  0  0  0  0  0
  138.6937   68.1129  224.1903 H   0  0  0  0  0  0  0  0  0  0  0  0
  137.9952   67.1025  222.8796 H   0  0  0  0  0  0  0  0  0  0  0  0
  139.7501   67.4862  222.8796 H   0  0  0  0  0  0  0  0  0  0  0  0
  139.2785   69.2350  221.5636 H   0  0  0  0  0  0  0  0  0  0  0  0
  137.4972   68.9918  221.8159 H   0  0  0  0  0  0  0  0  0  0  0  0
  140.9944   72.7471  224.9072 H   0  0  0  0  0  0  0  0  0  0  0  0
  141.7081   72.6229  227.2955 H   0  0  0  0  0  0  0  0  0  0  0  0
  141.0343   70.6919  228.6872 H   0  0  0  0  0  0  0  0  0  0  0  0
  139.6533   68.8775  227.7043 H   0  0  0  0  0  0  0  0  0  0  0  0
  138.9266   68.9861  225.3088 H   0  0  0  0  0  0  0  0  0  0  0  0
  141.2599   72.1261  223.1318 H   0  0  0  0  0  0  0  0  0  0  0  0
  138.4362   72.9237  222.7488 H   0  0  0  0  0  0  0  0  0  0  0  0
  139.8802   73.9447  222.9769 H   0  0  0  0  0  0  0  0  0  0  0  0
  138.9884   72.5555  220.3876 H   0  0  0  0  0  0  0  0  0  0  0  0
  138.9964   74.3026  220.6862 H   0  0  0  0  0  0  0  0  0  0  0  0
  140.7130   76.2088  219.0640 H   0  0  0  0  0  0  0  0  0  0  0  0
  139.7177   75.5635  220.4315 H   0  0  0  0  0  0  0  0  0  0  0  0
  141.3376   76.4478  222.0065 H   0  0  0  0  0  0  0  0  0  0  0  0
  142.9480   78.0220  221.0510 H   0  0  0  0  0  0  0  0  0  0  0  0
  143.2400   76.4750  220.5050 H   0  0  0  0  0  0  0  0  0  0  0  0
  140.2731   78.5537  220.2078 H   0  0  0  0  0  0  0  0  0  0  0  0
  137.9209   79.0744  220.6979 H   0  0  0  0  0  0  0  0  0  0  0  0
  135.7401   78.3474  221.5562 H   0  0  0  0  0  0  0  0  0  0  0  0
  135.6109   76.3983  223.1246 H   0  0  0  0  0  0  0  0  0  0  0  0
  137.7057   75.2412  223.7827 H   0  0  0  0  0  0  0  0  0  0  0  0
  139.9013   76.0035  222.8970 H   0  0  0  0  0  0  0  0  0  0  0  0
  140.3685   80.7830  220.6744 H   0  0  0  0  0  0  0  0  0  0  0  0
  141.3533   82.5770  222.0122 H   0  0  0  0  0  0  0  0  0  0  0  0
  142.5748   82.0510  224.1126 H   0  0  0  0  0  0  0  0  0  0  0  0
  142.7629   79.6821  224.8140 H   0  0  0  0  0  0  0  0  0  0  0  0
  141.7729   77.8735  223.4796 H   0  0  0  0  0  0  0  0  0  0  0  0
  141.8101   71.7381  219.6282 H   0  0  0  0  0  0  0  0  0  0  0  0
  142.5919   72.2613  221.1431 H   0  0  0  0  0  0  0  0  0  0  0  0
  139.8648   70.8569  220.8227 H   0  0  0  0  0  0  0  0  0  0  0  0
  141.2962   70.2247  221.6681 H   0  0  0  0  0  0  0  0  0  0  0  0
  1  2  1  0
  2  3  1  0
  3  4  2  0
  3  5  1  0
  5  6  1  0
  6  7  2  0
  7  8  1  0
  8  9  2  0
  9 10  1  0
 10 11  2  0
  5 12  1  0
 12 13  1  0
 13 14  1  0
 14 15  1  0
 15 16  1  0
 16 17  2  0
 16 18  1  0
 18 19  1  0
 19 20  1  0
 19 21  1  0
 21 22  1  0
 22 23  2  0
 23 24  1  0
 24 25  2  0
 25 26  1  0
 26 27  2  0
 21 28  1  0
 28 29  2  0
 29 30  1  0
 30 31  2  0
 31 32  1  0
 32 33  2  0
 15 34  1  0
 34 35  1  0
 11  6  1  0
 35 12  1  0
 27 22  1  0
 33 28  1  0
  1 36  1  0
  1 37  1  0
  1 38  1  0
  2 39  1  0
  2 40  1  0
  7 41  1  0
  8 42  1  0
  9 43  1  0
 10 44  1  0
 11 45  1  0
 12 46  1  0
 13 47  1  0
 13 48  1  0
 14 49  1  0
 14 50  1  0
 18 51  1  0
 18 52  1  0
 19 53  1  1
 20 54  1  0
 20 55  1  0
 21 56  1  0
 23 57  1  0
 24 58  1  0
 25 59  1  0
 26 60  1  0
 27 61  1  0
 29 62  1  0
 30 63  1  0
 31 64  1  0
 32 65  1  0
 33 66  1  0
 34 67  1  0
 34 68  1  0
 35 69  1  0
 35 70  1  0
M  END
>  <smiles>  (52) 
CCC(=O)N(c1ccccc1)C1CCN(C(=O)CC(N)C(c2ccccc2)c2ccccc2)CC1

>  <score_type>  (52) 
oracle

>  <origin>  (52) 
autodockgpu

>  <m_score__min__energy>  (52) 
-8.6099999999999994

>  <m_primary>  (52) 
energy

>  <rmsd>  (52) 
7.689060801052183

>  <m_score__min__rmsd>  (52) 
7.689060801052183

>  <meeko>  (52) 
{"free_energy": -8.11, "intermolecular_energy": -11.09, "internal_energy": -3.07, "cluster_size": 40, "cluster_id": 1, "rank_in_cluster": 21}

>  <energy>  (52) 
-8.61

>  <cluster_rmsd>  (52) 
1.43

>  <cluster>  (52) 
1

$$$$

     RDKit          3D

 70 73  0  0  0  0  0  0  0  0999 V2000
  136.3980   69.6560  224.7330 C   0  0  0  0  0  0  0  0  0  0  0  0
  137.3180   68.8460  223.8490 C   0  0  0  0  0  0  0  0  0  0  0  0
  138.7140   68.8460  224.3520 C   0  0  0  0  0  0  0  0  0  0  0  0
  139.1870   67.7220  224.6870 O   0  0  0  0  0  0  0  0  0  0  0  0
  139.5080   70.0160  224.4670 N   0  0  0  0  0  0  0  0  0  0  0  0
  139.9820   70.3420  225.7710 C   0  0  0  0  0  0  0  0  0  0  0  0
  140.7090   71.5310  225.8730 C   0  0  0  0  0  0  0  0  0  0  0  0
  141.2170   71.9360  227.1080 C   0  0  0  0  0  0  0  0  0  0  0  0
  141.0030   71.1670  228.2240 C   0  0  0  0  0  0  0  0  0  0  0  0
  140.2810   69.9860  228.1190 C   0  0  0  0  0  0  0  0  0  0  0  0
  139.7620   69.5650  226.8830 C   0  0  0  0  0  0  0  0  0  0  0  0
  139.7880   70.7950  223.2940 C   0  0  0  0  0  0  0  0  0  0  0  0
  138.7470   71.8860  223.2160 C   0  0  0  0  0  0  0  0  0  0  0  0
  138.2800   71.9720  221.7810 C   0  0  0  0  0  0  0  0  0  0  0  0
  139.4750   72.1330  220.9750 N   0  0  0  0  0  0  0  0  0  0  0  0
  139.7750   73.3490  220.2690 C   0  0  0  0  0  0  0  0  0  0  0  0
  140.8320   73.3580  219.6140 O   0  0  0  0  0  0  0  0  0  0  0  0
  138.8020   74.4410  220.3980 C   0  0  0  0  0  0  0  0  0  0  0  0
  139.2880   75.4900  221.3320 C   0  0  1  0  0  0  0  0  0  0  0  0
  140.1850   74.8180  222.2790 N   0  0  0  0  0  0  0  0  0  0  0  0
  139.9690   76.6650  220.6990 C   0  0  0  0  0  0  0  0  0  0  0  0
  140.2000   77.6960  221.7750 C   0  0  0  0  0  0  0  0  0  0  0  0
  139.1640   78.2100  222.5300 C   0  0  0  0  0  0  0  0  0  0  0  0
  139.3350   79.1610  223.5130 C   0  0  0  0  0  0  0  0  0  0  0  0
  140.6100   79.6430  223.7770 C   0  0  0  0  0  0  0  0  0  0  0  0
  141.6690   79.1540  223.0440 C   0  0  0  0  0  0  0  0  0  0  0  0
  141.4620   78.1870  222.0480 C   0  0  0  0  0  0  0  0  0  0  0  0
  141.1510   76.3790  219.8950 C   0  0  0  0  0  0  0  0  0  0  0  0
  141.3420   76.7630  218.5840 C   0  0  0  0  0  0  0  0  0  0  0  0
  142.4780   76.4770  217.8600 C   0  0  0  0  0  0  0  0  0  0  0  0
  143.5020   75.7710  218.4350 C   0  0  0  0  0  0  0  0  0  0  0  0
  143.3510   75.3670  219.7420 C   0  0  0  0  0  0  0  0  0  0  0  0
  142.2120   75.6560  220.4660 C   0  0  0  0  0  0  0  0  0  0  0  0
  140.3670   70.9740  220.9230 C   0  0  0  0  0  0  0  0  0  0  0  0
  139.9270   69.9950  222.0260 C   0  0  0  0  0  0  0  0  0  0  0  0
  136.6301   69.4516  225.7886 H   0  0  0  0  0  0  0  0  0  0  0  0
  136.5406   70.7271  224.5269 H   0  0  0  0  0  0  0  0  0  0  0  0
  135.3536   69.3789  224.5269 H   0  0  0  0  0  0  0  0  0  0  0  0
  136.9535   67.8088  223.8128 H   0  0  0  0  0  0  0  0  0  0  0  0
  137.3172   69.3030  222.8484 H   0  0  0  0  0  0  0  0  0  0  0  0
  140.8810   72.1483  224.9789 H   0  0  0  0  0  0  0  0  0  0  0  0
  141.7892   72.8721  227.1868 H   0  0  0  0  0  0  0  0  0  0  0  0
  141.4021   71.4852  229.1984 H   0  0  0  0  0  0  0  0  0  0  0  0
  140.1129   69.3714  229.0157 H   0  0  0  0  0  0  0  0  0  0  0  0
  139.1891   68.6291  226.8067 H   0  0  0  0  0  0  0  0  0  0  0  0
  140.7896   71.2393  223.3911 H   0  0  0  0  0  0  0  0  0  0  0  0
  137.8986   71.6423  223.8724 H   0  0  0  0  0  0  0  0  0  0  0  0
  139.1705   72.8474  223.5422 H   0  0  0  0  0  0  0  0  0  0  0  0
  137.7497   71.0511  221.4968 H   0  0  0  0  0  0  0  0  0  0  0  0
  137.5830   72.8106  221.6361 H   0  0  0  0  0  0  0  0  0  0  0  0
  138.6358   74.8915  219.4084 H   0  0  0  0  0  0  0  0  0  0  0  0
  137.8656   74.0260  220.7990 H   0  0  0  0  0  0  0  0  0  0  0  0
  138.4087   75.9417  221.8146 H   0  0  0  0  0  0  0  0  0  0  0  0
  139.5910   74.2190  222.8890 H   0  0  0  0  0  0  0  0  0  0  0  0
  140.8320   74.1890  221.7780 H   0  0  0  0  0  0  0  0  0  0  0  0
  139.2939   77.0581  219.9246 H   0  0  0  0  0  0  0  0  0  0  0  0
  138.1464   77.8401  222.3362 H   0  0  0  0  0  0  0  0  0  0  0  0
  138.4707   79.5340  224.0821 H   0  0  0  0  0  0  0  0  0  0  0  0
  140.7716   80.4014  224.5571 H   0  0  0  0  0  0  0  0  0  0  0  0
  142.6858   79.5247  223.2411 H   0  0  0  0  0  0  0  0  0  0  0  0
  142.3220   77.8126  221.4733 H   0  0  0  0  0  0  0  0  0  0  0  0
  140.5406   77.3304  218.0882 H   0  0  0  0  0  0  0  0  0  0  0  0
  142.5636   76.8163  216.8171 H   0  0  0  0  0  0  0  0  0  0  0  0
  144.4157   75.5347  217.8699 H   0  0  0  0  0  0  0  0  0  0  0  0
  144.1604   74.7981  220.2229 H   0  0  0  0  0  0  0  0  0  0  0  0
  142.1334   75.3142  221.5086 H   0  0  0  0  0  0  0  0  0  0  0  0
  140.2926   70.4878  219.9391 H   0  0  0  0  0  0  0  0  0  0  0  0
  141.4110   71.2842  221.0772 H   0  0  0  0  0  0  0  0  0  0  0  0
  138.9631   69.5359  221.7613 H   0  0  0  0  0  0  0  0  0  0  0  0
  140.6627   69.1867  222.1502 H   0  0  0  0  0  0  0  0  0  0  0  0
  1  2  1  0
  2  3  1  0
  3  4  2  0
  3  5  1  0
  5  6  1  0
  6  7  2  0
  7  8  1  0
  8  9  2  0
  9 10  1  0
 10 11  2  0
  5 12  1  0
 12 13  1  0
 13 14  1  0
 14 15  1  0
 15 16  1  0
 16 17  2  0
 16 18  1  0
 18 19  1  0
 19 20  1  0
 19 21  1  0
 21 22  1  0
 22 23  2  0
 23 24  1  0
 24 25  2  0
 25 26  1  0
 26 27  2  0
 21 28  1  0
 28 29  2  0
 29 30  1  0
 30 31  2  0
 31 32  1  0
 32 33  2  0
 15 34  1  0
 34 35  1  0
 11  6  1  0
 35 12  1  0
 27 22  1  0
 33 28  1  0
  1 36  1  0
  1 37  1  0
  1 38  1  0
  2 39  1  0
  2 40  1  0
  7 41  1  0
  8 42  1  0
  9 43  1  0
 10 44  1  0
 11 45  1  0
 12 46  1  0
 13 47  1  0
 13 48  1  0
 14 49  1  0
 14 50  1  0
 18 51  1  0
 18 52  1  0
 19 53  1  1
 20 54  1  0
 20 55  1  0
 21 56  1  0
 23 57  1  0
 24 58  1  0
 25 59  1  0
 26 60  1  0
 27 61  1  0
 29 62  1  0
 30 63  1  0
 31 64  1  0
 32 65  1  0
 33 66  1  0
 34 67  1  0
 34 68  1  0
 35 69  1  0
 35 70  1  0
M  END
>  <smiles>  (53) 
CCC(=O)N(c1ccccc1)C1CCN(C(=O)CC(N)C(c2ccccc2)c2ccccc2)CC1

>  <score_type>  (53) 
oracle

>  <origin>  (53) 
autodockgpu

>  <m_score__min__energy>  (53) 
-8.6099999999999994

>  <m_primary>  (53) 
energy

>  <rmsd>  (53) 
7.673222319292831

>  <m_score__min__rmsd>  (53) 
7.673222319292831

>  <meeko>  (53) 
{"free_energy": -8.51, "intermolecular_energy": -11.5, "internal_energy": -2.62, "cluster_size": 40, "cluster_id": 1, "rank_in_cluster": 10}

>  <energy>  (53) 
-8.6

>  <cluster_rmsd>  (53) 
1.31

>  <cluster>  (53) 
1

$$$$

     RDKit          3D

 70 73  0  0  0  0  0  0  0  0999 V2000
  138.4820   68.1140  222.8270 C   0  0  0  0  0  0  0  0  0  0  0  0
  138.6910   69.4140  222.0840 C   0  0  0  0  0  0  0  0  0  0  0  0
  138.5680   70.5910  222.9790 C   0  0  0  0  0  0  0  0  0  0  0  0
  137.3930   70.9970  223.2100 O   0  0  0  0  0  0  0  0  0  0  0  0
  139.6790   71.2550  223.5610 N   0  0  0  0  0  0  0  0  0  0  0  0
  139.9700   70.9450  224.9210 C   0  0  0  0  0  0  0  0  0  0  0  0
  140.7490   71.8820  225.6050 C   0  0  0  0  0  0  0  0  0  0  0  0
  141.0880   71.6680  226.9410 C   0  0  0  0  0  0  0  0  0  0  0  0
  140.6580   70.5350  227.5850 C   0  0  0  0  0  0  0  0  0  0  0  0
  139.8850   69.6060  226.9030 C   0  0  0  0  0  0  0  0  0  0  0  0
  139.5340   69.8080  225.5580 C   0  0  0  0  0  0  0  0  0  0  0  0
  140.4370   72.1830  222.7700 C   0  0  0  0  0  0  0  0  0  0  0  0
  139.4970   73.2860  222.3420 C   0  0  0  0  0  0  0  0  0  0  0  0
  139.7610   73.5720  220.8820 C   0  0  0  0  0  0  0  0  0  0  0  0
  141.1840   73.8280  220.7700 N   0  0  0  0  0  0  0  0  0  0  0  0
  141.7140   75.1260  220.4490 C   0  0  0  0  0  0  0  0  0  0  0  0
  142.9530   75.2130  220.3840 O   0  0  0  0  0  0  0  0  0  0  0  0
  140.7360   76.2000  220.2350 C   0  0  0  0  0  0  0  0  0  0  0  0
  140.8030   77.2170  221.3170 C   0  0  1  0  0  0  0  0  0  0  0  0
  140.9760   76.4750  222.5720 N   0  0  0  0  0  0  0  0  0  0  0  0
  141.8660   78.2620  221.1690 C   0  0  0  0  0  0  0  0  0  0  0  0
  141.8040   78.7820  219.7550 C   0  0  0  0  0  0  0  0  0  0  0  0
  142.5620   78.2310  218.7390 C   0  0  0  0  0  0  0  0  0  0  0  0
  142.5400   78.6860  217.4380 C   0  0  0  0  0  0  0  0  0  0  0  0
  141.7190   79.7560  217.1070 C   0  0  0  0  0  0  0  0  0  0  0  0
  140.9490   80.3310  218.0930 C   0  0  0  0  0  0  0  0  0  0  0  0
  140.9940   79.8460  219.4090 C   0  0  0  0  0  0  0  0  0  0  0  0
  141.8960   79.3110  222.1810 C   0  0  0  0  0  0  0  0  0  0  0  0
  143.0320   79.8190  222.7770 C   0  0  0  0  0  0  0  0  0  0  0  0
  143.0160   80.8160  223.7270 C   0  0  0  0  0  0  0  0  0  0  0  0
  141.8270   81.3630  224.1330 C   0  0  0  0  0  0  0  0  0  0  0  0
  140.6700   80.8830  223.5630 C   0  0  0  0  0  0  0  0  0  0  0  0
  140.6870   79.8850  222.6110 C   0  0  0  0  0  0  0  0  0  0  0  0
  142.0580   72.6780  221.0040 C   0  0  0  0  0  0  0  0  0  0  0  0
  141.2040   71.5630  221.6330 C   0  0  0  0  0  0  0  0  0  0  0  0
  138.5122   68.3019  223.9104 H   0  0  0  0  0  0  0  0  0  0  0  0
  137.5041   67.6897  222.5556 H   0  0  0  0  0  0  0  0  0  0  0  0
  139.2776   67.4045  222.5556 H   0  0  0  0  0  0  0  0  0  0  0  0
  139.6964   69.4105  221.6378 H   0  0  0  0  0  0  0  0  0  0  0  0
  137.9130   69.4924  221.3103 H   0  0  0  0  0  0  0  0  0  0  0  0
  141.0954   72.7897  225.0891 H   0  0  0  0  0  0  0  0  0  0  0  0
  141.7000   72.4074  227.4784 H   0  0  0  0  0  0  0  0  0  0  0  0
  140.9252   70.3638  228.6382 H   0  0  0  0  0  0  0  0  0  0  0  0
  139.5425   68.6991  227.4228 H   0  0  0  0  0  0  0  0  0  0  0  0
  138.9202   69.0682  225.0233 H   0  0  0  0  0  0  0  0  0  0  0  0
  141.2473   72.5984  223.3871 H   0  0  0  0  0  0  0  0  0  0  0  0
  138.4541   72.9637  222.4782 H   0  0  0  0  0  0  0  0  0  0  0  0
  139.6609   74.1894  222.9479 H   0  0  0  0  0  0  0  0  0  0  0  0
  139.4802   72.7044  220.2668 H   0  0  0  0  0  0  0  0  0  0  0  0
  139.1706   74.4303  220.5289 H   0  0  0  0  0  0  0  0  0  0  0  0
  140.9451   76.6879  219.2716 H   0  0  0  0  0  0  0  0  0  0  0  0
  139.7290   75.7573  220.2374 H   0  0  0  0  0  0  0  0  0  0  0  0
  139.8722   77.8023  221.2836 H   0  0  0  0  0  0  0  0  0  0  0  0
  140.2120   75.7690  222.6160 H   0  0  0  0  0  0  0  0  0  0  0  0
  141.8680   75.9530  222.5610 H   0  0  0  0  0  0  0  0  0  0  0  0
  142.8339   77.7758  221.3610 H   0  0  0  0  0  0  0  0  0  0  0  0
  143.2189   77.3828  218.9820 H   0  0  0  0  0  0  0  0  0  0  0  0
  143.1657   78.2069  216.6706 H   0  0  0  0  0  0  0  0  0  0  0  0
  141.6845   80.1373  216.0758 H   0  0  0  0  0  0  0  0  0  0  0  0
  140.2924   81.1785  217.8468 H   0  0  0  0  0  0  0  0  0  0  0  0
  140.3717   80.3228  220.1806 H   0  0  0  0  0  0  0  0  0  0  0  0
  144.0054   79.4042  222.4764 H   0  0  0  0  0  0  0  0  0  0  0  0
  143.9609   81.1744  224.1614 H   0  0  0  0  0  0  0  0  0  0  0  0
  141.7982   82.1603  224.8903 H   0  0  0  0  0  0  0  0  0  0  0  0
  139.7044   81.3072  223.8754 H   0  0  0  0  0  0  0  0  0  0  0  0
  139.7381   79.5322  222.1808 H   0  0  0  0  0  0  0  0  0  0  0  0
  142.4844   72.3312  220.0511 H   0  0  0  0  0  0  0  0  0  0  0  0
  142.8866   72.9531  221.6731 H   0  0  0  0  0  0  0  0  0  0  0  0
  140.5074   71.1541  220.8862 H   0  0  0  0  0  0  0  0  0  0  0  0
  141.8378   70.7384  221.9912 H   0  0  0  0  0  0  0  0  0  0  0  0
  1  2  1  0
  2  3  1  0
  3  4  2  0
  3  5  1  0
  5  6  1  0
  6  7  2  0
  7  8  1  0
  8  9  2  0
  9 10  1  0
 10 11  2  0
  5 12  1  0
 12 13  1  0
 13 14  1  0
 14 15  1  0
 15 16  1  0
 16 17  2  0
 16 18  1  0
 18 19  1  0
 19 20  1  0
 19 21  1  0
 21 22  1  0
 22 23  2  0
 23 24  1  0
 24 25  2  0
 25 26  1  0
 26 27  2  0
 21 28  1  0
 28 29  2  0
 29 30  1  0
 30 31  2  0
 31 32  1  0
 32 33  2  0
 15 34  1  0
 34 35  1  0
 11  6  1  0
 35 12  1  0
 27 22  1  0
 33 28  1  0
  1 36  1  0
  1 37  1  0
  1 38  1  0
  2 39  1  0
  2 40  1  0
  7 41  1  0
  8 42  1  0
  9 43  1  0
 10 44  1  0
 11 45  1  0
 12 46  1  0
 13 47  1  0
 13 48  1  0
 14 49  1  0
 14 50  1  0
 18 51  1  0
 18 52  1  0
 19 53  1  1
 20 54  1  0
 20 55  1  0
 21 56  1  0
 23 57  1  0
 24 58  1  0
 25 59  1  0
 26 60  1  0
 27 61  1  0
 29 62  1  0
 30 63  1  0
 31 64  1  0
 32 65  1  0
 33 66  1  0
 34 67  1  0
 34 68  1  0
 35 69  1  0
 35 70  1  0
M  END
>  <smiles>  (54) 
CCC(=O)N(c1ccccc1)C1CCN(C(=O)CC(N)C(c2ccccc2)c2ccccc2)CC1

>  <score_type>  (54) 
oracle

>  <origin>  (54) 
autodockgpu

>  <m_score__min__energy>  (54) 
-8.6099999999999994

>  <m_primary>  (54) 
energy

>  <rmsd>  (54) 
9.969551382304829

>  <m_score__min__rmsd>  (54) 
9.969551382304829

>  <meeko>  (54) 
{"free_energy": -8.52, "intermolecular_energy": -11.51, "internal_energy": -2.47, "cluster_size": 40, "cluster_id": 1, "rank_in_cluster": 9}

>  <energy>  (54) 
-8.57

>  <cluster_rmsd>  (54) 
0.73

>  <cluster>  (54) 
1

$$$$

     RDKit          3D

 70 73  0  0  0  0  0  0  0  0999 V2000
  136.6110   68.9240  223.0990 C   0  0  0  0  0  0  0  0  0  0  0  0
  137.1420   68.9710  224.5130 C   0  0  0  0  0  0  0  0  0  0  0  0
  138.6240   68.9090  224.5530 C   0  0  0  0  0  0  0  0  0  0  0  0
  139.1330   67.7530  224.5910 O   0  0  0  0  0  0  0  0  0  0  0  0
  139.4590   70.0560  224.5530 N   0  0  0  0  0  0  0  0  0  0  0  0
  140.0150   70.4430  225.8070 C   0  0  0  0  0  0  0  0  0  0  0  0
  139.8500   69.5300  226.8520 C   0  0  0  0  0  0  0  0  0  0  0  0
  140.3580   69.8190  228.1190 C   0  0  0  0  0  0  0  0  0  0  0  0
  141.0200   71.0000  228.3400 C   0  0  0  0  0  0  0  0  0  0  0  0
  141.1820   71.9050  227.3000 C   0  0  0  0  0  0  0  0  0  0  0  0
  140.6770   71.6280  226.0180 C   0  0  0  0  0  0  0  0  0  0  0  0
  139.6970   70.7520  223.3200 C   0  0  0  0  0  0  0  0  0  0  0  0
  138.7020   71.8860  223.2410 C   0  0  0  0  0  0  0  0  0  0  0  0
  138.1490   71.9130  221.8350 C   0  0  0  0  0  0  0  0  0  0  0  0
  139.2960   71.9700  220.9490 N   0  0  0  0  0  0  0  0  0  0  0  0
  139.6030   73.1280  220.1540 C   0  0  0  0  0  0  0  0  0  0  0  0
  140.6150   73.0500  219.4360 O   0  0  0  0  0  0  0  0  0  0  0  0
  138.6890   74.2710  220.2780 C   0  0  0  0  0  0  0  0  0  0  0  0
  139.2110   75.2800  221.2360 C   0  0  1  0  0  0  0  0  0  0  0  0
  139.8850   74.5280  222.3020 N   0  0  0  0  0  0  0  0  0  0  0  0
  140.1240   76.3180  220.6610 C   0  0  0  0  0  0  0  0  0  0  0  0
  140.2560   77.4270  221.6740 C   0  0  0  0  0  0  0  0  0  0  0  0
  141.4450   78.1020  221.8700 C   0  0  0  0  0  0  0  0  0  0  0  0
  141.6060   79.1120  222.7930 C   0  0  0  0  0  0  0  0  0  0  0  0
  140.5280   79.4900  223.5820 C   0  0  0  0  0  0  0  0  0  0  0  0
  139.3250   78.8390  223.4160 C   0  0  0  0  0  0  0  0  0  0  0  0
  139.1930   77.8130  222.4680 C   0  0  0  0  0  0  0  0  0  0  0  0
  141.4000   75.8470  220.1350 C   0  0  0  0  0  0  0  0  0  0  0  0
  141.9210   76.1560  218.8960 C   0  0  0  0  0  0  0  0  0  0  0  0
  143.1360   75.6940  218.4400 C   0  0  0  0  0  0  0  0  0  0  0  0
  143.9030   74.8760  219.2280 C   0  0  0  0  0  0  0  0  0  0  0  0
  143.4180   74.5420  220.4720 C   0  0  0  0  0  0  0  0  0  0  0  0
  142.2020   75.0080  220.9280 C   0  0  0  0  0  0  0  0  0  0  0  0
  140.1300   70.7690  220.9110 C   0  0  0  0  0  0  0  0  0  0  0  0
  139.7200   69.8770  222.0960 C   0  0  0  0  0  0  0  0  0  0  0  0
  135.5155   68.8270  223.1218 H   0  0  0  0  0  0  0  0  0  0  0  0
  136.8863   69.8500  222.5730 H   0  0  0  0  0  0  0  0  0  0  0  0
  137.0446   68.0607  222.5730 H   0  0  0  0  0  0  0  0  0  0  0  0
  136.8130   69.9086  224.9848 H   0  0  0  0  0  0  0  0  0  0  0  0
  136.7508   68.0955  225.0519 H   0  0  0  0  0  0  0  0  0  0  0  0
  139.3193   68.5828  226.6756 H   0  0  0  0  0  0  0  0  0  0  0  0
  140.2276   69.0996  228.9409 H   0  0  0  0  0  0  0  0  0  0  0  0
  141.4212   71.2291  229.3383 H   0  0  0  0  0  0  0  0  0  0  0  0
  141.7126   72.8513  227.4816 H   0  0  0  0  0  0  0  0  0  0  0  0
  140.8097   72.3482  225.1972 H   0  0  0  0  0  0  0  0  0  0  0  0
  140.7218   71.1517  223.3288 H   0  0  0  0  0  0  0  0  0  0  0  0
  137.8872   71.7206  223.9612 H   0  0  0  0  0  0  0  0  0  0  0  0
  139.1875   72.8429  223.4831 H   0  0  0  0  0  0  0  0  0  0  0  0
  137.5609   71.0042  221.6392 H   0  0  0  0  0  0  0  0  0  0  0  0
  137.4826   72.7749  221.6833 H   0  0  0  0  0  0  0  0  0  0  0  0
  138.5692   74.7424  219.2914 H   0  0  0  0  0  0  0  0  0  0  0  0
  137.7230   73.9031  220.6542 H   0  0  0  0  0  0  0  0  0  0  0  0
  138.3571   75.8724  221.5963 H   0  0  0  0  0  0  0  0  0  0  0  0
  139.1410   74.0880  222.8820 H   0  0  0  0  0  0  0  0  0  0  0  0
  140.4480   73.7600  221.9000 H   0  0  0  0  0  0  0  0  0  0  0  0
  139.6557   76.6907  219.7381 H   0  0  0  0  0  0  0  0  0  0  0  0
  142.3115   77.8173  221.2550 H   0  0  0  0  0  0  0  0  0  0  0  0
  142.5786   79.6138  222.9037 H   0  0  0  0  0  0  0  0  0  0  0  0
  140.6323   80.2939  224.3255 H   0  0  0  0  0  0  0  0  0  0  0  0
  138.4603   79.1262  224.0322 H   0  0  0  0  0  0  0  0  0  0  0  0
  138.2236   77.3056  222.3546 H   0  0  0  0  0  0  0  0  0  0  0  0
  141.3328   76.8086  218.2341 H   0  0  0  0  0  0  0  0  0  0  0  0
  143.4918   75.9826  217.4400 H   0  0  0  0  0  0  0  0  0  0  0  0
  144.8749   74.4985  218.8775 H   0  0  0  0  0  0  0  0  0  0  0  0
  144.0164   73.8854  221.1207 H   0  0  0  0  0  0  0  0  0  0  0  0
  141.8538   74.7177  221.9302 H   0  0  0  0  0  0  0  0  0  0  0  0
  139.9700   70.2316  219.9646 H   0  0  0  0  0  0  0  0  0  0  0  0
  141.1946   71.0369  220.9807 H   0  0  0  0  0  0  0  0  0  0  0  0
  138.7222   69.4492  221.9190 H   0  0  0  0  0  0  0  0  0  0  0  0
  140.4274   69.0442  222.2228 H   0  0  0  0  0  0  0  0  0  0  0  0
  1  2  1  0
  2  3  1  0
  3  4  2  0
  3  5  1  0
  5  6  1  0
  6  7  2  0
  7  8  1  0
  8  9  2  0
  9 10  1  0
 10 11  2  0
  5 12  1  0
 12 13  1  0
 13 14  1  0
 14 15  1  0
 15 16  1  0
 16 17  2  0
 16 18  1  0
 18 19  1  0
 19 20  1  0
 19 21  1  0
 21 22  1  0
 22 23  2  0
 23 24  1  0
 24 25  2  0
 25 26  1  0
 26 27  2  0
 21 28  1  0
 28 29  2  0
 29 30  1  0
 30 31  2  0
 31 32  1  0
 32 33  2  0
 15 34  1  0
 34 35  1  0
 11  6  1  0
 35 12  1  0
 27 22  1  0
 33 28  1  0
  1 36  1  0
  1 37  1  0
  1 38  1  0
  2 39  1  0
  2 40  1  0
  7 41  1  0
  8 42  1  0
  9 43  1  0
 10 44  1  0
 11 45  1  0
 12 46  1  0
 13 47  1  0
 13 48  1  0
 14 49  1  0
 14 50  1  0
 18 51  1  0
 18 52  1  0
 19 53  1  1
 20 54  1  0
 20 55  1  0
 21 56  1  0
 23 57  1  0
 24 58  1  0
 25 59  1  0
 26 60  1  0
 27 61  1  0
 29 62  1  0
 30 63  1  0
 31 64  1  0
 32 65  1  0
 33 66  1  0
 34 67  1  0
 34 68  1  0
 35 69  1  0
 35 70  1  0
M  END
>  <smiles>  (55) 
CCC(=O)N(c1ccccc1)C1CCN(C(=O)CC(N)C(c2ccccc2)c2ccccc2)CC1

>  <score_type>  (55) 
oracle

>  <origin>  (55) 
autodockgpu

>  <m_score__min__energy>  (55) 
-8.6099999999999994

>  <m_primary>  (55) 
energy

>  <rmsd>  (55) 
7.5164831447542655

>  <m_score__min__rmsd>  (55) 
7.5164831447542655

>  <meeko>  (55) 
{"free_energy": -8.6, "intermolecular_energy": -11.58, "internal_energy": -2.42, "cluster_size": 40, "cluster_id": 1, "rank_in_cluster": 3}

>  <energy>  (55) 
-8.57

>  <cluster_rmsd>  (55) 
0.47

>  <cluster>  (55) 
1

$$$$

     RDKit          3D

 70 73  0  0  0  0  0  0  0  0999 V2000
  138.7940   67.6140  223.1360 C   0  0  0  0  0  0  0  0  0  0  0  0
  138.8740   68.8770  222.3090 C   0  0  0  0  0  0  0  0  0  0  0  0
  138.6840   70.0950  223.1340 C   0  0  0  0  0  0  0  0  0  0  0  0
  137.4950   70.3660  223.4650 O   0  0  0  0  0  0  0  0  0  0  0  0
  139.7480   70.9390  223.5470 N   0  0  0  0  0  0  0  0  0  0  0  0
  140.0970   70.8990  224.9280 C   0  0  0  0  0  0  0  0  0  0  0  0
  139.6140   69.8010  225.6450 C   0  0  0  0  0  0  0  0  0  0  0  0
  139.9000   69.6730  227.0050 C   0  0  0  0  0  0  0  0  0  0  0  0
  140.6570   70.6250  227.6400 C   0  0  0  0  0  0  0  0  0  0  0  0
  141.1350   71.7150  226.9240 C   0  0  0  0  0  0  0  0  0  0  0  0
  140.8560   71.8570  225.5550 C   0  0  0  0  0  0  0  0  0  0  0  0
  140.4050   71.7680  222.5770 C   0  0  0  0  0  0  0  0  0  0  0  0
  139.5890   73.0310  222.4360 C   0  0  0  0  0  0  0  0  0  0  0  0
  139.4820   73.3450  220.9610 C   0  0  0  0  0  0  0  0  0  0  0  0
  140.8400   73.3680  220.4520 N   0  0  0  0  0  0  0  0  0  0  0  0
  141.4760   74.5760  219.9990 C   0  0  0  0  0  0  0  0  0  0  0  0
  142.6430   74.4610  219.5860 O   0  0  0  0  0  0  0  0  0  0  0  0
  140.6780   75.8070  220.0720 C   0  0  0  0  0  0  0  0  0  0  0  0
  141.2910   76.7940  220.9990 C   0  0  1  0  0  0  0  0  0  0  0  0
  142.5910   77.1540  220.4190 N   0  0  0  0  0  0  0  0  0  0  0  0
  140.4790   78.0200  221.2800 C   0  0  0  0  0  0  0  0  0  0  0  0
  139.1260   77.5720  221.7720 C   0  0  0  0  0  0  0  0  0  0  0  0
  138.9780   76.4990  222.6310 C   0  0  0  0  0  0  0  0  0  0  0  0
  137.7580   76.0540  223.0930 C   0  0  0  0  0  0  0  0  0  0  0  0
  136.6000   76.7040  222.6860 C   0  0  0  0  0  0  0  0  0  0  0  0
  136.7080   77.7770  221.8300 C   0  0  0  0  0  0  0  0  0  0  0  0
  137.9640   78.2060  221.3760 C   0  0  0  0  0  0  0  0  0  0  0  0
  141.1010   79.0380  222.1180 C   0  0  0  0  0  0  0  0  0  0  0  0
  141.6020   78.8370  223.3880 C   0  0  0  0  0  0  0  0  0  0  0  0
  142.1880   79.8270  224.1440 C   0  0  0  0  0  0  0  0  0  0  0  0
  142.3010   81.0990  223.6480 C   0  0  0  0  0  0  0  0  0  0  0  0
  141.8130   81.3430  222.3840 C   0  0  0  0  0  0  0  0  0  0  0  0
  141.2270   80.3490  221.6270 C   0  0  0  0  0  0  0  0  0  0  0  0
  141.5310   72.0790  220.4260 C   0  0  0  0  0  0  0  0  0  0  0  0
  140.7070   71.0890  221.2680 C   0  0  0  0  0  0  0  0  0  0  0  0
  138.8105   67.8739  224.2047 H   0  0  0  0  0  0  0  0  0  0  0  0
  137.8603   67.0813  222.9025 H   0  0  0  0  0  0  0  0  0  0  0  0
  139.6530   66.9678  222.9025 H   0  0  0  0  0  0  0  0  0  0  0  0
  139.8622   68.9245  221.8281 H   0  0  0  0  0  0  0  0  0  0  0  0
  138.0682   68.8446  221.5609 H   0  0  0  0  0  0  0  0  0  0  0  0
  139.0077   69.0367  225.1368 H   0  0  0  0  0  0  0  0  0  0  0  0
  139.5184   68.8085  227.5681 H   0  0  0  0  0  0  0  0  0  0  0  0
  140.8844   70.5254  228.7116 H   0  0  0  0  0  0  0  0  0  0  0  0
  141.7403   72.4774  227.4362 H   0  0  0  0  0  0  0  0  0  0  0  0
  141.2393   72.7218  224.9936 H   0  0  0  0  0  0  0  0  0  0  0  0
  141.4143   72.0116  222.9404 H   0  0  0  0  0  0  0  0  0  0  0  0
  138.5858   72.8785  222.8606 H   0  0  0  0  0  0  0  0  0  0  0  0
  140.0685   73.8622  222.9737 H   0  0  0  0  0  0  0  0  0  0  0  0
  138.8955   72.5688  220.4476 H   0  0  0  0  0  0  0  0  0  0  0  0
  138.9745   74.3061  220.7918 H   0  0  0  0  0  0  0  0  0  0  0  0
  140.6121   76.2514  219.0679 H   0  0  0  0  0  0  0  0  0  0  0  0
  139.6776   75.5502  220.4504 H   0  0  0  0  0  0  0  0  0  0  0  0
  141.3736   76.3182  221.9873 H   0  0  0  0  0  0  0  0  0  0  0  0
  142.9910   77.9090  221.0140 H   0  0  0  0  0  0  0  0  0  0  0  0
  143.2420   76.3530  220.4710 H   0  0  0  0  0  0  0  0  0  0  0  0
  140.3840   78.5738  220.3343 H   0  0  0  0  0  0  0  0  0  0  0  0
  139.8838   75.9712  222.9642 H   0  0  0  0  0  0  0  0  0  0  0  0
  137.7021   75.1938  223.7763 H   0  0  0  0  0  0  0  0  0  0  0  0
  135.6147   76.3677  223.0410 H   0  0  0  0  0  0  0  0  0  0  0  0
  135.8004   78.3030  221.4989 H   0  0  0  0  0  0  0  0  0  0  0  0
  138.0251   79.0645  220.6909 H   0  0  0  0  0  0  0  0  0  0  0  0
  141.5290   77.8284  223.8208 H   0  0  0  0  0  0  0  0  0  0  0  0
  142.5671   79.5958  225.1504 H   0  0  0  0  0  0  0  0  0  0  0  0
  142.7668   81.9000  224.2408 H   0  0  0  0  0  0  0  0  0  0  0  0
  141.8923   82.3575  221.9663 H   0  0  0  0  0  0  0  0  0  0  0  0
  140.8516   80.5871  220.6208 H   0  0  0  0  0  0  0  0  0  0  0  0
  141.6082   71.7162  219.3904 H   0  0  0  0  0  0  0  0  0  0  0  0
  142.5476   72.1787  220.8342 H   0  0  0  0  0  0  0  0  0  0  0  0
  139.7707   70.8388  220.7476 H   0  0  0  0  0  0  0  0  0  0  0  0
  141.2637   70.1543  221.4304 H   0  0  0  0  0  0  0  0  0  0  0  0
  1  2  1  0
  2  3  1  0
  3  4  2  0
  3  5  1  0
  5  6  1  0
  6  7  2  0
  7  8  1  0
  8  9  2  0
  9 10  1  0
 10 11  2  0
  5 12  1  0
 12 13  1  0
 13 14  1  0
 14 15  1  0
 15 16  1  0
 16 17  2  0
 16 18  1  0
 18 19  1  0
 19 20  1  0
 19 21  1  0
 21 22  1  0
 22 23  2  0
 23 24  1  0
 24 25  2  0
 25 26  1  0
 26 27  2  0
 21 28  1  0
 28 29  2  0
 29 30  1  0
 30 31  2  0
 31 32  1  0
 32 33  2  0
 15 34  1  0
 34 35  1  0
 11  6  1  0
 35 12  1  0
 27 22  1  0
 33 28  1  0
  1 36  1  0
  1 37  1  0
  1 38  1  0
  2 39  1  0
  2 40  1  0
  7 41  1  0
  8 42  1  0
  9 43  1  0
 10 44  1  0
 11 45  1  0
 12 46  1  0
 13 47  1  0
 13 48  1  0
 14 49  1  0
 14 50  1  0
 18 51  1  0
 18 52  1  0
 19 53  1  1
 20 54  1  0
 20 55  1  0
 21 56  1  0
 23 57  1  0
 24 58  1  0
 25 59  1  0
 26 60  1  0
 27 61  1  0
 29 62  1  0
 30 63  1  0
 31 64  1  0
 32 65  1  0
 33 66  1  0
 34 67  1  0
 34 68  1  0
 35 69  1  0
 35 70  1  0
M  END
>  <smiles>  (56) 
CCC(=O)N(c1ccccc1)C1CCN(C(=O)CC(N)C(c2ccccc2)c2ccccc2)CC1

>  <score_type>  (56) 
oracle

>  <origin>  (56) 
autodockgpu

>  <m_score__min__energy>  (56) 
-8.6099999999999994

>  <m_primary>  (56) 
energy

>  <rmsd>  (56) 
7.805017278322543

>  <m_score__min__rmsd>  (56) 
7.805017278322543

>  <meeko>  (56) 
{"free_energy": -8.07, "intermolecular_energy": -11.06, "internal_energy": -2.99, "cluster_size": 40, "cluster_id": 1, "rank_in_cluster": 25}

>  <energy>  (56) 
-8.55

>  <cluster_rmsd>  (56) 
1.09

>  <cluster>  (56) 
1

$$$$

     RDKit          3D

 70 73  0  0  0  0  0  0  0  0999 V2000
  136.7230   70.7920  223.8320 C   0  0  0  0  0  0  0  0  0  0  0  0
  137.4540   69.4850  223.6300 C   0  0  0  0  0  0  0  0  0  0  0  0
  138.8270   69.6900  223.1060 C   0  0  0  0  0  0  0  0  0  0  0  0
  139.1240   69.0540  222.0550 O   0  0  0  0  0  0  0  0  0  0  0  0
  139.7830   70.5410  223.7190 N   0  0  0  0  0  0  0  0  0  0  0  0
  140.1010   70.2690  225.0810 C   0  0  0  0  0  0  0  0  0  0  0  0
  140.5270   71.3660  225.8360 C   0  0  0  0  0  0  0  0  0  0  0  0
  140.8630   71.2010  227.1800 C   0  0  0  0  0  0  0  0  0  0  0  0
  140.7760   69.9620  227.7630 C   0  0  0  0  0  0  0  0  0  0  0  0
  140.3520   68.8750  227.0110 C   0  0  0  0  0  0  0  0  0  0  0  0
  140.0100   69.0250  225.6560 C   0  0  0  0  0  0  0  0  0  0  0  0
  140.3690   71.6060  222.9560 C   0  0  0  0  0  0  0  0  0  0  0  0
  139.2910   72.6350  222.7140 C   0  0  0  0  0  0  0  0  0  0  0  0
  139.3860   73.0690  221.2690 C   0  0  0  0  0  0  0  0  0  0  0  0
  140.7610   73.4810  221.0590 N   0  0  0  0  0  0  0  0  0  0  0  0
  141.1300   74.8500  220.8160 C   0  0  0  0  0  0  0  0  0  0  0  0
  142.3420   75.0710  220.6530 O   0  0  0  0  0  0  0  0  0  0  0  0
  140.0370   75.8300  220.7870 C   0  0  0  0  0  0  0  0  0  0  0  0
  140.0610   76.7030  221.9890 C   0  0  1  0  0  0  0  0  0  0  0  0
  141.4460   76.6970  222.4770 N   0  0  0  0  0  0  0  0  0  0  0  0
  139.5750   78.1050  221.7900 C   0  0  0  0  0  0  0  0  0  0  0  0
  138.1890   78.1980  222.3750 C   0  0  0  0  0  0  0  0  0  0  0  0
  137.6520   79.3990  222.7980 C   0  0  0  0  0  0  0  0  0  0  0  0
  136.3940   79.5220  223.3480 C   0  0  0  0  0  0  0  0  0  0  0  0
  135.6040   78.3890  223.4940 C   0  0  0  0  0  0  0  0  0  0  0  0
  136.1050   77.1740  223.0830 C   0  0  0  0  0  0  0  0  0  0  0  0
  137.3900   77.0810  222.5280 C   0  0  0  0  0  0  0  0  0  0  0  0
  140.4690   79.1740  222.2210 C   0  0  0  0  0  0  0  0  0  0  0  0
  140.9060   79.3830  223.5120 C   0  0  0  0  0  0  0  0  0  0  0  0
  141.7560   80.4030  223.8770 C   0  0  0  0  0  0  0  0  0  0  0  0
  142.2180   81.2850  222.9350 C   0  0  0  0  0  0  0  0  0  0  0  0
  141.8040   81.1130  221.6340 C   0  0  0  0  0  0  0  0  0  0  0  0
  140.9530   80.0890  221.2710 C   0  0  0  0  0  0  0  0  0  0  0  0
  141.7590   72.4130  221.1100 C   0  0  0  0  0  0  0  0  0  0  0  0
  141.0810   71.1660  221.7040 C   0  0  0  0  0  0  0  0  0  0  0  0
  136.6133   70.9881  224.9088 H   0  0  0  0  0  0  0  0  0  0  0  0
  137.2957   71.6081  223.3671 H   0  0  0  0  0  0  0  0  0  0  0  0
  135.7279   70.7312  223.3671 H   0  0  0  0  0  0  0  0  0  0  0  0
  137.5170   68.9607  224.5950 H   0  0  0  0  0  0  0  0  0  0  0  0
  136.8936   68.8935  222.8910 H   0  0  0  0  0  0  0  0  0  0  0  0
  140.5973   72.3599  225.3700 H   0  0  0  0  0  0  0  0  0  0  0  0
  141.1980   72.0650  227.7728 H   0  0  0  0  0  0  0  0  0  0  0  0
  141.0413   69.8306  228.8224 H   0  0  0  0  0  0  0  0  0  0  0  0
  140.2828   67.8832  227.4817 H   0  0  0  0  0  0  0  0  0  0  0  0
  139.6747   68.1597  225.0654 H   0  0  0  0  0  0  0  0  0  0  0  0
  141.1897   72.0516  223.5372 H   0  0  0  0  0  0  0  0  0  0  0  0
  138.3021   72.1944  222.9086 H   0  0  0  0  0  0  0  0  0  0  0  0
  139.4235   73.4968  223.3846 H   0  0  0  0  0  0  0  0  0  0  0  0
  139.1329   72.2317  220.6021 H   0  0  0  0  0  0  0  0  0  0  0  0
  138.6846   73.8875  221.0497 H   0  0  0  0  0  0  0  0  0  0  0  0
  140.1406   76.4554  219.8881 H   0  0  0  0  0  0  0  0  0  0  0  0
  139.0821   75.2840  220.7741 H   0  0  0  0  0  0  0  0  0  0  0  0
  139.3437   76.2924  222.7149 H   0  0  0  0  0  0  0  0  0  0  0  0
  141.6880   75.7090  222.6940 H   0  0  0  0  0  0  0  0  0  0  0  0
  142.0910   77.0090  221.7320 H   0  0  0  0  0  0  0  0  0  0  0  0
  139.5512   78.2933  220.7065 H   0  0  0  0  0  0  0  0  0  0  0  0
  138.2625   80.3076  222.6898 H   0  0  0  0  0  0  0  0  0  0  0  0
  136.0202   80.5060  223.6675 H   0  0  0  0  0  0  0  0  0  0  0  0
  134.5966   78.4609  223.9299 H   0  0  0  0  0  0  0  0  0  0  0  0
  135.4915   76.2674  223.1909 H   0  0  0  0  0  0  0  0  0  0  0  0
  137.7692   76.0992  222.2082 H   0  0  0  0  0  0  0  0  0  0  0  0
  140.5554   78.6952  224.2956 H   0  0  0  0  0  0  0  0  0  0  0  0
  142.0650   80.5103  224.9272 H   0  0  0  0  0  0  0  0  0  0  0  0
  142.8982   82.1044  223.2103 H   0  0  0  0  0  0  0  0  0  0  0  0
  142.1611   81.8108  220.8623 H   0  0  0  0  0  0  0  0  0  0  0  0
  140.6482   79.9873  220.2190 H   0  0  0  0  0  0  0  0  0  0  0  0
  142.1246   72.1933  220.0960 H   0  0  0  0  0  0  0  0  0  0  0  0
  142.6163   72.7165  221.7287 H   0  0  0  0  0  0  0  0  0  0  0  0
  140.3594   70.7500  220.9855 H   0  0  0  0  0  0  0  0  0  0  0  0
  141.8227   70.3852  221.9281 H   0  0  0  0  0  0  0  0  0  0  0  0
  1  2  1  0
  2  3  1  0
  3  4  2  0
  3  5  1  0
  5  6  1  0
  6  7  2  0
  7  8  1  0
  8  9  2  0
  9 10  1  0
 10 11  2  0
  5 12  1  0
 12 13  1  0
 13 14  1  0
 14 15  1  0
 15 16  1  0
 16 17  2  0
 16 18  1  0
 18 19  1  0
 19 20  1  0
 19 21  1  0
 21 22  1  0
 22 23  2  0
 23 24  1  0
 24 25  2  0
 25 26  1  0
 26 27  2  0
 21 28  1  0
 28 29  2  0
 29 30  1  0
 30 31  2  0
 31 32  1  0
 32 33  2  0
 15 34  1  0
 34 35  1  0
 11  6  1  0
 35 12  1  0
 27 22  1  0
 33 28  1  0
  1 36  1  0
  1 37  1  0
  1 38  1  0
  2 39  1  0
  2 40  1  0
  7 41  1  0
  8 42  1  0
  9 43  1  0
 10 44  1  0
 11 45  1  0
 12 46  1  0
 13 47  1  0
 13 48  1  0
 14 49  1  0
 14 50  1  0
 18 51  1  0
 18 52  1  0
 19 53  1  1
 20 54  1  0
 20 55  1  0
 21 56  1  0
 23 57  1  0
 24 58  1  0
 25 59  1  0
 26 60  1  0
 27 61  1  0
 29 62  1  0
 30 63  1  0
 31 64  1  0
 32 65  1  0
 33 66  1  0
 34 67  1  0
 34 68  1  0
 35 69  1  0
 35 70  1  0
M  END
>  <smiles>  (57) 
CCC(=O)N(c1ccccc1)C1CCN(C(=O)CC(N)C(c2ccccc2)c2ccccc2)CC1

>  <score_type>  (57) 
oracle

>  <origin>  (57) 
autodockgpu

>  <m_score__min__energy>  (57) 
-8.6099999999999994

>  <m_primary>  (57) 
energy

>  <rmsd>  (57) 
8.041406478600381

>  <m_score__min__rmsd>  (57) 
8.041406478600381

>  <meeko>  (57) 
{"free_energy": -7.89, "intermolecular_energy": -10.87, "internal_energy": -3.14, "cluster_size": 40, "cluster_id": 1, "rank_in_cluster": 35}

>  <energy>  (57) 
-8.54

>  <cluster_rmsd>  (57) 
0.44

>  <cluster>  (57) 
1

$$$$

     RDKit          3D

 70 73  0  0  0  0  0  0  0  0999 V2000
  136.5890   70.1860  224.2090 C   0  0  0  0  0  0  0  0  0  0  0  0
  137.4190   69.2450  223.3670 C   0  0  0  0  0  0  0  0  0  0  0  0
  138.7940   69.0840  223.9030 C   0  0  0  0  0  0  0  0  0  0  0  0
  139.1770   67.8970  224.1090 O   0  0  0  0  0  0  0  0  0  0  0  0
  139.6600   70.1720  224.1850 N   0  0  0  0  0  0  0  0  0  0  0  0
  139.9930   70.3870  225.5540 C   0  0  0  0  0  0  0  0  0  0  0  0
  139.4940   69.4430  226.4560 C   0  0  0  0  0  0  0  0  0  0  0  0
  139.7650   69.5670  227.8190 C   0  0  0  0  0  0  0  0  0  0  0  0
  140.5220   70.6160  228.2750 C   0  0  0  0  0  0  0  0  0  0  0  0
  141.0170   71.5520  227.3770 C   0  0  0  0  0  0  0  0  0  0  0  0
  140.7530   71.4400  226.0010 C   0  0  0  0  0  0  0  0  0  0  0  0
  140.1460   70.9820  223.1040 C   0  0  0  0  0  0  0  0  0  0  0  0
  139.3420   72.2610  223.1000 C   0  0  0  0  0  0  0  0  0  0  0  0
  138.9760   72.5670  221.6660 C   0  0  0  0  0  0  0  0  0  0  0  0
  140.2190   72.5600  220.9200 N   0  0  0  0  0  0  0  0  0  0  0  0
  140.7850   73.7520  220.3470 C   0  0  0  0  0  0  0  0  0  0  0  0
  141.8570   73.6100  219.7320 O   0  0  0  0  0  0  0  0  0  0  0  0
  140.0370   74.9980  220.5510 C   0  0  0  0  0  0  0  0  0  0  0  0
  140.8450   75.9970  221.3000 C   0  0  1  0  0  0  0  0  0  0  0  0
  142.1710   76.0120  220.6720 N   0  0  0  0  0  0  0  0  0  0  0  0
  140.2750   77.3800  221.3690 C   0  0  0  0  0  0  0  0  0  0  0  0
  138.8560   77.2690  221.8650 C   0  0  0  0  0  0  0  0  0  0  0  0
  137.8830   78.1820  221.5090 C   0  0  0  0  0  0  0  0  0  0  0  0
  136.5780   78.1190  221.9510 C   0  0  0  0  0  0  0  0  0  0  0  0
  136.1990   77.0890  222.8020 C   0  0  0  0  0  0  0  0  0  0  0  0
  137.1430   76.1590  223.1800 C   0  0  0  0  0  0  0  0  0  0  0  0
  138.4630   76.2510  222.7130 C   0  0  0  0  0  0  0  0  0  0  0  0
  141.0690   78.3790  222.0750 C   0  0  0  0  0  0  0  0  0  0  0  0
  141.3100   78.3990  223.4330 C   0  0  0  0  0  0  0  0  0  0  0  0
  142.0720   79.3600  224.0610 C   0  0  0  0  0  0  0  0  0  0  0  0
  142.6410   80.3720  223.3340 C   0  0  0  0  0  0  0  0  0  0  0  0
  142.4230   80.3900  221.9750 C   0  0  0  0  0  0  0  0  0  0  0  0
  141.6610   79.4260  221.3480 C   0  0  0  0  0  0  0  0  0  0  0  0
  140.8710   71.2570  220.7820 C   0  0  0  0  0  0  0  0  0  0  0  0
  140.1930   70.2890  221.7690 C   0  0  0  0  0  0  0  0  0  0  0  0
  136.7699   69.9809  225.2745 H   0  0  0  0  0  0  0  0  0  0  0  0
  136.8700   71.2251  223.9827 H   0  0  0  0  0  0  0  0  0  0  0  0
  135.5229   70.0369  223.9827 H   0  0  0  0  0  0  0  0  0  0  0  0
  136.9285   68.2606  223.3465 H   0  0  0  0  0  0  0  0  0  0  0  0
  137.4965   69.6725  222.3565 H   0  0  0  0  0  0  0  0  0  0  0  0
  138.8870   68.6014  226.0908 H   0  0  0  0  0  0  0  0  0  0  0  0
  139.3716   68.8236  228.5279 H   0  0  0  0  0  0  0  0  0  0  0  0
  140.7363   70.7154  229.3493 H   0  0  0  0  0  0  0  0  0  0  0  0
  141.6234   72.3918  227.7470 H   0  0  0  0  0  0  0  0  0  0  0  0
  141.1487   72.1837  225.2936 H   0  0  0  0  0  0  0  0  0  0  0  0
  141.2086   71.2075  223.2771 H   0  0  0  0  0  0  0  0  0  0  0  0
  138.4295   72.1321  223.7006 H   0  0  0  0  0  0  0  0  0  0  0  0
  139.9266   73.0858  223.5336 H   0  0  0  0  0  0  0  0  0  0  0  0
  138.2924   71.7990  221.2749 H   0  0  0  0  0  0  0  0  0  0  0  0
  138.4638   73.5368  221.5817 H   0  0  0  0  0  0  0  0  0  0  0  0
  139.7665   75.4181  219.5710 H   0  0  0  0  0  0  0  0  0  0  0  0
  139.1357   74.7696  221.1387 H   0  0  0  0  0  0  0  0  0  0  0  0
  140.8691   75.6849  222.3545 H   0  0  0  0  0  0  0  0  0  0  0  0
  142.7280   75.2540  221.1180 H   0  0  0  0  0  0  0  0  0  0  0  0
  142.0970   75.7790  219.6680 H   0  0  0  0  0  0  0  0  0  0  0  0
  140.2967   77.7946  220.3504 H   0  0  0  0  0  0  0  0  0  0  0  0
  138.1643   79.0051  220.8356 H   0  0  0  0  0  0  0  0  0  0  0  0
  135.8458   78.8759  221.6331 H   0  0  0  0  0  0  0  0  0  0  0  0
  135.1641   77.0169  223.1677 H   0  0  0  0  0  0  0  0  0  0  0  0
  136.8592   75.3372  223.8538 H   0  0  0  0  0  0  0  0  0  0  0  0
  139.1999   75.4976  223.0283 H   0  0  0  0  0  0  0  0  0  0  0  0
  140.8687   77.6023  224.0498 H   0  0  0  0  0  0  0  0  0  0  0  0
  142.2239   79.3144  225.1495 H   0  0  0  0  0  0  0  0  0  0  0  0
  143.2528   81.1458  223.8208 H   0  0  0  0  0  0  0  0  0  0  0  0
  142.8686   81.1952  221.3724 H   0  0  0  0  0  0  0  0  0  0  0  0
  141.5140   79.4778  220.2591 H   0  0  0  0  0  0  0  0  0  0  0  0
  140.7538   70.8863  219.7530 H   0  0  0  0  0  0  0  0  0  0  0  0
  141.9463   71.3387  220.9989 H   0  0  0  0  0  0  0  0  0  0  0  0
  139.1734   70.0555  221.4287 H   0  0  0  0  0  0  0  0  0  0  0  0
  140.7513   69.3437  221.8372 H   0  0  0  0  0  0  0  0  0  0  0  0
  1  2  1  0
  2  3  1  0
  3  4  2  0
  3  5  1  0
  5  6  1  0
  6  7  2  0
  7  8  1  0
  8  9  2  0
  9 10  1  0
 10 11  2  0
  5 12  1  0
 12 13  1  0
 13 14  1  0
 14 15  1  0
 15 16  1  0
 16 17  2  0
 16 18  1  0
 18 19  1  0
 19 20  1  0
 19 21  1  0
 21 22  1  0
 22 23  2  0
 23 24  1  0
 24 25  2  0
 25 26  1  0
 26 27  2  0
 21 28  1  0
 28 29  2  0
 29 30  1  0
 30 31  2  0
 31 32  1  0
 32 33  2  0
 15 34  1  0
 34 35  1  0
 11  6  1  0
 35 12  1  0
 27 22  1  0
 33 28  1  0
  1 36  1  0
  1 37  1  0
  1 38  1  0
  2 39  1  0
  2 40  1  0
  7 41  1  0
  8 42  1  0
  9 43  1  0
 10 44  1  0
 11 45  1  0
 12 46  1  0
 13 47  1  0
 13 48  1  0
 14 49  1  0
 14 50  1  0
 18 51  1  0
 18 52  1  0
 19 53  1  1
 20 54  1  0
 20 55  1  0
 21 56  1  0
 23 57  1  0
 24 58  1  0
 25 59  1  0
 26 60  1  0
 27 61  1  0
 29 62  1  0
 30 63  1  0
 31 64  1  0
 32 65  1  0
 33 66  1  0
 34 67  1  0
 34 68  1  0
 35 69  1  0
 35 70  1  0
M  END
>  <smiles>  (58) 
CCC(=O)N(c1ccccc1)C1CCN(C(=O)CC(N)C(c2ccccc2)c2ccccc2)CC1

>  <score_type>  (58) 
oracle

>  <origin>  (58) 
autodockgpu

>  <m_score__min__energy>  (58) 
-8.6099999999999994

>  <m_primary>  (58) 
energy

>  <rmsd>  (58) 
7.440930145930279

>  <m_score__min__rmsd>  (58) 
7.440930145930279

>  <meeko>  (58) 
{"free_energy": -7.88, "intermolecular_energy": -10.86, "internal_energy": -3.16, "cluster_size": 40, "cluster_id": 1, "rank_in_cluster": 36}

>  <energy>  (58) 
-8.53

>  <cluster_rmsd>  (58) 
1.04

>  <cluster>  (58) 
1

$$$$

     RDKit          3D

 70 73  0  0  0  0  0  0  0  0999 V2000
  136.8380   69.5350  224.3450 C   0  0  0  0  0  0  0  0  0  0  0  0
  137.4020   69.7860  222.9650 C   0  0  0  0  0  0  0  0  0  0  0  0
  138.8750   69.6110  222.9260 C   0  0  0  0  0  0  0  0  0  0  0  0
  139.3010   68.6170  222.2710 O   0  0  0  0  0  0  0  0  0  0  0  0
  139.7880   70.4830  223.5730 N   0  0  0  0  0  0  0  0  0  0  0  0
  140.0980   70.1900  224.9330 C   0  0  0  0  0  0  0  0  0  0  0  0
  140.5600   71.2670  225.6950 C   0  0  0  0  0  0  0  0  0  0  0  0
  140.8920   71.0810  227.0380 C   0  0  0  0  0  0  0  0  0  0  0  0
  140.7640   69.8420  227.6120 C   0  0  0  0  0  0  0  0  0  0  0  0
  140.3040   68.7740  226.8520 C   0  0  0  0  0  0  0  0  0  0  0  0
  139.9660   68.9460  225.4990 C   0  0  0  0  0  0  0  0  0  0  0  0
  140.3420   71.5880  222.8440 C   0  0  0  0  0  0  0  0  0  0  0  0
  139.2570   72.6300  222.7090 C   0  0  0  0  0  0  0  0  0  0  0  0
  139.2870   73.1430  221.2880 C   0  0  0  0  0  0  0  0  0  0  0  0
  140.6520   73.5660  221.0390 N   0  0  0  0  0  0  0  0  0  0  0  0
  141.0130   74.9460  220.8550 C   0  0  0  0  0  0  0  0  0  0  0  0
  142.2180   75.1760  220.6490 O   0  0  0  0  0  0  0  0  0  0  0  0
  139.9230   75.9270  220.9300 C   0  0  0  0  0  0  0  0  0  0  0  0
  140.0530   76.7880  222.1350 C   0  0  1  0  0  0  0  0  0  0  0  0
  141.4500   76.6810  222.5710 N   0  0  0  0  0  0  0  0  0  0  0  0
  139.6610   78.2220  221.9590 C   0  0  0  0  0  0  0  0  0  0  0  0
  138.2660   78.3880  222.5060 C   0  0  0  0  0  0  0  0  0  0  0  0
  137.8090   79.5990  222.9900 C   0  0  0  0  0  0  0  0  0  0  0  0
  136.5460   79.7870  223.5070 C   0  0  0  0  0  0  0  0  0  0  0  0
  135.6660   78.7130  223.5560 C   0  0  0  0  0  0  0  0  0  0  0  0
  136.0860   77.4890  223.0840 C   0  0  0  0  0  0  0  0  0  0  0  0
  137.3800   77.3300  222.5630 C   0  0  0  0  0  0  0  0  0  0  0  0
  140.6060   79.2220  222.4430 C   0  0  0  0  0  0  0  0  0  0  0  0
  141.1280   79.2820  223.7180 C   0  0  0  0  0  0  0  0  0  0  0  0
  142.0240   80.2420  224.1340 C   0  0  0  0  0  0  0  0  0  0  0  0
  142.4480   81.2120  223.2640 C   0  0  0  0  0  0  0  0  0  0  0  0
  141.9500   81.1890  221.9810 C   0  0  0  0  0  0  0  0  0  0  0  0
  141.0530   80.2260  221.5660 C   0  0  0  0  0  0  0  0  0  0  0  0
  141.6490   72.4960  220.9840 C   0  0  0  0  0  0  0  0  0  0  0  0
  140.9950   71.2190  221.5390 C   0  0  0  0  0  0  0  0  0  0  0  0
  137.5661   69.8590  225.1032 H   0  0  0  0  0  0  0  0  0  0  0  0
  135.9036   70.1022  224.4680 H   0  0  0  0  0  0  0  0  0  0  0  0
  136.6339   68.4611  224.4680 H   0  0  0  0  0  0  0  0  0  0  0  0
  136.9416   69.0790  222.2592 H   0  0  0  0  0  0  0  0  0  0  0  0
  137.1762   70.8268  222.6899 H   0  0  0  0  0  0  0  0  0  0  0  0
  140.6620   72.2615  225.2361 H   0  0  0  0  0  0  0  0  0  0  0  0
  141.2566   71.9289  227.6365 H   0  0  0  0  0  0  0  0  0  0  0  0
  141.0247   69.6945  228.6704 H   0  0  0  0  0  0  0  0  0  0  0  0
  140.2031   67.7814  227.3151 H   0  0  0  0  0  0  0  0  0  0  0  0
  139.6012   68.0969  224.9023 H   0  0  0  0  0  0  0  0  0  0  0  0
  141.1901   71.9993  223.4111 H   0  0  0  0  0  0  0  0  0  0  0  0
  138.2766   72.1801  222.9243 H   0  0  0  0  0  0  0  0  0  0  0  0
  139.4229   73.4533  223.4194 H   0  0  0  0  0  0  0  0  0  0  0  0
  139.0018   72.3438  220.5880 H   0  0  0  0  0  0  0  0  0  0  0  0
  138.5783   73.9722  221.1462 H   0  0  0  0  0  0  0  0  0  0  0  0
  139.9495   76.5614  220.0318 H   0  0  0  0  0  0  0  0  0  0  0  0
  138.9695   75.3823  220.9938 H   0  0  0  0  0  0  0  0  0  0  0  0
  139.3359   76.4241  222.8856 H   0  0  0  0  0  0  0  0  0  0  0  0
  141.6490   75.6690  222.7110 H   0  0  0  0  0  0  0  0  0  0  0  0
  142.0860   77.0140  221.8280 H   0  0  0  0  0  0  0  0  0  0  0  0
  139.6816   78.4374  220.8805 H   0  0  0  0  0  0  0  0  0  0  0  0
  138.4918   80.4609  222.9608 H   0  0  0  0  0  0  0  0  0  0  0  0
  136.2378   80.7761  223.8768 H   0  0  0  0  0  0  0  0  0  0  0  0
  134.6523   78.8379  223.9643 H   0  0  0  0  0  0  0  0  0  0  0  0
  135.4015   76.6285  223.1155 H   0  0  0  0  0  0  0  0  0  0  0  0
  137.6945   76.3431  222.1928 H   0  0  0  0  0  0  0  0  0  0  0  0
  140.8107   78.5195  224.4445 H   0  0  0  0  0  0  0  0  0  0  0  0
  142.4002   80.2299  225.1676 H   0  0  0  0  0  0  0  0  0  0  0  0
  143.1638   81.9848  223.5809 H   0  0  0  0  0  0  0  0  0  0  0  0
  142.2760   81.9595  221.2668 H   0  0  0  0  0  0  0  0  0  0  0  0
  140.6811   80.2441  220.5309 H   0  0  0  0  0  0  0  0  0  0  0  0
  141.9664   72.3327  219.9435 H   0  0  0  0  0  0  0  0  0  0  0  0
  142.5355   72.7643  221.5775 H   0  0  0  0  0  0  0  0  0  0  0  0
  140.2403   70.8437  220.8322 H   0  0  0  0  0  0  0  0  0  0  0  0
  141.7444   70.4273  221.6860 H   0  0  0  0  0  0  0  0  0  0  0  0
  1  2  1  0
  2  3  1  0
  3  4  2  0
  3  5  1  0
  5  6  1  0
  6  7  2  0
  7  8  1  0
  8  9  2  0
  9 10  1  0
 10 11  2  0
  5 12  1  0
 12 13  1  0
 13 14  1  0
 14 15  1  0
 15 16  1  0
 16 17  2  0
 16 18  1  0
 18 19  1  0
 19 20  1  0
 19 21  1  0
 21 22  1  0
 22 23  2  0
 23 24  1  0
 24 25  2  0
 25 26  1  0
 26 27  2  0
 21 28  1  0
 28 29  2  0
 29 30  1  0
 30 31  2  0
 31 32  1  0
 32 33  2  0
 15 34  1  0
 34 35  1  0
 11  6  1  0
 35 12  1  0
 27 22  1  0
 33 28  1  0
  1 36  1  0
  1 37  1  0
  1 38  1  0
  2 39  1  0
  2 40  1  0
  7 41  1  0
  8 42  1  0
  9 43  1  0
 10 44  1  0
 11 45  1  0
 12 46  1  0
 13 47  1  0
 13 48  1  0
 14 49  1  0
 14 50  1  0
 18 51  1  0
 18 52  1  0
 19 53  1  1
 20 54  1  0
 20 55  1  0
 21 56  1  0
 23 57  1  0
 24 58  1  0
 25 59  1  0
 26 60  1  0
 27 61  1  0
 29 62  1  0
 30 63  1  0
 31 64  1  0
 32 65  1  0
 33 66  1  0
 34 67  1  0
 34 68  1  0
 35 69  1  0
 35 70  1  0
M  END
>  <smiles>  (59) 
CCC(=O)N(c1ccccc1)C1CCN(C(=O)CC(N)C(c2ccccc2)c2ccccc2)CC1

>  <score_type>  (59) 
oracle

>  <origin>  (59) 
autodockgpu

>  <m_score__min__energy>  (59) 
-8.6099999999999994

>  <m_primary>  (59) 
energy

>  <rmsd>  (59) 
8.149196163511977

>  <m_score__min__rmsd>  (59) 
8.149196163511977

>  <meeko>  (59) 
{"free_energy": -7.94, "intermolecular_energy": -10.93, "internal_energy": -3.1, "cluster_size": 40, "cluster_id": 1, "rank_in_cluster": 34}

>  <energy>  (59) 
-8.52

>  <cluster_rmsd>  (59) 
1.43

>  <cluster>  (59) 
1

$$$$

     RDKit          3D

 70 73  0  0  0  0  0  0  0  0999 V2000
  136.5290   71.9720  223.1860 C   0  0  0  0  0  0  0  0  0  0  0  0
  137.2410   70.7050  223.6000 C   0  0  0  0  0  0  0  0  0  0  0  0
  138.5910   70.6020  222.9920 C   0  0  0  0  0  0  0  0  0  0  0  0
  138.6740   69.9240  221.9280 O   0  0  0  0  0  0  0  0  0  0  0  0
  139.7490   71.2110  223.5410 N   0  0  0  0  0  0  0  0  0  0  0  0
  140.1010   70.8340  224.8700 C   0  0  0  0  0  0  0  0  0  0  0  0
  139.7960   69.5180  225.2290 C   0  0  0  0  0  0  0  0  0  0  0  0
  140.1000   69.0550  226.5090 C   0  0  0  0  0  0  0  0  0  0  0  0
  140.7000   69.8910  227.4180 C   0  0  0  0  0  0  0  0  0  0  0  0
  141.0010   71.1970  227.0580 C   0  0  0  0  0  0  0  0  0  0  0  0
  140.7010   71.6790  225.7720 C   0  0  0  0  0  0  0  0  0  0  0  0
  140.4910   72.1520  222.7510 C   0  0  0  0  0  0  0  0  0  0  0  0
  139.5360   73.2460  222.3360 C   0  0  0  0  0  0  0  0  0  0  0  0
  139.7870   73.5440  220.8750 C   0  0  0  0  0  0  0  0  0  0  0  0
  141.2060   73.8160  220.7550 N   0  0  0  0  0  0  0  0  0  0  0  0
  141.7190   75.1220  220.4380 C   0  0  0  0  0  0  0  0  0  0  0  0
  142.9560   75.2230  220.3650 O   0  0  0  0  0  0  0  0  0  0  0  0
  140.7280   76.1860  220.2370 C   0  0  0  0  0  0  0  0  0  0  0  0
  140.8070   77.2090  221.3120 C   0  0  1  0  0  0  0  0  0  0  0  0
  141.0910   76.4820  222.5550 N   0  0  0  0  0  0  0  0  0  0  0  0
  141.8050   78.3060  221.1000 C   0  0  0  0  0  0  0  0  0  0  0  0
  141.6590   78.7910  219.6800 C   0  0  0  0  0  0  0  0  0  0  0  0
  140.6610   79.6710  219.3070 C   0  0  0  0  0  0  0  0  0  0  0  0
  140.4900   80.1280  218.0170 C   0  0  0  0  0  0  0  0  0  0  0  0
  141.3570   79.6940  217.0230 C   0  0  0  0  0  0  0  0  0  0  0  0
  142.3640   78.8160  217.3570 C   0  0  0  0  0  0  0  0  0  0  0  0
  142.5120   78.3680  218.6790 C   0  0  0  0  0  0  0  0  0  0  0  0
  141.8180   79.3770  222.0900 C   0  0  0  0  0  0  0  0  0  0  0  0
  140.7240   80.1180  222.4860 C   0  0  0  0  0  0  0  0  0  0  0  0
  140.7790   81.1190  223.4290 C   0  0  0  0  0  0  0  0  0  0  0  0
  141.9680   81.4320  224.0350 C   0  0  0  0  0  0  0  0  0  0  0  0
  143.0850   80.7170  223.6670 C   0  0  0  0  0  0  0  0  0  0  0  0
  143.0280   79.7130  222.7220 C   0  0  0  0  0  0  0  0  0  0  0  0
  142.0930   72.6740  220.9760 C   0  0  0  0  0  0  0  0  0  0  0  0
  141.2570   71.5460  221.6050 C   0  0  0  0  0  0  0  0  0  0  0  0
  136.2171   72.5271  224.0830 H   0  0  0  0  0  0  0  0  0  0  0  0
  137.2088   72.5956  222.5868 H   0  0  0  0  0  0  0  0  0  0  0  0
  135.6429   71.7156  222.5868 H   0  0  0  0  0  0  0  0  0  0  0  0
  137.3432   70.6967  224.6952 H   0  0  0  0  0  0  0  0  0  0  0  0
  136.6443   69.8499  223.2496 H   0  0  0  0  0  0  0  0  0  0  0  0
  139.3159   68.8470  224.5015 H   0  0  0  0  0  0  0  0  0  0  0  0
  139.8589   68.0193  226.7905 H   0  0  0  0  0  0  0  0  0  0  0  0
  140.9411   69.5270  228.4276 H   0  0  0  0  0  0  0  0  0  0  0  0
  141.4810   71.8642  227.7890 H   0  0  0  0  0  0  0  0  0  0  0  0
  140.9425   72.7151  225.4926 H   0  0  0  0  0  0  0  0  0  0  0  0
  141.3007   72.5738  223.3646 H   0  0  0  0  0  0  0  0  0  0  0  0
  138.4979   72.9108  222.4772 H   0  0  0  0  0  0  0  0  0  0  0  0
  139.6936   74.1476  222.9462 H   0  0  0  0  0  0  0  0  0  0  0  0
  139.5113   72.6772  220.2563 H   0  0  0  0  0  0  0  0  0  0  0  0
  139.1850   74.3980  220.5312 H   0  0  0  0  0  0  0  0  0  0  0  0
  140.9144   76.6705  219.2672 H   0  0  0  0  0  0  0  0  0  0  0  0
  139.7251   75.7347  220.2608 H   0  0  0  0  0  0  0  0  0  0  0  0
  139.8473   77.7462  221.3334 H   0  0  0  0  0  0  0  0  0  0  0  0
  141.9020   75.8580  222.3640 H   0  0  0  0  0  0  0  0  0  0  0  0
  141.3830   77.1380  223.2980 H   0  0  0  0  0  0  0  0  0  0  0  0
  142.8049   77.8767  221.2613 H   0  0  0  0  0  0  0  0  0  0  0  0
  139.9650   80.0264  220.0811 H   0  0  0  0  0  0  0  0  0  0  0  0
  139.6760   80.8283  217.7783 H   0  0  0  0  0  0  0  0  0  0  0  0
  141.2415   80.0453  215.9870 H   0  0  0  0  0  0  0  0  0  0  0  0
  143.0587   78.4626  216.5808 H   0  0  0  0  0  0  0  0  0  0  0  0
  143.3232   77.6662  218.9228 H   0  0  0  0  0  0  0  0  0  0  0  0
  139.7519   79.8962  222.0215 H   0  0  0  0  0  0  0  0  0  0  0  0
  139.8655   81.6699  223.6973 H   0  0  0  0  0  0  0  0  0  0  0  0
  142.0275   82.2288  224.7910 H   0  0  0  0  0  0  0  0  0  0  0  0
  144.0501   80.9525  224.1394 H   0  0  0  0  0  0  0  0  0  0  0  0
  143.9453   79.1660  222.4586 H   0  0  0  0  0  0  0  0  0  0  0  0
  142.5157   72.3372  220.0179 H   0  0  0  0  0  0  0  0  0  0  0  0
  142.9231   72.9545  221.6410 H   0  0  0  0  0  0  0  0  0  0  0  0
  140.5598   71.1328  220.8612 H   0  0  0  0  0  0  0  0  0  0  0  0
  141.9028   70.7268  221.9542 H   0  0  0  0  0  0  0  0  0  0  0  0
  1  2  1  0
  2  3  1  0
  3  4  2  0
  3  5  1  0
  5  6  1  0
  6  7  2  0
  7  8  1  0
  8  9  2  0
  9 10  1  0
 10 11  2  0
  5 12  1  0
 12 13  1  0
 13 14  1  0
 14 15  1  0
 15 16  1  0
 16 17  2  0
 16 18  1  0
 18 19  1  0
 19 20  1  0
 19 21  1  0
 21 22  1  0
 22 23  2  0
 23 24  1  0
 24 25  2  0
 25 26  1  0
 26 27  2  0
 21 28  1  0
 28 29  2  0
 29 30  1  0
 30 31  2  0
 31 32  1  0
 32 33  2  0
 15 34  1  0
 34 35  1  0
 11  6  1  0
 35 12  1  0
 27 22  1  0
 33 28  1  0
  1 36  1  0
  1 37  1  0
  1 38  1  0
  2 39  1  0
  2 40  1  0
  7 41  1  0
  8 42  1  0
  9 43  1  0
 10 44  1  0
 11 45  1  0
 12 46  1  0
 13 47  1  0
 13 48  1  0
 14 49  1  0
 14 50  1  0
 18 51  1  0
 18 52  1  0
 19 53  1  1
 20 54  1  0
 20 55  1  0
 21 56  1  0
 23 57  1  0
 24 58  1  0
 25 59  1  0
 26 60  1  0
 27 61  1  0
 29 62  1  0
 30 63  1  0
 31 64  1  0
 32 65  1  0
 33 66  1  0
 34 67  1  0
 34 68  1  0
 35 69  1  0
 35 70  1  0
M  END
>  <smiles>  (60) 
CCC(=O)N(c1ccccc1)C1CCN(C(=O)CC(N)C(c2ccccc2)c2ccccc2)CC1

>  <score_type>  (60) 
oracle

>  <origin>  (60) 
autodockgpu

>  <m_score__min__energy>  (60) 
-8.6099999999999994

>  <m_primary>  (60) 
energy

>  <rmsd>  (60) 
9.915719830441658

>  <m_score__min__rmsd>  (60) 
9.915719830441658

>  <meeko>  (60) 
{"free_energy": -8.41, "intermolecular_energy": -11.39, "internal_energy": -2.59, "cluster_size": 40, "cluster_id": 1, "rank_in_cluster": 14}

>  <energy>  (60) 
-8.51

>  <cluster_rmsd>  (60) 
1.04

>  <cluster>  (60) 
1

$$$$

     RDKit          3D

 70 73  0  0  0  0  0  0  0  0999 V2000
  136.5060   69.5930  224.5450 C   0  0  0  0  0  0  0  0  0  0  0  0
  137.2580   68.7380  223.5510 C   0  0  0  0  0  0  0  0  0  0  0  0
  138.6940   68.6100  223.9020 C   0  0  0  0  0  0  0  0  0  0  0  0
  139.1490   67.4320  223.9720 O   0  0  0  0  0  0  0  0  0  0  0  0
  139.5440   69.7170  224.1560 N   0  0  0  0  0  0  0  0  0  0  0  0
  140.0360   69.8560  225.4860 C   0  0  0  0  0  0  0  0  0  0  0  0
  139.9070   68.7270  226.3010 C   0  0  0  0  0  0  0  0  0  0  0  0
  140.3580   68.7630  227.6210 C   0  0  0  0  0  0  0  0  0  0  0  0
  140.9280   69.9070  228.1210 C   0  0  0  0  0  0  0  0  0  0  0  0
  141.0540   71.0260  227.3090 C   0  0  0  0  0  0  0  0  0  0  0  0
  140.6060   71.0050  225.9770 C   0  0  0  0  0  0  0  0  0  0  0  0
  139.8590   70.6220  223.0860 C   0  0  0  0  0  0  0  0  0  0  0  0
  139.0580   71.8820  223.3090 C   0  0  0  0  0  0  0  0  0  0  0  0
  138.4790   72.3000  221.9770 C   0  0  0  0  0  0  0  0  0  0  0  0
  139.5960   72.3740  221.0550 N   0  0  0  0  0  0  0  0  0  0  0  0
  140.0650   73.6180  220.5060 C   0  0  0  0  0  0  0  0  0  0  0  0
  141.0330   73.5450  219.7280 O   0  0  0  0  0  0  0  0  0  0  0  0
  139.3520   74.8320  220.9240 C   0  0  0  0  0  0  0  0  0  0  0  0
  140.2690   75.7980  221.5830 C   0  0  1  0  0  0  0  0  0  0  0  0
  141.4480   75.0310  222.0000 N   0  0  0  0  0  0  0  0  0  0  0  0
  140.6710   76.9830  220.7600 C   0  0  0  0  0  0  0  0  0  0  0  0
  141.1830   78.0430  221.7020 C   0  0  0  0  0  0  0  0  0  0  0  0
  141.0530   77.9290  223.0730 C   0  0  0  0  0  0  0  0  0  0  0  0
  141.4980   78.8820  223.9640 C   0  0  0  0  0  0  0  0  0  0  0  0
  142.1150   80.0280  223.4800 C   0  0  0  0  0  0  0  0  0  0  0  0
  142.2630   80.1770  222.1190 C   0  0  0  0  0  0  0  0  0  0  0  0
  141.7970   79.1900  221.2370 C   0  0  0  0  0  0  0  0  0  0  0  0
  141.5540   76.7240  219.6300 C   0  0  0  0  0  0  0  0  0  0  0  0
  142.8750   76.3370  219.7150 C   0  0  0  0  0  0  0  0  0  0  0  0
  143.6750   76.0970  218.6200 C   0  0  0  0  0  0  0  0  0  0  0  0
  143.1710   76.2400  217.3540 C   0  0  0  0  0  0  0  0  0  0  0  0
  141.8560   76.6270  217.2240 C   0  0  0  0  0  0  0  0  0  0  0  0
  141.0570   76.8660  218.3230 C   0  0  0  0  0  0  0  0  0  0  0  0
  140.2250   71.0980  220.7130 C   0  0  0  0  0  0  0  0  0  0  0  0
  139.7070   70.0410  221.7050 C   0  0  0  0  0  0  0  0  0  0  0  0
  136.7740   69.2883  225.5674 H   0  0  0  0  0  0  0  0  0  0  0  0
  136.7728   70.6496  224.3955 H   0  0  0  0  0  0  0  0  0  0  0  0
  135.4239   69.4633  224.3955 H   0  0  0  0  0  0  0  0  0  0  0  0
  136.8063   67.7352  223.5319 H   0  0  0  0  0  0  0  0  0  0  0  0
  137.1910   69.2235  222.5662 H   0  0  0  0  0  0  0  0  0  0  0  0
  139.4497   67.8099  225.9012 H   0  0  0  0  0  0  0  0  0  0  0  0
  140.2567   67.8742  228.2611 H   0  0  0  0  0  0  0  0  0  0  0  0
  141.2837   69.9372  229.1615 H   0  0  0  0  0  0  0  0  0  0  0  0
  141.5106   71.9413  227.7136 H   0  0  0  0  0  0  0  0  0  0  0  0
  140.7102   71.8944  225.3382 H   0  0  0  0  0  0  0  0  0  0  0  0
  140.9344   70.8511  223.1168 H   0  0  0  0  0  0  0  0  0  0  0  0
  138.2466   71.6882  224.0260 H   0  0  0  0  0  0  0  0  0  0  0  0
  139.6977   72.6780  223.7179 H   0  0  0  0  0  0  0  0  0  0  0  0
  137.7465   71.5566  221.6296 H   0  0  0  0  0  0  0  0  0  0  0  0
  137.9571   73.2654  222.0523 H   0  0  0  0  0  0  0  0  0  0  0  0
  138.9062   75.3084  220.0384 H   0  0  0  0  0  0  0  0  0  0  0  0
  138.5731   74.5455  221.6459 H   0  0  0  0  0  0  0  0  0  0  0  0
  139.7277   76.2520  222.4261 H   0  0  0  0  0  0  0  0  0  0  0  0
  141.9010   74.6730  221.1340 H   0  0  0  0  0  0  0  0  0  0  0  0
  142.1340   75.6490  222.4650 H   0  0  0  0  0  0  0  0  0  0  0  0
  139.7732   77.3355  220.2311 H   0  0  0  0  0  0  0  0  0  0  0  0
  140.5675   77.0278  223.4757 H   0  0  0  0  0  0  0  0  0  0  0  0
  141.3658   78.7363  225.0463 H   0  0  0  0  0  0  0  0  0  0  0  0
  142.4789   80.8026  224.1711 H   0  0  0  0  0  0  0  0  0  0  0  0
  142.7511   81.0782  221.7195 H   0  0  0  0  0  0  0  0  0  0  0  0
  141.9231   79.3324  220.1536 H   0  0  0  0  0  0  0  0  0  0  0  0
  143.3152   76.2128  220.7154 H   0  0  0  0  0  0  0  0  0  0  0  0
  144.7216   75.7896  218.7622 H   0  0  0  0  0  0  0  0  0  0  0  0
  143.7971   76.0516  216.4694 H   0  0  0  0  0  0  0  0  0  0  0  0
  141.4311   76.7489  216.2167 H   0  0  0  0  0  0  0  0  0  0  0  0
  140.0115   77.1734  218.1736 H   0  0  0  0  0  0  0  0  0  0  0  0
  139.9564   70.8112  219.6856 H   0  0  0  0  0  0  0  0  0  0  0  0
  141.3203   71.1796  220.7735 H   0  0  0  0  0  0  0  0  0  0  0  0
  138.6487   69.8195  221.5027 H   0  0  0  0  0  0  0  0  0  0  0  0
  140.2724   69.1023  221.6094 H   0  0  0  0  0  0  0  0  0  0  0  0
  1  2  1  0
  2  3  1  0
  3  4  2  0
  3  5  1  0
  5  6  1  0
  6  7  2  0
  7  8  1  0
  8  9  2  0
  9 10  1  0
 10 11  2  0
  5 12  1  0
 12 13  1  0
 13 14  1  0
 14 15  1  0
 15 16  1  0
 16 17  2  0
 16 18  1  0
 18 19  1  0
 19 20  1  0
 19 21  1  0
 21 22  1  0
 22 23  2  0
 23 24  1  0
 24 25  2  0
 25 26  1  0
 26 27  2  0
 21 28  1  0
 28 29  2  0
 29 30  1  0
 30 31  2  0
 31 32  1  0
 32 33  2  0
 15 34  1  0
 34 35  1  0
 11  6  1  0
 35 12  1  0
 27 22  1  0
 33 28  1  0
  1 36  1  0
  1 37  1  0
  1 38  1  0
  2 39  1  0
  2 40  1  0
  7 41  1  0
  8 42  1  0
  9 43  1  0
 10 44  1  0
 11 45  1  0
 12 46  1  0
 13 47  1  0
 13 48  1  0
 14 49  1  0
 14 50  1  0
 18 51  1  0
 18 52  1  0
 19 53  1  1
 20 54  1  0
 20 55  1  0
 21 56  1  0
 23 57  1  0
 24 58  1  0
 25 59  1  0
 26 60  1  0
 27 61  1  0
 29 62  1  0
 30 63  1  0
 31 64  1  0
 32 65  1  0
 33 66  1  0
 34 67  1  0
 34 68  1  0
 35 69  1  0
 35 70  1  0
M  END
>  <smiles>  (61) 
CCC(=O)N(c1ccccc1)C1CCN(C(=O)CC(N)C(c2ccccc2)c2ccccc2)CC1

>  <score_type>  (61) 
oracle

>  <origin>  (61) 
autodockgpu

>  <m_score__min__energy>  (61) 
-8.6099999999999994

>  <m_primary>  (61) 
energy

>  <rmsd>  (61) 
8.061579366926685

>  <m_score__min__rmsd>  (61) 
8.061579366926685

>  <meeko>  (61) 
{"free_energy": -8.43, "intermolecular_energy": -11.41, "internal_energy": -2.86, "cluster_size": 40, "cluster_id": 1, "rank_in_cluster": 13}

>  <energy>  (61) 
-8.49

>  <cluster_rmsd>  (61) 
1.39

>  <cluster>  (61) 
1

$$$$

     RDKit          3D

 70 73  0  0  0  0  0  0  0  0999 V2000
  136.5060   68.1390  222.6960 C   0  0  0  0  0  0  0  0  0  0  0  0
  137.4620   69.3060  222.6110 C   0  0  0  0  0  0  0  0  0  0  0  0
  138.6450   69.1210  223.4880 C   0  0  0  0  0  0  0  0  0  0  0  0
  138.8680   67.9410  223.8820 O   0  0  0  0  0  0  0  0  0  0  0  0
  139.5000   70.1800  223.8870 N   0  0  0  0  0  0  0  0  0  0  0  0
  139.8050   70.2670  225.2770 C   0  0  0  0  0  0  0  0  0  0  0  0
  140.6850   71.2890  225.6430 C   0  0  0  0  0  0  0  0  0  0  0  0
  141.0460   71.4560  226.9800 C   0  0  0  0  0  0  0  0  0  0  0  0
  140.5370   70.6160  227.9380 C   0  0  0  0  0  0  0  0  0  0  0  0
  139.6630   69.6020  227.5720 C   0  0  0  0  0  0  0  0  0  0  0  0
  139.2900   69.4220  226.2290 C   0  0  0  0  0  0  0  0  0  0  0  0
  140.0060   71.0880  222.8970 C   0  0  0  0  0  0  0  0  0  0  0  0
  139.0600   72.2640  222.8370 C   0  0  0  0  0  0  0  0  0  0  0  0
  138.8250   72.5890  221.3800 C   0  0  0  0  0  0  0  0  0  0  0  0
  140.1370   72.7590  220.7860 N   0  0  0  0  0  0  0  0  0  0  0  0
  140.6170   74.0320  220.3200 C   0  0  0  0  0  0  0  0  0  0  0  0
  141.7610   74.0420  219.8310 O   0  0  0  0  0  0  0  0  0  0  0  0
  139.7070   75.1740  220.4740 C   0  0  0  0  0  0  0  0  0  0  0  0
  140.2790   76.2020  221.3820 C   0  0  1  0  0  0  0  0  0  0  0  0
  141.4600   75.5940  222.0050 N   0  0  0  0  0  0  0  0  0  0  0  0
  140.6300   77.5130  220.7470 C   0  0  0  0  0  0  0  0  0  0  0  0
  141.2110   78.4000  221.8180 C   0  0  0  0  0  0  0  0  0  0  0  0
  140.8810   78.2510  223.1510 C   0  0  0  0  0  0  0  0  0  0  0  0
  141.3850   79.0490  224.1560 C   0  0  0  0  0  0  0  0  0  0  0  0
  142.2730   80.0660  223.8340 C   0  0  0  0  0  0  0  0  0  0  0  0
  142.6250   80.2460  222.5150 C   0  0  0  0  0  0  0  0  0  0  0  0
  142.0960   79.4180  221.5150 C   0  0  0  0  0  0  0  0  0  0  0  0
  141.4320   77.4560  219.5310 C   0  0  0  0  0  0  0  0  0  0  0  0
  142.6110   76.7570  219.3790 C   0  0  0  0  0  0  0  0  0  0  0  0
  143.3360   76.7250  218.2080 C   0  0  0  0  0  0  0  0  0  0  0  0
  142.8980   77.4120  217.1070 C   0  0  0  0  0  0  0  0  0  0  0  0
  141.7250   78.1240  217.2170 C   0  0  0  0  0  0  0  0  0  0  0  0
  141.0000   78.1540  218.3900 C   0  0  0  0  0  0  0  0  0  0  0  0
  140.9500   71.5470  220.6860 C   0  0  0  0  0  0  0  0  0  0  0  0
  140.2860   70.4650  221.5560 C   0  0  0  0  0  0  0  0  0  0  0  0
  136.3110   67.9009  223.7521 H   0  0  0  0  0  0  0  0  0  0  0  0
  135.5607   68.4024  222.1989 H   0  0  0  0  0  0  0  0  0  0  0  0
  136.9503   67.2641  222.1989 H   0  0  0  0  0  0  0  0  0  0  0  0
  137.8040   69.4098  221.5707 H   0  0  0  0  0  0  0  0  0  0  0  0
  136.9282   70.2075  222.9464 H   0  0  0  0  0  0  0  0  0  0  0  0
  141.0936   71.9628  224.8756 H   0  0  0  0  0  0  0  0  0  0  0  0
  141.7387   72.2611  227.2662 H   0  0  0  0  0  0  0  0  0  0  0  0
  140.8208   70.7458  228.9928 H   0  0  0  0  0  0  0  0  0  0  0  0
  139.2570   68.9306  228.3429 H   0  0  0  0  0  0  0  0  0  0  0  0
  138.5964   68.6169  225.9449 H   0  0  0  0  0  0  0  0  0  0  0  0
  141.0073   71.4264  223.2016 H   0  0  0  0  0  0  0  0  0  0  0  0
  138.1073   72.0039  223.3215 H   0  0  0  0  0  0  0  0  0  0  0  0
  139.4883   73.1309  223.3615 H   0  0  0  0  0  0  0  0  0  0  0  0
  138.2874   71.7653  220.8876 H   0  0  0  0  0  0  0  0  0  0  0  0
  138.2129   73.4958  221.2655 H   0  0  0  0  0  0  0  0  0  0  0  0
  139.5297   75.6264  219.4871 H   0  0  0  0  0  0  0  0  0  0  0  0
  138.7650   74.8107  220.9107 H   0  0  0  0  0  0  0  0  0  0  0  0
  139.5001   76.4772  222.1084 H   0  0  0  0  0  0  0  0  0  0  0  0
  142.2120   75.5820  221.2850 H   0  0  0  0  0  0  0  0  0  0  0  0
  141.7990   76.1820  222.7850 H   0  0  0  0  0  0  0  0  0  0  0  0
  139.6999   77.9446  220.3488 H   0  0  0  0  0  0  0  0  0  0  0  0
  140.1772   77.4515  223.4259 H   0  0  0  0  0  0  0  0  0  0  0  0
  141.0867   78.8816  225.2015 H   0  0  0  0  0  0  0  0  0  0  0  0
  142.6880   80.7163  224.6182 H   0  0  0  0  0  0  0  0  0  0  0  0
  143.3281   81.0472  222.2433 H   0  0  0  0  0  0  0  0  0  0  0  0
  142.3911   79.5816  220.4680 H   0  0  0  0  0  0  0  0  0  0  0  0
  142.9944   76.1928  220.2420 H   0  0  0  0  0  0  0  0  0  0  0  0
  144.2698   76.1458  218.1570 H   0  0  0  0  0  0  0  0  0  0  0  0
  143.4655   77.3953  216.1648 H   0  0  0  0  0  0  0  0  0  0  0  0
  141.3557   78.6844  216.3455 H   0  0  0  0  0  0  0  0  0  0  0  0
  140.0668   78.7347  218.4333 H   0  0  0  0  0  0  0  0  0  0  0  0
  140.9946   71.2111  219.6395 H   0  0  0  0  0  0  0  0  0  0  0  0
  141.9763   71.7421  221.0304 H   0  0  0  0  0  0  0  0  0  0  0  0
  139.3466   70.1308  221.0914 H   0  0  0  0  0  0  0  0  0  0  0  0
  140.9421   69.5883  221.6602 H   0  0  0  0  0  0  0  0  0  0  0  0
  1  2  1  0
  2  3  1  0
  3  4  2  0
  3  5  1  0
  5  6  1  0
  6  7  2  0
  7  8  1  0
  8  9  2  0
  9 10  1  0
 10 11  2  0
  5 12  1  0
 12 13  1  0
 13 14  1  0
 14 15  1  0
 15 16  1  0
 16 17  2  0
 16 18  1  0
 18 19  1  0
 19 20  1  0
 19 21  1  0
 21 22  1  0
 22 23  2  0
 23 24  1  0
 24 25  2  0
 25 26  1  0
 26 27  2  0
 21 28  1  0
 28 29  2  0
 29 30  1  0
 30 31  2  0
 31 32  1  0
 32 33  2  0
 15 34  1  0
 34 35  1  0
 11  6  1  0
 35 12  1  0
 27 22  1  0
 33 28  1  0
  1 36  1  0
  1 37  1  0
  1 38  1  0
  2 39  1  0
  2 40  1  0
  7 41  1  0
  8 42  1  0
  9 43  1  0
 10 44  1  0
 11 45  1  0
 12 46  1  0
 13 47  1  0
 13 48  1  0
 14 49  1  0
 14 50  1  0
 18 51  1  0
 18 52  1  0
 19 53  1  1
 20 54  1  0
 20 55  1  0
 21 56  1  0
 23 57  1  0
 24 58  1  0
 25 59  1  0
 26 60  1  0
 27 61  1  0
 29 62  1  0
 30 63  1  0
 31 64  1  0
 32 65  1  0
 33 66  1  0
 34 67  1  0
 34 68  1  0
 35 69  1  0
 35 70  1  0
M  END
>  <smiles>  (62) 
CCC(=O)N(c1ccccc1)C1CCN(C(=O)CC(N)C(c2ccccc2)c2ccccc2)CC1

>  <score_type>  (62) 
oracle

>  <origin>  (62) 
autodockgpu

>  <m_score__min__energy>  (62) 
-8.6099999999999994

>  <m_primary>  (62) 
energy

>  <rmsd>  (62) 
8.208178834938115

>  <m_score__min__rmsd>  (62) 
8.208178834938115

>  <meeko>  (62) 
{"free_energy": -8.54, "intermolecular_energy": -11.52, "internal_energy": -2.66, "cluster_size": 40, "cluster_id": 1, "rank_in_cluster": 7}

>  <energy>  (62) 
-8.43

>  <cluster_rmsd>  (62) 
1.39

>  <cluster>  (62) 
1

$$$$

     RDKit          3D

 70 73  0  0  0  0  0  0  0  0999 V2000
  136.4930   70.0730  224.3310 C   0  0  0  0  0  0  0  0  0  0  0  0
  137.1750   70.9890  223.3410 C   0  0  0  0  0  0  0  0  0  0  0  0
  138.5550   70.5420  223.0290 C   0  0  0  0  0  0  0  0  0  0  0  0
  138.6580   69.5470  222.2550 O   0  0  0  0  0  0  0  0  0  0  0  0
  139.7190   71.1630  223.5490 N   0  0  0  0  0  0  0  0  0  0  0  0
  140.0500   70.8710  224.9040 C   0  0  0  0  0  0  0  0  0  0  0  0
  140.7250   71.8810  225.5960 C   0  0  0  0  0  0  0  0  0  0  0  0
  141.0930   71.6900  226.9280 C   0  0  0  0  0  0  0  0  0  0  0  0
  140.7930   70.5100  227.5610 C   0  0  0  0  0  0  0  0  0  0  0  0
  140.1220   69.5090  226.8710 C   0  0  0  0  0  0  0  0  0  0  0  0
  139.7440   69.6870  225.5300 C   0  0  0  0  0  0  0  0  0  0  0  0
  140.4880   72.0340  222.7060 C   0  0  0  0  0  0  0  0  0  0  0  0
  139.6180   73.2210  222.3670 C   0  0  0  0  0  0  0  0  0  0  0  0
  139.7850   73.5060  220.8920 C   0  0  0  0  0  0  0  0  0  0  0  0
  141.2100   73.6380  220.6640 N   0  0  0  0  0  0  0  0  0  0  0  0
  141.8250   74.8900  220.3100 C   0  0  0  0  0  0  0  0  0  0  0  0
  143.0570   74.8690  220.1420 O   0  0  0  0  0  0  0  0  0  0  0  0
  140.9320   76.0480  220.1870 C   0  0  0  0  0  0  0  0  0  0  0  0
  141.5640   77.2780  220.7320 C   0  0  1  0  0  0  0  0  0  0  0  0
  142.5620   77.7040  219.7440 N   0  0  0  0  0  0  0  0  0  0  0  0
  140.6310   78.4030  221.0610 C   0  0  0  0  0  0  0  0  0  0  0  0
  139.3260   77.7990  221.5160 C   0  0  0  0  0  0  0  0  0  0  0  0
  139.2440   76.9940  222.6360 C   0  0  0  0  0  0  0  0  0  0  0  0
  138.0720   76.4170  223.0760 C   0  0  0  0  0  0  0  0  0  0  0  0
  136.8980   76.6420  222.3710 C   0  0  0  0  0  0  0  0  0  0  0  0
  136.9410   77.4390  221.2490 C   0  0  0  0  0  0  0  0  0  0  0  0
  138.1490   78.0130  220.8250 C   0  0  0  0  0  0  0  0  0  0  0  0
  141.1430   79.4370  221.9530 C   0  0  0  0  0  0  0  0  0  0  0  0
  140.8630   80.7850  221.8640 C   0  0  0  0  0  0  0  0  0  0  0  0
  141.3640   81.7290  222.7310 C   0  0  0  0  0  0  0  0  0  0  0  0
  142.1930   81.3540  223.7560 C   0  0  0  0  0  0  0  0  0  0  0  0
  142.4990   80.0170  223.8800 C   0  0  0  0  0  0  0  0  0  0  0  0
  141.9950   79.0720  223.0100 C   0  0  0  0  0  0  0  0  0  0  0  0
  141.9950   72.4120  220.8140 C   0  0  0  0  0  0  0  0  0  0  0  0
  141.1010   71.3660  221.5030 C   0  0  0  0  0  0  0  0  0  0  0  0
  136.7332   70.3957  225.3548 H   0  0  0  0  0  0  0  0  0  0  0  0
  135.4043   70.1147  224.1794 H   0  0  0  0  0  0  0  0  0  0  0  0
  136.8451   69.0420  224.1794 H   0  0  0  0  0  0  0  0  0  0  0  0
  136.5884   71.0061  222.4106 H   0  0  0  0  0  0  0  0  0  0  0  0
  137.2362   71.9907  223.7915 H   0  0  0  0  0  0  0  0  0  0  0  0
  140.9662   72.8273  225.0896 H   0  0  0  0  0  0  0  0  0  0  0  0
  141.6239   72.4857  227.4711 H   0  0  0  0  0  0  0  0  0  0  0  0
  141.0830   70.3576  228.6111 H   0  0  0  0  0  0  0  0  0  0  0  0
  139.8833   68.5642  227.3814 H   0  0  0  0  0  0  0  0  0  0  0  0
  139.2113   68.8908  224.9894 H   0  0  0  0  0  0  0  0  0  0  0  0
  141.3794   72.3682  223.2571 H   0  0  0  0  0  0  0  0  0  0  0  0
  138.5655   72.9892  222.5871 H   0  0  0  0  0  0  0  0  0  0  0  0
  139.9109   74.0969  222.9645 H   0  0  0  0  0  0  0  0  0  0  0  0
  139.3787   72.6762  220.2950 H   0  0  0  0  0  0  0  0  0  0  0  0
  139.2458   74.4182  220.5967 H   0  0  0  0  0  0  0  0  0  0  0  0
  140.6960   76.2071  219.1245 H   0  0  0  0  0  0  0  0  0  0  0  0
  140.0172   75.8435  220.7627 H   0  0  0  0  0  0  0  0  0  0  0  0
  142.0019   77.0236  221.7085 H   0  0  0  0  0  0  0  0  0  0  0  0
  142.8830   78.6540  220.0250 H   0  0  0  0  0  0  0  0  0  0  0  0
  143.3880   77.0850  219.7770 H   0  0  0  0  0  0  0  0  0  0  0  0
  140.4870   78.9894  220.1415 H   0  0  0  0  0  0  0  0  0  0  0  0
  140.1642   76.8032  223.2077 H   0  0  0  0  0  0  0  0  0  0  0  0
  138.0674   75.7850  223.9763 H   0  0  0  0  0  0  0  0  0  0  0  0
  135.9506   76.1919  222.7024 H   0  0  0  0  0  0  0  0  0  0  0  0
  136.0190   77.6276  220.6794 H   0  0  0  0  0  0  0  0  0  0  0  0
  138.1591   78.6455  219.9251 H   0  0  0  0  0  0  0  0  0  0  0  0
  140.2014   81.1247  221.0535 H   0  0  0  0  0  0  0  0  0  0  0  0
  141.0981   82.7884  222.6009 H   0  0  0  0  0  0  0  0  0  0  0  0
  142.6008   82.0971  224.4571 H   0  0  0  0  0  0  0  0  0  0  0  0
  143.1633   79.6936  224.6949 H   0  0  0  0  0  0  0  0  0  0  0  0
  142.2647   78.0143  223.1459 H   0  0  0  0  0  0  0  0  0  0  0  0
  142.3084   72.0444  219.8257 H   0  0  0  0  0  0  0  0  0  0  0  0
  142.8972   72.6029  221.4136 H   0  0  0  0  0  0  0  0  0  0  0  0
  140.3118   71.0309  220.8139 H   0  0  0  0  0  0  0  0  0  0  0  0
  141.6868   70.4836  221.8001 H   0  0  0  0  0  0  0  0  0  0  0  0
  1  2  1  0
  2  3  1  0
  3  4  2  0
  3  5  1  0
  5  6  1  0
  6  7  2  0
  7  8  1  0
  8  9  2  0
  9 10  1  0
 10 11  2  0
  5 12  1  0
 12 13  1  0
 13 14  1  0
 14 15  1  0
 15 16  1  0
 16 17  2  0
 16 18  1  0
 18 19  1  0
 19 20  1  0
 19 21  1  0
 21 22  1  0
 22 23  2  0
 23 24  1  0
 24 25  2  0
 25 26  1  0
 26 27  2  0
 21 28  1  0
 28 29  2  0
 29 30  1  0
 30 31  2  0
 31 32  1  0
 32 33  2  0
 15 34  1  0
 34 35  1  0
 11  6  1  0
 35 12  1  0
 27 22  1  0
 33 28  1  0
  1 36  1  0
  1 37  1  0
  1 38  1  0
  2 39  1  0
  2 40  1  0
  7 41  1  0
  8 42  1  0
  9 43  1  0
 10 44  1  0
 11 45  1  0
 12 46  1  0
 13 47  1  0
 13 48  1  0
 14 49  1  0
 14 50  1  0
 18 51  1  0
 18 52  1  0
 19 53  1  1
 20 54  1  0
 20 55  1  0
 21 56  1  0
 23 57  1  0
 24 58  1  0
 25 59  1  0
 26 60  1  0
 27 61  1  0
 29 62  1  0
 30 63  1  0
 31 64  1  0
 32 65  1  0
 33 66  1  0
 34 67  1  0
 34 68  1  0
 35 69  1  0
 35 70  1  0
M  END
>  <smiles>  (63) 
CCC(=O)N(c1ccccc1)C1CCN(C(=O)CC(N)C(c2ccccc2)c2ccccc2)CC1

>  <score_type>  (63) 
oracle

>  <origin>  (63) 
autodockgpu

>  <m_score__min__energy>  (63) 
-8.6099999999999994

>  <m_primary>  (63) 
energy

>  <rmsd>  (63) 
8.02629292826988

>  <m_score__min__rmsd>  (63) 
8.02629292826988

>  <meeko>  (63) 
{"free_energy": -8.06, "intermolecular_energy": -11.04, "internal_energy": -3.09, "cluster_size": 40, "cluster_id": 1, "rank_in_cluster": 26}

>  <energy>  (63) 
-8.43

>  <cluster_rmsd>  (63) 
0.74

>  <cluster>  (63) 
1

$$$$

     RDKit          3D

 70 73  0  0  0  0  0  0  0  0999 V2000
  136.6220   70.5240  224.2530 C   0  0  0  0  0  0  0  0  0  0  0  0
  137.2800   69.2370  223.8090 C   0  0  0  0  0  0  0  0  0  0  0  0
  138.6860   69.1430  224.2750 C   0  0  0  0  0  0  0  0  0  0  0  0
  139.0890   67.9900  224.6040 O   0  0  0  0  0  0  0  0  0  0  0  0
  139.5620   70.2560  224.3630 N   0  0  0  0  0  0  0  0  0  0  0  0
  139.9780   70.6400  225.6700 C   0  0  0  0  0  0  0  0  0  0  0  0
  139.5560   69.8090  226.7120 C   0  0  0  0  0  0  0  0  0  0  0  0
  139.9110   70.1020  228.0280 C   0  0  0  0  0  0  0  0  0  0  0  0
  140.6770   71.2070  228.3030 C   0  0  0  0  0  0  0  0  0  0  0  0
  141.0950   72.0310  227.2670 C   0  0  0  0  0  0  0  0  0  0  0  0
  140.7460   71.7480  225.9350 C   0  0  0  0  0  0  0  0  0  0  0  0
  139.9750   70.9220  223.1610 C   0  0  0  0  0  0  0  0  0  0  0  0
  139.1800   72.2020  223.0570 C   0  0  0  0  0  0  0  0  0  0  0  0
  138.7150   72.3390  221.6250 C   0  0  0  0  0  0  0  0  0  0  0  0
  139.9030   72.2230  220.8010 N   0  0  0  0  0  0  0  0  0  0  0  0
  140.4340   73.3290  220.0500 C   0  0  0  0  0  0  0  0  0  0  0  0
  141.4580   73.0980  219.3830 O   0  0  0  0  0  0  0  0  0  0  0  0
  139.7100   74.6020  220.1530 C   0  0  0  0  0  0  0  0  0  0  0  0
  140.2720   75.4580  221.2300 C   0  0  1  0  0  0  0  0  0  0  0  0
  141.7300   75.4330  221.0590 N   0  0  0  0  0  0  0  0  0  0  0  0
  139.7680   76.8670  221.2760 C   0  0  0  0  0  0  0  0  0  0  0  0
  138.4360   76.8560  221.9810 C   0  0  0  0  0  0  0  0  0  0  0  0
  137.7340   78.0180  222.2390 C   0  0  0  0  0  0  0  0  0  0  0  0
  136.5190   78.0470  222.8900 C   0  0  0  0  0  0  0  0  0  0  0  0
  135.9500   76.8560  223.3200 C   0  0  0  0  0  0  0  0  0  0  0  0
  136.6210   75.6770  223.0820 C   0  0  0  0  0  0  0  0  0  0  0  0
  137.8570   75.6790  222.4170 C   0  0  0  0  0  0  0  0  0  0  0  0
  140.6920   77.8760  221.7810 C   0  0  0  0  0  0  0  0  0  0  0  0
  141.2550   78.8930  221.0380 C   0  0  0  0  0  0  0  0  0  0  0  0
  142.1210   79.8300  221.5560 C   0  0  0  0  0  0  0  0  0  0  0  0
  142.4710   79.7870  222.8800 C   0  0  0  0  0  0  0  0  0  0  0  0
  141.9320   78.7860  223.6570 C   0  0  0  0  0  0  0  0  0  0  0  0
  141.0640   77.8490  223.1360 C   0  0  0  0  0  0  0  0  0  0  0  0
  140.5350   70.9040  220.7780 C   0  0  0  0  0  0  0  0  0  0  0  0
  139.9240   70.0720  221.9190 C   0  0  0  0  0  0  0  0  0  0  0  0
  136.6011   70.5649  225.3520 H   0  0  0  0  0  0  0  0  0  0  0  0
  137.1928   71.3805  223.8650 H   0  0  0  0  0  0  0  0  0  0  0  0
  135.5934   70.5628  223.8650 H   0  0  0  0  0  0  0  0  0  0  0  0
  136.7125   68.3882  224.2183 H   0  0  0  0  0  0  0  0  0  0  0  0
  137.2842   69.2189  222.7092 H   0  0  0  0  0  0  0  0  0  0  0  0
  138.9428   68.9224  226.4932 H   0  0  0  0  0  0  0  0  0  0  0  0
  139.5770   69.4472  228.8463 H   0  0  0  0  0  0  0  0  0  0  0  0
  140.9588   71.4389  229.3407 H   0  0  0  0  0  0  0  0  0  0  0  0
  141.7073   72.9169  227.4913 H   0  0  0  0  0  0  0  0  0  0  0  0
  141.0824   72.4032  225.1179 H   0  0  0  0  0  0  0  0  0  0  0  0
  141.0485   71.1513  223.2318 H   0  0  0  0  0  0  0  0  0  0  0  0
  138.3114   72.1593  223.7305 H   0  0  0  0  0  0  0  0  0  0  0  0
  139.7988   73.0645  223.3454 H   0  0  0  0  0  0  0  0  0  0  0  0
  138.0002   71.5402  221.3781 H   0  0  0  0  0  0  0  0  0  0  0  0
  138.2045   73.2992  221.4594 H   0  0  0  0  0  0  0  0  0  0  0  0
  139.7864   75.1361  219.1944 H   0  0  0  0  0  0  0  0  0  0  0  0
  138.6592   74.3848  220.3953 H   0  0  0  0  0  0  0  0  0  0  0  0
  139.9411   75.0440  222.1939 H   0  0  0  0  0  0  0  0  0  0  0  0
  142.1450   75.8070  221.9380 H   0  0  0  0  0  0  0  0  0  0  0  0
  142.0640   74.4610  220.9570 H   0  0  0  0  0  0  0  0  0  0  0  0
  139.6533   77.2075  220.2363 H   0  0  0  0  0  0  0  0  0  0  0  0
  138.1685   78.9724  221.9067 H   0  0  0  0  0  0  0  0  0  0  0  0
  136.0059   79.0038  223.0668 H   0  0  0  0  0  0  0  0  0  0  0  0
  134.9813   76.8539  223.8411 H   0  0  0  0  0  0  0  0  0  0  0  0
  136.1840   74.7245  223.4163 H   0  0  0  0  0  0  0  0  0  0  0  0
  138.3751   74.7251  222.2393 H   0  0  0  0  0  0  0  0  0  0  0  0
  140.9974   78.9592  219.9706 H   0  0  0  0  0  0  0  0  0  0  0  0
  142.5329   80.6152  220.9050 H   0  0  0  0  0  0  0  0  0  0  0  0
  143.1608   80.5288  223.3088 H   0  0  0  0  0  0  0  0  0  0  0  0
  142.2010   78.7321  224.7222 H   0  0  0  0  0  0  0  0  0  0  0  0
  140.6557   77.0667  223.7928 H   0  0  0  0  0  0  0  0  0  0  0  0
  140.3430   70.4134  219.8124 H   0  0  0  0  0  0  0  0  0  0  0  0
  141.6233   70.9962  220.9087 H   0  0  0  0  0  0  0  0  0  0  0  0
  138.8817   69.8130  221.6812 H   0  0  0  0  0  0  0  0  0  0  0  0
  140.4809   69.1343  222.0624 H   0  0  0  0  0  0  0  0  0  0  0  0
  1  2  1  0
  2  3  1  0
  3  4  2  0
  3  5  1  0
  5  6  1  0
  6  7  2  0
  7  8  1  0
  8  9  2  0
  9 10  1  0
 10 11  2  0
  5 12  1  0
 12 13  1  0
 13 14  1  0
 14 15  1  0
 15 16  1  0
 16 17  2  0
 16 18  1  0
 18 19  1  0
 19 20  1  0
 19 21  1  0
 21 22  1  0
 22 23  2  0
 23 24  1  0
 24 25  2  0
 25 26  1  0
 26 27  2  0
 21 28  1  0
 28 29  2  0
 29 30  1  0
 30 31  2  0
 31 32  1  0
 32 33  2  0
 15 34  1  0
 34 35  1  0
 11  6  1  0
 35 12  1  0
 27 22  1  0
 33 28  1  0
  1 36  1  0
  1 37  1  0
  1 38  1  0
  2 39  1  0
  2 40  1  0
  7 41  1  0
  8 42  1  0
  9 43  1  0
 10 44  1  0
 11 45  1  0
 12 46  1  0
 13 47  1  0
 13 48  1  0
 14 49  1  0
 14 50  1  0
 18 51  1  0
 18 52  1  0
 19 53  1  1
 20 54  1  0
 20 55  1  0
 21 56  1  0
 23 57  1  0
 24 58  1  0
 25 59  1  0
 26 60  1  0
 27 61  1  0
 29 62  1  0
 30 63  1  0
 31 64  1  0
 32 65  1  0
 33 66  1  0
 34 67  1  0
 34 68  1  0
 35 69  1  0
 35 70  1  0
M  END
>  <smiles>  (64) 
CCC(=O)N(c1ccccc1)C1CCN(C(=O)CC(N)C(c2ccccc2)c2ccccc2)CC1

>  <score_type>  (64) 
oracle

>  <origin>  (64) 
autodockgpu

>  <m_score__min__energy>  (64) 
-8.6099999999999994

>  <m_primary>  (64) 
energy

>  <rmsd>  (64) 
7.105462401767991

>  <m_score__min__rmsd>  (64) 
7.105462401767991

>  <meeko>  (64) 
{"free_energy": -8.19, "intermolecular_energy": -11.17, "internal_energy": -2.96, "cluster_size": 40, "cluster_id": 1, "rank_in_cluster": 19}

>  <energy>  (64) 
-8.41

>  <cluster_rmsd>  (64) 
1.39

>  <cluster>  (64) 
1

$$$$

     RDKit          3D

 70 73  0  0  0  0  0  0  0  0999 V2000
  142.9810   77.4460  216.8090 C   0  0  0  0  0  0  0  0  0  0  0  0
  143.6830   76.1440  217.1220 C   0  0  0  0  0  0  0  0  0  0  0  0
  142.7730   75.1620  217.7610 C   0  0  0  0  0  0  0  0  0  0  0  0
  142.0290   74.5000  216.9820 O   0  0  0  0  0  0  0  0  0  0  0  0
  142.7070   74.9470  219.1620 N   0  0  0  0  0  0  0  0  0  0  0  0
  143.8070   74.2660  219.7580 C   0  0  0  0  0  0  0  0  0  0  0  0
  143.8300   72.8790  219.5820 C   0  0  0  0  0  0  0  0  0  0  0  0
  144.8670   72.1220  220.1290 C   0  0  0  0  0  0  0  0  0  0  0  0
  145.8650   72.7380  220.8410 C   0  0  0  0  0  0  0  0  0  0  0  0
  145.8400   74.1160  221.0130 C   0  0  0  0  0  0  0  0  0  0  0  0
  144.8030   74.8920  220.4680 C   0  0  0  0  0  0  0  0  0  0  0  0
  141.5630   75.4160  219.8920 C   0  0  0  0  0  0  0  0  0  0  0  0
  141.4910   76.9140  219.7060 C   0  0  0  0  0  0  0  0  0  0  0  0
  141.1870   77.5290  221.0530 C   0  0  0  0  0  0  0  0  0  0  0  0
  139.9980   76.8600  221.5450 N   0  0  0  0  0  0  0  0  0  0  0  0
  138.7330   77.5310  221.6800 C   0  0  0  0  0  0  0  0  0  0  0  0
  137.7900   76.8440  222.1130 O   0  0  0  0  0  0  0  0  0  0  0  0
  138.6950   78.9470  221.2940 C   0  0  0  0  0  0  0  0  0  0  0  0
  137.8170   79.7310  222.2010 C   0  0  1  0  0  0  0  0  0  0  0  0
  136.5470   79.0010  222.2820 N   0  0  0  0  0  0  0  0  0  0  0  0
  138.3630   79.9990  223.5700 C   0  0  0  0  0  0  0  0  0  0  0  0
  139.8530   80.1880  223.4410 C   0  0  0  0  0  0  0  0  0  0  0  0
  140.7520   79.2480  223.9050 C   0  0  0  0  0  0  0  0  0  0  0  0
  142.1200   79.3900  223.8150 C   0  0  0  0  0  0  0  0  0  0  0  0
  142.6460   80.5340  223.2290 C   0  0  0  0  0  0  0  0  0  0  0  0
  141.7800   81.4950  222.7550 C   0  0  0  0  0  0  0  0  0  0  0  0
  140.3920   81.3210  222.8620 C   0  0  0  0  0  0  0  0  0  0  0  0
  137.7020   81.0440  224.3430 C   0  0  0  0  0  0  0  0  0  0  0  0
  137.4660   81.0090  225.7020 C   0  0  0  0  0  0  0  0  0  0  0  0
  136.8430   82.0220  226.3970 C   0  0  0  0  0  0  0  0  0  0  0  0
  136.4150   83.1460  225.7400 C   0  0  0  0  0  0  0  0  0  0  0  0
  136.6290   83.2200  224.3830 C   0  0  0  0  0  0  0  0  0  0  0  0
  137.2550   82.2050  223.6890 C   0  0  0  0  0  0  0  0  0  0  0  0
  140.1620   75.4500  221.8990 C   0  0  0  0  0  0  0  0  0  0  0  0
  141.5130   74.9800  221.3320 C   0  0  0  0  0  0  0  0  0  0  0  0
  142.7089   77.9507  217.7477 H   0  0  0  0  0  0  0  0  0  0  0  0
  143.6523   78.0935  216.2258 H   0  0  0  0  0  0  0  0  0  0  0  0
  142.0711   77.2410  216.2258 H   0  0  0  0  0  0  0  0  0  0  0  0
  144.0683   75.7142  216.1856 H   0  0  0  0  0  0  0  0  0  0  0  0
  144.4998   76.3591  217.8266 H   0  0  0  0  0  0  0  0  0  0  0  0
  143.0300   72.3841  219.0119 H   0  0  0  0  0  0  0  0  0  0  0  0
  144.8842   71.0311  219.9892 H   0  0  0  0  0  0  0  0  0  0  0  0
  146.6822   72.1425  221.2742 H   0  0  0  0  0  0  0  0  0  0  0  0
  146.6426   74.6064  221.5834 H   0  0  0  0  0  0  0  0  0  0  0  0
  144.7888   75.9830  220.6075 H   0  0  0  0  0  0  0  0  0  0  0  0
  140.6590   74.9425  219.4815 H   0  0  0  0  0  0  0  0  0  0  0  0
  142.4533   77.2917  219.3300 H   0  0  0  0  0  0  0  0  0  0  0  0
  140.7094   77.1752  218.9774 H   0  0  0  0  0  0  0  0  0  0  0  0
  142.0279   77.3687  221.7437 H   0  0  0  0  0  0  0  0  0  0  0  0
  141.0309   78.6148  220.9715 H   0  0  0  0  0  0  0  0  0  0  0  0
  139.7144   79.3579  221.3387 H   0  0  0  0  0  0  0  0  0  0  0  0
  138.2910   79.0177  220.2733 H   0  0  0  0  0  0  0  0  0  0  0  0
  137.7102   80.7390  221.7737 H   0  0  0  0  0  0  0  0  0  0  0  0
  136.4720   78.4220  221.4200 H   0  0  0  0  0  0  0  0  0  0  0  0
  136.5570   78.3470  223.0830 H   0  0  0  0  0  0  0  0  0  0  0  0
  138.1369   79.1203  224.1920 H   0  0  0  0  0  0  0  0  0  0  0  0
  140.3542   78.3352  224.3724 H   0  0  0  0  0  0  0  0  0  0  0  0
  142.7874   78.6063  224.2028 H   0  0  0  0  0  0  0  0  0  0  0  0
  143.7343   80.6703  223.1448 H   0  0  0  0  0  0  0  0  0  0  0  0
  142.1805   82.4071  222.2884 H   0  0  0  0  0  0  0  0  0  0  0  0
  139.7195   82.1019  222.4774 H   0  0  0  0  0  0  0  0  0  0  0  0
  137.7942   80.1213  226.2625 H   0  0  0  0  0  0  0  0  0  0  0  0
  136.6886   81.9286  227.4821 H   0  0  0  0  0  0  0  0  0  0  0  0
  135.9159   83.9636  226.2808 H   0  0  0  0  0  0  0  0  0  0  0  0
  136.2917   84.1129  223.8362 H   0  0  0  0  0  0  0  0  0  0  0  0
  137.4070   82.3063  222.6043 H   0  0  0  0  0  0  0  0  0  0  0  0
  140.1543   75.3349  222.9929 H   0  0  0  0  0  0  0  0  0  0  0  0
  139.3395   74.8498  221.4828 H   0  0  0  0  0  0  0  0  0  0  0  0
  142.3390   75.4396  221.8945 H   0  0  0  0  0  0  0  0  0  0  0  0
  141.6142   73.8878  221.4147 H   0  0  0  0  0  0  0  0  0  0  0  0
  1  2  1  0
  2  3  1  0
  3  4  2  0
  3  5  1  0
  5  6  1  0
  6  7  2  0
  7  8  1  0
  8  9  2  0
  9 10  1  0
 10 11  2  0
  5 12  1  0
 12 13  1  0
 13 14  1  0
 14 15  1  0
 15 16  1  0
 16 17  2  0
 16 18  1  0
 18 19  1  0
 19 20  1  0
 19 21  1  0
 21 22  1  0
 22 23  2  0
 23 24  1  0
 24 25  2  0
 25 26  1  0
 26 27  2  0
 21 28  1  0
 28 29  2  0
 29 30  1  0
 30 31  2  0
 31 32  1  0
 32 33  2  0
 15 34  1  0
 34 35  1  0
 11  6  1  0
 35 12  1  0
 27 22  1  0
 33 28  1  0
  1 36  1  0
  1 37  1  0
  1 38  1  0
  2 39  1  0
  2 40  1  0
  7 41  1  0
  8 42  1  0
  9 43  1  0
 10 44  1  0
 11 45  1  0
 12 46  1  0
 13 47  1  0
 13 48  1  0
 14 49  1  0
 14 50  1  0
 18 51  1  0
 18 52  1  0
 19 53  1  6
 20 54  1  0
 20 55  1  0
 21 56  1  0
 23 57  1  0
 24 58  1  0
 25 59  1  0
 26 60  1  0
 27 61  1  0
 29 62  1  0
 30 63  1  0
 31 64  1  0
 32 65  1  0
 33 66  1  0
 34 67  1  0
 34 68  1  0
 35 69  1  0
 35 70  1  0
M  END
>  <smiles>  (65) 
CCC(=O)N(c1ccccc1)C1CCN(C(=O)CC(N)C(c2ccccc2)c2ccccc2)CC1

>  <score_type>  (65) 
oracle

>  <origin>  (65) 
autodockgpu

>  <m_score__min__energy>  (65) 
-8.6099999999999994

>  <m_primary>  (65) 
energy

>  <rmsd>  (65) 
9.682480279472577

>  <m_score__min__rmsd>  (65) 
9.682480279472577

>  <meeko>  (65) 
{"free_energy": -7.27, "intermolecular_energy": -10.25, "internal_energy": -3.7, "cluster_size": 5, "cluster_id": 6, "rank_in_cluster": 2}

>  <energy>  (65) 
-8.39

>  <cluster_rmsd>  (65) 
0.81

>  <cluster>  (65) 
1

$$$$

     RDKit          3D

 70 73  0  0  0  0  0  0  0  0999 V2000
  142.5730   77.9890  218.1730 C   0  0  0  0  0  0  0  0  0  0  0  0
  143.3160   76.7550  217.7140 C   0  0  0  0  0  0  0  0  0  0  0  0
  142.5620   75.5110  218.0070 C   0  0  0  0  0  0  0  0  0  0  0  0
  142.0220   74.9390  217.0170 O   0  0  0  0  0  0  0  0  0  0  0  0
  142.4270   74.9610  219.3080 N   0  0  0  0  0  0  0  0  0  0  0  0
  143.5020   74.1490  219.7740 C   0  0  0  0  0  0  0  0  0  0  0  0
  144.5520   74.8290  220.3950 C   0  0  0  0  0  0  0  0  0  0  0  0
  145.6510   74.1220  220.8840 C   0  0  0  0  0  0  0  0  0  0  0  0
  145.7020   72.7570  220.7550 C   0  0  0  0  0  0  0  0  0  0  0  0
  144.6560   72.0840  220.1380 C   0  0  0  0  0  0  0  0  0  0  0  0
  143.5430   72.7820  219.6410 C   0  0  0  0  0  0  0  0  0  0  0  0
  141.2460   75.2440  220.0730 C   0  0  0  0  0  0  0  0  0  0  0  0
  141.4990   76.5200  220.8410 C   0  0  0  0  0  0  0  0  0  0  0  0
  140.9910   76.3160  222.2500 C   0  0  0  0  0  0  0  0  0  0  0  0
  139.6150   75.8750  222.1240 N   0  0  0  0  0  0  0  0  0  0  0  0
  138.5010   76.6870  222.5360 C   0  0  0  0  0  0  0  0  0  0  0  0
  137.3710   76.1930  222.3740 O   0  0  0  0  0  0  0  0  0  0  0  0
  138.8220   78.0040  223.0990 C   0  0  0  0  0  0  0  0  0  0  0  0
  138.5100   79.0940  222.1380 C   0  0  1  0  0  0  0  0  0  0  0  0
  137.0470   79.2070  222.1010 N   0  0  0  0  0  0  0  0  0  0  0  0
  139.1370   80.4220  222.4290 C   0  0  0  0  0  0  0  0  0  0  0  0
  138.2630   81.1340  223.4300 C   0  0  0  0  0  0  0  0  0  0  0  0
  138.0740   80.6500  224.7100 C   0  0  0  0  0  0  0  0  0  0  0  0
  137.2740   81.2660  225.6490 C   0  0  0  0  0  0  0  0  0  0  0  0
  136.6130   82.4400  225.3120 C   0  0  0  0  0  0  0  0  0  0  0  0
  136.7770   82.9530  224.0440 C   0  0  0  0  0  0  0  0  0  0  0  0
  137.5970   82.3020  223.1110 C   0  0  0  0  0  0  0  0  0  0  0  0
  140.5510   80.4130  222.7840 C   0  0  0  0  0  0  0  0  0  0  0  0
  141.5250   79.6440  222.1830 C   0  0  0  0  0  0  0  0  0  0  0  0
  142.8530   79.6690  222.5460 C   0  0  0  0  0  0  0  0  0  0  0  0
  143.2760   80.4910  223.5580 C   0  0  0  0  0  0  0  0  0  0  0  0
  142.3350   81.2750  224.1860 C   0  0  0  0  0  0  0  0  0  0  0  0
  141.0050   81.2490  223.8200 C   0  0  0  0  0  0  0  0  0  0  0  0
  139.4240   74.5430  221.5490 C   0  0  0  0  0  0  0  0  0  0  0  0
  140.7620   74.1050  220.9300 C   0  0  0  0  0  0  0  0  0  0  0  0
  142.5552   78.0185  219.2725 H   0  0  0  0  0  0  0  0  0  0  0  0
  143.0810   78.8865  217.7903 H   0  0  0  0  0  0  0  0  0  0  0  0
  141.5421   77.9599  217.7903 H   0  0  0  0  0  0  0  0  0  0  0  0
  143.4809   76.8230  216.6286 H   0  0  0  0  0  0  0  0  0  0  0  0
  144.2702   76.7104  218.2595 H   0  0  0  0  0  0  0  0  0  0  0  0
  144.5125   75.9234  220.4987 H   0  0  0  0  0  0  0  0  0  0  0  0
  146.4769   74.6592  221.3732 H   0  0  0  0  0  0  0  0  0  0  0  0
  146.5681   72.1981  221.1389 H   0  0  0  0  0  0  0  0  0  0  0  0
  144.6995   70.9895  220.0370 H   0  0  0  0  0  0  0  0  0  0  0  0
  142.7175   72.2430  219.1532 H   0  0  0  0  0  0  0  0  0  0  0  0
  140.3999   75.3821  219.3838 H   0  0  0  0  0  0  0  0  0  0  0  0
  142.5768   76.7390  220.8593 H   0  0  0  0  0  0  0  0  0  0  0  0
  140.9827   77.3660  220.3638 H   0  0  0  0  0  0  0  0  0  0  0  0
  141.5910   75.5511  222.7647 H   0  0  0  0  0  0  0  0  0  0  0  0
  141.0629   77.2416  222.8400 H   0  0  0  0  0  0  0  0  0  0  0  0
  138.2327   78.1550  224.0154 H   0  0  0  0  0  0  0  0  0  0  0  0
  139.8994   78.0337  223.3191 H   0  0  0  0  0  0  0  0  0  0  0  0
  138.9480   78.8195  221.1670 H   0  0  0  0  0  0  0  0  0  0  0  0
  136.7960   79.6100  221.1740 H   0  0  0  0  0  0  0  0  0  0  0  0
  136.6120   78.2720  222.1510 H   0  0  0  0  0  0  0  0  0  0  0  0
  139.1750   80.9808  221.4823 H   0  0  0  0  0  0  0  0  0  0  0  0
  138.5903   79.7218  224.9960 H   0  0  0  0  0  0  0  0  0  0  0  0
  137.1606   80.8325  226.6536 H   0  0  0  0  0  0  0  0  0  0  0  0
  135.9703   82.9509  226.0441 H   0  0  0  0  0  0  0  0  0  0  0  0
  136.2600   83.8817  223.7608 H   0  0  0  0  0  0  0  0  0  0  0  0
  137.7124   82.7300  222.1043 H   0  0  0  0  0  0  0  0  0  0  0  0
  141.2237   78.9716  221.3662 H   0  0  0  0  0  0  0  0  0  0  0  0
  143.5767   79.0273  222.0222 H   0  0  0  0  0  0  0  0  0  0  0  0
  144.3336   80.5231  223.8586 H   0  0  0  0  0  0  0  0  0  0  0  0
  142.6521   81.9407  225.0023 H   0  0  0  0  0  0  0  0  0  0  0  0
  140.2868   81.8936  224.3479 H   0  0  0  0  0  0  0  0  0  0  0  0
  139.1254   73.8346  222.3357 H   0  0  0  0  0  0  0  0  0  0  0  0
  138.6337   74.5631  220.7841 H   0  0  0  0  0  0  0  0  0  0  0  0
  141.4934   73.8924  221.7236 H   0  0  0  0  0  0  0  0  0  0  0  0
  140.6364   73.1904  220.3319 H   0  0  0  0  0  0  0  0  0  0  0  0
  1  2  1  0
  2  3  1  0
  3  4  2  0
  3  5  1  0
  5  6  1  0
  6  7  2  0
  7  8  1  0
  8  9  2  0
  9 10  1  0
 10 11  2  0
  5 12  1  0
 12 13  1  0
 13 14  1  0
 14 15  1  0
 15 16  1  0
 16 17  2  0
 16 18  1  0
 18 19  1  0
 19 20  1  0
 19 21  1  0
 21 22  1  0
 22 23  2  0
 23 24  1  0
 24 25  2  0
 25 26  1  0
 26 27  2  0
 21 28  1  0
 28 29  2  0
 29 30  1  0
 30 31  2  0
 31 32  1  0
 32 33  2  0
 15 34  1  0
 34 35  1  0
 11  6  1  0
 35 12  1  0
 27 22  1  0
 33 28  1  0
  1 36  1  0
  1 37  1  0
  1 38  1  0
  2 39  1  0
  2 40  1  0
  7 41  1  0
  8 42  1  0
  9 43  1  0
 10 44  1  0
 11 45  1  0
 12 46  1  0
 13 47  1  0
 13 48  1  0
 14 49  1  0
 14 50  1  0
 18 51  1  0
 18 52  1  0
 19 53  1  6
 20 54  1  0
 20 55  1  0
 21 56  1  0
 23 57  1  0
 24 58  1  0
 25 59  1  0
 26 60  1  0
 27 61  1  0
 29 62  1  0
 30 63  1  0
 31 64  1  0
 32 65  1  0
 33 66  1  0
 34 67  1  0
 34 68  1  0
 35 69  1  0
 35 70  1  0
M  END
>  <smiles>  (66) 
CCC(=O)N(c1ccccc1)C1CCN(C(=O)CC(N)C(c2ccccc2)c2ccccc2)CC1

>  <score_type>  (66) 
oracle

>  <origin>  (66) 
autodockgpu

>  <m_score__min__energy>  (66) 
-8.6099999999999994

>  <m_primary>  (66) 
energy

>  <rmsd>  (66) 
10.292927733843435

>  <m_score__min__rmsd>  (66) 
10.292927733843435

>  <meeko>  (66) 
{"free_energy": -7.35, "intermolecular_energy": -10.34, "internal_energy": -3.2, "cluster_size": 5, "cluster_id": 6, "rank_in_cluster": 1}

>  <energy>  (66) 
-8.36

>  <cluster_rmsd>  (66) 
1.67

>  <cluster>  (66) 
1

$$$$

     RDKit          3D

 70 73  0  0  0  0  0  0  0  0999 V2000
  144.5780   75.5990  215.9220 C   0  0  0  0  0  0  0  0  0  0  0  0
  143.6790   76.2090  216.9720 C   0  0  0  0  0  0  0  0  0  0  0  0
  142.7980   75.1970  217.6050 C   0  0  0  0  0  0  0  0  0  0  0  0
  142.0410   74.5490  216.8260 O   0  0  0  0  0  0  0  0  0  0  0  0
  142.7720   74.9400  219.0000 N   0  0  0  0  0  0  0  0  0  0  0  0
  143.8870   74.2360  219.5420 C   0  0  0  0  0  0  0  0  0  0  0  0
  144.0180   72.9040  219.1390 C   0  0  0  0  0  0  0  0  0  0  0  0
  145.0760   72.1300  219.6160 C   0  0  0  0  0  0  0  0  0  0  0  0
  145.9900   72.6760  220.4820 C   0  0  0  0  0  0  0  0  0  0  0  0
  145.8570   74.0000  220.8810 C   0  0  0  0  0  0  0  0  0  0  0  0
  144.7970   74.7920  220.4080 C   0  0  0  0  0  0  0  0  0  0  0  0
  141.6540   75.3910  219.7790 C   0  0  0  0  0  0  0  0  0  0  0  0
  141.5250   76.8810  219.5640 C   0  0  0  0  0  0  0  0  0  0  0  0
  141.2710   77.5180  220.9120 C   0  0  0  0  0  0  0  0  0  0  0  0
  140.1300   76.8250  221.4780 N   0  0  0  0  0  0  0  0  0  0  0  0
  138.8530   77.4600  221.6640 C   0  0  0  0  0  0  0  0  0  0  0  0
  137.9560   76.7560  222.1600 O   0  0  0  0  0  0  0  0  0  0  0  0
  138.7510   78.8650  221.2500 C   0  0  0  0  0  0  0  0  0  0  0  0
  137.8670   79.6350  222.1630 C   0  0  1  0  0  0  0  0  0  0  0  0
  136.6220   78.8670  222.2790 N   0  0  0  0  0  0  0  0  0  0  0  0
  138.4300   79.9390  223.5170 C   0  0  0  0  0  0  0  0  0  0  0  0
  139.9160   80.1400  223.3620 C   0  0  0  0  0  0  0  0  0  0  0  0
  140.8320   79.2220  223.8390 C   0  0  0  0  0  0  0  0  0  0  0  0
  142.1970   79.3760  223.7250 C   0  0  0  0  0  0  0  0  0  0  0  0
  142.7020   80.5090  223.1020 C   0  0  0  0  0  0  0  0  0  0  0  0
  141.8200   81.4470  222.6140 C   0  0  0  0  0  0  0  0  0  0  0  0
  140.4350   81.2620  222.7460 C   0  0  0  0  0  0  0  0  0  0  0  0
  137.7700   80.9940  224.2780 C   0  0  0  0  0  0  0  0  0  0  0  0
  137.5350   80.9780  225.6370 C   0  0  0  0  0  0  0  0  0  0  0  0
  136.9120   81.9990  226.3180 C   0  0  0  0  0  0  0  0  0  0  0  0
  136.4830   83.1150  225.6470 C   0  0  0  0  0  0  0  0  0  0  0  0
  136.6970   83.1710  224.2880 C   0  0  0  0  0  0  0  0  0  0  0  0
  137.3220   82.1460  223.6080 C   0  0  0  0  0  0  0  0  0  0  0  0
  140.3560   75.4290  221.8540 C   0  0  0  0  0  0  0  0  0  0  0  0
  141.6900   74.9870  221.2280 C   0  0  0  0  0  0  0  0  0  0  0  0
  145.3926   75.0463  216.4129 H   0  0  0  0  0  0  0  0  0  0  0  0
  143.9937   74.9101  215.2943 H   0  0  0  0  0  0  0  0  0  0  0  0
  145.0023   76.3965  215.2943 H   0  0  0  0  0  0  0  0  0  0  0  0
  144.3044   76.6717  217.7497 H   0  0  0  0  0  0  0  0  0  0  0  0
  143.0393   76.9560  216.4793 H   0  0  0  0  0  0  0  0  0  0  0  0
  143.2859   72.4656  218.4449 H   0  0  0  0  0  0  0  0  0  0  0  0
  145.1777   71.0819  219.2980 H   0  0  0  0  0  0  0  0  0  0  0  0
  146.8251   72.0673  220.8589 H   0  0  0  0  0  0  0  0  0  0  0  0
  146.5908   74.4339  221.5761 H   0  0  0  0  0  0  0  0  0  0  0  0
  144.6975   75.8403  220.7260 H   0  0  0  0  0  0  0  0  0  0  0  0
  140.7456   74.8802  219.4271 H   0  0  0  0  0  0  0  0  0  0  0  0
  142.4542   77.2791  219.1303 H   0  0  0  0  0  0  0  0  0  0  0  0
  140.6992   77.1010  218.8714 H   0  0  0  0  0  0  0  0  0  0  0  0
  142.1504   77.3988  221.5619 H   0  0  0  0  0  0  0  0  0  0  0  0
  141.0777   78.5966  220.8158 H   0  0  0  0  0  0  0  0  0  0  0  0
  139.7547   79.3149  221.2595 H   0  0  0  0  0  0  0  0  0  0  0  0
  138.3187   78.8981  220.2391 H   0  0  0  0  0  0  0  0  0  0  0  0
  137.7213   80.6331  221.7241 H   0  0  0  0  0  0  0  0  0  0  0  0
  136.5590   78.2600  221.4360 H   0  0  0  0  0  0  0  0  0  0  0  0
  136.6600   78.2400  223.0990 H   0  0  0  0  0  0  0  0  0  0  0  0
  138.2213   79.0719  224.1608 H   0  0  0  0  0  0  0  0  0  0  0  0
  140.4508   78.3184  224.3372 H   0  0  0  0  0  0  0  0  0  0  0  0
  142.8784   78.6098  224.1232 H   0  0  0  0  0  0  0  0  0  0  0  0
  143.7875   80.6549  223.0000 H   0  0  0  0  0  0  0  0  0  0  0  0
  142.2043   82.3495  222.1162 H   0  0  0  0  0  0  0  0  0  0  0  0
  139.7491   82.0259  222.3510 H   0  0  0  0  0  0  0  0  0  0  0  0
  137.8645   80.0985  226.2096 H   0  0  0  0  0  0  0  0  0  0  0  0
  136.7578   81.9194  227.4042 H   0  0  0  0  0  0  0  0  0  0  0  0
  135.9838   83.9393  226.1774 H   0  0  0  0  0  0  0  0  0  0  0  0
  136.3606   84.0568  223.7293 H   0  0  0  0  0  0  0  0  0  0  0  0
  137.4726   82.2317  222.5217 H   0  0  0  0  0  0  0  0  0  0  0  0
  140.4080   75.3395  222.9491 H   0  0  0  0  0  0  0  0  0  0  0  0
  139.5324   74.7946  221.4945 H   0  0  0  0  0  0  0  0  0  0  0  0
  142.5288   75.4837  221.7375 H   0  0  0  0  0  0  0  0  0  0  0  0
  141.8286   73.9004  221.3282 H   0  0  0  0  0  0  0  0  0  0  0  0
  1  2  1  0
  2  3  1  0
  3  4  2  0
  3  5  1  0
  5  6  1  0
  6  7  2  0
  7  8  1  0
  8  9  2  0
  9 10  1  0
 10 11  2  0
  5 12  1  0
 12 13  1  0
 13 14  1  0
 14 15  1  0
 15 16  1  0
 16 17  2  0
 16 18  1  0
 18 19  1  0
 19 20  1  0
 19 21  1  0
 21 22  1  0
 22 23  2  0
 23 24  1  0
 24 25  2  0
 25 26  1  0
 26 27  2  0
 21 28  1  0
 28 29  2  0
 29 30  1  0
 30 31  2  0
 31 32  1  0
 32 33  2  0
 15 34  1  0
 34 35  1  0
 11  6  1  0
 35 12  1  0
 27 22  1  0
 33 28  1  0
  1 36  1  0
  1 37  1  0
  1 38  1  0
  2 39  1  0
  2 40  1  0
  7 41  1  0
  8 42  1  0
  9 43  1  0
 10 44  1  0
 11 45  1  0
 12 46  1  0
 13 47  1  0
 13 48  1  0
 14 49  1  0
 14 50  1  0
 18 51  1  0
 18 52  1  0
 19 53  1  6
 20 54  1  0
 20 55  1  0
 21 56  1  0
 23 57  1  0
 24 58  1  0
 25 59  1  0
 26 60  1  0
 27 61  1  0
 29 62  1  0
 30 63  1  0
 31 64  1  0
 32 65  1  0
 33 66  1  0
 34 67  1  0
 34 68  1  0
 35 69  1  0
 35 70  1  0
M  END
>  <smiles>  (67) 
CCC(=O)N(c1ccccc1)C1CCN(C(=O)CC(N)C(c2ccccc2)c2ccccc2)CC1

>  <score_type>  (67) 
oracle

>  <origin>  (67) 
autodockgpu

>  <m_score__min__energy>  (67) 
-8.6099999999999994

>  <m_primary>  (67) 
energy

>  <rmsd>  (67) 
9.664518064799887

>  <m_score__min__rmsd>  (67) 
9.664518064799887

>  <meeko>  (67) 
{"free_energy": -7.2, "intermolecular_energy": -10.18, "internal_energy": -3.66, "cluster_size": 5, "cluster_id": 6, "rank_in_cluster": 4}

>  <energy>  (67) 
-8.27

>  <cluster_rmsd>  (67) 
1.74

>  <cluster>  (67) 
1

$$$$

     RDKit          3D

 70 73  0  0  0  0  0  0  0  0999 V2000
  136.6330   71.7850  223.4890 C   0  0  0  0  0  0  0  0  0  0  0  0
  137.1700   70.4070  223.8000 C   0  0  0  0  0  0  0  0  0  0  0  0
  138.5560   70.2250  223.3020 C   0  0  0  0  0  0  0  0  0  0  0  0
  138.7190   69.3380  222.4160 O   0  0  0  0  0  0  0  0  0  0  0  0
  139.6640   70.9780  223.7690 N   0  0  0  0  0  0  0  0  0  0  0  0
  139.9940   70.8440  225.1490 C   0  0  0  0  0  0  0  0  0  0  0  0
  140.7620   71.8770  225.6930 C   0  0  0  0  0  0  0  0  0  0  0  0
  141.1380   71.8370  227.0360 C   0  0  0  0  0  0  0  0  0  0  0  0
  140.7530   70.7830  227.8250 C   0  0  0  0  0  0  0  0  0  0  0  0
  139.9890   69.7580  227.2820 C   0  0  0  0  0  0  0  0  0  0  0  0
  139.6030   69.7850  225.9310 C   0  0  0  0  0  0  0  0  0  0  0  0
  140.3810   71.8170  222.8510 C   0  0  0  0  0  0  0  0  0  0  0  0
  139.5420   73.0500  222.6150 C   0  0  0  0  0  0  0  0  0  0  0  0
  139.5620   73.3410  221.1320 C   0  0  0  0  0  0  0  0  0  0  0  0
  140.9590   73.4030  220.7500 N   0  0  0  0  0  0  0  0  0  0  0  0
  141.5960   74.6250  220.3370 C   0  0  0  0  0  0  0  0  0  0  0  0
  142.8000   74.5430  220.0360 O   0  0  0  0  0  0  0  0  0  0  0  0
  140.7560   75.8290  220.3180 C   0  0  0  0  0  0  0  0  0  0  0  0
  141.3990   76.9490  221.0550 C   0  0  1  0  0  0  0  0  0  0  0  0
  142.6140   77.2930  220.3070 N   0  0  0  0  0  0  0  0  0  0  0  0
  140.5490   78.1620  221.2740 C   0  0  0  0  0  0  0  0  0  0  0  0
  139.1810   77.6930  221.7010 C   0  0  0  0  0  0  0  0  0  0  0  0
  138.0260   78.1820  221.1220 C   0  0  0  0  0  0  0  0  0  0  0  0
  136.7590   77.7860  221.4930 C   0  0  0  0  0  0  0  0  0  0  0  0
  136.6110   76.8450  222.5040 C   0  0  0  0  0  0  0  0  0  0  0  0
  137.7410   76.3350  223.1060 C   0  0  0  0  0  0  0  0  0  0  0  0
  139.0170   76.7590  222.7060 C   0  0  0  0  0  0  0  0  0  0  0  0
  141.1070   79.2050  222.1260 C   0  0  0  0  0  0  0  0  0  0  0  0
  142.0320   79.0120  223.1310 C   0  0  0  0  0  0  0  0  0  0  0  0
  142.5380   80.0280  223.9110 C   0  0  0  0  0  0  0  0  0  0  0  0
  142.1260   81.3200  223.7130 C   0  0  0  0  0  0  0  0  0  0  0  0
  141.2030   81.5560  222.7200 C   0  0  0  0  0  0  0  0  0  0  0  0
  140.6980   80.5370  221.9390 C   0  0  0  0  0  0  0  0  0  0  0  0
  141.6910   72.1370  220.8080 C   0  0  0  0  0  0  0  0  0  0  0  0
  140.8240   71.1310  221.5860 C   0  0  0  0  0  0  0  0  0  0  0  0
  136.4252   72.3182  224.4284 H   0  0  0  0  0  0  0  0  0  0  0  0
  137.3783   72.3460  222.9061 H   0  0  0  0  0  0  0  0  0  0  0  0
  135.7046   71.6938  222.9061 H   0  0  0  0  0  0  0  0  0  0  0  0
  137.1623   70.2605  224.8902 H   0  0  0  0  0  0  0  0  0  0  0  0
  136.5280   69.6702  223.2950 H   0  0  0  0  0  0  0  0  0  0  0  0
  141.0706   72.7230  225.0613 H   0  0  0  0  0  0  0  0  0  0  0  0
  141.7432   72.6507  227.4621 H   0  0  0  0  0  0  0  0  0  0  0  0
  141.0483   70.7497  228.8841 H   0  0  0  0  0  0  0  0  0  0  0  0
  139.6821   68.9143  227.9176 H   0  0  0  0  0  0  0  0  0  0  0  0
  138.9973   68.9708  225.5066 H   0  0  0  0  0  0  0  0  0  0  0  0
  141.3434   72.0997  223.3025 H   0  0  0  0  0  0  0  0  0  0  0  0
  138.5091   72.8699  222.9478 H   0  0  0  0  0  0  0  0  0  0  0  0
  139.9431   73.9037  223.1811 H   0  0  0  0  0  0  0  0  0  0  0  0
  139.0509   72.5390  220.5793 H   0  0  0  0  0  0  0  0  0  0  0  0
  139.0416   74.2823  220.9015 H   0  0  0  0  0  0  0  0  0  0  0  0
  140.5917   76.1347  219.2742 H   0  0  0  0  0  0  0  0  0  0  0  0
  139.8007   75.5933  220.8098 H   0  0  0  0  0  0  0  0  0  0  0  0
  141.6043   76.6019  222.0784 H   0  0  0  0  0  0  0  0  0  0  0  0
  142.9610   78.1970  220.6890 H   0  0  0  0  0  0  0  0  0  0  0  0
  143.3530   76.5910  220.4760 H   0  0  0  0  0  0  0  0  0  0  0  0
  140.4916   78.7005  220.3165 H   0  0  0  0  0  0  0  0  0  0  0  0
  138.1229   78.9289  220.3203 H   0  0  0  0  0  0  0  0  0  0  0  0
  135.8752   78.2103  220.9942 H   0  0  0  0  0  0  0  0  0  0  0  0
  135.6105   76.5131  222.8183 H   0  0  0  0  0  0  0  0  0  0  0  0
  137.6414   75.5884  223.9077 H   0  0  0  0  0  0  0  0  0  0  0  0
  139.9046   76.3396  223.2022 H   0  0  0  0  0  0  0  0  0  0  0  0
  142.3858   77.9878  223.3203 H   0  0  0  0  0  0  0  0  0  0  0  0
  143.2752   79.8018  224.6954 H   0  0  0  0  0  0  0  0  0  0  0  0
  142.5205   82.1421  224.3282 H   0  0  0  0  0  0  0  0  0  0  0  0
  140.8583   82.5857  222.5441 H   0  0  0  0  0  0  0  0  0  0  0  0
  139.9620   80.7710  221.1557 H   0  0  0  0  0  0  0  0  0  0  0  0
  141.8755   71.7639  219.7898 H   0  0  0  0  0  0  0  0  0  0  0  0
  142.6618   72.2755  221.3063 H   0  0  0  0  0  0  0  0  0  0  0  0
  139.9483   70.8436  220.9856 H   0  0  0  0  0  0  0  0  0  0  0  0
  141.3922   70.2170  221.8136 H   0  0  0  0  0  0  0  0  0  0  0  0
  1  2  1  0
  2  3  1  0
  3  4  2  0
  3  5  1  0
  5  6  1  0
  6  7  2  0
  7  8  1  0
  8  9  2  0
  9 10  1  0
 10 11  2  0
  5 12  1  0
 12 13  1  0
 13 14  1  0
 14 15  1  0
 15 16  1  0
 16 17  2  0
 16 18  1  0
 18 19  1  0
 19 20  1  0
 19 21  1  0
 21 22  1  0
 22 23  2  0
 23 24  1  0
 24 25  2  0
 25 26  1  0
 26 27  2  0
 21 28  1  0
 28 29  2  0
 29 30  1  0
 30 31  2  0
 31 32  1  0
 32 33  2  0
 15 34  1  0
 34 35  1  0
 11  6  1  0
 35 12  1  0
 27 22  1  0
 33 28  1  0
  1 36  1  0
  1 37  1  0
  1 38  1  0
  2 39  1  0
  2 40  1  0
  7 41  1  0
  8 42  1  0
  9 43  1  0
 10 44  1  0
 11 45  1  0
 12 46  1  0
 13 47  1  0
 13 48  1  0
 14 49  1  0
 14 50  1  0
 18 51  1  0
 18 52  1  0
 19 53  1  1
 20 54  1  0
 20 55  1  0
 21 56  1  0
 23 57  1  0
 24 58  1  0
 25 59  1  0
 26 60  1  0
 27 61  1  0
 29 62  1  0
 30 63  1  0
 31 64  1  0
 32 65  1  0
 33 66  1  0
 34 67  1  0
 34 68  1  0
 35 69  1  0
 35 70  1  0
M  END
>  <smiles>  (68) 
CCC(=O)N(c1ccccc1)C1CCN(C(=O)CC(N)C(c2ccccc2)c2ccccc2)CC1

>  <score_type>  (68) 
oracle

>  <origin>  (68) 
autodockgpu

>  <m_score__min__energy>  (68) 
-8.6099999999999994

>  <m_primary>  (68) 
energy

>  <rmsd>  (68) 
7.796252543190211

>  <m_score__min__rmsd>  (68) 
7.796252543190211

>  <meeko>  (68) 
{"free_energy": -8.08, "intermolecular_energy": -11.06, "internal_energy": -3.09, "cluster_size": 40, "cluster_id": 1, "rank_in_cluster": 24}

>  <energy>  (68) 
-8.21

>  <cluster_rmsd>  (68) 
1.63

>  <cluster>  (68) 
1

$$$$

     RDKit          3D

 70 73  0  0  0  0  0  0  0  0999 V2000
  138.4700   68.0600  222.8640 C   0  0  0  0  0  0  0  0  0  0  0  0
  138.7030   69.3590  222.1280 C   0  0  0  0  0  0  0  0  0  0  0  0
  138.5720   70.5360  223.0220 C   0  0  0  0  0  0  0  0  0  0  0  0
  137.3950   70.9360  223.2520 O   0  0  0  0  0  0  0  0  0  0  0  0
  139.6790   71.2070  223.6040 N   0  0  0  0  0  0  0  0  0  0  0  0
  139.9620   70.9090  224.9690 C   0  0  0  0  0  0  0  0  0  0  0  0
  140.7340   71.8540  225.6500 C   0  0  0  0  0  0  0  0  0  0  0  0
  141.0660   71.6520  226.9900 C   0  0  0  0  0  0  0  0  0  0  0  0
  140.6340   70.5240  227.6410 C   0  0  0  0  0  0  0  0  0  0  0  0
  139.8670   69.5870  226.9620 C   0  0  0  0  0  0  0  0  0  0  0  0
  139.5240   69.7770  225.6130 C   0  0  0  0  0  0  0  0  0  0  0  0
  140.4400   72.1290  222.8110 C   0  0  0  0  0  0  0  0  0  0  0  0
  139.4960   73.2130  222.3470 C   0  0  0  0  0  0  0  0  0  0  0  0
  139.7820   73.4760  220.8860 C   0  0  0  0  0  0  0  0  0  0  0  0
  141.2040   73.7470  220.7940 N   0  0  0  0  0  0  0  0  0  0  0  0
  141.7250   75.0450  220.4590 C   0  0  0  0  0  0  0  0  0  0  0  0
  142.9640   75.1440  220.4130 O   0  0  0  0  0  0  0  0  0  0  0  0
  140.7390   76.1040  220.2080 C   0  0  0  0  0  0  0  0  0  0  0  0
  140.8180   77.1700  221.2400 C   0  0  1  0  0  0  0  0  0  0  0  0
  141.1150   76.4970  222.5100 N   0  0  0  0  0  0  0  0  0  0  0  0
  141.8060   78.2640  220.9770 C   0  0  0  0  0  0  0  0  0  0  0  0
  141.6080   78.7300  219.5560 C   0  0  0  0  0  0  0  0  0  0  0  0
  140.4520   79.3680  219.1500 C   0  0  0  0  0  0  0  0  0  0  0  0
  140.2310   79.7980  217.8590 C   0  0  0  0  0  0  0  0  0  0  0  0
  141.2100   79.5890  216.8970 C   0  0  0  0  0  0  0  0  0  0  0  0
  142.3760   78.9550  217.2650 C   0  0  0  0  0  0  0  0  0  0  0  0
  142.5720   78.5290  218.5870 C   0  0  0  0  0  0  0  0  0  0  0  0
  141.8550   79.3490  221.9500 C   0  0  0  0  0  0  0  0  0  0  0  0
  140.8640   80.2860  222.1590 C   0  0  0  0  0  0  0  0  0  0  0  0
  140.9480   81.2930  223.0940 C   0  0  0  0  0  0  0  0  0  0  0  0
  142.0620   81.4100  223.8830 C   0  0  0  0  0  0  0  0  0  0  0  0
  143.0750   80.4960  223.7060 C   0  0  0  0  0  0  0  0  0  0  0  0
  142.9890   79.4870  222.7690 C   0  0  0  0  0  0  0  0  0  0  0  0
  142.0860   72.6100  221.0640 C   0  0  0  0  0  0  0  0  0  0  0  0
  141.2330   71.4970  221.6980 C   0  0  0  0  0  0  0  0  0  0  0  0
  138.5026   68.2420  223.9483 H   0  0  0  0  0  0  0  0  0  0  0  0
  137.4848   67.6548  222.5897 H   0  0  0  0  0  0  0  0  0  0  0  0
  139.2529   67.3376  222.5897 H   0  0  0  0  0  0  0  0  0  0  0  0
  139.7168   69.3484  221.7012 H   0  0  0  0  0  0  0  0  0  0  0  0
  137.9402   69.4444  221.3400 H   0  0  0  0  0  0  0  0  0  0  0  0
  141.0805   72.7586  225.1288 H   0  0  0  0  0  0  0  0  0  0  0  0
  141.6739   72.3968  227.5245 H   0  0  0  0  0  0  0  0  0  0  0  0
  140.8946   70.3627  228.6975 H   0  0  0  0  0  0  0  0  0  0  0  0
  139.5233   68.6837  227.4873 H   0  0  0  0  0  0  0  0  0  0  0  0
  138.9147   69.0316  225.0809 H   0  0  0  0  0  0  0  0  0  0  0  0
  141.2345   72.5646  223.4347 H   0  0  0  0  0  0  0  0  0  0  0  0
  138.4545   72.8815  222.4713 H   0  0  0  0  0  0  0  0  0  0  0  0
  139.6397   74.1289  222.9390 H   0  0  0  0  0  0  0  0  0  0  0  0
  139.5221   72.5942  220.2819 H   0  0  0  0  0  0  0  0  0  0  0  0
  139.1878   74.3206  220.5071 H   0  0  0  0  0  0  0  0  0  0  0  0
  140.9323   76.5468  219.2198 H   0  0  0  0  0  0  0  0  0  0  0  0
  139.7338   75.6587  220.2447 H   0  0  0  0  0  0  0  0  0  0  0  0
  139.8544   77.7005  221.2458 H   0  0  0  0  0  0  0  0  0  0  0  0
  141.9370   75.8810  222.3430 H   0  0  0  0  0  0  0  0  0  0  0  0
  141.3970   77.1870  223.2260 H   0  0  0  0  0  0  0  0  0  0  0  0
  142.8109   77.8363  221.1085 H   0  0  0  0  0  0  0  0  0  0  0  0
  139.6645   79.5425  219.8979 H   0  0  0  0  0  0  0  0  0  0  0  0
  139.2894   80.3011  217.5940 H   0  0  0  0  0  0  0  0  0  0  0  0
  141.0573   79.9235  215.8603 H   0  0  0  0  0  0  0  0  0  0  0  0
  143.1614   78.7810  216.5147 H   0  0  0  0  0  0  0  0  0  0  0  0
  143.5116   78.0250  218.8575 H   0  0  0  0  0  0  0  0  0  0  0  0
  139.9546   80.2249  221.5432 H   0  0  0  0  0  0  0  0  0  0  0  0
  140.1181   82.0059  223.2080 H   0  0  0  0  0  0  0  0  0  0  0  0
  142.1439   82.2094  224.6342 H   0  0  0  0  0  0  0  0  0  0  0  0
  143.9785   80.5718  224.3288 H   0  0  0  0  0  0  0  0  0  0  0  0
  143.8229   78.7778  222.6609 H   0  0  0  0  0  0  0  0  0  0  0  0
  142.5326   72.2510  220.1250 H   0  0  0  0  0  0  0  0  0  0  0  0
  142.8996   72.9059  221.7425 H   0  0  0  0  0  0  0  0  0  0  0  0
  140.5536   71.0677  220.9469 H   0  0  0  0  0  0  0  0  0  0  0  0
  141.8691   70.6856  222.0813 H   0  0  0  0  0  0  0  0  0  0  0  0
  1  2  1  0
  2  3  1  0
  3  4  2  0
  3  5  1  0
  5  6  1  0
  6  7  2  0
  7  8  1  0
  8  9  2  0
  9 10  1  0
 10 11  2  0
  5 12  1  0
 12 13  1  0
 13 14  1  0
 14 15  1  0
 15 16  1  0
 16 17  2  0
 16 18  1  0
 18 19  1  0
 19 20  1  0
 19 21  1  0
 21 22  1  0
 22 23  2  0
 23 24  1  0
 24 25  2  0
 25 26  1  0
 26 27  2  0
 21 28  1  0
 28 29  2  0
 29 30  1  0
 30 31  2  0
 31 32  1  0
 32 33  2  0
 15 34  1  0
 34 35  1  0
 11  6  1  0
 35 12  1  0
 27 22  1  0
 33 28  1  0
  1 36  1  0
  1 37  1  0
  1 38  1  0
  2 39  1  0
  2 40  1  0
  7 41  1  0
  8 42  1  0
  9 43  1  0
 10 44  1  0
 11 45  1  0
 12 46  1  0
 13 47  1  0
 13 48  1  0
 14 49  1  0
 14 50  1  0
 18 51  1  0
 18 52  1  0
 19 53  1  1
 20 54  1  0
 20 55  1  0
 21 56  1  0
 23 57  1  0
 24 58  1  0
 25 59  1  0
 26 60  1  0
 27 61  1  0
 29 62  1  0
 30 63  1  0
 31 64  1  0
 32 65  1  0
 33 66  1  0
 34 67  1  0
 34 68  1  0
 35 69  1  0
 35 70  1  0
M  END
>  <smiles>  (69) 
CCC(=O)N(c1ccccc1)C1CCN(C(=O)CC(N)C(c2ccccc2)c2ccccc2)CC1

>  <score_type>  (69) 
oracle

>  <origin>  (69) 
autodockgpu

>  <m_score__min__energy>  (69) 
-8.6099999999999994

>  <m_primary>  (69) 
energy

>  <rmsd>  (69) 
9.934013070481704

>  <m_score__min__rmsd>  (69) 
9.934013070481704

>  <meeko>  (69) 
{"free_energy": -8.43, "intermolecular_energy": -11.41, "internal_energy": -2.63, "cluster_size": 40, "cluster_id": 1, "rank_in_cluster": 12}

>  <energy>  (69) 
-8.19

>  <cluster_rmsd>  (69) 
1.65

>  <cluster>  (69) 
1

$$$$

     RDKit          3D

 70 73  0  0  0  0  0  0  0  0999 V2000
  136.4050   69.6440  224.8540 C   0  0  0  0  0  0  0  0  0  0  0  0
  137.2660   68.8770  223.8770 C   0  0  0  0  0  0  0  0  0  0  0  0
  138.6910   68.8560  224.2880 C   0  0  0  0  0  0  0  0  0  0  0  0
  139.1820   67.7200  224.5450 O   0  0  0  0  0  0  0  0  0  0  0  0
  139.4930   70.0210  224.4020 N   0  0  0  0  0  0  0  0  0  0  0  0
  139.9690   70.3460  225.7060 C   0  0  0  0  0  0  0  0  0  0  0  0
  139.6710   69.4190  226.7090 C   0  0  0  0  0  0  0  0  0  0  0  0
  140.0920   69.6470  228.0190 C   0  0  0  0  0  0  0  0  0  0  0  0
  140.8000   70.7830  228.3250 C   0  0  0  0  0  0  0  0  0  0  0  0
  141.0940   71.7010  227.3260 C   0  0  0  0  0  0  0  0  0  0  0  0
  140.6770   71.4850  226.0020 C   0  0  0  0  0  0  0  0  0  0  0  0
  139.7790   70.7960  223.2280 C   0  0  0  0  0  0  0  0  0  0  0  0
  138.7520   71.9010  223.1540 C   0  0  0  0  0  0  0  0  0  0  0  0
  138.2810   71.9940  221.7200 C   0  0  0  0  0  0  0  0  0  0  0  0
  139.4760   72.1380  220.9110 N   0  0  0  0  0  0  0  0  0  0  0  0
  139.7890   73.3510  220.2030 C   0  0  0  0  0  0  0  0  0  0  0  0
  140.8440   73.3460  219.5440 O   0  0  0  0  0  0  0  0  0  0  0  0
  138.8300   74.4550  220.3360 C   0  0  0  0  0  0  0  0  0  0  0  0
  139.3100   75.4730  221.3070 C   0  0  1  0  0  0  0  0  0  0  0  0
  140.1630   74.7600  222.2660 N   0  0  0  0  0  0  0  0  0  0  0  0
  140.0360   76.6450  220.7220 C   0  0  0  0  0  0  0  0  0  0  0  0
  140.1860   77.6810  221.8070 C   0  0  0  0  0  0  0  0  0  0  0  0
  141.4240   78.1310  222.2230 C   0  0  0  0  0  0  0  0  0  0  0  0
  141.6010   79.0680  223.2180 C   0  0  0  0  0  0  0  0  0  0  0  0
  140.4870   79.6040  223.8510 C   0  0  0  0  0  0  0  0  0  0  0  0
  139.2360   79.1790  223.4640 C   0  0  0  0  0  0  0  0  0  0  0  0
  139.0890   78.2230  222.4480 C   0  0  0  0  0  0  0  0  0  0  0  0
  141.2750   76.3560  220.0090 C   0  0  0  0  0  0  0  0  0  0  0  0
  142.3080   75.5710  220.4790 C   0  0  0  0  0  0  0  0  0  0  0  0
  143.4610   75.3190  219.7700 C   0  0  0  0  0  0  0  0  0  0  0  0
  143.6350   75.8590  218.5220 C   0  0  0  0  0  0  0  0  0  0  0  0
  142.6290   76.6500  218.0170 C   0  0  0  0  0  0  0  0  0  0  0  0
  141.4730   76.9010  218.7290 C   0  0  0  0  0  0  0  0  0  0  0  0
  140.3510   70.9670  220.8550 C   0  0  0  0  0  0  0  0  0  0  0  0
  139.9030   69.9950  221.9600 C   0  0  0  0  0  0  0  0  0  0  0  0
  136.6967   69.3841  225.8823 H   0  0  0  0  0  0  0  0  0  0  0  0
  136.5432   70.7237  224.6954 H   0  0  0  0  0  0  0  0  0  0  0  0
  135.3484   69.3824  224.6954 H   0  0  0  0  0  0  0  0  0  0  0  0
  136.8987   67.8419  223.8169 H   0  0  0  0  0  0  0  0  0  0  0  0
  137.2018   69.3800  222.9008 H   0  0  0  0  0  0  0  0  0  0  0  0
  139.1038   68.5087  226.4648 H   0  0  0  0  0  0  0  0  0  0  0  0
  139.8568   68.9166  228.8072 H   0  0  0  0  0  0  0  0  0  0  0  0
  141.1329   70.9649  229.3575 H   0  0  0  0  0  0  0  0  0  0  0  0
  141.6613   72.6101  227.5746 H   0  0  0  0  0  0  0  0  0  0  0  0
  140.9137   72.2163  225.2151 H   0  0  0  0  0  0  0  0  0  0  0  0
  140.7869   71.2267  223.3213 H   0  0  0  0  0  0  0  0  0  0  0  0
  137.9027   71.6682  223.8132 H   0  0  0  0  0  0  0  0  0  0  0  0
  139.1893   72.8565  223.4792 H   0  0  0  0  0  0  0  0  0  0  0  0
  137.7367   71.0809  221.4373 H   0  0  0  0  0  0  0  0  0  0  0  0
  137.5953   72.8421  221.5772 H   0  0  0  0  0  0  0  0  0  0  0  0
  138.6944   74.9321  219.3542 H   0  0  0  0  0  0  0  0  0  0  0  0
  137.8778   74.0455  220.7044 H   0  0  0  0  0  0  0  0  0  0  0  0
  138.4263   75.9345  221.7718 H   0  0  0  0  0  0  0  0  0  0  0  0
  139.5360   74.1650  222.8470 H   0  0  0  0  0  0  0  0  0  0  0  0
  140.8080   74.1240  221.7710 H   0  0  0  0  0  0  0  0  0  0  0  0
  139.4202   77.0343  219.8978 H   0  0  0  0  0  0  0  0  0  0  0  0
  142.3182   77.7185  221.7329 H   0  0  0  0  0  0  0  0  0  0  0  0
  142.6129   79.3877  223.5075 H   0  0  0  0  0  0  0  0  0  0  0  0
  140.6021   80.3544  224.6470 H   0  0  0  0  0  0  0  0  0  0  0  0
  138.3435   79.5929  223.9560 H   0  0  0  0  0  0  0  0  0  0  0  0
  138.0795   77.8983  222.1558 H   0  0  0  0  0  0  0  0  0  0  0  0
  142.2043   75.1208  221.4773 H   0  0  0  0  0  0  0  0  0  0  0  0
  144.2449   74.6825  220.2062 H   0  0  0  0  0  0  0  0  0  0  0  0
  144.5500   75.6660  217.9427 H   0  0  0  0  0  0  0  0  0  0  0  0
  142.7490   77.0949  217.0181 H   0  0  0  0  0  0  0  0  0  0  0  0
  140.6935   77.5387  218.2866 H   0  0  0  0  0  0  0  0  0  0  0  0
  140.2649   70.4817  219.8716 H   0  0  0  0  0  0  0  0  0  0  0  0
  141.4000   71.2625  221.0039 H   0  0  0  0  0  0  0  0  0  0  0  0
  138.9323   69.5482  221.6991 H   0  0  0  0  0  0  0  0  0  0  0  0
  140.6293   69.1779  222.0817 H   0  0  0  0  0  0  0  0  0  0  0  0
  1  2  1  0
  2  3  1  0
  3  4  2  0
  3  5  1  0
  5  6  1  0
  6  7  2  0
  7  8  1  0
  8  9  2  0
  9 10  1  0
 10 11  2  0
  5 12  1  0
 12 13  1  0
 13 14  1  0
 14 15  1  0
 15 16  1  0
 16 17  2  0
 16 18  1  0
 18 19  1  0
 19 20  1  0
 19 21  1  0
 21 22  1  0
 22 23  2  0
 23 24  1  0
 24 25  2  0
 25 26  1  0
 26 27  2  0
 21 28  1  0
 28 29  2  0
 29 30  1  0
 30 31  2  0
 31 32  1  0
 32 33  2  0
 15 34  1  0
 34 35  1  0
 11  6  1  0
 35 12  1  0
 27 22  1  0
 33 28  1  0
  1 36  1  0
  1 37  1  0
  1 38  1  0
  2 39  1  0
  2 40  1  0
  7 41  1  0
  8 42  1  0
  9 43  1  0
 10 44  1  0
 11 45  1  0
 12 46  1  0
 13 47  1  0
 13 48  1  0
 14 49  1  0
 14 50  1  0
 18 51  1  0
 18 52  1  0
 19 53  1  1
 20 54  1  0
 20 55  1  0
 21 56  1  0
 23 57  1  0
 24 58  1  0
 25 59  1  0
 26 60  1  0
 27 61  1  0
 29 62  1  0
 30 63  1  0
 31 64  1  0
 32 65  1  0
 33 66  1  0
 34 67  1  0
 34 68  1  0
 35 69  1  0
 35 70  1  0
M  END
>  <smiles>  (70) 
CCC(=O)N(c1ccccc1)C1CCN(C(=O)CC(N)C(c2ccccc2)c2ccccc2)CC1

>  <score_type>  (70) 
oracle

>  <origin>  (70) 
autodockgpu

>  <m_score__min__energy>  (70) 
-8.6099999999999994

>  <m_primary>  (70) 
energy

>  <rmsd>  (70) 
7.615163963380172

>  <m_score__min__rmsd>  (70) 
7.615163963380172

>  <meeko>  (70) 
{"free_energy": -8.53, "intermolecular_energy": -11.51, "internal_energy": -2.62, "cluster_size": 40, "cluster_id": 1, "rank_in_cluster": 8}

>  <energy>  (70) 
-8.17

>  <cluster_rmsd>  (70) 
1.63

>  <cluster>  (70) 
1

$$$$

     RDKit          3D

 70 73  0  0  0  0  0  0  0  0999 V2000
  138.8050   67.1360  222.7320 C   0  0  0  0  0  0  0  0  0  0  0  0
  138.0800   68.3990  222.3280 C   0  0  0  0  0  0  0  0  0  0  0  0
  138.1000   69.4210  223.4030 C   0  0  0  0  0  0  0  0  0  0  0  0
  137.0030   69.6270  223.9980 O   0  0  0  0  0  0  0  0  0  0  0  0
  139.2590   70.1500  223.7730 N   0  0  0  0  0  0  0  0  0  0  0  0
  139.7860   69.8980  225.0730 C   0  0  0  0  0  0  0  0  0  0  0  0
  140.3430   71.0010  225.7270 C   0  0  0  0  0  0  0  0  0  0  0  0
  140.8860   70.8560  227.0040 C   0  0  0  0  0  0  0  0  0  0  0  0
  140.8750   69.6300  227.6190 C   0  0  0  0  0  0  0  0  0  0  0  0
  140.3210   68.5360  226.9670 C   0  0  0  0  0  0  0  0  0  0  0  0
  139.7700   68.6670  225.6810 C   0  0  0  0  0  0  0  0  0  0  0  0
  139.8310   71.0820  222.8430 C   0  0  0  0  0  0  0  0  0  0  0  0
  138.8960   72.2650  222.7560 C   0  0  0  0  0  0  0  0  0  0  0  0
  138.7560   72.6330  221.2960 C   0  0  0  0  0  0  0  0  0  0  0  0
  140.1040   72.8100  220.7920 N   0  0  0  0  0  0  0  0  0  0  0  0
  140.6190   74.0920  220.3940 C   0  0  0  0  0  0  0  0  0  0  0  0
  141.7910   74.1080  219.9790 O   0  0  0  0  0  0  0  0  0  0  0  0
  139.7070   75.2350  220.5210 C   0  0  0  0  0  0  0  0  0  0  0  0
  140.2610   76.2710  221.4310 C   0  0  1  0  0  0  0  0  0  0  0  0
  141.4330   75.6690  222.0790 N   0  0  0  0  0  0  0  0  0  0  0  0
  140.6220   77.5770  220.7930 C   0  0  0  0  0  0  0  0  0  0  0  0
  141.1930   78.4700  221.8650 C   0  0  0  0  0  0  0  0  0  0  0  0
  142.1040   79.4680  221.5770 C   0  0  0  0  0  0  0  0  0  0  0  0
  142.6560   80.2960  222.5310 C   0  0  0  0  0  0  0  0  0  0  0  0
  142.2910   80.1370  223.8610 C   0  0  0  0  0  0  0  0  0  0  0  0
  141.3850   79.1520  224.1870 C   0  0  0  0  0  0  0  0  0  0  0  0
  140.8410   78.3240  223.1930 C   0  0  0  0  0  0  0  0  0  0  0  0
  141.4370   77.5120  219.5850 C   0  0  0  0  0  0  0  0  0  0  0  0
  142.6200   76.8150  219.4530 C   0  0  0  0  0  0  0  0  0  0  0  0
  143.3580   76.7740  218.2910 C   0  0  0  0  0  0  0  0  0  0  0  0
  142.9300   77.4510  217.1780 C   0  0  0  0  0  0  0  0  0  0  0  0
  141.7540   78.1600  217.2690 C   0  0  0  0  0  0  0  0  0  0  0  0
  141.0160   78.1990  218.4340 C   0  0  0  0  0  0  0  0  0  0  0  0
  140.9160   71.5950  220.7100 C   0  0  0  0  0  0  0  0  0  0  0  0
  140.1930   70.4940  221.5050 C   0  0  0  0  0  0  0  0  0  0  0  0
  138.8429   67.0700  223.8294 H   0  0  0  0  0  0  0  0  0  0  0  0
  138.2710   66.2622  222.3303 H   0  0  0  0  0  0  0  0  0  0  0  0
  139.8288   67.1565  222.3303 H   0  0  0  0  0  0  0  0  0  0  0  0
  138.5651   68.8158  221.4330 H   0  0  0  0  0  0  0  0  0  0  0  0
  137.0303   68.1382  222.1276 H   0  0  0  0  0  0  0  0  0  0  0  0
  140.3532   71.9844  225.2342 H   0  0  0  0  0  0  0  0  0  0  0  0
  141.3230   71.7250  227.5177 H   0  0  0  0  0  0  0  0  0  0  0  0
  141.3036   69.5137  228.6254 H   0  0  0  0  0  0  0  0  0  0  0  0
  140.3134   67.5545  227.4636 H   0  0  0  0  0  0  0  0  0  0  0  0
  139.3327   67.7969  225.1694 H   0  0  0  0  0  0  0  0  0  0  0  0
  140.8123   71.4060  223.2198 H   0  0  0  0  0  0  0  0  0  0  0  0
  137.9131   71.9971  223.1709 H   0  0  0  0  0  0  0  0  0  0  0  0
  139.2939   73.1140  223.3312 H   0  0  0  0  0  0  0  0  0  0  0  0
  138.2464   71.8275  220.7470 H   0  0  0  0  0  0  0  0  0  0  0  0
  138.1574   73.5471  221.1688 H   0  0  0  0  0  0  0  0  0  0  0  0
  139.5488   75.6790  219.5271 H   0  0  0  0  0  0  0  0  0  0  0  0
  138.7570   74.8752  220.9430 H   0  0  0  0  0  0  0  0  0  0  0  0
  139.4686   76.5506  222.1409 H   0  0  0  0  0  0  0  0  0  0  0  0
  142.2060   75.6810  221.3820 H   0  0  0  0  0  0  0  0  0  0  0  0
  141.7390   76.2470  222.8790 H   0  0  0  0  0  0  0  0  0  0  0  0
  139.6968   78.0077  220.3826 H   0  0  0  0  0  0  0  0  0  0  0  0
  142.4055   79.6097  220.5286 H   0  0  0  0  0  0  0  0  0  0  0  0
  143.3777   81.0741  222.2416 H   0  0  0  0  0  0  0  0  0  0  0  0
  142.7175   80.7858  224.6402 H   0  0  0  0  0  0  0  0  0  0  0  0
  141.0851   79.0131  225.2362 H   0  0  0  0  0  0  0  0  0  0  0  0
  140.1200   77.5432  223.4769 H   0  0  0  0  0  0  0  0  0  0  0  0
  142.9953   76.2603  220.3256 H   0  0  0  0  0  0  0  0  0  0  0  0
  144.2935   76.1965  218.2556 H   0  0  0  0  0  0  0  0  0  0  0  0
  143.5081   77.4281  216.2424 H   0  0  0  0  0  0  0  0  0  0  0  0
  141.3923   78.7110  216.3883 H   0  0  0  0  0  0  0  0  0  0  0  0
  140.0813   78.7783  218.4622 H   0  0  0  0  0  0  0  0  0  0  0  0
  141.0255   71.2879  219.6594 H   0  0  0  0  0  0  0  0  0  0  0  0
  141.9191   71.7736  221.1245 H   0  0  0  0  0  0  0  0  0  0  0  0
  139.2836   70.1789  220.9724 H   0  0  0  0  0  0  0  0  0  0  0  0
  140.8368   69.6104  221.6260 H   0  0  0  0  0  0  0  0  0  0  0  0
  1  2  1  0
  2  3  1  0
  3  4  2  0
  3  5  1  0
  5  6  1  0
  6  7  2  0
  7  8  1  0
  8  9  2  0
  9 10  1  0
 10 11  2  0
  5 12  1  0
 12 13  1  0
 13 14  1  0
 14 15  1  0
 15 16  1  0
 16 17  2  0
 16 18  1  0
 18 19  1  0
 19 20  1  0
 19 21  1  0
 21 22  1  0
 22 23  2  0
 23 24  1  0
 24 25  2  0
 25 26  1  0
 26 27  2  0
 21 28  1  0
 28 29  2  0
 29 30  1  0
 30 31  2  0
 31 32  1  0
 32 33  2  0
 15 34  1  0
 34 35  1  0
 11  6  1  0
 35 12  1  0
 27 22  1  0
 33 28  1  0
  1 36  1  0
  1 37  1  0
  1 38  1  0
  2 39  1  0
  2 40  1  0
  7 41  1  0
  8 42  1  0
  9 43  1  0
 10 44  1  0
 11 45  1  0
 12 46  1  0
 13 47  1  0
 13 48  1  0
 14 49  1  0
 14 50  1  0
 18 51  1  0
 18 52  1  0
 19 53  1  1
 20 54  1  0
 20 55  1  0
 21 56  1  0
 23 57  1  0
 24 58  1  0
 25 59  1  0
 26 60  1  0
 27 61  1  0
 29 62  1  0
 30 63  1  0
 31 64  1  0
 32 65  1  0
 33 66  1  0
 34 67  1  0
 34 68  1  0
 35 69  1  0
 35 70  1  0
M  END
>  <smiles>  (71) 
CCC(=O)N(c1ccccc1)C1CCN(C(=O)CC(N)C(c2ccccc2)c2ccccc2)CC1

>  <score_type>  (71) 
oracle

>  <origin>  (71) 
autodockgpu

>  <m_score__min__energy>  (71) 
-8.6099999999999994

>  <m_primary>  (71) 
energy

>  <rmsd>  (71) 
8.115359199643214

>  <m_score__min__rmsd>  (71) 
8.115359199643214

>  <meeko>  (71) 
{"free_energy": -8.39, "intermolecular_energy": -11.37, "internal_energy": -2.72, "cluster_size": 40, "cluster_id": 1, "rank_in_cluster": 15}

>  <energy>  (71) 
-8.11

>  <cluster_rmsd>  (71) 
1.84

>  <cluster>  (71) 
1

$$$$

     RDKit          3D

 70 73  0  0  0  0  0  0  0  0999 V2000
  136.8340   71.5130  223.8510 C   0  0  0  0  0  0  0  0  0  0  0  0
  137.3470   70.4170  222.9460 C   0  0  0  0  0  0  0  0  0  0  0  0
  138.7160   69.9830  223.3180 C   0  0  0  0  0  0  0  0  0  0  0  0
  138.9480   68.7420  223.2450 O   0  0  0  0  0  0  0  0  0  0  0  0
  139.7360   70.8750  223.7390 N   0  0  0  0  0  0  0  0  0  0  0  0
  140.0350   70.8920  225.1330 C   0  0  0  0  0  0  0  0  0  0  0  0
  139.5290   69.8220  225.8760 C   0  0  0  0  0  0  0  0  0  0  0  0
  139.7670   69.7500  227.2490 C   0  0  0  0  0  0  0  0  0  0  0  0
  140.4990   70.7300  227.8710 C   0  0  0  0  0  0  0  0  0  0  0  0
  141.0000   71.7920  227.1300 C   0  0  0  0  0  0  0  0  0  0  0  0
  140.7690   71.8780  225.7470 C   0  0  0  0  0  0  0  0  0  0  0  0
  140.4000   71.6940  222.7660 C   0  0  0  0  0  0  0  0  0  0  0  0
  139.5770   72.9490  222.5940 C   0  0  0  0  0  0  0  0  0  0  0  0
  139.4880   73.2400  221.1130 C   0  0  0  0  0  0  0  0  0  0  0  0
  140.8520   73.2650  220.6230 N   0  0  0  0  0  0  0  0  0  0  0  0
  141.4860   74.4700  220.1590 C   0  0  0  0  0  0  0  0  0  0  0  0
  142.6600   74.3560  219.7640 O   0  0  0  0  0  0  0  0  0  0  0  0
  140.6790   75.6960  220.2030 C   0  0  0  0  0  0  0  0  0  0  0  0
  141.3290   76.7410  221.0370 C   0  0  1  0  0  0  0  0  0  0  0  0
  142.5830   77.0900  220.3600 N   0  0  0  0  0  0  0  0  0  0  0  0
  140.5110   77.9670  221.3040 C   0  0  0  0  0  0  0  0  0  0  0  0
  139.1450   77.5180  221.7580 C   0  0  0  0  0  0  0  0  0  0  0  0
  137.9880   78.1150  221.2960 C   0  0  0  0  0  0  0  0  0  0  0  0
  136.7230   77.7400  221.6960 C   0  0  0  0  0  0  0  0  0  0  0  0
  136.5800   76.7080  222.6140 C   0  0  0  0  0  0  0  0  0  0  0  0
  137.7120   76.0880  223.0970 C   0  0  0  0  0  0  0  0  0  0  0  0
  138.9860   76.4940  222.6710 C   0  0  0  0  0  0  0  0  0  0  0  0
  141.1140   78.9800  222.1620 C   0  0  0  0  0  0  0  0  0  0  0  0
  141.5710   78.7740  223.4470 C   0  0  0  0  0  0  0  0  0  0  0  0
  142.1400   79.7590  224.2240 C   0  0  0  0  0  0  0  0  0  0  0  0
  142.2780   81.0310  223.7320 C   0  0  0  0  0  0  0  0  0  0  0  0
  141.8330   81.2790  222.4530 C   0  0  0  0  0  0  0  0  0  0  0  0
  141.2640   80.2900  221.6770 C   0  0  0  0  0  0  0  0  0  0  0  0
  141.5530   71.9800  220.6260 C   0  0  0  0  0  0  0  0  0  0  0  0
  140.7240   70.9980  221.4710 C   0  0  0  0  0  0  0  0  0  0  0  0
  136.9728   71.2164  224.9011 H   0  0  0  0  0  0  0  0  0  0  0  0
  137.3913   72.4410  223.6553 H   0  0  0  0  0  0  0  0  0  0  0  0
  135.7644   71.6795  223.6553 H   0  0  0  0  0  0  0  0  0  0  0  0
  136.6696   69.5531  223.0156 H   0  0  0  0  0  0  0  0  0  0  0  0
  137.3835   70.8131  221.9204 H   0  0  0  0  0  0  0  0  0  0  0  0
  138.9426   69.0358  225.3780 H   0  0  0  0  0  0  0  0  0  0  0  0
  139.3678   68.9076  227.8329 H   0  0  0  0  0  0  0  0  0  0  0  0
  140.6882   70.6744  228.9532 H   0  0  0  0  0  0  0  0  0  0  0  0
  141.5854   72.5762  227.6324 H   0  0  0  0  0  0  0  0  0  0  0  0
  141.1693   72.7212  225.1649 H   0  0  0  0  0  0  0  0  0  0  0  0
  141.4022   71.9500  223.1402 H   0  0  0  0  0  0  0  0  0  0  0  0
  138.5691   72.7958  223.0071 H   0  0  0  0  0  0  0  0  0  0  0  0
  140.0434   73.7918  223.1252 H   0  0  0  0  0  0  0  0  0  0  0  0
  138.9142   72.4520  220.6034 H   0  0  0  0  0  0  0  0  0  0  0  0
  138.9760   74.1947  220.9222 H   0  0  0  0  0  0  0  0  0  0  0  0
  140.5548   76.0801  219.1798 H   0  0  0  0  0  0  0  0  0  0  0  0
  139.7031   75.4534  220.6488 H   0  0  0  0  0  0  0  0  0  0  0  0
  141.4821   76.3203  222.0418 H   0  0  0  0  0  0  0  0  0  0  0  0
  142.9740   77.9200  220.8520 H   0  0  0  0  0  0  0  0  0  0  0  0
  143.2730   76.3270  220.4640 H   0  0  0  0  0  0  0  0  0  0  0  0
  140.4396   78.5266  220.3597 H   0  0  0  0  0  0  0  0  0  0  0  0
  138.0812   78.9350  220.5687 H   0  0  0  0  0  0  0  0  0  0  0  0
  135.8372   78.2524  221.2926 H   0  0  0  0  0  0  0  0  0  0  0  0
  135.5815   76.3912  222.9495 H   0  0  0  0  0  0  0  0  0  0  0  0
  137.6161   75.2673  223.8231 H   0  0  0  0  0  0  0  0  0  0  0  0
  139.8757   75.9866  223.0723 H   0  0  0  0  0  0  0  0  0  0  0  0
  141.4757   77.7655  223.8759 H   0  0  0  0  0  0  0  0  0  0  0  0
  142.4845   79.5242  225.2419 H   0  0  0  0  0  0  0  0  0  0  0  0
  142.7301   81.8285  224.3400 H   0  0  0  0  0  0  0  0  0  0  0  0
  141.9337   82.2929  222.0385 H   0  0  0  0  0  0  0  0  0  0  0  0
  140.9216   80.5317  220.6600 H   0  0  0  0  0  0  0  0  0  0  0  0
  141.6473   71.6021  219.5973 H   0  0  0  0  0  0  0  0  0  0  0  0
  142.5632   72.0928  221.0464 H   0  0  0  0  0  0  0  0  0  0  0  0
  139.7964   70.7344  220.9417 H   0  0  0  0  0  0  0  0  0  0  0  0
  141.2842   70.0693  221.6547 H   0  0  0  0  0  0  0  0  0  0  0  0
  1  2  1  0
  2  3  1  0
  3  4  2  0
  3  5  1  0
  5  6  1  0
  6  7  2  0
  7  8  1  0
  8  9  2  0
  9 10  1  0
 10 11  2  0
  5 12  1  0
 12 13  1  0
 13 14  1  0
 14 15  1  0
 15 16  1  0
 16 17  2  0
 16 18  1  0
 18 19  1  0
 19 20  1  0
 19 21  1  0
 21 22  1  0
 22 23  2  0
 23 24  1  0
 24 25  2  0
 25 26  1  0
 26 27  2  0
 21 28  1  0
 28 29  2  0
 29 30  1  0
 30 31  2  0
 31 32  1  0
 32 33  2  0
 15 34  1  0
 34 35  1  0
 11  6  1  0
 35 12  1  0
 27 22  1  0
 33 28  1  0
  1 36  1  0
  1 37  1  0
  1 38  1  0
  2 39  1  0
  2 40  1  0
  7 41  1  0
  8 42  1  0
  9 43  1  0
 10 44  1  0
 11 45  1  0
 12 46  1  0
 13 47  1  0
 13 48  1  0
 14 49  1  0
 14 50  1  0
 18 51  1  0
 18 52  1  0
 19 53  1  1
 20 54  1  0
 20 55  1  0
 21 56  1  0
 23 57  1  0
 24 58  1  0
 25 59  1  0
 26 60  1  0
 27 61  1  0
 29 62  1  0
 30 63  1  0
 31 64  1  0
 32 65  1  0
 33 66  1  0
 34 67  1  0
 34 68  1  0
 35 69  1  0
 35 70  1  0
M  END
>  <smiles>  (72) 
CCC(=O)N(c1ccccc1)C1CCN(C(=O)CC(N)C(c2ccccc2)c2ccccc2)CC1

>  <score_type>  (72) 
oracle

>  <origin>  (72) 
autodockgpu

>  <m_score__min__energy>  (72) 
-8.6099999999999994

>  <m_primary>  (72) 
energy

>  <rmsd>  (72) 
7.645896171335974

>  <m_score__min__rmsd>  (72) 
7.645896171335974

>  <meeko>  (72) 
{"free_energy": -8.1, "intermolecular_energy": -11.08, "internal_energy": -3.13, "cluster_size": 40, "cluster_id": 1, "rank_in_cluster": 23}

>  <energy>  (72) 
-8.1

>  <cluster_rmsd>  (72) 
1.73

>  <cluster>  (72) 
1

$$$$

     RDKit          3D

 70 73  0  0  0  0  0  0  0  0999 V2000
  136.4860   69.9290  224.1170 C   0  0  0  0  0  0  0  0  0  0  0  0
  137.4750   69.2320  223.2110 C   0  0  0  0  0  0  0  0  0  0  0  0
  138.8100   69.0980  223.8450 C   0  0  0  0  0  0  0  0  0  0  0  0
  139.1920   67.9200  224.0990 O   0  0  0  0  0  0  0  0  0  0  0  0
  139.6420   70.2010  224.1670 N   0  0  0  0  0  0  0  0  0  0  0  0
  139.9840   70.3660  225.5400 C   0  0  0  0  0  0  0  0  0  0  0  0
  140.7220   71.5120  225.8500 C   0  0  0  0  0  0  0  0  0  0  0  0
  141.1070   71.7610  227.1670 C   0  0  0  0  0  0  0  0  0  0  0  0
  140.7610   70.8810  228.1620 C   0  0  0  0  0  0  0  0  0  0  0  0
  140.0290   69.7440  227.8510 C   0  0  0  0  0  0  0  0  0  0  0  0
  139.6330   69.4790  226.5290 C   0  0  0  0  0  0  0  0  0  0  0  0
  140.0880   71.0760  223.1190 C   0  0  0  0  0  0  0  0  0  0  0  0
  139.1270   72.2400  223.0630 C   0  0  0  0  0  0  0  0  0  0  0  0
  138.8160   72.5080  221.6080 C   0  0  0  0  0  0  0  0  0  0  0  0
  140.0950   72.6660  220.9430 N   0  0  0  0  0  0  0  0  0  0  0  0
  140.5380   73.9260  220.4070 C   0  0  0  0  0  0  0  0  0  0  0  0
  141.6560   73.9280  219.8620 O   0  0  0  0  0  0  0  0  0  0  0  0
  139.6240   75.0640  220.5620 C   0  0  0  0  0  0  0  0  0  0  0  0
  140.2160   76.1190  221.4250 C   0  0  1  0  0  0  0  0  0  0  0  0
  141.4400   75.5460  221.9990 N   0  0  0  0  0  0  0  0  0  0  0  0
  140.5070   77.4260  220.7550 C   0  0  0  0  0  0  0  0  0  0  0  0
  140.9680   78.3940  221.8140 C   0  0  0  0  0  0  0  0  0  0  0  0
  140.1920   78.6960  222.9170 C   0  0  0  0  0  0  0  0  0  0  0  0
  140.5750   79.5830  223.9010 C   0  0  0  0  0  0  0  0  0  0  0  0
  141.8050   80.2200  223.7980 C   0  0  0  0  0  0  0  0  0  0  0  0
  142.6060   79.9450  222.7120 C   0  0  0  0  0  0  0  0  0  0  0  0
  142.1870   79.0370  221.7270 C   0  0  0  0  0  0  0  0  0  0  0  0
  141.3730   77.3810  219.5820 C   0  0  0  0  0  0  0  0  0  0  0  0
  142.5800   76.7170  219.5010 C   0  0  0  0  0  0  0  0  0  0  0  0
  143.3660   76.6950  218.3710 C   0  0  0  0  0  0  0  0  0  0  0  0
  142.9660   77.3560  217.2390 C   0  0  0  0  0  0  0  0  0  0  0  0
  141.7670   78.0320  217.2790 C   0  0  0  0  0  0  0  0  0  0  0  0
  140.9810   78.0530  218.4120 C   0  0  0  0  0  0  0  0  0  0  0  0
  140.9160   71.4590  220.8480 C   0  0  0  0  0  0  0  0  0  0  0  0
  140.3090   70.4050  221.7900 C   0  0  0  0  0  0  0  0  0  0  0  0
  136.7542   69.7400  225.1669 H   0  0  0  0  0  0  0  0  0  0  0  0
  136.5094   71.0113  223.9217 H   0  0  0  0  0  0  0  0  0  0  0  0
  135.4746   69.5430  223.9217 H   0  0  0  0  0  0  0  0  0  0  0  0
  137.0925   68.2285  222.9728 H   0  0  0  0  0  0  0  0  0  0  0  0
  137.5900   69.8399  222.3015 H   0  0  0  0  0  0  0  0  0  0  0  0
  140.9995   72.2185  225.0539 H   0  0  0  0  0  0  0  0  0  0  0  0
  141.6882   72.6631  227.4086 H   0  0  0  0  0  0  0  0  0  0  0  0
  141.0628   71.0763  229.2016 H   0  0  0  0  0  0  0  0  0  0  0  0
  139.7548   69.0401  228.6506 H   0  0  0  0  0  0  0  0  0  0  0  0
  139.0516   68.5763  226.2899 H   0  0  0  0  0  0  0  0  0  0  0  0
  141.0993   71.4356  223.3597 H   0  0  0  0  0  0  0  0  0  0  0  0
  138.2026   71.9893  223.6039 H   0  0  0  0  0  0  0  0  0  0  0  0
  139.5711   73.1299  223.5329 H   0  0  0  0  0  0  0  0  0  0  0  0
  138.2627   71.6620  221.1743 H   0  0  0  0  0  0  0  0  0  0  0  0
  138.1899   73.4048  221.4907 H   0  0  0  0  0  0  0  0  0  0  0  0
  139.4110   75.4900  219.5705 H   0  0  0  0  0  0  0  0  0  0  0  0
  138.6998   74.7044  221.0381 H   0  0  0  0  0  0  0  0  0  0  0  0
  139.4667   76.3895  222.1835 H   0  0  0  0  0  0  0  0  0  0  0  0
  142.1470   75.5130  221.2350 H   0  0  0  0  0  0  0  0  0  0  0  0
  141.8180   76.1670  222.7330 H   0  0  0  0  0  0  0  0  0  0  0  0
  139.5700   77.7734  220.2952 H   0  0  0  0  0  0  0  0  0  0  0  0
  139.2145   78.2013  223.0155 H   0  0  0  0  0  0  0  0  0  0  0  0
  139.9143   79.7837  224.7573 H   0  0  0  0  0  0  0  0  0  0  0  0
  142.1334   80.9314  224.5700 H   0  0  0  0  0  0  0  0  0  0  0  0
  143.5829   80.4414  222.6156 H   0  0  0  0  0  0  0  0  0  0  0  0
  142.8432   78.8334  220.8680 H   0  0  0  0  0  0  0  0  0  0  0  0
  142.9342   76.1744  220.3899 H   0  0  0  0  0  0  0  0  0  0  0  0
  144.3185   76.1449  218.3767 H   0  0  0  0  0  0  0  0  0  0  0  0
  143.5827   77.3468  216.3282 H   0  0  0  0  0  0  0  0  0  0  0  0
  141.4266   78.5703  216.3822 H   0  0  0  0  0  0  0  0  0  0  0  0
  140.0301   78.6058  218.3995 H   0  0  0  0  0  0  0  0  0  0  0  0
  140.9123   71.0838  219.8140 H   0  0  0  0  0  0  0  0  0  0  0  0
  141.9559   71.6770  221.1329 H   0  0  0  0  0  0  0  0  0  0  0  0
  139.3519   70.0437  221.3857 H   0  0  0  0  0  0  0  0  0  0  0  0
  140.9801   69.5397  221.8945 H   0  0  0  0  0  0  0  0  0  0  0  0
  1  2  1  0
  2  3  1  0
  3  4  2  0
  3  5  1  0
  5  6  1  0
  6  7  2  0
  7  8  1  0
  8  9  2  0
  9 10  1  0
 10 11  2  0
  5 12  1  0
 12 13  1  0
 13 14  1  0
 14 15  1  0
 15 16  1  0
 16 17  2  0
 16 18  1  0
 18 19  1  0
 19 20  1  0
 19 21  1  0
 21 22  1  0
 22 23  2  0
 23 24  1  0
 24 25  2  0
 25 26  1  0
 26 27  2  0
 21 28  1  0
 28 29  2  0
 29 30  1  0
 30 31  2  0
 31 32  1  0
 32 33  2  0
 15 34  1  0
 34 35  1  0
 11  6  1  0
 35 12  1  0
 27 22  1  0
 33 28  1  0
  1 36  1  0
  1 37  1  0
  1 38  1  0
  2 39  1  0
  2 40  1  0
  7 41  1  0
  8 42  1  0
  9 43  1  0
 10 44  1  0
 11 45  1  0
 12 46  1  0
 13 47  1  0
 13 48  1  0
 14 49  1  0
 14 50  1  0
 18 51  1  0
 18 52  1  0
 19 53  1  1
 20 54  1  0
 20 55  1  0
 21 56  1  0
 23 57  1  0
 24 58  1  0
 25 59  1  0
 26 60  1  0
 27 61  1  0
 29 62  1  0
 30 63  1  0
 31 64  1  0
 32 65  1  0
 33 66  1  0
 34 67  1  0
 34 68  1  0
 35 69  1  0
 35 70  1  0
M  END
>  <smiles>  (73) 
CCC(=O)N(c1ccccc1)C1CCN(C(=O)CC(N)C(c2ccccc2)c2ccccc2)CC1

>  <score_type>  (73) 
oracle

>  <origin>  (73) 
autodockgpu

>  <m_score__min__energy>  (73) 
-8.6099999999999994

>  <m_primary>  (73) 
energy

>  <rmsd>  (73) 
8.17150846631775

>  <m_score__min__rmsd>  (73) 
8.17150846631775

>  <meeko>  (73) 
{"free_energy": -8.61, "intermolecular_energy": -11.59, "internal_energy": -2.82, "cluster_size": 40, "cluster_id": 1, "rank_in_cluster": 1}

>  <energy>  (73) 
-8.1

>  <cluster_rmsd>  (73) 
1.7

>  <cluster>  (73) 
1

$$$$

     RDKit          3D

 70 73  0  0  0  0  0  0  0  0999 V2000
  145.7840   73.0190  221.4890 C   0  0  0  0  0  0  0  0  0  0  0  0
  146.0950   73.4240  220.0670 C   0  0  0  0  0  0  0  0  0  0  0  0
  145.3740   72.5830  219.0790 C   0  0  0  0  0  0  0  0  0  0  0  0
  145.7400   72.7000  217.8740 O   0  0  0  0  0  0  0  0  0  0  0  0
  144.3280   71.6880  219.4230 N   0  0  0  0  0  0  0  0  0  0  0  0
  144.6280   70.2960  219.3540 C   0  0  0  0  0  0  0  0  0  0  0  0
  145.9390   69.9750  218.9900 C   0  0  0  0  0  0  0  0  0  0  0  0
  146.3300   68.6390  218.8940 C   0  0  0  0  0  0  0  0  0  0  0  0
  145.4280   67.6390  219.1570 C   0  0  0  0  0  0  0  0  0  0  0  0
  144.1270   67.9620  219.5190 C   0  0  0  0  0  0  0  0  0  0  0  0
  143.7190   69.3020  219.6210 C   0  0  0  0  0  0  0  0  0  0  0  0
  143.0520   72.2150  219.8140 C   0  0  0  0  0  0  0  0  0  0  0  0
  143.0590   73.6930  219.5060 C   0  0  0  0  0  0  0  0  0  0  0  0
  142.4480   74.4110  220.6880 C   0  0  0  0  0  0  0  0  0  0  0  0
  141.1610   73.7850  220.9200 N   0  0  0  0  0  0  0  0  0  0  0  0
  139.9160   74.4680  220.6920 C   0  0  0  0  0  0  0  0  0  0  0  0
  138.8820   73.8190  220.9300 O   0  0  0  0  0  0  0  0  0  0  0  0
  140.0040   75.8500  220.2050 C   0  0  0  0  0  0  0  0  0  0  0  0
  140.1770   76.8090  221.3270 C   0  0  1  0  0  0  0  0  0  0  0  0
  140.0190   76.0320  222.5630 N   0  0  0  0  0  0  0  0  0  0  0  0
  141.4650   77.5730  221.3430 C   0  0  0  0  0  0  0  0  0  0  0  0
  141.8530   77.8480  219.9120 C   0  0  0  0  0  0  0  0  0  0  0  0
  142.7520   77.0500  219.2310 C   0  0  0  0  0  0  0  0  0  0  0  0
  143.1380   77.2760  217.9270 C   0  0  0  0  0  0  0  0  0  0  0  0
  142.6080   78.3600  217.2410 C   0  0  0  0  0  0  0  0  0  0  0  0
  141.7090   79.1790  217.8870 C   0  0  0  0  0  0  0  0  0  0  0  0
  141.3360   78.9230  219.2150 C   0  0  0  0  0  0  0  0  0  0  0  0
  141.5170   78.7490  222.2030 C   0  0  0  0  0  0  0  0  0  0  0  0
  142.6660   79.3810  222.6320 C   0  0  0  0  0  0  0  0  0  0  0  0
  142.6700   80.4950  223.4410 C   0  0  0  0  0  0  0  0  0  0  0  0
  141.4880   81.0410  223.8690 C   0  0  0  0  0  0  0  0  0  0  0  0
  140.3180   80.4400  223.4650 C   0  0  0  0  0  0  0  0  0  0  0  0
  140.3150   79.3240  222.6530 C   0  0  0  0  0  0  0  0  0  0  0  0
  141.2040   72.4060  221.4070 C   0  0  0  0  0  0  0  0  0  0  0  0
  142.6420   71.8900  221.2250 C   0  0  0  0  0  0  0  0  0  0  0  0
  146.3030   73.6949  222.1846 H   0  0  0  0  0  0  0  0  0  0  0  0
  144.6989   73.0806  221.6588 H   0  0  0  0  0  0  0  0  0  0  0  0
  146.1236   71.9866  221.6588 H   0  0  0  0  0  0  0  0  0  0  0  0
  145.7983   74.4735  219.9237 H   0  0  0  0  0  0  0  0  0  0  0  0
  147.1745   73.2898  219.9039 H   0  0  0  0  0  0  0  0  0  0  0  0
  146.6627   70.7761  218.7792 H   0  0  0  0  0  0  0  0  0  0  0  0
  147.3618   68.3874  218.6074 H   0  0  0  0  0  0  0  0  0  0  0  0
  145.7344   66.5853  219.0813 H   0  0  0  0  0  0  0  0  0  0  0  0
  143.4064   67.1578  219.7286 H   0  0  0  0  0  0  0  0  0  0  0  0
  142.6874   69.5514  219.9102 H   0  0  0  0  0  0  0  0  0  0  0  0
  142.2655   71.7142  219.2304 H   0  0  0  0  0  0  0  0  0  0  0  0
  144.0917   74.0385  219.3505 H   0  0  0  0  0  0  0  0  0  0  0  0
  142.4845   73.8989  218.5908 H   0  0  0  0  0  0  0  0  0  0  0  0
  143.0904   74.3019  221.5742 H   0  0  0  0  0  0  0  0  0  0  0  0
  142.3404   75.4879  220.4911 H   0  0  0  0  0  0  0  0  0  0  0  0
  140.8641   75.9359  219.5246 H   0  0  0  0  0  0  0  0  0  0  0  0
  139.0675   76.0936  219.6819 H   0  0  0  0  0  0  0  0  0  0  0  0
  139.4205   77.5991  221.2112 H   0  0  0  0  0  0  0  0  0  0  0  0
  139.7570   76.7040  223.3130 H   0  0  0  0  0  0  0  0  0  0  0  0
  139.2370   75.3640  222.4710 H   0  0  0  0  0  0  0  0  0  0  0  0
  142.2172   76.9377  221.8335 H   0  0  0  0  0  0  0  0  0  0  0  0
  143.1836   76.1866  219.7584 H   0  0  0  0  0  0  0  0  0  0  0  0
  143.8579   76.6049  217.4357 H   0  0  0  0  0  0  0  0  0  0  0  0
  142.9009   78.5612  216.2000 H   0  0  0  0  0  0  0  0  0  0  0  0
  141.2794   80.0418  217.3569 H   0  0  0  0  0  0  0  0  0  0  0  0
  140.6174   79.5917  219.7113 H   0  0  0  0  0  0  0  0  0  0  0  0
  143.6344   78.9713  222.3091 H   0  0  0  0  0  0  0  0  0  0  0  0
  143.6251   80.9484  223.7449 H   0  0  0  0  0  0  0  0  0  0  0  0
  141.4751   81.9313  224.5149 H   0  0  0  0  0  0  0  0  0  0  0  0
  139.3580   80.8609  223.7986 H   0  0  0  0  0  0  0  0  0  0  0  0
  139.3560   78.8766  222.3526 H   0  0  0  0  0  0  0  0  0  0  0  0
  140.9270   72.3757  222.4711 H   0  0  0  0  0  0  0  0  0  0  0  0
  140.4956   71.7776  220.8473 H   0  0  0  0  0  0  0  0  0  0  0  0
  143.3151   72.3885  221.9381 H   0  0  0  0  0  0  0  0  0  0  0  0
  142.6962   70.8069  221.4095 H   0  0  0  0  0  0  0  0  0  0  0  0
  1  2  1  0
  2  3  1  0
  3  4  2  0
  3  5  1  0
  5  6  1  0
  6  7  2  0
  7  8  1  0
  8  9  2  0
  9 10  1  0
 10 11  2  0
  5 12  1  0
 12 13  1  0
 13 14  1  0
 14 15  1  0
 15 16  1  0
 16 17  2  0
 16 18  1  0
 18 19  1  0
 19 20  1  0
 19 21  1  0
 21 22  1  0
 22 23  2  0
 23 24  1  0
 24 25  2  0
 25 26  1  0
 26 27  2  0
 21 28  1  0
 28 29  2  0
 29 30  1  0
 30 31  2  0
 31 32  1  0
 32 33  2  0
 15 34  1  0
 34 35  1  0
 11  6  1  0
 35 12  1  0
 27 22  1  0
 33 28  1  0
  1 36  1  0
  1 37  1  0
  1 38  1  0
  2 39  1  0
  2 40  1  0
  7 41  1  0
  8 42  1  0
  9 43  1  0
 10 44  1  0
 11 45  1  0
 12 46  1  0
 13 47  1  0
 13 48  1  0
 14 49  1  0
 14 50  1  0
 18 51  1  0
 18 52  1  0
 19 53  1  6
 20 54  1  0
 20 55  1  0
 21 56  1  0
 23 57  1  0
 24 58  1  0
 25 59  1  0
 26 60  1  0
 27 61  1  0
 29 62  1  0
 30 63  1  0
 31 64  1  0
 32 65  1  0
 33 66  1  0
 34 67  1  0
 34 68  1  0
 35 69  1  0
 35 70  1  0
M  END
>  <smiles>  (74) 
CCC(=O)N(c1ccccc1)C1CCN(C(=O)CC(N)C(c2ccccc2)c2ccccc2)CC1

>  <score_type>  (74) 
oracle

>  <origin>  (74) 
autodockgpu

>  <m_score__min__energy>  (74) 
-8.6099999999999994

>  <m_primary>  (74) 
energy

>  <rmsd>  (74) 
9.444678565118934

>  <m_score__min__rmsd>  (74) 
9.444678565118934

>  <meeko>  (74) 
{"free_energy": -8.05, "intermolecular_energy": -11.03, "internal_energy": -2.88, "cluster_size": 2, "cluster_id": 3, "rank_in_cluster": 1}

>  <energy>  (74) 
-8.08

>  <cluster_rmsd>  (74) 
1.78

>  <cluster>  (74) 
1

$$$$

     RDKit          3D

 70 73  0  0  0  0  0  0  0  0999 V2000
  146.6570   73.2780  222.0260 C   0  0  0  0  0  0  0  0  0  0  0  0
  146.1170   74.1050  220.8810 C   0  0  0  0  0  0  0  0  0  0  0  0
  145.8560   73.2810  219.6750 C   0  0  0  0  0  0  0  0  0  0  0  0
  146.6540   73.4380  218.7080 O   0  0  0  0  0  0  0  0  0  0  0  0
  144.7820   72.3590  219.5700 N   0  0  0  0  0  0  0  0  0  0  0  0
  145.0250   71.1780  218.8100 C   0  0  0  0  0  0  0  0  0  0  0  0
  145.9600   70.2900  219.3490 C   0  0  0  0  0  0  0  0  0  0  0  0
  146.2670   69.1060  218.6790 C   0  0  0  0  0  0  0  0  0  0  0  0
  145.6510   68.8110  217.4890 C   0  0  0  0  0  0  0  0  0  0  0  0
  144.7220   69.6960  216.9560 C   0  0  0  0  0  0  0  0  0  0  0  0
  144.4020   70.8920  217.6200 C   0  0  0  0  0  0  0  0  0  0  0  0
  143.5370   72.6540  220.2200 C   0  0  0  0  0  0  0  0  0  0  0  0
  142.7960   71.3480  220.3900 C   0  0  0  0  0  0  0  0  0  0  0  0
  141.3530   71.5870  220.0070 C   0  0  0  0  0  0  0  0  0  0  0  0
  140.9050   72.7150  220.8000 N   0  0  0  0  0  0  0  0  0  0  0  0
  139.9270   72.5860  221.8470 C   0  0  0  0  0  0  0  0  0  0  0  0
  139.6300   73.6310  222.4530 O   0  0  0  0  0  0  0  0  0  0  0  0
  139.3910   71.2400  222.0840 C   0  0  0  0  0  0  0  0  0  0  0  0
  139.8180   70.7120  223.4060 C   0  0  1  0  0  0  0  0  0  0  0  0
  140.0330   71.8810  224.2680 N   0  0  0  0  0  0  0  0  0  0  0  0
  138.8820   69.7400  224.0550 C   0  0  0  0  0  0  0  0  0  0  0  0
  139.5480   69.2280  225.3070 C   0  0  0  0  0  0  0  0  0  0  0  0
  139.9190   67.9050  225.4500 C   0  0  0  0  0  0  0  0  0  0  0  0
  140.5200   67.3990  226.5830 C   0  0  0  0  0  0  0  0  0  0  0  0
  140.7750   68.2470  227.6530 C   0  0  0  0  0  0  0  0  0  0  0  0
  140.4190   69.5730  227.5470 C   0  0  0  0  0  0  0  0  0  0  0  0
  139.8080   70.0580  226.3810 C   0  0  0  0  0  0  0  0  0  0  0  0
  137.5110   70.1900  224.2600 C   0  0  0  0  0  0  0  0  0  0  0  0
  136.4790   69.4220  224.7580 C   0  0  0  0  0  0  0  0  0  0  0  0
  135.1970   69.8890  224.9420 C   0  0  0  0  0  0  0  0  0  0  0  0
  134.8820   71.1840  224.6240 C   0  0  0  0  0  0  0  0  0  0  0  0
  135.8830   71.9850  224.1220 C   0  0  0  0  0  0  0  0  0  0  0  0
  137.1680   71.5150  223.9400 C   0  0  0  0  0  0  0  0  0  0  0  0
  141.5110   74.0050  220.4690 C   0  0  0  0  0  0  0  0  0  0  0  0
  142.7220   73.7330  219.5590 C   0  0  0  0  0  0  0  0  0  0  0  0
  146.3586   73.7350  222.9810 H   0  0  0  0  0  0  0  0  0  0  0  0
  146.2506   72.2577  221.9649 H   0  0  0  0  0  0  0  0  0  0  0  0
  147.7546   73.2397  221.9649 H   0  0  0  0  0  0  0  0  0  0  0  0
  145.1762   74.5788  221.1979 H   0  0  0  0  0  0  0  0  0  0  0  0
  146.8740   74.8592  220.6199 H   0  0  0  0  0  0  0  0  0  0  0  0
  146.4545   70.5253  220.3030 H   0  0  0  0  0  0  0  0  0  0  0  0
  147.0033   68.4084  219.1047 H   0  0  0  0  0  0  0  0  0  0  0  0
  145.8917   67.8776  216.9591 H   0  0  0  0  0  0  0  0  0  0  0  0
  144.2305   69.4570  216.0014 H   0  0  0  0  0  0  0  0  0  0  0  0
  143.6645   71.5880  217.1937 H   0  0  0  0  0  0  0  0  0  0  0  0
  143.7444   73.0995  221.2041 H   0  0  0  0  0  0  0  0  0  0  0  0
  143.2351   70.5799  219.7364 H   0  0  0  0  0  0  0  0  0  0  0  0
  142.8662   70.9969  221.4301 H   0  0  0  0  0  0  0  0  0  0  0  0
  141.2768   71.8205  218.9348 H   0  0  0  0  0  0  0  0  0  0  0  0
  140.7360   70.6957  220.1938 H   0  0  0  0  0  0  0  0  0  0  0  0
  138.2922   71.2816  222.0530 H   0  0  0  0  0  0  0  0  0  0  0  0
  139.7781   70.5703  221.3020 H   0  0  0  0  0  0  0  0  0  0  0  0
  140.7286   70.1149  223.2503 H   0  0  0  0  0  0  0  0  0  0  0  0
  140.8220   72.4210  223.8570 H   0  0  0  0  0  0  0  0  0  0  0  0
  139.2040   72.4980  224.2520 H   0  0  0  0  0  0  0  0  0  0  0  0
  138.7146   68.9196  223.3416 H   0  0  0  0  0  0  0  0  0  0  0  0
  139.7242   67.2173  224.6138 H   0  0  0  0  0  0  0  0  0  0  0  0
  140.7946   66.3353  226.6389 H   0  0  0  0  0  0  0  0  0  0  0  0
  141.2524   67.8665  228.5680 H   0  0  0  0  0  0  0  0  0  0  0  0
  140.6156   70.2585  228.3845 H   0  0  0  0  0  0  0  0  0  0  0  0
  139.5302   71.1206  226.3203 H   0  0  0  0  0  0  0  0  0  0  0  0
  136.6927   68.3761  225.0234 H   0  0  0  0  0  0  0  0  0  0  0  0
  134.4228   69.2200  225.3458 H   0  0  0  0  0  0  0  0  0  0  0  0
  133.8622   71.5712  224.7652 H   0  0  0  0  0  0  0  0  0  0  0  0
  135.6524   73.0279  223.8588 H   0  0  0  0  0  0  0  0  0  0  0  0
  137.9377   72.1897  223.5372 H   0  0  0  0  0  0  0  0  0  0  0  0
  140.7813   74.6377  219.9425 H   0  0  0  0  0  0  0  0  0  0  0  0
  141.8261   74.5288  221.3835 H   0  0  0  0  0  0  0  0  0  0  0  0
  142.3820   73.3961  218.5686 H   0  0  0  0  0  0  0  0  0  0  0  0
  143.3199   74.6456  219.4187 H   0  0  0  0  0  0  0  0  0  0  0  0
  1  2  1  0
  2  3  1  0
  3  4  2  0
  3  5  1  0
  5  6  1  0
  6  7  2  0
  7  8  1  0
  8  9  2  0
  9 10  1  0
 10 11  2  0
  5 12  1  0
 12 13  1  0
 13 14  1  0
 14 15  1  0
 15 16  1  0
 16 17  2  0
 16 18  1  0
 18 19  1  0
 19 20  1  0
 19 21  1  0
 21 22  1  0
 22 23  2  0
 23 24  1  0
 24 25  2  0
 25 26  1  0
 26 27  2  0
 21 28  1  0
 28 29  2  0
 29 30  1  0
 30 31  2  0
 31 32  1  0
 32 33  2  0
 15 34  1  0
 34 35  1  0
 11  6  1  0
 35 12  1  0
 27 22  1  0
 33 28  1  0
  1 36  1  0
  1 37  1  0
  1 38  1  0
  2 39  1  0
  2 40  1  0
  7 41  1  0
  8 42  1  0
  9 43  1  0
 10 44  1  0
 11 45  1  0
 12 46  1  0
 13 47  1  0
 13 48  1  0
 14 49  1  0
 14 50  1  0
 18 51  1  0
 18 52  1  0
 19 53  1  6
 20 54  1  0
 20 55  1  0
 21 56  1  0
 23 57  1  0
 24 58  1  0
 25 59  1  0
 26 60  1  0
 27 61  1  0
 29 62  1  0
 30 63  1  0
 31 64  1  0
 32 65  1  0
 33 66  1  0
 34 67  1  0
 34 68  1  0
 35 69  1  0
 35 70  1  0
M  END
>  <smiles>  (75) 
CCC(=O)N(c1ccccc1)C1CCN(C(=O)CC(N)C(c2ccccc2)c2ccccc2)CC1

>  <score_type>  (75) 
oracle

>  <origin>  (75) 
autodockgpu

>  <m_score__min__energy>  (75) 
-8.6099999999999994

>  <m_primary>  (75) 
energy

>  <rmsd>  (75) 
3.058959553468999

>  <m_score__min__rmsd>  (75) 
3.058959553468999

>  <meeko>  (75) 
{"free_energy": -8.3, "intermolecular_energy": -11.28, "internal_energy": -2.87, "cluster_size": 1, "cluster_id": 2, "rank_in_cluster": 1}

>  <energy>  (75) 
-8.07

>  <cluster_rmsd>  (75) 
1.79

>  <cluster>  (75) 
1

$$$$

     RDKit          3D

 70 73  0  0  0  0  0  0  0  0999 V2000
  136.5160   71.9050  223.3660 C   0  0  0  0  0  0  0  0  0  0  0  0
  137.0840   70.5770  223.8120 C   0  0  0  0  0  0  0  0  0  0  0  0
  138.4240   70.3220  223.2300 C   0  0  0  0  0  0  0  0  0  0  0  0
  138.4800   69.4450  222.3200 O   0  0  0  0  0  0  0  0  0  0  0  0
  139.6020   70.9980  223.6420 N   0  0  0  0  0  0  0  0  0  0  0  0
  140.0010   70.8190  224.9980 C   0  0  0  0  0  0  0  0  0  0  0  0
  140.6930   71.8890  225.5740 C   0  0  0  0  0  0  0  0  0  0  0  0
  141.1270   71.8100  226.8970 C   0  0  0  0  0  0  0  0  0  0  0  0
  140.8750   70.6820  227.6360 C   0  0  0  0  0  0  0  0  0  0  0  0
  140.1870   69.6210  227.0620 C   0  0  0  0  0  0  0  0  0  0  0  0
  139.7430   69.6860  225.7310 C   0  0  0  0  0  0  0  0  0  0  0  0
  140.3170   71.8060  222.6960 C   0  0  0  0  0  0  0  0  0  0  0  0
  139.5020   73.0570  222.4630 C   0  0  0  0  0  0  0  0  0  0  0  0
  139.4930   73.3290  220.9760 C   0  0  0  0  0  0  0  0  0  0  0  0
  140.8810   73.3510  220.5600 N   0  0  0  0  0  0  0  0  0  0  0  0
  141.5370   74.5520  220.1160 C   0  0  0  0  0  0  0  0  0  0  0  0
  142.7310   74.4360  219.7870 O   0  0  0  0  0  0  0  0  0  0  0  0
  140.7270   75.7760  220.1010 C   0  0  0  0  0  0  0  0  0  0  0  0
  141.2970   76.8130  221.0010 C   0  0  1  0  0  0  0  0  0  0  0  0
  142.5910   77.1950  220.4240 N   0  0  0  0  0  0  0  0  0  0  0  0
  140.4420   78.0210  221.2310 C   0  0  0  0  0  0  0  0  0  0  0  0
  139.1040   77.5460  221.7380 C   0  0  0  0  0  0  0  0  0  0  0  0
  137.9230   78.1650  221.3750 C   0  0  0  0  0  0  0  0  0  0  0  0
  136.6820   77.7670  221.8260 C   0  0  0  0  0  0  0  0  0  0  0  0
  136.5900   76.6870  222.6930 C   0  0  0  0  0  0  0  0  0  0  0  0
  137.7460   76.0440  223.0780 C   0  0  0  0  0  0  0  0  0  0  0  0
  138.9940   76.4740  222.6020 C   0  0  0  0  0  0  0  0  0  0  0  0
  141.0270   79.0920  222.0290 C   0  0  0  0  0  0  0  0  0  0  0  0
  141.0520   80.4280  221.6840 C   0  0  0  0  0  0  0  0  0  0  0  0
  141.6110   81.4100  222.4710 C   0  0  0  0  0  0  0  0  0  0  0  0
  142.1860   81.0880  223.6720 C   0  0  0  0  0  0  0  0  0  0  0  0
  142.1830   79.7650  224.0530 C   0  0  0  0  0  0  0  0  0  0  0  0
  141.6220   78.7820  223.2640 C   0  0  0  0  0  0  0  0  0  0  0  0
  141.5830   72.0680  220.6180 C   0  0  0  0  0  0  0  0  0  0  0  0
  140.7110   71.0940  221.4290 C   0  0  0  0  0  0  0  0  0  0  0  0
  136.2579   72.5084  224.2487 H   0  0  0  0  0  0  0  0  0  0  0  0
  137.2642   72.4396  222.7624 H   0  0  0  0  0  0  0  0  0  0  0  0
  135.6126   71.7333  222.7624 H   0  0  0  0  0  0  0  0  0  0  0  0
  137.1674   70.5768  224.9088 H   0  0  0  0  0  0  0  0  0  0  0  0
  136.4061   69.7836  223.4642 H   0  0  0  0  0  0  0  0  0  0  0  0
  140.8953   72.7943  224.9827 H   0  0  0  0  0  0  0  0  0  0  0  0
  141.6716   72.6525  227.3482 H   0  0  0  0  0  0  0  0  0  0  0  0
  141.2167   70.6182  228.6796 H   0  0  0  0  0  0  0  0  0  0  0  0
  139.9871   68.7179  227.6574 H   0  0  0  0  0  0  0  0  0  0  0  0
  139.1972   68.8428  225.2825 H   0  0  0  0  0  0  0  0  0  0  0  0
  141.2970   72.0688  223.1208 H   0  0  0  0  0  0  0  0  0  0  0  0
  138.4734   72.9065  222.8226 H   0  0  0  0  0  0  0  0  0  0  0  0
  139.9374   73.9077  223.0078 H   0  0  0  0  0  0  0  0  0  0  0  0
  138.9488   72.5333  220.4462 H   0  0  0  0  0  0  0  0  0  0  0  0
  138.9907   74.2802  220.7458 H   0  0  0  0  0  0  0  0  0  0  0  0
  140.6941   76.1711  219.0749 H   0  0  0  0  0  0  0  0  0  0  0  0
  139.7158   75.5271  220.4553 H   0  0  0  0  0  0  0  0  0  0  0  0
  141.3831   76.3738  222.0058 H   0  0  0  0  0  0  0  0  0  0  0  0
  142.9700   77.9660  221.0120 H   0  0  0  0  0  0  0  0  0  0  0  0
  143.2600   76.4100  220.4890 H   0  0  0  0  0  0  0  0  0  0  0  0
  140.3300   78.5337  220.2642 H   0  0  0  0  0  0  0  0  0  0  0  0
  137.9757   79.0227  220.6883 H   0  0  0  0  0  0  0  0  0  0  0  0
  135.7755   78.2994  221.5023 H   0  0  0  0  0  0  0  0  0  0  0  0
  135.6114   76.3505  223.0661 H   0  0  0  0  0  0  0  0  0  0  0  0
  137.6902   75.1862  223.7644 H   0  0  0  0  0  0  0  0  0  0  0  0
  139.9039   75.9462  222.9237 H   0  0  0  0  0  0  0  0  0  0  0  0
  140.5999   80.7252  220.7263 H   0  0  0  0  0  0  0  0  0  0  0  0
  141.5958   82.4570  222.1340 H   0  0  0  0  0  0  0  0  0  0  0  0
  142.6358   81.8618  224.3115 H   0  0  0  0  0  0  0  0  0  0  0  0
  142.6405   79.4839  225.0130 H   0  0  0  0  0  0  0  0  0  0  0  0
  141.6407   77.7372  223.6076 H   0  0  0  0  0  0  0  0  0  0  0  0
  141.7343   71.6774  219.6009 H   0  0  0  0  0  0  0  0  0  0  0  0
  142.5683   72.1890  221.0919 H   0  0  0  0  0  0  0  0  0  0  0  0
  139.8136   70.8219  220.8539 H   0  0  0  0  0  0  0  0  0  0  0  0
  141.2614   70.1685  221.6538 H   0  0  0  0  0  0  0  0  0  0  0  0
  1  2  1  0
  2  3  1  0
  3  4  2  0
  3  5  1  0
  5  6  1  0
  6  7  2  0
  7  8  1  0
  8  9  2  0
  9 10  1  0
 10 11  2  0
  5 12  1  0
 12 13  1  0
 13 14  1  0
 14 15  1  0
 15 16  1  0
 16 17  2  0
 16 18  1  0
 18 19  1  0
 19 20  1  0
 19 21  1  0
 21 22  1  0
 22 23  2  0
 23 24  1  0
 24 25  2  0
 25 26  1  0
 26 27  2  0
 21 28  1  0
 28 29  2  0
 29 30  1  0
 30 31  2  0
 31 32  1  0
 32 33  2  0
 15 34  1  0
 34 35  1  0
 11  6  1  0
 35 12  1  0
 27 22  1  0
 33 28  1  0
  1 36  1  0
  1 37  1  0
  1 38  1  0
  2 39  1  0
  2 40  1  0
  7 41  1  0
  8 42  1  0
  9 43  1  0
 10 44  1  0
 11 45  1  0
 12 46  1  0
 13 47  1  0
 13 48  1  0
 14 49  1  0
 14 50  1  0
 18 51  1  0
 18 52  1  0
 19 53  1  1
 20 54  1  0
 20 55  1  0
 21 56  1  0
 23 57  1  0
 24 58  1  0
 25 59  1  0
 26 60  1  0
 27 61  1  0
 29 62  1  0
 30 63  1  0
 31 64  1  0
 32 65  1  0
 33 66  1  0
 34 67  1  0
 34 68  1  0
 35 69  1  0
 35 70  1  0
M  END
>  <smiles>  (76) 
CCC(=O)N(c1ccccc1)C1CCN(C(=O)CC(N)C(c2ccccc2)c2ccccc2)CC1

>  <score_type>  (76) 
oracle

>  <origin>  (76) 
autodockgpu

>  <m_score__min__energy>  (76) 
-8.6099999999999994

>  <m_primary>  (76) 
energy

>  <rmsd>  (76) 
7.654415136737681

>  <m_score__min__rmsd>  (76) 
7.654415136737681

>  <meeko>  (76) 
{"free_energy": -8.03, "intermolecular_energy": -11.01, "internal_energy": -3.21, "cluster_size": 40, "cluster_id": 1, "rank_in_cluster": 28}

>  <energy>  (76) 
-8.06

>  <cluster_rmsd>  (76) 
1.88

>  <cluster>  (76) 
1

$$$$

     RDKit          3D

 70 73  0  0  0  0  0  0  0  0999 V2000
  136.8940   69.8330  224.3710 C   0  0  0  0  0  0  0  0  0  0  0  0
  137.4980   70.3070  223.0690 C   0  0  0  0  0  0  0  0  0  0  0  0
  138.9420   69.9810  222.9740 C   0  0  0  0  0  0  0  0  0  0  0  0
  139.2380   68.9350  222.3300 O   0  0  0  0  0  0  0  0  0  0  0  0
  139.9660   70.7700  223.5610 N   0  0  0  0  0  0  0  0  0  0  0  0
  140.2510   70.5300  224.9360 C   0  0  0  0  0  0  0  0  0  0  0  0
  140.6950   71.6350  225.6670 C   0  0  0  0  0  0  0  0  0  0  0  0
  141.0020   71.5010  227.0210 C   0  0  0  0  0  0  0  0  0  0  0  0
  140.8670   70.2830  227.6380 C   0  0  0  0  0  0  0  0  0  0  0  0
  140.4260   69.1860  226.9090 C   0  0  0  0  0  0  0  0  0  0  0  0
  140.1130   69.3060  225.5450 C   0  0  0  0  0  0  0  0  0  0  0  0
  140.6470   71.7470  222.7590 C   0  0  0  0  0  0  0  0  0  0  0  0
  139.7600   72.9670  222.6820 C   0  0  0  0  0  0  0  0  0  0  0  0
  139.7640   73.4470  221.2490 C   0  0  0  0  0  0  0  0  0  0  0  0
  141.1570   73.6110  220.8810 N   0  0  0  0  0  0  0  0  0  0  0  0
  141.7450   74.9000  220.6300 C   0  0  0  0  0  0  0  0  0  0  0  0
  142.9500   74.9040  220.3230 O   0  0  0  0  0  0  0  0  0  0  0  0
  140.8590   76.0630  220.7640 C   0  0  0  0  0  0  0  0  0  0  0  0
  141.6380   77.3210  220.9150 C   0  0  1  0  0  0  0  0  0  0  0  0
  142.5700   77.3690  219.7830 N   0  0  0  0  0  0  0  0  0  0  0  0
  140.8340   78.5820  220.9930 C   0  0  0  0  0  0  0  0  0  0  0  0
  139.3920   78.1960  221.2060 C   0  0  0  0  0  0  0  0  0  0  0  0
  138.9050   77.8450  222.4500 C   0  0  0  0  0  0  0  0  0  0  0  0
  137.5970   77.4760  222.6810 C   0  0  0  0  0  0  0  0  0  0  0  0
  136.7020   77.4480  221.6200 C   0  0  0  0  0  0  0  0  0  0  0  0
  137.1520   77.7910  220.3640 C   0  0  0  0  0  0  0  0  0  0  0  0
  138.4900   78.1620  220.1610 C   0  0  0  0  0  0  0  0  0  0  0  0
  141.3120   79.6040  221.9180 C   0  0  0  0  0  0  0  0  0  0  0  0
  141.0540   80.9560  221.8220 C   0  0  0  0  0  0  0  0  0  0  0  0
  141.5210   81.8890  222.7210 C   0  0  0  0  0  0  0  0  0  0  0  0
  142.2890   81.4960  223.7860 C   0  0  0  0  0  0  0  0  0  0  0  0
  142.5700   80.1550  223.9170 C   0  0  0  0  0  0  0  0  0  0  0  0
  142.1010   79.2220  223.0160 C   0  0  0  0  0  0  0  0  0  0  0  0
  141.9370   72.3780  220.7770 C   0  0  0  0  0  0  0  0  0  0  0  0
  141.1120   71.2480  221.4170 C   0  0  0  0  0  0  0  0  0  0  0  0
  137.4502   70.2695  225.2136 H   0  0  0  0  0  0  0  0  0  0  0  0
  135.8416   70.1488  224.4234 H   0  0  0  0  0  0  0  0  0  0  0  0
  136.9506   68.7357  224.4234 H   0  0  0  0  0  0  0  0  0  0  0  0
  136.9691   69.8223  222.2351 H   0  0  0  0  0  0  0  0  0  0  0  0
  137.3935   71.4011  223.0249 H   0  0  0  0  0  0  0  0  0  0  0  0
  140.8026   72.6123  225.1738 H   0  0  0  0  0  0  0  0  0  0  0  0
  141.3524   72.3720  227.5942 H   0  0  0  0  0  0  0  0  0  0  0  0
  141.1071   70.1756  228.7061 H   0  0  0  0  0  0  0  0  0  0  0  0
  140.3205   68.2106  227.4064 H   0  0  0  0  0  0  0  0  0  0  0  0
  139.7629   68.4339  224.9733 H   0  0  0  0  0  0  0  0  0  0  0  0
  141.5995   72.0054  223.2448 H   0  0  0  0  0  0  0  0  0  0  0  0
  138.7359   72.7057  222.9869 H   0  0  0  0  0  0  0  0  0  0  0  0
  140.1296   73.7556  223.3540 H   0  0  0  0  0  0  0  0  0  0  0  0
  139.2822   72.7038  220.5966 H   0  0  0  0  0  0  0  0  0  0  0  0
  139.2072   74.3894  221.1405 H   0  0  0  0  0  0  0  0  0  0  0  0
  140.2278   76.1379  219.8663 H   0  0  0  0  0  0  0  0  0  0  0  0
  140.2411   75.9270  221.6638 H   0  0  0  0  0  0  0  0  0  0  0  0
  142.1438   77.2866  221.8912 H   0  0  0  0  0  0  0  0  0  0  0  0
  143.5160   77.1470  220.1580 H   0  0  0  0  0  0  0  0  0  0  0  0
  142.3390   76.6340  219.0940 H   0  0  0  0  0  0  0  0  0  0  0  0
  140.9556   79.1087  220.0350 H   0  0  0  0  0  0  0  0  0  0  0  0
  139.5990   77.8608  223.3033 H   0  0  0  0  0  0  0  0  0  0  0  0
  137.2660   77.2067  223.6949 H   0  0  0  0  0  0  0  0  0  0  0  0
  135.6531   77.1573  221.7793 H   0  0  0  0  0  0  0  0  0  0  0  0
  136.4560   77.7739  219.5123 H   0  0  0  0  0  0  0  0  0  0  0  0
  138.8271   78.4311  219.1491 H   0  0  0  0  0  0  0  0  0  0  0  0
  140.4406   81.3087  220.9798 H   0  0  0  0  0  0  0  0  0  0  0  0
  141.2769   82.9528  222.5839 H   0  0  0  0  0  0  0  0  0  0  0  0
  142.6687   82.2290  224.5129 H   0  0  0  0  0  0  0  0  0  0  0  0
  143.1858   79.8180  224.7639 H   0  0  0  0  0  0  0  0  0  0  0  0
  142.3491   78.1600  223.1596 H   0  0  0  0  0  0  0  0  0  0  0  0
  142.1327   72.1464  219.7196 H   0  0  0  0  0  0  0  0  0  0  0  0
  142.9033   72.4885  221.2909 H   0  0  0  0  0  0  0  0  0  0  0  0
  140.2460   71.0070  220.7830 H   0  0  0  0  0  0  0  0  0  0  0  0
  141.7157   70.3349  221.5258 H   0  0  0  0  0  0  0  0  0  0  0  0
  1  2  1  0
  2  3  1  0
  3  4  2  0
  3  5  1  0
  5  6  1  0
  6  7  2  0
  7  8  1  0
  8  9  2  0
  9 10  1  0
 10 11  2  0
  5 12  1  0
 12 13  1  0
 13 14  1  0
 14 15  1  0
 15 16  1  0
 16 17  2  0
 16 18  1  0
 18 19  1  0
 19 20  1  0
 19 21  1  0
 21 22  1  0
 22 23  2  0
 23 24  1  0
 24 25  2  0
 25 26  1  0
 26 27  2  0
 21 28  1  0
 28 29  2  0
 29 30  1  0
 30 31  2  0
 31 32  1  0
 32 33  2  0
 15 34  1  0
 34 35  1  0
 11  6  1  0
 35 12  1  0
 27 22  1  0
 33 28  1  0
  1 36  1  0
  1 37  1  0
  1 38  1  0
  2 39  1  0
  2 40  1  0
  7 41  1  0
  8 42  1  0
  9 43  1  0
 10 44  1  0
 11 45  1  0
 12 46  1  0
 13 47  1  0
 13 48  1  0
 14 49  1  0
 14 50  1  0
 18 51  1  0
 18 52  1  0
 19 53  1  1
 20 54  1  0
 20 55  1  0
 21 56  1  0
 23 57  1  0
 24 58  1  0
 25 59  1  0
 26 60  1  0
 27 61  1  0
 29 62  1  0
 30 63  1  0
 31 64  1  0
 32 65  1  0
 33 66  1  0
 34 67  1  0
 34 68  1  0
 35 69  1  0
 35 70  1  0
M  END
>  <smiles>  (77) 
CCC(=O)N(c1ccccc1)C1CCN(C(=O)CC(N)C(c2ccccc2)c2ccccc2)CC1

>  <score_type>  (77) 
oracle

>  <origin>  (77) 
autodockgpu

>  <m_score__min__energy>  (77) 
-8.6099999999999994

>  <m_primary>  (77) 
energy

>  <rmsd>  (77) 
8.453078406767213

>  <m_score__min__rmsd>  (77) 
8.453078406767213

>  <meeko>  (77) 
{"free_energy": -7.67, "intermolecular_energy": -10.66, "internal_energy": -3.16, "cluster_size": 40, "cluster_id": 1, "rank_in_cluster": 40}

>  <energy>  (77) 
-8.05

>  <cluster_rmsd>  (77) 
1.94

>  <cluster>  (77) 
1

$$$$

     RDKit          3D

 70 73  0  0  0  0  0  0  0  0999 V2000
  136.9360   71.1740  223.8040 C   0  0  0  0  0  0  0  0  0  0  0  0
  137.7140   69.8990  223.5710 C   0  0  0  0  0  0  0  0  0  0  0  0
  139.0500   70.1620  222.9820 C   0  0  0  0  0  0  0  0  0  0  0  0
  139.3040   69.5760  221.8910 O   0  0  0  0  0  0  0  0  0  0  0  0
  140.0180   71.0130  223.5760 N   0  0  0  0  0  0  0  0  0  0  0  0
  140.3520   70.7490  224.9360 C   0  0  0  0  0  0  0  0  0  0  0  0
  140.7210   71.8620  225.6980 C   0  0  0  0  0  0  0  0  0  0  0  0
  141.0680   71.7070  227.0400 C   0  0  0  0  0  0  0  0  0  0  0  0
  141.0470   70.4610  227.6150 C   0  0  0  0  0  0  0  0  0  0  0  0
  140.6800   69.3580  226.8560 C   0  0  0  0  0  0  0  0  0  0  0  0
  140.3280   69.4980  225.5030 C   0  0  0  0  0  0  0  0  0  0  0  0
  140.5980   72.0700  222.7980 C   0  0  0  0  0  0  0  0  0  0  0  0
  139.4820   73.0070  222.4040 C   0  0  0  0  0  0  0  0  0  0  0  0
  139.6720   73.3620  220.9480 C   0  0  0  0  0  0  0  0  0  0  0  0
  141.0310   73.8550  220.8250 N   0  0  0  0  0  0  0  0  0  0  0  0
  141.3320   75.2300  220.5270 C   0  0  0  0  0  0  0  0  0  0  0  0
  142.5370   75.5240  220.4500 O   0  0  0  0  0  0  0  0  0  0  0  0
  140.1850   76.1290  220.3470 C   0  0  0  0  0  0  0  0  0  0  0  0
  140.1900   77.2200  221.3570 C   0  0  1  0  0  0  0  0  0  0  0  0
  141.2630   76.9000  222.3060 N   0  0  0  0  0  0  0  0  0  0  0  0
  140.3540   78.6080  220.8190 C   0  0  0  0  0  0  0  0  0  0  0  0
  140.9960   79.4450  221.8960 C   0  0  0  0  0  0  0  0  0  0  0  0
  140.2480   80.1260  222.8370 C   0  0  0  0  0  0  0  0  0  0  0  0
  140.8000   80.9090  223.8290 C   0  0  0  0  0  0  0  0  0  0  0  0
  142.1800   81.0340  223.9070 C   0  0  0  0  0  0  0  0  0  0  0  0
  142.9590   80.3690  222.9860 C   0  0  0  0  0  0  0  0  0  0  0  0
  142.3680   79.5800  221.9870 C   0  0  0  0  0  0  0  0  0  0  0  0
  140.9960   78.7330  219.5160 C   0  0  0  0  0  0  0  0  0  0  0  0
  142.2070   78.1750  219.1610 C   0  0  0  0  0  0  0  0  0  0  0  0
  142.7770   78.3120  217.9150 C   0  0  0  0  0  0  0  0  0  0  0  0
  142.1400   79.0370  216.9420 C   0  0  0  0  0  0  0  0  0  0  0  0
  140.9300   79.6120  217.2560 C   0  0  0  0  0  0  0  0  0  0  0  0
  140.3600   79.4720  218.5040 C   0  0  0  0  0  0  0  0  0  0  0  0
  142.0870   72.8630  221.0250 C   0  0  0  0  0  0  0  0  0  0  0  0
  141.4410   71.6090  221.6390 C   0  0  0  0  0  0  0  0  0  0  0  0
  136.8306   71.3468  224.8852 H   0  0  0  0  0  0  0  0  0  0  0  0
  137.4723   72.0193  223.3482 H   0  0  0  0  0  0  0  0  0  0  0  0
  135.9390   71.0837  223.3482 H   0  0  0  0  0  0  0  0  0  0  0  0
  137.8457   69.3826  224.5333 H   0  0  0  0  0  0  0  0  0  0  0  0
  137.1460   69.2797  222.8611 H   0  0  0  0  0  0  0  0  0  0  0  0
  140.7376   72.8612  225.2383 H   0  0  0  0  0  0  0  0  0  0  0  0
  141.3585   72.5836  227.6376 H   0  0  0  0  0  0  0  0  0  0  0  0
  141.3199   70.3367  228.6733 H   0  0  0  0  0  0  0  0  0  0  0  0
  140.6646   68.3609  227.3202 H   0  0  0  0  0  0  0  0  0  0  0  0
  140.0379   68.6199  224.9073 H   0  0  0  0  0  0  0  0  0  0  0  0
  141.3355   72.6035  223.4156 H   0  0  0  0  0  0  0  0  0  0  0  0
  138.5099   72.5119  222.5450 H   0  0  0  0  0  0  0  0  0  0  0  0
  139.5022   73.9133  223.0271 H   0  0  0  0  0  0  0  0  0  0  0  0
  139.5307   72.4721  220.3171 H   0  0  0  0  0  0  0  0  0  0  0  0
  138.9411   74.1162  220.6209 H   0  0  0  0  0  0  0  0  0  0  0  0
  140.2311   76.5717  219.3411 H   0  0  0  0  0  0  0  0  0  0  0  0
  139.2621   75.5438  220.4727 H   0  0  0  0  0  0  0  0  0  0  0  0
  139.1942   77.2498  221.8233 H   0  0  0  0  0  0  0  0  0  0  0  0
  141.2340   75.8720  222.4630 H   0  0  0  0  0  0  0  0  0  0  0  0
  142.1850   77.1170  221.8940 H   0  0  0  0  0  0  0  0  0  0  0  0
  139.3495   78.9875  220.5802 H   0  0  0  0  0  0  0  0  0  0  0  0
  139.1524   80.0389  222.7926 H   0  0  0  0  0  0  0  0  0  0  0  0
  140.1532   81.4291  224.5509 H   0  0  0  0  0  0  0  0  0  0  0  0
  142.6431   81.6527  224.6898 H   0  0  0  0  0  0  0  0  0  0  0  0
  144.0544   80.4571  223.0339 H   0  0  0  0  0  0  0  0  0  0  0  0
  143.0101   79.0586  221.2619 H   0  0  0  0  0  0  0  0  0  0  0  0
  142.7482   77.5869  219.9168 H   0  0  0  0  0  0  0  0  0  0  0  0
  143.7462   77.8382  217.7001 H   0  0  0  0  0  0  0  0  0  0  0  0
  142.5820   79.1555  215.9417 H   0  0  0  0  0  0  0  0  0  0  0  0
  140.4026   80.1997  216.4902 H   0  0  0  0  0  0  0  0  0  0  0  0
  139.3899   79.9474  218.7110 H   0  0  0  0  0  0  0  0  0  0  0  0
  142.5517   72.6109  220.0604 H   0  0  0  0  0  0  0  0  0  0  0  0
  142.8671   73.2599  221.6913 H   0  0  0  0  0  0  0  0  0  0  0  0
  140.8116   71.1039  220.8915 H   0  0  0  0  0  0  0  0  0  0  0  0
  142.2088   70.8951  221.9719 H   0  0  0  0  0  0  0  0  0  0  0  0
  1  2  1  0
  2  3  1  0
  3  4  2  0
  3  5  1  0
  5  6  1  0
  6  7  2  0
  7  8  1  0
  8  9  2  0
  9 10  1  0
 10 11  2  0
  5 12  1  0
 12 13  1  0
 13 14  1  0
 14 15  1  0
 15 16  1  0
 16 17  2  0
 16 18  1  0
 18 19  1  0
 19 20  1  0
 19 21  1  0
 21 22  1  0
 22 23  2  0
 23 24  1  0
 24 25  2  0
 25 26  1  0
 26 27  2  0
 21 28  1  0
 28 29  2  0
 29 30  1  0
 30 31  2  0
 31 32  1  0
 32 33  2  0
 15 34  1  0
 34 35  1  0
 11  6  1  0
 35 12  1  0
 27 22  1  0
 33 28  1  0
  1 36  1  0
  1 37  1  0
  1 38  1  0
  2 39  1  0
  2 40  1  0
  7 41  1  0
  8 42  1  0
  9 43  1  0
 10 44  1  0
 11 45  1  0
 12 46  1  0
 13 47  1  0
 13 48  1  0
 14 49  1  0
 14 50  1  0
 18 51  1  0
 18 52  1  0
 19 53  1  1
 20 54  1  0
 20 55  1  0
 21 56  1  0
 23 57  1  0
 24 58  1  0
 25 59  1  0
 26 60  1  0
 27 61  1  0
 29 62  1  0
 30 63  1  0
 31 64  1  0
 32 65  1  0
 33 66  1  0
 34 67  1  0
 34 68  1  0
 35 69  1  0
 35 70  1  0
M  END
>  <smiles>  (78) 
CCC(=O)N(c1ccccc1)C1CCN(C(=O)CC(N)C(c2ccccc2)c2ccccc2)CC1

>  <score_type>  (78) 
oracle

>  <origin>  (78) 
autodockgpu

>  <m_score__min__energy>  (78) 
-8.6099999999999994

>  <m_primary>  (78) 
energy

>  <rmsd>  (78) 
8.90869192790952

>  <m_score__min__rmsd>  (78) 
8.90869192790952

>  <meeko>  (78) 
{"free_energy": -7.96, "intermolecular_energy": -10.94, "internal_energy": -2.96, "cluster_size": 40, "cluster_id": 1, "rank_in_cluster": 33}

>  <energy>  (78) 
-8.03

>  <cluster_rmsd>  (78) 
1.79

>  <cluster>  (78) 
1

$$$$

     RDKit          3D

 70 73  0  0  0  0  0  0  0  0999 V2000
  136.7420   69.6960  224.3860 C   0  0  0  0  0  0  0  0  0  0  0  0
  137.3270   69.8950  223.0070 C   0  0  0  0  0  0  0  0  0  0  0  0
  138.7950   69.6790  222.9890 C   0  0  0  0  0  0  0  0  0  0  0  0
  139.2050   68.6790  222.3320 O   0  0  0  0  0  0  0  0  0  0  0  0
  139.7220   70.5210  223.6570 N   0  0  0  0  0  0  0  0  0  0  0  0
  140.0210   70.1930  225.0120 C   0  0  0  0  0  0  0  0  0  0  0  0
  139.8680   68.8480  225.3600 C   0  0  0  0  0  0  0  0  0  0  0  0
  140.1360   68.4280  226.6630 C   0  0  0  0  0  0  0  0  0  0  0  0
  140.5500   69.3360  227.6050 C   0  0  0  0  0  0  0  0  0  0  0  0
  140.7020   70.6710  227.2560 C   0  0  0  0  0  0  0  0  0  0  0  0
  140.4370   71.1090  225.9480 C   0  0  0  0  0  0  0  0  0  0  0  0
  140.2980   71.6320  222.9550 C   0  0  0  0  0  0  0  0  0  0  0  0
  139.1940   72.6320  222.7080 C   0  0  0  0  0  0  0  0  0  0  0  0
  139.3270   73.1200  221.2830 C   0  0  0  0  0  0  0  0  0  0  0  0
  140.6930   73.5860  221.1410 N   0  0  0  0  0  0  0  0  0  0  0  0
  141.0230   74.9740  220.9590 C   0  0  0  0  0  0  0  0  0  0  0  0
  142.2320   75.2420  220.8500 O   0  0  0  0  0  0  0  0  0  0  0  0
  139.8980   75.9170  220.9230 C   0  0  0  0  0  0  0  0  0  0  0  0
  140.1500   77.0930  221.7960 C   0  0  1  0  0  0  0  0  0  0  0  0
  141.2810   76.7330  222.6590 N   0  0  0  0  0  0  0  0  0  0  0  0
  140.4130   78.3880  221.0900 C   0  0  0  0  0  0  0  0  0  0  0  0
  141.0470   79.3310  222.0810 C   0  0  0  0  0  0  0  0  0  0  0  0
  140.2910   80.1140  222.9320 C   0  0  0  0  0  0  0  0  0  0  0  0
  140.8350   80.9940  223.8440 C   0  0  0  0  0  0  0  0  0  0  0  0
  142.2150   81.1180  223.9280 C   0  0  0  0  0  0  0  0  0  0  0  0
  143.0020   80.3530  223.0950 C   0  0  0  0  0  0  0  0  0  0  0  0
  142.4180   79.4660  222.1770 C   0  0  0  0  0  0  0  0  0  0  0  0
  141.1230   78.3060  219.8190 C   0  0  0  0  0  0  0  0  0  0  0  0
  142.3290   77.6700  219.6120 C   0  0  0  0  0  0  0  0  0  0  0  0
  142.9640   77.6120  218.3910 C   0  0  0  0  0  0  0  0  0  0  0  0
  142.4010   78.2070  217.2930 C   0  0  0  0  0  0  0  0  0  0  0  0
  141.1980   78.8540  217.4560 C   0  0  0  0  0  0  0  0  0  0  0  0
  140.5630   78.9110  218.6800 C   0  0  0  0  0  0  0  0  0  0  0  0
  141.7260   72.5510  221.1920 C   0  0  0  0  0  0  0  0  0  0  0  0
  141.0710   71.2610  221.7160 C   0  0  0  0  0  0  0  0  0  0  0  0
  137.4961   69.9525  225.1447 H   0  0  0  0  0  0  0  0  0  0  0  0
  135.8628   70.3456  224.5086 H   0  0  0  0  0  0  0  0  0  0  0  0
  136.4413   68.6450  224.5086 H   0  0  0  0  0  0  0  0  0  0  0  0
  136.8547   69.1824  222.3148 H   0  0  0  0  0  0  0  0  0  0  0  0
  137.1329   70.9340  222.7025 H   0  0  0  0  0  0  0  0  0  0  0  0
  139.5358   68.1197  224.6055 H   0  0  0  0  0  0  0  0  0  0  0  0
  140.0155   67.3691  226.9353 H   0  0  0  0  0  0  0  0  0  0  0  0
  140.7607   69.0071  228.6333 H   0  0  0  0  0  0  0  0  0  0  0  0
  141.0344   71.3955  228.0140 H   0  0  0  0  0  0  0  0  0  0  0  0
  140.5605   72.1680  225.6774 H   0  0  0  0  0  0  0  0  0  0  0  0
  141.0804   72.0843  223.5821 H   0  0  0  0  0  0  0  0  0  0  0  0
  138.2146   72.1516  222.8497 H   0  0  0  0  0  0  0  0  0  0  0  0
  139.2712   73.4733  223.4124 H   0  0  0  0  0  0  0  0  0  0  0  0
  139.1291   72.2987  220.5786 H   0  0  0  0  0  0  0  0  0  0  0  0
  138.6054   73.9209  221.0645 H   0  0  0  0  0  0  0  0  0  0  0  0
  139.7536   76.2630  219.8889 H   0  0  0  0  0  0  0  0  0  0  0  0
  138.9994   75.3991  221.2896 H   0  0  0  0  0  0  0  0  0  0  0  0
  139.2257   77.2980  222.3560 H   0  0  0  0  0  0  0  0  0  0  0  0
  141.2440   75.7020  222.7950 H   0  0  0  0  0  0  0  0  0  0  0  0
  142.1760   76.9420  222.1870 H   0  0  0  0  0  0  0  0  0  0  0  0
  139.4429   78.7792  220.7495 H   0  0  0  0  0  0  0  0  0  0  0  0
  139.1954   80.0310  222.8793 H   0  0  0  0  0  0  0  0  0  0  0  0
  140.1824   81.5912  224.4978 H   0  0  0  0  0  0  0  0  0  0  0  0
  142.6720   81.8143  224.6465 H   0  0  0  0  0  0  0  0  0  0  0  0
  144.0973   80.4381  223.1498 H   0  0  0  0  0  0  0  0  0  0  0  0
  143.0657   78.8662  221.5207 H   0  0  0  0  0  0  0  0  0  0  0  0
  142.8115   77.1810  220.4711 H   0  0  0  0  0  0  0  0  0  0  0  0
  143.9258   77.0865  218.2974 H   0  0  0  0  0  0  0  0  0  0  0  0
  142.8956   78.1686  216.3112 H   0  0  0  0  0  0  0  0  0  0  0  0
  140.7294   79.3391  216.5871 H   0  0  0  0  0  0  0  0  0  0  0  0
  139.6019   79.4390  218.7660 H   0  0  0  0  0  0  0  0  0  0  0  0
  142.1357   72.3809  220.1854 H   0  0  0  0  0  0  0  0  0  0  0  0
  142.5491   72.8607  221.8527 H   0  0  0  0  0  0  0  0  0  0  0  0
  140.3915   70.8468  220.9566 H   0  0  0  0  0  0  0  0  0  0  0  0
  141.8308   70.4980  221.9408 H   0  0  0  0  0  0  0  0  0  0  0  0
  1  2  1  0
  2  3  1  0
  3  4  2  0
  3  5  1  0
  5  6  1  0
  6  7  2  0
  7  8  1  0
  8  9  2  0
  9 10  1  0
 10 11  2  0
  5 12  1  0
 12 13  1  0
 13 14  1  0
 14 15  1  0
 15 16  1  0
 16 17  2  0
 16 18  1  0
 18 19  1  0
 19 20  1  0
 19 21  1  0
 21 22  1  0
 22 23  2  0
 23 24  1  0
 24 25  2  0
 25 26  1  0
 26 27  2  0
 21 28  1  0
 28 29  2  0
 29 30  1  0
 30 31  2  0
 31 32  1  0
 32 33  2  0
 15 34  1  0
 34 35  1  0
 11  6  1  0
 35 12  1  0
 27 22  1  0
 33 28  1  0
  1 36  1  0
  1 37  1  0
  1 38  1  0
  2 39  1  0
  2 40  1  0
  7 41  1  0
  8 42  1  0
  9 43  1  0
 10 44  1  0
 11 45  1  0
 12 46  1  0
 13 47  1  0
 13 48  1  0
 14 49  1  0
 14 50  1  0
 18 51  1  0
 18 52  1  0
 19 53  1  1
 20 54  1  0
 20 55  1  0
 21 56  1  0
 23 57  1  0
 24 58  1  0
 25 59  1  0
 26 60  1  0
 27 61  1  0
 29 62  1  0
 30 63  1  0
 31 64  1  0
 32 65  1  0
 33 66  1  0
 34 67  1  0
 34 68  1  0
 35 69  1  0
 35 70  1  0
M  END
>  <smiles>  (79) 
CCC(=O)N(c1ccccc1)C1CCN(C(=O)CC(N)C(c2ccccc2)c2ccccc2)CC1

>  <score_type>  (79) 
oracle

>  <origin>  (79) 
autodockgpu

>  <m_score__min__energy>  (79) 
-8.6099999999999994

>  <m_primary>  (79) 
energy

>  <rmsd>  (79) 
8.806908726694697

>  <m_score__min__rmsd>  (79) 
8.806908726694697

>  <meeko>  (79) 
{"free_energy": -7.98, "intermolecular_energy": -10.96, "internal_energy": -2.98, "cluster_size": 40, "cluster_id": 1, "rank_in_cluster": 31}

>  <energy>  (79) 
-8.0

>  <cluster_rmsd>  (79) 
1.87

>  <cluster>  (79) 
1

$$$$

     RDKit          3D

 70 73  0  0  0  0  0  0  0  0999 V2000
  136.4210   72.2590  223.0570 C   0  0  0  0  0  0  0  0  0  0  0  0
  136.9520   71.0600  223.8070 C   0  0  0  0  0  0  0  0  0  0  0  0
  138.2500   70.5930  223.2610 C   0  0  0  0  0  0  0  0  0  0  0  0
  138.1950   69.6670  222.4010 O   0  0  0  0  0  0  0  0  0  0  0  0
  139.5050   71.1240  223.6560 N   0  0  0  0  0  0  0  0  0  0  0  0
  139.9030   70.8930  225.0050 C   0  0  0  0  0  0  0  0  0  0  0  0
  140.7120   71.8790  225.5770 C   0  0  0  0  0  0  0  0  0  0  0  0
  141.1540   71.7430  226.8930 C   0  0  0  0  0  0  0  0  0  0  0  0
  140.7950   70.6420  227.6280 C   0  0  0  0  0  0  0  0  0  0  0  0
  139.9910   69.6640  227.0570 C   0  0  0  0  0  0  0  0  0  0  0  0
  139.5370   69.7870  225.7330 C   0  0  0  0  0  0  0  0  0  0  0  0
  140.2940   71.8490  222.7010 C   0  0  0  0  0  0  0  0  0  0  0  0
  139.5360   73.1070  222.3500 C   0  0  0  0  0  0  0  0  0  0  0  0
  139.6100   73.2850  220.8510 C   0  0  0  0  0  0  0  0  0  0  0  0
  141.0180   73.2380  220.5070 N   0  0  0  0  0  0  0  0  0  0  0  0
  141.7370   74.3870  220.0260 C   0  0  0  0  0  0  0  0  0  0  0  0
  142.9410   74.2140  219.7670 O   0  0  0  0  0  0  0  0  0  0  0  0
  140.9700   75.6330  219.8930 C   0  0  0  0  0  0  0  0  0  0  0  0
  141.6520   76.7620  220.5790 C   0  0  1  0  0  0  0  0  0  0  0  0
  142.7690   77.1580  219.7140 N   0  0  0  0  0  0  0  0  0  0  0  0
  140.7910   77.9430  220.9070 C   0  0  0  0  0  0  0  0  0  0  0  0
  139.4300   77.4250  221.2990 C   0  0  0  0  0  0  0  0  0  0  0  0
  138.2880   77.7730  220.6040 C   0  0  0  0  0  0  0  0  0  0  0  0
  137.0260   77.3290  220.9380 C   0  0  0  0  0  0  0  0  0  0  0  0
  136.8710   76.4840  222.0290 C   0  0  0  0  0  0  0  0  0  0  0  0
  137.9880   76.1150  222.7470 C   0  0  0  0  0  0  0  0  0  0  0  0
  139.2590   76.5850  222.3820 C   0  0  0  0  0  0  0  0  0  0  0  0
  141.3440   78.9130  221.8460 C   0  0  0  0  0  0  0  0  0  0  0  0
  141.6320   78.6720  223.1730 C   0  0  0  0  0  0  0  0  0  0  0  0
  142.1590   79.6170  224.0250 C   0  0  0  0  0  0  0  0  0  0  0  0
  142.4280   80.8810  223.5710 C   0  0  0  0  0  0  0  0  0  0  0  0
  142.1530   81.1640  222.2530 C   0  0  0  0  0  0  0  0  0  0  0  0
  141.6260   80.2160  221.4000 C   0  0  0  0  0  0  0  0  0  0  0  0
  141.6720   71.9400  220.6800 C   0  0  0  0  0  0  0  0  0  0  0  0
  140.7270   71.0470  221.5030 C   0  0  0  0  0  0  0  0  0  0  0  0
  136.0836   73.0208  223.7752 H   0  0  0  0  0  0  0  0  0  0  0  0
  137.2176   72.6783  222.4248 H   0  0  0  0  0  0  0  0  0  0  0  0
  135.5752   71.9509  222.4248 H   0  0  0  0  0  0  0  0  0  0  0  0
  137.0891   71.3341  224.8634 H   0  0  0  0  0  0  0  0  0  0  0  0
  136.2242   70.2423  223.6993 H   0  0  0  0  0  0  0  0  0  0  0  0
  141.0003   72.7628  224.9889 H   0  0  0  0  0  0  0  0  0  0  0  0
  141.7910   72.5194  227.3417 H   0  0  0  0  0  0  0  0  0  0  0  0
  141.1426   70.5340  228.6660 H   0  0  0  0  0  0  0  0  0  0  0  0
  139.7060   68.7817  227.6489 H   0  0  0  0  0  0  0  0  0  0  0  0
  138.8988   69.0102  225.2866 H   0  0  0  0  0  0  0  0  0  0  0  0
  141.2597   72.1079  223.1597 H   0  0  0  0  0  0  0  0  0  0  0  0
  138.4862   73.0119  222.6646 H   0  0  0  0  0  0  0  0  0  0  0  0
  139.9733   73.9761  222.8632 H   0  0  0  0  0  0  0  0  0  0  0  0
  139.0662   72.4746  220.3435 H   0  0  0  0  0  0  0  0  0  0  0  0
  139.1522   74.2346  220.5370 H   0  0  0  0  0  0  0  0  0  0  0  0
  140.8617   75.8750  218.8254 H   0  0  0  0  0  0  0  0  0  0  0  0
  139.9850   75.4864  220.3603 H   0  0  0  0  0  0  0  0  0  0  0  0
  141.9757   76.4065  221.5684 H   0  0  0  0  0  0  0  0  0  0  0  0
  143.3510   77.8290  220.2570 H   0  0  0  0  0  0  0  0  0  0  0  0
  143.3680   76.3430  219.5030 H   0  0  0  0  0  0  0  0  0  0  0  0
  140.7229   78.5617  220.0001 H   0  0  0  0  0  0  0  0  0  0  0  0
  138.3911   78.4412  219.7363 H   0  0  0  0  0  0  0  0  0  0  0  0
  136.1521   77.6406  220.3470 H   0  0  0  0  0  0  0  0  0  0  0  0
  135.8747   76.1158  222.3150 H   0  0  0  0  0  0  0  0  0  0  0  0
  137.8824   75.4461  223.6139 H   0  0  0  0  0  0  0  0  0  0  0  0
  140.1365   76.2783  222.9701 H   0  0  0  0  0  0  0  0  0  0  0  0
  141.4293   77.6678  223.5737 H   0  0  0  0  0  0  0  0  0  0  0  0
  142.3646   79.3558  225.0736 H   0  0  0  0  0  0  0  0  0  0  0  0
  142.8506   81.6458  224.2392 H   0  0  0  0  0  0  0  0  0  0  0  0
  142.3589   82.1739  221.8686 H   0  0  0  0  0  0  0  0  0  0  0  0
  141.4230   80.4845  220.3528 H   0  0  0  0  0  0  0  0  0  0  0  0
  141.8604   71.4814  219.6981 H   0  0  0  0  0  0  0  0  0  0  0  0
  142.6361   72.0597  221.1959 H   0  0  0  0  0  0  0  0  0  0  0  0
  139.8511   70.7671  220.8994 H   0  0  0  0  0  0  0  0  0  0  0  0
  141.2336   70.1212  221.8132 H   0  0  0  0  0  0  0  0  0  0  0  0
  1  2  1  0
  2  3  1  0
  3  4  2  0
  3  5  1  0
  5  6  1  0
  6  7  2  0
  7  8  1  0
  8  9  2  0
  9 10  1  0
 10 11  2  0
  5 12  1  0
 12 13  1  0
 13 14  1  0
 14 15  1  0
 15 16  1  0
 16 17  2  0
 16 18  1  0
 18 19  1  0
 19 20  1  0
 19 21  1  0
 21 22  1  0
 22 23  2  0
 23 24  1  0
 24 25  2  0
 25 26  1  0
 26 27  2  0
 21 28  1  0
 28 29  2  0
 29 30  1  0
 30 31  2  0
 31 32  1  0
 32 33  2  0
 15 34  1  0
 34 35  1  0
 11  6  1  0
 35 12  1  0
 27 22  1  0
 33 28  1  0
  1 36  1  0
  1 37  1  0
  1 38  1  0
  2 39  1  0
  2 40  1  0
  7 41  1  0
  8 42  1  0
  9 43  1  0
 10 44  1  0
 11 45  1  0
 12 46  1  0
 13 47  1  0
 13 48  1  0
 14 49  1  0
 14 50  1  0
 18 51  1  0
 18 52  1  0
 19 53  1  1
 20 54  1  0
 20 55  1  0
 21 56  1  0
 23 57  1  0
 24 58  1  0
 25 59  1  0
 26 60  1  0
 27 61  1  0
 29 62  1  0
 30 63  1  0
 31 64  1  0
 32 65  1  0
 33 66  1  0
 34 67  1  0
 34 68  1  0
 35 69  1  0
 35 70  1  0
M  END
>  <smiles>  (80) 
CCC(=O)N(c1ccccc1)C1CCN(C(=O)CC(N)C(c2ccccc2)c2ccccc2)CC1

>  <score_type>  (80) 
oracle

>  <origin>  (80) 
autodockgpu

>  <m_score__min__energy>  (80) 
-8.6099999999999994

>  <m_primary>  (80) 
energy

>  <rmsd>  (80) 
7.769092107863511

>  <m_score__min__rmsd>  (80) 
7.769092107863511

>  <meeko>  (80) 
{"free_energy": -7.84, "intermolecular_energy": -10.83, "internal_energy": -3.3, "cluster_size": 40, "cluster_id": 1, "rank_in_cluster": 37}

>  <energy>  (80) 
-7.99

>  <cluster_rmsd>  (80) 
1.77

>  <cluster>  (80) 
1

$$$$

     RDKit          3D

 70 73  0  0  0  0  0  0  0  0999 V2000
  136.7510   71.5200  223.8380 C   0  0  0  0  0  0  0  0  0  0  0  0
  137.2460   70.5670  222.7740 C   0  0  0  0  0  0  0  0  0  0  0  0
  138.6120   70.0670  223.0670 C   0  0  0  0  0  0  0  0  0  0  0  0
  138.8050   68.8310  222.8870 O   0  0  0  0  0  0  0  0  0  0  0  0
  139.6700   70.8930  223.5270 N   0  0  0  0  0  0  0  0  0  0  0  0
  139.9810   70.8200  224.9160 C   0  0  0  0  0  0  0  0  0  0  0  0
  140.7500   71.8720  225.4220 C   0  0  0  0  0  0  0  0  0  0  0  0
  141.1080   71.8910  226.7710 C   0  0  0  0  0  0  0  0  0  0  0  0
  140.7050   70.8760  227.6020 C   0  0  0  0  0  0  0  0  0  0  0  0
  139.9420   69.8330  227.0960 C   0  0  0  0  0  0  0  0  0  0  0  0
  139.5730   69.8000  225.7410 C   0  0  0  0  0  0  0  0  0  0  0  0
  140.3580   71.7400  222.5950 C   0  0  0  0  0  0  0  0  0  0  0  0
  139.5320   72.9940  222.4280 C   0  0  0  0  0  0  0  0  0  0  0  0
  139.4860   73.3200  220.9520 C   0  0  0  0  0  0  0  0  0  0  0  0
  140.8650   73.3650  220.5040 N   0  0  0  0  0  0  0  0  0  0  0  0
  141.5040   74.5840  220.0890 C   0  0  0  0  0  0  0  0  0  0  0  0
  142.6900   74.4870  219.7280 O   0  0  0  0  0  0  0  0  0  0  0  0
  140.6880   75.8040  220.1380 C   0  0  0  0  0  0  0  0  0  0  0  0
  141.2920   76.8230  221.0370 C   0  0  1  0  0  0  0  0  0  0  0  0
  142.5830   77.1870  220.4410 N   0  0  0  0  0  0  0  0  0  0  0  0
  140.4630   78.0430  221.2920 C   0  0  0  0  0  0  0  0  0  0  0  0
  139.1160   77.5880  221.7940 C   0  0  0  0  0  0  0  0  0  0  0  0
  138.9750   76.4760  222.6020 C   0  0  0  0  0  0  0  0  0  0  0  0
  137.7600   76.0240  223.0720 C   0  0  0  0  0  0  0  0  0  0  0  0
  136.6020   76.7060  222.7260 C   0  0  0  0  0  0  0  0  0  0  0  0
  136.7030   77.8190  221.9210 C   0  0  0  0  0  0  0  0  0  0  0  0
  137.9540   78.2550  221.4580 C   0  0  0  0  0  0  0  0  0  0  0  0
  141.0720   79.0880  222.1070 C   0  0  0  0  0  0  0  0  0  0  0  0
  141.1820   80.4180  221.7570 C   0  0  0  0  0  0  0  0  0  0  0  0
  141.7610   81.3750  222.5600 C   0  0  0  0  0  0  0  0  0  0  0  0
  142.2700   81.0310  223.7850 C   0  0  0  0  0  0  0  0  0  0  0  0
  142.1820   79.7130  224.1720 C   0  0  0  0  0  0  0  0  0  0  0  0
  141.6000   78.7560  223.3660 C   0  0  0  0  0  0  0  0  0  0  0  0
  141.5730   72.0840  220.4980 C   0  0  0  0  0  0  0  0  0  0  0  0
  140.7260   71.0770  221.2940 C   0  0  0  0  0  0  0  0  0  0  0  0
  136.9674   71.1034  224.8328 H   0  0  0  0  0  0  0  0  0  0  0  0
  137.2598   72.4890  223.7277 H   0  0  0  0  0  0  0  0  0  0  0  0
  135.6657   71.6610  223.7277 H   0  0  0  0  0  0  0  0  0  0  0  0
  136.5587   69.7100  222.7174 H   0  0  0  0  0  0  0  0  0  0  0  0
  137.2815   71.1125  221.8195 H   0  0  0  0  0  0  0  0  0  0  0  0
  141.0734   72.6858  224.7563 H   0  0  0  0  0  0  0  0  0  0  0  0
  141.7131   72.7194  227.1679 H   0  0  0  0  0  0  0  0  0  0  0  0
  140.9858   70.8890  228.6655 H   0  0  0  0  0  0  0  0  0  0  0  0
  139.6218   69.0209  227.7653 H   0  0  0  0  0  0  0  0  0  0  0  0
  138.9671   68.9708  225.3468 H   0  0  0  0  0  0  0  0  0  0  0  0
  141.3464   71.9935  223.0060 H   0  0  0  0  0  0  0  0  0  0  0  0
  138.5131   72.8248  222.8064 H   0  0  0  0  0  0  0  0  0  0  0  0
  139.9763   73.8266  222.9931 H   0  0  0  0  0  0  0  0  0  0  0  0
  138.9331   72.5410  220.4065 H   0  0  0  0  0  0  0  0  0  0  0  0
  138.9737   74.2760  220.7685 H   0  0  0  0  0  0  0  0  0  0  0  0
  140.6087   76.2229  219.1240 H   0  0  0  0  0  0  0  0  0  0  0  0
  139.6943   75.5412  220.5297 H   0  0  0  0  0  0  0  0  0  0  0  0
  141.3877   76.3736  222.0365 H   0  0  0  0  0  0  0  0  0  0  0  0
  142.9880   77.9430  221.0310 H   0  0  0  0  0  0  0  0  0  0  0  0
  143.2370   76.3880  220.4840 H   0  0  0  0  0  0  0  0  0  0  0  0
  140.3594   78.5743  220.3344 H   0  0  0  0  0  0  0  0  0  0  0  0
  139.8814   75.9211  222.8858 H   0  0  0  0  0  0  0  0  0  0  0  0
  137.7092   75.1324  223.7143 H   0  0  0  0  0  0  0  0  0  0  0  0
  135.6213   76.3639  223.0881 H   0  0  0  0  0  0  0  0  0  0  0  0
  135.7947   78.3713  221.6384 H   0  0  0  0  0  0  0  0  0  0  0  0
  138.0103   79.1455  220.8147 H   0  0  0  0  0  0  0  0  0  0  0  0
  140.7844   80.7318  220.7806 H   0  0  0  0  0  0  0  0  0  0  0  0
  141.8152   82.4188  222.2172 H   0  0  0  0  0  0  0  0  0  0  0  0
  142.7342   81.7844  224.4384 H   0  0  0  0  0  0  0  0  0  0  0  0
  142.5866   79.4145  225.1503 H   0  0  0  0  0  0  0  0  0  0  0  0
  141.5485   77.7143  223.7155 H   0  0  0  0  0  0  0  0  0  0  0  0
  141.7004   71.7313  219.4639 H   0  0  0  0  0  0  0  0  0  0  0  0
  142.5692   72.1926  220.9517 H   0  0  0  0  0  0  0  0  0  0  0  0
  139.8167   70.8202  220.7308 H   0  0  0  0  0  0  0  0  0  0  0  0
  141.2871   70.1479  221.4726 H   0  0  0  0  0  0  0  0  0  0  0  0
  1  2  1  0
  2  3  1  0
  3  4  2  0
  3  5  1  0
  5  6  1  0
  6  7  2  0
  7  8  1  0
  8  9  2  0
  9 10  1  0
 10 11  2  0
  5 12  1  0
 12 13  1  0
 13 14  1  0
 14 15  1  0
 15 16  1  0
 16 17  2  0
 16 18  1  0
 18 19  1  0
 19 20  1  0
 19 21  1  0
 21 22  1  0
 22 23  2  0
 23 24  1  0
 24 25  2  0
 25 26  1  0
 26 27  2  0
 21 28  1  0
 28 29  2  0
 29 30  1  0
 30 31  2  0
 31 32  1  0
 32 33  2  0
 15 34  1  0
 34 35  1  0
 11  6  1  0
 35 12  1  0
 27 22  1  0
 33 28  1  0
  1 36  1  0
  1 37  1  0
  1 38  1  0
  2 39  1  0
  2 40  1  0
  7 41  1  0
  8 42  1  0
  9 43  1  0
 10 44  1  0
 11 45  1  0
 12 46  1  0
 13 47  1  0
 13 48  1  0
 14 49  1  0
 14 50  1  0
 18 51  1  0
 18 52  1  0
 19 53  1  1
 20 54  1  0
 20 55  1  0
 21 56  1  0
 23 57  1  0
 24 58  1  0
 25 59  1  0
 26 60  1  0
 27 61  1  0
 29 62  1  0
 30 63  1  0
 31 64  1  0
 32 65  1  0
 33 66  1  0
 34 67  1  0
 34 68  1  0
 35 69  1  0
 35 70  1  0
M  END
>  <smiles>  (81) 
CCC(=O)N(c1ccccc1)C1CCN(C(=O)CC(N)C(c2ccccc2)c2ccccc2)CC1

>  <score_type>  (81) 
oracle

>  <origin>  (81) 
autodockgpu

>  <m_score__min__energy>  (81) 
-8.6099999999999994

>  <m_primary>  (81) 
energy

>  <rmsd>  (81) 
7.80567243254344

>  <m_score__min__rmsd>  (81) 
7.80567243254344

>  <meeko>  (81) 
{"free_energy": -8.1, "intermolecular_energy": -11.08, "internal_energy": -3.18, "cluster_size": 40, "cluster_id": 1, "rank_in_cluster": 22}

>  <energy>  (81) 
-7.98

>  <cluster_rmsd>  (81) 
1.02

>  <cluster>  (81) 
1

$$$$

     RDKit          3D

 70 73  0  0  0  0  0  0  0  0999 V2000
  136.2120   69.6260  224.9950 C   0  0  0  0  0  0  0  0  0  0  0  0
  137.1440   69.4440  223.8190 C   0  0  0  0  0  0  0  0  0  0  0  0
  138.5450   69.2160  224.2500 C   0  0  0  0  0  0  0  0  0  0  0  0
  138.8590   68.0220  224.5220 O   0  0  0  0  0  0  0  0  0  0  0  0
  139.5100   70.2500  224.3670 N   0  0  0  0  0  0  0  0  0  0  0  0
  139.9770   70.5440  225.6810 C   0  0  0  0  0  0  0  0  0  0  0  0
  139.7070   69.5760  226.6520 C   0  0  0  0  0  0  0  0  0  0  0  0
  140.1230   69.7730  227.9690 C   0  0  0  0  0  0  0  0  0  0  0  0
  140.7970   70.9180  228.3130 C   0  0  0  0  0  0  0  0  0  0  0  0
  141.0630   71.8770  227.3460 C   0  0  0  0  0  0  0  0  0  0  0  0
  140.6520   71.6930  226.0150 C   0  0  0  0  0  0  0  0  0  0  0  0
  139.9570   70.9310  223.1850 C   0  0  0  0  0  0  0  0  0  0  0  0
  139.1720   72.2170  223.0790 C   0  0  0  0  0  0  0  0  0  0  0  0
  138.7440   72.3760  221.6380 C   0  0  0  0  0  0  0  0  0  0  0  0
  139.9520   72.2660  220.8430 N   0  0  0  0  0  0  0  0  0  0  0  0
  140.5080   73.3790  220.1210 C   0  0  0  0  0  0  0  0  0  0  0  0
  141.5480   73.1520  219.4780 O   0  0  0  0  0  0  0  0  0  0  0  0
  139.7880   74.6540  220.2240 C   0  0  0  0  0  0  0  0  0  0  0  0
  140.3230   75.4900  221.3300 C   0  0  1  0  0  0  0  0  0  0  0  0
  141.7860   75.4380  221.2180 N   0  0  0  0  0  0  0  0  0  0  0  0
  139.8440   76.9080  221.3690 C   0  0  0  0  0  0  0  0  0  0  0  0
  138.4770   76.9140  222.0030 C   0  0  0  0  0  0  0  0  0  0  0  0
  137.7550   78.0800  222.1760 C   0  0  0  0  0  0  0  0  0  0  0  0
  136.5070   78.1250  222.7610 C   0  0  0  0  0  0  0  0  0  0  0  0
  135.9240   76.9480  223.2080 C   0  0  0  0  0  0  0  0  0  0  0  0
  136.6130   75.7650  223.0530 C   0  0  0  0  0  0  0  0  0  0  0  0
  137.8820   75.7510  222.4550 C   0  0  0  0  0  0  0  0  0  0  0  0
  140.7600   77.8910  221.9370 C   0  0  0  0  0  0  0  0  0  0  0  0
  141.1760   77.9360  223.2510 C   0  0  0  0  0  0  0  0  0  0  0  0
  142.0480   78.8800  223.7460 C   0  0  0  0  0  0  0  0  0  0  0  0
  142.5550   79.8500  222.9210 C   0  0  0  0  0  0  0  0  0  0  0  0
  142.1640   79.8410  221.6010 C   0  0  0  0  0  0  0  0  0  0  0  0
  141.2910   78.8940  221.1070 C   0  0  0  0  0  0  0  0  0  0  0  0
  140.5780   70.9430  220.8180 C   0  0  0  0  0  0  0  0  0  0  0  0
  139.9330   70.0990  221.9310 C   0  0  0  0  0  0  0  0  0  0  0  0
  136.7778   69.5155  225.9318 H   0  0  0  0  0  0  0  0  0  0  0  0
  135.7621   70.6290  224.9545 H   0  0  0  0  0  0  0  0  0  0  0  0
  135.4178   68.8660  224.9545 H   0  0  0  0  0  0  0  0  0  0  0  0
  136.8081   68.5775  223.2305 H   0  0  0  0  0  0  0  0  0  0  0  0
  137.1188   70.3661  223.2198 H   0  0  0  0  0  0  0  0  0  0  0  0
  139.1662   68.6582  226.3778 H   0  0  0  0  0  0  0  0  0  0  0  0
  139.9106   69.0100  228.7323 H   0  0  0  0  0  0  0  0  0  0  0  0
  141.1250   71.0749  229.3512 H   0  0  0  0  0  0  0  0  0  0  0  0
  141.6030   72.7938  227.6252 H   0  0  0  0  0  0  0  0  0  0  0  0
  140.8672   72.4565  225.2529 H   0  0  0  0  0  0  0  0  0  0  0  0
  141.0295   71.1535  223.2862 H   0  0  0  0  0  0  0  0  0  0  0  0
  138.2865   72.1703  223.7299 H   0  0  0  0  0  0  0  0  0  0  0  0
  139.7880   73.0719  223.3948 H   0  0  0  0  0  0  0  0  0  0  0  0
  138.0323   71.5840  221.3619 H   0  0  0  0  0  0  0  0  0  0  0  0
  138.2418   73.3407  221.4730 H   0  0  0  0  0  0  0  0  0  0  0  0
  139.8943   75.2028  219.2766 H   0  0  0  0  0  0  0  0  0  0  0  0
  138.7298   74.4385  220.4331 H   0  0  0  0  0  0  0  0  0  0  0  0
  139.9461   75.0743  222.2761 H   0  0  0  0  0  0  0  0  0  0  0  0
  142.0060   75.1150  220.2530 H   0  0  0  0  0  0  0  0  0  0  0  0
  142.1880   76.3850  221.3170 H   0  0  0  0  0  0  0  0  0  0  0  0
  139.7901   77.2648  220.3299 H   0  0  0  0  0  0  0  0  0  0  0  0
  138.2003   79.0237  221.8280 H   0  0  0  0  0  0  0  0  0  0  0  0
  135.9794   79.0838  222.8721 H   0  0  0  0  0  0  0  0  0  0  0  0
  134.9294   76.9591  223.6777 H   0  0  0  0  0  0  0  0  0  0  0  0
  136.1641   74.8231  223.4012 H   0  0  0  0  0  0  0  0  0  0  0  0
  138.4145   74.7949  222.3435 H   0  0  0  0  0  0  0  0  0  0  0  0
  140.7891   77.1740  223.9436 H   0  0  0  0  0  0  0  0  0  0  0  0
  142.3385   78.8555  224.8067 H   0  0  0  0  0  0  0  0  0  0  0  0
  143.2520   80.6113  223.3014 H   0  0  0  0  0  0  0  0  0  0  0  0
  142.5588   80.6105  220.9212 H   0  0  0  0  0  0  0  0  0  0  0  0
  141.0053   78.9241  220.0452 H   0  0  0  0  0  0  0  0  0  0  0  0
  140.4087   70.4669  219.8410 H   0  0  0  0  0  0  0  0  0  0  0  0
  141.6630   71.0272  220.9781 H   0  0  0  0  0  0  0  0  0  0  0  0
  138.8957   69.8498  221.6629 H   0  0  0  0  0  0  0  0  0  0  0  0
  140.4805   69.1559  222.0754 H   0  0  0  0  0  0  0  0  0  0  0  0
  1  2  1  0
  2  3  1  0
  3  4  2  0
  3  5  1  0
  5  6  1  0
  6  7  2  0
  7  8  1  0
  8  9  2  0
  9 10  1  0
 10 11  2  0
  5 12  1  0
 12 13  1  0
 13 14  1  0
 14 15  1  0
 15 16  1  0
 16 17  2  0
 16 18  1  0
 18 19  1  0
 19 20  1  0
 19 21  1  0
 21 22  1  0
 22 23  2  0
 23 24  1  0
 24 25  2  0
 25 26  1  0
 26 27  2  0
 21 28  1  0
 28 29  2  0
 29 30  1  0
 30 31  2  0
 31 32  1  0
 32 33  2  0
 15 34  1  0
 34 35  1  0
 11  6  1  0
 35 12  1  0
 27 22  1  0
 33 28  1  0
  1 36  1  0
  1 37  1  0
  1 38  1  0
  2 39  1  0
  2 40  1  0
  7 41  1  0
  8 42  1  0
  9 43  1  0
 10 44  1  0
 11 45  1  0
 12 46  1  0
 13 47  1  0
 13 48  1  0
 14 49  1  0
 14 50  1  0
 18 51  1  0
 18 52  1  0
 19 53  1  1
 20 54  1  0
 20 55  1  0
 21 56  1  0
 23 57  1  0
 24 58  1  0
 25 59  1  0
 26 60  1  0
 27 61  1  0
 29 62  1  0
 30 63  1  0
 31 64  1  0
 32 65  1  0
 33 66  1  0
 34 67  1  0
 34 68  1  0
 35 69  1  0
 35 70  1  0
M  END
>  <smiles>  (82) 
CCC(=O)N(c1ccccc1)C1CCN(C(=O)CC(N)C(c2ccccc2)c2ccccc2)CC1

>  <score_type>  (82) 
oracle

>  <origin>  (82) 
autodockgpu

>  <m_score__min__energy>  (82) 
-8.6099999999999994

>  <m_primary>  (82) 
energy

>  <rmsd>  (82) 
7.1599224581730745

>  <m_score__min__rmsd>  (82) 
7.1599224581730745

>  <meeko>  (82) 
{"free_energy": -8.21, "intermolecular_energy": -11.19, "internal_energy": -2.87, "cluster_size": 40, "cluster_id": 1, "rank_in_cluster": 18}

>  <energy>  (82) 
-7.96

>  <cluster_rmsd>  (82) 
1.87

>  <cluster>  (82) 
1

$$$$

     RDKit          3D

 70 73  0  0  0  0  0  0  0  0999 V2000
  138.6650   68.1710  223.0780 C   0  0  0  0  0  0  0  0  0  0  0  0
  138.1140   69.4080  222.4080 C   0  0  0  0  0  0  0  0  0  0  0  0
  138.2600   70.6140  223.2600 C   0  0  0  0  0  0  0  0  0  0  0  0
  137.1860   71.1710  223.6270 O   0  0  0  0  0  0  0  0  0  0  0  0
  139.5120   71.1470  223.6600 N   0  0  0  0  0  0  0  0  0  0  0  0
  139.8950   70.9320  225.0160 C   0  0  0  0  0  0  0  0  0  0  0  0
  140.7580   71.8870  225.5620 C   0  0  0  0  0  0  0  0  0  0  0  0
  141.1910   71.7640  226.8820 C   0  0  0  0  0  0  0  0  0  0  0  0
  140.7710   70.7050  227.6470 C   0  0  0  0  0  0  0  0  0  0  0  0
  139.9140   69.7580  227.1020 C   0  0  0  0  0  0  0  0  0  0  0  0
  139.4680   69.8690  225.7740 C   0  0  0  0  0  0  0  0  0  0  0  0
  140.3130   71.8570  222.7030 C   0  0  0  0  0  0  0  0  0  0  0  0
  139.5750   73.1270  222.3510 C   0  0  0  0  0  0  0  0  0  0  0  0
  139.6530   73.3010  220.8510 C   0  0  0  0  0  0  0  0  0  0  0  0
  141.0600   73.2300  220.5070 N   0  0  0  0  0  0  0  0  0  0  0  0
  141.7970   74.3670  220.0240 C   0  0  0  0  0  0  0  0  0  0  0  0
  142.9980   74.1730  219.7650 O   0  0  0  0  0  0  0  0  0  0  0  0
  141.0510   75.6240  219.8890 C   0  0  0  0  0  0  0  0  0  0  0  0
  141.7190   76.7300  220.6260 C   0  0  1  0  0  0  0  0  0  0  0  0
  142.8830   77.1190  219.8220 N   0  0  0  0  0  0  0  0  0  0  0  0
  140.8640   77.9210  220.9320 C   0  0  0  0  0  0  0  0  0  0  0  0
  139.4910   77.4190  221.3010 C   0  0  0  0  0  0  0  0  0  0  0  0
  139.2840   76.5820  222.3800 C   0  0  0  0  0  0  0  0  0  0  0  0
  138.0450   76.0950  222.7410 C   0  0  0  0  0  0  0  0  0  0  0  0
  136.9310   76.4510  221.9930 C   0  0  0  0  0  0  0  0  0  0  0  0
  137.0990   77.2840  220.9090 C   0  0  0  0  0  0  0  0  0  0  0  0
  138.3730   77.7630  220.5660 C   0  0  0  0  0  0  0  0  0  0  0  0
  141.4090   78.8900  221.8760 C   0  0  0  0  0  0  0  0  0  0  0  0
  141.6700   78.6530  223.2100 C   0  0  0  0  0  0  0  0  0  0  0  0
  142.1910   79.5960  224.0670 C   0  0  0  0  0  0  0  0  0  0  0  0
  142.4810   80.8560  223.6120 C   0  0  0  0  0  0  0  0  0  0  0  0
  142.2340   81.1350  222.2870 C   0  0  0  0  0  0  0  0  0  0  0  0
  141.7130   80.1880  221.4290 C   0  0  0  0  0  0  0  0  0  0  0  0
  141.6920   71.9220  220.6820 C   0  0  0  0  0  0  0  0  0  0  0  0
  140.7330   71.0460  221.5070 C   0  0  0  0  0  0  0  0  0  0  0  0
  138.6116   68.2909  224.1701 H   0  0  0  0  0  0  0  0  0  0  0  0
  138.0718   67.2953  222.7758 H   0  0  0  0  0  0  0  0  0  0  0  0
  139.7127   68.0262  222.7758 H   0  0  0  0  0  0  0  0  0  0  0  0
  138.6556   69.5720  221.4647 H   0  0  0  0  0  0  0  0  0  0  0  0
  137.0408   69.2472  222.2281 H   0  0  0  0  0  0  0  0  0  0  0  0
  141.0958   72.7362  224.9498 H   0  0  0  0  0  0  0  0  0  0  0  0
  141.8696   72.5164  227.3102 H   0  0  0  0  0  0  0  0  0  0  0  0
  141.1120   70.6066  228.6882 H   0  0  0  0  0  0  0  0  0  0  0  0
  139.5799   68.9099  227.7178 H   0  0  0  0  0  0  0  0  0  0  0  0
  138.7878   69.1166  225.3483 H   0  0  0  0  0  0  0  0  0  0  0  0
  141.2835   72.1006  223.1599 H   0  0  0  0  0  0  0  0  0  0  0  0
  138.5237   73.0492  222.6653 H   0  0  0  0  0  0  0  0  0  0  0  0
  140.0251   73.9899  222.8637 H   0  0  0  0  0  0  0  0  0  0  0  0
  139.0959   72.4989  220.3448 H   0  0  0  0  0  0  0  0  0  0  0  0
  139.2115   74.2578  220.5354 H   0  0  0  0  0  0  0  0  0  0  0  0
  140.9873   75.8903  218.8236 H   0  0  0  0  0  0  0  0  0  0  0  0
  140.0469   75.4796  220.3145 H   0  0  0  0  0  0  0  0  0  0  0  0
  141.9884   76.3533  221.6238 H   0  0  0  0  0  0  0  0  0  0  0  0
  143.5890   77.5110  220.4780 H   0  0  0  0  0  0  0  0  0  0  0  0
  143.3100   76.2880  219.3810 H   0  0  0  0  0  0  0  0  0  0  0  0
  140.8191   78.5355  220.0208 H   0  0  0  0  0  0  0  0  0  0  0  0
  140.1547   76.2877  222.9844 H   0  0  0  0  0  0  0  0  0  0  0  0
  137.9407   75.4316  223.6123 H   0  0  0  0  0  0  0  0  0  0  0  0
  135.9327   76.0748  222.2610 H   0  0  0  0  0  0  0  0  0  0  0  0
  136.2265   77.5766  220.3064 H   0  0  0  0  0  0  0  0  0  0  0  0
  138.4834   78.4254  219.6947 H   0  0  0  0  0  0  0  0  0  0  0  0
  141.4491   77.6531  223.6118 H   0  0  0  0  0  0  0  0  0  0  0  0
  142.3751   79.3375  225.1202 H   0  0  0  0  0  0  0  0  0  0  0  0
  142.8980   81.6201  224.2845 H   0  0  0  0  0  0  0  0  0  0  0  0
  142.4580   82.1405  221.9014 H   0  0  0  0  0  0  0  0  0  0  0  0
  141.5324   80.4533  220.3769 H   0  0  0  0  0  0  0  0  0  0  0  0
  141.8723   71.4587  219.7008 H   0  0  0  0  0  0  0  0  0  0  0  0
  142.6581   72.0267  221.1974 H   0  0  0  0  0  0  0  0  0  0  0  0
  139.8526   70.7788  220.9040 H   0  0  0  0  0  0  0  0  0  0  0  0
  141.2249   70.1130  221.8192 H   0  0  0  0  0  0  0  0  0  0  0  0
  1  2  1  0
  2  3  1  0
  3  4  2  0
  3  5  1  0
  5  6  1  0
  6  7  2  0
  7  8  1  0
  8  9  2  0
  9 10  1  0
 10 11  2  0
  5 12  1  0
 12 13  1  0
 13 14  1  0
 14 15  1  0
 15 16  1  0
 16 17  2  0
 16 18  1  0
 18 19  1  0
 19 20  1  0
 19 21  1  0
 21 22  1  0
 22 23  2  0
 23 24  1  0
 24 25  2  0
 25 26  1  0
 26 27  2  0
 21 28  1  0
 28 29  2  0
 29 30  1  0
 30 31  2  0
 31 32  1  0
 32 33  2  0
 15 34  1  0
 34 35  1  0
 11  6  1  0
 35 12  1  0
 27 22  1  0
 33 28  1  0
  1 36  1  0
  1 37  1  0
  1 38  1  0
  2 39  1  0
  2 40  1  0
  7 41  1  0
  8 42  1  0
  9 43  1  0
 10 44  1  0
 11 45  1  0
 12 46  1  0
 13 47  1  0
 13 48  1  0
 14 49  1  0
 14 50  1  0
 18 51  1  0
 18 52  1  0
 19 53  1  1
 20 54  1  0
 20 55  1  0
 21 56  1  0
 23 57  1  0
 24 58  1  0
 25 59  1  0
 26 60  1  0
 27 61  1  0
 29 62  1  0
 30 63  1  0
 31 64  1  0
 32 65  1  0
 33 66  1  0
 34 67  1  0
 34 68  1  0
 35 69  1  0
 35 70  1  0
M  END
>  <smiles>  (83) 
CCC(=O)N(c1ccccc1)C1CCN(C(=O)CC(N)C(c2ccccc2)c2ccccc2)CC1

>  <score_type>  (83) 
oracle

>  <origin>  (83) 
autodockgpu

>  <m_score__min__energy>  (83) 
-8.6099999999999994

>  <m_primary>  (83) 
energy

>  <rmsd>  (83) 
7.873199337303189

>  <m_score__min__rmsd>  (83) 
7.873199337303189

>  <meeko>  (83) 
{"free_energy": -7.96, "intermolecular_energy": -10.95, "internal_energy": -3.2, "cluster_size": 40, "cluster_id": 1, "rank_in_cluster": 32}

>  <energy>  (83) 
-7.96

>  <cluster_rmsd>  (83) 
1.25

>  <cluster>  (83) 
1

$$$$

     RDKit          3D

 70 73  0  0  0  0  0  0  0  0999 V2000
  136.4120   69.6360  224.7950 C   0  0  0  0  0  0  0  0  0  0  0  0
  137.1680   69.4920  223.4950 C   0  0  0  0  0  0  0  0  0  0  0  0
  138.6030   69.1840  223.7170 C   0  0  0  0  0  0  0  0  0  0  0  0
  138.9450   67.9760  223.5630 O   0  0  0  0  0  0  0  0  0  0  0  0
  139.5680   70.1570  224.0840 N   0  0  0  0  0  0  0  0  0  0  0  0
  140.0080   70.1420  225.4390 C   0  0  0  0  0  0  0  0  0  0  0  0
  139.9670   68.9000  226.0780 C   0  0  0  0  0  0  0  0  0  0  0  0
  140.3760   68.7830  227.4070 C   0  0  0  0  0  0  0  0  0  0  0  0
  140.8190   69.8880  228.0890 C   0  0  0  0  0  0  0  0  0  0  0  0
  140.8580   71.1210  227.4510 C   0  0  0  0  0  0  0  0  0  0  0  0
  140.4500   71.2540  226.1130 C   0  0  0  0  0  0  0  0  0  0  0  0
  140.0430   71.0840  223.0960 C   0  0  0  0  0  0  0  0  0  0  0  0
  139.0880   72.2530  223.0770 C   0  0  0  0  0  0  0  0  0  0  0  0
  138.8160   72.6000  221.6310 C   0  0  0  0  0  0  0  0  0  0  0  0
  140.1120   72.7880  221.0090 N   0  0  0  0  0  0  0  0  0  0  0  0
  140.5730   74.0720  220.5530 C   0  0  0  0  0  0  0  0  0  0  0  0
  141.7040   74.0980  220.0370 O   0  0  0  0  0  0  0  0  0  0  0  0
  139.6580   75.2040  220.7450 C   0  0  0  0  0  0  0  0  0  0  0  0
  140.2720   76.2560  221.5980 C   0  0  1  0  0  0  0  0  0  0  0  0
  141.4620   75.6510  222.2080 N   0  0  0  0  0  0  0  0  0  0  0  0
  140.6230   77.5370  220.9070 C   0  0  0  0  0  0  0  0  0  0  0  0
  141.2520   78.4520  221.9270 C   0  0  0  0  0  0  0  0  0  0  0  0
  142.1630   79.4270  221.5710 C   0  0  0  0  0  0  0  0  0  0  0  0
  142.7660   80.2750  222.4760 C   0  0  0  0  0  0  0  0  0  0  0  0
  142.4570   80.1600  223.8240 C   0  0  0  0  0  0  0  0  0  0  0  0
  141.5520   79.1980  224.2170 C   0  0  0  0  0  0  0  0  0  0  0  0
  140.9560   78.3490  223.2720 C   0  0  0  0  0  0  0  0  0  0  0  0
  141.3860   77.4230  219.6690 C   0  0  0  0  0  0  0  0  0  0  0  0
  140.9790   77.8750  218.4310 C   0  0  0  0  0  0  0  0  0  0  0  0
  141.7340   77.7530  217.2860 C   0  0  0  0  0  0  0  0  0  0  0  0
  142.9650   77.1530  217.3320 C   0  0  0  0  0  0  0  0  0  0  0  0
  143.4080   76.6870  218.5490 C   0  0  0  0  0  0  0  0  0  0  0  0
  142.6510   76.8110  219.6950 C   0  0  0  0  0  0  0  0  0  0  0  0
  140.9320   71.5840  220.8710 C   0  0  0  0  0  0  0  0  0  0  0  0
  140.2970   70.4840  221.7390 C   0  0  0  0  0  0  0  0  0  0  0  0
  137.1052   69.5040  225.6388 H   0  0  0  0  0  0  0  0  0  0  0  0
  135.9582   70.6367  224.8464 H   0  0  0  0  0  0  0  0  0  0  0  0
  135.6221   68.8722  224.8464 H   0  0  0  0  0  0  0  0  0  0  0  0
  136.7164   68.6773  222.9100 H   0  0  0  0  0  0  0  0  0  0  0  0
  137.1054   70.4499  222.9578 H   0  0  0  0  0  0  0  0  0  0  0  0
  139.6118   68.0132  225.5326 H   0  0  0  0  0  0  0  0  0  0  0  0
  140.3432   67.8043  227.9081 H   0  0  0  0  0  0  0  0  0  0  0  0
  141.1419   69.7977  229.1367 H   0  0  0  0  0  0  0  0  0  0  0  0
  141.2131   72.0053  228.0005 H   0  0  0  0  0  0  0  0  0  0  0  0
  140.4841   72.2333  225.6133 H   0  0  0  0  0  0  0  0  0  0  0  0
  141.0488   71.4256  223.3818 H   0  0  0  0  0  0  0  0  0  0  0  0
  138.1489   71.9779  223.5794 H   0  0  0  0  0  0  0  0  0  0  0  0
  139.5227   73.1145  223.6050 H   0  0  0  0  0  0  0  0  0  0  0  0
  138.2718   71.7808  221.1382 H   0  0  0  0  0  0  0  0  0  0  0  0
  138.1957   73.5045  221.5459 H   0  0  0  0  0  0  0  0  0  0  0  0
  139.4121   75.6365  219.7639 H   0  0  0  0  0  0  0  0  0  0  0  0
  138.7507   74.8360  221.2464 H   0  0  0  0  0  0  0  0  0  0  0  0
  139.5191   76.5704  222.3357 H   0  0  0  0  0  0  0  0  0  0  0  0
  142.2000   75.6260  221.4750 H   0  0  0  0  0  0  0  0  0  0  0  0
  141.8170   76.2480  222.9730 H   0  0  0  0  0  0  0  0  0  0  0  0
  139.6875   77.9703  220.5235 H   0  0  0  0  0  0  0  0  0  0  0  0
  142.4218   79.5330  220.5071 H   0  0  0  0  0  0  0  0  0  0  0  0
  143.4842   81.0344  222.1331 H   0  0  0  0  0  0  0  0  0  0  0  0
  142.9257   80.8243  224.5649 H   0  0  0  0  0  0  0  0  0  0  0  0
  141.2944   79.0947  225.2814 H   0  0  0  0  0  0  0  0  0  0  0  0
  140.2387   77.5862  223.6092 H   0  0  0  0  0  0  0  0  0  0  0  0
  139.9950   78.3607  218.3540 H   0  0  0  0  0  0  0  0  0  0  0  0
  141.3475   78.1386  216.3310 H   0  0  0  0  0  0  0  0  0  0  0  0
  143.5793   77.0472  216.4257 H   0  0  0  0  0  0  0  0  0  0  0  0
  144.3935   76.2021  218.6092 H   0  0  0  0  0  0  0  0  0  0  0  0
  143.0443   76.4240  220.6466 H   0  0  0  0  0  0  0  0  0  0  0  0
  140.9546   71.2646  219.8186 H   0  0  0  0  0  0  0  0  0  0  0  0
  141.9647   71.7819  221.1942 H   0  0  0  0  0  0  0  0  0  0  0  0
  139.3498   70.1493  221.2909 H   0  0  0  0  0  0  0  0  0  0  0  0
  140.9624   69.6113  221.8146 H   0  0  0  0  0  0  0  0  0  0  0  0
  1  2  1  0
  2  3  1  0
  3  4  2  0
  3  5  1  0
  5  6  1  0
  6  7  2  0
  7  8  1  0
  8  9  2  0
  9 10  1  0
 10 11  2  0
  5 12  1  0
 12 13  1  0
 13 14  1  0
 14 15  1  0
 15 16  1  0
 16 17  2  0
 16 18  1  0
 18 19  1  0
 19 20  1  0
 19 21  1  0
 21 22  1  0
 22 23  2  0
 23 24  1  0
 24 25  2  0
 25 26  1  0
 26 27  2  0
 21 28  1  0
 28 29  2  0
 29 30  1  0
 30 31  2  0
 31 32  1  0
 32 33  2  0
 15 34  1  0
 34 35  1  0
 11  6  1  0
 35 12  1  0
 27 22  1  0
 33 28  1  0
  1 36  1  0
  1 37  1  0
  1 38  1  0
  2 39  1  0
  2 40  1  0
  7 41  1  0
  8 42  1  0
  9 43  1  0
 10 44  1  0
 11 45  1  0
 12 46  1  0
 13 47  1  0
 13 48  1  0
 14 49  1  0
 14 50  1  0
 18 51  1  0
 18 52  1  0
 19 53  1  1
 20 54  1  0
 20 55  1  0
 21 56  1  0
 23 57  1  0
 24 58  1  0
 25 59  1  0
 26 60  1  0
 27 61  1  0
 29 62  1  0
 30 63  1  0
 31 64  1  0
 32 65  1  0
 33 66  1  0
 34 67  1  0
 34 68  1  0
 35 69  1  0
 35 70  1  0
M  END
>  <smiles>  (84) 
CCC(=O)N(c1ccccc1)C1CCN(C(=O)CC(N)C(c2ccccc2)c2ccccc2)CC1

>  <score_type>  (84) 
oracle

>  <origin>  (84) 
autodockgpu

>  <m_score__min__energy>  (84) 
-8.6099999999999994

>  <m_primary>  (84) 
energy

>  <rmsd>  (84) 
8.11534031865399

>  <m_score__min__rmsd>  (84) 
8.11534031865399

>  <meeko>  (84) 
{"free_energy": -8.57, "intermolecular_energy": -11.55, "internal_energy": -2.76, "cluster_size": 40, "cluster_id": 1, "rank_in_cluster": 5}

>  <energy>  (84) 
-7.94

>  <cluster_rmsd>  (84) 
1.72

>  <cluster>  (84) 
1

$$$$

     RDKit          3D

 70 73  0  0  0  0  0  0  0  0999 V2000
  136.6000   70.4180  224.1530 C   0  0  0  0  0  0  0  0  0  0  0  0
  137.2610   71.4550  223.2740 C   0  0  0  0  0  0  0  0  0  0  0  0
  138.5820   71.0000  222.7750 C   0  0  0  0  0  0  0  0  0  0  0  0
  138.5630   70.1950  221.8000 O   0  0  0  0  0  0  0  0  0  0  0  0
  139.8190   71.4170  223.3310 N   0  0  0  0  0  0  0  0  0  0  0  0
  140.1140   70.9610  224.6490 C   0  0  0  0  0  0  0  0  0  0  0  0
  140.7510   71.8840  225.4820 C   0  0  0  0  0  0  0  0  0  0  0  0
  141.0840   71.5320  226.7910 C   0  0  0  0  0  0  0  0  0  0  0  0
  140.7840   70.2790  227.2610 C   0  0  0  0  0  0  0  0  0  0  0  0
  140.1510   69.3640  226.4310 C   0  0  0  0  0  0  0  0  0  0  0  0
  139.8100   69.7040  225.1110 C   0  0  0  0  0  0  0  0  0  0  0  0
  140.6910   72.2550  222.5590 C   0  0  0  0  0  0  0  0  0  0  0  0
  139.8720   73.4230  222.0610 C   0  0  0  0  0  0  0  0  0  0  0  0
  140.2270   73.6470  220.6090 C   0  0  0  0  0  0  0  0  0  0  0  0
  141.6710   73.7770  220.5610 N   0  0  0  0  0  0  0  0  0  0  0  0
  142.3260   75.0160  220.2380 C   0  0  0  0  0  0  0  0  0  0  0  0
  143.5700   74.9940  220.2320 O   0  0  0  0  0  0  0  0  0  0  0  0
  141.4570   76.1640  219.9530 C   0  0  0  0  0  0  0  0  0  0  0  0
  141.7870   77.3210  220.8260 C   0  0  1  0  0  0  0  0  0  0  0  0
  141.6980   78.5170  219.9800 N   0  0  0  0  0  0  0  0  0  0  0  0
  140.9420   77.4770  222.0530 C   0  0  0  0  0  0  0  0  0  0  0  0
  141.2910   78.8000  222.6870 C   0  0  0  0  0  0  0  0  0  0  0  0
  140.3210   79.6580  223.1680 C   0  0  0  0  0  0  0  0  0  0  0  0
  140.6010   80.8800  223.7430 C   0  0  0  0  0  0  0  0  0  0  0  0
  141.9230   81.2900  223.8560 C   0  0  0  0  0  0  0  0  0  0  0  0
  142.9170   80.4600  223.3870 C   0  0  0  0  0  0  0  0  0  0  0  0
  142.6000   79.2230  222.8050 C   0  0  0  0  0  0  0  0  0  0  0  0
  139.5090   77.2620  221.8910 C   0  0  0  0  0  0  0  0  0  0  0  0
  138.6990   77.9040  220.9780 C   0  0  0  0  0  0  0  0  0  0  0  0
  137.3480   77.6670  220.8540 C   0  0  0  0  0  0  0  0  0  0  0  0
  136.7320   76.7490  221.6640 C   0  0  0  0  0  0  0  0  0  0  0  0
  137.5040   76.0860  222.5900 C   0  0  0  0  0  0  0  0  0  0  0  0
  138.8580   76.3250  222.7120 C   0  0  0  0  0  0  0  0  0  0  0  0
  142.4290   72.5620  220.8630 C   0  0  0  0  0  0  0  0  0  0  0  0
  141.4530   71.5420  221.4740 C   0  0  0  0  0  0  0  0  0  0  0  0
  136.7638   70.6750  225.2099 H   0  0  0  0  0  0  0  0  0  0  0  0
  135.5202   70.3949  223.9444 H   0  0  0  0  0  0  0  0  0  0  0  0
  137.0350   69.4294  223.9444 H   0  0  0  0  0  0  0  0  0  0  0  0
  136.6074   71.6596  222.4132 H   0  0  0  0  0  0  0  0  0  0  0  0
  137.4194   72.3609  223.8775 H   0  0  0  0  0  0  0  0  0  0  0  0
  140.9905   72.8895  225.1058 H   0  0  0  0  0  0  0  0  0  0  0  0
  141.5868   72.2593  227.4454 H   0  0  0  0  0  0  0  0  0  0  0  0
  141.0442   69.9999  228.2927 H   0  0  0  0  0  0  0  0  0  0  0  0
  139.9133   68.3597  226.8116 H   0  0  0  0  0  0  0  0  0  0  0  0
  139.3076   68.9750  224.4582 H   0  0  0  0  0  0  0  0  0  0  0  0
  141.5043   72.6147  223.2064 H   0  0  0  0  0  0  0  0  0  0  0  0
  138.7998   73.1954  222.1538 H   0  0  0  0  0  0  0  0  0  0  0  0
  140.0864   74.3245  222.6537 H   0  0  0  0  0  0  0  0  0  0  0  0
  139.9007   72.7909  220.0002 H   0  0  0  0  0  0  0  0  0  0  0  0
  139.7303   74.5430  220.2084 H   0  0  0  0  0  0  0  0  0  0  0  0
  141.5874   76.4598  218.9016 H   0  0  0  0  0  0  0  0  0  0  0  0
  140.4156   75.8680  220.1477 H   0  0  0  0  0  0  0  0  0  0  0  0
  142.7940   77.1537  221.2358 H   0  0  0  0  0  0  0  0  0  0  0  0
  142.6620   78.9010  219.8930 H   0  0  0  0  0  0  0  0  0  0  0  0
  141.3880   78.2620  219.0280 H   0  0  0  0  0  0  0  0  0  0  0  0
  141.1906   76.6463  222.7298 H   0  0  0  0  0  0  0  0  0  0  0  0
  139.2681   79.3498  223.0881 H   0  0  0  0  0  0  0  0  0  0  0  0
  139.7863   81.5226  224.1080 H   0  0  0  0  0  0  0  0  0  0  0  0
  142.1717   82.2598  224.3117 H   0  0  0  0  0  0  0  0  0  0  0  0
  143.9693   80.7696  223.4694 H   0  0  0  0  0  0  0  0  0  0  0  0
  143.4105   78.5776  222.4355 H   0  0  0  0  0  0  0  0  0  0  0  0
  139.1583   78.6480  220.3105 H   0  0  0  0  0  0  0  0  0  0  0  0
  136.7616   78.2161  220.1026 H   0  0  0  0  0  0  0  0  0  0  0  0
  135.6540   76.5485  221.5765 H   0  0  0  0  0  0  0  0  0  0  0  0
  137.0295   75.3456  223.2508 H   0  0  0  0  0  0  0  0  0  0  0  0
  139.4382   75.7721  223.4655 H   0  0  0  0  0  0  0  0  0  0  0  0
  142.8674   72.1547  219.9400 H   0  0  0  0  0  0  0  0  0  0  0  0
  143.2462   72.7822  221.5657 H   0  0  0  0  0  0  0  0  0  0  0  0
  140.7587   71.1755  220.7035 H   0  0  0  0  0  0  0  0  0  0  0  0
  141.9953   70.6755  221.8804 H   0  0  0  0  0  0  0  0  0  0  0  0
  1  2  1  0
  2  3  1  0
  3  4  2  0
  3  5  1  0
  5  6  1  0
  6  7  2  0
  7  8  1  0
  8  9  2  0
  9 10  1  0
 10 11  2  0
  5 12  1  0
 12 13  1  0
 13 14  1  0
 14 15  1  0
 15 16  1  0
 16 17  2  0
 16 18  1  0
 18 19  1  0
 19 20  1  0
 19 21  1  0
 21 22  1  0
 22 23  2  0
 23 24  1  0
 24 25  2  0
 25 26  1  0
 26 27  2  0
 21 28  1  0
 28 29  2  0
 29 30  1  0
 30 31  2  0
 31 32  1  0
 32 33  2  0
 15 34  1  0
 34 35  1  0
 11  6  1  0
 35 12  1  0
 27 22  1  0
 33 28  1  0
  1 36  1  0
  1 37  1  0
  1 38  1  0
  2 39  1  0
  2 40  1  0
  7 41  1  0
  8 42  1  0
  9 43  1  0
 10 44  1  0
 11 45  1  0
 12 46  1  0
 13 47  1  0
 13 48  1  0
 14 49  1  0
 14 50  1  0
 18 51  1  0
 18 52  1  0
 19 53  1  1
 20 54  1  0
 20 55  1  0
 21 56  1  0
 23 57  1  0
 24 58  1  0
 25 59  1  0
 26 60  1  0
 27 61  1  0
 29 62  1  0
 30 63  1  0
 31 64  1  0
 32 65  1  0
 33 66  1  0
 34 67  1  0
 34 68  1  0
 35 69  1  0
 35 70  1  0
M  END
>  <smiles>  (85) 
CCC(=O)N(c1ccccc1)C1CCN(C(=O)CC(N)C(c2ccccc2)c2ccccc2)CC1

>  <score_type>  (85) 
oracle

>  <origin>  (85) 
autodockgpu

>  <m_score__min__energy>  (85) 
-8.6099999999999994

>  <m_primary>  (85) 
energy

>  <rmsd>  (85) 
8.724843882168056

>  <m_score__min__rmsd>  (85) 
8.724843882168056

>  <meeko>  (85) 
{"free_energy": -7.96, "intermolecular_energy": -10.94, "internal_energy": -2.81, "cluster_size": 1, "cluster_id": 4, "rank_in_cluster": 1}

>  <energy>  (85) 
-7.89

>  <cluster_rmsd>  (85) 
1.76

>  <cluster>  (85) 
1

$$$$

     RDKit          3D

 70 73  0  0  0  0  0  0  0  0999 V2000
  138.4910   68.2000  223.0880 C   0  0  0  0  0  0  0  0  0  0  0  0
  138.0780   69.4820  222.4040 C   0  0  0  0  0  0  0  0  0  0  0  0
  138.2480   70.6630  223.2860 C   0  0  0  0  0  0  0  0  0  0  0  0
  137.1850   71.2260  223.6770 O   0  0  0  0  0  0  0  0  0  0  0  0
  139.5110   71.1670  223.6890 N   0  0  0  0  0  0  0  0  0  0  0  0
  139.8960   70.9230  225.0400 C   0  0  0  0  0  0  0  0  0  0  0  0
  140.7340   71.8820  225.6160 C   0  0  0  0  0  0  0  0  0  0  0  0
  141.1670   71.7320  226.9330 C   0  0  0  0  0  0  0  0  0  0  0  0
  140.7710   70.6420  227.6660 C   0  0  0  0  0  0  0  0  0  0  0  0
  139.9390   69.6900  227.0910 C   0  0  0  0  0  0  0  0  0  0  0  0
  139.4940   69.8280  225.7650 C   0  0  0  0  0  0  0  0  0  0  0  0
  140.3200   71.8800  222.7420 C   0  0  0  0  0  0  0  0  0  0  0  0
  139.5690   73.1330  222.3580 C   0  0  0  0  0  0  0  0  0  0  0  0
  139.6760   73.2910  220.8580 C   0  0  0  0  0  0  0  0  0  0  0  0
  141.0910   73.2390  220.5450 N   0  0  0  0  0  0  0  0  0  0  0  0
  141.8190   74.3820  220.0640 C   0  0  0  0  0  0  0  0  0  0  0  0
  143.0280   74.2060  219.8330 O   0  0  0  0  0  0  0  0  0  0  0  0
  141.0560   75.6260  219.8980 C   0  0  0  0  0  0  0  0  0  0  0  0
  141.7190   76.7630  220.5870 C   0  0  1  0  0  0  0  0  0  0  0  0
  142.8740   77.1320  219.7590 N   0  0  0  0  0  0  0  0  0  0  0  0
  140.8570   77.9580  220.8570 C   0  0  0  0  0  0  0  0  0  0  0  0
  139.4940   77.4580  221.2620 C   0  0  0  0  0  0  0  0  0  0  0  0
  139.3150   76.6150  222.3420 C   0  0  0  0  0  0  0  0  0  0  0  0
  138.0860   76.1300  222.7360 C   0  0  0  0  0  0  0  0  0  0  0  0
  136.9520   76.4950  222.0230 C   0  0  0  0  0  0  0  0  0  0  0  0
  137.0910   77.3350  220.9400 C   0  0  0  0  0  0  0  0  0  0  0  0
  138.3560   77.8110  220.5630 C   0  0  0  0  0  0  0  0  0  0  0  0
  141.4040   78.9690  221.7540 C   0  0  0  0  0  0  0  0  0  0  0  0
  141.6890   80.2750  221.4140 C   0  0  0  0  0  0  0  0  0  0  0  0
  142.2010   81.2010  222.2950 C   0  0  0  0  0  0  0  0  0  0  0  0
  142.4580   80.8480  223.5940 C   0  0  0  0  0  0  0  0  0  0  0  0
  142.1880   79.5530  223.9750 C   0  0  0  0  0  0  0  0  0  0  0  0
  141.6750   78.6270  223.0910 C   0  0  0  0  0  0  0  0  0  0  0  0
  141.7400   71.9440  220.7490 C   0  0  0  0  0  0  0  0  0  0  0  0
  140.7790   71.0620  221.5640 C   0  0  0  0  0  0  0  0  0  0  0  0
  138.4473   68.3358  224.1787 H   0  0  0  0  0  0  0  0  0  0  0  0
  137.8084   67.3899  222.7917 H   0  0  0  0  0  0  0  0  0  0  0  0
  139.5181   67.9407  222.7917 H   0  0  0  0  0  0  0  0  0  0  0  0
  138.6955   69.6191  221.5041 H   0  0  0  0  0  0  0  0  0  0  0  0
  137.0116   69.4012  222.1466 H   0  0  0  0  0  0  0  0  0  0  0  0
  141.0524   72.7564  225.0295 H   0  0  0  0  0  0  0  0  0  0  0  0
  141.8264   72.4880  227.3844 H   0  0  0  0  0  0  0  0  0  0  0  0
  141.1111   70.5225  228.7052 H   0  0  0  0  0  0  0  0  0  0  0  0
  139.6243   68.8167  227.6811 H   0  0  0  0  0  0  0  0  0  0  0  0
  138.8345   69.0713  225.3152 H   0  0  0  0  0  0  0  0  0  0  0  0
  141.2754   72.1460  223.2180 H   0  0  0  0  0  0  0  0  0  0  0  0
  138.5126   73.0413  222.6507 H   0  0  0  0  0  0  0  0  0  0  0  0
  139.9943   74.0092  222.8692 H   0  0  0  0  0  0  0  0  0  0  0  0
  139.1429   72.4741  220.3496 H   0  0  0  0  0  0  0  0  0  0  0  0
  139.2258   74.2366  220.5217 H   0  0  0  0  0  0  0  0  0  0  0  0
  140.9744   75.8557  218.8253 H   0  0  0  0  0  0  0  0  0  0  0  0
  140.0601   75.4840  220.3430 H   0  0  0  0  0  0  0  0  0  0  0  0
  141.9988   76.4253  221.5958 H   0  0  0  0  0  0  0  0  0  0  0  0
  143.6100   77.4860  220.4040 H   0  0  0  0  0  0  0  0  0  0  0  0
  143.2610   76.2970  219.2890 H   0  0  0  0  0  0  0  0  0  0  0  0
  140.7956   78.5365  219.9234 H   0  0  0  0  0  0  0  0  0  0  0  0
  140.2018   76.3143  222.9192 H   0  0  0  0  0  0  0  0  0  0  0  0
  138.0048   75.4613  223.6056 H   0  0  0  0  0  0  0  0  0  0  0  0
  135.9606   76.1203  222.3175 H   0  0  0  0  0  0  0  0  0  0  0  0
  136.2023   77.6353  220.3656 H   0  0  0  0  0  0  0  0  0  0  0  0
  138.4433   78.4788  219.6932 H   0  0  0  0  0  0  0  0  0  0  0  0
  141.4961   80.5952  220.3795 H   0  0  0  0  0  0  0  0  0  0  0  0
  142.4044   82.2272  221.9551 H   0  0  0  0  0  0  0  0  0  0  0  0
  142.8671   81.5764  224.3096 H   0  0  0  0  0  0  0  0  0  0  0  0
  142.3869   79.2484  225.0131 H   0  0  0  0  0  0  0  0  0  0  0  0
  141.4742   77.6026  223.4379 H   0  0  0  0  0  0  0  0  0  0  0  0
  141.9484   71.4723  219.7774 H   0  0  0  0  0  0  0  0  0  0  0  0
  142.6931   72.0709  221.2834 H   0  0  0  0  0  0  0  0  0  0  0  0
  139.9161   70.7729  220.9460 H   0  0  0  0  0  0  0  0  0  0  0  0
  141.2799   70.1412  221.8976 H   0  0  0  0  0  0  0  0  0  0  0  0
  1  2  1  0
  2  3  1  0
  3  4  2  0
  3  5  1  0
  5  6  1  0
  6  7  2  0
  7  8  1  0
  8  9  2  0
  9 10  1  0
 10 11  2  0
  5 12  1  0
 12 13  1  0
 13 14  1  0
 14 15  1  0
 15 16  1  0
 16 17  2  0
 16 18  1  0
 18 19  1  0
 19 20  1  0
 19 21  1  0
 21 22  1  0
 22 23  2  0
 23 24  1  0
 24 25  2  0
 25 26  1  0
 26 27  2  0
 21 28  1  0
 28 29  2  0
 29 30  1  0
 30 31  2  0
 31 32  1  0
 32 33  2  0
 15 34  1  0
 34 35  1  0
 11  6  1  0
 35 12  1  0
 27 22  1  0
 33 28  1  0
  1 36  1  0
  1 37  1  0
  1 38  1  0
  2 39  1  0
  2 40  1  0
  7 41  1  0
  8 42  1  0
  9 43  1  0
 10 44  1  0
 11 45  1  0
 12 46  1  0
 13 47  1  0
 13 48  1  0
 14 49  1  0
 14 50  1  0
 18 51  1  0
 18 52  1  0
 19 53  1  1
 20 54  1  0
 20 55  1  0
 21 56  1  0
 23 57  1  0
 24 58  1  0
 25 59  1  0
 26 60  1  0
 27 61  1  0
 29 62  1  0
 30 63  1  0
 31 64  1  0
 32 65  1  0
 33 66  1  0
 34 67  1  0
 34 68  1  0
 35 69  1  0
 35 70  1  0
M  END
>  <smiles>  (86) 
CCC(=O)N(c1ccccc1)C1CCN(C(=O)CC(N)C(c2ccccc2)c2ccccc2)CC1

>  <score_type>  (86) 
oracle

>  <origin>  (86) 
autodockgpu

>  <m_score__min__energy>  (86) 
-8.6099999999999994

>  <m_primary>  (86) 
energy

>  <rmsd>  (86) 
7.898464571967376

>  <m_score__min__rmsd>  (86) 
7.898464571967376

>  <meeko>  (86) 
{"free_energy": -8.0, "intermolecular_energy": -10.98, "internal_energy": -3.18, "cluster_size": 40, "cluster_id": 1, "rank_in_cluster": 29}

>  <energy>  (86) 
-7.88

>  <cluster_rmsd>  (86) 
1.49

>  <cluster>  (86) 
1

$$$$

     RDKit          3D

 70 73  0  0  0  0  0  0  0  0999 V2000
  138.4490   67.8470  222.8130 C   0  0  0  0  0  0  0  0  0  0  0  0
  139.0990   69.0390  222.1490 C   0  0  0  0  0  0  0  0  0  0  0  0
  138.8160   70.3020  222.8730 C   0  0  0  0  0  0  0  0  0  0  0  0
  137.6040   70.6630  222.9140 O   0  0  0  0  0  0  0  0  0  0  0  0
  139.8150   71.0930  223.4960 N   0  0  0  0  0  0  0  0  0  0  0  0
  140.0460   70.8570  224.8830 C   0  0  0  0  0  0  0  0  0  0  0  0
  140.7940   71.8320  225.5490 C   0  0  0  0  0  0  0  0  0  0  0  0
  141.0740   71.6910  226.9080 C   0  0  0  0  0  0  0  0  0  0  0  0
  140.6160   70.5940  227.5930 C   0  0  0  0  0  0  0  0  0  0  0  0
  139.8740   69.6270  226.9290 C   0  0  0  0  0  0  0  0  0  0  0  0
  139.5830   69.7550  225.5600 C   0  0  0  0  0  0  0  0  0  0  0  0
  140.5280   72.0660  222.7190 C   0  0  0  0  0  0  0  0  0  0  0  0
  139.5530   73.1620  222.3610 C   0  0  0  0  0  0  0  0  0  0  0  0
  139.7650   73.5080  220.9050 C   0  0  0  0  0  0  0  0  0  0  0  0
  141.1780   73.8000  220.7600 N   0  0  0  0  0  0  0  0  0  0  0  0
  141.6700   75.1210  220.4730 C   0  0  0  0  0  0  0  0  0  0  0  0
  142.9040   75.2390  220.3740 O   0  0  0  0  0  0  0  0  0  0  0  0
  140.6630   76.1800  220.3280 C   0  0  0  0  0  0  0  0  0  0  0  0
  140.8110   77.2150  221.3850 C   0  0  1  0  0  0  0  0  0  0  0  0
  141.1320   76.4980  222.6250 N   0  0  0  0  0  0  0  0  0  0  0  0
  141.8230   78.2850  221.1140 C   0  0  0  0  0  0  0  0  0  0  0  0
  141.5830   78.8030  219.7190 C   0  0  0  0  0  0  0  0  0  0  0  0
  142.4260   78.4940  218.6690 C   0  0  0  0  0  0  0  0  0  0  0  0
  142.2440   78.9570  217.3830 C   0  0  0  0  0  0  0  0  0  0  0  0
  141.1620   79.7800  217.1040 C   0  0  0  0  0  0  0  0  0  0  0  0
  140.2990   80.1100  218.1260 C   0  0  0  0  0  0  0  0  0  0  0  0
  140.5110   79.6240  219.4250 C   0  0  0  0  0  0  0  0  0  0  0  0
  141.9470   79.3360  222.1180 C   0  0  0  0  0  0  0  0  0  0  0  0
  143.1210   79.7360  222.7220 C   0  0  0  0  0  0  0  0  0  0  0  0
  143.1950   80.7380  223.6630 C   0  0  0  0  0  0  0  0  0  0  0  0
  142.0610   81.4030  224.0520 C   0  0  0  0  0  0  0  0  0  0  0  0
  140.8680   81.0340  223.4750 C   0  0  0  0  0  0  0  0  0  0  0  0
  140.7960   80.0300  222.5310 C   0  0  0  0  0  0  0  0  0  0  0  0
  142.0830   72.6620  220.9250 C   0  0  0  0  0  0  0  0  0  0  0  0
  141.2740   71.5060  221.5370 C   0  0  0  0  0  0  0  0  0  0  0  0
  138.5094   67.9578  223.9057 H   0  0  0  0  0  0  0  0  0  0  0  0
  137.3937   67.7878  222.5083 H   0  0  0  0  0  0  0  0  0  0  0  0
  138.9708   66.9278  222.5083 H   0  0  0  0  0  0  0  0  0  0  0  0
  140.1873   68.8811  222.1228 H   0  0  0  0  0  0  0  0  0  0  0  0
  138.6851   69.1296  221.1339 H   0  0  0  0  0  0  0  0  0  0  0  0
  141.1623   72.7116  225.0006 H   0  0  0  0  0  0  0  0  0  0  0  0
  141.6622   72.4595  227.4308 H   0  0  0  0  0  0  0  0  0  0  0  0
  140.8361   70.4812  228.6648 H   0  0  0  0  0  0  0  0  0  0  0  0
  139.5089   68.7488  227.4816 H   0  0  0  0  0  0  0  0  0  0  0  0
  138.9942   68.9855  225.0392 H   0  0  0  0  0  0  0  0  0  0  0  0
  141.3474   72.4764  223.3274 H   0  0  0  0  0  0  0  0  0  0  0  0
  138.5219   72.8117  222.5166 H   0  0  0  0  0  0  0  0  0  0  0  0
  139.7171   74.0459  222.9949 H   0  0  0  0  0  0  0  0  0  0  0  0
  139.4838   72.6578  220.2662 H   0  0  0  0  0  0  0  0  0  0  0  0
  139.1455   74.3651  220.6024 H   0  0  0  0  0  0  0  0  0  0  0  0
  140.7815   76.6546  219.3428 H   0  0  0  0  0  0  0  0  0  0  0  0
  139.6657   75.7260  220.4240 H   0  0  0  0  0  0  0  0  0  0  0  0
  139.8654   77.7742  221.4411 H   0  0  0  0  0  0  0  0  0  0  0  0
  141.8510   75.7840  222.3860 H   0  0  0  0  0  0  0  0  0  0  0  0
  141.5610   77.1400  223.3110 H   0  0  0  0  0  0  0  0  0  0  0  0
  142.8177   77.8213  221.1886 H   0  0  0  0  0  0  0  0  0  0  0  0
  143.2896   77.8430  218.8699 H   0  0  0  0  0  0  0  0  0  0  0  0
  142.9491   78.6769  216.5865 H   0  0  0  0  0  0  0  0  0  0  0  0
  140.9965   80.1618  216.0858 H   0  0  0  0  0  0  0  0  0  0  0  0
  139.4358   80.7605  217.9217 H   0  0  0  0  0  0  0  0  0  0  0  0
  139.8097   79.9021  220.2256 H   0  0  0  0  0  0  0  0  0  0  0  0
  144.0518   79.2247  222.4351 H   0  0  0  0  0  0  0  0  0  0  0  0
  144.1665   81.0058  224.1039 H   0  0  0  0  0  0  0  0  0  0  0  0
  142.1038   82.2065  224.8020 H   0  0  0  0  0  0  0  0  0  0  0  0
  139.9459   81.5536  223.7744 H   0  0  0  0  0  0  0  0  0  0  0  0
  139.8211   79.7681  222.0940 H   0  0  0  0  0  0  0  0  0  0  0  0
  142.4872   72.3600  219.9476 H   0  0  0  0  0  0  0  0  0  0  0  0
  142.9253   72.9314  221.5792 H   0  0  0  0  0  0  0  0  0  0  0  0
  140.5643   71.1085  220.7966 H   0  0  0  0  0  0  0  0  0  0  0  0
  141.9368   70.6841  221.8455 H   0  0  0  0  0  0  0  0  0  0  0  0
  1  2  1  0
  2  3  1  0
  3  4  2  0
  3  5  1  0
  5  6  1  0
  6  7  2  0
  7  8  1  0
  8  9  2  0
  9 10  1  0
 10 11  2  0
  5 12  1  0
 12 13  1  0
 13 14  1  0
 14 15  1  0
 15 16  1  0
 16 17  2  0
 16 18  1  0
 18 19  1  0
 19 20  1  0
 19 21  1  0
 21 22  1  0
 22 23  2  0
 23 24  1  0
 24 25  2  0
 25 26  1  0
 26 27  2  0
 21 28  1  0
 28 29  2  0
 29 30  1  0
 30 31  2  0
 31 32  1  0
 32 33  2  0
 15 34  1  0
 34 35  1  0
 11  6  1  0
 35 12  1  0
 27 22  1  0
 33 28  1  0
  1 36  1  0
  1 37  1  0
  1 38  1  0
  2 39  1  0
  2 40  1  0
  7 41  1  0
  8 42  1  0
  9 43  1  0
 10 44  1  0
 11 45  1  0
 12 46  1  0
 13 47  1  0
 13 48  1  0
 14 49  1  0
 14 50  1  0
 18 51  1  0
 18 52  1  0
 19 53  1  1
 20 54  1  0
 20 55  1  0
 21 56  1  0
 23 57  1  0
 24 58  1  0
 25 59  1  0
 26 60  1  0
 27 61  1  0
 29 62  1  0
 30 63  1  0
 31 64  1  0
 32 65  1  0
 33 66  1  0
 34 67  1  0
 34 68  1  0
 35 69  1  0
 35 70  1  0
M  END
>  <smiles>  (87) 
CCC(=O)N(c1ccccc1)C1CCN(C(=O)CC(N)C(c2ccccc2)c2ccccc2)CC1

>  <score_type>  (87) 
oracle

>  <origin>  (87) 
autodockgpu

>  <m_score__min__energy>  (87) 
-8.6099999999999994

>  <m_primary>  (87) 
energy

>  <rmsd>  (87) 
9.95000721083037

>  <m_score__min__rmsd>  (87) 
9.95000721083037

>  <meeko>  (87) 
{"free_energy": -8.49, "intermolecular_energy": -11.47, "internal_energy": -2.55, "cluster_size": 40, "cluster_id": 1, "rank_in_cluster": 11}

>  <energy>  (87) 
-7.84

>  <cluster_rmsd>  (87) 
1.86

>  <cluster>  (87) 
1

$$$$

     RDKit          3D

 70 73  0  0  0  0  0  0  0  0999 V2000
  136.4710   69.6350  224.3050 C   0  0  0  0  0  0  0  0  0  0  0  0
  137.3520   68.6850  223.5270 C   0  0  0  0  0  0  0  0  0  0  0  0
  138.7240   68.6140  224.0850 C   0  0  0  0  0  0  0  0  0  0  0  0
  139.1570   67.4580  224.3590 O   0  0  0  0  0  0  0  0  0  0  0  0
  139.5380   69.7530  224.3180 N   0  0  0  0  0  0  0  0  0  0  0  0
  140.0030   69.9460  225.6510 C   0  0  0  0  0  0  0  0  0  0  0  0
  140.5870   71.1880  225.9170 C   0  0  0  0  0  0  0  0  0  0  0  0
  141.0740   71.4720  227.1930 C   0  0  0  0  0  0  0  0  0  0  0  0
  140.9820   70.5320  228.1890 C   0  0  0  0  0  0  0  0  0  0  0  0
  140.4020   69.3000  227.9210 C   0  0  0  0  0  0  0  0  0  0  0  0
  139.9060   68.9990  226.6410 C   0  0  0  0  0  0  0  0  0  0  0  0
  139.8460   70.6330  223.2260 C   0  0  0  0  0  0  0  0  0  0  0  0
  139.0390   71.8950  223.4220 C   0  0  0  0  0  0  0  0  0  0  0  0
  138.4550   72.2780  222.0810 C   0  0  0  0  0  0  0  0  0  0  0  0
  139.5690   72.3350  221.1550 N   0  0  0  0  0  0  0  0  0  0  0  0
  140.0300   73.5680  220.5740 C   0  0  0  0  0  0  0  0  0  0  0  0
  140.9950   73.4810  219.7950 O   0  0  0  0  0  0  0  0  0  0  0  0
  139.3120   74.7880  220.9650 C   0  0  0  0  0  0  0  0  0  0  0  0
  140.2290   75.7800  221.5830 C   0  0  1  0  0  0  0  0  0  0  0  0
  141.4380   75.0430  221.9690 N   0  0  0  0  0  0  0  0  0  0  0  0
  140.5790   76.9640  220.7360 C   0  0  0  0  0  0  0  0  0  0  0  0
  141.0950   78.0470  221.6490 C   0  0  0  0  0  0  0  0  0  0  0  0
  141.1020   77.9030  223.0230 C   0  0  0  0  0  0  0  0  0  0  0  0
  141.5560   78.8740  223.8900 C   0  0  0  0  0  0  0  0  0  0  0  0
  142.0370   80.0710  223.3770 C   0  0  0  0  0  0  0  0  0  0  0  0
  142.0460   80.2510  222.0110 C   0  0  0  0  0  0  0  0  0  0  0  0
  141.5760   79.2440  221.1550 C   0  0  0  0  0  0  0  0  0  0  0  0
  141.4340   76.7120  219.5810 C   0  0  0  0  0  0  0  0  0  0  0  0
  141.0050   76.5960  218.2750 C   0  0  0  0  0  0  0  0  0  0  0  0
  141.8480   76.3620  217.2120 C   0  0  0  0  0  0  0  0  0  0  0  0
  143.1970   76.2300  217.4160 C   0  0  0  0  0  0  0  0  0  0  0  0
  143.6660   76.3380  218.7060 C   0  0  0  0  0  0  0  0  0  0  0  0
  142.8200   76.5730  219.7700 C   0  0  0  0  0  0  0  0  0  0  0  0
  140.2020   71.0540  220.8410 C   0  0  0  0  0  0  0  0  0  0  0  0
  139.6920   70.0190  221.8600 C   0  0  0  0  0  0  0  0  0  0  0  0
  136.6203   69.4740  225.3829 H   0  0  0  0  0  0  0  0  0  0  0  0
  136.7343   70.6719  224.0492 H   0  0  0  0  0  0  0  0  0  0  0  0
  135.4172   69.4505  224.0492 H   0  0  0  0  0  0  0  0  0  0  0  0
  136.9043   67.6807  223.5571 H   0  0  0  0  0  0  0  0  0  0  0  0
  137.4247   69.0584  222.4949 H   0  0  0  0  0  0  0  0  0  0  0  0
  140.6626   71.9419  225.1195 H   0  0  0  0  0  0  0  0  0  0  0  0
  141.5322   72.4501  227.4012 H   0  0  0  0  0  0  0  0  0  0  0  0
  141.3664   70.7543  229.1954 H   0  0  0  0  0  0  0  0  0  0  0  0
  140.3295   68.5489  228.7214 H   0  0  0  0  0  0  0  0  0  0  0  0
  139.4474   68.0205  226.4353 H   0  0  0  0  0  0  0  0  0  0  0  0
  140.9206   70.8671  223.2475 H   0  0  0  0  0  0  0  0  0  0  0  0
  138.2302   71.7143  224.1454 H   0  0  0  0  0  0  0  0  0  0  0  0
  139.6753   72.7035  223.8110 H   0  0  0  0  0  0  0  0  0  0  0  0
  137.7253   71.5229  221.7534 H   0  0  0  0  0  0  0  0  0  0  0  0
  137.9288   73.2425  222.1342 H   0  0  0  0  0  0  0  0  0  0  0  0
  138.8510   75.2343  220.0715 H   0  0  0  0  0  0  0  0  0  0  0  0
  138.5445   74.5169  221.7049 H   0  0  0  0  0  0  0  0  0  0  0  0
  139.7050   76.2313  222.4384 H   0  0  0  0  0  0  0  0  0  0  0  0
  141.8940   74.7220  221.0900 H   0  0  0  0  0  0  0  0  0  0  0  0
  142.1080   75.6710  222.4430 H   0  0  0  0  0  0  0  0  0  0  0  0
  139.6570   77.2894  220.2320 H   0  0  0  0  0  0  0  0  0  0  0  0
  140.7245   76.9616  223.4487 H   0  0  0  0  0  0  0  0  0  0  0  0
  141.5373   78.7022  224.9763 H   0  0  0  0  0  0  0  0  0  0  0  0
  142.4041   80.8611  224.0486 H   0  0  0  0  0  0  0  0  0  0  0  0
  142.4252   81.1929  221.5879 H   0  0  0  0  0  0  0  0  0  0  0  0
  141.5908   79.4110  220.0678 H   0  0  0  0  0  0  0  0  0  0  0  0
  139.9286   76.6961  218.0715 H   0  0  0  0  0  0  0  0  0  0  0  0
  141.4373   76.2806  216.1948 H   0  0  0  0  0  0  0  0  0  0  0  0
  143.8827   76.0438  216.5763 H   0  0  0  0  0  0  0  0  0  0  0  0
  144.7449   76.2340  218.8933 H   0  0  0  0  0  0  0  0  0  0  0  0
  143.2375   76.6531  220.7845 H   0  0  0  0  0  0  0  0  0  0  0  0
  139.9307   70.7417  219.8218 H   0  0  0  0  0  0  0  0  0  0  0  0
  141.2972   71.1414  220.8952 H   0  0  0  0  0  0  0  0  0  0  0  0
  138.6340   69.7882  221.6667 H   0  0  0  0  0  0  0  0  0  0  0  0
  140.2614   69.0808  221.7850 H   0  0  0  0  0  0  0  0  0  0  0  0
  1  2  1  0
  2  3  1  0
  3  4  2  0
  3  5  1  0
  5  6  1  0
  6  7  2  0
  7  8  1  0
  8  9  2  0
  9 10  1  0
 10 11  2  0
  5 12  1  0
 12 13  1  0
 13 14  1  0
 14 15  1  0
 15 16  1  0
 16 17  2  0
 16 18  1  0
 18 19  1  0
 19 20  1  0
 19 21  1  0
 21 22  1  0
 22 23  2  0
 23 24  1  0
 24 25  2  0
 25 26  1  0
 26 27  2  0
 21 28  1  0
 28 29  2  0
 29 30  1  0
 30 31  2  0
 31 32  1  0
 32 33  2  0
 15 34  1  0
 34 35  1  0
 11  6  1  0
 35 12  1  0
 27 22  1  0
 33 28  1  0
  1 36  1  0
  1 37  1  0
  1 38  1  0
  2 39  1  0
  2 40  1  0
  7 41  1  0
  8 42  1  0
  9 43  1  0
 10 44  1  0
 11 45  1  0
 12 46  1  0
 13 47  1  0
 13 48  1  0
 14 49  1  0
 14 50  1  0
 18 51  1  0
 18 52  1  0
 19 53  1  1
 20 54  1  0
 20 55  1  0
 21 56  1  0
 23 57  1  0
 24 58  1  0
 25 59  1  0
 26 60  1  0
 27 61  1  0
 29 62  1  0
 30 63  1  0
 31 64  1  0
 32 65  1  0
 33 66  1  0
 34 67  1  0
 34 68  1  0
 35 69  1  0
 35 70  1  0
M  END
>  <smiles>  (88) 
CCC(=O)N(c1ccccc1)C1CCN(C(=O)CC(N)C(c2ccccc2)c2ccccc2)CC1

>  <score_type>  (88) 
oracle

>  <origin>  (88) 
autodockgpu

>  <m_score__min__energy>  (88) 
-8.6099999999999994

>  <m_primary>  (88) 
energy

>  <rmsd>  (88) 
8.08114847003563

>  <m_score__min__rmsd>  (88) 
8.08114847003563

>  <meeko>  (88) 
{"free_energy": -8.57, "intermolecular_energy": -11.55, "internal_energy": -2.76, "cluster_size": 40, "cluster_id": 1, "rank_in_cluster": 4}

>  <energy>  (88) 
-7.79

>  <cluster_rmsd>  (88) 
1.86

>  <cluster>  (88) 
1

$$$$

     RDKit          3D

 70 73  0  0  0  0  0  0  0  0999 V2000
  138.4590   68.0910  222.7820 C   0  0  0  0  0  0  0  0  0  0  0  0
  138.5130   69.4570  222.1370 C   0  0  0  0  0  0  0  0  0  0  0  0
  138.4850   70.5480  223.1420 C   0  0  0  0  0  0  0  0  0  0  0  0
  137.3420   70.9150  223.5370 O   0  0  0  0  0  0  0  0  0  0  0  0
  139.6510   71.1730  223.6550 N   0  0  0  0  0  0  0  0  0  0  0  0
  140.0560   70.7940  224.9670 C   0  0  0  0  0  0  0  0  0  0  0  0
  140.7170   71.7780  225.7080 C   0  0  0  0  0  0  0  0  0  0  0  0
  141.1550   71.5030  227.0030 C   0  0  0  0  0  0  0  0  0  0  0  0
  140.9360   70.2650  227.5530 C   0  0  0  0  0  0  0  0  0  0  0  0
  140.2790   69.2890  226.8150 C   0  0  0  0  0  0  0  0  0  0  0  0
  139.8320   69.5510  225.5090 C   0  0  0  0  0  0  0  0  0  0  0  0
  140.3490   72.1330  222.8460 C   0  0  0  0  0  0  0  0  0  0  0  0
  139.3280   73.1240  222.3390 C   0  0  0  0  0  0  0  0  0  0  0  0
  139.6160   73.3700  220.8760 C   0  0  0  0  0  0  0  0  0  0  0  0
  141.0120   73.7520  220.7960 N   0  0  0  0  0  0  0  0  0  0  0  0
  141.4330   75.0790  220.4330 C   0  0  0  0  0  0  0  0  0  0  0  0
  142.6600   75.2770  220.4020 O   0  0  0  0  0  0  0  0  0  0  0  0
  140.3690   76.0470  220.1390 C   0  0  0  0  0  0  0  0  0  0  0  0
  140.3140   77.1190  221.1670 C   0  0  1  0  0  0  0  0  0  0  0  0
  141.4370   76.8740  222.0800 N   0  0  0  0  0  0  0  0  0  0  0  0
  140.3480   78.5240  220.6510 C   0  0  0  0  0  0  0  0  0  0  0  0
  140.8640   79.4080  221.7580 C   0  0  0  0  0  0  0  0  0  0  0  0
  142.1800   79.8280  221.8060 C   0  0  0  0  0  0  0  0  0  0  0  0
  142.6900   80.6270  222.8070 C   0  0  0  0  0  0  0  0  0  0  0  0
  141.8540   81.0460  223.8330 C   0  0  0  0  0  0  0  0  0  0  0  0
  140.5350   80.6470  223.8190 C   0  0  0  0  0  0  0  0  0  0  0  0
  140.0460   79.8320  222.7870 C   0  0  0  0  0  0  0  0  0  0  0  0
  141.0160   78.7340  219.3710 C   0  0  0  0  0  0  0  0  0  0  0  0
  142.2530   78.2340  219.0190 C   0  0  0  0  0  0  0  0  0  0  0  0
  142.8460   78.4520  217.7960 C   0  0  0  0  0  0  0  0  0  0  0  0
  142.2070   79.2020  216.8430 C   0  0  0  0  0  0  0  0  0  0  0  0
  140.9710   79.7210  217.1550 C   0  0  0  0  0  0  0  0  0  0  0  0
  140.3780   79.5010  218.3810 C   0  0  0  0  0  0  0  0  0  0  0  0
  141.9780   72.6990  221.1100 C   0  0  0  0  0  0  0  0  0  0  0  0
  141.2090   71.5380  221.7630 C   0  0  0  0  0  0  0  0  0  0  0  0
  138.4634   68.2018  223.8764 H   0  0  0  0  0  0  0  0  0  0  0  0
  137.5397   67.5740  222.4695 H   0  0  0  0  0  0  0  0  0  0  0  0
  139.3346   67.5031  222.4695 H   0  0  0  0  0  0  0  0  0  0  0  0
  139.4410   69.5370  221.5519 H   0  0  0  0  0  0  0  0  0  0  0  0
  137.6267   69.5644  221.4943 H   0  0  0  0  0  0  0  0  0  0  0  0
  140.8919   72.7712  225.2686 H   0  0  0  0  0  0  0  0  0  0  0  0
  141.6761   72.2784  227.5837 H   0  0  0  0  0  0  0  0  0  0  0  0
  141.2796   70.0464  228.5748 H   0  0  0  0  0  0  0  0  0  0  0  0
  140.1063   68.2975  227.2589 H   0  0  0  0  0  0  0  0  0  0  0  0
  139.3114   68.7741  224.9299 H   0  0  0  0  0  0  0  0  0  0  0  0
  141.0958   72.6483  223.4679 H   0  0  0  0  0  0  0  0  0  0  0  0
  138.3149   72.7124  222.4576 H   0  0  0  0  0  0  0  0  0  0  0  0
  139.3871   74.0639  222.9074 H   0  0  0  0  0  0  0  0  0  0  0  0
  139.4375   72.4543  220.2932 H   0  0  0  0  0  0  0  0  0  0  0  0
  138.9624   74.1538  220.4656 H   0  0  0  0  0  0  0  0  0  0  0  0
  140.5608   76.5026  219.1563 H   0  0  0  0  0  0  0  0  0  0  0  0
  139.4061   75.5152  220.1406 H   0  0  0  0  0  0  0  0  0  0  0  0
  139.3325   77.0592  221.6601 H   0  0  0  0  0  0  0  0  0  0  0  0
  141.4290   75.8580  222.3080 H   0  0  0  0  0  0  0  0  0  0  0  0
  142.3350   77.0700  221.6080 H   0  0  0  0  0  0  0  0  0  0  0  0
  139.3173   78.8000  220.3837 H   0  0  0  0  0  0  0  0  0  0  0  0
  142.8577   79.5070  221.0012 H   0  0  0  0  0  0  0  0  0  0  0  0
  143.7476   80.9291  222.7929 H   0  0  0  0  0  0  0  0  0  0  0  0
  142.2374   81.6848  224.6423 H   0  0  0  0  0  0  0  0  0  0  0  0
  139.8593   80.9705  224.6244 H   0  0  0  0  0  0  0  0  0  0  0  0
  138.9899   79.5245  222.7976 H   0  0  0  0  0  0  0  0  0  0  0  0
  142.7962   77.6265  219.7578 H   0  0  0  0  0  0  0  0  0  0  0  0
  143.8361   78.0228  217.5827 H   0  0  0  0  0  0  0  0  0  0  0  0
  142.6672   79.3832  215.8605 H   0  0  0  0  0  0  0  0  0  0  0  0
  140.4413   80.3280  216.4060 H   0  0  0  0  0  0  0  0  0  0  0  0
  139.3880   79.9337  218.5875 H   0  0  0  0  0  0  0  0  0  0  0  0
  142.4673   72.3524  220.1878 H   0  0  0  0  0  0  0  0  0  0  0  0
  142.7536   73.0787  221.7913 H   0  0  0  0  0  0  0  0  0  0  0  0
  140.5794   71.0339  221.0150 H   0  0  0  0  0  0  0  0  0  0  0  0
  141.9028   70.7922  222.1783 H   0  0  0  0  0  0  0  0  0  0  0  0
  1  2  1  0
  2  3  1  0
  3  4  2  0
  3  5  1  0
  5  6  1  0
  6  7  2  0
  7  8  1  0
  8  9  2  0
  9 10  1  0
 10 11  2  0
  5 12  1  0
 12 13  1  0
 13 14  1  0
 14 15  1  0
 15 16  1  0
 16 17  2  0
 16 18  1  0
 18 19  1  0
 19 20  1  0
 19 21  1  0
 21 22  1  0
 22 23  2  0
 23 24  1  0
 24 25  2  0
 25 26  1  0
 26 27  2  0
 21 28  1  0
 28 29  2  0
 29 30  1  0
 30 31  2  0
 31 32  1  0
 32 33  2  0
 15 34  1  0
 34 35  1  0
 11  6  1  0
 35 12  1  0
 27 22  1  0
 33 28  1  0
  1 36  1  0
  1 37  1  0
  1 38  1  0
  2 39  1  0
  2 40  1  0
  7 41  1  0
  8 42  1  0
  9 43  1  0
 10 44  1  0
 11 45  1  0
 12 46  1  0
 13 47  1  0
 13 48  1  0
 14 49  1  0
 14 50  1  0
 18 51  1  0
 18 52  1  0
 19 53  1  1
 20 54  1  0
 20 55  1  0
 21 56  1  0
 23 57  1  0
 24 58  1  0
 25 59  1  0
 26 60  1  0
 27 61  1  0
 29 62  1  0
 30 63  1  0
 31 64  1  0
 32 65  1  0
 33 66  1  0
 34 67  1  0
 34 68  1  0
 35 69  1  0
 35 70  1  0
M  END
>  <smiles>  (89) 
CCC(=O)N(c1ccccc1)C1CCN(C(=O)CC(N)C(c2ccccc2)c2ccccc2)CC1

>  <score_type>  (89) 
oracle

>  <origin>  (89) 
autodockgpu

>  <m_score__min__energy>  (89) 
-8.6099999999999994

>  <m_primary>  (89) 
energy

>  <rmsd>  (89) 
8.86867741286656

>  <m_score__min__rmsd>  (89) 
8.86867741286656

>  <meeko>  (89) 
{"free_energy": -7.77, "intermolecular_energy": -10.75, "internal_energy": -3.06, "cluster_size": 40, "cluster_id": 1, "rank_in_cluster": 39}

>  <energy>  (89) 
-7.77

>  <cluster_rmsd>  (89) 
1.32

>  <cluster>  (89) 
1

$$$$

     RDKit          3D

 70 73  0  0  0  0  0  0  0  0999 V2000
  136.9810   69.7570  224.3980 C   0  0  0  0  0  0  0  0  0  0  0  0
  137.5000   70.6600  223.3020 C   0  0  0  0  0  0  0  0  0  0  0  0
  138.9260   70.3930  222.9900 C   0  0  0  0  0  0  0  0  0  0  0  0
  139.1540   69.4320  222.2010 O   0  0  0  0  0  0  0  0  0  0  0  0
  140.0020   71.1460  223.5260 N   0  0  0  0  0  0  0  0  0  0  0  0
  140.3510   70.8870  224.8830 C   0  0  0  0  0  0  0  0  0  0  0  0
  140.2570   69.5540  225.2900 C   0  0  0  0  0  0  0  0  0  0  0  0
  140.5760   69.1990  226.6010 C   0  0  0  0  0  0  0  0  0  0  0  0
  140.9840   70.1590  227.4930 C   0  0  0  0  0  0  0  0  0  0  0  0
  141.0770   71.4830  227.0850 C   0  0  0  0  0  0  0  0  0  0  0  0
  140.7590   71.8550  225.7680 C   0  0  0  0  0  0  0  0  0  0  0  0
  140.6700   72.1080  222.6950 C   0  0  0  0  0  0  0  0  0  0  0  0
  139.6610   73.1710  222.3330 C   0  0  0  0  0  0  0  0  0  0  0  0
  139.8210   73.4730  220.8600 C   0  0  0  0  0  0  0  0  0  0  0  0
  141.2220   73.7880  220.6620 N   0  0  0  0  0  0  0  0  0  0  0  0
  141.6770   75.1090  220.3160 C   0  0  0  0  0  0  0  0  0  0  0  0
  142.9050   75.2480  220.1740 O   0  0  0  0  0  0  0  0  0  0  0  0
  140.6440   76.1420  220.1690 C   0  0  0  0  0  0  0  0  0  0  0  0
  140.1180   76.5720  221.4910 C   0  0  1  0  0  0  0  0  0  0  0  0
  141.1310   76.1930  222.4830 N   0  0  0  0  0  0  0  0  0  0  0  0
  139.7710   78.0240  221.6150 C   0  0  0  0  0  0  0  0  0  0  0  0
  138.4090   78.1170  222.2550 C   0  0  0  0  0  0  0  0  0  0  0  0
  137.6430   76.9960  222.5120 C   0  0  0  0  0  0  0  0  0  0  0  0
  136.3900   77.0430  223.0850 C   0  0  0  0  0  0  0  0  0  0  0  0
  135.8470   78.2730  223.4300 C   0  0  0  0  0  0  0  0  0  0  0  0
  136.5810   79.4130  223.1890 C   0  0  0  0  0  0  0  0  0  0  0  0
  137.8540   79.3330  222.6030 C   0  0  0  0  0  0  0  0  0  0  0  0
  140.7720   78.8840  222.2360 C   0  0  0  0  0  0  0  0  0  0  0  0
  140.9830   79.0210  223.5920 C   0  0  0  0  0  0  0  0  0  0  0  0
  141.9450   79.8420  224.1370 C   0  0  0  0  0  0  0  0  0  0  0  0
  142.7610   80.5830  223.3230 C   0  0  0  0  0  0  0  0  0  0  0  0
  142.5820   80.4770  221.9630 C   0  0  0  0  0  0  0  0  0  0  0  0
  141.6180   79.6530  221.4180 C   0  0  0  0  0  0  0  0  0  0  0  0
  142.1560   72.6750  220.8340 C   0  0  0  0  0  0  0  0  0  0  0  0
  141.3900   71.5230  221.5090 C   0  0  0  0  0  0  0  0  0  0  0  0
  137.2298   70.1898  225.3782 H   0  0  0  0  0  0  0  0  0  0  0  0
  135.8891   69.6597  224.3066 H   0  0  0  0  0  0  0  0  0  0  0  0
  137.4465   68.7646  224.3066 H   0  0  0  0  0  0  0  0  0  0  0  0
  136.9012   70.4965  222.3939 H   0  0  0  0  0  0  0  0  0  0  0  0
  137.4177   71.6998  223.6512 H   0  0  0  0  0  0  0  0  0  0  0  0
  139.9311   68.7833  224.5760 H   0  0  0  0  0  0  0  0  0  0  0  0
  140.5005   68.1490  226.9199 H   0  0  0  0  0  0  0  0  0  0  0  0
  141.2363   69.8807  228.5269 H   0  0  0  0  0  0  0  0  0  0  0  0
  141.4038   72.2504  227.8021 H   0  0  0  0  0  0  0  0  0  0  0  0
  140.8356   72.9054  225.4505 H   0  0  0  0  0  0  0  0  0  0  0  0
  141.4989   72.5561  223.2626 H   0  0  0  0  0  0  0  0  0  0  0  0
  138.6430   72.8048  222.5321 H   0  0  0  0  0  0  0  0  0  0  0  0
  139.8249   74.0785  222.9327 H   0  0  0  0  0  0  0  0  0  0  0  0
  139.5384   72.5967  220.2581 H   0  0  0  0  0  0  0  0  0  0  0  0
  139.1746   74.3070  220.5491 H   0  0  0  0  0  0  0  0  0  0  0  0
  141.0784   77.0126  219.6558 H   0  0  0  0  0  0  0  0  0  0  0  0
  139.8125   75.7207  219.5849 H   0  0  0  0  0  0  0  0  0  0  0  0
  139.1515   76.0703  221.6465 H   0  0  0  0  0  0  0  0  0  0  0  0
  142.0540   76.2250  222.0030 H   0  0  0  0  0  0  0  0  0  0  0  0
  141.1640   76.8880  223.2470 H   0  0  0  0  0  0  0  0  0  0  0  0
  139.7516   78.4450  220.5989 H   0  0  0  0  0  0  0  0  0  0  0  0
  138.0557   76.0120  222.2447 H   0  0  0  0  0  0  0  0  0  0  0  0
  135.8267   76.1159  223.2668 H   0  0  0  0  0  0  0  0  0  0  0  0
  134.8486   78.3360  223.8875 H   0  0  0  0  0  0  0  0  0  0  0  0
  136.1658   80.3954  223.4582 H   0  0  0  0  0  0  0  0  0  0  0  0
  138.4209   80.2572  222.4172 H   0  0  0  0  0  0  0  0  0  0  0  0
  140.3467   78.4416  224.2771 H   0  0  0  0  0  0  0  0  0  0  0  0
  142.0587   79.9031  225.2294 H   0  0  0  0  0  0  0  0  0  0  0  0
  143.5349   81.2419  223.7437 H   0  0  0  0  0  0  0  0  0  0  0  0
  143.2248   81.0651  221.2915 H   0  0  0  0  0  0  0  0  0  0  0  0
  141.5099   79.5971  220.3248 H   0  0  0  0  0  0  0  0  0  0  0  0
  142.5357   72.3494  219.8543 H   0  0  0  0  0  0  0  0  0  0  0  0
  143.0130   72.9824  221.4513 H   0  0  0  0  0  0  0  0  0  0  0  0
  140.6659   71.0872  220.8049 H   0  0  0  0  0  0  0  0  0  0  0  0
  142.0786   70.7246  221.8226 H   0  0  0  0  0  0  0  0  0  0  0  0
  1  2  1  0
  2  3  1  0
  3  4  2  0
  3  5  1  0
  5  6  1  0
  6  7  2  0
  7  8  1  0
  8  9  2  0
  9 10  1  0
 10 11  2  0
  5 12  1  0
 12 13  1  0
 13 14  1  0
 14 15  1  0
 15 16  1  0
 16 17  2  0
 16 18  1  0
 18 19  1  0
 19 20  1  0
 19 21  1  0
 21 22  1  0
 22 23  2  0
 23 24  1  0
 24 25  2  0
 25 26  1  0
 26 27  2  0
 21 28  1  0
 28 29  2  0
 29 30  1  0
 30 31  2  0
 31 32  1  0
 32 33  2  0
 15 34  1  0
 34 35  1  0
 11  6  1  0
 35 12  1  0
 27 22  1  0
 33 28  1  0
  1 36  1  0
  1 37  1  0
  1 38  1  0
  2 39  1  0
  2 40  1  0
  7 41  1  0
  8 42  1  0
  9 43  1  0
 10 44  1  0
 11 45  1  0
 12 46  1  0
 13 47  1  0
 13 48  1  0
 14 49  1  0
 14 50  1  0
 18 51  1  0
 18 52  1  0
 19 53  1  1
 20 54  1  0
 20 55  1  0
 21 56  1  0
 23 57  1  0
 24 58  1  0
 25 59  1  0
 26 60  1  0
 27 61  1  0
 29 62  1  0
 30 63  1  0
 31 64  1  0
 32 65  1  0
 33 66  1  0
 34 67  1  0
 34 68  1  0
 35 69  1  0
 35 70  1  0
M  END
>  <smiles>  (90) 
CCC(=O)N(c1ccccc1)C1CCN(C(=O)CC(N)C(c2ccccc2)c2ccccc2)CC1

>  <score_type>  (90) 
oracle

>  <origin>  (90) 
autodockgpu

>  <m_score__min__energy>  (90) 
-8.6099999999999994

>  <m_primary>  (90) 
energy

>  <rmsd>  (90) 
8.213977708647676

>  <m_score__min__rmsd>  (90) 
8.213977708647676

>  <meeko>  (90) 
{"free_energy": -8.27, "intermolecular_energy": -11.25, "internal_energy": -2.74, "cluster_size": 40, "cluster_id": 1, "rank_in_cluster": 17}

>  <energy>  (90) 
-7.67

>  <cluster_rmsd>  (90) 
1.77

>  <cluster>  (90) 
1

$$$$

     RDKit          3D

 70 73  0  0  0  0  0  0  0  0999 V2000
  138.8310   68.1260  222.9660 C   0  0  0  0  0  0  0  0  0  0  0  0
  138.1280   69.4070  222.5800 C   0  0  0  0  0  0  0  0  0  0  0  0
  138.3540   70.4860  223.5730 C   0  0  0  0  0  0  0  0  0  0  0  0
  137.3270   70.9260  224.1650 O   0  0  0  0  0  0  0  0  0  0  0  0
  139.6330   71.0250  223.8710 N   0  0  0  0  0  0  0  0  0  0  0  0
  140.1410   70.7820  225.1800 C   0  0  0  0  0  0  0  0  0  0  0  0
  140.0370   69.4650  225.6370 C   0  0  0  0  0  0  0  0  0  0  0  0
  140.5050   69.1260  226.9070 C   0  0  0  0  0  0  0  0  0  0  0  0
  141.0680   70.0870  227.7100 C   0  0  0  0  0  0  0  0  0  0  0  0
  141.1690   71.3940  227.2530 C   0  0  0  0  0  0  0  0  0  0  0  0
  140.7030   71.7500  225.9770 C   0  0  0  0  0  0  0  0  0  0  0  0
  140.3350   71.7690  222.8640 C   0  0  0  0  0  0  0  0  0  0  0  0
  139.5490   73.0320  222.6050 C   0  0  0  0  0  0  0  0  0  0  0  0
  139.4910   73.2380  221.1090 C   0  0  0  0  0  0  0  0  0  0  0  0
  140.8640   73.2000  220.6420 N   0  0  0  0  0  0  0  0  0  0  0  0
  141.5370   74.3590  220.1210 C   0  0  0  0  0  0  0  0  0  0  0  0
  142.7140   74.1930  219.7540 O   0  0  0  0  0  0  0  0  0  0  0  0
  140.7620   75.6060  220.0790 C   0  0  0  0  0  0  0  0  0  0  0  0
  141.3630   76.6440  220.9570 C   0  0  1  0  0  0  0  0  0  0  0  0
  142.6720   76.9690  220.3780 N   0  0  0  0  0  0  0  0  0  0  0  0
  140.5480   77.8850  221.1540 C   0  0  0  0  0  0  0  0  0  0  0  0
  139.2020   77.4700  221.6930 C   0  0  0  0  0  0  0  0  0  0  0  0
  138.0380   78.1210  221.3330 C   0  0  0  0  0  0  0  0  0  0  0  0
  136.7920   77.7770  221.8130 C   0  0  0  0  0  0  0  0  0  0  0  0
  136.6770   76.7220  222.7090 C   0  0  0  0  0  0  0  0  0  0  0  0
  137.8170   76.0490  223.0910 C   0  0  0  0  0  0  0  0  0  0  0  0
  139.0710   76.4240  222.5850 C   0  0  0  0  0  0  0  0  0  0  0  0
  141.1750   78.9660  221.9060 C   0  0  0  0  0  0  0  0  0  0  0  0
  141.3930   80.2460  221.4410 C   0  0  0  0  0  0  0  0  0  0  0  0
  141.9840   81.2410  222.1870 C   0  0  0  0  0  0  0  0  0  0  0  0
  142.3960   80.9890  223.4690 C   0  0  0  0  0  0  0  0  0  0  0  0
  142.1980   79.7220  223.9710 C   0  0  0  0  0  0  0  0  0  0  0  0
  141.6050   78.7270  223.2220 C   0  0  0  0  0  0  0  0  0  0  0  0
  141.5300   71.9000  220.7320 C   0  0  0  0  0  0  0  0  0  0  0  0
  140.6610   70.9900  221.6180 C   0  0  0  0  0  0  0  0  0  0  0  0
  138.8741   68.0474  224.0623 H   0  0  0  0  0  0  0  0  0  0  0  0
  138.2779   67.2670  222.5583 H   0  0  0  0  0  0  0  0  0  0  0  0
  139.8526   68.1312  222.5583 H   0  0  0  0  0  0  0  0  0  0  0  0
  138.5068   69.7392  221.6022 H   0  0  0  0  0  0  0  0  0  0  0  0
  137.0478   69.2030  222.5399 H   0  0  0  0  0  0  0  0  0  0  0  0
  139.5855   68.6948  224.9944 H   0  0  0  0  0  0  0  0  0  0  0  0
  140.4230   68.0891  227.2648 H   0  0  0  0  0  0  0  0  0  0  0  0
  141.4376   69.8223  228.7117 H   0  0  0  0  0  0  0  0  0  0  0  0
  141.6203   72.1613  227.8993 H   0  0  0  0  0  0  0  0  0  0  0  0
  140.7866   72.7875  225.6211 H   0  0  0  0  0  0  0  0  0  0  0  0
  141.3374   72.0211  223.2404 H   0  0  0  0  0  0  0  0  0  0  0  0
  138.5310   72.9292  223.0088 H   0  0  0  0  0  0  0  0  0  0  0  0
  140.0295   73.8921  223.0941 H   0  0  0  0  0  0  0  0  0  0  0  0
  138.9050   72.4362  220.6360 H   0  0  0  0  0  0  0  0  0  0  0  0
  139.0070   74.1924  220.8541 H   0  0  0  0  0  0  0  0  0  0  0  0
  140.7403   75.9800  219.0447 H   0  0  0  0  0  0  0  0  0  0  0  0
  139.7437   75.3947  220.4373 H   0  0  0  0  0  0  0  0  0  0  0  0
  141.4304   76.2257  221.9721 H   0  0  0  0  0  0  0  0  0  0  0  0
  143.0800   77.7320  220.9570 H   0  0  0  0  0  0  0  0  0  0  0  0
  143.3100   76.1600  220.4530 H   0  0  0  0  0  0  0  0  0  0  0  0
  140.4398   78.3659  220.1706 H   0  0  0  0  0  0  0  0  0  0  0  0
  138.1090   78.9596  220.6247 H   0  0  0  0  0  0  0  0  0  0  0  0
  135.8989   78.3320  221.4899 H   0  0  0  0  0  0  0  0  0  0  0  0
  135.6940   76.4291  223.1063 H   0  0  0  0  0  0  0  0  0  0  0  0
  137.7435   75.2103  223.7989 H   0  0  0  0  0  0  0  0  0  0  0  0
  139.9679   75.8736  222.9054 H   0  0  0  0  0  0  0  0  0  0  0  0
  141.0765   80.4858  220.4151 H   0  0  0  0  0  0  0  0  0  0  0  0
  142.1258   82.2414  221.7522 H   0  0  0  0  0  0  0  0  0  0  0  0
  142.8696   81.7733  224.0777 H   0  0  0  0  0  0  0  0  0  0  0  0
  142.5218   79.4972  224.9979 H   0  0  0  0  0  0  0  0  0  0  0  0
  141.4663   77.7288  223.6628 H   0  0  0  0  0  0  0  0  0  0  0  0
  141.6310   71.4604  219.7287 H   0  0  0  0  0  0  0  0  0  0  0  0
  142.5358   72.0112  221.1632 H   0  0  0  0  0  0  0  0  0  0  0  0
  139.7354   70.7198  221.0886 H   0  0  0  0  0  0  0  0  0  0  0  0
  141.1928   70.0594  221.8651 H   0  0  0  0  0  0  0  0  0  0  0  0
  1  2  1  0
  2  3  1  0
  3  4  2  0
  3  5  1  0
  5  6  1  0
  6  7  2  0
  7  8  1  0
  8  9  2  0
  9 10  1  0
 10 11  2  0
  5 12  1  0
 12 13  1  0
 13 14  1  0
 14 15  1  0
 15 16  1  0
 16 17  2  0
 16 18  1  0
 18 19  1  0
 19 20  1  0
 19 21  1  0
 21 22  1  0
 22 23  2  0
 23 24  1  0
 24 25  2  0
 25 26  1  0
 26 27  2  0
 21 28  1  0
 28 29  2  0
 29 30  1  0
 30 31  2  0
 31 32  1  0
 32 33  2  0
 15 34  1  0
 34 35  1  0
 11  6  1  0
 35 12  1  0
 27 22  1  0
 33 28  1  0
  1 36  1  0
  1 37  1  0
  1 38  1  0
  2 39  1  0
  2 40  1  0
  7 41  1  0
  8 42  1  0
  9 43  1  0
 10 44  1  0
 11 45  1  0
 12 46  1  0
 13 47  1  0
 13 48  1  0
 14 49  1  0
 14 50  1  0
 18 51  1  0
 18 52  1  0
 19 53  1  1
 20 54  1  0
 20 55  1  0
 21 56  1  0
 23 57  1  0
 24 58  1  0
 25 59  1  0
 26 60  1  0
 27 61  1  0
 29 62  1  0
 30 63  1  0
 31 64  1  0
 32 65  1  0
 33 66  1  0
 34 67  1  0
 34 68  1  0
 35 69  1  0
 35 70  1  0
M  END
>  <smiles>  (91) 
CCC(=O)N(c1ccccc1)C1CCN(C(=O)CC(N)C(c2ccccc2)c2ccccc2)CC1

>  <score_type>  (91) 
oracle

>  <origin>  (91) 
autodockgpu

>  <m_score__min__energy>  (91) 
-8.6099999999999994

>  <m_primary>  (91) 
energy

>  <rmsd>  (91) 
7.595553697451064

>  <m_score__min__rmsd>  (91) 
7.595553697451064

>  <meeko>  (91) 
{"free_energy": -7.99, "intermolecular_energy": -10.97, "internal_energy": -3.05, "cluster_size": 40, "cluster_id": 1, "rank_in_cluster": 30}

>  <energy>  (91) 
-8.3

>  <cluster_rmsd>  (91) 
0.0

>  <cluster>  (91) 
2

$$$$

     RDKit          3D

 70 73  0  0  0  0  0  0  0  0999 V2000
  136.5780   70.1140  224.2310 C   0  0  0  0  0  0  0  0  0  0  0  0
  137.3620   68.9720  223.6270 C   0  0  0  0  0  0  0  0  0  0  0  0
  138.7470   68.9060  224.1560 C   0  0  0  0  0  0  0  0  0  0  0  0
  139.1610   67.7610  224.4960 O   0  0  0  0  0  0  0  0  0  0  0  0
  139.5910   70.0390  224.2910 N   0  0  0  0  0  0  0  0  0  0  0  0
  139.9860   70.3880  225.6150 C   0  0  0  0  0  0  0  0  0  0  0  0
  140.8190   71.5040  225.7260 C   0  0  0  0  0  0  0  0  0  0  0  0
  141.2620   71.9250  226.9800 C   0  0  0  0  0  0  0  0  0  0  0  0
  140.8800   71.2430  228.1070 C   0  0  0  0  0  0  0  0  0  0  0  0
  140.0520   70.1340  227.9940 C   0  0  0  0  0  0  0  0  0  0  0  0
  139.5980   69.6980  226.7380 C   0  0  0  0  0  0  0  0  0  0  0  0
  139.9950   70.7590  223.1170 C   0  0  0  0  0  0  0  0  0  0  0  0
  139.1770   72.0280  223.0610 C   0  0  0  0  0  0  0  0  0  0  0  0
  138.7140   72.2120  221.6340 C   0  0  0  0  0  0  0  0  0  0  0  0
  139.9050   72.1500  220.8100 N   0  0  0  0  0  0  0  0  0  0  0  0
  140.4180   73.2930  220.1040 C   0  0  0  0  0  0  0  0  0  0  0  0
  141.4480   73.1070  219.4320 O   0  0  0  0  0  0  0  0  0  0  0  0
  139.6710   74.5480  220.2540 C   0  0  0  0  0  0  0  0  0  0  0  0
  140.2650   75.4080  221.3110 C   0  0  1  0  0  0  0  0  0  0  0  0
  141.7180   75.3770  221.1010 N   0  0  0  0  0  0  0  0  0  0  0  0
  139.7670   76.8190  221.3630 C   0  0  0  0  0  0  0  0  0  0  0  0
  138.4150   76.8040  222.0300 C   0  0  0  0  0  0  0  0  0  0  0  0
  137.6990   77.9630  222.2570 C   0  0  0  0  0  0  0  0  0  0  0  0
  136.4650   77.9900  222.8720 C   0  0  0  0  0  0  0  0  0  0  0  0
  135.8920   76.7990  223.2960 C   0  0  0  0  0  0  0  0  0  0  0  0
  136.5760   75.6220  223.0860 C   0  0  0  0  0  0  0  0  0  0  0  0
  137.8310   75.6270  222.4580 C   0  0  0  0  0  0  0  0  0  0  0  0
  140.6810   77.8150  221.9100 C   0  0  0  0  0  0  0  0  0  0  0  0
  141.0890   77.8940  223.2260 C   0  0  0  0  0  0  0  0  0  0  0  0
  141.9600   78.8490  223.7000 C   0  0  0  0  0  0  0  0  0  0  0  0
  142.4750   79.7950  222.8530 C   0  0  0  0  0  0  0  0  0  0  0  0
  142.0930   79.7520  221.5310 C   0  0  0  0  0  0  0  0  0  0  0  0
  141.2200   78.7940  221.0570 C   0  0  0  0  0  0  0  0  0  0  0  0
  140.5610   70.8440  220.7370 C   0  0  0  0  0  0  0  0  0  0  0  0
  139.9620   69.9580  221.8430 C   0  0  0  0  0  0  0  0  0  0  0  0
  136.6224   70.0493  225.3282 H   0  0  0  0  0  0  0  0  0  0  0  0
  137.0109   71.0703  223.9022 H   0  0  0  0  0  0  0  0  0  0  0  0
  135.5300   70.0536  223.9022 H   0  0  0  0  0  0  0  0  0  0  0  0
  136.8483   68.0273  223.8584 H   0  0  0  0  0  0  0  0  0  0  0  0
  137.4211   69.1378  222.5412 H   0  0  0  0  0  0  0  0  0  0  0  0
  141.1262   72.0518  224.8229 H   0  0  0  0  0  0  0  0  0  0  0  0
  141.9178   72.8041  227.0650 H   0  0  0  0  0  0  0  0  0  0  0  0
  141.2283   71.5733  229.0967 H   0  0  0  0  0  0  0  0  0  0  0  0
  139.7475   69.5896  228.9000 H   0  0  0  0  0  0  0  0  0  0  0  0
  138.9426   68.8185  226.6550 H   0  0  0  0  0  0  0  0  0  0  0  0
  141.0641   71.0043  223.1998 H   0  0  0  0  0  0  0  0  0  0  0  0
  138.3074   71.9433  223.7293 H   0  0  0  0  0  0  0  0  0  0  0  0
  139.7789   72.8897  223.3855 H   0  0  0  0  0  0  0  0  0  0  0  0
  138.0146   71.4105  221.3539 H   0  0  0  0  0  0  0  0  0  0  0  0
  138.1868   73.1687  221.5044 H   0  0  0  0  0  0  0  0  0  0  0  0
  139.6886   75.0918  219.2980 H   0  0  0  0  0  0  0  0  0  0  0  0
  138.6384   74.3044  220.5447 H   0  0  0  0  0  0  0  0  0  0  0  0
  139.9589   75.0002  222.2857 H   0  0  0  0  0  0  0  0  0  0  0  0
  142.1550   75.8220  221.9350 H   0  0  0  0  0  0  0  0  0  0  0  0
  142.0570   74.4020  221.0670 H   0  0  0  0  0  0  0  0  0  0  0  0
  139.6840   77.1759  220.3258 H   0  0  0  0  0  0  0  0  0  0  0  0
  138.1372   78.9172  221.9292 H   0  0  0  0  0  0  0  0  0  0  0  0
  135.9406   78.9448  223.0248 H   0  0  0  0  0  0  0  0  0  0  0  0
  134.9095   76.7952  223.7907 H   0  0  0  0  0  0  0  0  0  0  0  0
  136.1344   74.6693  223.4136 H   0  0  0  0  0  0  0  0  0  0  0  0
  138.3603   74.6752  222.3034 H   0  0  0  0  0  0  0  0  0  0  0  0
  140.6960   77.1519  223.9365 H   0  0  0  0  0  0  0  0  0  0  0  0
  142.2436   78.8526  224.7628 H   0  0  0  0  0  0  0  0  0  0  0  0
  143.1715   80.5643  223.2177 H   0  0  0  0  0  0  0  0  0  0  0  0
  142.4946   80.5018  220.8335 H   0  0  0  0  0  0  0  0  0  0  0  0
  140.9410   78.7964  219.9930 H   0  0  0  0  0  0  0  0  0  0  0  0
  140.3799   70.3882  219.7524 H   0  0  0  0  0  0  0  0  0  0  0  0
  141.6473   70.9500  220.8739 H   0  0  0  0  0  0  0  0  0  0  0  0
  138.9250   69.6904  221.5921 H   0  0  0  0  0  0  0  0  0  0  0  0
  140.5352   69.0254  221.9515 H   0  0  0  0  0  0  0  0  0  0  0  0
  1  2  1  0
  2  3  1  0
  3  4  2  0
  3  5  1  0
  5  6  1  0
  6  7  2  0
  7  8  1  0
  8  9  2  0
  9 10  1  0
 10 11  2  0
  5 12  1  0
 12 13  1  0
 13 14  1  0
 14 15  1  0
 15 16  1  0
 16 17  2  0
 16 18  1  0
 18 19  1  0
 19 20  1  0
 19 21  1  0
 21 22  1  0
 22 23  2  0
 23 24  1  0
 24 25  2  0
 25 26  1  0
 26 27  2  0
 21 28  1  0
 28 29  2  0
 29 30  1  0
 30 31  2  0
 31 32  1  0
 32 33  2  0
 15 34  1  0
 34 35  1  0
 11  6  1  0
 35 12  1  0
 27 22  1  0
 33 28  1  0
  1 36  1  0
  1 37  1  0
  1 38  1  0
  2 39  1  0
  2 40  1  0
  7 41  1  0
  8 42  1  0
  9 43  1  0
 10 44  1  0
 11 45  1  0
 12 46  1  0
 13 47  1  0
 13 48  1  0
 14 49  1  0
 14 50  1  0
 18 51  1  0
 18 52  1  0
 19 53  1  1
 20 54  1  0
 20 55  1  0
 21 56  1  0
 23 57  1  0
 24 58  1  0
 25 59  1  0
 26 60  1  0
 27 61  1  0
 29 62  1  0
 30 63  1  0
 31 64  1  0
 32 65  1  0
 33 66  1  0
 34 67  1  0
 34 68  1  0
 35 69  1  0
 35 70  1  0
M  END
>  <smiles>  (92) 
CCC(=O)N(c1ccccc1)C1CCN(C(=O)CC(N)C(c2ccccc2)c2ccccc2)CC1

>  <score_type>  (92) 
oracle

>  <origin>  (92) 
autodockgpu

>  <m_score__min__energy>  (92) 
-8.6099999999999994

>  <m_primary>  (92) 
energy

>  <rmsd>  (92) 
7.079990343798952

>  <m_score__min__rmsd>  (92) 
7.079990343798952

>  <meeko>  (92) 
{"free_energy": -8.36, "intermolecular_energy": -11.34, "internal_energy": -2.93, "cluster_size": 40, "cluster_id": 1, "rank_in_cluster": 16}

>  <energy>  (92) 
-8.05

>  <cluster_rmsd>  (92) 
0.0

>  <cluster>  (92) 
3

$$$$

     RDKit          3D

 70 73  0  0  0  0  0  0  0  0999 V2000
  136.7300   71.4550  223.8890 C   0  0  0  0  0  0  0  0  0  0  0  0
  137.3110   70.3800  222.9990 C   0  0  0  0  0  0  0  0  0  0  0  0
  138.6320   69.9090  223.4850 C   0  0  0  0  0  0  0  0  0  0  0  0
  138.7920   68.6560  223.5400 O   0  0  0  0  0  0  0  0  0  0  0  0
  139.6810   70.7800  223.8780 N   0  0  0  0  0  0  0  0  0  0  0  0
  140.0060   70.8050  225.2650 C   0  0  0  0  0  0  0  0  0  0  0  0
  140.8160   71.8670  225.6800 C   0  0  0  0  0  0  0  0  0  0  0  0
  141.1900   71.9790  227.0190 C   0  0  0  0  0  0  0  0  0  0  0  0
  140.7630   71.0470  227.9310 C   0  0  0  0  0  0  0  0  0  0  0  0
  139.9590   69.9940  227.5160 C   0  0  0  0  0  0  0  0  0  0  0  0
  139.5730   69.8680  226.1710 C   0  0  0  0  0  0  0  0  0  0  0  0
  140.3480   71.5710  222.8830 C   0  0  0  0  0  0  0  0  0  0  0  0
  139.5430   72.8350  222.6970 C   0  0  0  0  0  0  0  0  0  0  0  0
  139.4430   73.1010  221.2120 C   0  0  0  0  0  0  0  0  0  0  0  0
  140.8020   73.0960  220.7070 N   0  0  0  0  0  0  0  0  0  0  0  0
  141.4500   74.2820  220.2160 C   0  0  0  0  0  0  0  0  0  0  0  0
  142.6170   74.1440  219.8110 O   0  0  0  0  0  0  0  0  0  0  0  0
  140.6620   75.5210  220.2460 C   0  0  0  0  0  0  0  0  0  0  0  0
  141.3490   76.5800  221.0310 C   0  0  1  0  0  0  0  0  0  0  0  0
  142.6080   76.8640  220.3310 N   0  0  0  0  0  0  0  0  0  0  0  0
  140.5700   77.8390  221.2540 C   0  0  0  0  0  0  0  0  0  0  0  0
  139.1980   77.4510  221.7420 C   0  0  0  0  0  0  0  0  0  0  0  0
  139.0070   76.4220  222.6450 C   0  0  0  0  0  0  0  0  0  0  0  0
  137.7680   76.0310  223.1060 C   0  0  0  0  0  0  0  0  0  0  0  0
  136.6350   76.6940  222.6520 C   0  0  0  0  0  0  0  0  0  0  0  0
  136.7860   77.7250  221.7520 C   0  0  0  0  0  0  0  0  0  0  0  0
  138.0610   78.0990  221.3000 C   0  0  0  0  0  0  0  0  0  0  0  0
  141.2120   78.8700  222.0610 C   0  0  0  0  0  0  0  0  0  0  0  0
  141.5440   80.1380  221.6290 C   0  0  0  0  0  0  0  0  0  0  0  0
  142.1460   81.0850  222.4270 C   0  0  0  0  0  0  0  0  0  0  0  0
  142.4500   80.7950  223.7310 C   0  0  0  0  0  0  0  0  0  0  0  0
  142.1370   79.5400  224.2020 C   0  0  0  0  0  0  0  0  0  0  0  0
  141.5330   78.5930  223.4010 C   0  0  0  0  0  0  0  0  0  0  0  0
  141.4830   71.8010  220.7270 C   0  0  0  0  0  0  0  0  0  0  0  0
  140.6480   70.8470  221.5980 C   0  0  0  0  0  0  0  0  0  0  0  0
  136.8794   71.1786  224.9432 H   0  0  0  0  0  0  0  0  0  0  0  0
  137.2340   72.4114  223.6857 H   0  0  0  0  0  0  0  0  0  0  0  0
  135.6538   71.5573  223.6857 H   0  0  0  0  0  0  0  0  0  0  0  0
  136.6172   69.5268  222.9736 H   0  0  0  0  0  0  0  0  0  0  0  0
  137.4515   70.8089  221.9959 H   0  0  0  0  0  0  0  0  0  0  0  0
  141.1585   72.6148  224.9495 H   0  0  0  0  0  0  0  0  0  0  0  0
  141.8274   72.8146  227.3439 H   0  0  0  0  0  0  0  0  0  0  0  0
  141.0567   71.1339  228.9875 H   0  0  0  0  0  0  0  0  0  0  0  0
  139.6196   69.2484  228.2501 H   0  0  0  0  0  0  0  0  0  0  0  0
  138.9343   69.0324  225.8488 H   0  0  0  0  0  0  0  0  0  0  0  0
  141.3581   71.8177  223.2420 H   0  0  0  0  0  0  0  0  0  0  0  0
  138.5372   72.7049  223.1230 H   0  0  0  0  0  0  0  0  0  0  0  0
  140.0279   73.6797  223.2083 H   0  0  0  0  0  0  0  0  0  0  0  0
  138.8516   72.3131  220.7226 H   0  0  0  0  0  0  0  0  0  0  0  0
  138.9440   74.0602  221.0096 H   0  0  0  0  0  0  0  0  0  0  0  0
  140.5152   75.8772  219.2157 H   0  0  0  0  0  0  0  0  0  0  0  0
  139.6955   75.3059  220.7252 H   0  0  0  0  0  0  0  0  0  0  0  0
  141.4979   76.1963  222.0511 H   0  0  0  0  0  0  0  0  0  0  0  0
  143.0180   77.7120  220.7740 H   0  0  0  0  0  0  0  0  0  0  0  0
  143.2810   76.0930  220.4740 H   0  0  0  0  0  0  0  0  0  0  0  0
  140.5034   78.3587  220.2868 H   0  0  0  0  0  0  0  0  0  0  0  0
  139.8926   75.8855  223.0163 H   0  0  0  0  0  0  0  0  0  0  0  0
  137.6777   75.2035  223.8251 H   0  0  0  0  0  0  0  0  0  0  0  0
  135.6353   76.4007  223.0050 H   0  0  0  0  0  0  0  0  0  0  0  0
  135.8987   78.2608  221.3836 H   0  0  0  0  0  0  0  0  0  0  0  0
  138.1568   78.9246  220.5794 H   0  0  0  0  0  0  0  0  0  0  0  0
  141.3146   80.4076  220.5875 H   0  0  0  0  0  0  0  0  0  0  0  0
  142.3835   82.0774  222.0162 H   0  0  0  0  0  0  0  0  0  0  0  0
  142.9292   81.5417  224.3813 H   0  0  0  0  0  0  0  0  0  0  0  0
  142.3749   79.2853  225.2453 H   0  0  0  0  0  0  0  0  0  0  0  0
  141.2983   77.6029  223.8188 H   0  0  0  0  0  0  0  0  0  0  0  0
  141.5613   71.4030  219.7045 H   0  0  0  0  0  0  0  0  0  0  0  0
  142.4989   71.9062  221.1356 H   0  0  0  0  0  0  0  0  0  0  0  0
  139.7111   70.5881  221.0830 H   0  0  0  0  0  0  0  0  0  0  0  0
  141.1959   69.9133  221.7929 H   0  0  0  0  0  0  0  0  0  0  0  0
  1  2  1  0
  2  3  1  0
  3  4  2  0
  3  5  1  0
  5  6  1  0
  6  7  2  0
  7  8  1  0
  8  9  2  0
  9 10  1  0
 10 11  2  0
  5 12  1  0
 12 13  1  0
 13 14  1  0
 14 15  1  0
 15 16  1  0
 16 17  2  0
 16 18  1  0
 18 19  1  0
 19 20  1  0
 19 21  1  0
 21 22  1  0
 22 23  2  0
 23 24  1  0
 24 25  2  0
 25 26  1  0
 26 27  2  0
 21 28  1  0
 28 29  2  0
 29 30  1  0
 30 31  2  0
 31 32  1  0
 32 33  2  0
 15 34  1  0
 34 35  1  0
 11  6  1  0
 35 12  1  0
 27 22  1  0
 33 28  1  0
  1 36  1  0
  1 37  1  0
  1 38  1  0
  2 39  1  0
  2 40  1  0
  7 41  1  0
  8 42  1  0
  9 43  1  0
 10 44  1  0
 11 45  1  0
 12 46  1  0
 13 47  1  0
 13 48  1  0
 14 49  1  0
 14 50  1  0
 18 51  1  0
 18 52  1  0
 19 53  1  1
 20 54  1  0
 20 55  1  0
 21 56  1  0
 23 57  1  0
 24 58  1  0
 25 59  1  0
 26 60  1  0
 27 61  1  0
 29 62  1  0
 30 63  1  0
 31 64  1  0
 32 65  1  0
 33 66  1  0
 34 67  1  0
 34 68  1  0
 35 69  1  0
 35 70  1  0
M  END
>  <smiles>  (93) 
CCC(=O)N(c1ccccc1)C1CCN(C(=O)CC(N)C(c2ccccc2)c2ccccc2)CC1

>  <score_type>  (93) 
oracle

>  <origin>  (93) 
autodockgpu

>  <m_score__min__energy>  (93) 
-8.6099999999999994

>  <m_primary>  (93) 
energy

>  <rmsd>  (93) 
7.721236258797732

>  <m_score__min__rmsd>  (93) 
7.721236258797732

>  <meeko>  (93) 
{"free_energy": -8.17, "intermolecular_energy": -11.15, "internal_energy": -3.11, "cluster_size": 40, "cluster_id": 1, "rank_in_cluster": 20}

>  <energy>  (93) 
-7.52

>  <cluster_rmsd>  (93) 
1.18

>  <cluster>  (93) 
3

$$$$

     RDKit          3D

 70 73  0  0  0  0  0  0  0  0999 V2000
  138.4800   68.1940  222.7990 C   0  0  0  0  0  0  0  0  0  0  0  0
  138.7490   69.5140  222.1120 C   0  0  0  0  0  0  0  0  0  0  0  0
  138.6510   70.6590  223.0500 C   0  0  0  0  0  0  0  0  0  0  0  0
  137.4820   71.0340  223.3540 O   0  0  0  0  0  0  0  0  0  0  0  0
  139.7780   71.3260  223.5960 N   0  0  0  0  0  0  0  0  0  0  0  0
  140.0940   71.0400  224.9570 C   0  0  0  0  0  0  0  0  0  0  0  0
  139.6200   69.8200  225.4470 C   0  0  0  0  0  0  0  0  0  0  0  0
  139.8760   69.4500  226.7670 C   0  0  0  0  0  0  0  0  0  0  0  0
  140.5940   70.2840  227.5870 C   0  0  0  0  0  0  0  0  0  0  0  0
  141.0640   71.4950  227.0970 C   0  0  0  0  0  0  0  0  0  0  0  0
  140.8140   71.8810  225.7690 C   0  0  0  0  0  0  0  0  0  0  0  0
  140.5260   72.2330  222.7730 C   0  0  0  0  0  0  0  0  0  0  0  0
  139.5870   73.3360  222.3450 C   0  0  0  0  0  0  0  0  0  0  0  0
  139.8210   73.5930  220.8740 C   0  0  0  0  0  0  0  0  0  0  0  0
  141.2430   73.8340  220.7270 N   0  0  0  0  0  0  0  0  0  0  0  0
  141.7770   75.1210  220.3710 C   0  0  0  0  0  0  0  0  0  0  0  0
  143.0150   75.1960  220.2770 O   0  0  0  0  0  0  0  0  0  0  0  0
  140.8040   76.2000  220.1580 C   0  0  0  0  0  0  0  0  0  0  0  0
  140.8600   77.2020  221.2540 C   0  0  1  0  0  0  0  0  0  0  0  0
  141.0680   76.4470  222.4950 N   0  0  0  0  0  0  0  0  0  0  0  0
  141.8930   78.2760  221.1070 C   0  0  0  0  0  0  0  0  0  0  0  0
  141.8020   78.8130  219.7010 C   0  0  0  0  0  0  0  0  0  0  0  0
  140.9520   79.8490  219.3680 C   0  0  0  0  0  0  0  0  0  0  0  0
  140.8330   80.3590  218.0920 C   0  0  0  0  0  0  0  0  0  0  0  0
  141.6010   79.8160  217.0710 C   0  0  0  0  0  0  0  0  0  0  0  0
  142.4610   78.7810  217.3650 C   0  0  0  0  0  0  0  0  0  0  0  0
  142.5580   78.2830  218.6730 C   0  0  0  0  0  0  0  0  0  0  0  0
  141.9080   79.3130  222.1330 C   0  0  0  0  0  0  0  0  0  0  0  0
  143.0350   79.8210  222.7450 C   0  0  0  0  0  0  0  0  0  0  0  0
  143.0060   80.8060  223.7070 C   0  0  0  0  0  0  0  0  0  0  0  0
  141.8100   81.3400  224.1100 C   0  0  0  0  0  0  0  0  0  0  0  0
  140.6600   80.8600  223.5250 C   0  0  0  0  0  0  0  0  0  0  0  0
  140.6920   79.8730  222.5600 C   0  0  0  0  0  0  0  0  0  0  0  0
  142.1120   72.6810  220.9630 C   0  0  0  0  0  0  0  0  0  0  0  0
  141.2630   71.5850  221.6310 C   0  0  0  0  0  0  0  0  0  0  0  0
  138.5089   68.3356  223.8895 H   0  0  0  0  0  0  0  0  0  0  0  0
  137.4877   67.8224  222.5036 H   0  0  0  0  0  0  0  0  0  0  0  0
  139.2478   67.4638  222.5036 H   0  0  0  0  0  0  0  0  0  0  0  0
  139.7620   69.4915  221.6837 H   0  0  0  0  0  0  0  0  0  0  0  0
  137.9887   69.6505  221.3288 H   0  0  0  0  0  0  0  0  0  0  0  0
  139.0443   69.1508  224.7907 H   0  0  0  0  0  0  0  0  0  0  0  0
  139.5023   68.4893  227.1511 H   0  0  0  0  0  0  0  0  0  0  0  0
  140.7963   69.9941  228.6286 H   0  0  0  0  0  0  0  0  0  0  0  0
  141.6395   72.1610  227.7567 H   0  0  0  0  0  0  0  0  0  0  0  0
  141.1892   72.8416  225.3862 H   0  0  0  0  0  0  0  0  0  0  0  0
  141.3523   72.6530  223.3652 H   0  0  0  0  0  0  0  0  0  0  0  0
  138.5446   73.0258  222.5100 H   0  0  0  0  0  0  0  0  0  0  0  0
  139.7725   74.2488  222.9301 H   0  0  0  0  0  0  0  0  0  0  0  0
  139.5194   72.7169  220.2811 H   0  0  0  0  0  0  0  0  0  0  0  0
  139.2302   74.4497  220.5177 H   0  0  0  0  0  0  0  0  0  0  0  0
  141.0266   76.6999  219.2038 H   0  0  0  0  0  0  0  0  0  0  0  0
  139.7960   75.7600  220.1411 H   0  0  0  0  0  0  0  0  0  0  0  0
  139.9143   77.7637  221.2421 H   0  0  0  0  0  0  0  0  0  0  0  0
  141.9110   75.8530  222.3530 H   0  0  0  0  0  0  0  0  0  0  0  0
  141.2800   77.0890  223.2760 H   0  0  0  0  0  0  0  0  0  0  0  0
  142.8750   77.8119  221.2809 H   0  0  0  0  0  0  0  0  0  0  0  0
  140.3358   80.2920  220.1643 H   0  0  0  0  0  0  0  0  0  0  0  0
  140.1378   81.1862  217.8858 H   0  0  0  0  0  0  0  0  0  0  0  0
  141.5241   80.2055  216.0451 H   0  0  0  0  0  0  0  0  0  0  0  0
  143.0772   78.3410  216.5671 H   0  0  0  0  0  0  0  0  0  0  0  0
  143.2496   77.4542  218.8844 H   0  0  0  0  0  0  0  0  0  0  0  0
  144.0135   79.4159  222.4474 H   0  0  0  0  0  0  0  0  0  0  0  0
  143.9452   81.1650  224.1530 H   0  0  0  0  0  0  0  0  0  0  0  0
  141.7701   82.1275  224.8769 H   0  0  0  0  0  0  0  0  0  0  0  0
  139.6891   81.2741  223.8348 H   0  0  0  0  0  0  0  0  0  0  0  0
  139.7491   79.5189  222.1177 H   0  0  0  0  0  0  0  0  0  0  0  0
  142.5144   72.3132  220.0076 H   0  0  0  0  0  0  0  0  0  0  0  0
  142.9573   72.9611  221.6088 H   0  0  0  0  0  0  0  0  0  0  0  0
  140.5469   71.1683  220.9074 H   0  0  0  0  0  0  0  0  0  0  0  0
  141.8977   70.7616  221.9905 H   0  0  0  0  0  0  0  0  0  0  0  0
  1  2  1  0
  2  3  1  0
  3  4  2  0
  3  5  1  0
  5  6  1  0
  6  7  2  0
  7  8  1  0
  8  9  2  0
  9 10  1  0
 10 11  2  0
  5 12  1  0
 12 13  1  0
 13 14  1  0
 14 15  1  0
 15 16  1  0
 16 17  2  0
 16 18  1  0
 18 19  1  0
 19 20  1  0
 19 21  1  0
 21 22  1  0
 22 23  2  0
 23 24  1  0
 24 25  2  0
 25 26  1  0
 26 27  2  0
 21 28  1  0
 28 29  2  0
 29 30  1  0
 30 31  2  0
 31 32  1  0
 32 33  2  0
 15 34  1  0
 34 35  1  0
 11  6  1  0
 35 12  1  0
 27 22  1  0
 33 28  1  0
  1 36  1  0
  1 37  1  0
  1 38  1  0
  2 39  1  0
  2 40  1  0
  7 41  1  0
  8 42  1  0
  9 43  1  0
 10 44  1  0
 11 45  1  0
 12 46  1  0
 13 47  1  0
 13 48  1  0
 14 49  1  0
 14 50  1  0
 18 51  1  0
 18 52  1  0
 19 53  1  1
 20 54  1  0
 20 55  1  0
 21 56  1  0
 23 57  1  0
 24 58  1  0
 25 59  1  0
 26 60  1  0
 27 61  1  0
 29 62  1  0
 30 63  1  0
 31 64  1  0
 32 65  1  0
 33 66  1  0
 34 67  1  0
 34 68  1  0
 35 69  1  0
 35 70  1  0
M  END
>  <smiles>  (94) 
CCC(=O)N(c1ccccc1)C1CCN(C(=O)CC(N)C(c2ccccc2)c2ccccc2)CC1

>  <score_type>  (94) 
oracle

>  <origin>  (94) 
autodockgpu

>  <m_score__min__energy>  (94) 
-8.6099999999999994

>  <m_primary>  (94) 
energy

>  <rmsd>  (94) 
9.93792635051522

>  <m_score__min__rmsd>  (94) 
9.93792635051522

>  <meeko>  (94) 
{"free_energy": -8.61, "intermolecular_energy": -11.59, "internal_energy": -2.47, "cluster_size": 40, "cluster_id": 1, "rank_in_cluster": 2}

>  <energy>  (94) 
-7.96

>  <cluster_rmsd>  (94) 
0.0

>  <cluster>  (94) 
4

$$$$

     RDKit          3D

 70 73  0  0  0  0  0  0  0  0999 V2000
  136.9950   68.5140  222.7350 C   0  0  0  0  0  0  0  0  0  0  0  0
  137.2440   68.9360  224.1650 C   0  0  0  0  0  0  0  0  0  0  0  0
  138.6850   68.8930  224.5150 C   0  0  0  0  0  0  0  0  0  0  0  0
  139.1680   67.7490  224.7530 O   0  0  0  0  0  0  0  0  0  0  0  0
  139.5110   70.0450  224.5910 N   0  0  0  0  0  0  0  0  0  0  0  0
  140.0050   70.3930  225.8810 C   0  0  0  0  0  0  0  0  0  0  0  0
  140.7800   71.5550  225.9410 C   0  0  0  0  0  0  0  0  0  0  0  0
  141.3120   71.9790  227.1600 C   0  0  0  0  0  0  0  0  0  0  0  0
  141.0740   71.2550  228.3010 C   0  0  0  0  0  0  0  0  0  0  0  0
  140.3040   70.1020  228.2380 C   0  0  0  0  0  0  0  0  0  0  0  0
  139.7620   69.6620  227.0190 C   0  0  0  0  0  0  0  0  0  0  0  0
  139.8000   70.7840  223.3950 C   0  0  0  0  0  0  0  0  0  0  0  0
  138.7780   71.8900  223.2880 C   0  0  0  0  0  0  0  0  0  0  0  0
  138.3070   71.9430  221.8530 C   0  0  0  0  0  0  0  0  0  0  0  0
  139.5020   72.0590  221.0390 N   0  0  0  0  0  0  0  0  0  0  0  0
  139.8200   73.2490  220.2960 C   0  0  0  0  0  0  0  0  0  0  0  0
  140.8750   73.2200  219.6380 O   0  0  0  0  0  0  0  0  0  0  0  0
  138.8660   74.3610  220.3970 C   0  0  0  0  0  0  0  0  0  0  0  0
  139.3420   75.3960  221.3510 C   0  0  1  0  0  0  0  0  0  0  0  0
  140.2150   74.7060  222.3090 N   0  0  0  0  0  0  0  0  0  0  0  0
  140.0460   76.5710  220.7450 C   0  0  0  0  0  0  0  0  0  0  0  0
  140.2060   77.6150  221.8210 C   0  0  0  0  0  0  0  0  0  0  0  0
  141.4490   78.0510  222.2380 C   0  0  0  0  0  0  0  0  0  0  0  0
  141.6350   78.9960  223.2250 C   0  0  0  0  0  0  0  0  0  0  0  0
  140.5260   79.5530  223.8480 C   0  0  0  0  0  0  0  0  0  0  0  0
  139.2700   79.1430  223.4590 C   0  0  0  0  0  0  0  0  0  0  0  0
  139.1140   78.1790  222.4520 C   0  0  0  0  0  0  0  0  0  0  0  0
  141.2740   76.2900  220.0110 C   0  0  0  0  0  0  0  0  0  0  0  0
  142.3170   75.5060  220.4600 C   0  0  0  0  0  0  0  0  0  0  0  0
  143.4590   75.2610  219.7310 C   0  0  0  0  0  0  0  0  0  0  0  0
  143.6110   75.8070  218.4840 C   0  0  0  0  0  0  0  0  0  0  0  0
  142.5940   76.5970  217.9980 C   0  0  0  0  0  0  0  0  0  0  0  0
  141.4500   76.8410  218.7300 C   0  0  0  0  0  0  0  0  0  0  0  0
  140.3720   70.8830  221.0170 C   0  0  0  0  0  0  0  0  0  0  0  0
  139.9200   69.9450  222.1500 C   0  0  0  0  0  0  0  0  0  0  0  0
  136.4360   67.5667  222.7243 H   0  0  0  0  0  0  0  0  0  0  0  0
  136.4104   69.2905  222.2200 H   0  0  0  0  0  0  0  0  0  0  0  0
  137.9574   68.3777  222.2200 H   0  0  0  0  0  0  0  0  0  0  0  0
  136.8762   69.9637  224.3010 H   0  0  0  0  0  0  0  0  0  0  0  0
  136.7136   68.2327  224.8237 H   0  0  0  0  0  0  0  0  0  0  0  0
  140.9708   72.1359  225.0266 H   0  0  0  0  0  0  0  0  0  0  0  0
  141.9219   72.8933  227.2058 H   0  0  0  0  0  0  0  0  0  0  0  0
  141.4922   71.5873  229.2626 H   0  0  0  0  0  0  0  0  0  0  0  0
  140.1156   69.5248  229.1552 H   0  0  0  0  0  0  0  0  0  0  0  0
  139.1529   68.7471  226.9761 H   0  0  0  0  0  0  0  0  0  0  0  0
  140.8096   71.2130  223.4762 H   0  0  0  0  0  0  0  0  0  0  0  0
  137.9279   71.6803  223.9538 H   0  0  0  0  0  0  0  0  0  0  0  0
  139.2198   72.8528  223.5843 H   0  0  0  0  0  0  0  0  0  0  0  0
  137.7591   71.0241  221.5973 H   0  0  0  0  0  0  0  0  0  0  0  0
  137.6245   72.7894  221.6861 H   0  0  0  0  0  0  0  0  0  0  0  0
  138.7425   74.8184  219.4043 H   0  0  0  0  0  0  0  0  0  0  0  0
  137.9082   73.9643  220.7647 H   0  0  0  0  0  0  0  0  0  0  0  0
  138.4567   75.8504  221.8199 H   0  0  0  0  0  0  0  0  0  0  0  0
  139.6010   74.1180  222.9110 H   0  0  0  0  0  0  0  0  0  0  0  0
  140.8560   74.0640  221.8150 H   0  0  0  0  0  0  0  0  0  0  0  0
  139.4116   76.9487  219.9296 H   0  0  0  0  0  0  0  0  0  0  0  0
  142.3393   77.6206  221.7562 H   0  0  0  0  0  0  0  0  0  0  0  0
  142.6500   79.3049  223.5154 H   0  0  0  0  0  0  0  0  0  0  0  0
  140.6485   80.3083  224.6382 H   0  0  0  0  0  0  0  0  0  0  0  0
  138.3814   79.5753  223.9422 H   0  0  0  0  0  0  0  0  0  0  0  0
  138.1012   77.8656  222.1586 H   0  0  0  0  0  0  0  0  0  0  0  0
  142.2311   75.0506  221.4576 H   0  0  0  0  0  0  0  0  0  0  0  0
  144.2518   74.6248  220.1513 H   0  0  0  0  0  0  0  0  0  0  0  0
  144.5174   75.6200  217.8896 H   0  0  0  0  0  0  0  0  0  0  0  0
  142.6960   77.0460  216.9990 H   0  0  0  0  0  0  0  0  0  0  0  0
  140.6615   77.4783  218.3032 H   0  0  0  0  0  0  0  0  0  0  0  0
  140.2836   70.3698  220.0481 H   0  0  0  0  0  0  0  0  0  0  0  0
  141.4223   71.1783  221.1574 H   0  0  0  0  0  0  0  0  0  0  0  0
  138.9472   69.4951  221.9025 H   0  0  0  0  0  0  0  0  0  0  0  0
  140.6425   69.1283  222.2952 H   0  0  0  0  0  0  0  0  0  0  0  0
  1  2  1  0
  2  3  1  0
  3  4  2  0
  3  5  1  0
  5  6  1  0
  6  7  2  0
  7  8  1  0
  8  9  2  0
  9 10  1  0
 10 11  2  0
  5 12  1  0
 12 13  1  0
 13 14  1  0
 14 15  1  0
 15 16  1  0
 16 17  2  0
 16 18  1  0
 18 19  1  0
 19 20  1  0
 19 21  1  0
 21 22  1  0
 22 23  2  0
 23 24  1  0
 24 25  2  0
 25 26  1  0
 26 27  2  0
 21 28  1  0
 28 29  2  0
 29 30  1  0
 30 31  2  0
 31 32  1  0
 32 33  2  0
 15 34  1  0
 34 35  1  0
 11  6  1  0
 35 12  1  0
 27 22  1  0
 33 28  1  0
  1 36  1  0
  1 37  1  0
  1 38  1  0
  2 39  1  0
  2 40  1  0
  7 41  1  0
  8 42  1  0
  9 43  1  0
 10 44  1  0
 11 45  1  0
 12 46  1  0
 13 47  1  0
 13 48  1  0
 14 49  1  0
 14 50  1  0
 18 51  1  0
 18 52  1  0
 19 53  1  1
 20 54  1  0
 20 55  1  0
 21 56  1  0
 23 57  1  0
 24 58  1  0
 25 59  1  0
 26 60  1  0
 27 61  1  0
 29 62  1  0
 30 63  1  0
 31 64  1  0
 32 65  1  0
 33 66  1  0
 34 67  1  0
 34 68  1  0
 35 69  1  0
 35 70  1  0
M  END
>  <smiles>  (95) 
CCC(=O)N(c1ccccc1)C1CCN(C(=O)CC(N)C(c2ccccc2)c2ccccc2)CC1

>  <score_type>  (95) 
oracle

>  <origin>  (95) 
autodockgpu

>  <m_score__min__energy>  (95) 
-8.6099999999999994

>  <m_primary>  (95) 
energy

>  <rmsd>  (95) 
7.567306089783448

>  <m_score__min__rmsd>  (95) 
7.567306089783448

>  <meeko>  (95) 
{"free_energy": -8.55, "intermolecular_energy": -11.53, "internal_energy": -2.66, "cluster_size": 40, "cluster_id": 1, "rank_in_cluster": 6}

>  <energy>  (95) 
-7.44

>  <cluster_rmsd>  (95) 
0.0

>  <cluster>  (95) 
5

$$$$

     RDKit          3D

 70 73  0  0  0  0  0  0  0  0999 V2000
  138.4660   67.9610  222.9820 C   0  0  0  0  0  0  0  0  0  0  0  0
  138.8640   69.1930  222.2020 C   0  0  0  0  0  0  0  0  0  0  0  0
  138.7060   70.4320  223.0030 C   0  0  0  0  0  0  0  0  0  0  0  0
  137.5190   70.8170  223.2090 O   0  0  0  0  0  0  0  0  0  0  0  0
  139.7970   71.1750  223.5240 N   0  0  0  0  0  0  0  0  0  0  0  0
  140.0840   71.0050  224.9090 C   0  0  0  0  0  0  0  0  0  0  0  0
  139.5290   69.8710  225.5100 C   0  0  0  0  0  0  0  0  0  0  0  0
  139.7510   69.6170  226.8630 C   0  0  0  0  0  0  0  0  0  0  0  0
  140.5170   70.4790  227.6070 C   0  0  0  0  0  0  0  0  0  0  0  0
  141.0670   71.6040  227.0080 C   0  0  0  0  0  0  0  0  0  0  0  0
  140.8520   71.8740  225.6460 C   0  0  0  0  0  0  0  0  0  0  0  0
  140.5390   72.0400  222.6510 C   0  0  0  0  0  0  0  0  0  0  0  0
  139.6700   73.2400  222.3570 C   0  0  0  0  0  0  0  0  0  0  0  0
  139.7750   73.5310  220.8770 C   0  0  0  0  0  0  0  0  0  0  0  0
  141.1910   73.6460  220.5870 N   0  0  0  0  0  0  0  0  0  0  0  0
  141.8060   74.8910  220.2130 C   0  0  0  0  0  0  0  0  0  0  0  0
  143.0290   74.8560  219.9900 O   0  0  0  0  0  0  0  0  0  0  0  0
  140.9230   76.0620  220.1350 C   0  0  0  0  0  0  0  0  0  0  0  0
  141.5760   77.2700  220.7060 C   0  0  1  0  0  0  0  0  0  0  0  0
  142.5720   77.7070  219.7210 N   0  0  0  0  0  0  0  0  0  0  0  0
  140.6600   78.3970  221.0710 C   0  0  0  0  0  0  0  0  0  0  0  0
  139.3520   77.7990  221.5210 C   0  0  0  0  0  0  0  0  0  0  0  0
  139.2640   76.9840  222.6330 C   0  0  0  0  0  0  0  0  0  0  0  0
  138.0880   76.4110  223.0690 C   0  0  0  0  0  0  0  0  0  0  0  0
  136.9150   76.6530  222.3670 C   0  0  0  0  0  0  0  0  0  0  0  0
  136.9630   77.4610  221.2530 C   0  0  0  0  0  0  0  0  0  0  0  0
  138.1750   78.0290  220.8340 C   0  0  0  0  0  0  0  0  0  0  0  0
  141.1930   79.4020  221.9840 C   0  0  0  0  0  0  0  0  0  0  0  0
  142.0830   79.1630  223.0100 C   0  0  0  0  0  0  0  0  0  0  0  0
  142.5660   80.1440  223.8470 C   0  0  0  0  0  0  0  0  0  0  0  0
  142.1660   81.4450  223.6880 C   0  0  0  0  0  0  0  0  0  0  0  0
  141.2770   81.7260  222.6760 C   0  0  0  0  0  0  0  0  0  0  0  0
  140.7950   80.7420  221.8380 C   0  0  0  0  0  0  0  0  0  0  0  0
  141.9660   72.4090  220.6970 C   0  0  0  0  0  0  0  0  0  0  0  0
  141.0890   71.3720  221.4200 C   0  0  0  0  0  0  0  0  0  0  0  0
  138.5340   68.1714  224.0595 H   0  0  0  0  0  0  0  0  0  0  0  0
  137.4325   67.6836  222.7270 H   0  0  0  0  0  0  0  0  0  0  0  0
  139.1419   67.1314  222.7270 H   0  0  0  0  0  0  0  0  0  0  0  0
  139.9173   69.0973  221.8997 H   0  0  0  0  0  0  0  0  0  0  0  0
  138.2041   69.2684  221.3251 H   0  0  0  0  0  0  0  0  0  0  0  0
  138.9163   69.1782  224.9145 H   0  0  0  0  0  0  0  0  0  0  0  0
  139.3119   68.7253  227.3342 H   0  0  0  0  0  0  0  0  0  0  0  0
  140.6945   70.2792  228.6740 H   0  0  0  0  0  0  0  0  0  0  0  0
  141.6794   72.2934  227.6077 H   0  0  0  0  0  0  0  0  0  0  0  0
  141.2915   72.7668  225.1772 H   0  0  0  0  0  0  0  0  0  0  0  0
  141.4587   72.3590  223.1632 H   0  0  0  0  0  0  0  0  0  0  0  0
  138.6254   73.0204  222.6226 H   0  0  0  0  0  0  0  0  0  0  0  0
  140.0004   74.1088  222.9452 H   0  0  0  0  0  0  0  0  0  0  0  0
  139.3319   72.7098  220.2945 H   0  0  0  0  0  0  0  0  0  0  0  0
  139.2350   74.4514  220.6101 H   0  0  0  0  0  0  0  0  0  0  0  0
  140.6742   76.2536  219.0808 H   0  0  0  0  0  0  0  0  0  0  0  0
  140.0139   75.8508  220.7171 H   0  0  0  0  0  0  0  0  0  0  0  0
  142.0189   76.9865  221.6721 H   0  0  0  0  0  0  0  0  0  0  0  0
  142.9010   78.6490  220.0190 H   0  0  0  0  0  0  0  0  0  0  0  0
  143.3940   77.0820  219.7380 H   0  0  0  0  0  0  0  0  0  0  0  0
  140.5152   79.0079  220.1678 H   0  0  0  0  0  0  0  0  0  0  0  0
  140.1831   76.7809  223.2022 H   0  0  0  0  0  0  0  0  0  0  0  0
  138.0794   75.7696  223.9626 H   0  0  0  0  0  0  0  0  0  0  0  0
  135.9643   76.2073  222.6948 H   0  0  0  0  0  0  0  0  0  0  0  0
  136.0421   77.6629  220.6864 H   0  0  0  0  0  0  0  0  0  0  0  0
  138.1891   78.6705  219.9405 H   0  0  0  0  0  0  0  0  0  0  0  0
  142.4265   78.1302  223.1687 H   0  0  0  0  0  0  0  0  0  0  0  0
  143.2753   79.8824  224.6460 H   0  0  0  0  0  0  0  0  0  0  0  0
  142.5436   82.2395  224.3484 H   0  0  0  0  0  0  0  0  0  0  0  0
  140.9415   82.7636  222.5313 H   0  0  0  0  0  0  0  0  0  0  0  0
  140.0862   81.0110  221.0410 H   0  0  0  0  0  0  0  0  0  0  0  0
  142.2309   72.0422  219.6944 H   0  0  0  0  0  0  0  0  0  0  0  0
  142.8963   72.5850  221.2569 H   0  0  0  0  0  0  0  0  0  0  0  0
  140.2657   71.0514  220.7647 H   0  0  0  0  0  0  0  0  0  0  0  0
  141.6757   70.4806  221.6869 H   0  0  0  0  0  0  0  0  0  0  0  0
  1  2  1  0
  2  3  1  0
  3  4  2  0
  3  5  1  0
  5  6  1  0
  6  7  2  0
  7  8  1  0
  8  9  2  0
  9 10  1  0
 10 11  2  0
  5 12  1  0
 12 13  1  0
 13 14  1  0
 14 15  1  0
 15 16  1  0
 16 17  2  0
 16 18  1  0
 18 19  1  0
 19 20  1  0
 19 21  1  0
 21 22  1  0
 22 23  2  0
 23 24  1  0
 24 25  2  0
 25 26  1  0
 26 27  2  0
 21 28  1  0
 28 29  2  0
 29 30  1  0
 30 31  2  0
 31 32  1  0
 32 33  2  0
 15 34  1  0
 34 35  1  0
 11  6  1  0
 35 12  1  0
 27 22  1  0
 33 28  1  0
  1 36  1  0
  1 37  1  0
  1 38  1  0
  2 39  1  0
  2 40  1  0
  7 41  1  0
  8 42  1  0
  9 43  1  0
 10 44  1  0
 11 45  1  0
 12 46  1  0
 13 47  1  0
 13 48  1  0
 14 49  1  0
 14 50  1  0
 18 51  1  0
 18 52  1  0
 19 53  1  1
 20 54  1  0
 20 55  1  0
 21 56  1  0
 23 57  1  0
 24 58  1  0
 25 59  1  0
 26 60  1  0
 27 61  1  0
 29 62  1  0
 30 63  1  0
 31 64  1  0
 32 65  1  0
 33 66  1  0
 34 67  1  0
 34 68  1  0
 35 69  1  0
 35 70  1  0
M  END
>  <smiles>  (96) 
CCC(=O)N(c1ccccc1)C1CCN(C(=O)CC(N)C(c2ccccc2)c2ccccc2)CC1

>  <score_type>  (96) 
oracle

>  <origin>  (96) 
autodockgpu

>  <m_score__min__energy>  (96) 
-8.6099999999999994

>  <m_primary>  (96) 
energy

>  <rmsd>  (96) 
8.027893870702075

>  <m_score__min__rmsd>  (96) 
8.027893870702075

>  <meeko>  (96) 
{"free_energy": -8.05, "intermolecular_energy": -11.04, "internal_energy": -3.0, "cluster_size": 40, "cluster_id": 1, "rank_in_cluster": 27}

>  <energy>  (96) 
-7.35

>  <cluster_rmsd>  (96) 
0.0

>  <cluster>  (96) 
6

$$$$

     RDKit          3D

 70 73  0  0  0  0  0  0  0  0999 V2000
  143.2770   77.2090  216.7180 C   0  0  0  0  0  0  0  0  0  0  0  0
  143.7420   75.7960  216.9840 C   0  0  0  0  0  0  0  0  0  0  0  0
  142.7200   75.0010  217.7100 C   0  0  0  0  0  0  0  0  0  0  0  0
  141.8310   74.4510  216.9990 O   0  0  0  0  0  0  0  0  0  0  0  0
  142.7030   74.8440  219.1200 N   0  0  0  0  0  0  0  0  0  0  0  0
  143.8330   74.2030  219.7060 C   0  0  0  0  0  0  0  0  0  0  0  0
  143.9450   72.8300  219.4660 C   0  0  0  0  0  0  0  0  0  0  0  0
  145.0170   72.1120  219.9980 C   0  0  0  0  0  0  0  0  0  0  0  0
  145.9620   72.7530  220.7590 C   0  0  0  0  0  0  0  0  0  0  0  0
  145.8480   74.1160  220.9960 C   0  0  0  0  0  0  0  0  0  0  0  0
  144.7750   74.8530  220.4660 C   0  0  0  0  0  0  0  0  0  0  0  0
  141.5780   75.3270  219.8690 C   0  0  0  0  0  0  0  0  0  0  0  0
  141.5120   76.8230  219.6710 C   0  0  0  0  0  0  0  0  0  0  0  0
  141.2380   77.4520  221.0180 C   0  0  0  0  0  0  0  0  0  0  0  0
  140.0550   76.7950  221.5390 N   0  0  0  0  0  0  0  0  0  0  0  0
  138.7970   77.4760  221.6930 C   0  0  0  0  0  0  0  0  0  0  0  0
  137.8590   76.7990  222.1500 O   0  0  0  0  0  0  0  0  0  0  0  0
  138.7610   78.8890  221.2950 C   0  0  0  0  0  0  0  0  0  0  0  0
  137.8730   79.6790  222.1880 C   0  0  1  0  0  0  0  0  0  0  0  0
  136.6000   78.9510  222.2560 N   0  0  0  0  0  0  0  0  0  0  0  0
  138.4020   79.9520  223.5620 C   0  0  0  0  0  0  0  0  0  0  0  0
  139.8920   80.1510  223.4490 C   0  0  0  0  0  0  0  0  0  0  0  0
  140.7930   79.1950  223.8780 C   0  0  0  0  0  0  0  0  0  0  0  0
  142.1610   79.3470  223.8010 C   0  0  0  0  0  0  0  0  0  0  0  0
  142.6850   80.5160  223.2670 C   0  0  0  0  0  0  0  0  0  0  0  0
  141.8180   81.4930  222.8290 C   0  0  0  0  0  0  0  0  0  0  0  0
  140.4300   81.3090  222.9220 C   0  0  0  0  0  0  0  0  0  0  0  0
  137.7250   80.9920  224.3280 C   0  0  0  0  0  0  0  0  0  0  0  0
  137.5110   80.9750  225.6900 C   0  0  0  0  0  0  0  0  0  0  0  0
  136.8710   81.9830  226.3770 C   0  0  0  0  0  0  0  0  0  0  0  0
  136.4040   83.0840  225.7080 C   0  0  0  0  0  0  0  0  0  0  0  0
  136.5960   83.1400  224.3460 C   0  0  0  0  0  0  0  0  0  0  0  0
  137.2380   82.1290  223.6600 C   0  0  0  0  0  0  0  0  0  0  0  0
  140.2160   75.3870  221.9020 C   0  0  0  0  0  0  0  0  0  0  0  0
  141.5530   74.9030  221.3130 C   0  0  0  0  0  0  0  0  0  0  0  0
  143.1071   77.7252  217.6744 H   0  0  0  0  0  0  0  0  0  0  0  0
  144.0458   77.7459  216.1430 H   0  0  0  0  0  0  0  0  0  0  0  0
  142.3396   77.1844  216.1430 H   0  0  0  0  0  0  0  0  0  0  0  0
  143.9561   75.3058  216.0228 H   0  0  0  0  0  0  0  0  0  0  0  0
  144.6423   75.8478  217.6139 H   0  0  0  0  0  0  0  0  0  0  0  0
  143.1872   72.3152  218.8571 H   0  0  0  0  0  0  0  0  0  0  0  0
  145.1044   71.0322  219.8073 H   0  0  0  0  0  0  0  0  0  0  0  0
  146.8072   72.1886  221.1799 H   0  0  0  0  0  0  0  0  0  0  0  0
  146.6075   74.6260  221.6067 H   0  0  0  0  0  0  0  0  0  0  0  0
  144.6908   75.9331  220.6567 H   0  0  0  0  0  0  0  0  0  0  0  0
  140.6626   74.8561  219.4813 H   0  0  0  0  0  0  0  0  0  0  0  0
  142.4692   77.1911  219.2732 H   0  0  0  0  0  0  0  0  0  0  0  0
  140.7181   77.0827  218.9553 H   0  0  0  0  0  0  0  0  0  0  0  0
  142.0913   77.2927  221.6937 H   0  0  0  0  0  0  0  0  0  0  0  0
  141.0869   78.5380  220.9296 H   0  0  0  0  0  0  0  0  0  0  0  0
  139.7794   79.3017  221.3460 H   0  0  0  0  0  0  0  0  0  0  0  0
  138.3669   78.9512  220.2699 H   0  0  0  0  0  0  0  0  0  0  0  0
  137.7736   80.6855  221.7554 H   0  0  0  0  0  0  0  0  0  0  0  0
  136.5420   78.3590  221.4020 H   0  0  0  0  0  0  0  0  0  0  0  0
  136.5950   78.3110  223.0670 H   0  0  0  0  0  0  0  0  0  0  0  0
  138.1752   79.0723  224.1822 H   0  0  0  0  0  0  0  0  0  0  0  0
  140.3969   78.2615  224.3043 H   0  0  0  0  0  0  0  0  0  0  0  0
  142.8299   78.5505  224.1589 H   0  0  0  0  0  0  0  0  0  0  0  0
  143.7732   80.6599  223.1948 H   0  0  0  0  0  0  0  0  0  0  0  0
  142.2172   82.4252  222.4028 H   0  0  0  0  0  0  0  0  0  0  0  0
  139.7564   82.1033  222.5679 H   0  0  0  0  0  0  0  0  0  0  0  0
  137.8720   80.1067  226.2607 H   0  0  0  0  0  0  0  0  0  0  0  0
  136.7344   81.9039  227.4656 H   0  0  0  0  0  0  0  0  0  0  0  0
  135.8918   83.8976  226.2426 H   0  0  0  0  0  0  0  0  0  0  0  0
  136.2277   84.0143  223.7893 H   0  0  0  0  0  0  0  0  0  0  0  0
  137.3710   82.2144  222.5714 H   0  0  0  0  0  0  0  0  0  0  0  0
  140.2285   75.2812  222.9968 H   0  0  0  0  0  0  0  0  0  0  0  0
  139.3815   74.7890  221.5070 H   0  0  0  0  0  0  0  0  0  0  0  0
  142.3927   75.3615  221.8558 H   0  0  0  0  0  0  0  0  0  0  0  0
  141.6486   73.8108  221.4027 H   0  0  0  0  0  0  0  0  0  0  0  0
  1  2  1  0
  2  3  1  0
  3  4  2  0
  3  5  1  0
  5  6  1  0
  6  7  2  0
  7  8  1  0
  8  9  2  0
  9 10  1  0
 10 11  2  0
  5 12  1  0
 12 13  1  0
 13 14  1  0
 14 15  1  0
 15 16  1  0
 16 17  2  0
 16 18  1  0
 18 19  1  0
 19 20  1  0
 19 21  1  0
 21 22  1  0
 22 23  2  0
 23 24  1  0
 24 25  2  0
 25 26  1  0
 26 27  2  0
 21 28  1  0
 28 29  2  0
 29 30  1  0
 30 31  2  0
 31 32  1  0
 32 33  2  0
 15 34  1  0
 34 35  1  0
 11  6  1  0
 35 12  1  0
 27 22  1  0
 33 28  1  0
  1 36  1  0
  1 37  1  0
  1 38  1  0
  2 39  1  0
  2 40  1  0
  7 41  1  0
  8 42  1  0
  9 43  1  0
 10 44  1  0
 11 45  1  0
 12 46  1  0
 13 47  1  0
 13 48  1  0
 14 49  1  0
 14 50  1  0
 18 51  1  0
 18 52  1  0
 19 53  1  6
 20 54  1  0
 20 55  1  0
 21 56  1  0
 23 57  1  0
 24 58  1  0
 25 59  1  0
 26 60  1  0
 27 61  1  0
 29 62  1  0
 30 63  1  0
 31 64  1  0
 32 65  1  0
 33 66  1  0
 34 67  1  0
 34 68  1  0
 35 69  1  0
 35 70  1  0
M  END
>  <smiles>  (97) 
CCC(=O)N(c1ccccc1)C1CCN(C(=O)CC(N)C(c2ccccc2)c2ccccc2)CC1

>  <score_type>  (97) 
oracle

>  <origin>  (97) 
autodockgpu

>  <m_score__min__energy>  (97) 
-8.6099999999999994

>  <m_primary>  (97) 
energy

>  <rmsd>  (97) 
9.647106281543739

>  <m_score__min__rmsd>  (97) 
9.647106281543739

>  <meeko>  (97) 
{"free_energy": -7.23, "intermolecular_energy": -10.22, "internal_energy": -3.69, "cluster_size": 5, "cluster_id": 6, "rank_in_cluster": 3}

>  <energy>  (97) 
-7.27

>  <cluster_rmsd>  (97) 
0.91

>  <cluster>  (97) 
6

$$$$

     RDKit          3D

 70 73  0  0  0  0  0  0  0  0999 V2000
  136.3650   79.5530  221.5830 C   0  0  0  0  0  0  0  0  0  0  0  0
  136.8750   79.0660  222.9200 C   0  0  0  0  0  0  0  0  0  0  0  0
  138.2960   79.4340  223.1400 C   0  0  0  0  0  0  0  0  0  0  0  0
  138.5030   80.4720  223.8320 O   0  0  0  0  0  0  0  0  0  0  0  0
  139.3900   78.6950  222.6210 N   0  0  0  0  0  0  0  0  0  0  0  0
  140.6620   79.3350  222.6410 C   0  0  0  0  0  0  0  0  0  0  0  0
  141.3130   79.3560  223.8780 C   0  0  0  0  0  0  0  0  0  0  0  0
  142.5640   79.9620  224.0000 C   0  0  0  0  0  0  0  0  0  0  0  0
  143.1580   80.5380  222.9060 C   0  0  0  0  0  0  0  0  0  0  0  0
  142.5090   80.5150  221.6780 C   0  0  0  0  0  0  0  0  0  0  0  0
  141.2490   79.9090  221.5390 C   0  0  0  0  0  0  0  0  0  0  0  0
  139.1660   77.3700  222.1150 C   0  0  0  0  0  0  0  0  0  0  0  0
  140.2320   76.4760  222.7030 C   0  0  0  0  0  0  0  0  0  0  0  0
  140.7500   75.5900  221.5930 C   0  0  0  0  0  0  0  0  0  0  0  0
  139.5870   74.9470  221.0120 N   0  0  0  0  0  0  0  0  0  0  0  0
  139.3380   73.5360  221.1390 C   0  0  0  0  0  0  0  0  0  0  0  0
  138.3040   73.1100  220.5940 O   0  0  0  0  0  0  0  0  0  0  0  0
  140.3280   72.7600  221.8950 C   0  0  0  0  0  0  0  0  0  0  0  0
  139.7330   72.1790  223.1270 C   0  0  1  0  0  0  0  0  0  0  0  0
  138.2770   72.2820  222.9730 N   0  0  0  0  0  0  0  0  0  0  0  0
  140.1340   70.7720  223.4470 C   0  0  0  0  0  0  0  0  0  0  0  0
  140.4340   70.7040  224.9230 C   0  0  0  0  0  0  0  0  0  0  0  0
  140.4140   69.5100  225.6190 C   0  0  0  0  0  0  0  0  0  0  0  0
  140.6730   69.4100  226.9690 C   0  0  0  0  0  0  0  0  0  0  0  0
  140.9720   70.5590  227.6900 C   0  0  0  0  0  0  0  0  0  0  0  0
  141.0010   71.7670  227.0300 C   0  0  0  0  0  0  0  0  0  0  0  0
  140.7320   71.8370  225.6550 C   0  0  0  0  0  0  0  0  0  0  0  0
  139.2430   69.7170  222.9780 C   0  0  0  0  0  0  0  0  0  0  0  0
  138.0550   69.3450  223.5740 C   0  0  0  0  0  0  0  0  0  0  0  0
  137.2400   68.3450  223.0940 C   0  0  0  0  0  0  0  0  0  0  0  0
  137.5890   67.6520  221.9650 C   0  0  0  0  0  0  0  0  0  0  0  0
  138.7680   67.9900  221.3410 C   0  0  0  0  0  0  0  0  0  0  0  0
  139.5840   68.9940  221.8220 C   0  0  0  0  0  0  0  0  0  0  0  0
  138.6740   75.8260  220.2810 C   0  0  0  0  0  0  0  0  0  0  0  0
  139.0540   77.2790  220.6160 C   0  0  0  0  0  0  0  0  0  0  0  0
  135.5779   80.3046  221.7425 H   0  0  0  0  0  0  0  0  0  0  0  0
  137.1933   80.0039  221.0168 H   0  0  0  0  0  0  0  0  0  0  0  0
  135.9527   78.7048  221.0168 H   0  0  0  0  0  0  0  0  0  0  0  0
  136.2644   79.5141  223.7177 H   0  0  0  0  0  0  0  0  0  0  0  0
  136.8021   77.9685  222.9324 H   0  0  0  0  0  0  0  0  0  0  0  0
  140.8384   78.8942  224.7564 H   0  0  0  0  0  0  0  0  0  0  0  0
  143.0743   79.9778  224.9744 H   0  0  0  0  0  0  0  0  0  0  0  0
  144.1441   81.0161  223.0007 H   0  0  0  0  0  0  0  0  0  0  0  0
  142.9881   80.9775  220.8025 H   0  0  0  0  0  0  0  0  0  0  0  0
  140.7405   79.8943  220.5637 H   0  0  0  0  0  0  0  0  0  0  0  0
  138.1708   77.0282  222.4357 H   0  0  0  0  0  0  0  0  0  0  0  0
  141.0519   77.0869  223.1086 H   0  0  0  0  0  0  0  0  0  0  0  0
  139.8179   75.8679  223.5208 H   0  0  0  0  0  0  0  0  0  0  0  0
  141.2705   76.1936  220.8349 H   0  0  0  0  0  0  0  0  0  0  0  0
  141.4689   74.8496  221.9738 H   0  0  0  0  0  0  0  0  0  0  0  0
  140.7047   71.9445  221.2601 H   0  0  0  0  0  0  0  0  0  0  0  0
  141.1460   73.4340  222.1892 H   0  0  0  0  0  0  0  0  0  0  0  0
  140.1190   72.7490  223.9849 H   0  0  0  0  0  0  0  0  0  0  0  0
  138.0610   73.2840  222.7890 H   0  0  0  0  0  0  0  0  0  0  0  0
  137.9640   71.7500  222.1440 H   0  0  0  0  0  0  0  0  0  0  0  0
  141.0354   70.5453  222.8587 H   0  0  0  0  0  0  0  0  0  0  0  0
  140.1785   68.5892  225.0652 H   0  0  0  0  0  0  0  0  0  0  0  0
  140.6433   68.4311  227.4699 H   0  0  0  0  0  0  0  0  0  0  0  0
  141.1818   70.5048  228.7685 H   0  0  0  0  0  0  0  0  0  0  0  0
  141.2374   72.6861  227.5863 H   0  0  0  0  0  0  0  0  0  0  0  0
  140.7589   72.8136  225.1496 H   0  0  0  0  0  0  0  0  0  0  0  0
  137.7418   69.8778  224.4840 H   0  0  0  0  0  0  0  0  0  0  0  0
  136.3046   68.1013  223.6191 H   0  0  0  0  0  0  0  0  0  0  0  0
  136.9472   66.8508  221.5698 H   0  0  0  0  0  0  0  0  0  0  0  0
  139.0684   67.4451  220.4339 H   0  0  0  0  0  0  0  0  0  0  0  0
  140.5175   69.2324  221.2913 H   0  0  0  0  0  0  0  0  0  0  0  0
  138.7732   75.6528  219.1993 H   0  0  0  0  0  0  0  0  0  0  0  0
  137.6318   75.6243  220.5695 H   0  0  0  0  0  0  0  0  0  0  0  0
  140.0164   77.5351  220.1490 H   0  0  0  0  0  0  0  0  0  0  0  0
  138.2971   77.9806  220.2354 H   0  0  0  0  0  0  0  0  0  0  0  0
  1  2  1  0
  2  3  1  0
  3  4  2  0
  3  5  1  0
  5  6  1  0
  6  7  2  0
  7  8  1  0
  8  9  2  0
  9 10  1  0
 10 11  2  0
  5 12  1  0
 12 13  1  0
 13 14  1  0
 14 15  1  0
 15 16  1  0
 16 17  2  0
 16 18  1  0
 18 19  1  0
 19 20  1  0
 19 21  1  0
 21 22  1  0
 22 23  2  0
 23 24  1  0
 24 25  2  0
 25 26  1  0
 26 27  2  0
 21 28  1  0
 28 29  2  0
 29 30  1  0
 30 31  2  0
 31 32  1  0
 32 33  2  0
 15 34  1  0
 34 35  1  0
 11  6  1  0
 35 12  1  0
 27 22  1  0
 33 28  1  0
  1 36  1  0
  1 37  1  0
  1 38  1  0
  2 39  1  0
  2 40  1  0
  7 41  1  0
  8 42  1  0
  9 43  1  0
 10 44  1  0
 11 45  1  0
 12 46  1  0
 13 47  1  0
 13 48  1  0
 14 49  1  0
 14 50  1  0
 18 51  1  0
 18 52  1  0
 19 53  1  1
 20 54  1  0
 20 55  1  0
 21 56  1  0
 23 57  1  0
 24 58  1  0
 25 59  1  0
 26 60  1  0
 27 61  1  0
 29 62  1  0
 30 63  1  0
 31 64  1  0
 32 65  1  0
 33 66  1  0
 34 67  1  0
 34 68  1  0
 35 69  1  0
 35 70  1  0
M  END
>  <smiles>  (98) 
CCC(=O)N(c1ccccc1)C1CCN(C(=O)CC(N)C(c2ccccc2)c2ccccc2)CC1

>  <score_type>  (98) 
oracle

>  <origin>  (98) 
autodockgpu

>  <m_score__min__energy>  (98) 
-8.6099999999999994

>  <m_primary>  (98) 
energy

>  <rmsd>  (98) 
3.1450303409614837

>  <m_score__min__rmsd>  (98) 
3.1450303409614837

>  <meeko>  (98) 
{"free_energy": -7.44, "intermolecular_energy": -10.42, "internal_energy": -3.12, "cluster_size": 1, "cluster_id": 5, "rank_in_cluster": 1}

>  <energy>  (98) 
-7.23

>  <cluster_rmsd>  (98) 
0.9

>  <cluster>  (98) 
6

$$$$

     RDKit          3D

 70 73  0  0  0  0  0  0  0  0999 V2000
  136.4720   72.2570  223.0390 C   0  0  0  0  0  0  0  0  0  0  0  0
  137.0810   71.1750  223.9000 C   0  0  0  0  0  0  0  0  0  0  0  0
  138.3310   70.6330  223.3120 C   0  0  0  0  0  0  0  0  0  0  0  0
  138.1920   69.7090  222.4600 O   0  0  0  0  0  0  0  0  0  0  0  0
  139.6270   71.0950  223.6580 N   0  0  0  0  0  0  0  0  0  0  0  0
  140.0790   70.8020  224.9780 C   0  0  0  0  0  0  0  0  0  0  0  0
  140.6810   71.8610  225.6630 C   0  0  0  0  0  0  0  0  0  0  0  0
  141.1580   71.6740  226.9610 C   0  0  0  0  0  0  0  0  0  0  0  0
  141.0360   70.4490  227.5660 C   0  0  0  0  0  0  0  0  0  0  0  0
  140.4380   69.3980  226.8830 C   0  0  0  0  0  0  0  0  0  0  0  0
  139.9530   69.5720  225.5760 C   0  0  0  0  0  0  0  0  0  0  0  0
  140.4010   71.8150  222.6870 C   0  0  0  0  0  0  0  0  0  0  0  0
  139.6520   73.0870  222.3660 C   0  0  0  0  0  0  0  0  0  0  0  0
  139.6890   73.2750  220.8660 C   0  0  0  0  0  0  0  0  0  0  0  0
  141.0860   73.2090  220.4840 N   0  0  0  0  0  0  0  0  0  0  0  0
  141.8080   74.3510  219.9910 C   0  0  0  0  0  0  0  0  0  0  0  0
  143.0020   74.1620  219.6990 O   0  0  0  0  0  0  0  0  0  0  0  0
  141.0580   75.6090  219.8880 C   0  0  0  0  0  0  0  0  0  0  0  0
  141.7420   76.7080  220.6180 C   0  0  1  0  0  0  0  0  0  0  0  0
  142.8870   77.1050  219.7900 N   0  0  0  0  0  0  0  0  0  0  0  0
  140.8950   77.8950  220.9570 C   0  0  0  0  0  0  0  0  0  0  0  0
  139.5220   77.3910  221.3210 C   0  0  0  0  0  0  0  0  0  0  0  0
  139.3130   76.5510  222.3980 C   0  0  0  0  0  0  0  0  0  0  0  0
  138.0750   76.0610  222.7560 C   0  0  0  0  0  0  0  0  0  0  0  0
  136.9620   76.4190  222.0070 C   0  0  0  0  0  0  0  0  0  0  0  0
  137.1310   77.2560  220.9250 C   0  0  0  0  0  0  0  0  0  0  0  0
  138.4040   77.7370  220.5860 C   0  0  0  0  0  0  0  0  0  0  0  0
  141.4500   78.8400  221.9190 C   0  0  0  0  0  0  0  0  0  0  0  0
  141.6650   78.5890  223.2580 C   0  0  0  0  0  0  0  0  0  0  0  0
  142.1970   79.5100  224.1330 C   0  0  0  0  0  0  0  0  0  0  0  0
  142.5460   80.7600  223.6920 C   0  0  0  0  0  0  0  0  0  0  0  0
  142.3450   81.0520  222.3620 C   0  0  0  0  0  0  0  0  0  0  0  0
  141.8130   80.1270  221.4860 C   0  0  0  0  0  0  0  0  0  0  0  0
  141.7240   71.9000  220.6300 C   0  0  0  0  0  0  0  0  0  0  0  0
  140.7890   71.0150  221.4720 C   0  0  0  0  0  0  0  0  0  0  0  0
  136.0343   73.0346  223.6823 H   0  0  0  0  0  0  0  0  0  0  0  0
  137.2518   72.7026  222.4039 H   0  0  0  0  0  0  0  0  0  0  0  0
  135.6865   71.8215  222.4039 H   0  0  0  0  0  0  0  0  0  0  0  0
  137.3080   71.5955  224.8908 H   0  0  0  0  0  0  0  0  0  0  0  0
  136.3556   70.3513  223.9735 H   0  0  0  0  0  0  0  0  0  0  0  0
  140.7790   72.8435  225.1782 H   0  0  0  0  0  0  0  0  0  0  0  0
  141.6316   72.5086  227.4988 H   0  0  0  0  0  0  0  0  0  0  0  0
  141.4108   70.2995  228.5893 H   0  0  0  0  0  0  0  0  0  0  0  0
  140.3429   68.4170  227.3715 H   0  0  0  0  0  0  0  0  0  0  0  0
  139.4797   68.7361  225.0399 H   0  0  0  0  0  0  0  0  0  0  0  0
  141.3829   72.0562  223.1203 H   0  0  0  0  0  0  0  0  0  0  0  0
  138.6097   73.0047  222.7078 H   0  0  0  0  0  0  0  0  0  0  0  0
  140.1150   73.9459  222.8739 H   0  0  0  0  0  0  0  0  0  0  0  0
  139.1193   72.4768  220.3676 H   0  0  0  0  0  0  0  0  0  0  0  0
  139.2379   74.2339  220.5711 H   0  0  0  0  0  0  0  0  0  0  0  0
  140.9670   75.8859  218.8273 H   0  0  0  0  0  0  0  0  0  0  0  0
  140.0656   75.4589  220.3381 H   0  0  0  0  0  0  0  0  0  0  0  0
  142.0350   76.3222  221.6056 H   0  0  0  0  0  0  0  0  0  0  0  0
  143.6130   77.4800  220.4340 H   0  0  0  0  0  0  0  0  0  0  0  0
  143.2970   76.2800  219.3220 H   0  0  0  0  0  0  0  0  0  0  0  0
  140.8480   78.5314  220.0610 H   0  0  0  0  0  0  0  0  0  0  0  0
  140.1829   76.2568  223.0036 H   0  0  0  0  0  0  0  0  0  0  0  0
  137.9703   75.3944  223.6247 H   0  0  0  0  0  0  0  0  0  0  0  0
  135.9635   76.0415  222.2723 H   0  0  0  0  0  0  0  0  0  0  0  0
  136.2592   77.5494  220.3218 H   0  0  0  0  0  0  0  0  0  0  0  0
  138.5148   78.4031  219.7176 H   0  0  0  0  0  0  0  0  0  0  0  0
  141.3963   77.5967  223.6494 H   0  0  0  0  0  0  0  0  0  0  0  0
  142.3424   79.2414  225.1897 H   0  0  0  0  0  0  0  0  0  0  0  0
  142.9729   81.5057  224.3788 H   0  0  0  0  0  0  0  0  0  0  0  0
  142.6157   82.0499  221.9867 H   0  0  0  0  0  0  0  0  0  0  0  0
  141.6707   80.4021  220.4305 H   0  0  0  0  0  0  0  0  0  0  0  0
  141.8785   71.4461  219.6400 H   0  0  0  0  0  0  0  0  0  0  0  0
  142.7034   72.0014  221.1205 H   0  0  0  0  0  0  0  0  0  0  0  0
  139.8928   70.7523  220.8908 H   0  0  0  0  0  0  0  0  0  0  0  0
  141.2898   70.0795  221.7617 H   0  0  0  0  0  0  0  0  0  0  0  0
  1  2  1  0
  2  3  1  0
  3  4  2  0
  3  5  1  0
  5  6  1  0
  6  7  2  0
  7  8  1  0
  8  9  2  0
  9 10  1  0
 10 11  2  0
  5 12  1  0
 12 13  1  0
 13 14  1  0
 14 15  1  0
 15 16  1  0
 16 17  2  0
 16 18  1  0
 18 19  1  0
 19 20  1  0
 19 21  1  0
 21 22  1  0
 22 23  2  0
 23 24  1  0
 24 25  2  0
 25 26  1  0
 26 27  2  0
 21 28  1  0
 28 29  2  0
 29 30  1  0
 30 31  2  0
 31 32  1  0
 32 33  2  0
 15 34  1  0
 34 35  1  0
 11  6  1  0
 35 12  1  0
 27 22  1  0
 33 28  1  0
  1 36  1  0
  1 37  1  0
  1 38  1  0
  2 39  1  0
  2 40  1  0
  7 41  1  0
  8 42  1  0
  9 43  1  0
 10 44  1  0
 11 45  1  0
 12 46  1  0
 13 47  1  0
 13 48  1  0
 14 49  1  0
 14 50  1  0
 18 51  1  0
 18 52  1  0
 19 53  1  1
 20 54  1  0
 20 55  1  0
 21 56  1  0
 23 57  1  0
 24 58  1  0
 25 59  1  0
 26 60  1  0
 27 61  1  0
 29 62  1  0
 30 63  1  0
 31 64  1  0
 32 65  1  0
 33 66  1  0
 34 67  1  0
 34 68  1  0
 35 69  1  0
 35 70  1  0
M  END
>  <smiles>  (99) 
CCC(=O)N(c1ccccc1)C1CCN(C(=O)CC(N)C(c2ccccc2)c2ccccc2)CC1

>  <score_type>  (99) 
oracle

>  <origin>  (99) 
autodockgpu

>  <m_score__min__energy>  (99) 
-8.6099999999999994

>  <m_primary>  (99) 
energy

>  <rmsd>  (99) 
7.852162818703897

>  <m_score__min__rmsd>  (99) 
7.852162818703897

>  <meeko>  (99) 
{"free_energy": -7.79, "intermolecular_energy": -10.78, "internal_energy": -3.34, "cluster_size": 40, "cluster_id": 1, "rank_in_cluster": 38}

>  <energy>  (99) 
-7.2

>  <cluster_rmsd>  (99) 
0.98

>  <cluster>  (99) 
6

$$$$

     RDKit          3D

 70 73  0  0  0  0  0  0  0  0999 V2000
  146.3560   73.1810  221.7890 C   0  0  0  0  0  0  0  0  0  0  0  0
  145.7110   73.8890  220.6200 C   0  0  0  0  0  0  0  0  0  0  0  0
  145.4750   72.9720  219.4770 C   0  0  0  0  0  0  0  0  0  0  0  0
  146.3110   73.0330  218.5300 O   0  0  0  0  0  0  0  0  0  0  0  0
  144.3850   72.0660  219.4080 N   0  0  0  0  0  0  0  0  0  0  0  0
  144.7090   70.6800  219.3350 C   0  0  0  0  0  0  0  0  0  0  0  0
  145.7240   70.3400  218.4360 C   0  0  0  0  0  0  0  0  0  0  0  0
  146.1120   69.0080  218.2910 C   0  0  0  0  0  0  0  0  0  0  0  0
  145.4980   68.0290  219.0320 C   0  0  0  0  0  0  0  0  0  0  0  0
  144.4900   68.3700  219.9230 C   0  0  0  0  0  0  0  0  0  0  0  0
  144.0880   69.7080  220.0810 C   0  0  0  0  0  0  0  0  0  0  0  0
  143.0440   72.5770  219.4160 C   0  0  0  0  0  0  0  0  0  0  0  0
  142.7470   73.0450  220.8210 C   0  0  0  0  0  0  0  0  0  0  0  0
  141.3590   72.5660  221.1810 C   0  0  0  0  0  0  0  0  0  0  0  0
  140.4830   73.0330  220.1240 N   0  0  0  0  0  0  0  0  0  0  0  0
  139.4830   74.0440  220.3370 C   0  0  0  0  0  0  0  0  0  0  0  0
  138.7970   74.3560  219.3480 O   0  0  0  0  0  0  0  0  0  0  0  0
  139.3830   74.5940  221.6950 C   0  0  0  0  0  0  0  0  0  0  0  0
  139.4800   76.0780  221.6850 C   0  0  1  0  0  0  0  0  0  0  0  0
  138.6880   76.5510  222.8270 N   0  0  0  0  0  0  0  0  0  0  0  0
  140.8650   76.6440  221.7300 C   0  0  0  0  0  0  0  0  0  0  0  0
  141.4380   76.5670  220.3370 C   0  0  0  0  0  0  0  0  0  0  0  0
  140.7050   76.9330  219.2240 C   0  0  0  0  0  0  0  0  0  0  0  0
  141.1910   76.8660  217.9360 C   0  0  0  0  0  0  0  0  0  0  0  0
  142.4850   76.4100  217.7210 C   0  0  0  0  0  0  0  0  0  0  0  0
  143.2450   76.0360  218.8060 C   0  0  0  0  0  0  0  0  0  0  0  0
  142.7220   76.1150  220.1060 C   0  0  0  0  0  0  0  0  0  0  0  0
  141.0170   77.9520  222.3570 C   0  0  0  0  0  0  0  0  0  0  0  0
  141.8060   78.2300  223.4540 C   0  0  0  0  0  0  0  0  0  0  0  0
  141.9260   79.4820  224.0120 C   0  0  0  0  0  0  0  0  0  0  0  0
  141.2380   80.5430  223.4820 C   0  0  0  0  0  0  0  0  0  0  0  0
  140.4370   80.3080  222.3870 C   0  0  0  0  0  0  0  0  0  0  0  0
  140.3200   79.0520  221.8280 C   0  0  0  0  0  0  0  0  0  0  0  0
  140.6770   72.4070  218.8150 C   0  0  0  0  0  0  0  0  0  0  0  0
  142.0080   71.6370  218.8580 C   0  0  0  0  0  0  0  0  0  0  0  0
  145.9722   73.6023  222.7299 H   0  0  0  0  0  0  0  0  0  0  0  0
  146.1187   72.1078  221.7440 H   0  0  0  0  0  0  0  0  0  0  0  0
  147.4466   73.3176  221.7440 H   0  0  0  0  0  0  0  0  0  0  0  0
  144.7468   74.3064  220.9455 H   0  0  0  0  0  0  0  0  0  0  0  0
  146.3945   74.6826  220.2838 H   0  0  0  0  0  0  0  0  0  0  0  0
  146.2173   71.1237  217.8423 H   0  0  0  0  0  0  0  0  0  0  0  0
  146.9103   68.7420  217.5826 H   0  0  0  0  0  0  0  0  0  0  0  0
  145.8037   66.9783  218.9200 H   0  0  0  0  0  0  0  0  0  0  0  0
  143.9989   67.5827  220.5137 H   0  0  0  0  0  0  0  0  0  0  0  0
  143.2896   69.9720  220.7901 H   0  0  0  0  0  0  0  0  0  0  0  0
  142.9810   73.4234  218.7163 H   0  0  0  0  0  0  0  0  0  0  0  0
  143.4827   72.6213  221.5204 H   0  0  0  0  0  0  0  0  0  0  0  0
  142.8040   74.1418  220.8820 H   0  0  0  0  0  0  0  0  0  0  0  0
  141.3372   71.4676  221.2369 H   0  0  0  0  0  0  0  0  0  0  0  0
  141.0440   72.9511  222.1621 H   0  0  0  0  0  0  0  0  0  0  0  0
  138.4161   74.3010  222.1301 H   0  0  0  0  0  0  0  0  0  0  0  0
  140.2155   74.1955  222.2934 H   0  0  0  0  0  0  0  0  0  0  0  0
  139.0987   76.4320  220.7158 H   0  0  0  0  0  0  0  0  0  0  0  0
  137.7690   76.8640  222.4520 H   0  0  0  0  0  0  0  0  0  0  0  0
  138.4970   75.7740  223.4800 H   0  0  0  0  0  0  0  0  0  0  0  0
  141.4502   76.0236  222.4248 H   0  0  0  0  0  0  0  0  0  0  0  0
  139.6781   77.2975  219.3742 H   0  0  0  0  0  0  0  0  0  0  0  0
  140.5607   77.1704  217.0875 H   0  0  0  0  0  0  0  0  0  0  0  0
  142.8952   76.3488  216.7022 H   0  0  0  0  0  0  0  0  0  0  0  0
  144.2716   75.6719  218.6528 H   0  0  0  0  0  0  0  0  0  0  0  0
  143.3477   75.8107  220.9580 H   0  0  0  0  0  0  0  0  0  0  0  0
  142.3716   77.4034  223.9087 H   0  0  0  0  0  0  0  0  0  0  0  0
  142.5762   79.6322  224.8864 H   0  0  0  0  0  0  0  0  0  0  0  0
  141.3232   81.5495  223.9175 H   0  0  0  0  0  0  0  0  0  0  0  0
  139.8750   81.1444  221.9458 H   0  0  0  0  0  0  0  0  0  0  0  0
  139.6695   78.9089  220.9526 H   0  0  0  0  0  0  0  0  0  0  0  0
  139.8495   71.7134  218.6050 H   0  0  0  0  0  0  0  0  0  0  0  0
  140.6982   73.1695  218.0224 H   0  0  0  0  0  0  0  0  0  0  0  0
  141.9121   70.7532  219.5058 H   0  0  0  0  0  0  0  0  0  0  0  0
  142.2932   71.2907  217.8537 H   0  0  0  0  0  0  0  0  0  0  0  0
  1  2  1  0
  2  3  1  0
  3  4  2  0
  3  5  1  0
  5  6  1  0
  6  7  2  0
  7  8  1  0
  8  9  2  0
  9 10  1  0
 10 11  2  0
  5 12  1  0
 12 13  1  0
 13 14  1  0
 14 15  1  0
 15 16  1  0
 16 17  2  0
 16 18  1  0
 18 19  1  0
 19 20  1  0
 19 21  1  0
 21 22  1  0
 22 23  2  0
 23 24  1  0
 24 25  2  0
 25 26  1  0
 26 27  2  0
 21 28  1  0
 28 29  2  0
 29 30  1  0
 30 31  2  0
 31 32  1  0
 32 33  2  0
 15 34  1  0
 34 35  1  0
 11  6  1  0
 35 12  1  0
 27 22  1  0
 33 28  1  0
  1 36  1  0
  1 37  1  0
  1 38  1  0
  2 39  1  0
  2 40  1  0
  7 41  1  0
  8 42  1  0
  9 43  1  0
 10 44  1  0
 11 45  1  0
 12 46  1  0
 13 47  1  0
 13 48  1  0
 14 49  1  0
 14 50  1  0
 18 51  1  0
 18 52  1  0
 19 53  1  6
 20 54  1  0
 20 55  1  0
 21 56  1  0
 23 57  1  0
 24 58  1  0
 25 59  1  0
 26 60  1  0
 27 61  1  0
 29 62  1  0
 30 63  1  0
 31 64  1  0
 32 65  1  0
 33 66  1  0
 34 67  1  0
 34 68  1  0
 35 69  1  0
 35 70  1  0
M  END
>  <smiles>  (100) 
CCC(=O)N(c1ccccc1)C1CCN(C(=O)CC(N)C(c2ccccc2)c2ccccc2)CC1

>  <score_type>  (100) 
oracle

>  <origin>  (100) 
autodockgpu

>  <m_score__min__energy>  (100) 
-8.6099999999999994

>  <m_primary>  (100) 
energy

>  <rmsd>  (100) 
8.228401572125964

>  <m_score__min__rmsd>  (100) 
8.228401572125964

>  <meeko>  (100) 
{"free_energy": -7.52, "intermolecular_energy": -10.5, "internal_energy": -3.19, "cluster_size": 2, "cluster_id": 3, "rank_in_cluster": 2}

>  <energy>  (100) 
-7.16

>  <cluster_rmsd>  (100) 
0.89

>  <cluster>  (100) 
6

$$$$
