
     RDKit          3D

 52 55  0  0  0  0  0  0  0  0999 V2000
  139.9180   73.5240  222.4430 O   0  0  0  0  0  0  0  0  0  0  0  0
  140.3450   72.3200  222.4510 C   0  0  0  0  0  0  0  0  0  0  0  0
  140.9070   71.7360  221.2980 N   0  0  0  0  0  0  0  0  0  0  0  0
  140.9850   72.5510  220.0950 C   0  0  0  0  0  0  0  0  0  0  0  0
  141.8080   73.7510  220.3790 C   0  0  0  0  0  0  0  0  0  0  0  0
  142.9010   73.7070  221.0130 O   0  0  0  0  0  0  0  0  0  0  0  0
  141.3900   75.0350  219.9350 N   0  0  0  0  0  0  0  0  0  0  0  0
  140.2390   75.2430  219.0770 C   0  0  0  0  0  0  0  0  0  0  0  0
  140.6450   76.4330  218.2620 C   0  0  0  0  0  0  0  0  0  0  0  0
  141.9810   76.9220  218.7960 C   0  0  2  0  0  0  0  0  0  0  0  0
  143.0500   76.4540  218.0780 F   0  0  0  0  0  0  0  0  0  0  0  0
  141.9610   76.3410  220.2070 C   0  0  1  0  0  0  0  0  0  0  0  0
  140.9230   77.1360  220.9590 C   0  0  0  0  0  0  0  0  0  0  0  0
  141.3060   77.3860  222.2980 O   0  0  0  0  0  0  0  0  0  0  0  0
  141.5790   78.7070  222.6270 C   0  0  0  0  0  0  0  0  0  0  0  0
  142.1170   79.0870  223.8400 C   0  0  0  0  0  0  0  0  0  0  0  0
  142.3470   80.4280  224.0610 C   0  0  0  0  0  0  0  0  0  0  0  0
  142.0440   81.3660  223.0820 C   0  0  0  0  0  0  0  0  0  0  0  0
  141.5040   80.9990  221.8570 C   0  0  0  0  0  0  0  0  0  0  0  0
  141.1320   82.2070  220.6420 Cl  0  0  0  0  0  0  0  0  0  0  0  0
  141.2750   79.6540  221.6430 C   0  0  0  0  0  0  0  0  0  0  0  0
  140.2430   71.5450  223.6850 C   0  0  0  0  0  0  0  0  0  0  0  0
  139.6470   70.2940  223.6810 C   0  0  0  0  0  0  0  0  0  0  0  0
  139.5260   69.5220  224.8180 C   0  0  0  0  0  0  0  0  0  0  0  0
  140.0200   70.0260  226.0020 C   0  0  0  0  0  0  0  0  0  0  0  0
  139.8940   69.2480  227.1340 C   0  0  0  0  0  0  0  0  0  0  0  0
  140.3830   69.7330  228.3350 C   0  0  0  0  0  0  0  0  0  0  0  0
  140.9750   70.9770  228.3380 C   0  0  0  0  0  0  0  0  0  0  0  0
  141.1030   71.7590  227.2050 C   0  0  0  0  0  0  0  0  0  0  0  0
  140.6140   71.2730  226.0070 C   0  0  0  0  0  0  0  0  0  0  0  0
  140.7080   71.9860  224.8690 N   0  0  0  0  0  0  0  0  0  0  0  0
  141.2450   70.7550  221.3380 H   0  0  0  0  0  0  0  0  0  0  0  0
  141.4482   71.9692  219.2845 H   0  0  0  0  0  0  0  0  0  0  0  0
  139.9745   72.8572  219.7867 H   0  0  0  0  0  0  0  0  0  0  0  0
  140.0583   74.3670  218.4368 H   0  0  0  0  0  0  0  0  0  0  0  0
  139.3022   75.3945  219.6332 H   0  0  0  0  0  0  0  0  0  0  0  0
  140.7459   76.1467  217.2047 H   0  0  0  0  0  0  0  0  0  0  0  0
  139.8868   77.2267  218.3333 H   0  0  0  0  0  0  0  0  0  0  0  0
  142.0983   78.0145  218.7446 H   0  0  0  0  0  0  0  0  0  0  0  0
  142.9149   76.3341  220.7547 H   0  0  0  0  0  0  0  0  0  0  0  0
  140.7753   78.0986  220.4475 H   0  0  0  0  0  0  0  0  0  0  0  0
  139.9951   76.5456  220.9784 H   0  0  0  0  0  0  0  0  0  0  0  0
  142.3560   78.3391  224.6104 H   0  0  0  0  0  0  0  0  0  0  0  0
  142.7736   80.7579  225.0197 H   0  0  0  0  0  0  0  0  0  0  0  0
  142.2376   82.4300  223.2833 H   0  0  0  0  0  0  0  0  0  0  0  0
  140.8475   79.3225  220.6852 H   0  0  0  0  0  0  0  0  0  0  0  0
  139.2541   69.9002  222.7320 H   0  0  0  0  0  0  0  0  0  0  0  0
  139.0485   68.5317  224.7807 H   0  0  0  0  0  0  0  0  0  0  0  0
  139.4135   68.2598  227.0834 H   0  0  0  0  0  0  0  0  0  0  0  0
  140.3013   69.1426  229.2595 H   0  0  0  0  0  0  0  0  0  0  0  0
  141.3654   71.3676  229.2893 H   0  0  0  0  0  0  0  0  0  0  0  0
  141.5838   72.7470  227.2559 H   0  0  0  0  0  0  0  0  0  0  0  0
  1  2  2  0
  2  3  1  0
  3  4  1  0
  4  5  1  0
  5  6  2  0
  5  7  1  0
  7  8  1  0
  8  9  1  0
  9 10  1  0
 10 11  1  0
 10 12  1  0
 12 13  1  0
 13 14  1  0
 14 15  1  0
 15 16  2  0
 16 17  1  0
 17 18  2  0
 18 19  1  0
 19 20  1  0
 19 21  2  0
  2 22  1  0
 22 23  2  0
 23 24  1  0
 24 25  2  0
 25 26  1  0
 26 27  2  0
 27 28  1  0
 28 29  2  0
 29 30  1  0
 30 31  2  0
 12  7  1  0
 21 15  1  0
 31 22  1  0
 30 25  1  0
  3 32  1  0
  4 33  1  0
  4 34  1  0
  8 35  1  0
  8 36  1  0
  9 37  1  0
  9 38  1  0
 10 39  1  1
 12 40  1  1
 13 41  1  0
 13 42  1  0
 16 43  1  0
 17 44  1  0
 18 45  1  0
 21 46  1  0
 23 47  1  0
 24 48  1  0
 26 49  1  0
 27 50  1  0
 28 51  1  0
 29 52  1  0
M  END
>  <smiles>  (1) 
O=C(NCC(=O)N1CC[C@H](F)[C@H]1COc1cccc(Cl)c1)c1ccc2ccccc2n1

>  <score_type>  (1) 
oracle

>  <origin>  (1) 
autodockgpu

>  <m_score__min__energy>  (1) 
-8.8200000000000003

>  <m_primary>  (1) 
energy

>  <rmsd>  (1) 
1.9875118323855643

>  <m_score__min__rmsd>  (1) 
1.9875118323855643

>  <meeko>  (1) 
{"free_energy": -8.26, "intermolecular_energy": -10.35, "internal_energy": -1.33, "cluster_size": 18, "cluster_id": 2, "rank_in_cluster": 9}

>  <energy>  (1) 
-8.82

>  <cluster_rmsd>  (1) 
0.0

>  <cluster>  (1) 
1

$$$$

     RDKit          3D

 52 55  0  0  0  0  0  0  0  0999 V2000
  140.5200   71.2590  221.3240 O   0  0  0  0  0  0  0  0  0  0  0  0
  140.1030   71.8600  222.3720 C   0  0  0  0  0  0  0  0  0  0  0  0
  139.6720   73.2000  222.3220 N   0  0  0  0  0  0  0  0  0  0  0  0
  139.7160   73.8800  221.0360 C   0  0  0  0  0  0  0  0  0  0  0  0
  140.3440   75.2120  221.2170 C   0  0  0  0  0  0  0  0  0  0  0  0
  140.3290   75.8400  222.3140 O   0  0  0  0  0  0  0  0  0  0  0  0
  141.0080   75.8500  220.1340 N   0  0  0  0  0  0  0  0  0  0  0  0
  140.4020   76.0320  218.8290 C   0  0  0  0  0  0  0  0  0  0  0  0
  141.5770   75.9360  217.9040 C   0  0  0  0  0  0  0  0  0  0  0  0
  142.8280   75.8260  218.7590 C   0  0  2  0  0  0  0  0  0  0  0  0
  143.2500   74.5330  218.9290 F   0  0  0  0  0  0  0  0  0  0  0  0
  142.3370   76.4270  220.0740 C   0  0  1  0  0  0  0  0  0  0  0  0
  142.1730   77.9030  219.8070 C   0  0  0  0  0  0  0  0  0  0  0  0
  140.9730   78.4160  220.3530 O   0  0  0  0  0  0  0  0  0  0  0  0
  141.0920   79.1610  221.5180 C   0  0  0  0  0  0  0  0  0  0  0  0
  142.3040   79.5960  222.0150 C   0  0  0  0  0  0  0  0  0  0  0  0
  142.3060   80.3300  223.1820 C   0  0  0  0  0  0  0  0  0  0  0  0
  141.1140   80.6210  223.8340 C   0  0  0  0  0  0  0  0  0  0  0  0
  139.8880   80.1910  223.3470 C   0  0  0  0  0  0  0  0  0  0  0  0
  138.4000   80.5750  224.1920 Cl  0  0  0  0  0  0  0  0  0  0  0  0
  139.8930   79.4550  222.1770 C   0  0  0  0  0  0  0  0  0  0  0  0
  140.0790   71.1320  223.6380 C   0  0  0  0  0  0  0  0  0  0  0  0
  139.5430   69.8560  223.7040 C   0  0  0  0  0  0  0  0  0  0  0  0
  139.4970   69.1260  224.8730 C   0  0  0  0  0  0  0  0  0  0  0  0
  140.0060   69.7000  226.0190 C   0  0  0  0  0  0  0  0  0  0  0  0
  139.9550   68.9640  227.1840 C   0  0  0  0  0  0  0  0  0  0  0  0
  140.4610   69.5190  228.3470 C   0  0  0  0  0  0  0  0  0  0  0  0
  140.9930   70.7890  228.2800 C   0  0  0  0  0  0  0  0  0  0  0  0
  141.0450   71.5290  227.1140 C   0  0  0  0  0  0  0  0  0  0  0  0
  140.5400   70.9720  225.9540 C   0  0  0  0  0  0  0  0  0  0  0  0
  140.5620   71.6420  224.7870 N   0  0  0  0  0  0  0  0  0  0  0  0
  139.3390   73.6600  223.1920 H   0  0  0  0  0  0  0  0  0  0  0  0
  140.3086   73.2861  220.3246 H   0  0  0  0  0  0  0  0  0  0  0  0
  138.6956   73.9997  220.6430 H   0  0  0  0  0  0  0  0  0  0  0  0
  139.6665   75.2413  218.6194 H   0  0  0  0  0  0  0  0  0  0  0  0
  139.8471   76.9770  218.7333 H   0  0  0  0  0  0  0  0  0  0  0  0
  141.4798   75.0456  217.2655 H   0  0  0  0  0  0  0  0  0  0  0  0
  141.6302   76.8221  217.2544 H   0  0  0  0  0  0  0  0  0  0  0  0
  143.7032   76.3250  218.3173 H   0  0  0  0  0  0  0  0  0  0  0  0
  142.9641   76.2606  220.9623 H   0  0  0  0  0  0  0  0  0  0  0  0
  143.0230   78.4400  220.2533 H   0  0  0  0  0  0  0  0  0  0  0  0
  142.1357   78.0463  218.7170 H   0  0  0  0  0  0  0  0  0  0  0  0
  143.2440   79.3630  221.4934 H   0  0  0  0  0  0  0  0  0  0  0  0
  143.2584   80.6880  223.6001 H   0  0  0  0  0  0  0  0  0  0  0  0
  141.1431   81.2092  224.7630 H   0  0  0  0  0  0  0  0  0  0  0  0
  138.9415   79.0955  221.7582 H   0  0  0  0  0  0  0  0  0  0  0  0
  139.1373   69.4066  222.7856 H   0  0  0  0  0  0  0  0  0  0  0  0
  139.0663   68.1140  224.8909 H   0  0  0  0  0  0  0  0  0  0  0  0
  139.5199   67.9537  227.1892 H   0  0  0  0  0  0  0  0  0  0  0  0
  140.4392   68.9633  229.2960 H   0  0  0  0  0  0  0  0  0  0  0  0
  141.3963   71.2357  229.2007 H   0  0  0  0  0  0  0  0  0  0  0  0
  141.4790   72.5397  227.1091 H   0  0  0  0  0  0  0  0  0  0  0  0
  1  2  2  0
  2  3  1  0
  3  4  1  0
  4  5  1  0
  5  6  2  0
  5  7  1  0
  7  8  1  0
  8  9  1  0
  9 10  1  0
 10 11  1  0
 10 12  1  0
 12 13  1  0
 13 14  1  0
 14 15  1  0
 15 16  2  0
 16 17  1  0
 17 18  2  0
 18 19  1  0
 19 20  1  0
 19 21  2  0
  2 22  1  0
 22 23  2  0
 23 24  1  0
 24 25  2  0
 25 26  1  0
 26 27  2  0
 27 28  1  0
 28 29  2  0
 29 30  1  0
 30 31  2  0
 12  7  1  0
 21 15  1  0
 31 22  1  0
 30 25  1  0
  3 32  1  0
  4 33  1  0
  4 34  1  0
  8 35  1  0
  8 36  1  0
  9 37  1  0
  9 38  1  0
 10 39  1  6
 12 40  1  1
 13 41  1  0
 13 42  1  0
 16 43  1  0
 17 44  1  0
 18 45  1  0
 21 46  1  0
 23 47  1  0
 24 48  1  0
 26 49  1  0
 27 50  1  0
 28 51  1  0
 29 52  1  0
M  END
>  <smiles>  (2) 
O=C(NCC(=O)N1CC[C@H](F)[C@H]1COc1cccc(Cl)c1)c1ccc2ccccc2n1

>  <score_type>  (2) 
oracle

>  <origin>  (2) 
autodockgpu

>  <m_score__min__energy>  (2) 
-8.8200000000000003

>  <m_primary>  (2) 
energy

>  <rmsd>  (2) 
1.493663367819591

>  <m_score__min__rmsd>  (2) 
1.493663367819591

>  <meeko>  (2) 
{"free_energy": -8.53, "intermolecular_energy": -10.61, "internal_energy": -1.75, "cluster_size": 18, "cluster_id": 2, "rank_in_cluster": 6}

>  <energy>  (2) 
-8.8

>  <cluster_rmsd>  (2) 
1.25

>  <cluster>  (2) 
1

$$$$

     RDKit          3D

 52 55  0  0  0  0  0  0  0  0999 V2000
  140.5570   71.3870  221.2710 O   0  0  0  0  0  0  0  0  0  0  0  0
  140.2130   72.0360  222.3160 C   0  0  0  0  0  0  0  0  0  0  0  0
  139.8690   73.4010  222.2480 N   0  0  0  0  0  0  0  0  0  0  0  0
  139.9200   74.0490  220.9470 C   0  0  0  0  0  0  0  0  0  0  0  0
  140.4550   75.4230  221.1130 C   0  0  0  0  0  0  0  0  0  0  0  0
  140.3060   76.1000  222.1700 O   0  0  0  0  0  0  0  0  0  0  0  0
  141.1790   76.0480  220.0620 N   0  0  0  0  0  0  0  0  0  0  0  0
  140.8000   75.9430  218.6650 C   0  0  0  0  0  0  0  0  0  0  0  0
  142.1230   75.9790  217.9610 C   0  0  0  0  0  0  0  0  0  0  0  0
  143.1940   76.2330  219.0080 C   0  0  2  0  0  0  0  0  0  0  0  0
  143.8050   75.0850  219.4400 F   0  0  0  0  0  0  0  0  0  0  0  0
  142.3690   76.8750  220.1210 C   0  0  1  0  0  0  0  0  0  0  0  0
  141.9920   78.2420  219.6070 C   0  0  0  0  0  0  0  0  0  0  0  0
  140.8270   78.7460  220.2320 O   0  0  0  0  0  0  0  0  0  0  0  0
  141.0090   79.4040  221.4410 C   0  0  0  0  0  0  0  0  0  0  0  0
  142.2530   79.7250  221.9460 C   0  0  0  0  0  0  0  0  0  0  0  0
  142.3170   80.3790  223.1580 C   0  0  0  0  0  0  0  0  0  0  0  0
  141.1550   80.7040  223.8460 C   0  0  0  0  0  0  0  0  0  0  0  0
  139.8970   80.3880  223.3510 C   0  0  0  0  0  0  0  0  0  0  0  0
  138.4480   80.8120  224.2430 Cl  0  0  0  0  0  0  0  0  0  0  0  0
  139.8400   79.7320  222.1360 C   0  0  0  0  0  0  0  0  0  0  0  0
  140.1790   71.3380  223.5980 C   0  0  0  0  0  0  0  0  0  0  0  0
  139.6340   70.0670  223.6910 C   0  0  0  0  0  0  0  0  0  0  0  0
  139.5780   69.3650  224.8780 C   0  0  0  0  0  0  0  0  0  0  0  0
  140.0860   69.9620  226.0120 C   0  0  0  0  0  0  0  0  0  0  0  0
  140.0250   69.2540  227.1940 C   0  0  0  0  0  0  0  0  0  0  0  0
  140.5300   69.8330  228.3450 C   0  0  0  0  0  0  0  0  0  0  0  0
  141.0710   71.0960  228.2520 C   0  0  0  0  0  0  0  0  0  0  0  0
  141.1330   71.8090  227.0690 C   0  0  0  0  0  0  0  0  0  0  0  0
  140.6290   71.2290  225.9200 C   0  0  0  0  0  0  0  0  0  0  0  0
  140.6600   71.8710  224.7370 N   0  0  0  0  0  0  0  0  0  0  0  0
  139.5940   73.9000  223.1160 H   0  0  0  0  0  0  0  0  0  0  0  0
  140.5761   73.4763  220.2751 H   0  0  0  0  0  0  0  0  0  0  0  0
  138.9099   74.0930  220.5136 H   0  0  0  0  0  0  0  0  0  0  0  0
  140.2711   74.9990  218.4674 H   0  0  0  0  0  0  0  0  0  0  0  0
  140.1104   76.7356  218.3390 H   0  0  0  0  0  0  0  0  0  0  0  0
  142.3081   75.0169  217.4610 H   0  0  0  0  0  0  0  0  0  0  0  0
  142.1331   76.7714  217.1981 H   0  0  0  0  0  0  0  0  0  0  0  0
  144.0299   76.8442  218.6368 H   0  0  0  0  0  0  0  0  0  0  0  0
  142.8418   76.9502  221.1113 H   0  0  0  0  0  0  0  0  0  0  0  0
  142.8247   78.9346  219.7990 H   0  0  0  0  0  0  0  0  0  0  0  0
  141.7855   78.1525  218.5303 H   0  0  0  0  0  0  0  0  0  0  0  0
  143.1695   79.4657  221.3957 H   0  0  0  0  0  0  0  0  0  0  0  0
  143.2958   80.6454  223.5834 H   0  0  0  0  0  0  0  0  0  0  0  0
  141.2337   81.2267  224.8106 H   0  0  0  0  0  0  0  0  0  0  0  0
  138.8621   79.4641  221.7095 H   0  0  0  0  0  0  0  0  0  0  0  0
  139.2296   69.5986  222.7816 H   0  0  0  0  0  0  0  0  0  0  0  0
  139.1400   68.3568  224.9181 H   0  0  0  0  0  0  0  0  0  0  0  0
  139.5829   68.2471  227.2213 H   0  0  0  0  0  0  0  0  0  0  0  0
  140.5001   69.2997  229.3066 H   0  0  0  0  0  0  0  0  0  0  0  0
  141.4738   71.5606  229.1641 H   0  0  0  0  0  0  0  0  0  0  0  0
  141.5740   72.8164  227.0428 H   0  0  0  0  0  0  0  0  0  0  0  0
  1  2  2  0
  2  3  1  0
  3  4  1  0
  4  5  1  0
  5  6  2  0
  5  7  1  0
  7  8  1  0
  8  9  1  0
  9 10  1  0
 10 11  1  0
 10 12  1  0
 12 13  1  0
 13 14  1  0
 14 15  1  0
 15 16  2  0
 16 17  1  0
 17 18  2  0
 18 19  1  0
 19 20  1  0
 19 21  2  0
  2 22  1  0
 22 23  2  0
 23 24  1  0
 24 25  2  0
 25 26  1  0
 26 27  2  0
 27 28  1  0
 28 29  2  0
 29 30  1  0
 30 31  2  0
 12  7  1  0
 21 15  1  0
 31 22  1  0
 30 25  1  0
  3 32  1  0
  4 33  1  0
  4 34  1  0
  8 35  1  0
  8 36  1  0
  9 37  1  0
  9 38  1  0
 10 39  1  6
 12 40  1  1
 13 41  1  0
 13 42  1  0
 16 43  1  0
 17 44  1  0
 18 45  1  0
 21 46  1  0
 23 47  1  0
 24 48  1  0
 26 49  1  0
 27 50  1  0
 28 51  1  0
 29 52  1  0
M  END
>  <smiles>  (3) 
O=C(NCC(=O)N1CC[C@H](F)[C@H]1COc1cccc(Cl)c1)c1ccc2ccccc2n1

>  <score_type>  (3) 
oracle

>  <origin>  (3) 
autodockgpu

>  <m_score__min__energy>  (3) 
-8.8200000000000003

>  <m_primary>  (3) 
energy

>  <rmsd>  (3) 
1.6350984005453155

>  <m_score__min__rmsd>  (3) 
1.6350984005453155

>  <meeko>  (3) 
{"free_energy": -8.55, "intermolecular_energy": -10.64, "internal_energy": -1.82, "cluster_size": 18, "cluster_id": 2, "rank_in_cluster": 5}

>  <energy>  (3) 
-8.51

>  <cluster_rmsd>  (3) 
1.46

>  <cluster>  (3) 
1

$$$$

     RDKit          3D

 52 55  0  0  0  0  0  0  0  0999 V2000
  138.3910   70.1480  221.7720 O   0  0  0  0  0  0  0  0  0  0  0  0
  138.7430   71.1320  222.5060 C   0  0  0  0  0  0  0  0  0  0  0  0
  138.5440   72.4630  222.0880 N   0  0  0  0  0  0  0  0  0  0  0  0
  137.9230   72.6810  220.7900 C   0  0  0  0  0  0  0  0  0  0  0  0
  138.9670   72.6070  219.7390 C   0  0  0  0  0  0  0  0  0  0  0  0
  138.8000   72.0040  218.6400 O   0  0  0  0  0  0  0  0  0  0  0  0
  140.2310   73.2290  219.9300 N   0  0  0  0  0  0  0  0  0  0  0  0
  140.8740   74.0460  218.9190 C   0  0  0  0  0  0  0  0  0  0  0  0
  142.3300   73.7800  219.1580 C   0  0  0  0  0  0  0  0  0  0  0  0
  142.4400   72.9060  220.3960 C   0  0  2  0  0  0  0  0  0  0  0  0
  142.5630   71.5730  220.1010 F   0  0  0  0  0  0  0  0  0  0  0  0
  141.1100   73.2030  221.0830 C   0  0  1  0  0  0  0  0  0  0  0  0
  141.2250   74.6180  221.5910 C   0  0  0  0  0  0  0  0  0  0  0  0
  140.0790   75.0210  222.3170 O   0  0  0  0  0  0  0  0  0  0  0  0
  139.9010   76.3880  222.4840 C   0  0  0  0  0  0  0  0  0  0  0  0
  138.6610   76.9940  222.4790 C   0  0  0  0  0  0  0  0  0  0  0  0
  138.6020   78.3610  222.6530 C   0  0  0  0  0  0  0  0  0  0  0  0
  139.7650   79.1000  222.8290 C   0  0  0  0  0  0  0  0  0  0  0  0
  141.0190   78.5050  222.8360 C   0  0  0  0  0  0  0  0  0  0  0  0
  142.4690   79.4660  223.0600 Cl  0  0  0  0  0  0  0  0  0  0  0  0
  141.0710   77.1350  222.6600 C   0  0  0  0  0  0  0  0  0  0  0  0
  139.3620   70.8580  223.8000 C   0  0  0  0  0  0  0  0  0  0  0  0
  140.3010   71.7310  224.3270 C   0  0  0  0  0  0  0  0  0  0  0  0
  140.9150   71.5190  225.5440 C   0  0  0  0  0  0  0  0  0  0  0  0
  140.5740   70.3890  226.2570 C   0  0  0  0  0  0  0  0  0  0  0  0
  141.1930   70.1850  227.4720 C   0  0  0  0  0  0  0  0  0  0  0  0
  140.8670   69.0580  228.2060 C   0  0  0  0  0  0  0  0  0  0  0  0
  139.9340   68.1910  227.6810 C   0  0  0  0  0  0  0  0  0  0  0  0
  139.3120   68.3920  226.4630 C   0  0  0  0  0  0  0  0  0  0  0  0
  139.6390   69.5190  225.7320 C   0  0  0  0  0  0  0  0  0  0  0  0
  139.0680   69.7720  224.5400 N   0  0  0  0  0  0  0  0  0  0  0  0
  138.8410   73.2400  222.7090 H   0  0  0  0  0  0  0  0  0  0  0  0
  137.1624   71.9070  220.6100 H   0  0  0  0  0  0  0  0  0  0  0  0
  137.4422   73.6701  220.7685 H   0  0  0  0  0  0  0  0  0  0  0  0
  140.5745   73.7342  217.9075 H   0  0  0  0  0  0  0  0  0  0  0  0
  140.6082   75.1114  218.9845 H   0  0  0  0  0  0  0  0  0  0  0  0
  142.7634   73.2592  218.2914 H   0  0  0  0  0  0  0  0  0  0  0  0
  142.8767   74.7237  219.3014 H   0  0  0  0  0  0  0  0  0  0  0  0
  143.3331   73.1178  221.0023 H   0  0  0  0  0  0  0  0  0  0  0  0
  140.8054   72.5238  221.8929 H   0  0  0  0  0  0  0  0  0  0  0  0
  142.1037   74.6876  222.2491 H   0  0  0  0  0  0  0  0  0  0  0  0
  141.3232   75.2823  220.7197 H   0  0  0  0  0  0  0  0  0  0  0  0
  137.7441   76.4025  222.3400 H   0  0  0  0  0  0  0  0  0  0  0  0
  137.6268   78.8698  222.6524 H   0  0  0  0  0  0  0  0  0  0  0  0
  139.6899   80.1887  222.9669 H   0  0  0  0  0  0  0  0  0  0  0  0
  142.0456   76.6250  222.6583 H   0  0  0  0  0  0  0  0  0  0  0  0
  140.5674   72.6296  223.7512 H   0  0  0  0  0  0  0  0  0  0  0  0
  141.6561   72.2317  225.9349 H   0  0  0  0  0  0  0  0  0  0  0  0
  141.9328   70.9053  227.8512 H   0  0  0  0  0  0  0  0  0  0  0  0
  141.3389   68.8603  229.1798 H   0  0  0  0  0  0  0  0  0  0  0  0
  139.6707   67.2936  228.2602 H   0  0  0  0  0  0  0  0  0  0  0  0
  138.5729   67.6710  226.0836 H   0  0  0  0  0  0  0  0  0  0  0  0
  1  2  2  0
  2  3  1  0
  3  4  1  0
  4  5  1  0
  5  6  2  0
  5  7  1  0
  7  8  1  0
  8  9  1  0
  9 10  1  0
 10 11  1  0
 10 12  1  0
 12 13  1  0
 13 14  1  0
 14 15  1  0
 15 16  2  0
 16 17  1  0
 17 18  2  0
 18 19  1  0
 19 20  1  0
 19 21  2  0
  2 22  1  0
 22 23  2  0
 23 24  1  0
 24 25  2  0
 25 26  1  0
 26 27  2  0
 27 28  1  0
 28 29  2  0
 29 30  1  0
 30 31  2  0
 12  7  1  0
 21 15  1  0
 31 22  1  0
 30 25  1  0
  3 32  1  0
  4 33  1  0
  4 34  1  0
  8 35  1  0
  8 36  1  0
  9 37  1  0
  9 38  1  0
 10 39  1  1
 12 40  1  1
 13 41  1  0
 13 42  1  0
 16 43  1  0
 17 44  1  0
 18 45  1  0
 21 46  1  0
 23 47  1  0
 24 48  1  0
 26 49  1  0
 27 50  1  0
 28 51  1  0
 29 52  1  0
M  END
>  <smiles>  (4) 
O=C(NCC(=O)N1CC[C@H](F)[C@H]1COc1cccc(Cl)c1)c1ccc2ccccc2n1

>  <score_type>  (4) 
oracle

>  <origin>  (4) 
autodockgpu

>  <m_score__min__energy>  (4) 
-8.8200000000000003

>  <m_primary>  (4) 
energy

>  <rmsd>  (4) 
3.169319750759501

>  <m_score__min__rmsd>  (4) 
3.169319750759501

>  <meeko>  (4) 
{"free_energy": -7.54, "intermolecular_energy": -9.63, "internal_energy": -2.42, "cluster_size": 18, "cluster_id": 2, "rank_in_cluster": 16}

>  <energy>  (4) 
-8.5

>  <cluster_rmsd>  (4) 
0.99

>  <cluster>  (4) 
1

$$$$

     RDKit          3D

 52 55  0  0  0  0  0  0  0  0999 V2000
  139.6570   74.4330  221.9140 O   0  0  0  0  0  0  0  0  0  0  0  0
  140.1180   75.6240  221.9310 C   0  0  0  0  0  0  0  0  0  0  0  0
  141.4500   75.8980  221.5620 N   0  0  0  0  0  0  0  0  0  0  0  0
  142.2860   74.7770  221.1580 C   0  0  0  0  0  0  0  0  0  0  0  0
  142.8630   75.0640  219.8220 C   0  0  0  0  0  0  0  0  0  0  0  0
  143.8210   74.4040  219.3260 O   0  0  0  0  0  0  0  0  0  0  0  0
  142.3480   76.1220  219.0240 N   0  0  0  0  0  0  0  0  0  0  0  0
  141.0060   76.1190  218.4740 C   0  0  0  0  0  0  0  0  0  0  0  0
  141.1790   76.8520  217.1790 C   0  0  0  0  0  0  0  0  0  0  0  0
  142.6140   77.3500  217.1200 C   0  0  2  0  0  0  0  0  0  0  0  0
  143.4390   76.5220  216.4040 F   0  0  0  0  0  0  0  0  0  0  0  0
  142.9810   77.3560  218.6010 C   0  0  1  0  0  0  0  0  0  0  0  0
  142.1970   78.4930  219.2070 C   0  0  0  0  0  0  0  0  0  0  0  0
  141.8620   78.2500  220.5600 O   0  0  0  0  0  0  0  0  0  0  0  0
  141.9620   79.3320  221.4260 C   0  0  0  0  0  0  0  0  0  0  0  0
  142.6000   79.2640  222.6480 C   0  0  0  0  0  0  0  0  0  0  0  0
  142.6390   80.4000  223.4280 C   0  0  0  0  0  0  0  0  0  0  0  0
  142.0500   81.5780  222.9880 C   0  0  0  0  0  0  0  0  0  0  0  0
  141.4050   81.6620  221.7610 C   0  0  0  0  0  0  0  0  0  0  0  0
  140.6710   83.1650  221.2330 Cl  0  0  0  0  0  0  0  0  0  0  0  0
  141.3690   80.5200  220.9850 C   0  0  0  0  0  0  0  0  0  0  0  0
  139.2370   76.7130  222.3450 C   0  0  0  0  0  0  0  0  0  0  0  0
  137.8660   76.6100  222.1740 C   0  0  0  0  0  0  0  0  0  0  0  0
  136.9910   77.6090  222.5480 C   0  0  0  0  0  0  0  0  0  0  0  0
  137.5130   78.7540  223.1120 C   0  0  0  0  0  0  0  0  0  0  0  0
  136.6310   79.7480  223.4830 C   0  0  0  0  0  0  0  0  0  0  0  0
  137.1320   80.9060  224.0520 C   0  0  0  0  0  0  0  0  0  0  0  0
  138.4960   81.0070  224.2220 C   0  0  0  0  0  0  0  0  0  0  0  0
  139.3820   80.0130  223.8520 C   0  0  0  0  0  0  0  0  0  0  0  0
  138.8800   78.8570  223.2840 C   0  0  0  0  0  0  0  0  0  0  0  0
  139.6900   77.8520  222.9020 N   0  0  0  0  0  0  0  0  0  0  0  0
  141.7930   76.8770  221.5870 H   0  0  0  0  0  0  0  0  0  0  0  0
  143.0969   74.6392  221.8884 H   0  0  0  0  0  0  0  0  0  0  0  0
  141.6817   73.8589  221.1132 H   0  0  0  0  0  0  0  0  0  0  0  0
  140.6493   75.0924  218.3041 H   0  0  0  0  0  0  0  0  0  0  0  0
  140.2605   76.5788  219.1395 H   0  0  0  0  0  0  0  0  0  0  0  0
  140.9824   76.1741  216.3353 H   0  0  0  0  0  0  0  0  0  0  0  0
  140.4750   77.6948  217.1155 H   0  0  0  0  0  0  0  0  0  0  0  0
  142.7202   78.3194  216.6110 H   0  0  0  0  0  0  0  0  0  0  0  0
  144.0490   77.4462  218.8483 H   0  0  0  0  0  0  0  0  0  0  0  0
  142.8021   79.4099  219.1511 H   0  0  0  0  0  0  0  0  0  0  0  0
  141.2598   78.5966  218.6405 H   0  0  0  0  0  0  0  0  0  0  0  0
  143.0652   78.3279  222.9905 H   0  0  0  0  0  0  0  0  0  0  0  0
  143.1406   80.3731  224.4066 H   0  0  0  0  0  0  0  0  0  0  0  0
  142.0956   82.4702  223.6298 H   0  0  0  0  0  0  0  0  0  0  0  0
  140.8671   80.5449  220.0065 H   0  0  0  0  0  0  0  0  0  0  0  0
  137.4583   75.6940  221.7214 H   0  0  0  0  0  0  0  0  0  0  0  0
  135.9069   77.4953  222.4004 H   0  0  0  0  0  0  0  0  0  0  0  0
  135.5490   79.6224  223.3293 H   0  0  0  0  0  0  0  0  0  0  0  0
  136.4612   81.7218  224.3595 H   0  0  0  0  0  0  0  0  0  0  0  0
  138.8996   81.9247  224.6748 H   0  0  0  0  0  0  0  0  0  0  0  0
  140.4638   80.1390  224.0062 H   0  0  0  0  0  0  0  0  0  0  0  0
  1  2  2  0
  2  3  1  0
  3  4  1  0
  4  5  1  0
  5  6  2  0
  5  7  1  0
  7  8  1  0
  8  9  1  0
  9 10  1  0
 10 11  1  0
 10 12  1  0
 12 13  1  0
 13 14  1  0
 14 15  1  0
 15 16  2  0
 16 17  1  0
 17 18  2  0
 18 19  1  0
 19 20  1  0
 19 21  2  0
  2 22  1  0
 22 23  2  0
 23 24  1  0
 24 25  2  0
 25 26  1  0
 26 27  2  0
 27 28  1  0
 28 29  2  0
 29 30  1  0
 30 31  2  0
 12  7  1  0
 21 15  1  0
 31 22  1  0
 30 25  1  0
  3 32  1  0
  4 33  1  0
  4 34  1  0
  8 35  1  0
  8 36  1  0
  9 37  1  0
  9 38  1  0
 10 39  1  6
 12 40  1  6
 13 41  1  0
 13 42  1  0
 16 43  1  0
 17 44  1  0
 18 45  1  0
 21 46  1  0
 23 47  1  0
 24 48  1  0
 26 49  1  0
 27 50  1  0
 28 51  1  0
 29 52  1  0
M  END
>  <smiles>  (5) 
O=C(NCC(=O)N1CC[C@H](F)[C@H]1COc1cccc(Cl)c1)c1ccc2ccccc2n1

>  <score_type>  (5) 
oracle

>  <origin>  (5) 
autodockgpu

>  <m_score__min__energy>  (5) 
-8.8200000000000003

>  <m_primary>  (5) 
energy

>  <rmsd>  (5) 
6.938241988168501

>  <m_score__min__rmsd>  (5) 
6.938241988168501

>  <meeko>  (5) 
{"free_energy": -6.27, "intermolecular_energy": -8.36, "internal_energy": -3.65, "cluster_size": 1, "cluster_id": 8, "rank_in_cluster": 1}

>  <energy>  (5) 
-8.46

>  <cluster_rmsd>  (5) 
0.99

>  <cluster>  (5) 
1

$$$$

     RDKit          3D

 52 55  0  0  0  0  0  0  0  0999 V2000
  141.0740   72.9870  222.3460 O   0  0  0  0  0  0  0  0  0  0  0  0
  139.9620   72.5800  222.8240 C   0  0  0  0  0  0  0  0  0  0  0  0
  138.7360   73.1030  222.3680 N   0  0  0  0  0  0  0  0  0  0  0  0
  138.7770   74.1230  221.3320 C   0  0  0  0  0  0  0  0  0  0  0  0
  139.1440   75.4210  221.9480 C   0  0  0  0  0  0  0  0  0  0  0  0
  140.3210   75.7040  222.3160 O   0  0  0  0  0  0  0  0  0  0  0  0
  138.1610   76.4270  222.1550 N   0  0  0  0  0  0  0  0  0  0  0  0
  137.0510   76.2750  223.0770 C   0  0  0  0  0  0  0  0  0  0  0  0
  135.9600   77.0550  222.4090 C   0  0  0  0  0  0  0  0  0  0  0  0
  136.5560   77.7240  221.1820 C   0  0  2  0  0  0  0  0  0  0  0  0
  136.3360   77.0200  220.0270 F   0  0  0  0  0  0  0  0  0  0  0  0
  138.0380   77.7390  221.5490 C   0  0  1  0  0  0  0  0  0  0  0  0
  138.1700   78.7570  222.6540 C   0  0  0  0  0  0  0  0  0  0  0  0
  139.2850   78.5010  223.4870 O   0  0  0  0  0  0  0  0  0  0  0  0
  140.4140   79.2790  223.2670 C   0  0  0  0  0  0  0  0  0  0  0  0
  141.6650   78.9460  223.7450 C   0  0  0  0  0  0  0  0  0  0  0  0
  142.7170   79.7920  223.4660 C   0  0  0  0  0  0  0  0  0  0  0  0
  142.5140   80.9480  222.7240 C   0  0  0  0  0  0  0  0  0  0  0  0
  141.2620   81.2970  222.2370 C   0  0  0  0  0  0  0  0  0  0  0  0
  141.0380   82.7630  221.3010 Cl  0  0  0  0  0  0  0  0  0  0  0  0
  140.2120   80.4440  222.5190 C   0  0  0  0  0  0  0  0  0  0  0  0
  139.9770   71.5540  223.8630 C   0  0  0  0  0  0  0  0  0  0  0  0
  139.4300   70.3030  223.6220 C   0  0  0  0  0  0  0  0  0  0  0  0
  139.4180   69.3000  224.5690 C   0  0  0  0  0  0  0  0  0  0  0  0
  139.9740   69.5630  225.8030 C   0  0  0  0  0  0  0  0  0  0  0  0
  139.9570   68.5540  226.7440 C   0  0  0  0  0  0  0  0  0  0  0  0
  140.5100   68.7940  227.9900 C   0  0  0  0  0  0  0  0  0  0  0  0
  141.0530   70.0390  228.2280 C   0  0  0  0  0  0  0  0  0  0  0  0
  141.0710   71.0510  227.2880 C   0  0  0  0  0  0  0  0  0  0  0  0
  140.5190   70.8090  226.0440 C   0  0  0  0  0  0  0  0  0  0  0  0
  140.5060   71.7540  225.0850 N   0  0  0  0  0  0  0  0  0  0  0  0
  137.8490   72.7500  222.7780 H   0  0  0  0  0  0  0  0  0  0  0  0
  139.5259   73.8493  220.5742 H   0  0  0  0  0  0  0  0  0  0  0  0
  137.7910   74.2049  220.8513 H   0  0  0  0  0  0  0  0  0  0  0  0
  136.7707   75.2173  223.1897 H   0  0  0  0  0  0  0  0  0  0  0  0
  137.2776   76.6247  224.0950 H   0  0  0  0  0  0  0  0  0  0  0  0
  135.1458   76.3790  222.1089 H   0  0  0  0  0  0  0  0  0  0  0  0
  135.5479   77.8081  223.0968 H   0  0  0  0  0  0  0  0  0  0  0  0
  136.1194   78.7106  220.9676 H   0  0  0  0  0  0  0  0  0  0  0  0
  138.7496   77.9524  220.7378 H   0  0  0  0  0  0  0  0  0  0  0  0
  138.2852   79.7544  222.2047 H   0  0  0  0  0  0  0  0  0  0  0  0
  137.2642   78.6997  223.2755 H   0  0  0  0  0  0  0  0  0  0  0  0
  141.8187   78.0293  224.3333 H   0  0  0  0  0  0  0  0  0  0  0  0
  143.7249   79.5495  223.8340 H   0  0  0  0  0  0  0  0  0  0  0  0
  143.3704   81.6063  222.5161 H   0  0  0  0  0  0  0  0  0  0  0  0
  139.2038   80.6842  222.1504 H   0  0  0  0  0  0  0  0  0  0  0  0
  138.9874   70.1020  222.6352 H   0  0  0  0  0  0  0  0  0  0  0  0
  138.9769   68.3173  224.3458 H   0  0  0  0  0  0  0  0  0  0  0  0
  139.5118   67.5761  226.5082 H   0  0  0  0  0  0  0  0  0  0  0  0
  140.5161   68.0152  228.7668 H   0  0  0  0  0  0  0  0  0  0  0  0
  141.4940   70.2362  229.2162 H   0  0  0  0  0  0  0  0  0  0  0  0
  141.5153   72.0291  227.5244 H   0  0  0  0  0  0  0  0  0  0  0  0
  1  2  2  0
  2  3  1  0
  3  4  1  0
  4  5  1  0
  5  6  2  0
  5  7  1  0
  7  8  1  0
  8  9  1  0
  9 10  1  0
 10 11  1  0
 10 12  1  0
 12 13  1  0
 13 14  1  0
 14 15  1  0
 15 16  2  0
 16 17  1  0
 17 18  2  0
 18 19  1  0
 19 20  1  0
 19 21  2  0
  2 22  1  0
 22 23  2  0
 23 24  1  0
 24 25  2  0
 25 26  1  0
 26 27  2  0
 27 28  1  0
 28 29  2  0
 29 30  1  0
 30 31  2  0
 12  7  1  0
 21 15  1  0
 31 22  1  0
 30 25  1  0
  3 32  1  0
  4 33  1  0
  4 34  1  0
  8 35  1  0
  8 36  1  0
  9 37  1  0
  9 38  1  0
 10 39  1  6
 12 40  1  6
 13 41  1  0
 13 42  1  0
 16 43  1  0
 17 44  1  0
 18 45  1  0
 21 46  1  0
 23 47  1  0
 24 48  1  0
 26 49  1  0
 27 50  1  0
 28 51  1  0
 29 52  1  0
M  END
>  <smiles>  (6) 
O=C(NCC(=O)N1CC[C@H](F)[C@H]1COc1cccc(Cl)c1)c1ccc2ccccc2n1

>  <score_type>  (6) 
oracle

>  <origin>  (6) 
autodockgpu

>  <m_score__min__energy>  (6) 
-8.8200000000000003

>  <m_primary>  (6) 
energy

>  <rmsd>  (6) 
3.198887011107125

>  <m_score__min__rmsd>  (6) 
3.198887011107125

>  <meeko>  (6) 
{"free_energy": -8.65, "intermolecular_energy": -10.74, "internal_energy": -1.43, "cluster_size": 3, "cluster_id": 3, "rank_in_cluster": 1}

>  <energy>  (6) 
-8.45

>  <cluster_rmsd>  (6) 
1.4

>  <cluster>  (6) 
1

$$$$

     RDKit          3D

 52 55  0  0  0  0  0  0  0  0999 V2000
  140.4930   71.3880  221.2790 O   0  0  0  0  0  0  0  0  0  0  0  0
  140.1540   72.0430  222.3220 C   0  0  0  0  0  0  0  0  0  0  0  0
  139.8270   73.4120  222.2510 N   0  0  0  0  0  0  0  0  0  0  0  0
  139.8870   74.0570  220.9480 C   0  0  0  0  0  0  0  0  0  0  0  0
  140.4200   75.4310  221.1150 C   0  0  0  0  0  0  0  0  0  0  0  0
  140.2230   76.1280  222.1520 O   0  0  0  0  0  0  0  0  0  0  0  0
  141.1960   76.0350  220.0890 N   0  0  0  0  0  0  0  0  0  0  0  0
  141.0770   75.6760  218.6880 C   0  0  0  0  0  0  0  0  0  0  0  0
  142.4730   75.8640  218.1800 C   0  0  0  0  0  0  0  0  0  0  0  0
  143.3000   76.4500  219.3120 C   0  0  2  0  0  0  0  0  0  0  0  0
  144.0110   75.5040  220.0030 F   0  0  0  0  0  0  0  0  0  0  0  0
  142.2080   77.0690  220.1800 C   0  0  1  0  0  0  0  0  0  0  0  0
  141.7030   78.2610  219.4060 C   0  0  0  0  0  0  0  0  0  0  0  0
  141.9340   79.4790  220.0870 O   0  0  0  0  0  0  0  0  0  0  0  0
  141.6270   79.4990  221.4420 C   0  0  0  0  0  0  0  0  0  0  0  0
  142.5830   79.4000  222.4330 C   0  0  0  0  0  0  0  0  0  0  0  0
  142.1650   79.4300  223.7470 C   0  0  0  0  0  0  0  0  0  0  0  0
  140.8170   79.5560  224.0560 C   0  0  0  0  0  0  0  0  0  0  0  0
  139.8450   79.6570  223.0700 C   0  0  0  0  0  0  0  0  0  0  0  0
  138.1500   79.8170  223.4920 Cl  0  0  0  0  0  0  0  0  0  0  0  0
  140.2700   79.6260  221.7550 C   0  0  0  0  0  0  0  0  0  0  0  0
  140.1110   71.3480  223.6060 C   0  0  0  0  0  0  0  0  0  0  0  0
  139.5430   70.0870  223.7020 C   0  0  0  0  0  0  0  0  0  0  0  0
  139.4770   69.3890  224.8900 C   0  0  0  0  0  0  0  0  0  0  0  0
  139.9990   69.9780  226.0220 C   0  0  0  0  0  0  0  0  0  0  0  0
  139.9280   69.2730  227.2050 C   0  0  0  0  0  0  0  0  0  0  0  0
  140.4460   69.8440  228.3550 C   0  0  0  0  0  0  0  0  0  0  0  0
  141.0100   71.0980  228.2570 C   0  0  0  0  0  0  0  0  0  0  0  0
  141.0820   71.8070  227.0730 C   0  0  0  0  0  0  0  0  0  0  0  0
  140.5650   71.2340  225.9260 C   0  0  0  0  0  0  0  0  0  0  0  0
  140.6050   71.8740  224.7420 N   0  0  0  0  0  0  0  0  0  0  0  0
  139.5560   73.9150  223.1180 H   0  0  0  0  0  0  0  0  0  0  0  0
  140.5482   73.4830  220.2822 H   0  0  0  0  0  0  0  0  0  0  0  0
  138.8802   74.0993  220.5069 H   0  0  0  0  0  0  0  0  0  0  0  0
  140.7501   74.6321  218.5725 H   0  0  0  0  0  0  0  0  0  0  0  0
  140.3309   76.2754  218.1458 H   0  0  0  0  0  0  0  0  0  0  0  0
  142.8932   74.8954  217.8712 H   0  0  0  0  0  0  0  0  0  0  0  0
  142.4795   76.5362  217.3093 H   0  0  0  0  0  0  0  0  0  0  0  0
  144.0750   77.1512  218.9689 H   0  0  0  0  0  0  0  0  0  0  0  0
  142.4912   77.3623  221.2016 H   0  0  0  0  0  0  0  0  0  0  0  0
  142.2173   78.2958  218.4342 H   0  0  0  0  0  0  0  0  0  0  0  0
  140.6162   78.1457  219.2809 H   0  0  0  0  0  0  0  0  0  0  0  0
  143.6492   79.2999  222.1815 H   0  0  0  0  0  0  0  0  0  0  0  0
  142.9054   79.3535  224.5569 H   0  0  0  0  0  0  0  0  0  0  0  0
  140.5107   79.5764  225.1123 H   0  0  0  0  0  0  0  0  0  0  0  0
  139.5309   79.7023  220.9439 H   0  0  0  0  0  0  0  0  0  0  0  0
  139.1282   69.6244  222.7943 H   0  0  0  0  0  0  0  0  0  0  0  0
  139.0202   68.3893  224.9330 H   0  0  0  0  0  0  0  0  0  0  0  0
  139.4678   68.2743  227.2345 H   0  0  0  0  0  0  0  0  0  0  0  0
  140.4086   69.3131  229.3177 H   0  0  0  0  0  0  0  0  0  0  0  0
  141.4235   71.5574  229.1669 H   0  0  0  0  0  0  0  0  0  0  0  0
  141.5410   72.8062  227.0438 H   0  0  0  0  0  0  0  0  0  0  0  0
  1  2  2  0
  2  3  1  0
  3  4  1  0
  4  5  1  0
  5  6  2  0
  5  7  1  0
  7  8  1  0
  8  9  1  0
  9 10  1  0
 10 11  1  0
 10 12  1  0
 12 13  1  0
 13 14  1  0
 14 15  1  0
 15 16  2  0
 16 17  1  0
 17 18  2  0
 18 19  1  0
 19 20  1  0
 19 21  2  0
  2 22  1  0
 22 23  2  0
 23 24  1  0
 24 25  2  0
 25 26  1  0
 26 27  2  0
 27 28  1  0
 28 29  2  0
 29 30  1  0
 30 31  2  0
 12  7  1  0
 21 15  1  0
 31 22  1  0
 30 25  1  0
  3 32  1  0
  4 33  1  0
  4 34  1  0
  8 35  1  0
  8 36  1  0
  9 37  1  0
  9 38  1  0
 10 39  1  6
 12 40  1  1
 13 41  1  0
 13 42  1  0
 16 43  1  0
 17 44  1  0
 18 45  1  0
 21 46  1  0
 23 47  1  0
 24 48  1  0
 26 49  1  0
 27 50  1  0
 28 51  1  0
 29 52  1  0
M  END
>  <smiles>  (7) 
O=C(NCC(=O)N1CC[C@H](F)[C@H]1COc1cccc(Cl)c1)c1ccc2ccccc2n1

>  <score_type>  (7) 
oracle

>  <origin>  (7) 
autodockgpu

>  <m_score__min__energy>  (7) 
-8.8200000000000003

>  <m_primary>  (7) 
energy

>  <rmsd>  (7) 
1.6332130597414207

>  <m_score__min__rmsd>  (7) 
1.6332130597414207

>  <meeko>  (7) 
{"free_energy": -8.58, "intermolecular_energy": -10.67, "internal_energy": -1.93, "cluster_size": 18, "cluster_id": 2, "rank_in_cluster": 4}

>  <energy>  (7) 
-8.43

>  <cluster_rmsd>  (7) 
0.97

>  <cluster>  (7) 
1

$$$$

     RDKit          3D

 52 55  0  0  0  0  0  0  0  0999 V2000
  140.4460   71.2430  221.2980 O   0  0  0  0  0  0  0  0  0  0  0  0
  140.1380   71.8750  222.3640 C   0  0  0  0  0  0  0  0  0  0  0  0
  139.8290   73.2500  222.3360 N   0  0  0  0  0  0  0  0  0  0  0  0
  139.8730   73.9280  221.0490 C   0  0  0  0  0  0  0  0  0  0  0  0
  140.6540   75.1810  221.1920 C   0  0  0  0  0  0  0  0  0  0  0  0
  140.6930   75.8540  222.2620 O   0  0  0  0  0  0  0  0  0  0  0  0
  141.4130   75.6870  220.1020 N   0  0  0  0  0  0  0  0  0  0  0  0
  141.4310   75.0670  218.7910 C   0  0  0  0  0  0  0  0  0  0  0  0
  142.8230   75.3470  218.3120 C   0  0  0  0  0  0  0  0  0  0  0  0
  143.4940   76.2370  219.3460 C   0  0  2  0  0  0  0  0  0  0  0  0
  144.2720   75.5370  220.2310 F   0  0  0  0  0  0  0  0  0  0  0  0
  142.2790   76.8490  220.0370 C   0  0  1  0  0  0  0  0  0  0  0  0
  141.6780   77.8000  219.0320 C   0  0  0  0  0  0  0  0  0  0  0  0
  141.5190   79.1040  219.5580 O   0  0  0  0  0  0  0  0  0  0  0  0
  141.1610   79.1920  220.8960 C   0  0  0  0  0  0  0  0  0  0  0  0
  139.9990   78.6470  221.4040 C   0  0  0  0  0  0  0  0  0  0  0  0
  139.7430   78.7950  222.7510 C   0  0  0  0  0  0  0  0  0  0  0  0
  140.6360   79.4750  223.5680 C   0  0  0  0  0  0  0  0  0  0  0  0
  141.8090   80.0280  223.0720 C   0  0  0  0  0  0  0  0  0  0  0  0
  142.9180   80.8810  224.1300 Cl  0  0  0  0  0  0  0  0  0  0  0  0
  142.0590   79.8770  221.7220 C   0  0  0  0  0  0  0  0  0  0  0  0
  140.1090   71.1470  223.6300 C   0  0  0  0  0  0  0  0  0  0  0  0
  139.5710   69.8710  223.6940 C   0  0  0  0  0  0  0  0  0  0  0  0
  139.5190   69.1420  224.8640 C   0  0  0  0  0  0  0  0  0  0  0  0
  140.0250   69.7150  226.0110 C   0  0  0  0  0  0  0  0  0  0  0  0
  139.9700   68.9780  227.1760 C   0  0  0  0  0  0  0  0  0  0  0  0
  140.4720   69.5330  228.3410 C   0  0  0  0  0  0  0  0  0  0  0  0
  141.0070   70.8010  228.2760 C   0  0  0  0  0  0  0  0  0  0  0  0
  141.0640   71.5410  227.1100 C   0  0  0  0  0  0  0  0  0  0  0  0
  140.5620   70.9860  225.9480 C   0  0  0  0  0  0  0  0  0  0  0  0
  140.5890   71.6560  224.7810 N   0  0  0  0  0  0  0  0  0  0  0  0
  139.5820   73.7330  223.2200 H   0  0  0  0  0  0  0  0  0  0  0  0
  140.3538   73.2762  220.3046 H   0  0  0  0  0  0  0  0  0  0  0  0
  138.8510   74.1620  220.7161 H   0  0  0  0  0  0  0  0  0  0  0  0
  141.2462   73.9849  218.8616 H   0  0  0  0  0  0  0  0  0  0  0  0
  140.6520   75.4514  218.1161 H   0  0  0  0  0  0  0  0  0  0  0  0
  143.3811   74.4047  218.2092 H   0  0  0  0  0  0  0  0  0  0  0  0
  142.8016   75.8431  217.3305 H   0  0  0  0  0  0  0  0  0  0  0  0
  144.1944   76.9636  218.9085 H   0  0  0  0  0  0  0  0  0  0  0  0
  142.4566   77.3590  220.9953 H   0  0  0  0  0  0  0  0  0  0  0  0
  142.3381   77.8505  218.1535 H   0  0  0  0  0  0  0  0  0  0  0  0
  140.6811   77.4208  218.7628 H   0  0  0  0  0  0  0  0  0  0  0  0
  139.2957   78.1088  220.7516 H   0  0  0  0  0  0  0  0  0  0  0  0
  138.8239   78.3709  223.1815 H   0  0  0  0  0  0  0  0  0  0  0  0
  140.4077   79.5787  224.6390 H   0  0  0  0  0  0  0  0  0  0  0  0
  142.9773   80.3014  221.2900 H   0  0  0  0  0  0  0  0  0  0  0  0
  139.1691   69.4213  222.7741 H   0  0  0  0  0  0  0  0  0  0  0  0
  139.0856   68.1311  224.8811 H   0  0  0  0  0  0  0  0  0  0  0  0
  139.5352   67.9676  227.1793 H   0  0  0  0  0  0  0  0  0  0  0  0
  140.4445   68.9780  229.2903 H   0  0  0  0  0  0  0  0  0  0  0  0
  141.4088   71.2466  229.1980 H   0  0  0  0  0  0  0  0  0  0  0  0
  141.4999   72.5509  227.1069 H   0  0  0  0  0  0  0  0  0  0  0  0
  1  2  2  0
  2  3  1  0
  3  4  1  0
  4  5  1  0
  5  6  2  0
  5  7  1  0
  7  8  1  0
  8  9  1  0
  9 10  1  0
 10 11  1  0
 10 12  1  0
 12 13  1  0
 13 14  1  0
 14 15  1  0
 15 16  2  0
 16 17  1  0
 17 18  2  0
 18 19  1  0
 19 20  1  0
 19 21  2  0
  2 22  1  0
 22 23  2  0
 23 24  1  0
 24 25  2  0
 25 26  1  0
 26 27  2  0
 27 28  1  0
 28 29  2  0
 29 30  1  0
 30 31  2  0
 12  7  1  0
 21 15  1  0
 31 22  1  0
 30 25  1  0
  3 32  1  0
  4 33  1  0
  4 34  1  0
  8 35  1  0
  8 36  1  0
  9 37  1  0
  9 38  1  0
 10 39  1  6
 12 40  1  1
 13 41  1  0
 13 42  1  0
 16 43  1  0
 17 44  1  0
 18 45  1  0
 21 46  1  0
 23 47  1  0
 24 48  1  0
 26 49  1  0
 27 50  1  0
 28 51  1  0
 29 52  1  0
M  END
>  <smiles>  (8) 
O=C(NCC(=O)N1CC[C@H](F)[C@H]1COc1cccc(Cl)c1)c1ccc2ccccc2n1

>  <score_type>  (8) 
oracle

>  <origin>  (8) 
autodockgpu

>  <m_score__min__energy>  (8) 
-8.8200000000000003

>  <m_primary>  (8) 
energy

>  <rmsd>  (8) 
1.6452071191794704

>  <m_score__min__rmsd>  (8) 
1.6452071191794704

>  <meeko>  (8) 
{"free_energy": -8.67, "intermolecular_energy": -10.76, "internal_energy": -1.85, "cluster_size": 18, "cluster_id": 2, "rank_in_cluster": 1}

>  <energy>  (8) 
-8.42

>  <cluster_rmsd>  (8) 
1.49

>  <cluster>  (8) 
1

$$$$

     RDKit          3D

 52 55  0  0  0  0  0  0  0  0999 V2000
  140.4600   71.4210  221.3030 O   0  0  0  0  0  0  0  0  0  0  0  0
  140.1380   72.0660  222.3570 C   0  0  0  0  0  0  0  0  0  0  0  0
  139.8070   73.4350  222.3040 N   0  0  0  0  0  0  0  0  0  0  0  0
  139.8450   74.0920  221.0060 C   0  0  0  0  0  0  0  0  0  0  0  0
  140.4600   75.4320  221.1630 C   0  0  0  0  0  0  0  0  0  0  0  0
  140.3330   76.1340  222.2070 O   0  0  0  0  0  0  0  0  0  0  0  0
  141.2380   75.9970  220.1160 N   0  0  0  0  0  0  0  0  0  0  0  0
  141.1370   75.5710  218.7330 C   0  0  0  0  0  0  0  0  0  0  0  0
  142.5360   75.7520  218.2290 C   0  0  0  0  0  0  0  0  0  0  0  0
  143.3450   76.4010  219.3390 C   0  0  2  0  0  0  0  0  0  0  0  0
  144.0600   75.4970  220.0810 F   0  0  0  0  0  0  0  0  0  0  0  0
  142.2370   77.0470  220.1680 C   0  0  1  0  0  0  0  0  0  0  0  0
  141.7250   78.1950  219.3340 C   0  0  0  0  0  0  0  0  0  0  0  0
  141.9530   79.4480  219.9500 O   0  0  0  0  0  0  0  0  0  0  0  0
  141.6290   79.5430  221.2970 C   0  0  0  0  0  0  0  0  0  0  0  0
  142.5760   79.5900  222.3000 C   0  0  0  0  0  0  0  0  0  0  0  0
  142.1410   79.6840  223.6040 C   0  0  0  0  0  0  0  0  0  0  0  0
  140.7830   79.7310  223.8930 C   0  0  0  0  0  0  0  0  0  0  0  0
  139.8190   79.6840  222.8960 C   0  0  0  0  0  0  0  0  0  0  0  0
  138.1120   79.7450  223.2930 Cl  0  0  0  0  0  0  0  0  0  0  0  0
  140.2620   79.5900  221.5900 C   0  0  0  0  0  0  0  0  0  0  0  0
  140.1160   71.3600  223.6350 C   0  0  0  0  0  0  0  0  0  0  0  0
  139.5830   70.0830  223.7230 C   0  0  0  0  0  0  0  0  0  0  0  0
  139.5380   69.3740  224.9050 C   0  0  0  0  0  0  0  0  0  0  0  0
  140.0460   69.9680  226.0400 C   0  0  0  0  0  0  0  0  0  0  0  0
  139.9970   69.2510  227.2180 C   0  0  0  0  0  0  0  0  0  0  0  0
  140.5020   69.8270  228.3710 C   0  0  0  0  0  0  0  0  0  0  0  0
  141.0310   71.0960  228.2830 C   0  0  0  0  0  0  0  0  0  0  0  0
  141.0820   71.8170  227.1050 C   0  0  0  0  0  0  0  0  0  0  0  0
  140.5780   71.2400  225.9540 C   0  0  0  0  0  0  0  0  0  0  0  0
  140.5980   71.8900  224.7760 N   0  0  0  0  0  0  0  0  0  0  0  0
  139.5490   73.9300  223.1790 H   0  0  0  0  0  0  0  0  0  0  0  0
  140.4434   73.4910  220.3055 H   0  0  0  0  0  0  0  0  0  0  0  0
  138.8237   74.1950  220.6107 H   0  0  0  0  0  0  0  0  0  0  0  0
  140.8237   74.5188  218.6640 H   0  0  0  0  0  0  0  0  0  0  0  0
  140.3891   76.1350  218.1563 H   0  0  0  0  0  0  0  0  0  0  0  0
  142.9706   74.7752  217.9703 H   0  0  0  0  0  0  0  0  0  0  0  0
  142.5428   76.3823  217.3275 H   0  0  0  0  0  0  0  0  0  0  0  0
  144.1147   77.0946  218.9696 H   0  0  0  0  0  0  0  0  0  0  0  0
  142.5070   77.3913  221.1772 H   0  0  0  0  0  0  0  0  0  0  0  0
  142.2365   78.1809  218.3603 H   0  0  0  0  0  0  0  0  0  0  0  0
  140.6384   78.0691  219.2180 H   0  0  0  0  0  0  0  0  0  0  0  0
  143.6499   79.5534  222.0645 H   0  0  0  0  0  0  0  0  0  0  0  0
  142.8748   79.7221  224.4226 H   0  0  0  0  0  0  0  0  0  0  0  0
  140.4626   79.8077  224.9425 H   0  0  0  0  0  0  0  0  0  0  0  0
  139.5297   79.5516  220.7701 H   0  0  0  0  0  0  0  0  0  0  0  0
  139.1794   69.6162  222.8124 H   0  0  0  0  0  0  0  0  0  0  0  0
  139.1084   68.3620  224.9409 H   0  0  0  0  0  0  0  0  0  0  0  0
  139.5644   68.2399  227.2404 H   0  0  0  0  0  0  0  0  0  0  0  0
  140.4815   69.2873  229.3293 H   0  0  0  0  0  0  0  0  0  0  0  0
  141.4331   71.5587  229.1964 H   0  0  0  0  0  0  0  0  0  0  0  0
  141.5143   72.8283  227.0836 H   0  0  0  0  0  0  0  0  0  0  0  0
  1  2  2  0
  2  3  1  0
  3  4  1  0
  4  5  1  0
  5  6  2  0
  5  7  1  0
  7  8  1  0
  8  9  1  0
  9 10  1  0
 10 11  1  0
 10 12  1  0
 12 13  1  0
 13 14  1  0
 14 15  1  0
 15 16  2  0
 16 17  1  0
 17 18  2  0
 18 19  1  0
 19 20  1  0
 19 21  2  0
  2 22  1  0
 22 23  2  0
 23 24  1  0
 24 25  2  0
 25 26  1  0
 26 27  2  0
 27 28  1  0
 28 29  2  0
 29 30  1  0
 30 31  2  0
 12  7  1  0
 21 15  1  0
 31 22  1  0
 30 25  1  0
  3 32  1  0
  4 33  1  0
  4 34  1  0
  8 35  1  0
  8 36  1  0
  9 37  1  0
  9 38  1  0
 10 39  1  6
 12 40  1  1
 13 41  1  0
 13 42  1  0
 16 43  1  0
 17 44  1  0
 18 45  1  0
 21 46  1  0
 23 47  1  0
 24 48  1  0
 26 49  1  0
 27 50  1  0
 28 51  1  0
 29 52  1  0
M  END
>  <smiles>  (9) 
O=C(NCC(=O)N1CC[C@H](F)[C@H]1COc1cccc(Cl)c1)c1ccc2ccccc2n1

>  <score_type>  (9) 
oracle

>  <origin>  (9) 
autodockgpu

>  <m_score__min__energy>  (9) 
-8.8200000000000003

>  <m_primary>  (9) 
energy

>  <rmsd>  (9) 
1.6418338475007106

>  <m_score__min__rmsd>  (9) 
1.6418338475007106

>  <meeko>  (9) 
{"free_energy": -8.6, "intermolecular_energy": -10.69, "internal_energy": -1.93, "cluster_size": 18, "cluster_id": 2, "rank_in_cluster": 3}

>  <energy>  (9) 
-8.42

>  <cluster_rmsd>  (9) 
1.51

>  <cluster>  (9) 
1

$$$$

     RDKit          3D

 52 55  0  0  0  0  0  0  0  0999 V2000
  138.9490   70.3060  221.6870 O   0  0  0  0  0  0  0  0  0  0  0  0
  138.8900   71.2140  222.5840 C   0  0  0  0  0  0  0  0  0  0  0  0
  138.3080   72.4690  222.3160 N   0  0  0  0  0  0  0  0  0  0  0  0
  137.7740   72.6990  220.9830 C   0  0  0  0  0  0  0  0  0  0  0  0
  138.4090   73.9120  220.4130 C   0  0  0  0  0  0  0  0  0  0  0  0
  137.7540   74.8400  219.8580 O   0  0  0  0  0  0  0  0  0  0  0  0
  139.8190   74.0840  220.4700 N   0  0  0  0  0  0  0  0  0  0  0  0
  140.6350   74.3430  219.2990 C   0  0  0  0  0  0  0  0  0  0  0  0
  141.9250   73.6590  219.6380 C   0  0  0  0  0  0  0  0  0  0  0  0
  141.8110   73.1450  221.0640 C   0  0  2  0  0  0  0  0  0  0  0  0
  141.4520   71.8240  221.1300 F   0  0  0  0  0  0  0  0  0  0  0  0
  140.7110   74.0480  221.6130 C   0  0  1  0  0  0  0  0  0  0  0  0
  141.3350   75.4150  221.7390 C   0  0  0  0  0  0  0  0  0  0  0  0
  140.3740   76.4510  221.6640 O   0  0  0  0  0  0  0  0  0  0  0  0
  140.8610   77.7310  221.4360 C   0  0  0  0  0  0  0  0  0  0  0  0
  140.8410   78.3360  220.1950 C   0  0  0  0  0  0  0  0  0  0  0  0
  141.3520   79.6120  220.0830 C   0  0  0  0  0  0  0  0  0  0  0  0
  141.8720   80.2630  221.1930 C   0  0  0  0  0  0  0  0  0  0  0  0
  141.8990   79.6680  222.4470 C   0  0  0  0  0  0  0  0  0  0  0  0
  142.5620   80.5180  223.8310 Cl  0  0  0  0  0  0  0  0  0  0  0  0
  141.3860   78.3900  222.5530 C   0  0  0  0  0  0  0  0  0  0  0  0
  139.4410   70.9320  223.9070 C   0  0  0  0  0  0  0  0  0  0  0  0
  140.2830   71.8430  224.5250 C   0  0  0  0  0  0  0  0  0  0  0  0
  140.8290   71.6250  225.7730 C   0  0  0  0  0  0  0  0  0  0  0  0
  140.5200   70.4490  226.4220 C   0  0  0  0  0  0  0  0  0  0  0  0
  141.0710   70.2390  227.6690 C   0  0  0  0  0  0  0  0  0  0  0  0
  140.7750   69.0660  228.3410 C   0  0  0  0  0  0  0  0  0  0  0  0
  139.9390   68.1610  227.7250 C   0  0  0  0  0  0  0  0  0  0  0  0
  139.3850   68.3680  226.4760 C   0  0  0  0  0  0  0  0  0  0  0  0
  139.6820   69.5400  225.8070 C   0  0  0  0  0  0  0  0  0  0  0  0
  139.1740   69.8020  224.5880 N   0  0  0  0  0  0  0  0  0  0  0  0
  138.2760   73.1840  223.0680 H   0  0  0  0  0  0  0  0  0  0  0  0
  137.9936   71.8319  220.3427 H   0  0  0  0  0  0  0  0  0  0  0  0
  136.6844   72.8397  221.0375 H   0  0  0  0  0  0  0  0  0  0  0  0
  140.1814   73.9090  218.3957 H   0  0  0  0  0  0  0  0  0  0  0  0
  140.7539   75.4140  219.0782 H   0  0  0  0  0  0  0  0  0  0  0  0
  142.0966   72.8189  218.9489 H   0  0  0  0  0  0  0  0  0  0  0  0
  142.7692   74.3581  219.5454 H   0  0  0  0  0  0  0  0  0  0  0  0
  142.7605   73.1803  221.6182 H   0  0  0  0  0  0  0  0  0  0  0  0
  140.2469   73.7451  222.5632 H   0  0  0  0  0  0  0  0  0  0  0  0
  141.8515   75.4806  222.7080 H   0  0  0  0  0  0  0  0  0  0  0  0
  142.0364   75.5442  220.9015 H   0  0  0  0  0  0  0  0  0  0  0  0
  140.4285   77.8141  219.3190 H   0  0  0  0  0  0  0  0  0  0  0  0
  141.3474   80.1178  219.1062 H   0  0  0  0  0  0  0  0  0  0  0  0
  142.2744   81.2800  221.0757 H   0  0  0  0  0  0  0  0  0  0  0  0
  141.3903   77.8832  223.5293 H   0  0  0  0  0  0  0  0  0  0  0  0
  140.5258   72.7780  223.9989 H   0  0  0  0  0  0  0  0  0  0  0  0
  141.4927   72.3692  226.2374 H   0  0  0  0  0  0  0  0  0  0  0  0
  141.7342   70.9909  228.1215 H   0  0  0  0  0  0  0  0  0  0  0  0
  141.1947   68.8624  229.3372 H   0  0  0  0  0  0  0  0  0  0  0  0
  139.7003   67.2265  228.2539 H   0  0  0  0  0  0  0  0  0  0  0  0
  138.7217   67.6158  226.0240 H   0  0  0  0  0  0  0  0  0  0  0  0
  1  2  2  0
  2  3  1  0
  3  4  1  0
  4  5  1  0
  5  6  2  0
  5  7  1  0
  7  8  1  0
  8  9  1  0
  9 10  1  0
 10 11  1  0
 10 12  1  0
 12 13  1  0
 13 14  1  0
 14 15  1  0
 15 16  2  0
 16 17  1  0
 17 18  2  0
 18 19  1  0
 19 20  1  0
 19 21  2  0
  2 22  1  0
 22 23  2  0
 23 24  1  0
 24 25  2  0
 25 26  1  0
 26 27  2  0
 27 28  1  0
 28 29  2  0
 29 30  1  0
 30 31  2  0
 12  7  1  0
 21 15  1  0
 31 22  1  0
 30 25  1  0
  3 32  1  0
  4 33  1  0
  4 34  1  0
  8 35  1  0
  8 36  1  0
  9 37  1  0
  9 38  1  0
 10 39  1  1
 12 40  1  1
 13 41  1  0
 13 42  1  0
 16 43  1  0
 17 44  1  0
 18 45  1  0
 21 46  1  0
 23 47  1  0
 24 48  1  0
 26 49  1  0
 27 50  1  0
 28 51  1  0
 29 52  1  0
M  END
>  <smiles>  (10) 
O=C(NCC(=O)N1CC[C@H](F)[C@H]1COc1cccc(Cl)c1)c1ccc2ccccc2n1

>  <score_type>  (10) 
oracle

>  <origin>  (10) 
autodockgpu

>  <m_score__min__energy>  (10) 
-8.8200000000000003

>  <m_primary>  (10) 
energy

>  <rmsd>  (10) 
3.0603064886413724

>  <m_score__min__rmsd>  (10) 
3.0603064886413724

>  <meeko>  (10) 
{"free_energy": -7.5, "intermolecular_energy": -9.59, "internal_energy": -1.75, "cluster_size": 18, "cluster_id": 2, "rank_in_cluster": 17}

>  <energy>  (10) 
-8.28

>  <cluster_rmsd>  (10) 
1.51

>  <cluster>  (10) 
1

$$$$

     RDKit          3D

 52 55  0  0  0  0  0  0  0  0999 V2000
  138.4710   70.2810  221.8920 O   0  0  0  0  0  0  0  0  0  0  0  0
  138.8710   71.2610  222.6070 C   0  0  0  0  0  0  0  0  0  0  0  0
  138.7590   72.5900  222.1540 N   0  0  0  0  0  0  0  0  0  0  0  0
  138.1710   72.8130  220.8420 C   0  0  0  0  0  0  0  0  0  0  0  0
  139.2380   72.7260  219.8150 C   0  0  0  0  0  0  0  0  0  0  0  0
  139.3240   71.7760  218.9860 O   0  0  0  0  0  0  0  0  0  0  0  0
  140.2320   73.7380  219.7190 N   0  0  0  0  0  0  0  0  0  0  0  0
  140.0110   75.0080  219.0540 C   0  0  0  0  0  0  0  0  0  0  0  0
  141.3630   75.3250  218.4920 C   0  0  0  0  0  0  0  0  0  0  0  0
  142.3270   74.2590  218.9830 C   0  0  2  0  0  0  0  0  0  0  0  0
  142.5260   73.2550  218.0710 F   0  0  0  0  0  0  0  0  0  0  0  0
  141.5930   73.7480  220.2200 C   0  0  1  0  0  0  0  0  0  0  0  0
  141.6890   74.8600  221.2340 C   0  0  0  0  0  0  0  0  0  0  0  0
  140.5510   74.9190  222.0730 O   0  0  0  0  0  0  0  0  0  0  0  0
  140.0480   76.1850  222.3450 C   0  0  0  0  0  0  0  0  0  0  0  0
  138.6980   76.4760  222.3450 C   0  0  0  0  0  0  0  0  0  0  0  0
  138.3100   77.7690  222.6280 C   0  0  0  0  0  0  0  0  0  0  0  0
  139.2580   78.7450  222.9050 C   0  0  0  0  0  0  0  0  0  0  0  0
  140.6180   78.4670  222.9080 C   0  0  0  0  0  0  0  0  0  0  0  0
  141.7910   79.7220  223.2630 Cl  0  0  0  0  0  0  0  0  0  0  0  0
  141.0010   77.1700  222.6240 C   0  0  0  0  0  0  0  0  0  0  0  0
  139.4550   70.9830  223.9160 C   0  0  0  0  0  0  0  0  0  0  0  0
  140.3400   71.8790  224.4950 C   0  0  0  0  0  0  0  0  0  0  0  0
  140.9190   71.6650  225.7280 C   0  0  0  0  0  0  0  0  0  0  0  0
  140.5980   70.5070  226.4050 C   0  0  0  0  0  0  0  0  0  0  0  0
  141.1820   70.3000  227.6380 C   0  0  0  0  0  0  0  0  0  0  0  0
  140.8740   69.1460  228.3370 C   0  0  0  0  0  0  0  0  0  0  0  0
  139.9940   68.2550  227.7610 C   0  0  0  0  0  0  0  0  0  0  0  0
  139.4080   68.4600  226.5260 C   0  0  0  0  0  0  0  0  0  0  0  0
  139.7160   69.6140  225.8300 C   0  0  0  0  0  0  0  0  0  0  0  0
  139.1780   69.8710  224.6230 N   0  0  0  0  0  0  0  0  0  0  0  0
  139.0940   73.3640  222.7600 H   0  0  0  0  0  0  0  0  0  0  0  0
  137.4062   72.0473  220.6453 H   0  0  0  0  0  0  0  0  0  0  0  0
  137.7022   73.8075  220.8084 H   0  0  0  0  0  0  0  0  0  0  0  0
  139.2616   74.9120  218.2545 H   0  0  0  0  0  0  0  0  0  0  0  0
  139.6223   75.7895  219.7235 H   0  0  0  0  0  0  0  0  0  0  0  0
  141.3234   75.3170  217.3927 H   0  0  0  0  0  0  0  0  0  0  0  0
  141.6922   76.3227  218.8180 H   0  0  0  0  0  0  0  0  0  0  0  0
  143.3416   74.6409  219.1693 H   0  0  0  0  0  0  0  0  0  0  0  0
  141.9440   72.7987  220.6508 H   0  0  0  0  0  0  0  0  0  0  0  0
  142.5802   74.6949  221.8572 H   0  0  0  0  0  0  0  0  0  0  0  0
  141.7538   75.8116  220.6860 H   0  0  0  0  0  0  0  0  0  0  0  0
  137.9523   75.6977  222.1253 H   0  0  0  0  0  0  0  0  0  0  0  0
  137.2412   78.0290  222.6343 H   0  0  0  0  0  0  0  0  0  0  0  0
  138.9215   79.7682  223.1285 H   0  0  0  0  0  0  0  0  0  0  0  0
  142.0695   76.9088  222.6172 H   0  0  0  0  0  0  0  0  0  0  0  0
  140.5910   72.7996  223.9478 H   0  0  0  0  0  0  0  0  0  0  0  0
  141.6173   72.3972  226.1595 H   0  0  0  0  0  0  0  0  0  0  0  0
  141.8801   71.0392  228.0579 H   0  0  0  0  0  0  0  0  0  0  0  0
  141.3183   68.9457  229.3231 H   0  0  0  0  0  0  0  0  0  0  0  0
  139.7459   67.3354  228.3113 H   0  0  0  0  0  0  0  0  0  0  0  0
  138.7109   67.7201  226.1057 H   0  0  0  0  0  0  0  0  0  0  0  0
  1  2  2  0
  2  3  1  0
  3  4  1  0
  4  5  1  0
  5  6  2  0
  5  7  1  0
  7  8  1  0
  8  9  1  0
  9 10  1  0
 10 11  1  0
 10 12  1  0
 12 13  1  0
 13 14  1  0
 14 15  1  0
 15 16  2  0
 16 17  1  0
 17 18  2  0
 18 19  1  0
 19 20  1  0
 19 21  2  0
  2 22  1  0
 22 23  2  0
 23 24  1  0
 24 25  2  0
 25 26  1  0
 26 27  2  0
 27 28  1  0
 28 29  2  0
 29 30  1  0
 30 31  2  0
 12  7  1  0
 21 15  1  0
 31 22  1  0
 30 25  1  0
  3 32  1  0
  4 33  1  0
  4 34  1  0
  8 35  1  0
  8 36  1  0
  9 37  1  0
  9 38  1  0
 10 39  1  1
 12 40  1  1
 13 41  1  0
 13 42  1  0
 16 43  1  0
 17 44  1  0
 18 45  1  0
 21 46  1  0
 23 47  1  0
 24 48  1  0
 26 49  1  0
 27 50  1  0
 28 51  1  0
 29 52  1  0
M  END
>  <smiles>  (11) 
O=C(NCC(=O)N1CC[C@H](F)[C@H]1COc1cccc(Cl)c1)c1ccc2ccccc2n1

>  <score_type>  (11) 
oracle

>  <origin>  (11) 
autodockgpu

>  <m_score__min__energy>  (11) 
-8.8200000000000003

>  <m_primary>  (11) 
energy

>  <rmsd>  (11) 
2.927026607325669

>  <m_score__min__rmsd>  (11) 
2.927026607325669

>  <meeko>  (11) 
{"free_energy": -7.45, "intermolecular_energy": -9.54, "internal_energy": -2.53, "cluster_size": 18, "cluster_id": 2, "rank_in_cluster": 18}

>  <energy>  (11) 
-8.18

>  <cluster_rmsd>  (11) 
1.5

>  <cluster>  (11) 
1

$$$$

     RDKit          3D

 52 55  0  0  0  0  0  0  0  0999 V2000
  140.7910   71.8520  221.2280 O   0  0  0  0  0  0  0  0  0  0  0  0
  140.3050   72.3560  222.2960 C   0  0  0  0  0  0  0  0  0  0  0  0
  139.9180   73.7110  222.3550 N   0  0  0  0  0  0  0  0  0  0  0  0
  140.0910   74.5180  221.1570 C   0  0  0  0  0  0  0  0  0  0  0  0
  140.1580   75.9480  221.5460 C   0  0  0  0  0  0  0  0  0  0  0  0
  139.5370   76.4250  222.5380 O   0  0  0  0  0  0  0  0  0  0  0  0
  140.9460   76.8640  220.7970 N   0  0  0  0  0  0  0  0  0  0  0  0
  141.4450   78.1120  221.3420 C   0  0  0  0  0  0  0  0  0  0  0  0
  141.4400   79.0180  220.1490 C   0  0  0  0  0  0  0  0  0  0  0  0
  141.0480   78.1850  218.9400 C   0  0  2  0  0  0  0  0  0  0  0  0
  139.7170   78.2820  218.6310 F   0  0  0  0  0  0  0  0  0  0  0  0
  141.4060   76.7820  219.4240 C   0  0  1  0  0  0  0  0  0  0  0  0
  142.9130   76.7380  219.4580 C   0  0  0  0  0  0  0  0  0  0  0  0
  143.4360   75.6760  218.6830 O   0  0  0  0  0  0  0  0  0  0  0  0
  143.7070   74.4930  219.3590 C   0  0  0  0  0  0  0  0  0  0  0  0
  142.9330   73.3570  219.2320 C   0  0  0  0  0  0  0  0  0  0  0  0
  143.2950   72.2370  219.9510 C   0  0  0  0  0  0  0  0  0  0  0  0
  144.4110   72.2600  220.7770 C   0  0  0  0  0  0  0  0  0  0  0  0
  145.1990   73.3950  220.9140 C   0  0  0  0  0  0  0  0  0  0  0  0
  146.6030   73.3920  221.9660 Cl  0  0  0  0  0  0  0  0  0  0  0  0
  144.8310   74.5140  220.1920 C   0  0  0  0  0  0  0  0  0  0  0  0
  140.1530   71.5030  223.4720 C   0  0  0  0  0  0  0  0  0  0  0  0
  139.5570   70.2560  223.3610 C   0  0  0  0  0  0  0  0  0  0  0  0
  139.3900   69.4120  224.4390 C   0  0  0  0  0  0  0  0  0  0  0  0
  139.8360   69.8360  225.6730 C   0  0  0  0  0  0  0  0  0  0  0  0
  139.6640   68.9860  226.7460 C   0  0  0  0  0  0  0  0  0  0  0  0
  140.1050   69.3890  227.9940 C   0  0  0  0  0  0  0  0  0  0  0  0
  140.6970   70.6290  228.1030 C   0  0  0  0  0  0  0  0  0  0  0  0
  140.8700   71.4830  227.0300 C   0  0  0  0  0  0  0  0  0  0  0  0
  140.4300   71.0780  225.7840 C   0  0  0  0  0  0  0  0  0  0  0  0
  140.5700   71.8640  224.7000 N   0  0  0  0  0  0  0  0  0  0  0  0
  139.5260   74.0890  223.2390 H   0  0  0  0  0  0  0  0  0  0  0  0
  141.0230   74.2295  220.6490 H   0  0  0  0  0  0  0  0  0  0  0  0
  139.2440   74.3570  220.4739 H   0  0  0  0  0  0  0  0  0  0  0  0
  140.7815   78.4931  222.1322 H   0  0  0  0  0  0  0  0  0  0  0  0
  142.4341   78.0175  221.8141 H   0  0  0  0  0  0  0  0  0  0  0  0
  140.7121   79.8292  220.2973 H   0  0  0  0  0  0  0  0  0  0  0  0
  142.4329   79.4681  220.0020 H   0  0  0  0  0  0  0  0  0  0  0  0
  141.5491   78.4987  218.0124 H   0  0  0  0  0  0  0  0  0  0  0  0
  141.0068   75.9380  218.8423 H   0  0  0  0  0  0  0  0  0  0  0  0
  143.3037   77.6884  219.0655 H   0  0  0  0  0  0  0  0  0  0  0  0
  143.2219   76.5775  220.5015 H   0  0  0  0  0  0  0  0  0  0  0  0
  142.0510   73.3453  218.5748 H   0  0  0  0  0  0  0  0  0  0  0  0
  142.6951   71.3186  219.8695 H   0  0  0  0  0  0  0  0  0  0  0  0
  144.6785   71.3530  221.3389 H   0  0  0  0  0  0  0  0  0  0  0  0
  145.4294   75.4334  220.2731 H   0  0  0  0  0  0  0  0  0  0  0  0
  139.2030   69.9264  222.3730 H   0  0  0  0  0  0  0  0  0  0  0  0
  138.9141   68.4277  224.3177 H   0  0  0  0  0  0  0  0  0  0  0  0
  139.1847   68.0051  226.6117 H   0  0  0  0  0  0  0  0  0  0  0  0
  139.9866   68.7389  228.8734 H   0  0  0  0  0  0  0  0  0  0  0  0
  141.0492   70.9550  229.0928 H   0  0  0  0  0  0  0  0  0  0  0  0
  141.3479   72.4645  227.1650 H   0  0  0  0  0  0  0  0  0  0  0  0
  1  2  2  0
  2  3  1  0
  3  4  1  0
  4  5  1  0
  5  6  2  0
  5  7  1  0
  7  8  1  0
  8  9  1  0
  9 10  1  0
 10 11  1  0
 10 12  1  0
 12 13  1  0
 13 14  1  0
 14 15  1  0
 15 16  2  0
 16 17  1  0
 17 18  2  0
 18 19  1  0
 19 20  1  0
 19 21  2  0
  2 22  1  0
 22 23  2  0
 23 24  1  0
 24 25  2  0
 25 26  1  0
 26 27  2  0
 27 28  1  0
 28 29  2  0
 29 30  1  0
 30 31  2  0
 12  7  1  0
 21 15  1  0
 31 22  1  0
 30 25  1  0
  3 32  1  0
  4 33  1  0
  4 34  1  0
  8 35  1  0
  8 36  1  0
  9 37  1  0
  9 38  1  0
 10 39  1  6
 12 40  1  6
 13 41  1  0
 13 42  1  0
 16 43  1  0
 17 44  1  0
 18 45  1  0
 21 46  1  0
 23 47  1  0
 24 48  1  0
 26 49  1  0
 27 50  1  0
 28 51  1  0
 29 52  1  0
M  END
>  <smiles>  (12) 
O=C(NCC(=O)N1CC[C@H](F)[C@H]1COc1cccc(Cl)c1)c1ccc2ccccc2n1

>  <score_type>  (12) 
oracle

>  <origin>  (12) 
autodockgpu

>  <m_score__min__energy>  (12) 
-8.8200000000000003

>  <m_primary>  (12) 
energy

>  <rmsd>  (12) 
2.473011683812942

>  <m_score__min__rmsd>  (12) 
2.473011683812942

>  <meeko>  (12) 
{"free_energy": -8.39, "intermolecular_energy": -10.48, "internal_energy": -2.12, "cluster_size": 7, "cluster_id": 4, "rank_in_cluster": 2}

>  <energy>  (12) 
-8.06

>  <cluster_rmsd>  (12) 
1.54

>  <cluster>  (12) 
1

$$$$

     RDKit          3D

 52 55  0  0  0  0  0  0  0  0999 V2000
  139.7000   70.8170  221.6960 O   0  0  0  0  0  0  0  0  0  0  0  0
  139.1730   71.3590  222.7250 C   0  0  0  0  0  0  0  0  0  0  0  0
  138.1470   72.3170  222.6020 N   0  0  0  0  0  0  0  0  0  0  0  0
  137.7060   72.6690  221.2620 C   0  0  0  0  0  0  0  0  0  0  0  0
  137.9860   74.1070  221.0250 C   0  0  0  0  0  0  0  0  0  0  0  0
  137.0790   74.9830  220.9380 O   0  0  0  0  0  0  0  0  0  0  0  0
  139.3230   74.5680  220.8840 N   0  0  0  0  0  0  0  0  0  0  0  0
  139.8850   75.0000  219.6180 C   0  0  0  0  0  0  0  0  0  0  0  0
  141.3230   74.5970  219.7420 C   0  0  0  0  0  0  0  0  0  0  0  0
  141.5310   74.0610  221.1480 C   0  0  2  0  0  0  0  0  0  0  0  0
  141.4650   72.6930  221.2150 F   0  0  0  0  0  0  0  0  0  0  0  0
  140.3630   74.7110  221.8850 C   0  0  1  0  0  0  0  0  0  0  0  0
  140.7050   76.1770  221.9710 C   0  0  0  0  0  0  0  0  0  0  0  0
  139.5510   76.9930  222.0440 O   0  0  0  0  0  0  0  0  0  0  0  0
  139.7060   78.2280  222.6590 C   0  0  0  0  0  0  0  0  0  0  0  0
  138.6450   78.9680  223.1420 C   0  0  0  0  0  0  0  0  0  0  0  0
  138.9140   80.1840  223.7350 C   0  0  0  0  0  0  0  0  0  0  0  0
  140.2200   80.6440  223.8390 C   0  0  0  0  0  0  0  0  0  0  0  0
  141.2960   79.9110  223.3580 C   0  0  0  0  0  0  0  0  0  0  0  0
  142.9350   80.5190  223.5060 Cl  0  0  0  0  0  0  0  0  0  0  0  0
  141.0210   78.6940  222.7650 C   0  0  0  0  0  0  0  0  0  0  0  0
  139.6530   70.9700  224.0490 C   0  0  0  0  0  0  0  0  0  0  0  0
  140.3930   71.8560  224.8150 C   0  0  0  0  0  0  0  0  0  0  0  0
  140.8700   71.5380  226.0700 C   0  0  0  0  0  0  0  0  0  0  0  0
  140.5940   70.2840  226.5730 C   0  0  0  0  0  0  0  0  0  0  0  0
  141.0750   69.9750  227.8290 C   0  0  0  0  0  0  0  0  0  0  0  0
  140.8100   68.7220  228.3540 C   0  0  0  0  0  0  0  0  0  0  0  0
  140.0740   67.8420  227.5910 C   0  0  0  0  0  0  0  0  0  0  0  0
  139.5920   68.1490  226.3330 C   0  0  0  0  0  0  0  0  0  0  0  0
  139.8570   69.4000  225.8100 C   0  0  0  0  0  0  0  0  0  0  0  0
  139.4140   69.7600  224.5900 N   0  0  0  0  0  0  0  0  0  0  0  0
  137.7400   72.7380  223.4600 H   0  0  0  0  0  0  0  0  0  0  0  0
  138.2484   72.0607  220.5232 H   0  0  0  0  0  0  0  0  0  0  0  0
  136.6271   72.4785  221.1631 H   0  0  0  0  0  0  0  0  0  0  0  0
  139.4008   74.4877  218.7735 H   0  0  0  0  0  0  0  0  0  0  0  0
  139.7476   76.0738  219.4229 H   0  0  0  0  0  0  0  0  0  0  0  0
  141.5584   73.8158  219.0043 H   0  0  0  0  0  0  0  0  0  0  0  0
  141.9824   75.4574  219.5555 H   0  0  0  0  0  0  0  0  0  0  0  0
  142.5249   74.2900  221.5600 H   0  0  0  0  0  0  0  0  0  0  0  0
  140.1177   74.3116  222.8801 H   0  0  0  0  0  0  0  0  0  0  0  0
  141.3155   76.3459  222.8703 H   0  0  0  0  0  0  0  0  0  0  0  0
  141.2533   76.4495  221.0571 H   0  0  0  0  0  0  0  0  0  0  0  0
  137.6128   78.5977  223.0562 H   0  0  0  0  0  0  0  0  0  0  0  0
  138.0875   80.7940  224.1285 H   0  0  0  0  0  0  0  0  0  0  0  0
  140.4072   81.6172  224.3163 H   0  0  0  0  0  0  0  0  0  0  0  0
  141.8467   78.0833  222.3710 H   0  0  0  0  0  0  0  0  0  0  0  0
  140.6091   72.8539  224.4059 H   0  0  0  0  0  0  0  0  0  0  0  0
  141.4544   72.2648  226.6533 H   0  0  0  0  0  0  0  0  0  0  0  0
  141.6581   70.7108  228.4022 H   0  0  0  0  0  0  0  0  0  0  0  0
  141.1763   68.4371  229.3513 H   0  0  0  0  0  0  0  0  0  0  0  0
  139.8594   66.8453  228.0039 H   0  0  0  0  0  0  0  0  0  0  0  0
  139.0094   67.4127  225.7598 H   0  0  0  0  0  0  0  0  0  0  0  0
  1  2  2  0
  2  3  1  0
  3  4  1  0
  4  5  1  0
  5  6  2  0
  5  7  1  0
  7  8  1  0
  8  9  1  0
  9 10  1  0
 10 11  1  0
 10 12  1  0
 12 13  1  0
 13 14  1  0
 14 15  1  0
 15 16  2  0
 16 17  1  0
 17 18  2  0
 18 19  1  0
 19 20  1  0
 19 21  2  0
  2 22  1  0
 22 23  2  0
 23 24  1  0
 24 25  2  0
 25 26  1  0
 26 27  2  0
 27 28  1  0
 28 29  2  0
 29 30  1  0
 30 31  2  0
 12  7  1  0
 21 15  1  0
 31 22  1  0
 30 25  1  0
  3 32  1  0
  4 33  1  0
  4 34  1  0
  8 35  1  0
  8 36  1  0
  9 37  1  0
  9 38  1  0
 10 39  1  1
 12 40  1  1
 13 41  1  0
 13 42  1  0
 16 43  1  0
 17 44  1  0
 18 45  1  0
 21 46  1  0
 23 47  1  0
 24 48  1  0
 26 49  1  0
 27 50  1  0
 28 51  1  0
 29 52  1  0
M  END
>  <smiles>  (13) 
O=C(NCC(=O)N1CC[C@H](F)[C@H]1COc1cccc(Cl)c1)c1ccc2ccccc2n1

>  <score_type>  (13) 
oracle

>  <origin>  (13) 
autodockgpu

>  <m_score__min__energy>  (13) 
-8.8200000000000003

>  <m_primary>  (13) 
energy

>  <rmsd>  (13) 
2.9736339491990185

>  <m_score__min__rmsd>  (13) 
2.9736339491990185

>  <meeko>  (13) 
{"free_energy": -7.99, "intermolecular_energy": -10.08, "internal_energy": -1.66, "cluster_size": 18, "cluster_id": 2, "rank_in_cluster": 11}

>  <energy>  (13) 
-7.99

>  <cluster_rmsd>  (13) 
1.44

>  <cluster>  (13) 
1

$$$$

     RDKit          3D

 52 55  0  0  0  0  0  0  0  0999 V2000
  143.0600   75.7020  218.1670 O   0  0  0  0  0  0  0  0  0  0  0  0
  142.7180   76.4390  219.1530 C   0  0  0  0  0  0  0  0  0  0  0  0
  142.5680   75.9050  220.4480 N   0  0  0  0  0  0  0  0  0  0  0  0
  142.8170   74.4830  220.6280 C   0  0  0  0  0  0  0  0  0  0  0  0
  141.5180   73.7680  220.6710 C   0  0  0  0  0  0  0  0  0  0  0  0
  141.3790   72.5640  220.3120 O   0  0  0  0  0  0  0  0  0  0  0  0
  140.3460   74.4270  221.1320 N   0  0  0  0  0  0  0  0  0  0  0  0
  139.3550   73.7860  221.9750 C   0  0  0  0  0  0  0  0  0  0  0  0
  138.0780   74.4340  221.5330 C   0  0  0  0  0  0  0  0  0  0  0  0
  138.4350   75.5180  220.5300 C   0  0  2  0  0  0  0  0  0  0  0  0
  138.3140   75.1060  219.2290 F   0  0  0  0  0  0  0  0  0  0  0  0
  139.8930   75.7840  220.8950 C   0  0  1  0  0  0  0  0  0  0  0  0
  139.8540   76.4840  222.2310 C   0  0  0  0  0  0  0  0  0  0  0  0
  141.1200   76.9920  222.6060 O   0  0  0  0  0  0  0  0  0  0  0  0
  141.1560   78.3170  223.0220 C   0  0  0  0  0  0  0  0  0  0  0  0
  142.3310   79.0070  223.2430 C   0  0  0  0  0  0  0  0  0  0  0  0
  142.2490   80.3200  223.6560 C   0  0  0  0  0  0  0  0  0  0  0  0
  141.0120   80.9240  223.8420 C   0  0  0  0  0  0  0  0  0  0  0  0
  139.8220   80.2430  223.6250 C   0  0  0  0  0  0  0  0  0  0  0  0
  138.2760   81.0350  223.8690 Cl  0  0  0  0  0  0  0  0  0  0  0  0
  139.9120   78.9280  223.2110 C   0  0  0  0  0  0  0  0  0  0  0  0
  142.4790   77.8610  218.9180 C   0  0  0  0  0  0  0  0  0  0  0  0
  142.7480   78.4230  217.6800 C   0  0  0  0  0  0  0  0  0  0  0  0
  142.5400   79.7590  217.4070 C   0  0  0  0  0  0  0  0  0  0  0  0
  142.0460   80.5600  218.4140 C   0  0  0  0  0  0  0  0  0  0  0  0
  141.8420   81.8950  218.1330 C   0  0  0  0  0  0  0  0  0  0  0  0
  141.3460   82.7190  219.1280 C   0  0  0  0  0  0  0  0  0  0  0  0
  141.0810   82.1590  220.3590 C   0  0  0  0  0  0  0  0  0  0  0  0
  141.2840   80.8220  220.6450 C   0  0  0  0  0  0  0  0  0  0  0  0
  141.7790   80.0010  219.6490 C   0  0  0  0  0  0  0  0  0  0  0  0
  141.9980   78.6910  219.8630 N   0  0  0  0  0  0  0  0  0  0  0  0
  142.2890   76.5310  221.2270 H   0  0  0  0  0  0  0  0  0  0  0  0
  143.4189   74.1046  219.7886 H   0  0  0  0  0  0  0  0  0  0  0  0
  143.3643   74.3171  221.5676 H   0  0  0  0  0  0  0  0  0  0  0  0
  139.3295   72.7000  221.8017 H   0  0  0  0  0  0  0  0  0  0  0  0
  139.5548   73.9035  223.0503 H   0  0  0  0  0  0  0  0  0  0  0  0
  137.4226   73.6874  221.0608 H   0  0  0  0  0  0  0  0  0  0  0  0
  137.5458   74.8649  222.3939 H   0  0  0  0  0  0  0  0  0  0  0  0
  137.7744   76.3960  220.5826 H   0  0  0  0  0  0  0  0  0  0  0  0
  140.4896   76.3604  220.1726 H   0  0  0  0  0  0  0  0  0  0  0  0
  139.1405   77.3192  222.1725 H   0  0  0  0  0  0  0  0  0  0  0  0
  139.5479   75.7478  222.9888 H   0  0  0  0  0  0  0  0  0  0  0  0
  143.3070   78.5222  223.0936 H   0  0  0  0  0  0  0  0  0  0  0  0
  143.1697   80.8932  223.8395 H   0  0  0  0  0  0  0  0  0  0  0  0
  140.9743   81.9730  224.1710 H   0  0  0  0  0  0  0  0  0  0  0  0
  138.9922   78.3533  223.0274 H   0  0  0  0  0  0  0  0  0  0  0  0
  143.1436   77.7771  216.8823 H   0  0  0  0  0  0  0  0  0  0  0  0
  142.7623   80.1738  216.4128 H   0  0  0  0  0  0  0  0  0  0  0  0
  142.0697   82.2977  217.1350 H   0  0  0  0  0  0  0  0  0  0  0  0
  141.1686   83.7886  218.9420 H   0  0  0  0  0  0  0  0  0  0  0  0
  140.6879   82.8091  221.1545 H   0  0  0  0  0  0  0  0  0  0  0  0
  141.0566   80.4200  221.6434 H   0  0  0  0  0  0  0  0  0  0  0  0
  1  2  2  0
  2  3  1  0
  3  4  1  0
  4  5  1  0
  5  6  2  0
  5  7  1  0
  7  8  1  0
  8  9  1  0
  9 10  1  0
 10 11  1  0
 10 12  1  0
 12 13  1  0
 13 14  1  0
 14 15  1  0
 15 16  2  0
 16 17  1  0
 17 18  2  0
 18 19  1  0
 19 20  1  0
 19 21  2  0
  2 22  1  0
 22 23  2  0
 23 24  1  0
 24 25  2  0
 25 26  1  0
 26 27  2  0
 27 28  1  0
 28 29  2  0
 29 30  1  0
 30 31  2  0
 12  7  1  0
 21 15  1  0
 31 22  1  0
 30 25  1  0
  3 32  1  0
  4 33  1  0
  4 34  1  0
  8 35  1  0
  8 36  1  0
  9 37  1  0
  9 38  1  0
 10 39  1  6
 12 40  1  6
 13 41  1  0
 13 42  1  0
 16 43  1  0
 17 44  1  0
 18 45  1  0
 21 46  1  0
 23 47  1  0
 24 48  1  0
 26 49  1  0
 27 50  1  0
 28 51  1  0
 29 52  1  0
M  END
>  <smiles>  (14) 
O=C(NCC(=O)N1CC[C@H](F)[C@H]1COc1cccc(Cl)c1)c1ccc2ccccc2n1

>  <score_type>  (14) 
oracle

>  <origin>  (14) 
autodockgpu

>  <m_score__min__energy>  (14) 
-8.8200000000000003

>  <m_primary>  (14) 
energy

>  <rmsd>  (14) 
9.170475678813402

>  <m_score__min__rmsd>  (14) 
9.170475678813402

>  <meeko>  (14) 
{"free_energy": -6.2, "intermolecular_energy": -8.28, "internal_energy": -3.35, "cluster_size": 1, "cluster_id": 9, "rank_in_cluster": 1}

>  <energy>  (14) 
-7.71

>  <cluster_rmsd>  (14) 
1.49

>  <cluster>  (14) 
1

$$$$

     RDKit          3D

 52 55  0  0  0  0  0  0  0  0999 V2000
  141.4740   71.8940  221.6370 O   0  0  0  0  0  0  0  0  0  0  0  0
  140.6200   72.2860  222.5010 C   0  0  0  0  0  0  0  0  0  0  0  0
  139.9400   73.5120  222.3530 N   0  0  0  0  0  0  0  0  0  0  0  0
  140.2430   74.3190  221.1810 C   0  0  0  0  0  0  0  0  0  0  0  0
  140.2170   75.7520  221.5620 C   0  0  0  0  0  0  0  0  0  0  0  0
  139.5560   76.1940  222.5440 O   0  0  0  0  0  0  0  0  0  0  0  0
  140.9560   76.7110  220.8180 N   0  0  0  0  0  0  0  0  0  0  0  0
  141.5230   77.9090  221.4080 C   0  0  0  0  0  0  0  0  0  0  0  0
  141.4340   78.9020  220.2890 C   0  0  0  0  0  0  0  0  0  0  0  0
  140.9260   78.1650  219.0600 C   0  0  2  0  0  0  0  0  0  0  0  0
  139.5750   78.3010  218.8740 F   0  0  0  0  0  0  0  0  0  0  0  0
  141.2970   76.7260  219.4080 C   0  0  1  0  0  0  0  0  0  0  0  0
  142.8010   76.6610  219.3100 C   0  0  0  0  0  0  0  0  0  0  0  0
  143.2450   75.4770  218.6750 O   0  0  0  0  0  0  0  0  0  0  0  0
  143.8970   74.5520  219.4800 C   0  0  0  0  0  0  0  0  0  0  0  0
  144.8110   74.9080  220.4510 C   0  0  0  0  0  0  0  0  0  0  0  0
  145.3990   73.9050  221.1930 C   0  0  0  0  0  0  0  0  0  0  0  0
  145.0740   72.5740  220.9620 C   0  0  0  0  0  0  0  0  0  0  0  0
  144.1570   72.2010  219.9900 C   0  0  0  0  0  0  0  0  0  0  0  0
  143.7670   70.5120  219.7230 Cl  0  0  0  0  0  0  0  0  0  0  0  0
  143.5710   73.2110  219.2500 C   0  0  0  0  0  0  0  0  0  0  0  0
  140.3520   71.4400  223.6610 C   0  0  0  0  0  0  0  0  0  0  0  0
  139.7140   70.2190  223.5060 C   0  0  0  0  0  0  0  0  0  0  0  0
  139.4390   69.3820  224.5680 C   0  0  0  0  0  0  0  0  0  0  0  0
  139.8160   69.7870  225.8300 C   0  0  0  0  0  0  0  0  0  0  0  0
  139.5360   68.9450  226.8860 C   0  0  0  0  0  0  0  0  0  0  0  0
  139.9060   69.3290  228.1630 C   0  0  0  0  0  0  0  0  0  0  0  0
  140.5400   70.5430  228.3160 C   0  0  0  0  0  0  0  0  0  0  0  0
  140.8210   71.3900  227.2600 C   0  0  0  0  0  0  0  0  0  0  0  0
  140.4520   71.0030  225.9860 C   0  0  0  0  0  0  0  0  0  0  0  0
  140.6980   71.7830  224.9160 N   0  0  0  0  0  0  0  0  0  0  0  0
  139.2510   73.8020  223.0740 H   0  0  0  0  0  0  0  0  0  0  0  0
  141.2412   74.0566  220.8005 H   0  0  0  0  0  0  0  0  0  0  0  0
  139.4962   74.1294  220.3959 H   0  0  0  0  0  0  0  0  0  0  0  0
  140.9362   78.2384  222.2781 H   0  0  0  0  0  0  0  0  0  0  0  0
  142.5466   77.7672  221.7850 H   0  0  0  0  0  0  0  0  0  0  0  0
  140.7361   79.7086  220.5579 H   0  0  0  0  0  0  0  0  0  0  0  0
  142.4188   79.3504  220.0911 H   0  0  0  0  0  0  0  0  0  0  0  0
  141.3532   78.5402  218.1183 H   0  0  0  0  0  0  0  0  0  0  0  0
  140.8343   75.9328  218.8025 H   0  0  0  0  0  0  0  0  0  0  0  0
  143.1560   77.5272  218.7324 H   0  0  0  0  0  0  0  0  0  0  0  0
  143.2065   76.6680  220.3325 H   0  0  0  0  0  0  0  0  0  0  0  0
  145.0638   75.9637  220.6284 H   0  0  0  0  0  0  0  0  0  0  0  0
  146.1307   74.1607  221.9735 H   0  0  0  0  0  0  0  0  0  0  0  0
  145.5578   71.7933  221.5674 H   0  0  0  0  0  0  0  0  0  0  0  0
  142.8385   72.9569  218.4697 H   0  0  0  0  0  0  0  0  0  0  0  0
  139.4148   69.9046  222.4952 H   0  0  0  0  0  0  0  0  0  0  0  0
  138.9328   68.4180  224.4115 H   0  0  0  0  0  0  0  0  0  0  0  0
  139.0273   67.9846  226.7160 H   0  0  0  0  0  0  0  0  0  0  0  0
  139.7002   68.6843  229.0302 H   0  0  0  0  0  0  0  0  0  0  0  0
  140.8372   70.8535  229.3285 H   0  0  0  0  0  0  0  0  0  0  0  0
  141.3275   72.3514  227.4305 H   0  0  0  0  0  0  0  0  0  0  0  0
  1  2  2  0
  2  3  1  0
  3  4  1  0
  4  5  1  0
  5  6  2  0
  5  7  1  0
  7  8  1  0
  8  9  1  0
  9 10  1  0
 10 11  1  0
 10 12  1  0
 12 13  1  0
 13 14  1  0
 14 15  1  0
 15 16  2  0
 16 17  1  0
 17 18  2  0
 18 19  1  0
 19 20  1  0
 19 21  2  0
  2 22  1  0
 22 23  2  0
 23 24  1  0
 24 25  2  0
 25 26  1  0
 26 27  2  0
 27 28  1  0
 28 29  2  0
 29 30  1  0
 30 31  2  0
 12  7  1  0
 21 15  1  0
 31 22  1  0
 30 25  1  0
  3 32  1  0
  4 33  1  0
  4 34  1  0
  8 35  1  0
  8 36  1  0
  9 37  1  0
  9 38  1  0
 10 39  1  6
 12 40  1  6
 13 41  1  0
 13 42  1  0
 16 43  1  0
 17 44  1  0
 18 45  1  0
 21 46  1  0
 23 47  1  0
 24 48  1  0
 26 49  1  0
 27 50  1  0
 28 51  1  0
 29 52  1  0
M  END
>  <smiles>  (15) 
O=C(NCC(=O)N1CC[C@H](F)[C@H]1COc1cccc(Cl)c1)c1ccc2ccccc2n1

>  <score_type>  (15) 
oracle

>  <origin>  (15) 
autodockgpu

>  <m_score__min__energy>  (15) 
-8.8200000000000003

>  <m_primary>  (15) 
energy

>  <rmsd>  (15) 
2.490615355245434

>  <m_score__min__rmsd>  (15) 
2.490615355245434

>  <meeko>  (15) 
{"free_energy": -8.05, "intermolecular_energy": -10.14, "internal_energy": -2.14, "cluster_size": 7, "cluster_id": 4, "rank_in_cluster": 5}

>  <energy>  (15) 
-8.67

>  <cluster_rmsd>  (15) 
0.0

>  <cluster>  (15) 
2

$$$$

     RDKit          3D

 52 55  0  0  0  0  0  0  0  0999 V2000
  138.0850   70.7360  221.9480 O   0  0  0  0  0  0  0  0  0  0  0  0
  138.8380   71.2200  222.8590 C   0  0  0  0  0  0  0  0  0  0  0  0
  139.3310   72.5370  222.7750 N   0  0  0  0  0  0  0  0  0  0  0  0
  138.9540   73.3310  221.6160 C   0  0  0  0  0  0  0  0  0  0  0  0
  139.8970   74.4680  221.4830 C   0  0  0  0  0  0  0  0  0  0  0  0
  141.0730   74.4490  221.9460 O   0  0  0  0  0  0  0  0  0  0  0  0
  139.5050   75.6570  220.8100 N   0  0  0  0  0  0  0  0  0  0  0  0
  138.2400   76.3250  221.0500 C   0  0  0  0  0  0  0  0  0  0  0  0
  137.9110   76.9020  219.7070 C   0  0  0  0  0  0  0  0  0  0  0  0
  139.0910   76.6300  218.7880 C   0  0  2  0  0  0  0  0  0  0  0  0
  138.9170   75.5170  218.0080 F   0  0  0  0  0  0  0  0  0  0  0  0
  140.2120   76.4270  219.8040 C   0  0  1  0  0  0  0  0  0  0  0  0
  140.4780   77.7910  220.3900 C   0  0  0  0  0  0  0  0  0  0  0  0
  140.9560   77.7190  221.7200 O   0  0  0  0  0  0  0  0  0  0  0  0
  141.4090   78.9060  222.2800 C   0  0  0  0  0  0  0  0  0  0  0  0
  142.1540   78.9570  223.4420 C   0  0  0  0  0  0  0  0  0  0  0  0
  142.5510   80.1920  223.9090 C   0  0  0  0  0  0  0  0  0  0  0  0
  142.2070   81.3490  223.2230 C   0  0  0  0  0  0  0  0  0  0  0  0
  141.4580   81.3140  222.0540 C   0  0  0  0  0  0  0  0  0  0  0  0
  141.0410   82.7940  221.2100 Cl  0  0  0  0  0  0  0  0  0  0  0  0
  141.0630   80.0730  221.5910 C   0  0  0  0  0  0  0  0  0  0  0  0
  139.1880   70.3810  224.0020 C   0  0  0  0  0  0  0  0  0  0  0  0
  138.8850   69.0280  223.9990 C   0  0  0  0  0  0  0  0  0  0  0  0
  139.1940   68.1930  225.0520 C   0  0  0  0  0  0  0  0  0  0  0  0
  139.8280   68.7360  226.1490 C   0  0  0  0  0  0  0  0  0  0  0  0
  140.1320   67.8930  227.1980 C   0  0  0  0  0  0  0  0  0  0  0  0
  140.7690   68.4160  228.3100 C   0  0  0  0  0  0  0  0  0  0  0  0
  141.0690   69.7610  228.3130 C   0  0  0  0  0  0  0  0  0  0  0  0
  140.7660   70.6070  227.2630 C   0  0  0  0  0  0  0  0  0  0  0  0
  140.1300   70.0840  226.1540 C   0  0  0  0  0  0  0  0  0  0  0  0
  139.8080   70.8560  225.0990 N   0  0  0  0  0  0  0  0  0  0  0  0
  139.9420   72.9000  223.5330 H   0  0  0  0  0  0  0  0  0  0  0  0
  138.9984   72.7071  220.7111 H   0  0  0  0  0  0  0  0  0  0  0  0
  137.9293   73.7105  221.7425 H   0  0  0  0  0  0  0  0  0  0  0  0
  137.4693   75.6101  221.3740 H   0  0  0  0  0  0  0  0  0  0  0  0
  138.2901   77.0799  221.8486 H   0  0  0  0  0  0  0  0  0  0  0  0
  137.0050   76.4246  219.3054 H   0  0  0  0  0  0  0  0  0  0  0  0
  137.7245   77.9832  219.7863 H   0  0  0  0  0  0  0  0  0  0  0  0
  139.2675   77.4312  218.0553 H   0  0  0  0  0  0  0  0  0  0  0  0
  141.1438   75.9754  219.4328 H   0  0  0  0  0  0  0  0  0  0  0  0
  141.2301   78.3018  219.7707 H   0  0  0  0  0  0  0  0  0  0  0  0
  139.5269   78.3435  220.4031 H   0  0  0  0  0  0  0  0  0  0  0  0
  142.4235   78.0365  223.9806 H   0  0  0  0  0  0  0  0  0  0  0  0
  143.1449   80.2612  224.8323 H   0  0  0  0  0  0  0  0  0  0  0  0
  142.5373   82.3216  223.6168 H   0  0  0  0  0  0  0  0  0  0  0  0
  140.4685   80.0022  220.6682 H   0  0  0  0  0  0  0  0  0  0  0  0
  138.3772   68.6032  223.1205 H   0  0  0  0  0  0  0  0  0  0  0  0
  138.9415   67.1229  225.0176 H   0  0  0  0  0  0  0  0  0  0  0  0
  139.8729   66.8250  227.1515 H   0  0  0  0  0  0  0  0  0  0  0  0
  141.0283   67.7765  229.1666 H   0  0  0  0  0  0  0  0  0  0  0  0
  141.5745   70.1820  229.1946 H   0  0  0  0  0  0  0  0  0  0  0  0
  141.0260   71.6748  227.3095 H   0  0  0  0  0  0  0  0  0  0  0  0
  1  2  2  0
  2  3  1  0
  3  4  1  0
  4  5  1  0
  5  6  2  0
  5  7  1  0
  7  8  1  0
  8  9  1  0
  9 10  1  0
 10 11  1  0
 10 12  1  0
 12 13  1  0
 13 14  1  0
 14 15  1  0
 15 16  2  0
 16 17  1  0
 17 18  2  0
 18 19  1  0
 19 20  1  0
 19 21  2  0
  2 22  1  0
 22 23  2  0
 23 24  1  0
 24 25  2  0
 25 26  1  0
 26 27  2  0
 27 28  1  0
 28 29  2  0
 29 30  1  0
 30 31  2  0
 12  7  1  0
 21 15  1  0
 31 22  1  0
 30 25  1  0
  3 32  1  0
  4 33  1  0
  4 34  1  0
  8 35  1  0
  8 36  1  0
  9 37  1  0
  9 38  1  0
 10 39  1  6
 12 40  1  6
 13 41  1  0
 13 42  1  0
 16 43  1  0
 17 44  1  0
 18 45  1  0
 21 46  1  0
 23 47  1  0
 24 48  1  0
 26 49  1  0
 27 50  1  0
 28 51  1  0
 29 52  1  0
M  END
>  <smiles>  (16) 
O=C(NCC(=O)N1CC[C@H](F)[C@H]1COc1cccc(Cl)c1)c1ccc2ccccc2n1

>  <score_type>  (16) 
oracle

>  <origin>  (16) 
autodockgpu

>  <m_score__min__energy>  (16) 
-8.8200000000000003

>  <m_primary>  (16) 
energy

>  <rmsd>  (16) 
1.7906067689436092

>  <m_score__min__rmsd>  (16) 
1.7906067689436092

>  <meeko>  (16) 
{"free_energy": -7.97, "intermolecular_energy": -10.06, "internal_energy": -1.76, "cluster_size": 18, "cluster_id": 2, "rank_in_cluster": 12}

>  <energy>  (16) 
-8.65

>  <cluster_rmsd>  (16) 
0.41

>  <cluster>  (16) 
2

$$$$

     RDKit          3D

 52 55  0  0  0  0  0  0  0  0999 V2000
  139.9870   74.7650  222.3400 O   0  0  0  0  0  0  0  0  0  0  0  0
  139.9060   75.7920  221.5860 C   0  0  0  0  0  0  0  0  0  0  0  0
  139.5810   75.6720  220.2200 N   0  0  0  0  0  0  0  0  0  0  0  0
  139.3410   74.3370  219.6950 C   0  0  0  0  0  0  0  0  0  0  0  0
  140.6430   73.6490  219.5120 C   0  0  0  0  0  0  0  0  0  0  0  0
  140.8030   72.4100  219.7010 O   0  0  0  0  0  0  0  0  0  0  0  0
  141.7930   74.3780  219.1050 N   0  0  0  0  0  0  0  0  0  0  0  0
  142.5070   74.1110  217.8710 C   0  0  0  0  0  0  0  0  0  0  0  0
  143.9240   74.4340  218.2320 C   0  0  0  0  0  0  0  0  0  0  0  0
  143.9220   74.9960  219.6440 C   0  0  2  0  0  0  0  0  0  0  0  0
  144.2200   74.0560  220.5960 F   0  0  0  0  0  0  0  0  0  0  0  0
  142.4780   75.4730  219.7670 C   0  0  1  0  0  0  0  0  0  0  0  0
  142.3710   76.6770  218.8650 C   0  0  0  0  0  0  0  0  0  0  0  0
  141.3720   77.5820  219.2950 O   0  0  0  0  0  0  0  0  0  0  0  0
  141.6310   78.9310  219.0920 C   0  0  0  0  0  0  0  0  0  0  0  0
  142.5750   79.3930  218.1970 C   0  0  0  0  0  0  0  0  0  0  0  0
  142.7490   80.7550  218.0760 C   0  0  0  0  0  0  0  0  0  0  0  0
  141.9900   81.6330  218.8380 C   0  0  0  0  0  0  0  0  0  0  0  0
  141.0360   81.1850  219.7420 C   0  0  0  0  0  0  0  0  0  0  0  0
  140.0930   82.3190  220.6900 Cl  0  0  0  0  0  0  0  0  0  0  0  0
  140.8670   79.8180  219.8590 C   0  0  0  0  0  0  0  0  0  0  0  0
  140.1570   77.1100  222.1630 C   0  0  0  0  0  0  0  0  0  0  0  0
  139.1050   77.8880  222.6200 C   0  0  0  0  0  0  0  0  0  0  0  0
  139.2880   79.1390  223.1720 C   0  0  0  0  0  0  0  0  0  0  0  0
  140.5740   79.6260  223.2680 C   0  0  0  0  0  0  0  0  0  0  0  0
  140.7480   80.8780  223.8220 C   0  0  0  0  0  0  0  0  0  0  0  0
  142.0300   81.3880  223.9300 C   0  0  0  0  0  0  0  0  0  0  0  0
  143.0750   80.6130  223.4740 C   0  0  0  0  0  0  0  0  0  0  0  0
  142.9040   79.3590  222.9190 C   0  0  0  0  0  0  0  0  0  0  0  0
  141.6230   78.8520  222.8140 C   0  0  0  0  0  0  0  0  0  0  0  0
  141.3900   77.6370  222.2830 N   0  0  0  0  0  0  0  0  0  0  0  0
  139.5230   76.5270  219.6340 H   0  0  0  0  0  0  0  0  0  0  0  0
  138.7197   73.7685  220.4027 H   0  0  0  0  0  0  0  0  0  0  0  0
  138.8178   74.4055  218.7298 H   0  0  0  0  0  0  0  0  0  0  0  0
  142.4041   73.0570  217.5737 H   0  0  0  0  0  0  0  0  0  0  0  0
  142.1318   74.6923  217.0159 H   0  0  0  0  0  0  0  0  0  0  0  0
  144.5383   73.5224  218.1920 H   0  0  0  0  0  0  0  0  0  0  0  0
  144.3454   75.1648  217.5260 H   0  0  0  0  0  0  0  0  0  0  0  0
  144.6834   75.7734  219.8051 H   0  0  0  0  0  0  0  0  0  0  0  0
  142.1183   75.7126  220.7785 H   0  0  0  0  0  0  0  0  0  0  0  0
  143.3396   77.1982  218.8540 H   0  0  0  0  0  0  0  0  0  0  0  0
  142.0947   76.3223  217.8611 H   0  0  0  0  0  0  0  0  0  0  0  0
  143.1730   78.6923  217.5959 H   0  0  0  0  0  0  0  0  0  0  0  0
  143.4949   81.1493  217.3703 H   0  0  0  0  0  0  0  0  0  0  0  0
  142.1491   82.7153  218.7222 H   0  0  0  0  0  0  0  0  0  0  0  0
  140.1218   79.4220  220.5646 H   0  0  0  0  0  0  0  0  0  0  0  0
  138.0820   77.4917  222.5392 H   0  0  0  0  0  0  0  0  0  0  0  0
  138.4314   79.7315  223.5257 H   0  0  0  0  0  0  0  0  0  0  0  0
  139.8828   81.4604  224.1716 H   0  0  0  0  0  0  0  0  0  0  0  0
  142.2097   82.3816  224.3664 H   0  0  0  0  0  0  0  0  0  0  0  0
  144.0964   81.0130  223.5561 H   0  0  0  0  0  0  0  0  0  0  0  0
  143.7691   78.7770  222.5684 H   0  0  0  0  0  0  0  0  0  0  0  0
  1  2  2  0
  2  3  1  0
  3  4  1  0
  4  5  1  0
  5  6  2  0
  5  7  1  0
  7  8  1  0
  8  9  1  0
  9 10  1  0
 10 11  1  0
 10 12  1  0
 12 13  1  0
 13 14  1  0
 14 15  1  0
 15 16  2  0
 16 17  1  0
 17 18  2  0
 18 19  1  0
 19 20  1  0
 19 21  2  0
  2 22  1  0
 22 23  2  0
 23 24  1  0
 24 25  2  0
 25 26  1  0
 26 27  2  0
 27 28  1  0
 28 29  2  0
 29 30  1  0
 30 31  2  0
 12  7  1  0
 21 15  1  0
 31 22  1  0
 30 25  1  0
  3 32  1  0
  4 33  1  0
  4 34  1  0
  8 35  1  0
  8 36  1  0
  9 37  1  0
  9 38  1  0
 10 39  1  6
 12 40  1  1
 13 41  1  0
 13 42  1  0
 16 43  1  0
 17 44  1  0
 18 45  1  0
 21 46  1  0
 23 47  1  0
 24 48  1  0
 26 49  1  0
 27 50  1  0
 28 51  1  0
 29 52  1  0
M  END
>  <smiles>  (17) 
O=C(NCC(=O)N1CC[C@H](F)[C@H]1COc1cccc(Cl)c1)c1ccc2ccccc2n1

>  <score_type>  (17) 
oracle

>  <origin>  (17) 
autodockgpu

>  <m_score__min__energy>  (17) 
-8.8200000000000003

>  <m_primary>  (17) 
energy

>  <rmsd>  (17) 
7.225972445556621

>  <m_score__min__rmsd>  (17) 
7.225972445556621

>  <meeko>  (17) 
{"free_energy": -6.2, "intermolecular_energy": -8.29, "internal_energy": -3.64, "cluster_size": 3, "cluster_id": 7, "rank_in_cluster": 3}

>  <energy>  (17) 
-8.6

>  <cluster_rmsd>  (17) 
0.99

>  <cluster>  (17) 
2

$$$$

     RDKit          3D

 52 55  0  0  0  0  0  0  0  0999 V2000
  138.3690   75.2590  221.7370 O   0  0  0  0  0  0  0  0  0  0  0  0
  139.5630   75.7080  221.6770 C   0  0  0  0  0  0  0  0  0  0  0  0
  140.6000   74.9520  221.0930 N   0  0  0  0  0  0  0  0  0  0  0  0
  140.2650   73.6410  220.5600 C   0  0  0  0  0  0  0  0  0  0  0  0
  140.3500   72.6400  221.6520 C   0  0  0  0  0  0  0  0  0  0  0  0
  141.3910   72.4640  222.3480 O   0  0  0  0  0  0  0  0  0  0  0  0
  139.2340   71.8190  221.9680 N   0  0  0  0  0  0  0  0  0  0  0  0
  138.7680   70.7480  221.1080 C   0  0  0  0  0  0  0  0  0  0  0  0
  137.2890   70.7560  221.3440 C   0  0  0  0  0  0  0  0  0  0  0  0
  137.0030   71.7680  222.4400 C   0  0  2  0  0  0  0  0  0  0  0  0
  136.6190   72.9910  221.9540 F   0  0  0  0  0  0  0  0  0  0  0  0
  138.3640   71.8460  223.1270 C   0  0  1  0  0  0  0  0  0  0  0  0
  138.5300   70.5290  223.8440 C   0  0  0  0  0  0  0  0  0  0  0  0
  139.8840   70.2510  224.1460 O   0  0  0  0  0  0  0  0  0  0  0  0
  140.2990   70.5300  225.4410 C   0  0  0  0  0  0  0  0  0  0  0  0
  140.6140   71.8020  225.8750 C   0  0  0  0  0  0  0  0  0  0  0  0
  141.0160   71.9640  227.1840 C   0  0  0  0  0  0  0  0  0  0  0  0
  141.0990   70.8710  228.0370 C   0  0  0  0  0  0  0  0  0  0  0  0
  140.7850   69.5870  227.6150 C   0  0  0  0  0  0  0  0  0  0  0  0
  140.8990   68.2270  228.7170 Cl  0  0  0  0  0  0  0  0  0  0  0  0
  140.3830   69.4310  226.3020 C   0  0  0  0  0  0  0  0  0  0  0  0
  139.8460   77.0310  222.2270 C   0  0  0  0  0  0  0  0  0  0  0  0
  138.8200   77.8190  222.7230 C   0  0  0  0  0  0  0  0  0  0  0  0
  139.0330   79.0740  223.2530 C   0  0  0  0  0  0  0  0  0  0  0  0
  140.3250   79.5560  223.2860 C   0  0  0  0  0  0  0  0  0  0  0  0
  140.5290   80.8120  223.8180 C   0  0  0  0  0  0  0  0  0  0  0  0
  141.8180   81.3170  223.8620 C   0  0  0  0  0  0  0  0  0  0  0  0
  142.8370   80.5320  223.3690 C   0  0  0  0  0  0  0  0  0  0  0  0
  142.6360   79.2730  222.8360 C   0  0  0  0  0  0  0  0  0  0  0  0
  141.3490   78.7710  222.7930 C   0  0  0  0  0  0  0  0  0  0  0  0
  141.0870   77.5520  222.2860 N   0  0  0  0  0  0  0  0  0  0  0  0
  141.5600   75.3460  221.0600 H   0  0  0  0  0  0  0  0  0  0  0  0
  139.2428   73.6581  220.1540 H   0  0  0  0  0  0  0  0  0  0  0  0
  140.9679   73.3755  219.7566 H   0  0  0  0  0  0  0  0  0  0  0  0
  139.0025   70.9555  220.0535 H   0  0  0  0  0  0  0  0  0  0  0  0
  139.2393   69.7780  221.3245 H   0  0  0  0  0  0  0  0  0  0  0  0
  136.7637   71.0441  220.4214 H   0  0  0  0  0  0  0  0  0  0  0  0
  136.9404   69.7561  221.6417 H   0  0  0  0  0  0  0  0  0  0  0  0
  136.1674   71.4786  223.0942 H   0  0  0  0  0  0  0  0  0  0  0  0
  138.5257   72.6867  223.8177 H   0  0  0  0  0  0  0  0  0  0  0  0
  137.9574   70.5622  224.7827 H   0  0  0  0  0  0  0  0  0  0  0  0
  138.1627   69.7339  223.1785 H   0  0  0  0  0  0  0  0  0  0  0  0
  140.5461   72.6636  225.1946 H   0  0  0  0  0  0  0  0  0  0  0  0
  141.2730   72.9669  227.5557 H   0  0  0  0  0  0  0  0  0  0  0  0
  141.4228   71.0277  229.0765 H   0  0  0  0  0  0  0  0  0  0  0  0
  140.1255   68.4287  225.9290 H   0  0  0  0  0  0  0  0  0  0  0  0
  137.7926   77.4271  222.6927 H   0  0  0  0  0  0  0  0  0  0  0  0
  138.1958   79.6742  223.6388 H   0  0  0  0  0  0  0  0  0  0  0  0
  139.6832   81.4021  224.2005 H   0  0  0  0  0  0  0  0  0  0  0  0
  142.0218   82.3147  224.2780 H   0  0  0  0  0  0  0  0  0  0  0  0
  143.8629   80.9275  223.4013 H   0  0  0  0  0  0  0  0  0  0  0  0
  143.4822   78.6830  222.4541 H   0  0  0  0  0  0  0  0  0  0  0  0
  1  2  2  0
  2  3  1  0
  3  4  1  0
  4  5  1  0
  5  6  2  0
  5  7  1  0
  7  8  1  0
  8  9  1  0
  9 10  1  0
 10 11  1  0
 10 12  1  0
 12 13  1  0
 13 14  1  0
 14 15  1  0
 15 16  2  0
 16 17  1  0
 17 18  2  0
 18 19  1  0
 19 20  1  0
 19 21  2  0
  2 22  1  0
 22 23  2  0
 23 24  1  0
 24 25  2  0
 25 26  1  0
 26 27  2  0
 27 28  1  0
 28 29  2  0
 29 30  1  0
 30 31  2  0
 12  7  1  0
 21 15  1  0
 31 22  1  0
 30 25  1  0
  3 32  1  0
  4 33  1  0
  4 34  1  0
  8 35  1  0
  8 36  1  0
  9 37  1  0
  9 38  1  0
 10 39  1  1
 12 40  1  1
 13 41  1  0
 13 42  1  0
 16 43  1  0
 17 44  1  0
 18 45  1  0
 21 46  1  0
 23 47  1  0
 24 48  1  0
 26 49  1  0
 27 50  1  0
 28 51  1  0
 29 52  1  0
M  END
>  <smiles>  (18) 
O=C(NCC(=O)N1CC[C@H](F)[C@H]1COc1cccc(Cl)c1)c1ccc2ccccc2n1

>  <score_type>  (18) 
oracle

>  <origin>  (18) 
autodockgpu

>  <m_score__min__energy>  (18) 
-8.8200000000000003

>  <m_primary>  (18) 
energy

>  <rmsd>  (18) 
7.999507216002701

>  <m_score__min__rmsd>  (18) 
7.999507216002701

>  <meeko>  (18) 
{"free_energy": -7.99, "intermolecular_energy": -10.08, "internal_energy": -1.84, "cluster_size": 14, "cluster_id": 1, "rank_in_cluster": 13}

>  <energy>  (18) 
-8.58

>  <cluster_rmsd>  (18) 
1.01

>  <cluster>  (18) 
2

$$$$

     RDKit          3D

 52 55  0  0  0  0  0  0  0  0999 V2000
  138.9960   70.9790  221.5590 O   0  0  0  0  0  0  0  0  0  0  0  0
  139.3710   71.5580  222.6340 C   0  0  0  0  0  0  0  0  0  0  0  0
  139.6040   72.9470  222.6730 N   0  0  0  0  0  0  0  0  0  0  0  0
  139.4010   73.7040  221.4470 C   0  0  0  0  0  0  0  0  0  0  0  0
  139.8080   75.1120  221.6780 C   0  0  0  0  0  0  0  0  0  0  0  0
  140.9690   75.4440  222.0510 O   0  0  0  0  0  0  0  0  0  0  0  0
  138.8820   76.1720  221.4810 N   0  0  0  0  0  0  0  0  0  0  0  0
  137.4540   75.9620  221.3320 C   0  0  0  0  0  0  0  0  0  0  0  0
  137.0550   77.0620  220.3950 C   0  0  0  0  0  0  0  0  0  0  0  0
  138.2800   77.9300  220.1570 C   0  0  2  0  0  0  0  0  0  0  0  0
  138.9470   77.6100  219.0030 F   0  0  0  0  0  0  0  0  0  0  0  0
  139.1160   77.6010  221.3910 C   0  0  1  0  0  0  0  0  0  0  0  0
  138.3980   78.2470  222.5490 C   0  0  0  0  0  0  0  0  0  0  0  0
  139.2820   78.6110  223.5920 O   0  0  0  0  0  0  0  0  0  0  0  0
  140.4320   79.2940  223.2170 C   0  0  0  0  0  0  0  0  0  0  0  0
  141.7050   78.8370  223.4940 C   0  0  0  0  0  0  0  0  0  0  0  0
  142.7760   79.5980  223.0750 C   0  0  0  0  0  0  0  0  0  0  0  0
  142.5710   80.7900  222.3930 C   0  0  0  0  0  0  0  0  0  0  0  0
  141.2970   81.2620  222.1080 C   0  0  0  0  0  0  0  0  0  0  0  0
  141.0710   82.7710  221.2440 Cl  0  0  0  0  0  0  0  0  0  0  0  0
  140.2280   80.4950  222.5300 C   0  0  0  0  0  0  0  0  0  0  0  0
  139.5600   70.7520  223.8370 C   0  0  0  0  0  0  0  0  0  0  0  0
  139.1510   69.4280  223.8670 C   0  0  0  0  0  0  0  0  0  0  0  0
  139.3070   68.6250  224.9770 C   0  0  0  0  0  0  0  0  0  0  0  0
  139.8930   69.1720  226.0990 C   0  0  0  0  0  0  0  0  0  0  0  0
  140.0440   68.3610  227.2060 C   0  0  0  0  0  0  0  0  0  0  0  0
  140.6300   68.8880  228.3430 C   0  0  0  0  0  0  0  0  0  0  0  0
  141.0360   70.2040  228.3130 C   0  0  0  0  0  0  0  0  0  0  0  0
  140.8860   71.0190  227.2060 C   0  0  0  0  0  0  0  0  0  0  0  0
  140.3010   70.4910  226.0710 C   0  0  0  0  0  0  0  0  0  0  0  0
  140.1260   71.2320  224.9610 N   0  0  0  0  0  0  0  0  0  0  0  0
  139.9080   73.3870  223.5630 H   0  0  0  0  0  0  0  0  0  0  0  0
  140.0110   73.2710  220.6405 H   0  0  0  0  0  0  0  0  0  0  0  0
  138.3407   73.6656  221.1568 H   0  0  0  0  0  0  0  0  0  0  0  0
  137.2416   74.9741  220.8973 H   0  0  0  0  0  0  0  0  0  0  0  0
  136.9079   75.9823  222.2867 H   0  0  0  0  0  0  0  0  0  0  0  0
  136.7066   76.6356  219.4427 H   0  0  0  0  0  0  0  0  0  0  0  0
  136.2368   77.6582  220.8253 H   0  0  0  0  0  0  0  0  0  0  0  0
  138.0413   78.9960  220.0283 H   0  0  0  0  0  0  0  0  0  0  0  0
  140.1729   77.9051  221.3718 H   0  0  0  0  0  0  0  0  0  0  0  0
  137.8854   79.1508  222.1879 H   0  0  0  0  0  0  0  0  0  0  0  0
  137.6833   77.5149  222.9531 H   0  0  0  0  0  0  0  0  0  0  0  0
  141.8607   77.8915  224.0343 H   0  0  0  0  0  0  0  0  0  0  0  0
  143.8013   79.2579  223.2828 H   0  0  0  0  0  0  0  0  0  0  0  0
  143.4431   81.3771  222.0693 H   0  0  0  0  0  0  0  0  0  0  0  0
  139.2022   80.8337  222.3227 H   0  0  0  0  0  0  0  0  0  0  0  0
  138.6827   69.0002  222.9683 H   0  0  0  0  0  0  0  0  0  0  0  0
  138.9732   67.5769  224.9677 H   0  0  0  0  0  0  0  0  0  0  0  0
  139.7046   67.3149  227.1844 H   0  0  0  0  0  0  0  0  0  0  0  0
  140.7678   68.2738  229.2451 H   0  0  0  0  0  0  0  0  0  0  0  0
  141.5027   70.6276  229.2145 H   0  0  0  0  0  0  0  0  0  0  0  0
  141.2251   72.0652  227.2285 H   0  0  0  0  0  0  0  0  0  0  0  0
  1  2  2  0
  2  3  1  0
  3  4  1  0
  4  5  1  0
  5  6  2  0
  5  7  1  0
  7  8  1  0
  8  9  1  0
  9 10  1  0
 10 11  1  0
 10 12  1  0
 12 13  1  0
 13 14  1  0
 14 15  1  0
 15 16  2  0
 16 17  1  0
 17 18  2  0
 18 19  1  0
 19 20  1  0
 19 21  2  0
  2 22  1  0
 22 23  2  0
 23 24  1  0
 24 25  2  0
 25 26  1  0
 26 27  2  0
 27 28  1  0
 28 29  2  0
 29 30  1  0
 30 31  2  0
 12  7  1  0
 21 15  1  0
 31 22  1  0
 30 25  1  0
  3 32  1  0
  4 33  1  0
  4 34  1  0
  8 35  1  0
  8 36  1  0
  9 37  1  0
  9 38  1  0
 10 39  1  6
 12 40  1  6
 13 41  1  0
 13 42  1  0
 16 43  1  0
 17 44  1  0
 18 45  1  0
 21 46  1  0
 23 47  1  0
 24 48  1  0
 26 49  1  0
 27 50  1  0
 28 51  1  0
 29 52  1  0
M  END
>  <smiles>  (19) 
O=C(NCC(=O)N1CC[C@H](F)[C@H]1COc1cccc(Cl)c1)c1ccc2ccccc2n1

>  <score_type>  (19) 
oracle

>  <origin>  (19) 
autodockgpu

>  <m_score__min__energy>  (19) 
-8.8200000000000003

>  <m_primary>  (19) 
energy

>  <rmsd>  (19) 
2.390660119751296

>  <m_score__min__rmsd>  (19) 
2.390660119751296

>  <meeko>  (19) 
{"free_energy": -8.17, "intermolecular_energy": -10.26, "internal_energy": -1.72, "cluster_size": 3, "cluster_id": 3, "rank_in_cluster": 3}

>  <energy>  (19) 
-8.55

>  <cluster_rmsd>  (19) 
0.99

>  <cluster>  (19) 
2

$$$$

     RDKit          3D

 52 55  0  0  0  0  0  0  0  0999 V2000
  137.2100   76.6000  222.2650 O   0  0  0  0  0  0  0  0  0  0  0  0
  138.4820   76.5590  222.3730 C   0  0  0  0  0  0  0  0  0  0  0  0
  139.1970   75.3670  222.1380 N   0  0  0  0  0  0  0  0  0  0  0  0
  138.4380   74.1830  221.7670 C   0  0  0  0  0  0  0  0  0  0  0  0
  139.2020   72.9760  222.1670 C   0  0  0  0  0  0  0  0  0  0  0  0
  140.4530   72.9790  222.3500 O   0  0  0  0  0  0  0  0  0  0  0  0
  138.5400   71.7350  222.3680 N   0  0  0  0  0  0  0  0  0  0  0  0
  138.1040   70.8820  221.2790 C   0  0  0  0  0  0  0  0  0  0  0  0
  136.8640   70.2490  221.8310 C   0  0  0  0  0  0  0  0  0  0  0  0
  136.7270   70.6910  223.2790 C   0  0  2  0  0  0  0  0  0  0  0  0
  135.8800   71.7570  223.4360 F   0  0  0  0  0  0  0  0  0  0  0  0
  138.1680   71.0730  223.6050 C   0  0  1  0  0  0  0  0  0  0  0  0
  138.9290   69.7720  223.6620 C   0  0  0  0  0  0  0  0  0  0  0  0
  140.2880   69.9610  224.0050 O   0  0  0  0  0  0  0  0  0  0  0  0
  140.5520   70.3050  225.3250 C   0  0  0  0  0  0  0  0  0  0  0  0
  140.7020   71.6100  225.7490 C   0  0  0  0  0  0  0  0  0  0  0  0
  140.9620   71.8360  227.0840 C   0  0  0  0  0  0  0  0  0  0  0  0
  141.0680   70.7740  227.9720 C   0  0  0  0  0  0  0  0  0  0  0  0
  140.9190   69.4560  227.5600 C   0  0  0  0  0  0  0  0  0  0  0  0
  141.0570   68.1360  228.7060 Cl  0  0  0  0  0  0  0  0  0  0  0  0
  140.6590   69.2360  226.2210 C   0  0  0  0  0  0  0  0  0  0  0  0
  139.1960   77.7760  222.7490 C   0  0  0  0  0  0  0  0  0  0  0  0
  138.4980   78.9070  223.1410 C   0  0  0  0  0  0  0  0  0  0  0  0
  139.1240   80.0810  223.5050 C   0  0  0  0  0  0  0  0  0  0  0  0
  140.5020   80.1210  223.4730 C   0  0  0  0  0  0  0  0  0  0  0  0
  141.1200   81.2990  223.8390 C   0  0  0  0  0  0  0  0  0  0  0  0
  142.5020   81.3620  223.8160 C   0  0  0  0  0  0  0  0  0  0  0  0
  143.1960   80.2370  223.4250 C   0  0  0  0  0  0  0  0  0  0  0  0
  142.5790   79.0560  223.0590 C   0  0  0  0  0  0  0  0  0  0  0  0
  141.1990   78.9940  223.0830 C   0  0  0  0  0  0  0  0  0  0  0  0
  140.5400   77.8730  222.7370 N   0  0  0  0  0  0  0  0  0  0  0  0
  140.2310   75.3680  222.2340 H   0  0  0  0  0  0  0  0  0  0  0  0
  137.4658   74.1917  222.2816 H   0  0  0  0  0  0  0  0  0  0  0  0
  138.2704   74.1740  220.6799 H   0  0  0  0  0  0  0  0  0  0  0  0
  137.8804   71.4723  220.3781 H   0  0  0  0  0  0  0  0  0  0  0  0
  138.8644   70.1512  220.9663 H   0  0  0  0  0  0  0  0  0  0  0  0
  135.9868   70.5772  221.2542 H   0  0  0  0  0  0  0  0  0  0  0  0
  136.9286   69.1528  221.7664 H   0  0  0  0  0  0  0  0  0  0  0  0
  136.2916   69.9201  223.9318 H   0  0  0  0  0  0  0  0  0  0  0  0
  138.3316   71.6586  224.5217 H   0  0  0  0  0  0  0  0  0  0  0  0
  138.4611   69.1209  224.4151 H   0  0  0  0  0  0  0  0  0  0  0  0
  138.8941   69.3170  222.6611 H   0  0  0  0  0  0  0  0  0  0  0  0
  140.6164   72.4473  225.0407 H   0  0  0  0  0  0  0  0  0  0  0  0
  141.0865   72.8663  227.4486 H   0  0  0  0  0  0  0  0  0  0  0  0
  141.2759   70.9823  229.0319 H   0  0  0  0  0  0  0  0  0  0  0  0
  140.5344   68.2063  225.8545 H   0  0  0  0  0  0  0  0  0  0  0  0
  137.3989   78.8669  223.1628 H   0  0  0  0  0  0  0  0  0  0  0  0
  138.5400   80.9611  223.8123 H   0  0  0  0  0  0  0  0  0  0  0  0
  140.5247   82.1724  224.1436 H   0  0  0  0  0  0  0  0  0  0  0  0
  143.0315   82.2830  224.1014 H   0  0  0  0  0  0  0  0  0  0  0  0
  144.2949   80.2816  223.4033 H   0  0  0  0  0  0  0  0  0  0  0  0
  143.1746   78.1827  222.7547 H   0  0  0  0  0  0  0  0  0  0  0  0
  1  2  2  0
  2  3  1  0
  3  4  1  0
  4  5  1  0
  5  6  2  0
  5  7  1  0
  7  8  1  0
  8  9  1  0
  9 10  1  0
 10 11  1  0
 10 12  1  0
 12 13  1  0
 13 14  1  0
 14 15  1  0
 15 16  2  0
 16 17  1  0
 17 18  2  0
 18 19  1  0
 19 20  1  0
 19 21  2  0
  2 22  1  0
 22 23  2  0
 23 24  1  0
 24 25  2  0
 25 26  1  0
 26 27  2  0
 27 28  1  0
 28 29  2  0
 29 30  1  0
 30 31  2  0
 12  7  1  0
 21 15  1  0
 31 22  1  0
 30 25  1  0
  3 32  1  0
  4 33  1  0
  4 34  1  0
  8 35  1  0
  8 36  1  0
  9 37  1  0
  9 38  1  0
 10 39  1  1
 12 40  1  1
 13 41  1  0
 13 42  1  0
 16 43  1  0
 17 44  1  0
 18 45  1  0
 21 46  1  0
 23 47  1  0
 24 48  1  0
 26 49  1  0
 27 50  1  0
 28 51  1  0
 29 52  1  0
M  END
>  <smiles>  (20) 
O=C(NCC(=O)N1CC[C@H](F)[C@H]1COc1cccc(Cl)c1)c1ccc2ccccc2n1

>  <score_type>  (20) 
oracle

>  <origin>  (20) 
autodockgpu

>  <m_score__min__energy>  (20) 
-8.8200000000000003

>  <m_primary>  (20) 
energy

>  <rmsd>  (20) 
8.38890004603281

>  <m_score__min__rmsd>  (20) 
8.38890004603281

>  <meeko>  (20) 
{"free_energy": -8.42, "intermolecular_energy": -10.51, "internal_energy": -1.95, "cluster_size": 14, "cluster_id": 1, "rank_in_cluster": 8}

>  <energy>  (20) 
-8.53

>  <cluster_rmsd>  (20) 
1.05

>  <cluster>  (20) 
2

$$$$

     RDKit          3D

 52 55  0  0  0  0  0  0  0  0999 V2000
  140.2500   71.3320  221.2760 O   0  0  0  0  0  0  0  0  0  0  0  0
  140.0170   72.0100  222.3330 C   0  0  0  0  0  0  0  0  0  0  0  0
  139.7630   73.3950  222.2710 N   0  0  0  0  0  0  0  0  0  0  0  0
  139.7730   74.0290  220.9620 C   0  0  0  0  0  0  0  0  0  0  0  0
  140.4710   75.3340  221.0650 C   0  0  0  0  0  0  0  0  0  0  0  0
  140.7300   75.8950  222.1680 O   0  0  0  0  0  0  0  0  0  0  0  0
  140.8880   76.0240  219.8940 N   0  0  0  0  0  0  0  0  0  0  0  0
  140.1150   76.0440  218.6670 C   0  0  0  0  0  0  0  0  0  0  0  0
  141.1760   76.1030  217.6100 C   0  0  0  0  0  0  0  0  0  0  0  0
  142.5170   76.2410  218.3120 C   0  0  2  0  0  0  0  0  0  0  0  0
  143.1690   75.0460  218.4620 F   0  0  0  0  0  0  0  0  0  0  0  0
  142.0840   76.8110  219.6600 C   0  0  1  0  0  0  0  0  0  0  0  0
  141.6410   78.2250  219.3780 C   0  0  0  0  0  0  0  0  0  0  0  0
  142.1870   79.1510  220.2980 O   0  0  0  0  0  0  0  0  0  0  0  0
  141.5430   79.2560  221.5250 C   0  0  0  0  0  0  0  0  0  0  0  0
  142.1890   79.6260  222.6870 C   0  0  0  0  0  0  0  0  0  0  0  0
  141.4520   79.6980  223.8490 C   0  0  0  0  0  0  0  0  0  0  0  0
  140.0940   79.4030  223.8420 C   0  0  0  0  0  0  0  0  0  0  0  0
  139.4310   79.0300  222.6820 C   0  0  0  0  0  0  0  0  0  0  0  0
  137.7150   78.6650  222.7050 Cl  0  0  0  0  0  0  0  0  0  0  0  0
  140.1760   78.9600  221.5200 C   0  0  0  0  0  0  0  0  0  0  0  0
  140.0190   71.3250  223.6230 C   0  0  0  0  0  0  0  0  0  0  0  0
  139.5200   70.0370  223.7340 C   0  0  0  0  0  0  0  0  0  0  0  0
  139.4980   69.3460  224.9280 C   0  0  0  0  0  0  0  0  0  0  0  0
  139.9950   69.9730  226.0510 C   0  0  0  0  0  0  0  0  0  0  0  0
  139.9690   69.2750  227.2410 C   0  0  0  0  0  0  0  0  0  0  0  0
  140.4630   69.8840  228.3820 C   0  0  0  0  0  0  0  0  0  0  0  0
  140.9580   71.1650  228.2700 C   0  0  0  0  0  0  0  0  0  0  0  0
  140.9850   71.8660  227.0800 C   0  0  0  0  0  0  0  0  0  0  0  0
  140.4920   71.2570  225.9410 C   0  0  0  0  0  0  0  0  0  0  0  0
  140.4910   71.8870  224.7520 N   0  0  0  0  0  0  0  0  0  0  0  0
  139.5770   73.9170  223.1500 H   0  0  0  0  0  0  0  0  0  0  0  0
  140.3001   73.3841  220.2435 H   0  0  0  0  0  0  0  0  0  0  0  0
  138.7406   74.1850  220.6158 H   0  0  0  0  0  0  0  0  0  0  0  0
  139.5058   75.1336  218.5671 H   0  0  0  0  0  0  0  0  0  0  0  0
  139.4002   76.8785  218.6150 H   0  0  0  0  0  0  0  0  0  0  0  0
  141.1597   75.1810  217.0103 H   0  0  0  0  0  0  0  0  0  0  0  0
  141.0031   76.9552  216.9363 H   0  0  0  0  0  0  0  0  0  0  0  0
  143.2387   76.8581  217.7567 H   0  0  0  0  0  0  0  0  0  0  0  0
  142.8278   76.7918  220.4702 H   0  0  0  0  0  0  0  0  0  0  0  0
  141.9641   78.5015  218.3635 H   0  0  0  0  0  0  0  0  0  0  0  0
  140.5458   78.2606  219.4738 H   0  0  0  0  0  0  0  0  0  0  0  0
  143.2644   79.8574  222.6856 H   0  0  0  0  0  0  0  0  0  0  0  0
  141.9422   79.9911  224.7891 H   0  0  0  0  0  0  0  0  0  0  0  0
  139.5286   79.4671  224.7834 H   0  0  0  0  0  0  0  0  0  0  0  0
  139.6874   78.6676  220.5788 H   0  0  0  0  0  0  0  0  0  0  0  0
  139.1251   69.5451  222.8328 H   0  0  0  0  0  0  0  0  0  0  0  0
  139.0954   68.3238  224.9825 H   0  0  0  0  0  0  0  0  0  0  0  0
  139.5632   68.2534  227.2823 H   0  0  0  0  0  0  0  0  0  0  0  0
  140.4604   69.3606  229.3495 H   0  0  0  0  0  0  0  0  0  0  0  0
  141.3514   71.6540  229.1734 H   0  0  0  0  0  0  0  0  0  0  0  0
  141.3904   72.8878  227.0395 H   0  0  0  0  0  0  0  0  0  0  0  0
  1  2  2  0
  2  3  1  0
  3  4  1  0
  4  5  1  0
  5  6  2  0
  5  7  1  0
  7  8  1  0
  8  9  1  0
  9 10  1  0
 10 11  1  0
 10 12  1  0
 12 13  1  0
 13 14  1  0
 14 15  1  0
 15 16  2  0
 16 17  1  0
 17 18  2  0
 18 19  1  0
 19 20  1  0
 19 21  2  0
  2 22  1  0
 22 23  2  0
 23 24  1  0
 24 25  2  0
 25 26  1  0
 26 27  2  0
 27 28  1  0
 28 29  2  0
 29 30  1  0
 30 31  2  0
 12  7  1  0
 21 15  1  0
 31 22  1  0
 30 25  1  0
  3 32  1  0
  4 33  1  0
  4 34  1  0
  8 35  1  0
  8 36  1  0
  9 37  1  0
  9 38  1  0
 10 39  1  6
 12 40  1  1
 13 41  1  0
 13 42  1  0
 16 43  1  0
 17 44  1  0
 18 45  1  0
 21 46  1  0
 23 47  1  0
 24 48  1  0
 26 49  1  0
 27 50  1  0
 28 51  1  0
 29 52  1  0
M  END
>  <smiles>  (21) 
O=C(NCC(=O)N1CC[C@H](F)[C@H]1COc1cccc(Cl)c1)c1ccc2ccccc2n1

>  <score_type>  (21) 
oracle

>  <origin>  (21) 
autodockgpu

>  <m_score__min__energy>  (21) 
-8.8200000000000003

>  <m_primary>  (21) 
energy

>  <rmsd>  (21) 
1.4177815970815362

>  <m_score__min__rmsd>  (21) 
1.4177815970815362

>  <meeko>  (21) 
{"free_energy": -7.96, "intermolecular_energy": -10.05, "internal_energy": -2.07, "cluster_size": 18, "cluster_id": 2, "rank_in_cluster": 13}

>  <energy>  (21) 
-8.47

>  <cluster_rmsd>  (21) 
1.64

>  <cluster>  (21) 
2

$$$$

     RDKit          3D

 52 55  0  0  0  0  0  0  0  0999 V2000
  141.3260   71.6280  221.4640 O   0  0  0  0  0  0  0  0  0  0  0  0
  140.6260   72.0970  222.4240 C   0  0  0  0  0  0  0  0  0  0  0  0
  140.1290   73.4150  222.3890 N   0  0  0  0  0  0  0  0  0  0  0  0
  140.4390   74.2270  221.2220 C   0  0  0  0  0  0  0  0  0  0  0  0
  140.3910   75.6590  221.6050 C   0  0  0  0  0  0  0  0  0  0  0  0
  139.8010   76.0790  222.6420 O   0  0  0  0  0  0  0  0  0  0  0  0
  141.0240   76.6440  220.8000 N   0  0  0  0  0  0  0  0  0  0  0  0
  141.4090   77.9510  221.2990 C   0  0  0  0  0  0  0  0  0  0  0  0
  141.2310   78.8280  220.0970 C   0  0  0  0  0  0  0  0  0  0  0  0
  140.8670   77.9330  218.9240 C   0  0  2  0  0  0  0  0  0  0  0  0
  139.5170   77.8730  218.6950 F   0  0  0  0  0  0  0  0  0  0  0  0
  141.4100   76.5890  219.4020 C   0  0  1  0  0  0  0  0  0  0  0  0
  142.9110   76.7170  219.3460 C   0  0  0  0  0  0  0  0  0  0  0  0
  143.5050   75.7070  218.5520 O   0  0  0  0  0  0  0  0  0  0  0  0
  143.7710   74.4990  219.1830 C   0  0  0  0  0  0  0  0  0  0  0  0
  143.0660   73.3410  218.9230 C   0  0  0  0  0  0  0  0  0  0  0  0
  143.4150   72.1970  219.6090 C   0  0  0  0  0  0  0  0  0  0  0  0
  144.4490   72.2180  220.5360 C   0  0  0  0  0  0  0  0  0  0  0  0
  145.1660   73.3750  220.8080 C   0  0  0  0  0  0  0  0  0  0  0  0
  146.4680   73.3700  221.9840 Cl  0  0  0  0  0  0  0  0  0  0  0  0
  144.8120   74.5180  220.1170 C   0  0  0  0  0  0  0  0  0  0  0  0
  140.3440   71.2410  223.5730 C   0  0  0  0  0  0  0  0  0  0  0  0
  139.6230   70.0680  223.4140 C   0  0  0  0  0  0  0  0  0  0  0  0
  139.3300   69.2250  224.4650 C   0  0  0  0  0  0  0  0  0  0  0  0
  139.7760   69.5730  225.7230 C   0  0  0  0  0  0  0  0  0  0  0  0
  139.4780   68.7250  226.7690 C   0  0  0  0  0  0  0  0  0  0  0  0
  139.9160   69.0530  228.0400 C   0  0  0  0  0  0  0  0  0  0  0  0
  140.6320   70.2200  228.1970 C   0  0  0  0  0  0  0  0  0  0  0  0
  140.9320   71.0720  227.1510 C   0  0  0  0  0  0  0  0  0  0  0  0
  140.4940   70.7420  225.8820 C   0  0  0  0  0  0  0  0  0  0  0  0
  140.7540   71.5300  224.8220 N   0  0  0  0  0  0  0  0  0  0  0  0
  139.5620   73.7660  223.1860 H   0  0  0  0  0  0  0  0  0  0  0  0
  141.4453   73.9767  220.8550 H   0  0  0  0  0  0  0  0  0  0  0  0
  139.7057   74.0299  220.4261 H   0  0  0  0  0  0  0  0  0  0  0  0
  140.7538   78.2697  222.1231 H   0  0  0  0  0  0  0  0  0  0  0  0
  142.4282   77.9778  221.7118 H   0  0  0  0  0  0  0  0  0  0  0  0
  140.4250   79.5542  220.2788 H   0  0  0  0  0  0  0  0  0  0  0  0
  142.1557   79.3849  219.8852 H   0  0  0  0  0  0  0  0  0  0  0  0
  141.2744   78.2836  217.9643 H   0  0  0  0  0  0  0  0  0  0  0  0
  141.0766   75.6944  218.8555 H   0  0  0  0  0  0  0  0  0  0  0  0
  143.1671   77.6985  218.9204 H   0  0  0  0  0  0  0  0  0  0  0  0
  143.2971   76.6115  220.3706 H   0  0  0  0  0  0  0  0  0  0  0  0
  142.2476   73.3312  218.1881 H   0  0  0  0  0  0  0  0  0  0  0  0
  142.8701   71.2602  219.4206 H   0  0  0  0  0  0  0  0  0  0  0  0
  144.7071   71.2915  221.0698 H   0  0  0  0  0  0  0  0  0  0  0  0
  145.3562   75.4555  220.3040 H   0  0  0  0  0  0  0  0  0  0  0  0
  139.2699   69.7984  222.4077 H   0  0  0  0  0  0  0  0  0  0  0  0
  138.7563   68.3003  224.3046 H   0  0  0  0  0  0  0  0  0  0  0  0
  138.9021   67.8039  226.5959 H   0  0  0  0  0  0  0  0  0  0  0  0
  139.6991   68.4016  228.8994 H   0  0  0  0  0  0  0  0  0  0  0  0
  140.9822   70.4867  229.2051 H   0  0  0  0  0  0  0  0  0  0  0  0
  141.5072   71.9934  227.3246 H   0  0  0  0  0  0  0  0  0  0  0  0
  1  2  2  0
  2  3  1  0
  3  4  1  0
  4  5  1  0
  5  6  2  0
  5  7  1  0
  7  8  1  0
  8  9  1  0
  9 10  1  0
 10 11  1  0
 10 12  1  0
 12 13  1  0
 13 14  1  0
 14 15  1  0
 15 16  2  0
 16 17  1  0
 17 18  2  0
 18 19  1  0
 19 20  1  0
 19 21  2  0
  2 22  1  0
 22 23  2  0
 23 24  1  0
 24 25  2  0
 25 26  1  0
 26 27  2  0
 27 28  1  0
 28 29  2  0
 29 30  1  0
 30 31  2  0
 12  7  1  0
 21 15  1  0
 31 22  1  0
 30 25  1  0
  3 32  1  0
  4 33  1  0
  4 34  1  0
  8 35  1  0
  8 36  1  0
  9 37  1  0
  9 38  1  0
 10 39  1  6
 12 40  1  6
 13 41  1  0
 13 42  1  0
 16 43  1  0
 17 44  1  0
 18 45  1  0
 21 46  1  0
 23 47  1  0
 24 48  1  0
 26 49  1  0
 27 50  1  0
 28 51  1  0
 29 52  1  0
M  END
>  <smiles>  (22) 
O=C(NCC(=O)N1CC[C@H](F)[C@H]1COc1cccc(Cl)c1)c1ccc2ccccc2n1

>  <score_type>  (22) 
oracle

>  <origin>  (22) 
autodockgpu

>  <m_score__min__energy>  (22) 
-8.8200000000000003

>  <m_primary>  (22) 
energy

>  <rmsd>  (22) 
2.4426617066508975

>  <m_score__min__rmsd>  (22) 
2.4426617066508975

>  <meeko>  (22) 
{"free_energy": -8.24, "intermolecular_energy": -10.33, "internal_energy": -2.17, "cluster_size": 7, "cluster_id": 4, "rank_in_cluster": 3}

>  <energy>  (22) 
-8.4

>  <cluster_rmsd>  (22) 
1.01

>  <cluster>  (22) 
2

$$$$

     RDKit          3D

 52 55  0  0  0  0  0  0  0  0999 V2000
  133.7790   70.4530  226.1390 O   0  0  0  0  0  0  0  0  0  0  0  0
  134.1740   71.6200  225.8020 C   0  0  0  0  0  0  0  0  0  0  0  0
  135.2330   71.7980  224.8880 N   0  0  0  0  0  0  0  0  0  0  0  0
  135.8620   70.6060  224.3390 C   0  0  0  0  0  0  0  0  0  0  0  0
  136.9130   71.0170  223.3770 C   0  0  0  0  0  0  0  0  0  0  0  0
  137.1450   72.2240  223.0790 O   0  0  0  0  0  0  0  0  0  0  0  0
  137.7260   70.0430  222.7360 N   0  0  0  0  0  0  0  0  0  0  0  0
  138.8760   70.3820  221.9180 C   0  0  0  0  0  0  0  0  0  0  0  0
  138.8760   69.2980  220.8840 C   0  0  0  0  0  0  0  0  0  0  0  0
  137.7780   68.3130  221.2500 C   0  0  2  0  0  0  0  0  0  0  0  0
  136.6100   68.5350  220.5700 F   0  0  0  0  0  0  0  0  0  0  0  0
  137.6160   68.5970  222.7410 C   0  0  1  0  0  0  0  0  0  0  0  0
  138.8630   68.0550  223.3940 C   0  0  0  0  0  0  0  0  0  0  0  0
  138.6990   67.8650  224.7860 O   0  0  0  0  0  0  0  0  0  0  0  0
  139.4170   68.7180  225.6150 C   0  0  0  0  0  0  0  0  0  0  0  0
  139.5700   70.0660  225.3610 C   0  0  0  0  0  0  0  0  0  0  0  0
  140.3040   70.8190  226.2530 C   0  0  0  0  0  0  0  0  0  0  0  0
  140.8710   70.2280  227.3740 C   0  0  0  0  0  0  0  0  0  0  0  0
  140.7260   68.8740  227.6430 C   0  0  0  0  0  0  0  0  0  0  0  0
  141.4540   68.1580  229.0690 Cl  0  0  0  0  0  0  0  0  0  0  0  0
  139.9890   68.1250  226.7460 C   0  0  0  0  0  0  0  0  0  0  0  0
  133.5090   72.7830  226.3820 C   0  0  0  0  0  0  0  0  0  0  0  0
  132.3320   72.6340  227.0990 C   0  0  0  0  0  0  0  0  0  0  0  0
  131.6640   73.6990  227.6670 C   0  0  0  0  0  0  0  0  0  0  0  0
  132.1980   74.9600  227.5090 C   0  0  0  0  0  0  0  0  0  0  0  0
  131.5240   76.0200  228.0800 C   0  0  0  0  0  0  0  0  0  0  0  0
  132.0410   77.2960  227.9350 C   0  0  0  0  0  0  0  0  0  0  0  0
  133.2110   77.4430  227.2230 C   0  0  0  0  0  0  0  0  0  0  0  0
  133.8890   76.3840  226.6490 C   0  0  0  0  0  0  0  0  0  0  0  0
  133.3710   75.1100  226.7950 C   0  0  0  0  0  0  0  0  0  0  0  0
  133.9840   74.0370  226.2610 N   0  0  0  0  0  0  0  0  0  0  0  0
  135.5290   72.7600  224.6350 H   0  0  0  0  0  0  0  0  0  0  0  0
  136.3147   70.0196  225.1522 H   0  0  0  0  0  0  0  0  0  0  0  0
  135.1086   69.9894  223.8269 H   0  0  0  0  0  0  0  0  0  0  0  0
  138.7550   71.3722  221.4545 H   0  0  0  0  0  0  0  0  0  0  0  0
  139.8149   70.4413  222.4881 H   0  0  0  0  0  0  0  0  0  0  0  0
  138.6788   69.7273  219.8906 H   0  0  0  0  0  0  0  0  0  0  0  0
  139.8530   68.7934  220.8537 H   0  0  0  0  0  0  0  0  0  0  0  0
  138.0253   67.2709  220.9995 H   0  0  0  0  0  0  0  0  0  0  0  0
  136.7163   68.1941  223.2292 H   0  0  0  0  0  0  0  0  0  0  0  0
  139.1133   67.0887  222.9318 H   0  0  0  0  0  0  0  0  0  0  0  0
  139.6677   68.7903  223.2465 H   0  0  0  0  0  0  0  0  0  0  0  0
  139.1183   70.5275  224.4705 H   0  0  0  0  0  0  0  0  0  0  0  0
  140.4413   71.8958  226.0751 H   0  0  0  0  0  0  0  0  0  0  0  0
  141.4523   70.8511  228.0695 H   0  0  0  0  0  0  0  0  0  0  0  0
  139.8500   67.0483  226.9233 H   0  0  0  0  0  0  0  0  0  0  0  0
  131.9131   71.6241  227.2201 H   0  0  0  0  0  0  0  0  0  0  0  0
  130.7315   73.5463  228.2301 H   0  0  0  0  0  0  0  0  0  0  0  0
  130.5922   75.8541  228.6406 H   0  0  0  0  0  0  0  0  0  0  0  0
  131.5327   78.1665  228.3752 H   0  0  0  0  0  0  0  0  0  0  0  0
  133.6269   78.4545  227.1052 H   0  0  0  0  0  0  0  0  0  0  0  0
  134.8205   76.5510  226.0882 H   0  0  0  0  0  0  0  0  0  0  0  0
  1  2  2  0
  2  3  1  0
  3  4  1  0
  4  5  1  0
  5  6  2  0
  5  7  1  0
  7  8  1  0
  8  9  1  0
  9 10  1  0
 10 11  1  0
 10 12  1  0
 12 13  1  0
 13 14  1  0
 14 15  1  0
 15 16  2  0
 16 17  1  0
 17 18  2  0
 18 19  1  0
 19 20  1  0
 19 21  2  0
  2 22  1  0
 22 23  2  0
 23 24  1  0
 24 25  2  0
 25 26  1  0
 26 27  2  0
 27 28  1  0
 28 29  2  0
 29 30  1  0
 30 31  2  0
 12  7  1  0
 21 15  1  0
 31 22  1  0
 30 25  1  0
  3 32  1  0
  4 33  1  0
  4 34  1  0
  8 35  1  0
  8 36  1  0
  9 37  1  0
  9 38  1  0
 10 39  1  1
 12 40  1  1
 13 41  1  0
 13 42  1  0
 16 43  1  0
 17 44  1  0
 18 45  1  0
 21 46  1  0
 23 47  1  0
 24 48  1  0
 26 49  1  0
 27 50  1  0
 28 51  1  0
 29 52  1  0
M  END
>  <smiles>  (23) 
O=C(NCC(=O)N1CC[C@H](F)[C@H]1COc1cccc(Cl)c1)c1ccc2ccccc2n1

>  <score_type>  (23) 
oracle

>  <origin>  (23) 
autodockgpu

>  <m_score__min__energy>  (23) 
-8.8200000000000003

>  <m_primary>  (23) 
energy

>  <rmsd>  (23) 
8.365528113602167

>  <m_score__min__rmsd>  (23) 
8.365528113602167

>  <meeko>  (23) 
{"free_energy": -7.46, "intermolecular_energy": -9.55, "internal_energy": -2.18, "cluster_size": 1, "cluster_id": 5, "rank_in_cluster": 1}

>  <energy>  (23) 
-8.26

>  <cluster_rmsd>  (23) 
1.69

>  <cluster>  (23) 
2

$$$$

     RDKit          3D

 52 55  0  0  0  0  0  0  0  0999 V2000
  138.7630   75.3450  221.7590 O   0  0  0  0  0  0  0  0  0  0  0  0
  139.9660   75.7580  221.8740 C   0  0  0  0  0  0  0  0  0  0  0  0
  141.0570   74.9340  221.5330 N   0  0  0  0  0  0  0  0  0  0  0  0
  140.7680   73.5950  221.0420 C   0  0  0  0  0  0  0  0  0  0  0  0
  142.0410   72.8450  220.9120 C   0  0  0  0  0  0  0  0  0  0  0  0
  142.2050   71.6760  221.3650 O   0  0  0  0  0  0  0  0  0  0  0  0
  143.1580   73.4260  220.2530 N   0  0  0  0  0  0  0  0  0  0  0  0
  143.4610   73.1980  218.8520 C   0  0  0  0  0  0  0  0  0  0  0  0
  144.9580   73.2490  218.8260 C   0  0  0  0  0  0  0  0  0  0  0  0
  145.4300   73.6350  220.2180 C   0  0  2  0  0  0  0  0  0  0  0  0
  145.7890   72.5540  220.9810 F   0  0  0  0  0  0  0  0  0  0  0  0
  144.1800   74.3140  220.7720 C   0  0  1  0  0  0  0  0  0  0  0  0
  144.0640   75.6180  220.0230 C   0  0  0  0  0  0  0  0  0  0  0  0
  142.7170   75.9770  219.7770 O   0  0  0  0  0  0  0  0  0  0  0  0
  142.5100   77.1130  219.0060 C   0  0  0  0  0  0  0  0  0  0  0  0
  142.7040   77.1430  217.6400 C   0  0  0  0  0  0  0  0  0  0  0  0
  142.4680   78.3270  216.9740 C   0  0  0  0  0  0  0  0  0  0  0  0
  142.0470   79.4550  217.6670 C   0  0  0  0  0  0  0  0  0  0  0  0
  141.8490   79.4400  219.0400 C   0  0  0  0  0  0  0  0  0  0  0  0
  141.3160   80.8800  219.8870 Cl  0  0  0  0  0  0  0  0  0  0  0  0
  142.0870   78.2500  219.7020 C   0  0  0  0  0  0  0  0  0  0  0  0
  140.2010   77.1110  222.3720 C   0  0  0  0  0  0  0  0  0  0  0  0
  139.1360   77.9240  222.7240 C   0  0  0  0  0  0  0  0  0  0  0  0
  139.3040   79.2080  223.1980 C   0  0  0  0  0  0  0  0  0  0  0  0
  140.5890   79.6930  223.3230 C   0  0  0  0  0  0  0  0  0  0  0  0
  140.7480   80.9790  223.7980 C   0  0  0  0  0  0  0  0  0  0  0  0
  142.0280   81.4870  223.9330 C   0  0  0  0  0  0  0  0  0  0  0  0
  143.0860   80.6770  223.5830 C   0  0  0  0  0  0  0  0  0  0  0  0
  142.9300   79.3890  223.1060 C   0  0  0  0  0  0  0  0  0  0  0  0
  141.6510   78.8830  222.9730 C   0  0  0  0  0  0  0  0  0  0  0  0
  141.4330   77.6360  222.5150 N   0  0  0  0  0  0  0  0  0  0  0  0
  142.0230   75.3000  221.6380 H   0  0  0  0  0  0  0  0  0  0  0  0
  140.1052   73.0770  221.7508 H   0  0  0  0  0  0  0  0  0  0  0  0
  140.2705   73.6567  220.0629 H   0  0  0  0  0  0  0  0  0  0  0  0
  143.0918   72.2161  218.5211 H   0  0  0  0  0  0  0  0  0  0  0  0
  142.9877   73.9279  218.1788 H   0  0  0  0  0  0  0  0  0  0  0  0
  145.3620   72.2629  218.5532 H   0  0  0  0  0  0  0  0  0  0  0  0
  145.3062   73.9820  218.0834 H   0  0  0  0  0  0  0  0  0  0  0  0
  146.3358   74.2591  220.2144 H   0  0  0  0  0  0  0  0  0  0  0  0
  144.1469   74.4859  221.8580 H   0  0  0  0  0  0  0  0  0  0  0  0
  144.5387   76.4117  220.6185 H   0  0  0  0  0  0  0  0  0  0  0  0
  144.5626   75.4935  219.0504 H   0  0  0  0  0  0  0  0  0  0  0  0
  143.0379   76.2465  217.0971 H   0  0  0  0  0  0  0  0  0  0  0  0
  142.6143   78.3788  215.8850 H   0  0  0  0  0  0  0  0  0  0  0  0
  141.8654   80.3867  217.1112 H   0  0  0  0  0  0  0  0  0  0  0  0
  141.9417   78.1966  220.7911 H   0  0  0  0  0  0  0  0  0  0  0  0
  138.1145   77.5291  222.6212 H   0  0  0  0  0  0  0  0  0  0  0  0
  138.4370   79.8283  223.4690 H   0  0  0  0  0  0  0  0  0  0  0  0
  139.8726   81.5894  224.0646 H   0  0  0  0  0  0  0  0  0  0  0  0
  142.1958   82.5072  224.3086 H   0  0  0  0  0  0  0  0  0  0  0  0
  144.1060   81.0751  223.6884 H   0  0  0  0  0  0  0  0  0  0  0  0
  143.8056   78.7796  222.8379 H   0  0  0  0  0  0  0  0  0  0  0  0
  1  2  2  0
  2  3  1  0
  3  4  1  0
  4  5  1  0
  5  6  2  0
  5  7  1  0
  7  8  1  0
  8  9  1  0
  9 10  1  0
 10 11  1  0
 10 12  1  0
 12 13  1  0
 13 14  1  0
 14 15  1  0
 15 16  2  0
 16 17  1  0
 17 18  2  0
 18 19  1  0
 19 20  1  0
 19 21  2  0
  2 22  1  0
 22 23  2  0
 23 24  1  0
 24 25  2  0
 25 26  1  0
 26 27  2  0
 27 28  1  0
 28 29  2  0
 29 30  1  0
 30 31  2  0
 12  7  1  0
 21 15  1  0
 31 22  1  0
 30 25  1  0
  3 32  1  0
  4 33  1  0
  4 34  1  0
  8 35  1  0
  8 36  1  0
  9 37  1  0
  9 38  1  0
 10 39  1  6
 12 40  1  1
 13 41  1  0
 13 42  1  0
 16 43  1  0
 17 44  1  0
 18 45  1  0
 21 46  1  0
 23 47  1  0
 24 48  1  0
 26 49  1  0
 27 50  1  0
 28 51  1  0
 29 52  1  0
M  END
>  <smiles>  (24) 
O=C(NCC(=O)N1CC[C@H](F)[C@H]1COc1cccc(Cl)c1)c1ccc2ccccc2n1

>  <score_type>  (24) 
oracle

>  <origin>  (24) 
autodockgpu

>  <m_score__min__energy>  (24) 
-8.8200000000000003

>  <m_primary>  (24) 
energy

>  <rmsd>  (24) 
7.5458745086004635

>  <m_score__min__rmsd>  (24) 
7.5458745086004635

>  <meeko>  (24) 
{"free_energy": -6.88, "intermolecular_energy": -8.97, "internal_energy": -3.53, "cluster_size": 3, "cluster_id": 7, "rank_in_cluster": 2}

>  <energy>  (24) 
-8.07

>  <cluster_rmsd>  (24) 
1.65

>  <cluster>  (24) 
2

$$$$

     RDKit          3D

 52 55  0  0  0  0  0  0  0  0999 V2000
  138.6860   76.0930  220.3280 O   0  0  0  0  0  0  0  0  0  0  0  0
  139.0810   76.1000  221.5420 C   0  0  0  0  0  0  0  0  0  0  0  0
  139.0840   74.9230  222.3160 N   0  0  0  0  0  0  0  0  0  0  0  0
  138.6220   73.6950  221.6860 C   0  0  0  0  0  0  0  0  0  0  0  0
  139.3570   72.5480  222.2720 C   0  0  0  0  0  0  0  0  0  0  0  0
  140.3250   72.6830  223.0730 O   0  0  0  0  0  0  0  0  0  0  0  0
  138.9910   71.2130  221.9460 N   0  0  0  0  0  0  0  0  0  0  0  0
  139.9500   70.1310  221.8360 C   0  0  0  0  0  0  0  0  0  0  0  0
  139.3520   69.2670  220.7680 C   0  0  0  0  0  0  0  0  0  0  0  0
  137.9970   69.8520  220.4080 C   0  0  2  0  0  0  0  0  0  0  0  0
  138.0370   70.6590  219.3010 F   0  0  0  0  0  0  0  0  0  0  0  0
  137.6810   70.6540  221.6680 C   0  0  1  0  0  0  0  0  0  0  0  0
  137.3950   69.6310  222.7380 C   0  0  0  0  0  0  0  0  0  0  0  0
  137.4500   70.1850  224.0380 O   0  0  0  0  0  0  0  0  0  0  0  0
  138.5330   69.8130  224.8240 C   0  0  0  0  0  0  0  0  0  0  0  0
  138.8580   68.4970  225.0860 C   0  0  0  0  0  0  0  0  0  0  0  0
  139.9560   68.2420  225.8810 C   0  0  0  0  0  0  0  0  0  0  0  0
  140.7090   69.2870  226.4000 C   0  0  0  0  0  0  0  0  0  0  0  0
  140.3940   70.6150  226.1460 C   0  0  0  0  0  0  0  0  0  0  0  0
  141.3650   71.9130  226.8160 Cl  0  0  0  0  0  0  0  0  0  0  0  0
  139.2930   70.8640  225.3490 C   0  0  0  0  0  0  0  0  0  0  0  0
  139.5340   77.3590  222.1270 C   0  0  0  0  0  0  0  0  0  0  0  0
  138.6220   78.2470  222.6760 C   0  0  0  0  0  0  0  0  0  0  0  0
  138.9980   79.4480  223.2410 C   0  0  0  0  0  0  0  0  0  0  0  0
  140.3390   79.7700  223.2540 C   0  0  0  0  0  0  0  0  0  0  0  0
  140.7060   80.9730  223.8200 C   0  0  0  0  0  0  0  0  0  0  0  0
  142.0460   81.3170  223.8450 C   0  0  0  0  0  0  0  0  0  0  0  0
  142.9520   80.4340  223.2980 C   0  0  0  0  0  0  0  0  0  0  0  0
  142.5870   79.2280  222.7300 C   0  0  0  0  0  0  0  0  0  0  0  0
  141.2490   78.8860  222.7070 C   0  0  0  0  0  0  0  0  0  0  0  0
  140.8290   77.7260  222.1680 N   0  0  0  0  0  0  0  0  0  0  0  0
  139.4110   74.9630  223.3010 H   0  0  0  0  0  0  0  0  0  0  0  0
  137.5434   73.5720  221.8638 H   0  0  0  0  0  0  0  0  0  0  0  0
  138.8053   73.7405  220.6023 H   0  0  0  0  0  0  0  0  0  0  0  0
  140.9389   70.5068  221.5345 H   0  0  0  0  0  0  0  0  0  0  0  0
  140.1181   69.5991  222.7841 H   0  0  0  0  0  0  0  0  0  0  0  0
  140.0045   69.2598  219.8825 H   0  0  0  0  0  0  0  0  0  0  0  0
  139.2432   68.2321  221.1246 H   0  0  0  0  0  0  0  0  0  0  0  0
  137.2502   69.0895  220.1418 H   0  0  0  0  0  0  0  0  0  0  0  0
  136.8608   71.3838  221.6003 H   0  0  0  0  0  0  0  0  0  0  0  0
  136.3895   69.2170  222.5720 H   0  0  0  0  0  0  0  0  0  0  0  0
  138.1667   68.8499  222.6719 H   0  0  0  0  0  0  0  0  0  0  0  0
  138.2573   67.6738  224.6718 H   0  0  0  0  0  0  0  0  0  0  0  0
  140.2374   67.2026  226.1057 H   0  0  0  0  0  0  0  0  0  0  0  0
  141.5802   69.0559  227.0305 H   0  0  0  0  0  0  0  0  0  0  0  0
  139.0101   71.9029  225.1241 H   0  0  0  0  0  0  0  0  0  0  0  0
  137.5542   77.9830  222.6605 H   0  0  0  0  0  0  0  0  0  0  0  0
  138.2489   80.1301  223.6694 H   0  0  0  0  0  0  0  0  0  0  0  0
  139.9470   81.6469  224.2440 H   0  0  0  0  0  0  0  0  0  0  0  0
  142.3784   82.2672  224.2884 H   0  0  0  0  0  0  0  0  0  0  0  0
  144.0186   80.7025  223.3143 H   0  0  0  0  0  0  0  0  0  0  0  0
  143.3461   78.5547  222.3052 H   0  0  0  0  0  0  0  0  0  0  0  0
  1  2  2  0
  2  3  1  0
  3  4  1  0
  4  5  1  0
  5  6  2  0
  5  7  1  0
  7  8  1  0
  8  9  1  0
  9 10  1  0
 10 11  1  0
 10 12  1  0
 12 13  1  0
 13 14  1  0
 14 15  1  0
 15 16  2  0
 16 17  1  0
 17 18  2  0
 18 19  1  0
 19 20  1  0
 19 21  2  0
  2 22  1  0
 22 23  2  0
 23 24  1  0
 24 25  2  0
 25 26  1  0
 26 27  2  0
 27 28  1  0
 28 29  2  0
 29 30  1  0
 30 31  2  0
 12  7  1  0
 21 15  1  0
 31 22  1  0
 30 25  1  0
  3 32  1  0
  4 33  1  0
  4 34  1  0
  8 35  1  0
  8 36  1  0
  9 37  1  0
  9 38  1  0
 10 39  1  6
 12 40  1  6
 13 41  1  0
 13 42  1  0
 16 43  1  0
 17 44  1  0
 18 45  1  0
 21 46  1  0
 23 47  1  0
 24 48  1  0
 26 49  1  0
 27 50  1  0
 28 51  1  0
 29 52  1  0
M  END
>  <smiles>  (25) 
O=C(NCC(=O)N1CC[C@H](F)[C@H]1COc1cccc(Cl)c1)c1ccc2ccccc2n1

>  <score_type>  (25) 
oracle

>  <origin>  (25) 
autodockgpu

>  <m_score__min__energy>  (25) 
-8.8200000000000003

>  <m_primary>  (25) 
energy

>  <rmsd>  (25) 
8.264512447297452

>  <m_score__min__rmsd>  (25) 
8.264512447297452

>  <meeko>  (25) 
{"free_energy": -7.71, "intermolecular_energy": -9.8, "internal_energy": -2.01, "cluster_size": 14, "cluster_id": 1, "rank_in_cluster": 14}

>  <energy>  (25) 
-7.99

>  <cluster_rmsd>  (25) 
1.68

>  <cluster>  (25) 
2

$$$$

     RDKit          3D

 52 55  0  0  0  0  0  0  0  0999 V2000
  141.0520   73.2910  222.3800 O   0  0  0  0  0  0  0  0  0  0  0  0
  139.9700   72.6670  222.6500 C   0  0  0  0  0  0  0  0  0  0  0  0
  138.7810   72.9290  221.9410 N   0  0  0  0  0  0  0  0  0  0  0  0
  138.8240   73.9330  220.8900 C   0  0  0  0  0  0  0  0  0  0  0  0
  138.8560   75.2800  221.5110 C   0  0  0  0  0  0  0  0  0  0  0  0
  137.9220   75.7300  222.2340 O   0  0  0  0  0  0  0  0  0  0  0  0
  139.9710   76.1400  221.3140 N   0  0  0  0  0  0  0  0  0  0  0  0
  140.9500   76.4210  222.3460 C   0  0  0  0  0  0  0  0  0  0  0  0
  141.3490   77.8340  222.0460 C   0  0  0  0  0  0  0  0  0  0  0  0
  140.6530   78.2450  220.7600 C   0  0  2  0  0  0  0  0  0  0  0  0
  139.4950   78.9460  220.9770 F   0  0  0  0  0  0  0  0  0  0  0  0
  140.3680   76.8830  220.1330 C   0  0  1  0  0  0  0  0  0  0  0  0
  141.7110   76.3490  219.6990 C   0  0  0  0  0  0  0  0  0  0  0  0
  141.6030   75.1050  219.0350 O   0  0  0  0  0  0  0  0  0  0  0  0
  142.3250   74.0500  219.5760 C   0  0  0  0  0  0  0  0  0  0  0  0
  141.8310   72.7640  219.6650 C   0  0  0  0  0  0  0  0  0  0  0  0
  142.6350   71.7920  220.2220 C   0  0  0  0  0  0  0  0  0  0  0  0
  143.9080   72.1080  220.6800 C   0  0  0  0  0  0  0  0  0  0  0  0
  144.4180   73.3960  220.5980 C   0  0  0  0  0  0  0  0  0  0  0  0
  146.0300   73.7630  221.1840 Cl  0  0  0  0  0  0  0  0  0  0  0  0
  143.6070   74.3650  220.0380 C   0  0  0  0  0  0  0  0  0  0  0  0
  139.9810   71.6690  223.7150 C   0  0  0  0  0  0  0  0  0  0  0  0
  139.4300   70.4140  223.5070 C   0  0  0  0  0  0  0  0  0  0  0  0
  139.4140   69.4360  224.4790 C   0  0  0  0  0  0  0  0  0  0  0  0
  139.9700   69.7290  225.7060 C   0  0  0  0  0  0  0  0  0  0  0  0
  139.9500   68.7450  226.6730 C   0  0  0  0  0  0  0  0  0  0  0  0
  140.5030   69.0160  227.9120 C   0  0  0  0  0  0  0  0  0  0  0  0
  141.0490   70.2630  228.1190 C   0  0  0  0  0  0  0  0  0  0  0  0
  141.0710   71.2510  227.1530 C   0  0  0  0  0  0  0  0  0  0  0  0
  140.5190   70.9790  225.9150 C   0  0  0  0  0  0  0  0  0  0  0  0
  140.5100   71.8980  224.9320 N   0  0  0  0  0  0  0  0  0  0  0  0
  137.9180   72.4040  222.1850 H   0  0  0  0  0  0  0  0  0  0  0  0
  139.7261   73.7876  220.2775 H   0  0  0  0  0  0  0  0  0  0  0  0
  137.9345   73.8396  220.2497 H   0  0  0  0  0  0  0  0  0  0  0  0
  140.5043   76.3390  223.3483 H   0  0  0  0  0  0  0  0  0  0  0  0
  141.7970   75.7192  222.3467 H   0  0  0  0  0  0  0  0  0  0  0  0
  141.0374   78.4944  222.8687 H   0  0  0  0  0  0  0  0  0  0  0  0
  142.4407   77.9119  221.9362 H   0  0  0  0  0  0  0  0  0  0  0  0
  141.2525   78.9265  220.1386 H   0  0  0  0  0  0  0  0  0  0  0  0
  139.6525   76.8595  219.2978 H   0  0  0  0  0  0  0  0  0  0  0  0
  142.1771   77.0752  219.0168 H   0  0  0  0  0  0  0  0  0  0  0  0
  142.3215   76.1978  220.6015 H   0  0  0  0  0  0  0  0  0  0  0  0
  140.8219   72.5209  219.3009 H   0  0  0  0  0  0  0  0  0  0  0  0
  142.2658   70.7591  220.3043 H   0  0  0  0  0  0  0  0  0  0  0  0
  144.5296   71.3144  221.1203 H   0  0  0  0  0  0  0  0  0  0  0  0
  143.9749   75.3983  219.9545 H   0  0  0  0  0  0  0  0  0  0  0  0
  138.9870   70.1890  222.5256 H   0  0  0  0  0  0  0  0  0  0  0  0
  138.9699   68.4493  224.2808 H   0  0  0  0  0  0  0  0  0  0  0  0
  139.5023   67.7625  226.4626 H   0  0  0  0  0  0  0  0  0  0  0  0
  140.5064   68.2573  228.7085 H   0  0  0  0  0  0  0  0  0  0  0  0
  141.4897   70.4838  229.1024 H   0  0  0  0  0  0  0  0  0  0  0  0
  141.5184   72.2334  227.3647 H   0  0  0  0  0  0  0  0  0  0  0  0
  1  2  2  0
  2  3  1  0
  3  4  1  0
  4  5  1  0
  5  6  2  0
  5  7  1  0
  7  8  1  0
  8  9  1  0
  9 10  1  0
 10 11  1  0
 10 12  1  0
 12 13  1  0
 13 14  1  0
 14 15  1  0
 15 16  2  0
 16 17  1  0
 17 18  2  0
 18 19  1  0
 19 20  1  0
 19 21  2  0
  2 22  1  0
 22 23  2  0
 23 24  1  0
 24 25  2  0
 25 26  1  0
 26 27  2  0
 27 28  1  0
 28 29  2  0
 29 30  1  0
 30 31  2  0
 12  7  1  0
 21 15  1  0
 31 22  1  0
 30 25  1  0
  3 32  1  0
  4 33  1  0
  4 34  1  0
  8 35  1  0
  8 36  1  0
  9 37  1  0
  9 38  1  0
 10 39  1  6
 12 40  1  6
 13 41  1  0
 13 42  1  0
 16 43  1  0
 17 44  1  0
 18 45  1  0
 21 46  1  0
 23 47  1  0
 24 48  1  0
 26 49  1  0
 27 50  1  0
 28 51  1  0
 29 52  1  0
M  END
>  <smiles>  (26) 
O=C(NCC(=O)N1CC[C@H](F)[C@H]1COc1cccc(Cl)c1)c1ccc2ccccc2n1

>  <score_type>  (26) 
oracle

>  <origin>  (26) 
autodockgpu

>  <m_score__min__energy>  (26) 
-8.8200000000000003

>  <m_primary>  (26) 
energy

>  <rmsd>  (26) 
2.435597604868517

>  <m_score__min__rmsd>  (26) 
2.435597604868517

>  <meeko>  (26) 
{"free_energy": -7.56, "intermolecular_energy": -9.65, "internal_energy": -2.26, "cluster_size": 7, "cluster_id": 4, "rank_in_cluster": 7}

>  <energy>  (26) 
-7.97

>  <cluster_rmsd>  (26) 
1.98

>  <cluster>  (26) 
2

$$$$

     RDKit          3D

 52 55  0  0  0  0  0  0  0  0999 V2000
  137.4000   76.2460  222.1720 O   0  0  0  0  0  0  0  0  0  0  0  0
  138.6600   76.2880  222.3790 C   0  0  0  0  0  0  0  0  0  0  0  0
  139.4540   75.1270  222.2860 N   0  0  0  0  0  0  0  0  0  0  0  0
  138.7920   73.8770  221.9460 C   0  0  0  0  0  0  0  0  0  0  0  0
  139.7790   72.7730  222.0220 C   0  0  0  0  0  0  0  0  0  0  0  0
  140.9880   72.9470  222.3470 O   0  0  0  0  0  0  0  0  0  0  0  0
  139.3930   71.4370  221.7270 N   0  0  0  0  0  0  0  0  0  0  0  0
  140.2030   70.5340  220.9320 C   0  0  0  0  0  0  0  0  0  0  0  0
  139.1750   69.6990  220.2310 C   0  0  0  0  0  0  0  0  0  0  0  0
  137.8120   70.0980  220.7710 C   0  0  2  0  0  0  0  0  0  0  0  0
  137.1660   71.0080  219.9750 F   0  0  0  0  0  0  0  0  0  0  0  0
  138.1990   70.7110  222.1140 C   0  0  1  0  0  0  0  0  0  0  0  0
  138.6380   69.5540  222.9760 C   0  0  0  0  0  0  0  0  0  0  0  0
  139.8910   69.7880  223.5900 O   0  0  0  0  0  0  0  0  0  0  0  0
  139.9600   69.5670  224.9590 C   0  0  0  0  0  0  0  0  0  0  0  0
  139.6060   68.3710  225.5500 C   0  0  0  0  0  0  0  0  0  0  0  0
  139.7130   68.2620  226.9200 C   0  0  0  0  0  0  0  0  0  0  0  0
  140.1670   69.3340  227.6790 C   0  0  0  0  0  0  0  0  0  0  0  0
  140.5260   70.5430  227.0990 C   0  0  0  0  0  0  0  0  0  0  0  0
  141.0960   71.8770  228.0840 Cl  0  0  0  0  0  0  0  0  0  0  0  0
  140.4160   70.6450  225.7260 C   0  0  0  0  0  0  0  0  0  0  0  0
  139.2760   77.5680  222.7180 C   0  0  0  0  0  0  0  0  0  0  0  0
  138.4880   78.6650  223.0280 C   0  0  0  0  0  0  0  0  0  0  0  0
  139.0190   79.8950  223.3550 C   0  0  0  0  0  0  0  0  0  0  0  0
  140.3910   80.0290  223.3710 C   0  0  0  0  0  0  0  0  0  0  0  0
  140.9140   81.2620  223.6980 C   0  0  0  0  0  0  0  0  0  0  0  0
  142.2890   81.4200  223.7210 C   0  0  0  0  0  0  0  0  0  0  0  0
  143.0710   80.3280  223.4120 C   0  0  0  0  0  0  0  0  0  0  0  0
  142.5500   79.0910  223.0830 C   0  0  0  0  0  0  0  0  0  0  0  0
  141.1770   78.9360  223.0620 C   0  0  0  0  0  0  0  0  0  0  0  0
  140.6080   77.7560  222.7500 N   0  0  0  0  0  0  0  0  0  0  0  0
  140.4750   75.1950  222.4610 H   0  0  0  0  0  0  0  0  0  0  0  0
  137.9724   73.6887  222.6551 H   0  0  0  0  0  0  0  0  0  0  0  0
  138.3806   73.9388  220.9277 H   0  0  0  0  0  0  0  0  0  0  0  0
  140.8228   71.0876  220.2113 H   0  0  0  0  0  0  0  0  0  0  0  0
  140.9116   69.9423  221.5301 H   0  0  0  0  0  0  0  0  0  0  0  0
  139.2176   69.8833  219.1474 H   0  0  0  0  0  0  0  0  0  0  0  0
  139.3616   68.6292  220.4064 H   0  0  0  0  0  0  0  0  0  0  0  0
  137.1025   69.2595  220.8296 H   0  0  0  0  0  0  0  0  0  0  0  0
  137.4305   71.3074  222.6275 H   0  0  0  0  0  0  0  0  0  0  0  0
  137.8843   69.3913  223.7605 H   0  0  0  0  0  0  0  0  0  0  0  0
  138.7400   68.6709  222.3281 H   0  0  0  0  0  0  0  0  0  0  0  0
  139.2476   67.5263  224.9433 H   0  0  0  0  0  0  0  0  0  0  0  0
  139.4370   67.3198  227.4160 H   0  0  0  0  0  0  0  0  0  0  0  0
  140.2441   69.2212  228.7705 H   0  0  0  0  0  0  0  0  0  0  0  0
  140.6907   71.5868  225.2284 H   0  0  0  0  0  0  0  0  0  0  0  0
  137.3941   78.5499  223.0126 H   0  0  0  0  0  0  0  0  0  0  0  0
  138.3655   80.7462  223.5965 H   0  0  0  0  0  0  0  0  0  0  0  0
  140.2499   82.1059  223.9366 H   0  0  0  0  0  0  0  0  0  0  0  0
  142.7438   82.3880  223.9781 H   0  0  0  0  0  0  0  0  0  0  0  0
  144.1644   80.4470  223.4281 H   0  0  0  0  0  0  0  0  0  0  0  0
  143.2142   78.2477  222.8429 H   0  0  0  0  0  0  0  0  0  0  0  0
  1  2  2  0
  2  3  1  0
  3  4  1  0
  4  5  1  0
  5  6  2  0
  5  7  1  0
  7  8  1  0
  8  9  1  0
  9 10  1  0
 10 11  1  0
 10 12  1  0
 12 13  1  0
 13 14  1  0
 14 15  1  0
 15 16  2  0
 16 17  1  0
 17 18  2  0
 18 19  1  0
 19 20  1  0
 19 21  2  0
  2 22  1  0
 22 23  2  0
 23 24  1  0
 24 25  2  0
 25 26  1  0
 26 27  2  0
 27 28  1  0
 28 29  2  0
 29 30  1  0
 30 31  2  0
 12  7  1  0
 21 15  1  0
 31 22  1  0
 30 25  1  0
  3 32  1  0
  4 33  1  0
  4 34  1  0
  8 35  1  0
  8 36  1  0
  9 37  1  0
  9 38  1  0
 10 39  1  1
 12 40  1  1
 13 41  1  0
 13 42  1  0
 16 43  1  0
 17 44  1  0
 18 45  1  0
 21 46  1  0
 23 47  1  0
 24 48  1  0
 26 49  1  0
 27 50  1  0
 28 51  1  0
 29 52  1  0
M  END
>  <smiles>  (27) 
O=C(NCC(=O)N1CC[C@H](F)[C@H]1COc1cccc(Cl)c1)c1ccc2ccccc2n1

>  <score_type>  (27) 
oracle

>  <origin>  (27) 
autodockgpu

>  <m_score__min__energy>  (27) 
-8.8200000000000003

>  <m_primary>  (27) 
energy

>  <rmsd>  (27) 
8.269067494380318

>  <m_score__min__rmsd>  (27) 
8.269067494380318

>  <meeko>  (27) 
{"free_energy": -8.06, "intermolecular_energy": -10.14, "internal_energy": -1.99, "cluster_size": 14, "cluster_id": 1, "rank_in_cluster": 12}

>  <energy>  (27) 
-7.96

>  <cluster_rmsd>  (27) 
1.25

>  <cluster>  (27) 
2

$$$$

     RDKit          3D

 52 55  0  0  0  0  0  0  0  0999 V2000
  138.4500   70.2560  221.5400 O   0  0  0  0  0  0  0  0  0  0  0  0
  138.6440   71.2160  222.3600 C   0  0  0  0  0  0  0  0  0  0  0  0
  138.2790   72.5380  222.0370 N   0  0  0  0  0  0  0  0  0  0  0  0
  137.6720   72.7760  220.7360 C   0  0  0  0  0  0  0  0  0  0  0  0
  136.9610   74.0770  220.7660 C   0  0  0  0  0  0  0  0  0  0  0  0
  135.8710   74.2840  220.1610 O   0  0  0  0  0  0  0  0  0  0  0  0
  137.4920   75.1740  221.4980 N   0  0  0  0  0  0  0  0  0  0  0  0
  136.9190   75.6490  222.7430 C   0  0  0  0  0  0  0  0  0  0  0  0
  137.1900   77.1220  222.6890 C   0  0  0  0  0  0  0  0  0  0  0  0
  138.0280   77.3910  221.4510 C   0  0  2  0  0  0  0  0  0  0  0  0
  137.2830   77.8030  220.3780 F   0  0  0  0  0  0  0  0  0  0  0  0
  138.6390   76.0130  221.2070 C   0  0  1  0  0  0  0  0  0  0  0  0
  139.6370   75.8100  222.3190 C   0  0  0  0  0  0  0  0  0  0  0  0
  140.2120   74.5180  222.2940 O   0  0  0  0  0  0  0  0  0  0  0  0
  141.2870   74.3350  221.4340 C   0  0  0  0  0  0  0  0  0  0  0  0
  141.9370   75.3790  220.8070 C   0  0  0  0  0  0  0  0  0  0  0  0
  142.9930   75.0820  219.9720 C   0  0  0  0  0  0  0  0  0  0  0  0
  143.3870   73.7650  219.7740 C   0  0  0  0  0  0  0  0  0  0  0  0
  142.7430   72.7050  220.3970 C   0  0  0  0  0  0  0  0  0  0  0  0
  143.2640   71.0520  220.1270 Cl  0  0  0  0  0  0  0  0  0  0  0  0
  141.6850   73.0090  221.2320 C   0  0  0  0  0  0  0  0  0  0  0  0
  139.2570   70.9240  223.6530 C   0  0  0  0  0  0  0  0  0  0  0  0
  140.1530   71.8150  224.2220 C   0  0  0  0  0  0  0  0  0  0  0  0
  140.7590   71.5880  225.4400 C   0  0  0  0  0  0  0  0  0  0  0  0
  140.4550   70.4220  226.1100 C   0  0  0  0  0  0  0  0  0  0  0  0
  141.0660   70.2010  227.3280 C   0  0  0  0  0  0  0  0  0  0  0  0
  140.7750   69.0380  228.0190 C   0  0  0  0  0  0  0  0  0  0  0  0
  139.8850   68.1530  227.4520 C   0  0  0  0  0  0  0  0  0  0  0  0
  139.2710   68.3700  226.2330 C   0  0  0  0  0  0  0  0  0  0  0  0
  139.5620   69.5330  225.5440 C   0  0  0  0  0  0  0  0  0  0  0  0
  138.9970   69.8030  224.3530 N   0  0  0  0  0  0  0  0  0  0  0  0
  138.4500   73.2960  222.7260 H   0  0  0  0  0  0  0  0  0  0  0  0
  138.4542   72.8009  219.9630 H   0  0  0  0  0  0  0  0  0  0  0  0
  136.9612   71.9691  220.5042 H   0  0  0  0  0  0  0  0  0  0  0  0
  135.8388   75.4456  222.7857 H   0  0  0  0  0  0  0  0  0  0  0  0
  137.3415   75.1596  223.6329 H   0  0  0  0  0  0  0  0  0  0  0  0
  136.2415   77.6756  222.6272 H   0  0  0  0  0  0  0  0  0  0  0  0
  137.7225   77.4497  223.5940 H   0  0  0  0  0  0  0  0  0  0  0  0
  138.7553   78.2053  221.5850 H   0  0  0  0  0  0  0  0  0  0  0  0
  139.1108   75.8441  220.2278 H   0  0  0  0  0  0  0  0  0  0  0  0
  140.4386   76.5562  222.2157 H   0  0  0  0  0  0  0  0  0  0  0  0
  139.1041   75.9231  223.2746 H   0  0  0  0  0  0  0  0  0  0  0  0
  141.6208   76.4200  220.9693 H   0  0  0  0  0  0  0  0  0  0  0  0
  143.5278   75.8946  219.4585 H   0  0  0  0  0  0  0  0  0  0  0  0
  144.2340   73.5559  219.1040 H   0  0  0  0  0  0  0  0  0  0  0  0
  141.1482   72.1974  221.7450 H   0  0  0  0  0  0  0  0  0  0  0  0
  140.3908   72.7420  223.6796 H   0  0  0  0  0  0  0  0  0  0  0  0
  141.4650   72.3167  225.8649 H   0  0  0  0  0  0  0  0  0  0  0  0
  141.7716   70.9364  227.7419 H   0  0  0  0  0  0  0  0  0  0  0  0
  141.2409   68.8265  228.9927 H   0  0  0  0  0  0  0  0  0  0  0  0
  139.6510   67.2266  227.9969 H   0  0  0  0  0  0  0  0  0  0  0  0
  138.5661   67.6335  225.8199 H   0  0  0  0  0  0  0  0  0  0  0  0
  1  2  2  0
  2  3  1  0
  3  4  1  0
  4  5  1  0
  5  6  2  0
  5  7  1  0
  7  8  1  0
  8  9  1  0
  9 10  1  0
 10 11  1  0
 10 12  1  0
 12 13  1  0
 13 14  1  0
 14 15  1  0
 15 16  2  0
 16 17  1  0
 17 18  2  0
 18 19  1  0
 19 20  1  0
 19 21  2  0
  2 22  1  0
 22 23  2  0
 23 24  1  0
 24 25  2  0
 25 26  1  0
 26 27  2  0
 27 28  1  0
 28 29  2  0
 29 30  1  0
 30 31  2  0
 12  7  1  0
 21 15  1  0
 31 22  1  0
 30 25  1  0
  3 32  1  0
  4 33  1  0
  4 34  1  0
  8 35  1  0
  8 36  1  0
  9 37  1  0
  9 38  1  0
 10 39  1  1
 12 40  1  6
 13 41  1  0
 13 42  1  0
 16 43  1  0
 17 44  1  0
 18 45  1  0
 21 46  1  0
 23 47  1  0
 24 48  1  0
 26 49  1  0
 27 50  1  0
 28 51  1  0
 29 52  1  0
M  END
>  <smiles>  (28) 
O=C(NCC(=O)N1CC[C@H](F)[C@H]1COc1cccc(Cl)c1)c1ccc2ccccc2n1

>  <score_type>  (28) 
oracle

>  <origin>  (28) 
autodockgpu

>  <m_score__min__energy>  (28) 
-8.8200000000000003

>  <m_primary>  (28) 
energy

>  <rmsd>  (28) 
3.64455501572452

>  <m_score__min__rmsd>  (28) 
3.64455501572452

>  <meeko>  (28) 
{"free_energy": -7.06, "intermolecular_energy": -9.15, "internal_energy": -2.77, "cluster_size": 2, "cluster_id": 6, "rank_in_cluster": 1}

>  <energy>  (28) 
-7.89

>  <cluster_rmsd>  (28) 
1.65

>  <cluster>  (28) 
2

$$$$

     RDKit          3D

 52 55  0  0  0  0  0  0  0  0999 V2000
  137.1980   76.5920  222.4200 O   0  0  0  0  0  0  0  0  0  0  0  0
  138.4740   76.5870  222.3530 C   0  0  0  0  0  0  0  0  0  0  0  0
  139.1780   75.4420  221.9290 N   0  0  0  0  0  0  0  0  0  0  0  0
  138.4040   74.2630  221.5700 C   0  0  0  0  0  0  0  0  0  0  0  0
  139.1330   73.0530  222.0210 C   0  0  0  0  0  0  0  0  0  0  0  0
  140.3950   72.9810  222.0640 O   0  0  0  0  0  0  0  0  0  0  0  0
  138.4230   71.8940  222.4350 N   0  0  0  0  0  0  0  0  0  0  0  0
  137.6240   71.0870  221.5320 C   0  0  0  0  0  0  0  0  0  0  0  0
  136.5180   70.5980  222.4170 C   0  0  0  0  0  0  0  0  0  0  0  0
  136.8220   71.0610  223.8320 C   0  0  2  0  0  0  0  0  0  0  0  0
  136.1650   72.2150  224.1720 F   0  0  0  0  0  0  0  0  0  0  0  0
  138.3300   71.2840  223.7480 C   0  0  1  0  0  0  0  0  0  0  0  0
  138.9370   69.9070  223.6470 C   0  0  0  0  0  0  0  0  0  0  0  0
  140.2950   69.8900  224.0460 O   0  0  0  0  0  0  0  0  0  0  0  0
  140.5570   70.2530  225.3610 C   0  0  0  0  0  0  0  0  0  0  0  0
  140.7160   71.5630  225.7650 C   0  0  0  0  0  0  0  0  0  0  0  0
  140.9740   71.8080  227.0970 C   0  0  0  0  0  0  0  0  0  0  0  0
  141.0710   70.7590  228.0020 C   0  0  0  0  0  0  0  0  0  0  0  0
  140.9140   69.4360  227.6100 C   0  0  0  0  0  0  0  0  0  0  0  0
  141.0410   68.1330  228.7760 Cl  0  0  0  0  0  0  0  0  0  0  0  0
  140.6550   69.1970  226.2740 C   0  0  0  0  0  0  0  0  0  0  0  0
  139.2030   77.7960  222.7250 C   0  0  0  0  0  0  0  0  0  0  0  0
  138.5180   78.9400  223.1040 C   0  0  0  0  0  0  0  0  0  0  0  0
  139.1590   80.1070  223.4650 C   0  0  0  0  0  0  0  0  0  0  0  0
  140.5380   80.1260  223.4430 C   0  0  0  0  0  0  0  0  0  0  0  0
  141.1700   81.2970  223.8040 C   0  0  0  0  0  0  0  0  0  0  0  0
  142.5540   81.3400  223.7900 C   0  0  0  0  0  0  0  0  0  0  0  0
  143.2330   80.2030  223.4130 C   0  0  0  0  0  0  0  0  0  0  0  0
  142.6020   79.0280  223.0500 C   0  0  0  0  0  0  0  0  0  0  0  0
  141.2210   78.9870  223.0650 C   0  0  0  0  0  0  0  0  0  0  0  0
  140.5470   77.8730  222.7230 N   0  0  0  0  0  0  0  0  0  0  0  0
  140.2150   75.4710  221.8860 H   0  0  0  0  0  0  0  0  0  0  0  0
  137.4197   74.3046  222.0593 H   0  0  0  0  0  0  0  0  0  0  0  0
  138.2632   74.2280  220.4796 H   0  0  0  0  0  0  0  0  0  0  0  0
  137.2298   71.6925  220.7026 H   0  0  0  0  0  0  0  0  0  0  0  0
  138.1919   70.2749  221.0544 H   0  0  0  0  0  0  0  0  0  0  0  0
  135.5575   71.0176  222.0834 H   0  0  0  0  0  0  0  0  0  0  0  0
  136.4477   69.5010  222.3766 H   0  0  0  0  0  0  0  0  0  0  0  0
  136.4996   70.3466  224.6038 H   0  0  0  0  0  0  0  0  0  0  0  0
  138.7950   71.8537  224.5661 H   0  0  0  0  0  0  0  0  0  0  0  0
  138.3694   69.2215  224.2934 H   0  0  0  0  0  0  0  0  0  0  0  0
  138.8910   69.5945  222.5933 H   0  0  0  0  0  0  0  0  0  0  0  0
  140.6389   72.3897  225.0435 H   0  0  0  0  0  0  0  0  0  0  0  0
  141.1041   72.8431  227.4459 H   0  0  0  0  0  0  0  0  0  0  0  0
  141.2780   70.9824  229.0590 H   0  0  0  0  0  0  0  0  0  0  0  0
  140.5241   68.1627  225.9233 H   0  0  0  0  0  0  0  0  0  0  0  0
  137.4183   78.9163  223.1175 H   0  0  0  0  0  0  0  0  0  0  0  0
  138.5862   80.9978  223.7622 H   0  0  0  0  0  0  0  0  0  0  0  0
  140.5853   82.1812  224.0979 H   0  0  0  0  0  0  0  0  0  0  0  0
  143.0950   82.2554  224.0717 H   0  0  0  0  0  0  0  0  0  0  0  0
  144.3326   80.2312  223.4000 H   0  0  0  0  0  0  0  0  0  0  0  0
  143.1869   78.1442  222.7554 H   0  0  0  0  0  0  0  0  0  0  0  0
  1  2  2  0
  2  3  1  0
  3  4  1  0
  4  5  1  0
  5  6  2  0
  5  7  1  0
  7  8  1  0
  8  9  1  0
  9 10  1  0
 10 11  1  0
 10 12  1  0
 12 13  1  0
 13 14  1  0
 14 15  1  0
 15 16  2  0
 16 17  1  0
 17 18  2  0
 18 19  1  0
 19 20  1  0
 19 21  2  0
  2 22  1  0
 22 23  2  0
 23 24  1  0
 24 25  2  0
 25 26  1  0
 26 27  2  0
 27 28  1  0
 28 29  2  0
 29 30  1  0
 30 31  2  0
 12  7  1  0
 21 15  1  0
 31 22  1  0
 30 25  1  0
  3 32  1  0
  4 33  1  0
  4 34  1  0
  8 35  1  0
  8 36  1  0
  9 37  1  0
  9 38  1  0
 10 39  1  1
 12 40  1  1
 13 41  1  0
 13 42  1  0
 16 43  1  0
 17 44  1  0
 18 45  1  0
 21 46  1  0
 23 47  1  0
 24 48  1  0
 26 49  1  0
 27 50  1  0
 28 51  1  0
 29 52  1  0
M  END
>  <smiles>  (29) 
O=C(NCC(=O)N1CC[C@H](F)[C@H]1COc1cccc(Cl)c1)c1ccc2ccccc2n1

>  <score_type>  (29) 
oracle

>  <origin>  (29) 
autodockgpu

>  <m_score__min__energy>  (29) 
-8.8200000000000003

>  <m_primary>  (29) 
energy

>  <rmsd>  (29) 
8.386711770970813

>  <m_score__min__rmsd>  (29) 
8.386711770970813

>  <meeko>  (29) 
{"free_energy": -8.28, "intermolecular_energy": -10.36, "internal_energy": -1.8, "cluster_size": 14, "cluster_id": 1, "rank_in_cluster": 10}

>  <energy>  (29) 
-7.83

>  <cluster_rmsd>  (29) 
1.69

>  <cluster>  (29) 
2

$$$$

     RDKit          3D

 52 55  0  0  0  0  0  0  0  0999 V2000
  137.5470   76.1070  222.5170 O   0  0  0  0  0  0  0  0  0  0  0  0
  138.7810   76.3240  222.2670 C   0  0  0  0  0  0  0  0  0  0  0  0
  139.5740   75.3630  221.6100 N   0  0  0  0  0  0  0  0  0  0  0  0
  138.9410   74.1110  221.2220 C   0  0  0  0  0  0  0  0  0  0  0  0
  139.4400   73.0260  222.1010 C   0  0  0  0  0  0  0  0  0  0  0  0
  140.5650   73.0660  222.6770 O   0  0  0  0  0  0  0  0  0  0  0  0
  138.6520   71.8680  222.3380 N   0  0  0  0  0  0  0  0  0  0  0  0
  138.2880   70.9280  221.2940 C   0  0  0  0  0  0  0  0  0  0  0  0
  136.9360   70.4540  221.7340 C   0  0  0  0  0  0  0  0  0  0  0  0
  136.6530   71.0680  223.0950 C   0  0  2  0  0  0  0  0  0  0  0  0
  135.8890   72.2040  223.0220 F   0  0  0  0  0  0  0  0  0  0  0  0
  138.0680   71.3810  223.5730 C   0  0  1  0  0  0  0  0  0  0  0  0
  138.7000   70.0440  223.8710 C   0  0  0  0  0  0  0  0  0  0  0  0
  140.0840   70.1540  224.1430 O   0  0  0  0  0  0  0  0  0  0  0  0
  140.4350   70.4530  225.4530 C   0  0  0  0  0  0  0  0  0  0  0  0
  140.7090   71.7350  225.8870 C   0  0  0  0  0  0  0  0  0  0  0  0
  141.0480   71.9170  227.2110 C   0  0  0  0  0  0  0  0  0  0  0  0
  141.1100   70.8340  228.0780 C   0  0  0  0  0  0  0  0  0  0  0  0
  140.8360   69.5400  227.6570 C   0  0  0  0  0  0  0  0  0  0  0  0
  140.9220   68.1930  228.7770 Cl  0  0  0  0  0  0  0  0  0  0  0  0
  140.4970   69.3640  226.3290 C   0  0  0  0  0  0  0  0  0  0  0  0
  139.3680   77.5970  222.6780 C   0  0  0  0  0  0  0  0  0  0  0  0
  138.5580   78.6430  223.0910 C   0  0  0  0  0  0  0  0  0  0  0  0
  139.0620   79.8630  223.4890 C   0  0  0  0  0  0  0  0  0  0  0  0
  140.4290   80.0410  223.4700 C   0  0  0  0  0  0  0  0  0  0  0  0
  140.9240   81.2650  223.8690 C   0  0  0  0  0  0  0  0  0  0  0  0
  142.2940   81.4660  223.8590 C   0  0  0  0  0  0  0  0  0  0  0  0
  143.0980   80.4260  223.4470 C   0  0  0  0  0  0  0  0  0  0  0  0
  142.6050   79.1980  223.0470 C   0  0  0  0  0  0  0  0  0  0  0  0
  141.2370   78.9990  223.0590 C   0  0  0  0  0  0  0  0  0  0  0  0
  140.6950   77.8260  222.6810 N   0  0  0  0  0  0  0  0  0  0  0  0
  140.5740   75.5710  221.4220 H   0  0  0  0  0  0  0  0  0  0  0  0
  137.8499   74.2004  221.3294 H   0  0  0  0  0  0  0  0  0  0  0  0
  139.1825   73.8813  220.1737 H   0  0  0  0  0  0  0  0  0  0  0  0
  138.2346   71.4248  220.3140 H   0  0  0  0  0  0  0  0  0  0  0  0
  139.0161   70.1133  221.1670 H   0  0  0  0  0  0  0  0  0  0  0  0
  136.1721   70.7764  221.0111 H   0  0  0  0  0  0  0  0  0  0  0  0
  136.9128   69.3559  221.7938 H   0  0  0  0  0  0  0  0  0  0  0  0
  136.0722   70.4105  223.7586 H   0  0  0  0  0  0  0  0  0  0  0  0
  138.1623   72.0557  224.4367 H   0  0  0  0  0  0  0  0  0  0  0  0
  138.2010   69.6041  224.7471 H   0  0  0  0  0  0  0  0  0  0  0  0
  138.5810   69.4091  222.9806 H   0  0  0  0  0  0  0  0  0  0  0  0
  140.6582   72.5884  225.1948 H   0  0  0  0  0  0  0  0  0  0  0  0
  141.2710   72.9277  227.5834 H   0  0  0  0  0  0  0  0  0  0  0  0
  141.3843   71.0066  229.1292 H   0  0  0  0  0  0  0  0  0  0  0  0
  140.2728   68.3539  225.9556 H   0  0  0  0  0  0  0  0  0  0  0  0
  137.4682   78.4937  223.1017 H   0  0  0  0  0  0  0  0  0  0  0  0
  138.3915   80.6726  223.8130 H   0  0  0  0  0  0  0  0  0  0  0  0
  140.2427   82.0670  224.1894 H   0  0  0  0  0  0  0  0  0  0  0  0
  142.7275   82.4277  224.1708 H   0  0  0  0  0  0  0  0  0  0  0  0
  144.1870   80.5805  223.4358 H   0  0  0  0  0  0  0  0  0  0  0  0
  143.2865   78.3964  222.7261 H   0  0  0  0  0  0  0  0  0  0  0  0
  1  2  2  0
  2  3  1  0
  3  4  1  0
  4  5  1  0
  5  6  2  0
  5  7  1  0
  7  8  1  0
  8  9  1  0
  9 10  1  0
 10 11  1  0
 10 12  1  0
 12 13  1  0
 13 14  1  0
 14 15  1  0
 15 16  2  0
 16 17  1  0
 17 18  2  0
 18 19  1  0
 19 20  1  0
 19 21  2  0
  2 22  1  0
 22 23  2  0
 23 24  1  0
 24 25  2  0
 25 26  1  0
 26 27  2  0
 27 28  1  0
 28 29  2  0
 29 30  1  0
 30 31  2  0
 12  7  1  0
 21 15  1  0
 31 22  1  0
 30 25  1  0
  3 32  1  0
  4 33  1  0
  4 34  1  0
  8 35  1  0
  8 36  1  0
  9 37  1  0
  9 38  1  0
 10 39  1  1
 12 40  1  1
 13 41  1  0
 13 42  1  0
 16 43  1  0
 17 44  1  0
 18 45  1  0
 21 46  1  0
 23 47  1  0
 24 48  1  0
 26 49  1  0
 27 50  1  0
 28 51  1  0
 29 52  1  0
M  END
>  <smiles>  (30) 
O=C(NCC(=O)N1CC[C@H](F)[C@H]1COc1cccc(Cl)c1)c1ccc2ccccc2n1

>  <score_type>  (30) 
oracle

>  <origin>  (30) 
autodockgpu

>  <m_score__min__energy>  (30) 
-8.8200000000000003

>  <m_primary>  (30) 
energy

>  <rmsd>  (30) 
8.310649080554805

>  <m_score__min__rmsd>  (30) 
8.310649080554805

>  <meeko>  (30) 
{"free_energy": -8.51, "intermolecular_energy": -10.6, "internal_energy": -1.74, "cluster_size": 14, "cluster_id": 1, "rank_in_cluster": 3}

>  <energy>  (30) 
-7.54

>  <cluster_rmsd>  (30) 
1.82

>  <cluster>  (30) 
2

$$$$

     RDKit          3D

 52 55  0  0  0  0  0  0  0  0999 V2000
  139.9720   73.4630  222.3550 O   0  0  0  0  0  0  0  0  0  0  0  0
  140.3450   72.2430  222.4070 C   0  0  0  0  0  0  0  0  0  0  0  0
  140.9070   71.6020  221.2840 N   0  0  0  0  0  0  0  0  0  0  0  0
  141.0500   72.3780  220.0620 C   0  0  0  0  0  0  0  0  0  0  0  0
  141.9750   73.5100  220.3150 C   0  0  0  0  0  0  0  0  0  0  0  0
  143.1710   73.3540  220.6960 O   0  0  0  0  0  0  0  0  0  0  0  0
  141.5420   74.8510  220.1320 N   0  0  0  0  0  0  0  0  0  0  0  0
  140.8030   75.2950  218.9660 C   0  0  0  0  0  0  0  0  0  0  0  0
  141.2760   76.7060  218.7930 C   0  0  0  0  0  0  0  0  0  0  0  0
  142.1840   77.0340  219.9660 C   0  0  2  0  0  0  0  0  0  0  0  0
  143.5140   76.8800  219.6750 F   0  0  0  0  0  0  0  0  0  0  0  0
  141.7170   76.0060  220.9930 C   0  0  1  0  0  0  0  0  0  0  0  0
  140.3430   76.4570  221.4220 C   0  0  0  0  0  0  0  0  0  0  0  0
  140.3550   77.0740  222.6950 O   0  0  0  0  0  0  0  0  0  0  0  0
  141.0350   78.2810  222.7910 C   0  0  0  0  0  0  0  0  0  0  0  0
  141.8930   78.5830  223.8300 C   0  0  0  0  0  0  0  0  0  0  0  0
  142.5160   79.8130  223.8250 C   0  0  0  0  0  0  0  0  0  0  0  0
  142.2810   80.7180  222.7980 C   0  0  0  0  0  0  0  0  0  0  0  0
  141.4210   80.4290  221.7470 C   0  0  0  0  0  0  0  0  0  0  0  0
  141.1460   81.5930  220.4650 Cl  0  0  0  0  0  0  0  0  0  0  0  0
  140.8000   79.1940  221.7580 C   0  0  0  0  0  0  0  0  0  0  0  0
  140.1790   71.5090  223.6580 C   0  0  0  0  0  0  0  0  0  0  0  0
  139.4450   70.3330  223.6910 C   0  0  0  0  0  0  0  0  0  0  0  0
  139.2580   69.6030  224.8460 C   0  0  0  0  0  0  0  0  0  0  0  0
  139.8280   70.0700  226.0110 C   0  0  0  0  0  0  0  0  0  0  0  0
  139.6370   69.3340  227.1610 C   0  0  0  0  0  0  0  0  0  0  0  0
  140.2000   69.7830  228.3430 C   0  0  0  0  0  0  0  0  0  0  0  0
  140.9290   70.9520  228.3100 C   0  0  0  0  0  0  0  0  0  0  0  0
  141.1230   71.6920  227.1590 C   0  0  0  0  0  0  0  0  0  0  0  0
  140.5600   71.2410  225.9800 C   0  0  0  0  0  0  0  0  0  0  0  0
  140.7130   71.9170  224.8250 N   0  0  0  0  0  0  0  0  0  0  0  0
  141.2010   70.6090  221.3600 H   0  0  0  0  0  0  0  0  0  0  0  0
  141.4581   71.7392  219.2649 H   0  0  0  0  0  0  0  0  0  0  0  0
  140.0683   72.7628  219.7487 H   0  0  0  0  0  0  0  0  0  0  0  0
  141.0480   74.6838  218.0849 H   0  0  0  0  0  0  0  0  0  0  0  0
  139.7124   75.2118  219.0830 H   0  0  0  0  0  0  0  0  0  0  0  0
  141.8331   76.8017  217.8494 H   0  0  0  0  0  0  0  0  0  0  0  0
  140.4218   77.3983  218.7608 H   0  0  0  0  0  0  0  0  0  0  0  0
  142.1139   78.0822  220.2921 H   0  0  0  0  0  0  0  0  0  0  0  0
  142.3640   75.8485  221.8685 H   0  0  0  0  0  0  0  0  0  0  0  0
  139.9600   77.1766  220.6834 H   0  0  0  0  0  0  0  0  0  0  0  0
  139.7003   75.5665  221.4850 H   0  0  0  0  0  0  0  0  0  0  0  0
  142.0746   77.8614  224.6401 H   0  0  0  0  0  0  0  0  0  0  0  0
  143.2044   80.0795  224.6406 H   0  0  0  0  0  0  0  0  0  0  0  0
  142.7912   81.6923  222.8179 H   0  0  0  0  0  0  0  0  0  0  0  0
  140.1116   78.9257  220.9431 H   0  0  0  0  0  0  0  0  0  0  0  0
  138.9932   69.9672  222.7572 H   0  0  0  0  0  0  0  0  0  0  0  0
  138.6700   68.6734  224.8378 H   0  0  0  0  0  0  0  0  0  0  0  0
  139.0472   68.4057  227.1395 H   0  0  0  0  0  0  0  0  0  0  0  0
  140.0694   69.2233  229.2809 H   0  0  0  0  0  0  0  0  0  0  0  0
  141.3788   71.3141  229.2462 H   0  0  0  0  0  0  0  0  0  0  0  0
  141.7129   72.6202  227.1807 H   0  0  0  0  0  0  0  0  0  0  0  0
  1  2  2  0
  2  3  1  0
  3  4  1  0
  4  5  1  0
  5  6  2  0
  5  7  1  0
  7  8  1  0
  8  9  1  0
  9 10  1  0
 10 11  1  0
 10 12  1  0
 12 13  1  0
 13 14  1  0
 14 15  1  0
 15 16  2  0
 16 17  1  0
 17 18  2  0
 18 19  1  0
 19 20  1  0
 19 21  2  0
  2 22  1  0
 22 23  2  0
 23 24  1  0
 24 25  2  0
 25 26  1  0
 26 27  2  0
 27 28  1  0
 28 29  2  0
 29 30  1  0
 30 31  2  0
 12  7  1  0
 21 15  1  0
 31 22  1  0
 30 25  1  0
  3 32  1  0
  4 33  1  0
  4 34  1  0
  8 35  1  0
  8 36  1  0
  9 37  1  0
  9 38  1  0
 10 39  1  1
 12 40  1  1
 13 41  1  0
 13 42  1  0
 16 43  1  0
 17 44  1  0
 18 45  1  0
 21 46  1  0
 23 47  1  0
 24 48  1  0
 26 49  1  0
 27 50  1  0
 28 51  1  0
 29 52  1  0
M  END
>  <smiles>  (31) 
O=C(NCC(=O)N1CC[C@H](F)[C@H]1COc1cccc(Cl)c1)c1ccc2ccccc2n1

>  <score_type>  (31) 
oracle

>  <origin>  (31) 
autodockgpu

>  <m_score__min__energy>  (31) 
-8.8200000000000003

>  <m_primary>  (31) 
energy

>  <rmsd>  (31) 
2.184219956053248

>  <m_score__min__rmsd>  (31) 
2.184219956053248

>  <meeko>  (31) 
{"free_energy": -8.47, "intermolecular_energy": -10.56, "internal_energy": -1.51, "cluster_size": 18, "cluster_id": 2, "rank_in_cluster": 7}

>  <energy>  (31) 
-7.5

>  <cluster_rmsd>  (31) 
1.7

>  <cluster>  (31) 
2

$$$$

     RDKit          3D

 52 55  0  0  0  0  0  0  0  0999 V2000
  138.6850   75.4780  221.9490 O   0  0  0  0  0  0  0  0  0  0  0  0
  139.8950   75.8880  221.9790 C   0  0  0  0  0  0  0  0  0  0  0  0
  140.9610   75.0490  221.5980 N   0  0  0  0  0  0  0  0  0  0  0  0
  140.6390   73.6970  221.1680 C   0  0  0  0  0  0  0  0  0  0  0  0
  141.9010   72.9480  220.9510 C   0  0  0  0  0  0  0  0  0  0  0  0
  142.1230   71.8080  221.4500 O   0  0  0  0  0  0  0  0  0  0  0  0
  142.9380   73.4970  220.1490 N   0  0  0  0  0  0  0  0  0  0  0  0
  142.9120   73.4840  218.6990 C   0  0  0  0  0  0  0  0  0  0  0  0
  144.3620   73.3570  218.3430 C   0  0  0  0  0  0  0  0  0  0  0  0
  145.1600   73.4310  219.6350 C   0  0  2  0  0  0  0  0  0  0  0  0
  145.4930   72.1970  220.1310 F   0  0  0  0  0  0  0  0  0  0  0  0
  144.1710   74.1490  220.5490 C   0  0  1  0  0  0  0  0  0  0  0  0
  144.1110   75.5690  220.0440 C   0  0  0  0  0  0  0  0  0  0  0  0
  142.7810   76.0350  219.9130 O   0  0  0  0  0  0  0  0  0  0  0  0
  142.5930   77.1480  219.1040 C   0  0  0  0  0  0  0  0  0  0  0  0
  142.8350   77.1440  217.7450 C   0  0  0  0  0  0  0  0  0  0  0  0
  142.6140   78.3080  217.0400 C   0  0  0  0  0  0  0  0  0  0  0  0
  142.1600   79.4500  217.6870 C   0  0  0  0  0  0  0  0  0  0  0  0
  141.9120   79.4690  219.0520 C   0  0  0  0  0  0  0  0  0  0  0  0
  141.3380   80.9270  219.8410 Cl  0  0  0  0  0  0  0  0  0  0  0  0
  142.1360   78.3000  219.7540 C   0  0  0  0  0  0  0  0  0  0  0  0
  140.1630   77.2540  222.4200 C   0  0  0  0  0  0  0  0  0  0  0  0
  139.1180   78.1150  222.7150 C   0  0  0  0  0  0  0  0  0  0  0  0
  139.3170   79.4140  223.1350 C   0  0  0  0  0  0  0  0  0  0  0  0
  140.6140   79.8650  223.2610 C   0  0  0  0  0  0  0  0  0  0  0  0
  140.8050   81.1650  223.6810 C   0  0  0  0  0  0  0  0  0  0  0  0
  142.0980   81.6400  223.8160 C   0  0  0  0  0  0  0  0  0  0  0  0
  143.1360   80.7830  223.5220 C   0  0  0  0  0  0  0  0  0  0  0  0
  142.9490   79.4800  223.1010 C   0  0  0  0  0  0  0  0  0  0  0  0
  141.6570   79.0080  222.9670 C   0  0  0  0  0  0  0  0  0  0  0  0
  141.4080   77.7490  222.5620 N   0  0  0  0  0  0  0  0  0  0  0  0
  141.9320   75.4130  221.6340 H   0  0  0  0  0  0  0  0  0  0  0  0
  140.0408   73.1957  221.9431 H   0  0  0  0  0  0  0  0  0  0  0  0
  140.0607   73.7313  220.2329 H   0  0  0  0  0  0  0  0  0  0  0  0
  142.3345   72.6277  218.3206 H   0  0  0  0  0  0  0  0  0  0  0  0
  142.4326   74.3732  218.2637 H   0  0  0  0  0  0  0  0  0  0  0  0
  144.5430   72.3931  217.8449 H   0  0  0  0  0  0  0  0  0  0  0  0
  144.6633   74.1614  217.6559 H   0  0  0  0  0  0  0  0  0  0  0  0
  146.1328   73.9312  219.5190 H   0  0  0  0  0  0  0  0  0  0  0  0
  144.3864   74.1297  221.6275 H   0  0  0  0  0  0  0  0  0  0  0  0
  144.6460   76.2194  220.7517 H   0  0  0  0  0  0  0  0  0  0  0  0
  144.5763   75.5926  219.0476 H   0  0  0  0  0  0  0  0  0  0  0  0
  143.1946   76.2364  217.2381 H   0  0  0  0  0  0  0  0  0  0  0  0
  142.7988   78.3324  215.9559 H   0  0  0  0  0  0  0  0  0  0  0  0
  141.9923   80.3654  217.1006 H   0  0  0  0  0  0  0  0  0  0  0  0
  141.9526   78.2746  220.8383 H   0  0  0  0  0  0  0  0  0  0  0  0
  138.0866   77.7473  222.6099 H   0  0  0  0  0  0  0  0  0  0  0  0
  138.4650   80.0714  223.3629 H   0  0  0  0  0  0  0  0  0  0  0  0
  139.9446   81.8129  223.9047 H   0  0  0  0  0  0  0  0  0  0  0  0
  142.2911   82.6708  224.1480 H   0  0  0  0  0  0  0  0  0  0  0  0
  144.1659   81.1548  223.6277 H   0  0  0  0  0  0  0  0  0  0  0  0
  143.8098   78.8327  222.8774 H   0  0  0  0  0  0  0  0  0  0  0  0
  1  2  2  0
  2  3  1  0
  3  4  1  0
  4  5  1  0
  5  6  2  0
  5  7  1  0
  7  8  1  0
  8  9  1  0
  9 10  1  0
 10 11  1  0
 10 12  1  0
 12 13  1  0
 13 14  1  0
 14 15  1  0
 15 16  2  0
 16 17  1  0
 17 18  2  0
 18 19  1  0
 19 20  1  0
 19 21  2  0
  2 22  1  0
 22 23  2  0
 23 24  1  0
 24 25  2  0
 25 26  1  0
 26 27  2  0
 27 28  1  0
 28 29  2  0
 29 30  1  0
 30 31  2  0
 12  7  1  0
 21 15  1  0
 31 22  1  0
 30 25  1  0
  3 32  1  0
  4 33  1  0
  4 34  1  0
  8 35  1  0
  8 36  1  0
  9 37  1  0
  9 38  1  0
 10 39  1  6
 12 40  1  1
 13 41  1  0
 13 42  1  0
 16 43  1  0
 17 44  1  0
 18 45  1  0
 21 46  1  0
 23 47  1  0
 24 48  1  0
 26 49  1  0
 27 50  1  0
 28 51  1  0
 29 52  1  0
M  END
>  <smiles>  (32) 
O=C(NCC(=O)N1CC[C@H](F)[C@H]1COc1cccc(Cl)c1)c1ccc2ccccc2n1

>  <score_type>  (32) 
oracle

>  <origin>  (32) 
autodockgpu

>  <m_score__min__energy>  (32) 
-8.8200000000000003

>  <m_primary>  (32) 
energy

>  <rmsd>  (32) 
7.579896944010373

>  <m_score__min__rmsd>  (32) 
7.579896944010373

>  <meeko>  (32) 
{"free_energy": -6.89, "intermolecular_energy": -8.98, "internal_energy": -3.55, "cluster_size": 3, "cluster_id": 7, "rank_in_cluster": 1}

>  <energy>  (32) 
-7.45

>  <cluster_rmsd>  (32) 
1.66

>  <cluster>  (32) 
2

$$$$

     RDKit          3D

 52 55  0  0  0  0  0  0  0  0999 V2000
  140.4290   71.2690  221.3140 O   0  0  0  0  0  0  0  0  0  0  0  0
  140.1010   71.9000  222.3750 C   0  0  0  0  0  0  0  0  0  0  0  0
  139.8040   73.2770  222.3440 N   0  0  0  0  0  0  0  0  0  0  0  0
  139.8850   73.9600  221.0620 C   0  0  0  0  0  0  0  0  0  0  0  0
  140.5970   75.2480  221.2450 C   0  0  0  0  0  0  0  0  0  0  0  0
  140.6170   75.8770  222.3420 O   0  0  0  0  0  0  0  0  0  0  0  0
  141.3050   75.8420  220.1660 N   0  0  0  0  0  0  0  0  0  0  0  0
  141.2050   75.3740  218.7970 C   0  0  0  0  0  0  0  0  0  0  0  0
  142.5740   75.6470  218.2530 C   0  0  0  0  0  0  0  0  0  0  0  0
  143.3560   76.3850  219.3270 C   0  0  2  0  0  0  0  0  0  0  0  0
  144.1550   75.5570  220.0720 F   0  0  0  0  0  0  0  0  0  0  0  0
  142.2230   76.9660  220.1670 C   0  0  1  0  0  0  0  0  0  0  0  0
  141.6050   78.0500  219.3190 C   0  0  0  0  0  0  0  0  0  0  0  0
  140.3690   78.4990  219.8400 O   0  0  0  0  0  0  0  0  0  0  0  0
  140.3420   78.7980  221.1960 C   0  0  0  0  0  0  0  0  0  0  0  0
  139.2640   78.5140  222.0100 C   0  0  0  0  0  0  0  0  0  0  0  0
  139.3450   78.8560  223.3440 C   0  0  0  0  0  0  0  0  0  0  0  0
  140.4850   79.4700  223.8460 C   0  0  0  0  0  0  0  0  0  0  0  0
  141.5760   79.7620  223.0400 C   0  0  0  0  0  0  0  0  0  0  0  0
  143.0020   80.5380  223.7040 Cl  0  0  0  0  0  0  0  0  0  0  0  0
  141.4890   79.4170  221.7050 C   0  0  0  0  0  0  0  0  0  0  0  0
  140.0350   71.1680  223.6370 C   0  0  0  0  0  0  0  0  0  0  0  0
  139.5010   69.8900  223.6800 C   0  0  0  0  0  0  0  0  0  0  0  0
  139.4170   69.1560  224.8450 C   0  0  0  0  0  0  0  0  0  0  0  0
  139.8840   69.7280  226.0100 C   0  0  0  0  0  0  0  0  0  0  0  0
  139.7950   68.9880  227.1700 C   0  0  0  0  0  0  0  0  0  0  0  0
  140.2580   69.5410  228.3520 C   0  0  0  0  0  0  0  0  0  0  0  0
  140.7880   70.8120  228.3080 C   0  0  0  0  0  0  0  0  0  0  0  0
  140.8780   71.5560  227.1470 C   0  0  0  0  0  0  0  0  0  0  0  0
  140.4160   71.0020  225.9680 C   0  0  0  0  0  0  0  0  0  0  0  0
  140.4760   71.6750  224.8040 N   0  0  0  0  0  0  0  0  0  0  0  0
  139.5400   73.7600  223.2240 H   0  0  0  0  0  0  0  0  0  0  0  0
  140.4349   73.3334  220.3444 H   0  0  0  0  0  0  0  0  0  0  0  0
  138.8721   74.1470  220.6760 H   0  0  0  0  0  0  0  0  0  0  0  0
  140.9713   74.2997  218.7614 H   0  0  0  0  0  0  0  0  0  0  0  0
  140.4032   75.8650  218.2260 H   0  0  0  0  0  0  0  0  0  0  0  0
  143.0760   74.6995  218.0077 H   0  0  0  0  0  0  0  0  0  0  0  0
  142.5121   76.2513  217.3360 H   0  0  0  0  0  0  0  0  0  0  0  0
  144.0610   77.1259  218.9219 H   0  0  0  0  0  0  0  0  0  0  0  0
  142.4902   77.3558  221.1603 H   0  0  0  0  0  0  0  0  0  0  0  0
  142.2995   78.9017  219.2719 H   0  0  0  0  0  0  0  0  0  0  0  0
  141.4168   77.6300  218.3199 H   0  0  0  0  0  0  0  0  0  0  0  0
  138.3640   78.0277  221.6056 H   0  0  0  0  0  0  0  0  0  0  0  0
  138.5004   78.6408  224.0150 H   0  0  0  0  0  0  0  0  0  0  0  0
  140.5242   79.7324  224.9135 H   0  0  0  0  0  0  0  0  0  0  0  0
  142.3330   79.6319  221.0331 H   0  0  0  0  0  0  0  0  0  0  0  0
  139.1288   69.4424  222.7467 H   0  0  0  0  0  0  0  0  0  0  0  0
  138.9894   68.1425  224.8449 H   0  0  0  0  0  0  0  0  0  0  0  0
  139.3638   67.9761  227.1567 H   0  0  0  0  0  0  0  0  0  0  0  0
  140.2043   68.9822  229.2980 H   0  0  0  0  0  0  0  0  0  0  0  0
  141.1579   71.2566  229.2437 H   0  0  0  0  0  0  0  0  0  0  0  0
  141.3084   72.5682  227.1608 H   0  0  0  0  0  0  0  0  0  0  0  0
  1  2  2  0
  2  3  1  0
  3  4  1  0
  4  5  1  0
  5  6  2  0
  5  7  1  0
  7  8  1  0
  8  9  1  0
  9 10  1  0
 10 11  1  0
 10 12  1  0
 12 13  1  0
 13 14  1  0
 14 15  1  0
 15 16  2  0
 16 17  1  0
 17 18  2  0
 18 19  1  0
 19 20  1  0
 19 21  2  0
  2 22  1  0
 22 23  2  0
 23 24  1  0
 24 25  2  0
 25 26  1  0
 26 27  2  0
 27 28  1  0
 28 29  2  0
 29 30  1  0
 30 31  2  0
 12  7  1  0
 21 15  1  0
 31 22  1  0
 30 25  1  0
  3 32  1  0
  4 33  1  0
  4 34  1  0
  8 35  1  0
  8 36  1  0
  9 37  1  0
  9 38  1  0
 10 39  1  6
 12 40  1  1
 13 41  1  0
 13 42  1  0
 16 43  1  0
 17 44  1  0
 18 45  1  0
 21 46  1  0
 23 47  1  0
 24 48  1  0
 26 49  1  0
 27 50  1  0
 28 51  1  0
 29 52  1  0
M  END
>  <smiles>  (33) 
O=C(NCC(=O)N1CC[C@H](F)[C@H]1COc1cccc(Cl)c1)c1ccc2ccccc2n1

>  <score_type>  (33) 
oracle

>  <origin>  (33) 
autodockgpu

>  <m_score__min__energy>  (33) 
-8.8200000000000003

>  <m_primary>  (33) 
energy

>  <rmsd>  (33) 
1.5836503386544216

>  <m_score__min__rmsd>  (33) 
1.5836503386544216

>  <meeko>  (33) 
{"free_energy": -8.65, "intermolecular_energy": -10.74, "internal_energy": -1.92, "cluster_size": 18, "cluster_id": 2, "rank_in_cluster": 2}

>  <energy>  (33) 
-8.65

>  <cluster_rmsd>  (33) 
0.0

>  <cluster>  (33) 
3

$$$$

     RDKit          3D

 52 55  0  0  0  0  0  0  0  0999 V2000
  137.5240   75.9270  222.7870 O   0  0  0  0  0  0  0  0  0  0  0  0
  138.6940   76.2030  222.3570 C   0  0  0  0  0  0  0  0  0  0  0  0
  139.4240   75.2800  221.5820 N   0  0  0  0  0  0  0  0  0  0  0  0
  138.8000   73.9990  221.2860 C   0  0  0  0  0  0  0  0  0  0  0  0
  139.5110   72.9330  222.0330 C   0  0  0  0  0  0  0  0  0  0  0  0
  140.6770   73.0760  222.5000 O   0  0  0  0  0  0  0  0  0  0  0  0
  138.8910   71.6750  222.2610 N   0  0  0  0  0  0  0  0  0  0  0  0
  138.4710   70.7910  221.1900 C   0  0  0  0  0  0  0  0  0  0  0  0
  137.2580   70.1270  221.7670 C   0  0  0  0  0  0  0  0  0  0  0  0
  137.1240   70.5870  223.2090 C   0  0  2  0  0  0  0  0  0  0  0  0
  136.2450   71.6270  223.3600 F   0  0  0  0  0  0  0  0  0  0  0  0
  138.5550   71.0210  223.5110 C   0  0  1  0  0  0  0  0  0  0  0  0
  139.3580   69.7460  223.5800 C   0  0  0  0  0  0  0  0  0  0  0  0
  138.9400   68.9060  224.6390 O   0  0  0  0  0  0  0  0  0  0  0  0
  139.5730   69.0880  225.8610 C   0  0  0  0  0  0  0  0  0  0  0  0
  139.7010   68.0860  226.8020 C   0  0  0  0  0  0  0  0  0  0  0  0
  140.3490   68.3790  227.9830 C   0  0  0  0  0  0  0  0  0  0  0  0
  140.8570   69.6510  228.2120 C   0  0  0  0  0  0  0  0  0  0  0  0
  140.7360   70.6690  227.2760 C   0  0  0  0  0  0  0  0  0  0  0  0
  141.3890   72.2650  227.5940 Cl  0  0  0  0  0  0  0  0  0  0  0  0
  140.0850   70.3690  226.0940 C   0  0  0  0  0  0  0  0  0  0  0  0
  139.2750   77.5030  222.6830 C   0  0  0  0  0  0  0  0  0  0  0  0
  138.4590   78.5830  222.9780 C   0  0  0  0  0  0  0  0  0  0  0  0
  138.9570   79.8300  223.2920 C   0  0  0  0  0  0  0  0  0  0  0  0
  140.3250   79.9990  223.3090 C   0  0  0  0  0  0  0  0  0  0  0  0
  140.8140   81.2500  223.6230 C   0  0  0  0  0  0  0  0  0  0  0  0
  142.1840   81.4440  223.6470 C   0  0  0  0  0  0  0  0  0  0  0  0
  142.9960   80.3690  223.3530 C   0  0  0  0  0  0  0  0  0  0  0  0
  142.5080   79.1150  223.0380 C   0  0  0  0  0  0  0  0  0  0  0  0
  141.1400   78.9240  223.0150 C   0  0  0  0  0  0  0  0  0  0  0  0
  140.6030   77.7260  222.7150 N   0  0  0  0  0  0  0  0  0  0  0  0
  140.3740   75.5360  221.2480 H   0  0  0  0  0  0  0  0  0  0  0  0
  137.7440   74.0232  221.5929 H   0  0  0  0  0  0  0  0  0  0  0  0
  138.8568   73.7980  220.2060 H   0  0  0  0  0  0  0  0  0  0  0  0
  138.2182   71.3594  220.2828 H   0  0  0  0  0  0  0  0  0  0  0  0
  139.2512   70.0805  220.8794 H   0  0  0  0  0  0  0  0  0  0  0  0
  136.3639   70.4178  221.1960 H   0  0  0  0  0  0  0  0  0  0  0  0
  137.3571   69.0325  221.7185 H   0  0  0  0  0  0  0  0  0  0  0  0
  136.7220   69.8126  223.8788 H   0  0  0  0  0  0  0  0  0  0  0  0
  138.7102   71.6267  224.4160 H   0  0  0  0  0  0  0  0  0  0  0  0
  139.2420   69.2028  222.6305 H   0  0  0  0  0  0  0  0  0  0  0  0
  140.4083   70.0186  223.7605 H   0  0  0  0  0  0  0  0  0  0  0  0
  139.2966   67.0804  226.6144 H   0  0  0  0  0  0  0  0  0  0  0  0
  140.4646   67.5990  228.7500 H   0  0  0  0  0  0  0  0  0  0  0  0
  141.3702   69.8579  229.1627 H   0  0  0  0  0  0  0  0  0  0  0  0
  139.9680   71.1480  225.3262 H   0  0  0  0  0  0  0  0  0  0  0  0
  137.3685   78.4399  222.9610 H   0  0  0  0  0  0  0  0  0  0  0  0
  138.2813   80.6668  223.5226 H   0  0  0  0  0  0  0  0  0  0  0  0
  140.1272   82.0787  223.8503 H   0  0  0  0  0  0  0  0  0  0  0  0
  142.6125   82.4267  223.8933 H   0  0  0  0  0  0  0  0  0  0  0  0
  144.0859   80.5169  223.3700 H   0  0  0  0  0  0  0  0  0  0  0  0
  143.1945   78.2862  222.8103 H   0  0  0  0  0  0  0  0  0  0  0  0
  1  2  2  0
  2  3  1  0
  3  4  1  0
  4  5  1  0
  5  6  2  0
  5  7  1  0
  7  8  1  0
  8  9  1  0
  9 10  1  0
 10 11  1  0
 10 12  1  0
 12 13  1  0
 13 14  1  0
 14 15  1  0
 15 16  2  0
 16 17  1  0
 17 18  2  0
 18 19  1  0
 19 20  1  0
 19 21  2  0
  2 22  1  0
 22 23  2  0
 23 24  1  0
 24 25  2  0
 25 26  1  0
 26 27  2  0
 27 28  1  0
 28 29  2  0
 29 30  1  0
 30 31  2  0
 12  7  1  0
 21 15  1  0
 31 22  1  0
 30 25  1  0
  3 32  1  0
  4 33  1  0
  4 34  1  0
  8 35  1  0
  8 36  1  0
  9 37  1  0
  9 38  1  0
 10 39  1  1
 12 40  1  1
 13 41  1  0
 13 42  1  0
 16 43  1  0
 17 44  1  0
 18 45  1  0
 21 46  1  0
 23 47  1  0
 24 48  1  0
 26 49  1  0
 27 50  1  0
 28 51  1  0
 29 52  1  0
M  END
>  <smiles>  (34) 
O=C(NCC(=O)N1CC[C@H](F)[C@H]1COc1cccc(Cl)c1)c1ccc2ccccc2n1

>  <score_type>  (34) 
oracle

>  <origin>  (34) 
autodockgpu

>  <m_score__min__energy>  (34) 
-8.8200000000000003

>  <m_primary>  (34) 
energy

>  <rmsd>  (34) 
8.259616818454997

>  <m_score__min__rmsd>  (34) 
8.259616818454997

>  <meeko>  (34) 
{"free_energy": -8.8, "intermolecular_energy": -10.88, "internal_energy": -1.49, "cluster_size": 14, "cluster_id": 1, "rank_in_cluster": 2}

>  <energy>  (34) 
-8.35

>  <cluster_rmsd>  (34) 
1.08

>  <cluster>  (34) 
3

$$$$

     RDKit          3D

 52 55  0  0  0  0  0  0  0  0999 V2000
  137.3340   76.4540  222.1560 O   0  0  0  0  0  0  0  0  0  0  0  0
  138.5960   76.4380  222.3530 C   0  0  0  0  0  0  0  0  0  0  0  0
  139.3430   75.2510  222.2090 N   0  0  0  0  0  0  0  0  0  0  0  0
  138.6290   74.0420  221.8280 C   0  0  0  0  0  0  0  0  0  0  0  0
  139.4640   72.8630  222.1630 C   0  0  0  0  0  0  0  0  0  0  0  0
  140.7000   72.9420  222.4190 O   0  0  0  0  0  0  0  0  0  0  0  0
  138.8930   71.5630  222.2110 N   0  0  0  0  0  0  0  0  0  0  0  0
  139.0220   70.5980  221.1360 C   0  0  0  0  0  0  0  0  0  0  0  0
  137.7270   69.8480  221.2080 C   0  0  0  0  0  0  0  0  0  0  0  0
  136.9690   70.3550  222.4230 C   0  0  2  0  0  0  0  0  0  0  0  0
  136.0400   71.3130  222.1140 F   0  0  0  0  0  0  0  0  0  0  0  0
  138.1090   70.9350  223.2570 C   0  0  1  0  0  0  0  0  0  0  0  0
  138.8930   69.7450  223.7520 C   0  0  0  0  0  0  0  0  0  0  0  0
  140.2340   70.0780  224.0580 O   0  0  0  0  0  0  0  0  0  0  0  0
  140.5070   70.3910  225.3830 C   0  0  0  0  0  0  0  0  0  0  0  0
  140.6920   71.6840  225.8310 C   0  0  0  0  0  0  0  0  0  0  0  0
  140.9580   71.8800  227.1690 C   0  0  0  0  0  0  0  0  0  0  0  0
  141.0360   70.7990  228.0380 C   0  0  0  0  0  0  0  0  0  0  0  0
  140.8530   69.4940  227.6030 C   0  0  0  0  0  0  0  0  0  0  0  0
  140.9570   68.1500  228.7250 Cl  0  0  0  0  0  0  0  0  0  0  0  0
  140.5860   69.3040  226.2610 C   0  0  0  0  0  0  0  0  0  0  0  0
  139.2650   77.6790  222.7350 C   0  0  0  0  0  0  0  0  0  0  0  0
  138.5240   78.7910  223.1020 C   0  0  0  0  0  0  0  0  0  0  0  0
  139.1060   79.9860  223.4700 C   0  0  0  0  0  0  0  0  0  0  0  0
  140.4820   80.0670  223.4690 C   0  0  0  0  0  0  0  0  0  0  0  0
  141.0560   81.2660  223.8390 C   0  0  0  0  0  0  0  0  0  0  0  0
  142.4360   81.3710  223.8460 C   0  0  0  0  0  0  0  0  0  0  0  0
  143.1720   80.2640  223.4810 C   0  0  0  0  0  0  0  0  0  0  0  0
  142.6000   79.0620  223.1100 C   0  0  0  0  0  0  0  0  0  0  0  0
  141.2220   78.9590  223.1040 C   0  0  0  0  0  0  0  0  0  0  0  0
  140.6040   77.8160  222.7530 N   0  0  0  0  0  0  0  0  0  0  0  0
  140.3670   75.2720  222.3760 H   0  0  0  0  0  0  0  0  0  0  0  0
  137.6769   73.9876  222.3763 H   0  0  0  0  0  0  0  0  0  0  0  0
  138.4227   74.0568  220.7476 H   0  0  0  0  0  0  0  0  0  0  0  0
  139.1358   71.1002  220.1640 H   0  0  0  0  0  0  0  0  0  0  0  0
  139.9064   69.9514  221.2343 H   0  0  0  0  0  0  0  0  0  0  0  0
  137.1381   70.0282  220.2965 H   0  0  0  0  0  0  0  0  0  0  0  0
  137.9111   68.7667  221.2913 H   0  0  0  0  0  0  0  0  0  0  0  0
  136.3759   69.5757  222.9239 H   0  0  0  0  0  0  0  0  0  0  0  0
  137.8293   71.5909  224.0946 H   0  0  0  0  0  0  0  0  0  0  0  0
  138.4091   69.3546  224.6594 H   0  0  0  0  0  0  0  0  0  0  0  0
  138.9066   68.9923  222.9500 H   0  0  0  0  0  0  0  0  0  0  0  0
  140.6287   72.5357  225.1377 H   0  0  0  0  0  0  0  0  0  0  0  0
  141.1097   72.9001  227.5517 H   0  0  0  0  0  0  0  0  0  0  0  0
  141.2489   70.9827  229.1014 H   0  0  0  0  0  0  0  0  0  0  0  0
  140.4334   68.2845  225.8773 H   0  0  0  0  0  0  0  0  0  0  0  0
  137.4265   78.7176  223.0997 H   0  0  0  0  0  0  0  0  0  0  0  0
  138.4891   80.8506  223.7564 H   0  0  0  0  0  0  0  0  0  0  0  0
  140.4279   82.1231  224.1234 H   0  0  0  0  0  0  0  0  0  0  0  0
  142.9309   82.3101  224.1343 H   0  0  0  0  0  0  0  0  0  0  0  0
  144.2693   80.3413  223.4853 H   0  0  0  0  0  0  0  0  0  0  0  0
  143.2284   78.2052  222.8254 H   0  0  0  0  0  0  0  0  0  0  0  0
  1  2  2  0
  2  3  1  0
  3  4  1  0
  4  5  1  0
  5  6  2  0
  5  7  1  0
  7  8  1  0
  8  9  1  0
  9 10  1  0
 10 11  1  0
 10 12  1  0
 12 13  1  0
 13 14  1  0
 14 15  1  0
 15 16  2  0
 16 17  1  0
 17 18  2  0
 18 19  1  0
 19 20  1  0
 19 21  2  0
  2 22  1  0
 22 23  2  0
 23 24  1  0
 24 25  2  0
 25 26  1  0
 26 27  2  0
 27 28  1  0
 28 29  2  0
 29 30  1  0
 30 31  2  0
 12  7  1  0
 21 15  1  0
 31 22  1  0
 30 25  1  0
  3 32  1  0
  4 33  1  0
  4 34  1  0
  8 35  1  0
  8 36  1  0
  9 37  1  0
  9 38  1  0
 10 39  1  1
 12 40  1  1
 13 41  1  0
 13 42  1  0
 16 43  1  0
 17 44  1  0
 18 45  1  0
 21 46  1  0
 23 47  1  0
 24 48  1  0
 26 49  1  0
 27 50  1  0
 28 51  1  0
 29 52  1  0
M  END
>  <smiles>  (35) 
O=C(NCC(=O)N1CC[C@H](F)[C@H]1COc1cccc(Cl)c1)c1ccc2ccccc2n1

>  <score_type>  (35) 
oracle

>  <origin>  (35) 
autodockgpu

>  <m_score__min__energy>  (35) 
-8.8200000000000003

>  <m_primary>  (35) 
energy

>  <rmsd>  (35) 
8.351304822602899

>  <m_score__min__rmsd>  (35) 
8.351304822602899

>  <meeko>  (35) 
{"free_energy": -8.42, "intermolecular_energy": -10.51, "internal_energy": -2.03, "cluster_size": 14, "cluster_id": 1, "rank_in_cluster": 9}

>  <energy>  (35) 
-8.17

>  <cluster_rmsd>  (35) 
1.1

>  <cluster>  (35) 
3

$$$$

     RDKit          3D

 52 55  0  0  0  0  0  0  0  0999 V2000
  141.1430   72.0580  221.6370 O   0  0  0  0  0  0  0  0  0  0  0  0
  140.2540   72.3110  222.5180 C   0  0  0  0  0  0  0  0  0  0  0  0
  139.3360   73.3660  222.3470 N   0  0  0  0  0  0  0  0  0  0  0  0
  139.4330   74.1600  221.1310 C   0  0  0  0  0  0  0  0  0  0  0  0
  139.2680   75.5930  221.4780 C   0  0  0  0  0  0  0  0  0  0  0  0
  138.1820   76.0820  221.9020 O   0  0  0  0  0  0  0  0  0  0  0  0
  140.3560   76.4980  221.3430 N   0  0  0  0  0  0  0  0  0  0  0  0
  141.0770   77.0470  222.4760 C   0  0  0  0  0  0  0  0  0  0  0  0
  141.4620   78.4120  221.9920 C   0  0  0  0  0  0  0  0  0  0  0  0
  141.0380   78.5210  220.5370 C   0  0  2  0  0  0  0  0  0  0  0  0
  139.8280   79.1440  220.3760 F   0  0  0  0  0  0  0  0  0  0  0  0
  140.9600   77.0480  220.1450 C   0  0  1  0  0  0  0  0  0  0  0  0
  142.3890   76.5650  220.1010 C   0  0  0  0  0  0  0  0  0  0  0  0
  142.6030   75.6160  219.0740 O   0  0  0  0  0  0  0  0  0  0  0  0
  143.1450   74.3970  219.4610 C   0  0  0  0  0  0  0  0  0  0  0  0
  142.6050   73.1810  219.0940 C   0  0  0  0  0  0  0  0  0  0  0  0
  143.2260   72.0320  219.5360 C   0  0  0  0  0  0  0  0  0  0  0  0
  144.3640   72.1050  220.3290 C   0  0  0  0  0  0  0  0  0  0  0  0
  144.9180   73.3210  220.7060 C   0  0  0  0  0  0  0  0  0  0  0  0
  146.3570   73.3810  221.7070 Cl  0  0  0  0  0  0  0  0  0  0  0  0
  144.2910   74.4690  220.2600 C   0  0  0  0  0  0  0  0  0  0  0  0
  140.1990   71.4840  223.7200 C   0  0  0  0  0  0  0  0  0  0  0  0
  139.6450   70.2140  223.6740 C   0  0  0  0  0  0  0  0  0  0  0  0
  139.5690   69.3940  224.7800 C   0  0  0  0  0  0  0  0  0  0  0  0
  140.0660   69.8660  225.9770 C   0  0  0  0  0  0  0  0  0  0  0  0
  139.9860   69.0390  227.0780 C   0  0  0  0  0  0  0  0  0  0  0  0
  140.4790   69.4910  228.2890 C   0  0  0  0  0  0  0  0  0  0  0  0
  141.0290   70.7540  228.3340 C   0  0  0  0  0  0  0  0  0  0  0  0
  141.1100   71.5850  227.2330 C   0  0  0  0  0  0  0  0  0  0  0  0
  140.6180   71.1310  226.0240 C   0  0  0  0  0  0  0  0  0  0  0  0
  140.6690   71.8920  224.9140 N   0  0  0  0  0  0  0  0  0  0  0  0
  138.6250   73.5460  223.0820 H   0  0  0  0  0  0  0  0  0  0  0  0
  140.4174   74.0038  220.6656 H   0  0  0  0  0  0  0  0  0  0  0  0
  138.6479   73.8552  220.4234 H   0  0  0  0  0  0  0  0  0  0  0  0
  140.4316   77.1087  223.3646 H   0  0  0  0  0  0  0  0  0  0  0  0
  141.9372   76.4346  222.7841 H   0  0  0  0  0  0  0  0  0  0  0  0
  140.9501   79.1801  222.5903 H   0  0  0  0  0  0  0  0  0  0  0  0
  142.5469   78.5646  222.0903 H   0  0  0  0  0  0  0  0  0  0  0  0
  141.7224   79.1294  219.9275 H   0  0  0  0  0  0  0  0  0  0  0  0
  140.4411   76.8109  219.2045 H   0  0  0  0  0  0  0  0  0  0  0  0
  143.0490   77.4279  219.9285 H   0  0  0  0  0  0  0  0  0  0  0  0
  142.6092   76.0769  221.0618 H   0  0  0  0  0  0  0  0  0  0  0  0
  141.7035   73.1299  218.4658 H   0  0  0  0  0  0  0  0  0  0  0  0
  142.8168   71.0494  219.2583 H   0  0  0  0  0  0  0  0  0  0  0  0
  144.8398   71.1730  220.6680 H   0  0  0  0  0  0  0  0  0  0  0  0
  144.6985   75.4525  220.5370 H   0  0  0  0  0  0  0  0  0  0  0  0
  139.2499   69.8453  222.7159 H   0  0  0  0  0  0  0  0  0  0  0  0
  139.1240   68.3905  224.7096 H   0  0  0  0  0  0  0  0  0  0  0  0
  139.5381   68.0378  226.9946 H   0  0  0  0  0  0  0  0  0  0  0  0
  140.4334   68.8609  229.1895 H   0  0  0  0  0  0  0  0  0  0  0  0
  141.4231   71.1186  229.2941 H   0  0  0  0  0  0  0  0  0  0  0  0
  141.5566   72.5867  227.3171 H   0  0  0  0  0  0  0  0  0  0  0  0
  1  2  2  0
  2  3  1  0
  3  4  1  0
  4  5  1  0
  5  6  2  0
  5  7  1  0
  7  8  1  0
  8  9  1  0
  9 10  1  0
 10 11  1  0
 10 12  1  0
 12 13  1  0
 13 14  1  0
 14 15  1  0
 15 16  2  0
 16 17  1  0
 17 18  2  0
 18 19  1  0
 19 20  1  0
 19 21  2  0
  2 22  1  0
 22 23  2  0
 23 24  1  0
 24 25  2  0
 25 26  1  0
 26 27  2  0
 27 28  1  0
 28 29  2  0
 29 30  1  0
 30 31  2  0
 12  7  1  0
 21 15  1  0
 31 22  1  0
 30 25  1  0
  3 32  1  0
  4 33  1  0
  4 34  1  0
  8 35  1  0
  8 36  1  0
  9 37  1  0
  9 38  1  0
 10 39  1  6
 12 40  1  6
 13 41  1  0
 13 42  1  0
 16 43  1  0
 17 44  1  0
 18 45  1  0
 21 46  1  0
 23 47  1  0
 24 48  1  0
 26 49  1  0
 27 50  1  0
 28 51  1  0
 29 52  1  0
M  END
>  <smiles>  (36) 
O=C(NCC(=O)N1CC[C@H](F)[C@H]1COc1cccc(Cl)c1)c1ccc2ccccc2n1

>  <score_type>  (36) 
oracle

>  <origin>  (36) 
autodockgpu

>  <m_score__min__energy>  (36) 
-8.8200000000000003

>  <m_primary>  (36) 
energy

>  <rmsd>  (36) 
2.588849749850313

>  <m_score__min__rmsd>  (36) 
2.588849749850313

>  <meeko>  (36) 
{"free_energy": -8.51, "intermolecular_energy": -10.6, "internal_energy": -1.9, "cluster_size": 7, "cluster_id": 4, "rank_in_cluster": 1}

>  <energy>  (36) 
-8.51

>  <cluster_rmsd>  (36) 
0.0

>  <cluster>  (36) 
4

$$$$

     RDKit          3D

 52 55  0  0  0  0  0  0  0  0999 V2000
  138.3720   75.1690  221.8540 O   0  0  0  0  0  0  0  0  0  0  0  0
  139.5790   75.5760  221.9390 C   0  0  0  0  0  0  0  0  0  0  0  0
  140.6600   74.7280  221.6230 N   0  0  0  0  0  0  0  0  0  0  0  0
  140.3560   73.3710  221.1950 C   0  0  0  0  0  0  0  0  0  0  0  0
  139.9940   72.5610  222.3840 C   0  0  0  0  0  0  0  0  0  0  0  0
  140.6660   72.5660  223.4550 O   0  0  0  0  0  0  0  0  0  0  0  0
  138.8450   71.7250  222.3660 N   0  0  0  0  0  0  0  0  0  0  0  0
  138.2920   71.1620  221.1490 C   0  0  0  0  0  0  0  0  0  0  0  0
  136.8230   71.1170  221.4440 C   0  0  0  0  0  0  0  0  0  0  0  0
  136.6310   71.5500  222.8880 C   0  0  2  0  0  0  0  0  0  0  0  0
  136.3000   72.8740  223.0120 F   0  0  0  0  0  0  0  0  0  0  0  0
  138.0160   71.2670  223.4650 C   0  0  1  0  0  0  0  0  0  0  0  0
  138.1320   69.7640  223.5180 C   0  0  0  0  0  0  0  0  0  0  0  0
  139.4450   69.3390  223.8310 O   0  0  0  0  0  0  0  0  0  0  0  0
  139.7550   69.2300  225.1810 C   0  0  0  0  0  0  0  0  0  0  0  0
  139.6610   68.0460  225.8830 C   0  0  0  0  0  0  0  0  0  0  0  0
  139.9930   68.0520  227.2210 C   0  0  0  0  0  0  0  0  0  0  0  0
  140.4110   69.2240  227.8380 C   0  0  0  0  0  0  0  0  0  0  0  0
  140.5110   70.4230  227.1450 C   0  0  0  0  0  0  0  0  0  0  0  0
  141.0430   71.8860  227.9520 Cl  0  0  0  0  0  0  0  0  0  0  0  0
  140.1760   70.4100  225.8040 C   0  0  0  0  0  0  0  0  0  0  0  0
  139.8310   76.9470  222.3740 C   0  0  0  0  0  0  0  0  0  0  0  0
  138.7750   77.7920  222.6760 C   0  0  0  0  0  0  0  0  0  0  0  0
  138.9580   79.0950  223.0910 C   0  0  0  0  0  0  0  0  0  0  0  0
  140.2480   79.5660  223.2050 C   0  0  0  0  0  0  0  0  0  0  0  0
  140.4220   80.8700  223.6200 C   0  0  0  0  0  0  0  0  0  0  0  0
  141.7090   81.3650  223.7430 C   0  0  0  0  0  0  0  0  0  0  0  0
  142.7580   80.5240  223.4410 C   0  0  0  0  0  0  0  0  0  0  0  0
  142.5870   79.2180  223.0250 C   0  0  0  0  0  0  0  0  0  0  0  0
  141.3020   78.7250  222.9040 C   0  0  0  0  0  0  0  0  0  0  0  0
  141.0690   77.4610  222.5040 N   0  0  0  0  0  0  0  0  0  0  0  0
  141.6300   75.0900  221.7030 H   0  0  0  0  0  0  0  0  0  0  0  0
  139.5129   73.3869  220.4886 H   0  0  0  0  0  0  0  0  0  0  0  0
  141.2338   72.9317  220.6984 H   0  0  0  0  0  0  0  0  0  0  0  0
  138.5030   71.8060  220.2826 H   0  0  0  0  0  0  0  0  0  0  0  0
  138.7155   70.1802  220.8908 H   0  0  0  0  0  0  0  0  0  0  0  0
  136.2844   71.8016  220.7723 H   0  0  0  0  0  0  0  0  0  0  0  0
  136.4288   70.1018  221.2894 H   0  0  0  0  0  0  0  0  0  0  0  0
  135.8024   71.0311  223.3921 H   0  0  0  0  0  0  0  0  0  0  0  0
  138.2467   71.7086  224.4457 H   0  0  0  0  0  0  0  0  0  0  0  0
  137.4437   69.3827  224.2867 H   0  0  0  0  0  0  0  0  0  0  0  0
  137.8786   69.3708  222.5224 H   0  0  0  0  0  0  0  0  0  0  0  0
  139.3297   67.1212  225.3879 H   0  0  0  0  0  0  0  0  0  0  0  0
  139.9264   67.1217  227.8042 H   0  0  0  0  0  0  0  0  0  0  0  0
  140.6704   69.2017  228.9067 H   0  0  0  0  0  0  0  0  0  0  0  0
  140.2412   71.3393  225.2191 H   0  0  0  0  0  0  0  0  0  0  0  0
  137.7486   77.4081  222.5809 H   0  0  0  0  0  0  0  0  0  0  0  0
  138.0980   79.7400  223.3244 H   0  0  0  0  0  0  0  0  0  0  0  0
  139.5536   81.5052  223.8491 H   0  0  0  0  0  0  0  0  0  0  0  0
  141.8889   82.3991  224.0721 H   0  0  0  0  0  0  0  0  0  0  0  0
  143.7828   80.9122  223.5360 H   0  0  0  0  0  0  0  0  0  0  0  0
  143.4557   78.5837  222.7948 H   0  0  0  0  0  0  0  0  0  0  0  0
  1  2  2  0
  2  3  1  0
  3  4  1  0
  4  5  1  0
  5  6  2  0
  5  7  1  0
  7  8  1  0
  8  9  1  0
  9 10  1  0
 10 11  1  0
 10 12  1  0
 12 13  1  0
 13 14  1  0
 14 15  1  0
 15 16  2  0
 16 17  1  0
 17 18  2  0
 18 19  1  0
 19 20  1  0
 19 21  2  0
  2 22  1  0
 22 23  2  0
 23 24  1  0
 24 25  2  0
 25 26  1  0
 26 27  2  0
 27 28  1  0
 28 29  2  0
 29 30  1  0
 30 31  2  0
 12  7  1  0
 21 15  1  0
 31 22  1  0
 30 25  1  0
  3 32  1  0
  4 33  1  0
  4 34  1  0
  8 35  1  0
  8 36  1  0
  9 37  1  0
  9 38  1  0
 10 39  1  1
 12 40  1  1
 13 41  1  0
 13 42  1  0
 16 43  1  0
 17 44  1  0
 18 45  1  0
 21 46  1  0
 23 47  1  0
 24 48  1  0
 26 49  1  0
 27 50  1  0
 28 51  1  0
 29 52  1  0
M  END
>  <smiles>  (37) 
O=C(NCC(=O)N1CC[C@H](F)[C@H]1COc1cccc(Cl)c1)c1ccc2ccccc2n1

>  <score_type>  (37) 
oracle

>  <origin>  (37) 
autodockgpu

>  <m_score__min__energy>  (37) 
-8.8200000000000003

>  <m_primary>  (37) 
energy

>  <rmsd>  (37) 
8.071573342551664

>  <m_score__min__rmsd>  (37) 
8.071573342551664

>  <meeko>  (37) 
{"free_energy": -8.5, "intermolecular_energy": -10.59, "internal_energy": -1.9, "cluster_size": 14, "cluster_id": 1, "rank_in_cluster": 4}

>  <energy>  (37) 
-8.39

>  <cluster_rmsd>  (37) 
0.78

>  <cluster>  (37) 
4

$$$$

     RDKit          3D

 52 55  0  0  0  0  0  0  0  0999 V2000
  141.1290   71.8040  221.5580 O   0  0  0  0  0  0  0  0  0  0  0  0
  140.3640   72.2640  222.4710 C   0  0  0  0  0  0  0  0  0  0  0  0
  139.7080   73.5020  222.3190 N   0  0  0  0  0  0  0  0  0  0  0  0
  139.9310   74.2410  221.0860 C   0  0  0  0  0  0  0  0  0  0  0  0
  139.4590   75.6360  221.2680 C   0  0  0  0  0  0  0  0  0  0  0  0
  138.7660   76.0080  222.2570 O   0  0  0  0  0  0  0  0  0  0  0  0
  139.7780   76.6370  220.3100 N   0  0  0  0  0  0  0  0  0  0  0  0
  138.8210   77.6220  219.8430 C   0  0  0  0  0  0  0  0  0  0  0  0
  139.2460   77.8470  218.4240 C   0  0  0  0  0  0  0  0  0  0  0  0
  140.5220   77.0540  218.1940 C   0  0  2  0  0  0  0  0  0  0  0  0
  140.2980   75.8360  217.6080 F   0  0  0  0  0  0  0  0  0  0  0  0
  141.0300   76.8980  219.6250 C   0  0  1  0  0  0  0  0  0  0  0  0
  141.4920   78.2710  220.0430 C   0  0  0  0  0  0  0  0  0  0  0  0
  142.1920   78.2500  221.2720 O   0  0  0  0  0  0  0  0  0  0  0  0
  141.9140   79.2810  222.1600 C   0  0  0  0  0  0  0  0  0  0  0  0
  142.8860   80.1140  222.6770 C   0  0  0  0  0  0  0  0  0  0  0  0
  142.4970   81.1060  223.5520 C   0  0  0  0  0  0  0  0  0  0  0  0
  141.1610   81.2550  223.9000 C   0  0  0  0  0  0  0  0  0  0  0  0
  140.1730   80.4250  223.3890 C   0  0  0  0  0  0  0  0  0  0  0  0
  138.4930   80.6390  223.8470 Cl  0  0  0  0  0  0  0  0  0  0  0  0
  140.5690   79.4330  222.5120 C   0  0  0  0  0  0  0  0  0  0  0  0
  140.1740   71.4830  223.6910 C   0  0  0  0  0  0  0  0  0  0  0  0
  139.4950   70.2760  223.6520 C   0  0  0  0  0  0  0  0  0  0  0  0
  139.2890   69.5000  224.7740 C   0  0  0  0  0  0  0  0  0  0  0  0
  139.7820   69.9550  225.9790 C   0  0  0  0  0  0  0  0  0  0  0  0
  139.5710   69.1740  227.0960 C   0  0  0  0  0  0  0  0  0  0  0  0
  140.0580   69.6090  228.3170 C   0  0  0  0  0  0  0  0  0  0  0  0
  140.7330   70.8100  228.3540 C   0  0  0  0  0  0  0  0  0  0  0  0
  140.9450   71.5950  227.2360 C   0  0  0  0  0  0  0  0  0  0  0  0
  140.4590   71.1580  226.0180 C   0  0  0  0  0  0  0  0  0  0  0  0
  140.6340   71.8770  224.8940 N   0  0  0  0  0  0  0  0  0  0  0  0
  139.0930   73.8480  223.0800 H   0  0  0  0  0  0  0  0  0  0  0  0
  141.0045   74.2430  220.8460 H   0  0  0  0  0  0  0  0  0  0  0  0
  139.3784   73.7657  220.2622 H   0  0  0  0  0  0  0  0  0  0  0  0
  137.7938   77.2315  219.8923 H   0  0  0  0  0  0  0  0  0  0  0  0
  138.8110   78.5415  220.4467 H   0  0  0  0  0  0  0  0  0  0  0  0
  138.4598   77.4995  217.7376 H   0  0  0  0  0  0  0  0  0  0  0  0
  139.4181   78.9174  218.2379 H   0  0  0  0  0  0  0  0  0  0  0  0
  141.2229   77.5449  217.5028 H   0  0  0  0  0  0  0  0  0  0  0  0
  141.8235   76.1549  219.7928 H   0  0  0  0  0  0  0  0  0  0  0  0
  142.1565   78.6732  219.2641 H   0  0  0  0  0  0  0  0  0  0  0  0
  140.6000   78.9012  220.1741 H   0  0  0  0  0  0  0  0  0  0  0  0
  143.9428   79.9896  222.3982 H   0  0  0  0  0  0  0  0  0  0  0  0
  143.2508   81.7846  223.9777 H   0  0  0  0  0  0  0  0  0  0  0  0
  140.8775   82.0540  224.6009 H   0  0  0  0  0  0  0  0  0  0  0  0
  139.8163   78.7539  222.0851 H   0  0  0  0  0  0  0  0  0  0  0  0
  139.1040   69.9218  222.6868 H   0  0  0  0  0  0  0  0  0  0  0  0
  138.7467   68.5451  224.7093 H   0  0  0  0  0  0  0  0  0  0  0  0
  139.0253   68.2221  227.0182 H   0  0  0  0  0  0  0  0  0  0  0  0
  139.9105   69.0138  229.2302 H   0  0  0  0  0  0  0  0  0  0  0  0
  141.1223   71.1613  229.3210 H   0  0  0  0  0  0  0  0  0  0  0  0
  141.4892   72.5477  227.3140 H   0  0  0  0  0  0  0  0  0  0  0  0
  1  2  2  0
  2  3  1  0
  3  4  1  0
  4  5  1  0
  5  6  2  0
  5  7  1  0
  7  8  1  0
  8  9  1  0
  9 10  1  0
 10 11  1  0
 10 12  1  0
 12 13  1  0
 13 14  1  0
 14 15  1  0
 15 16  2  0
 16 17  1  0
 17 18  2  0
 18 19  1  0
 19 20  1  0
 19 21  2  0
  2 22  1  0
 22 23  2  0
 23 24  1  0
 24 25  2  0
 25 26  1  0
 26 27  2  0
 27 28  1  0
 28 29  2  0
 29 30  1  0
 30 31  2  0
 12  7  1  0
 21 15  1  0
 31 22  1  0
 30 25  1  0
  3 32  1  0
  4 33  1  0
  4 34  1  0
  8 35  1  0
  8 36  1  0
  9 37  1  0
  9 38  1  0
 10 39  1  6
 12 40  1  6
 13 41  1  0
 13 42  1  0
 16 43  1  0
 17 44  1  0
 18 45  1  0
 21 46  1  0
 23 47  1  0
 24 48  1  0
 26 49  1  0
 27 50  1  0
 28 51  1  0
 29 52  1  0
M  END
>  <smiles>  (38) 
O=C(NCC(=O)N1CC[C@H](F)[C@H]1COc1cccc(Cl)c1)c1ccc2ccccc2n1

>  <score_type>  (38) 
oracle

>  <origin>  (38) 
autodockgpu

>  <m_score__min__energy>  (38) 
-8.8200000000000003

>  <m_primary>  (38) 
energy

>  <rmsd>  (38) 
1.8805225728842159

>  <m_score__min__rmsd>  (38) 
1.8805225728842159

>  <meeko>  (38) 
{"free_energy": -8.07, "intermolecular_energy": -10.16, "internal_energy": -1.9, "cluster_size": 18, "cluster_id": 2, "rank_in_cluster": 10}

>  <energy>  (38) 
-8.24

>  <cluster_rmsd>  (38) 
0.85

>  <cluster>  (38) 
4

$$$$

     RDKit          3D

 52 55  0  0  0  0  0  0  0  0999 V2000
  141.1180   74.3750  221.3630 O   0  0  0  0  0  0  0  0  0  0  0  0
  140.0870   74.8180  221.9720 C   0  0  0  0  0  0  0  0  0  0  0  0
  139.0150   73.9660  222.3070 N   0  0  0  0  0  0  0  0  0  0  0  0
  139.1220   72.5630  221.9370 C   0  0  0  0  0  0  0  0  0  0  0  0
  137.9350   71.8370  222.4530 C   0  0  0  0  0  0  0  0  0  0  0  0
  136.9840   72.4090  223.0590 O   0  0  0  0  0  0  0  0  0  0  0  0
  137.8180   70.4310  222.2810 N   0  0  0  0  0  0  0  0  0  0  0  0
  137.9980   69.7700  221.0030 C   0  0  0  0  0  0  0  0  0  0  0  0
  137.0460   68.6160  221.0920 C   0  0  0  0  0  0  0  0  0  0  0  0
  136.4560   68.6130  222.4920 C   0  0  2  0  0  0  0  0  0  0  0  0
  135.2320   69.2260  222.5590 F   0  0  0  0  0  0  0  0  0  0  0  0
  137.5150   69.4010  223.2570 C   0  0  1  0  0  0  0  0  0  0  0  0
  138.7170   68.4930  223.3360 C   0  0  0  0  0  0  0  0  0  0  0  0
  138.9190   67.9850  224.6410 O   0  0  0  0  0  0  0  0  0  0  0  0
  139.5910   68.8130  225.5300 C   0  0  0  0  0  0  0  0  0  0  0  0
  139.7530   70.1690  225.3240 C   0  0  0  0  0  0  0  0  0  0  0  0
  140.4390   70.8960  226.2730 C   0  0  0  0  0  0  0  0  0  0  0  0
  140.9510   70.2740  227.4050 C   0  0  0  0  0  0  0  0  0  0  0  0
  140.7960   68.9120  227.6260 C   0  0  0  0  0  0  0  0  0  0  0  0
  141.4520   68.1550  229.0660 Cl  0  0  0  0  0  0  0  0  0  0  0  0
  140.1070   68.1890  226.6710 C   0  0  0  0  0  0  0  0  0  0  0  0
  140.0290   76.2350  222.3210 C   0  0  0  0  0  0  0  0  0  0  0  0
  138.8110   76.8930  222.3840 C   0  0  0  0  0  0  0  0  0  0  0  0
  138.7020   78.2290  222.7080 C   0  0  0  0  0  0  0  0  0  0  0  0
  139.8580   78.9300  222.9780 C   0  0  0  0  0  0  0  0  0  0  0  0
  139.7400   80.2660  223.3000 C   0  0  0  0  0  0  0  0  0  0  0  0
  140.8870   80.9900  223.5750 C   0  0  0  0  0  0  0  0  0  0  0  0
  142.0970   80.3350  223.5120 C   0  0  0  0  0  0  0  0  0  0  0  0
  142.2190   78.9970  223.1880 C   0  0  0  0  0  0  0  0  0  0  0  0
  141.0720   78.2750  222.9150 C   0  0  0  0  0  0  0  0  0  0  0  0
  141.1240   76.9690  222.5940 N   0  0  0  0  0  0  0  0  0  0  0  0
  138.1900   74.3580  222.8030 H   0  0  0  0  0  0  0  0  0  0  0  0
  139.1627   72.4723  220.8415 H   0  0  0  0  0  0  0  0  0  0  0  0
  140.0380   72.1330  222.3684 H   0  0  0  0  0  0  0  0  0  0  0  0
  137.7343   70.4384  220.1701 H   0  0  0  0  0  0  0  0  0  0  0  0
  139.0374   69.4647  220.8120 H   0  0  0  0  0  0  0  0  0  0  0  0
  136.2446   68.7328  220.3476 H   0  0  0  0  0  0  0  0  0  0  0  0
  137.5679   67.6688  220.8911 H   0  0  0  0  0  0  0  0  0  0  0  0
  136.2579   67.6030  222.8802 H   0  0  0  0  0  0  0  0  0  0  0  0
  137.2373   69.7653  224.2571 H   0  0  0  0  0  0  0  0  0  0  0  0
  138.5691   67.6489  222.6464 H   0  0  0  0  0  0  0  0  0  0  0  0
  139.6041   69.0831  223.0626 H   0  0  0  0  0  0  0  0  0  0  0  0
  139.3452   70.6561  224.4260 H   0  0  0  0  0  0  0  0  0  0  0  0
  140.5823   71.9776  226.1330 H   0  0  0  0  0  0  0  0  0  0  0  0
  141.4944   70.8775  228.1469 H   0  0  0  0  0  0  0  0  0  0  0  0
  139.9621   67.1075  226.8098 H   0  0  0  0  0  0  0  0  0  0  0  0
  137.8935   76.3264  222.1667 H   0  0  0  0  0  0  0  0  0  0  0  0
  137.7195   78.7219  222.7499 H   0  0  0  0  0  0  0  0  0  0  0  0
  138.7517   80.7475  223.3376 H   0  0  0  0  0  0  0  0  0  0  0  0
  140.8338   82.0572  223.8362 H   0  0  0  0  0  0  0  0  0  0  0  0
  143.0119   80.9053  223.7304 H   0  0  0  0  0  0  0  0  0  0  0  0
  143.2078   78.5167  223.1482 H   0  0  0  0  0  0  0  0  0  0  0  0
  1  2  2  0
  2  3  1  0
  3  4  1  0
  4  5  1  0
  5  6  2  0
  5  7  1  0
  7  8  1  0
  8  9  1  0
  9 10  1  0
 10 11  1  0
 10 12  1  0
 12 13  1  0
 13 14  1  0
 14 15  1  0
 15 16  2  0
 16 17  1  0
 17 18  2  0
 18 19  1  0
 19 20  1  0
 19 21  2  0
  2 22  1  0
 22 23  2  0
 23 24  1  0
 24 25  2  0
 25 26  1  0
 26 27  2  0
 27 28  1  0
 28 29  2  0
 29 30  1  0
 30 31  2  0
 12  7  1  0
 21 15  1  0
 31 22  1  0
 30 25  1  0
  3 32  1  0
  4 33  1  0
  4 34  1  0
  8 35  1  0
  8 36  1  0
  9 37  1  0
  9 38  1  0
 10 39  1  1
 12 40  1  1
 13 41  1  0
 13 42  1  0
 16 43  1  0
 17 44  1  0
 18 45  1  0
 21 46  1  0
 23 47  1  0
 24 48  1  0
 26 49  1  0
 27 50  1  0
 28 51  1  0
 29 52  1  0
M  END
>  <smiles>  (39) 
O=C(NCC(=O)N1CC[C@H](F)[C@H]1COc1cccc(Cl)c1)c1ccc2ccccc2n1

>  <score_type>  (39) 
oracle

>  <origin>  (39) 
autodockgpu

>  <m_score__min__energy>  (39) 
-8.8200000000000003

>  <m_primary>  (39) 
energy

>  <rmsd>  (39) 
8.147216171583178

>  <m_score__min__rmsd>  (39) 
8.147216171583178

>  <meeko>  (39) 
{"free_energy": -8.18, "intermolecular_energy": -10.27, "internal_energy": -1.7, "cluster_size": 14, "cluster_id": 1, "rank_in_cluster": 11}

>  <energy>  (39) 
-8.07

>  <cluster_rmsd>  (39) 
1.38

>  <cluster>  (39) 
4

$$$$

     RDKit          3D

 52 55  0  0  0  0  0  0  0  0999 V2000
  140.8890   71.6860  221.4280 O   0  0  0  0  0  0  0  0  0  0  0  0
  140.2830   72.2120  222.4220 C   0  0  0  0  0  0  0  0  0  0  0  0
  139.7330   73.5070  222.3400 N   0  0  0  0  0  0  0  0  0  0  0  0
  139.8770   74.2270  221.0840 C   0  0  0  0  0  0  0  0  0  0  0  0
  140.7130   75.4310  221.3120 C   0  0  0  0  0  0  0  0  0  0  0  0
  140.5630   76.1990  222.3050 O   0  0  0  0  0  0  0  0  0  0  0  0
  141.7460   75.7780  220.3990 N   0  0  0  0  0  0  0  0  0  0  0  0
  142.1660   77.1450  220.1570 C   0  0  0  0  0  0  0  0  0  0  0  0
  142.5620   77.1180  218.7120 C   0  0  0  0  0  0  0  0  0  0  0  0
  142.4610   75.6790  218.2350 C   0  0  2  0  0  0  0  0  0  0  0  0
  141.2790   75.4080  217.5960 F   0  0  0  0  0  0  0  0  0  0  0  0
  142.5620   74.9240  219.5580 C   0  0  1  0  0  0  0  0  0  0  0  0
  143.9930   75.0870  220.0080 C   0  0  0  0  0  0  0  0  0  0  0  0
  144.3980   74.0570  220.8880 O   0  0  0  0  0  0  0  0  0  0  0  0
  144.6150   72.8080  220.3210 C   0  0  0  0  0  0  0  0  0  0  0  0
  145.8560   72.3750  219.9000 C   0  0  0  0  0  0  0  0  0  0  0  0
  145.9560   71.1150  219.3500 C   0  0  0  0  0  0  0  0  0  0  0  0
  144.8310   70.3080  219.2270 C   0  0  0  0  0  0  0  0  0  0  0  0
  143.5770   70.7300  219.6450 C   0  0  0  0  0  0  0  0  0  0  0  0
  142.1760   69.6880  219.4760 Cl  0  0  0  0  0  0  0  0  0  0  0  0
  143.4840   71.9940  220.1950 C   0  0  0  0  0  0  0  0  0  0  0  0
  140.1670   71.4470  223.6600 C   0  0  0  0  0  0  0  0  0  0  0  0
  139.5620   70.2000  223.6600 C   0  0  0  0  0  0  0  0  0  0  0  0
  139.4270   69.4370  224.8020 C   0  0  0  0  0  0  0  0  0  0  0  0
  139.9150   69.9460  225.9860 C   0  0  0  0  0  0  0  0  0  0  0  0
  139.7750   69.1770  227.1230 C   0  0  0  0  0  0  0  0  0  0  0  0
  140.2590   69.6670  228.3240 C   0  0  0  0  0  0  0  0  0  0  0  0
  140.8600   70.9070  228.3230 C   0  0  0  0  0  0  0  0  0  0  0  0
  141.0010   71.6800  227.1860 C   0  0  0  0  0  0  0  0  0  0  0  0
  140.5180   71.1890  225.9870 C   0  0  0  0  0  0  0  0  0  0  0  0
  140.6260   71.8930  224.8450 N   0  0  0  0  0  0  0  0  0  0  0  0
  139.2470   73.9060  223.1660 H   0  0  0  0  0  0  0  0  0  0  0  0
  140.3607   73.5774  220.3396 H   0  0  0  0  0  0  0  0  0  0  0  0
  138.8865   74.5268  220.7112 H   0  0  0  0  0  0  0  0  0  0  0  0
  141.3393   77.8500  220.3284 H   0  0  0  0  0  0  0  0  0  0  0  0
  142.9745   77.4775  220.8246 H   0  0  0  0  0  0  0  0  0  0  0  0
  141.8846   77.7560  218.1254 H   0  0  0  0  0  0  0  0  0  0  0  0
  143.5872   77.4960  218.5852 H   0  0  0  0  0  0  0  0  0  0  0  0
  143.2236   75.4127  217.4884 H   0  0  0  0  0  0  0  0  0  0  0  0
  142.2772   73.8616  219.5476 H   0  0  0  0  0  0  0  0  0  0  0  0
  144.6461   75.0737  219.1230 H   0  0  0  0  0  0  0  0  0  0  0  0
  144.0697   76.0419  220.5486 H   0  0  0  0  0  0  0  0  0  0  0  0
  146.7423   73.0187  220.0007 H   0  0  0  0  0  0  0  0  0  0  0  0
  146.9333   70.7455  219.0059 H   0  0  0  0  0  0  0  0  0  0  0  0
  144.9379   69.3061  218.7857 H   0  0  0  0  0  0  0  0  0  0  0  0
  142.5073   72.3655  220.5386 H   0  0  0  0  0  0  0  0  0  0  0  0
  139.1735   69.8022  222.7109 H   0  0  0  0  0  0  0  0  0  0  0  0
  138.9432   68.4497  224.7681 H   0  0  0  0  0  0  0  0  0  0  0  0
  139.2875   68.1921  227.0761 H   0  0  0  0  0  0  0  0  0  0  0  0
  140.1665   69.0835  229.2519 H   0  0  0  0  0  0  0  0  0  0  0  0
  141.2467   71.3012  229.2743 H   0  0  0  0  0  0  0  0  0  0  0  0
  141.4874   72.6655  227.2339 H   0  0  0  0  0  0  0  0  0  0  0  0
  1  2  2  0
  2  3  1  0
  3  4  1  0
  4  5  1  0
  5  6  2  0
  5  7  1  0
  7  8  1  0
  8  9  1  0
  9 10  1  0
 10 11  1  0
 10 12  1  0
 12 13  1  0
 13 14  1  0
 14 15  1  0
 15 16  2  0
 16 17  1  0
 17 18  2  0
 18 19  1  0
 19 20  1  0
 19 21  2  0
  2 22  1  0
 22 23  2  0
 23 24  1  0
 24 25  2  0
 25 26  1  0
 26 27  2  0
 27 28  1  0
 28 29  2  0
 29 30  1  0
 30 31  2  0
 12  7  1  0
 21 15  1  0
 31 22  1  0
 30 25  1  0
  3 32  1  0
  4 33  1  0
  4 34  1  0
  8 35  1  0
  8 36  1  0
  9 37  1  0
  9 38  1  0
 10 39  1  6
 12 40  1  6
 13 41  1  0
 13 42  1  0
 16 43  1  0
 17 44  1  0
 18 45  1  0
 21 46  1  0
 23 47  1  0
 24 48  1  0
 26 49  1  0
 27 50  1  0
 28 51  1  0
 29 52  1  0
M  END
>  <smiles>  (40) 
O=C(NCC(=O)N1CC[C@H](F)[C@H]1COc1cccc(Cl)c1)c1ccc2ccccc2n1

>  <score_type>  (40) 
oracle

>  <origin>  (40) 
autodockgpu

>  <m_score__min__energy>  (40) 
-8.8200000000000003

>  <m_primary>  (40) 
energy

>  <rmsd>  (40) 
2.43846989069835

>  <m_score__min__rmsd>  (40) 
2.43846989069835

>  <meeko>  (40) 
{"free_energy": -7.93, "intermolecular_energy": -10.02, "internal_energy": -1.91, "cluster_size": 7, "cluster_id": 4, "rank_in_cluster": 6}

>  <energy>  (40) 
-8.05

>  <cluster_rmsd>  (40) 
1.09

>  <cluster>  (40) 
4

$$$$

     RDKit          3D

 52 55  0  0  0  0  0  0  0  0999 V2000
  138.4610   74.9380  221.9320 O   0  0  0  0  0  0  0  0  0  0  0  0
  139.6590   75.3800  221.9720 C   0  0  0  0  0  0  0  0  0  0  0  0
  140.7530   74.5570  221.6380 N   0  0  0  0  0  0  0  0  0  0  0  0
  140.4740   73.1840  221.2460 C   0  0  0  0  0  0  0  0  0  0  0  0
  140.0380   72.4210  222.4400 C   0  0  0  0  0  0  0  0  0  0  0  0
  140.7250   72.3390  223.4980 O   0  0  0  0  0  0  0  0  0  0  0  0
  138.7930   71.7340  222.4440 N   0  0  0  0  0  0  0  0  0  0  0  0
  138.1550   71.2410  221.2380 C   0  0  0  0  0  0  0  0  0  0  0  0
  136.6970   71.3810  221.5550 C   0  0  0  0  0  0  0  0  0  0  0  0
  136.5830   71.8390  223.0000 C   0  0  2  0  0  0  0  0  0  0  0  0
  136.4220   73.1940  223.1210 F   0  0  0  0  0  0  0  0  0  0  0  0
  137.9300   71.3870  223.5570 C   0  0  1  0  0  0  0  0  0  0  0  0
  137.8590   69.8820  223.6160 C   0  0  0  0  0  0  0  0  0  0  0  0
  139.1300   69.2930  223.8200 O   0  0  0  0  0  0  0  0  0  0  0  0
  139.5660   69.2040  225.1350 C   0  0  0  0  0  0  0  0  0  0  0  0
  139.5540   68.0270  225.8560 C   0  0  0  0  0  0  0  0  0  0  0  0
  140.0110   68.0530  227.1560 C   0  0  0  0  0  0  0  0  0  0  0  0
  140.4700   69.2370  227.7180 C   0  0  0  0  0  0  0  0  0  0  0  0
  140.4890   70.4280  227.0060 C   0  0  0  0  0  0  0  0  0  0  0  0
  141.0760   71.9070  227.7440 Cl  0  0  0  0  0  0  0  0  0  0  0  0
  140.0290   70.3950  225.7030 C   0  0  0  0  0  0  0  0  0  0  0  0
  139.8840   76.7660  222.3730 C   0  0  0  0  0  0  0  0  0  0  0  0
  138.8120   77.6090  222.6210 C   0  0  0  0  0  0  0  0  0  0  0  0
  138.9700   78.9250  223.0020 C   0  0  0  0  0  0  0  0  0  0  0  0
  140.2520   79.4130  223.1380 C   0  0  0  0  0  0  0  0  0  0  0  0
  140.4010   80.7310  223.5190 C   0  0  0  0  0  0  0  0  0  0  0  0
  141.6790   81.2430  223.6620 C   0  0  0  0  0  0  0  0  0  0  0  0
  142.7440   80.4050  223.4150 C   0  0  0  0  0  0  0  0  0  0  0  0
  142.5980   79.0850  223.0330 C   0  0  0  0  0  0  0  0  0  0  0  0
  141.3220   78.5750  222.8910 C   0  0  0  0  0  0  0  0  0  0  0  0
  141.1130   77.2970  222.5220 N   0  0  0  0  0  0  0  0  0  0  0  0
  141.7140   74.9480  221.6810 H   0  0  0  0  0  0  0  0  0  0  0  0
  139.6764   73.1714  220.4886 H   0  0  0  0  0  0  0  0  0  0  0  0
  141.3804   72.7265  220.8228 H   0  0  0  0  0  0  0  0  0  0  0  0
  138.4314   71.8510  220.3654 H   0  0  0  0  0  0  0  0  0  0  0  0
  138.4482   70.2131  220.9783 H   0  0  0  0  0  0  0  0  0  0  0  0
  136.2379   72.1257  220.8881 H   0  0  0  0  0  0  0  0  0  0  0  0
  136.1765   70.4227  221.4112 H   0  0  0  0  0  0  0  0  0  0  0  0
  135.7044   71.4294  223.5200 H   0  0  0  0  0  0  0  0  0  0  0  0
  138.2286   71.7997  224.5320 H   0  0  0  0  0  0  0  0  0  0  0  0
  137.1969   69.5911  224.4448 H   0  0  0  0  0  0  0  0  0  0  0  0
  137.4730   69.5246  222.6499 H   0  0  0  0  0  0  0  0  0  0  0  0
  139.1892   67.0925  225.4047 H   0  0  0  0  0  0  0  0  0  0  0  0
  140.0122   67.1290  227.7528 H   0  0  0  0  0  0  0  0  0  0  0  0
  140.8290   69.2306  228.7578 H   0  0  0  0  0  0  0  0  0  0  0  0
  140.0271   71.3181  225.1047 H   0  0  0  0  0  0  0  0  0  0  0  0
  137.7924   77.2116  222.5092 H   0  0  0  0  0  0  0  0  0  0  0  0
  138.0974   79.5673  223.1920 H   0  0  0  0  0  0  0  0  0  0  0  0
  139.5203   81.3631  223.7056 H   0  0  0  0  0  0  0  0  0  0  0  0
  141.8395   82.2885  223.9641 H   0  0  0  0  0  0  0  0  0  0  0  0
  143.7618   80.8067  223.5275 H   0  0  0  0  0  0  0  0  0  0  0  0
  143.4792   78.4537  222.8460 H   0  0  0  0  0  0  0  0  0  0  0  0
  1  2  2  0
  2  3  1  0
  3  4  1  0
  4  5  1  0
  5  6  2  0
  5  7  1  0
  7  8  1  0
  8  9  1  0
  9 10  1  0
 10 11  1  0
 10 12  1  0
 12 13  1  0
 13 14  1  0
 14 15  1  0
 15 16  2  0
 16 17  1  0
 17 18  2  0
 18 19  1  0
 19 20  1  0
 19 21  2  0
  2 22  1  0
 22 23  2  0
 23 24  1  0
 24 25  2  0
 25 26  1  0
 26 27  2  0
 27 28  1  0
 28 29  2  0
 29 30  1  0
 30 31  2  0
 12  7  1  0
 21 15  1  0
 31 22  1  0
 30 25  1  0
  3 32  1  0
  4 33  1  0
  4 34  1  0
  8 35  1  0
  8 36  1  0
  9 37  1  0
  9 38  1  0
 10 39  1  1
 12 40  1  1
 13 41  1  0
 13 42  1  0
 16 43  1  0
 17 44  1  0
 18 45  1  0
 21 46  1  0
 23 47  1  0
 24 48  1  0
 26 49  1  0
 27 50  1  0
 28 51  1  0
 29 52  1  0
M  END
>  <smiles>  (41) 
O=C(NCC(=O)N1CC[C@H](F)[C@H]1COc1cccc(Cl)c1)c1ccc2ccccc2n1

>  <score_type>  (41) 
oracle

>  <origin>  (41) 
autodockgpu

>  <m_score__min__energy>  (41) 
-8.8200000000000003

>  <m_primary>  (41) 
energy

>  <rmsd>  (41) 
8.002746574337545

>  <m_score__min__rmsd>  (41) 
8.002746574337545

>  <meeko>  (41) 
{"free_energy": -8.43, "intermolecular_energy": -10.52, "internal_energy": -1.94, "cluster_size": 14, "cluster_id": 1, "rank_in_cluster": 7}

>  <energy>  (41) 
-7.93

>  <cluster_rmsd>  (41) 
1.86

>  <cluster>  (41) 
4

$$$$

     RDKit          3D

 52 55  0  0  0  0  0  0  0  0999 V2000
  138.0600   69.4410  222.0040 O   0  0  0  0  0  0  0  0  0  0  0  0
  138.6480   70.4820  222.4530 C   0  0  0  0  0  0  0  0  0  0  0  0
  138.7270   71.6640  221.6890 N   0  0  0  0  0  0  0  0  0  0  0  0
  138.1150   71.6610  220.3690 C   0  0  0  0  0  0  0  0  0  0  0  0
  137.6950   73.0420  220.0300 C   0  0  0  0  0  0  0  0  0  0  0  0
  137.3610   73.3970  218.8640 O   0  0  0  0  0  0  0  0  0  0  0  0
  137.6490   74.0500  221.0320 N   0  0  0  0  0  0  0  0  0  0  0  0
  136.9080   73.9040  222.2700 C   0  0  0  0  0  0  0  0  0  0  0  0
  136.4640   75.3070  222.5560 C   0  0  0  0  0  0  0  0  0  0  0  0
  137.0940   76.2110  221.5090 C   0  0  2  0  0  0  0  0  0  0  0  0
  136.2530   76.4870  220.4630 F   0  0  0  0  0  0  0  0  0  0  0  0
  138.2770   75.3570  221.0600 C   0  0  1  0  0  0  0  0  0  0  0  0
  139.2440   75.3640  222.2170 C   0  0  0  0  0  0  0  0  0  0  0  0
  139.9320   74.1350  222.3480 O   0  0  0  0  0  0  0  0  0  0  0  0
  141.0540   73.9660  221.5470 C   0  0  0  0  0  0  0  0  0  0  0  0
  141.6730   72.7460  221.3630 C   0  0  0  0  0  0  0  0  0  0  0  0
  142.7820   72.6930  220.5450 C   0  0  0  0  0  0  0  0  0  0  0  0
  143.2570   73.8420  219.9270 C   0  0  0  0  0  0  0  0  0  0  0  0
  142.6450   75.0760  220.1020 C   0  0  0  0  0  0  0  0  0  0  0  0
  143.2680   76.5090  219.3060 Cl  0  0  0  0  0  0  0  0  0  0  0  0
  141.5340   75.1220  220.9230 C   0  0  0  0  0  0  0  0  0  0  0  0
  139.2470   70.4330  223.7840 C   0  0  0  0  0  0  0  0  0  0  0  0
  139.9550   71.5180  224.2760 C   0  0  0  0  0  0  0  0  0  0  0  0
  140.5390   71.5220  225.5250 C   0  0  0  0  0  0  0  0  0  0  0  0
  140.4090   70.3950  226.3090 C   0  0  0  0  0  0  0  0  0  0  0  0
  140.9970   70.4080  227.5570 C   0  0  0  0  0  0  0  0  0  0  0  0
  140.8790   69.2880  228.3620 C   0  0  0  0  0  0  0  0  0  0  0  0
  140.1750   68.2100  227.8710 C   0  0  0  0  0  0  0  0  0  0  0  0
  139.5850   68.1940  226.6220 C   0  0  0  0  0  0  0  0  0  0  0  0
  139.7040   69.3130  225.8200 C   0  0  0  0  0  0  0  0  0  0  0  0
  139.1520   69.3600  224.5930 N   0  0  0  0  0  0  0  0  0  0  0  0
  139.2130   72.4920  222.0840 H   0  0  0  0  0  0  0  0  0  0  0  0
  138.8428   71.3036  219.6256 H   0  0  0  0  0  0  0  0  0  0  0  0
  137.2399   70.9945  220.3660 H   0  0  0  0  0  0  0  0  0  0  0  0
  136.0455   73.2339  222.1393 H   0  0  0  0  0  0  0  0  0  0  0  0
  137.5003   73.4593  223.0833 H   0  0  0  0  0  0  0  0  0  0  0  0
  135.3675   75.3727  222.4975 H   0  0  0  0  0  0  0  0  0  0  0  0
  136.7740   75.6118  223.5664 H   0  0  0  0  0  0  0  0  0  0  0  0
  137.3587   77.2067  221.8943 H   0  0  0  0  0  0  0  0  0  0  0  0
  138.7825   75.6577  220.1304 H   0  0  0  0  0  0  0  0  0  0  0  0
  139.9797   76.1663  222.0585 H   0  0  0  0  0  0  0  0  0  0  0  0
  138.6656   75.5262  223.1385 H   0  0  0  0  0  0  0  0  0  0  0  0
  141.2916   71.8397  221.8560 H   0  0  0  0  0  0  0  0  0  0  0  0
  143.2940   71.7334  220.3809 H   0  0  0  0  0  0  0  0  0  0  0  0
  144.1439   73.7727  219.2800 H   0  0  0  0  0  0  0  0  0  0  0  0
  141.0204   76.0807  221.0878 H   0  0  0  0  0  0  0  0  0  0  0  0
  140.0552   72.4128  223.6441 H   0  0  0  0  0  0  0  0  0  0  0  0
  141.0937   72.4005  225.8863 H   0  0  0  0  0  0  0  0  0  0  0  0
  141.5497   71.2926  227.9062 H   0  0  0  0  0  0  0  0  0  0  0  0
  141.3335   69.2594  229.3633 H   0  0  0  0  0  0  0  0  0  0  0  0
  140.0779   67.3169  228.5058 H   0  0  0  0  0  0  0  0  0  0  0  0
  139.0322   67.3092  226.2732 H   0  0  0  0  0  0  0  0  0  0  0  0
  1  2  2  0
  2  3  1  0
  3  4  1  0
  4  5  1  0
  5  6  2  0
  5  7  1  0
  7  8  1  0
  8  9  1  0
  9 10  1  0
 10 11  1  0
 10 12  1  0
 12 13  1  0
 13 14  1  0
 14 15  1  0
 15 16  2  0
 16 17  1  0
 17 18  2  0
 18 19  1  0
 19 20  1  0
 19 21  2  0
  2 22  1  0
 22 23  2  0
 23 24  1  0
 24 25  2  0
 25 26  1  0
 26 27  2  0
 27 28  1  0
 28 29  2  0
 29 30  1  0
 30 31  2  0
 12  7  1  0
 21 15  1  0
 31 22  1  0
 30 25  1  0
  3 32  1  0
  4 33  1  0
  4 34  1  0
  8 35  1  0
  8 36  1  0
  9 37  1  0
  9 38  1  0
 10 39  1  1
 12 40  1  6
 13 41  1  0
 13 42  1  0
 16 43  1  0
 17 44  1  0
 18 45  1  0
 21 46  1  0
 23 47  1  0
 24 48  1  0
 26 49  1  0
 27 50  1  0
 28 51  1  0
 29 52  1  0
M  END
>  <smiles>  (42) 
O=C(NCC(=O)N1CC[C@H](F)[C@H]1COc1cccc(Cl)c1)c1ccc2ccccc2n1

>  <score_type>  (42) 
oracle

>  <origin>  (42) 
autodockgpu

>  <m_score__min__energy>  (42) 
-8.8200000000000003

>  <m_primary>  (42) 
energy

>  <rmsd>  (42) 
3.7187111107342585

>  <m_score__min__rmsd>  (42) 
3.7187111107342585

>  <meeko>  (42) 
{"free_energy": -6.65, "intermolecular_energy": -8.73, "internal_energy": -2.93, "cluster_size": 2, "cluster_id": 6, "rank_in_cluster": 2}

>  <energy>  (42) 
-7.56

>  <cluster_rmsd>  (42) 
0.72

>  <cluster>  (42) 
4

$$$$

     RDKit          3D

 52 55  0  0  0  0  0  0  0  0999 V2000
  138.0080   75.6740  222.5320 O   0  0  0  0  0  0  0  0  0  0  0  0
  139.1600   76.0680  222.1460 C   0  0  0  0  0  0  0  0  0  0  0  0
  139.9680   75.2640  221.3170 N   0  0  0  0  0  0  0  0  0  0  0  0
  139.4460   73.9670  220.9140 C   0  0  0  0  0  0  0  0  0  0  0  0
  139.6660   72.9960  222.0150 C   0  0  0  0  0  0  0  0  0  0  0  0
  140.6980   73.0000  222.7450 O   0  0  0  0  0  0  0  0  0  0  0  0
  138.6970   71.9970  222.3000 N   0  0  0  0  0  0  0  0  0  0  0  0
  137.9400   71.3080  221.2720 C   0  0  0  0  0  0  0  0  0  0  0  0
  136.6250   71.0550  221.9440 C   0  0  0  0  0  0  0  0  0  0  0  0
  136.7500   71.5120  223.3870 C   0  0  2  0  0  0  0  0  0  0  0  0
  136.2610   72.7760  223.5940 F   0  0  0  0  0  0  0  0  0  0  0  0
  138.2640   71.4650  223.5780 C   0  0  1  0  0  0  0  0  0  0  0  0
  138.6230   70.0000  223.5990 C   0  0  0  0  0  0  0  0  0  0  0  0
  139.9750   69.7850  223.9580 O   0  0  0  0  0  0  0  0  0  0  0  0
  140.3510   70.1990  225.2290 C   0  0  0  0  0  0  0  0  0  0  0  0
  140.6400   71.5120  225.5400 C   0  0  0  0  0  0  0  0  0  0  0  0
  141.0040   71.8100  226.8370 C   0  0  0  0  0  0  0  0  0  0  0  0
  141.0740   70.8100  227.7970 C   0  0  0  0  0  0  0  0  0  0  0  0
  140.7860   69.4850  227.4990 C   0  0  0  0  0  0  0  0  0  0  0  0
  140.8840   68.2440  228.7350 Cl  0  0  0  0  0  0  0  0  0  0  0  0
  140.4220   69.1920  226.1980 C   0  0  0  0  0  0  0  0  0  0  0  0
  139.6380   77.3790  222.5790 C   0  0  0  0  0  0  0  0  0  0  0  0
  138.7450   78.3330  223.0420 C   0  0  0  0  0  0  0  0  0  0  0  0
  139.1440   79.5850  223.4630 C   0  0  0  0  0  0  0  0  0  0  0  0
  140.4880   79.8900  223.4160 C   0  0  0  0  0  0  0  0  0  0  0  0
  140.8780   81.1440  223.8380 C   0  0  0  0  0  0  0  0  0  0  0  0
  142.2220   81.4720  223.8010 C   0  0  0  0  0  0  0  0  0  0  0  0
  143.1080   80.5230  223.3400 C   0  0  0  0  0  0  0  0  0  0  0  0
  142.7200   79.2660  222.9160 C   0  0  0  0  0  0  0  0  0  0  0  0
  141.3780   78.9400  222.9550 C   0  0  0  0  0  0  0  0  0  0  0  0
  140.9370   77.7320  222.5560 N   0  0  0  0  0  0  0  0  0  0  0  0
  140.9000   75.6140  221.0210 H   0  0  0  0  0  0  0  0  0  0  0  0
  138.3692   74.0511  220.7057 H   0  0  0  0  0  0  0  0  0  0  0  0
  139.9629   73.6235  220.0058 H   0  0  0  0  0  0  0  0  0  0  0  0
  137.8147   71.9405  220.3808 H   0  0  0  0  0  0  0  0  0  0  0  0
  138.4289   70.3911  220.9110 H   0  0  0  0  0  0  0  0  0  0  0  0
  135.8302   71.6230  221.4384 H   0  0  0  0  0  0  0  0  0  0  0  0
  136.3677   69.9865  221.8986 H   0  0  0  0  0  0  0  0  0  0  0  0
  136.1725   70.8952  224.0913 H   0  0  0  0  0  0  0  0  0  0  0  0
  138.6700   71.9766  224.4631 H   0  0  0  0  0  0  0  0  0  0  0  0
  137.9775   69.4877  224.3276 H   0  0  0  0  0  0  0  0  0  0  0  0
  138.4762   69.6022  222.5840 H   0  0  0  0  0  0  0  0  0  0  0  0
  140.5817   72.2998  224.7745 H   0  0  0  0  0  0  0  0  0  0  0  0
  141.2406   72.8483  227.1125 H   0  0  0  0  0  0  0  0  0  0  0  0
  141.3662   71.0750  228.8238 H   0  0  0  0  0  0  0  0  0  0  0  0
  140.1852   68.1541  225.9210 H   0  0  0  0  0  0  0  0  0  0  0  0
  137.6746   78.0816  223.0751 H   0  0  0  0  0  0  0  0  0  0  0  0
  138.4102   80.3196  223.8261 H   0  0  0  0  0  0  0  0  0  0  0  0
  140.1341   81.8702  224.1975 H   0  0  0  0  0  0  0  0  0  0  0  0
  142.5726   82.4614  224.1300 H   0  0  0  0  0  0  0  0  0  0  0  0
  144.1775   80.7784  223.3078 H   0  0  0  0  0  0  0  0  0  0  0  0
  143.4640   78.5405  222.5551 H   0  0  0  0  0  0  0  0  0  0  0  0
  1  2  2  0
  2  3  1  0
  3  4  1  0
  4  5  1  0
  5  6  2  0
  5  7  1  0
  7  8  1  0
  8  9  1  0
  9 10  1  0
 10 11  1  0
 10 12  1  0
 12 13  1  0
 13 14  1  0
 14 15  1  0
 15 16  2  0
 16 17  1  0
 17 18  2  0
 18 19  1  0
 19 20  1  0
 19 21  2  0
  2 22  1  0
 22 23  2  0
 23 24  1  0
 24 25  2  0
 25 26  1  0
 26 27  2  0
 27 28  1  0
 28 29  2  0
 29 30  1  0
 30 31  2  0
 12  7  1  0
 21 15  1  0
 31 22  1  0
 30 25  1  0
  3 32  1  0
  4 33  1  0
  4 34  1  0
  8 35  1  0
  8 36  1  0
  9 37  1  0
  9 38  1  0
 10 39  1  1
 12 40  1  1
 13 41  1  0
 13 42  1  0
 16 43  1  0
 17 44  1  0
 18 45  1  0
 21 46  1  0
 23 47  1  0
 24 48  1  0
 26 49  1  0
 27 50  1  0
 28 51  1  0
 29 52  1  0
M  END
>  <smiles>  (43) 
O=C(NCC(=O)N1CC[C@H](F)[C@H]1COc1cccc(Cl)c1)c1ccc2ccccc2n1

>  <score_type>  (43) 
oracle

>  <origin>  (43) 
autodockgpu

>  <m_score__min__energy>  (43) 
-8.8200000000000003

>  <m_primary>  (43) 
energy

>  <rmsd>  (43) 
8.204282610252232

>  <m_score__min__rmsd>  (43) 
8.204282610252232

>  <meeko>  (43) 
{"free_energy": -8.45, "intermolecular_energy": -10.54, "internal_energy": -1.72, "cluster_size": 14, "cluster_id": 1, "rank_in_cluster": 6}

>  <energy>  (43) 
-7.46

>  <cluster_rmsd>  (43) 
0.0

>  <cluster>  (43) 
5

$$$$

     RDKit          3D

 52 55  0  0  0  0  0  0  0  0999 V2000
  140.0580   71.2140  221.2600 O   0  0  0  0  0  0  0  0  0  0  0  0
  139.9090   71.8650  222.3490 C   0  0  0  0  0  0  0  0  0  0  0  0
  139.6870   73.2570  222.3450 N   0  0  0  0  0  0  0  0  0  0  0  0
  139.6340   73.9310  221.0570 C   0  0  0  0  0  0  0  0  0  0  0  0
  140.2640   75.2670  221.1860 C   0  0  0  0  0  0  0  0  0  0  0  0
  140.1570   75.9850  222.2210 O   0  0  0  0  0  0  0  0  0  0  0  0
  141.0350   75.8080  220.1220 N   0  0  0  0  0  0  0  0  0  0  0  0
  140.5980   75.7970  218.7390 C   0  0  0  0  0  0  0  0  0  0  0  0
  141.8870   75.6590  217.9870 C   0  0  0  0  0  0  0  0  0  0  0  0
  143.0190   75.7250  218.9980 C   0  0  2  0  0  0  0  0  0  0  0  0
  143.4690   74.4880  219.3810 F   0  0  0  0  0  0  0  0  0  0  0  0
  142.3360   76.4500  220.1540 C   0  0  1  0  0  0  0  0  0  0  0  0
  142.1470   77.8710  219.6850 C   0  0  0  0  0  0  0  0  0  0  0  0
  140.9740   78.4590  220.2160 O   0  0  0  0  0  0  0  0  0  0  0  0
  141.1070   79.1090  221.4360 C   0  0  0  0  0  0  0  0  0  0  0  0
  142.3290   79.4390  221.9870 C   0  0  0  0  0  0  0  0  0  0  0  0
  142.3420   80.0850  223.2050 C   0  0  0  0  0  0  0  0  0  0  0  0
  141.1530   80.3910  223.8540 C   0  0  0  0  0  0  0  0  0  0  0  0
  139.9170   80.0660  223.3130 C   0  0  0  0  0  0  0  0  0  0  0  0
  138.4330   80.4670  224.1570 Cl  0  0  0  0  0  0  0  0  0  0  0  0
  139.9100   79.4190  222.0920 C   0  0  0  0  0  0  0  0  0  0  0  0
  139.9720   71.1400  223.6150 C   0  0  0  0  0  0  0  0  0  0  0  0
  139.5270   69.8300  223.6970 C   0  0  0  0  0  0  0  0  0  0  0  0
  139.5650   69.1020  224.8680 C   0  0  0  0  0  0  0  0  0  0  0  0
  140.0660   69.7120  225.9980 C   0  0  0  0  0  0  0  0  0  0  0  0
  140.1000   68.9770  227.1650 C   0  0  0  0  0  0  0  0  0  0  0  0
  140.6000   69.5680  228.3120 C   0  0  0  0  0  0  0  0  0  0  0  0
  141.0420   70.8710  228.2290 C   0  0  0  0  0  0  0  0  0  0  0  0
  141.0100   71.6100  227.0620 C   0  0  0  0  0  0  0  0  0  0  0  0
  140.5100   71.0170  225.9180 C   0  0  0  0  0  0  0  0  0  0  0  0
  140.4520   71.6840  224.7500 N   0  0  0  0  0  0  0  0  0  0  0  0
  139.5700   73.7550  223.2480 H   0  0  0  0  0  0  0  0  0  0  0  0
  140.1778   73.3375  220.3073 H   0  0  0  0  0  0  0  0  0  0  0  0
  138.5871   74.0426  220.7383 H   0  0  0  0  0  0  0  0  0  0  0  0
  139.9301   74.9457  218.5409 H   0  0  0  0  0  0  0  0  0  0  0  0
  140.0214   76.6901  218.4564 H   0  0  0  0  0  0  0  0  0  0  0  0
  141.9116   74.6943  217.4590 H   0  0  0  0  0  0  0  0  0  0  0  0
  141.9873   76.4624  217.2423 H   0  0  0  0  0  0  0  0  0  0  0  0
  143.9229   76.2171  218.6096 H   0  0  0  0  0  0  0  0  0  0  0  0
  142.8484   76.4280  221.1271 H   0  0  0  0  0  0  0  0  0  0  0  0
  143.0160   78.4667  220.0012 H   0  0  0  0  0  0  0  0  0  0  0  0
  142.0496   77.8543  218.5894 H   0  0  0  0  0  0  0  0  0  0  0  0
  143.2673   79.1931  221.4682 H   0  0  0  0  0  0  0  0  0  0  0  0
  143.3019   80.3602  223.6664 H   0  0  0  0  0  0  0  0  0  0  0  0
  141.1920   80.9060  224.8252 H   0  0  0  0  0  0  0  0  0  0  0  0
  138.9507   79.1439  221.6293 H   0  0  0  0  0  0  0  0  0  0  0  0
  139.1271   69.3512  222.7910 H   0  0  0  0  0  0  0  0  0  0  0  0
  139.2053   68.0629  224.8992 H   0  0  0  0  0  0  0  0  0  0  0  0
  139.7360   67.9391  227.1834 H   0  0  0  0  0  0  0  0  0  0  0  0
  140.6434   69.0145  229.2616 H   0  0  0  0  0  0  0  0  0  0  0  0
  141.4402   71.3464  229.1375 H   0  0  0  0  0  0  0  0  0  0  0  0
  141.3745   72.6477  227.0438 H   0  0  0  0  0  0  0  0  0  0  0  0
  1  2  2  0
  2  3  1  0
  3  4  1  0
  4  5  1  0
  5  6  2  0
  5  7  1  0
  7  8  1  0
  8  9  1  0
  9 10  1  0
 10 11  1  0
 10 12  1  0
 12 13  1  0
 13 14  1  0
 14 15  1  0
 15 16  2  0
 16 17  1  0
 17 18  2  0
 18 19  1  0
 19 20  1  0
 19 21  2  0
  2 22  1  0
 22 23  2  0
 23 24  1  0
 24 25  2  0
 25 26  1  0
 26 27  2  0
 27 28  1  0
 28 29  2  0
 29 30  1  0
 30 31  2  0
 12  7  1  0
 21 15  1  0
 31 22  1  0
 30 25  1  0
  3 32  1  0
  4 33  1  0
  4 34  1  0
  8 35  1  0
  8 36  1  0
  9 37  1  0
  9 38  1  0
 10 39  1  6
 12 40  1  1
 13 41  1  0
 13 42  1  0
 16 43  1  0
 17 44  1  0
 18 45  1  0
 21 46  1  0
 23 47  1  0
 24 48  1  0
 26 49  1  0
 27 50  1  0
 28 51  1  0
 29 52  1  0
M  END
>  <smiles>  (44) 
O=C(NCC(=O)N1CC[C@H](F)[C@H]1COc1cccc(Cl)c1)c1ccc2ccccc2n1

>  <score_type>  (44) 
oracle

>  <origin>  (44) 
autodockgpu

>  <m_score__min__energy>  (44) 
-8.8200000000000003

>  <m_primary>  (44) 
energy

>  <rmsd>  (44) 
1.4856260854980954

>  <m_score__min__rmsd>  (44) 
1.4856260854980954

>  <meeko>  (44) 
{"free_energy": -8.4, "intermolecular_energy": -10.49, "internal_energy": -1.89, "cluster_size": 18, "cluster_id": 2, "rank_in_cluster": 8}

>  <energy>  (44) 
-7.06

>  <cluster_rmsd>  (44) 
0.0

>  <cluster>  (44) 
6

$$$$

     RDKit          3D

 52 55  0  0  0  0  0  0  0  0999 V2000
  140.8450   72.9600  222.6610 O   0  0  0  0  0  0  0  0  0  0  0  0
  139.9860   72.0720  222.9840 C   0  0  0  0  0  0  0  0  0  0  0  0
  138.8780   71.7920  222.1590 N   0  0  0  0  0  0  0  0  0  0  0  0
  138.7450   72.5490  220.9230 C   0  0  0  0  0  0  0  0  0  0  0  0
  138.7540   73.9970  221.2420 C   0  0  0  0  0  0  0  0  0  0  0  0
  137.9300   74.5360  222.0350 O   0  0  0  0  0  0  0  0  0  0  0  0
  139.7170   74.8610  220.6520 N   0  0  0  0  0  0  0  0  0  0  0  0
  139.9410   74.9410  219.2210 C   0  0  0  0  0  0  0  0  0  0  0  0
  141.4070   75.2370  219.1330 C   0  0  0  0  0  0  0  0  0  0  0  0
  141.9220   75.4360  220.5490 C   0  0  2  0  0  0  0  0  0  0  0  0
  142.4970   74.3070  221.0740 F   0  0  0  0  0  0  0  0  0  0  0  0
  140.6320   75.7940  221.2820 C   0  0  1  0  0  0  0  0  0  0  0  0
  140.2650   77.1750  220.8010 C   0  0  0  0  0  0  0  0  0  0  0  0
  141.3720   78.0560  220.8030 O   0  0  0  0  0  0  0  0  0  0  0  0
  141.4050   79.0060  221.8150 C   0  0  0  0  0  0  0  0  0  0  0  0
  142.5770   79.5500  222.3010 C   0  0  0  0  0  0  0  0  0  0  0  0
  142.4920   80.4870  223.3100 C   0  0  0  0  0  0  0  0  0  0  0  0
  141.2570   80.8670  223.8170 C   0  0  0  0  0  0  0  0  0  0  0  0
  140.0700   80.3280  223.3380 C   0  0  0  0  0  0  0  0  0  0  0  0
  138.5250   80.8300  223.9990 Cl  0  0  0  0  0  0  0  0  0  0  0  0
  140.1620   79.3900  222.3280 C   0  0  0  0  0  0  0  0  0  0  0  0
  140.1660   71.3410  224.2360 C   0  0  0  0  0  0  0  0  0  0  0  0
  140.8670   71.9120  225.2870 C   0  0  0  0  0  0  0  0  0  0  0  0
  141.0650   71.2640  226.4890 C   0  0  0  0  0  0  0  0  0  0  0  0
  140.5410   69.9980  226.6400 C   0  0  0  0  0  0  0  0  0  0  0  0
  140.7450   69.3580  227.8450 C   0  0  0  0  0  0  0  0  0  0  0  0
  140.2270   68.0860  228.0210 C   0  0  0  0  0  0  0  0  0  0  0  0
  139.5310   67.5200  226.9750 C   0  0  0  0  0  0  0  0  0  0  0  0
  139.3260   68.1590  225.7670 C   0  0  0  0  0  0  0  0  0  0  0  0
  139.8430   69.4290  225.5940 C   0  0  0  0  0  0  0  0  0  0  0  0
  139.6770   70.1040  224.4410 N   0  0  0  0  0  0  0  0  0  0  0  0
  138.1980   71.0640  222.4510 H   0  0  0  0  0  0  0  0  0  0  0  0
  139.5855   72.3133  220.2536 H   0  0  0  0  0  0  0  0  0  0  0  0
  137.8014   72.2837  220.4238 H   0  0  0  0  0  0  0  0  0  0  0  0
  139.6984   73.9882  218.7277 H   0  0  0  0  0  0  0  0  0  0  0  0
  139.3130   75.6940  218.7224 H   0  0  0  0  0  0  0  0  0  0  0  0
  141.9317   74.3950  218.6580 H   0  0  0  0  0  0  0  0  0  0  0  0
  141.5832   76.1385  218.5278 H   0  0  0  0  0  0  0  0  0  0  0  0
  142.7214   76.1882  220.6207 H   0  0  0  0  0  0  0  0  0  0  0  0
  140.6578   75.7599  222.3812 H   0  0  0  0  0  0  0  0  0  0  0  0
  139.8743   77.1002  219.7755 H   0  0  0  0  0  0  0  0  0  0  0  0
  139.5100   77.5817  221.4898 H   0  0  0  0  0  0  0  0  0  0  0  0
  143.5525   79.2446  221.8946 H   0  0  0  0  0  0  0  0  0  0  0  0
  143.4102   80.9365  223.7159 H   0  0  0  0  0  0  0  0  0  0  0  0
  141.2173   81.6165  224.6212 H   0  0  0  0  0  0  0  0  0  0  0  0
  139.2448   78.9389  221.9216 H   0  0  0  0  0  0  0  0  0  0  0  0
  141.2821   72.9224  225.1574 H   0  0  0  0  0  0  0  0  0  0  0  0
  141.6256   71.7445  227.3044 H   0  0  0  0  0  0  0  0  0  0  0  0
  141.3090   69.8494  228.6515 H   0  0  0  0  0  0  0  0  0  0  0  0
  140.3669   67.5435  228.9676 H   0  0  0  0  0  0  0  0  0  0  0  0
  139.1180   66.5092  227.1083 H   0  0  0  0  0  0  0  0  0  0  0  0
  138.7631   67.6671  224.9600 H   0  0  0  0  0  0  0  0  0  0  0  0
  1  2  2  0
  2  3  1  0
  3  4  1  0
  4  5  1  0
  5  6  2  0
  5  7  1  0
  7  8  1  0
  8  9  1  0
  9 10  1  0
 10 11  1  0
 10 12  1  0
 12 13  1  0
 13 14  1  0
 14 15  1  0
 15 16  2  0
 16 17  1  0
 17 18  2  0
 18 19  1  0
 19 20  1  0
 19 21  2  0
  2 22  1  0
 22 23  2  0
 23 24  1  0
 24 25  2  0
 25 26  1  0
 26 27  2  0
 27 28  1  0
 28 29  2  0
 29 30  1  0
 30 31  2  0
 12  7  1  0
 21 15  1  0
 31 22  1  0
 30 25  1  0
  3 32  1  0
  4 33  1  0
  4 34  1  0
  8 35  1  0
  8 36  1  0
  9 37  1  0
  9 38  1  0
 10 39  1  6
 12 40  1  1
 13 41  1  0
 13 42  1  0
 16 43  1  0
 17 44  1  0
 18 45  1  0
 21 46  1  0
 23 47  1  0
 24 48  1  0
 26 49  1  0
 27 50  1  0
 28 51  1  0
 29 52  1  0
M  END
>  <smiles>  (45) 
O=C(NCC(=O)N1CC[C@H](F)[C@H]1COc1cccc(Cl)c1)c1ccc2ccccc2n1

>  <score_type>  (45) 
oracle

>  <origin>  (45) 
autodockgpu

>  <m_score__min__energy>  (45) 
-8.8200000000000003

>  <m_primary>  (45) 
energy

>  <rmsd>  (45) 
2.846595837712206

>  <m_score__min__rmsd>  (45) 
2.846595837712206

>  <meeko>  (45) 
{"free_energy": -7.83, "intermolecular_energy": -9.92, "internal_energy": -1.52, "cluster_size": 18, "cluster_id": 2, "rank_in_cluster": 15}

>  <energy>  (45) 
-6.65

>  <cluster_rmsd>  (45) 
1.3

>  <cluster>  (45) 
6

$$$$

     RDKit          3D

 52 55  0  0  0  0  0  0  0  0999 V2000
  140.6540   75.1690  220.3370 O   0  0  0  0  0  0  0  0  0  0  0  0
  140.1750   75.3600  221.5060 C   0  0  0  0  0  0  0  0  0  0  0  0
  139.6280   74.2980  222.2540 N   0  0  0  0  0  0  0  0  0  0  0  0
  139.6250   72.9740  221.6510 C   0  0  0  0  0  0  0  0  0  0  0  0
  139.5390   71.9560  222.7260 C   0  0  0  0  0  0  0  0  0  0  0  0
  140.5030   71.6780  223.4950 O   0  0  0  0  0  0  0  0  0  0  0  0
  138.3340   71.2340  222.9420 N   0  0  0  0  0  0  0  0  0  0  0  0
  137.5920   70.5900  221.8740 C   0  0  0  0  0  0  0  0  0  0  0  0
  136.1720   70.7160  222.3360 C   0  0  0  0  0  0  0  0  0  0  0  0
  136.1940   71.3260  223.7270 C   0  0  2  0  0  0  0  0  0  0  0  0
  135.9860   72.6810  223.7220 F   0  0  0  0  0  0  0  0  0  0  0  0
  137.6120   70.9830  224.1750 C   0  0  1  0  0  0  0  0  0  0  0  0
  137.6150   69.4920  224.4010 C   0  0  0  0  0  0  0  0  0  0  0  0
  138.9210   68.9490  224.3730 O   0  0  0  0  0  0  0  0  0  0  0  0
  139.6130   68.9400  225.5770 C   0  0  0  0  0  0  0  0  0  0  0  0
  139.9630   67.7800  226.2380 C   0  0  0  0  0  0  0  0  0  0  0  0
  140.6500   67.8890  227.4290 C   0  0  0  0  0  0  0  0  0  0  0  0
  140.9780   69.1380  227.9410 C   0  0  0  0  0  0  0  0  0  0  0  0
  140.6340   70.3130  227.2880 C   0  0  0  0  0  0  0  0  0  0  0  0
  141.0640   71.8740  227.9600 Cl  0  0  0  0  0  0  0  0  0  0  0  0
  139.9450   70.1970  226.0950 C   0  0  0  0  0  0  0  0  0  0  0  0
  140.2010   76.7090  222.0650 C   0  0  0  0  0  0  0  0  0  0  0  0
  139.0250   77.3300  222.4550 C   0  0  0  0  0  0  0  0  0  0  0  0
  138.9950   78.6010  222.9890 C   0  0  0  0  0  0  0  0  0  0  0  0
  140.1900   79.2750  223.1330 C   0  0  0  0  0  0  0  0  0  0  0  0
  140.1510   80.5460  223.6670 C   0  0  0  0  0  0  0  0  0  0  0  0
  141.3370   81.2420  223.8230 C   0  0  0  0  0  0  0  0  0  0  0  0
  142.5060   80.6240  223.4330 C   0  0  0  0  0  0  0  0  0  0  0  0
  142.5480   79.3500  222.8980 C   0  0  0  0  0  0  0  0  0  0  0  0
  141.3620   78.6570  222.7440 C   0  0  0  0  0  0  0  0  0  0  0  0
  141.3370   77.4140  222.2300 N   0  0  0  0  0  0  0  0  0  0  0  0
  139.2470   74.4880  223.2010 H   0  0  0  0  0  0  0  0  0  0  0  0
  138.7591   72.8761  220.9798 H   0  0  0  0  0  0  0  0  0  0  0  0
  140.5483   72.8266  221.0716 H   0  0  0  0  0  0  0  0  0  0  0  0
  137.7449   71.1088  220.9161 H   0  0  0  0  0  0  0  0  0  0  0  0
  137.9013   69.5499  221.6935 H   0  0  0  0  0  0  0  0  0  0  0  0
  135.6106   71.3671  221.6497 H   0  0  0  0  0  0  0  0  0  0  0  0
  135.6827   69.7310  222.3538 H   0  0  0  0  0  0  0  0  0  0  0  0
  135.3956   70.9471  224.3819 H   0  0  0  0  0  0  0  0  0  0  0  0
  137.9951   71.5101  225.0613 H   0  0  0  0  0  0  0  0  0  0  0  0
  137.1651   69.2818  225.3825 H   0  0  0  0  0  0  0  0  0  0  0  0
  137.0387   69.0265  223.5879 H   0  0  0  0  0  0  0  0  0  0  0  0
  139.7009   66.7944  225.8258 H   0  0  0  0  0  0  0  0  0  0  0  0
  140.9402   66.9806  227.9773 H   0  0  0  0  0  0  0  0  0  0  0  0
  141.5268   69.1973  228.8925 H   0  0  0  0  0  0  0  0  0  0  0  0
  139.6540   71.1046  225.5458 H   0  0  0  0  0  0  0  0  0  0  0  0
  138.0763   76.7866  222.3336 H   0  0  0  0  0  0  0  0  0  0  0  0
  138.0445   79.0646  223.2918 H   0  0  0  0  0  0  0  0  0  0  0  0
  139.1935   80.9988  223.9639 H   0  0  0  0  0  0  0  0  0  0  0  0
  141.3466   82.2576  224.2454 H   0  0  0  0  0  0  0  0  0  0  0  0
  143.4522   81.1718  223.5535 H   0  0  0  0  0  0  0  0  0  0  0  0
  143.5054   78.8971  222.6010 H   0  0  0  0  0  0  0  0  0  0  0  0
  1  2  2  0
  2  3  1  0
  3  4  1  0
  4  5  1  0
  5  6  2  0
  5  7  1  0
  7  8  1  0
  8  9  1  0
  9 10  1  0
 10 11  1  0
 10 12  1  0
 12 13  1  0
 13 14  1  0
 14 15  1  0
 15 16  2  0
 16 17  1  0
 17 18  2  0
 18 19  1  0
 19 20  1  0
 19 21  2  0
  2 22  1  0
 22 23  2  0
 23 24  1  0
 24 25  2  0
 25 26  1  0
 26 27  2  0
 27 28  1  0
 28 29  2  0
 29 30  1  0
 30 31  2  0
 12  7  1  0
 21 15  1  0
 31 22  1  0
 30 25  1  0
  3 32  1  0
  4 33  1  0
  4 34  1  0
  8 35  1  0
  8 36  1  0
  9 37  1  0
  9 38  1  0
 10 39  1  1
 12 40  1  1
 13 41  1  0
 13 42  1  0
 16 43  1  0
 17 44  1  0
 18 45  1  0
 21 46  1  0
 23 47  1  0
 24 48  1  0
 26 49  1  0
 27 50  1  0
 28 51  1  0
 29 52  1  0
M  END
>  <smiles>  (46) 
O=C(NCC(=O)N1CC[C@H](F)[C@H]1COc1cccc(Cl)c1)c1ccc2ccccc2n1

>  <score_type>  (46) 
oracle

>  <origin>  (46) 
autodockgpu

>  <m_score__min__energy>  (46) 
-8.8200000000000003

>  <m_primary>  (46) 
energy

>  <rmsd>  (46) 
8.210985461174168

>  <m_score__min__rmsd>  (46) 
8.210985461174168

>  <meeko>  (46) 
{"free_energy": -8.82, "intermolecular_energy": -10.9, "internal_energy": -1.44, "cluster_size": 14, "cluster_id": 1, "rank_in_cluster": 1}

>  <energy>  (46) 
-6.89

>  <cluster_rmsd>  (46) 
0.0

>  <cluster>  (46) 
7

$$$$

     RDKit          3D

 52 55  0  0  0  0  0  0  0  0999 V2000
  140.7680   73.1100  222.3300 O   0  0  0  0  0  0  0  0  0  0  0  0
  139.8080   72.2960  222.5510 C   0  0  0  0  0  0  0  0  0  0  0  0
  138.7280   72.1800  221.6530 N   0  0  0  0  0  0  0  0  0  0  0  0
  138.7410   73.0180  220.4640 C   0  0  0  0  0  0  0  0  0  0  0  0
  138.4700   74.4210  220.8620 C   0  0  0  0  0  0  0  0  0  0  0  0
  137.5430   74.7490  221.6560 O   0  0  0  0  0  0  0  0  0  0  0  0
  139.2670   75.4830  220.3520 N   0  0  0  0  0  0  0  0  0  0  0  0
  138.7400   76.8040  220.0670 C   0  0  0  0  0  0  0  0  0  0  0  0
  139.5660   77.2420  218.8960 C   0  0  0  0  0  0  0  0  0  0  0  0
  140.6210   76.1760  218.6520 C   0  0  2  0  0  0  0  0  0  0  0  0
  140.2670   75.2840  217.6740 F   0  0  0  0  0  0  0  0  0  0  0  0
  140.6790   75.5040  220.0220 C   0  0  1  0  0  0  0  0  0  0  0  0
  141.3380   76.5070  220.9360 C   0  0  0  0  0  0  0  0  0  0  0  0
  140.7110   76.5690  222.2030 O   0  0  0  0  0  0  0  0  0  0  0  0
  140.4710   77.8390  222.7120 C   0  0  0  0  0  0  0  0  0  0  0  0
  139.2020   78.3300  222.9480 C   0  0  0  0  0  0  0  0  0  0  0  0
  139.0810   79.6060  223.4550 C   0  0  0  0  0  0  0  0  0  0  0  0
  140.2100   80.3710  223.7200 C   0  0  0  0  0  0  0  0  0  0  0  0
  141.4910   79.8900  223.4880 C   0  0  0  0  0  0  0  0  0  0  0  0
  142.8980   80.8800  223.8320 Cl  0  0  0  0  0  0  0  0  0  0  0  0
  141.6060   78.6110  222.9790 C   0  0  0  0  0  0  0  0  0  0  0  0
  139.8440   71.4770  223.7590 C   0  0  0  0  0  0  0  0  0  0  0  0
  139.2630   70.2180  223.7720 C   0  0  0  0  0  0  0  0  0  0  0  0
  139.2690   69.4060  224.8860 C   0  0  0  0  0  0  0  0  0  0  0  0
  139.8790   69.8740  226.0310 C   0  0  0  0  0  0  0  0  0  0  0  0
  139.8800   69.0560  227.1410 C   0  0  0  0  0  0  0  0  0  0  0  0
  140.4870   69.5040  228.3010 C   0  0  0  0  0  0  0  0  0  0  0  0
  141.0630   70.7560  228.2870 C   0  0  0  0  0  0  0  0  0  0  0  0
  141.0640   71.5790  227.1770 C   0  0  0  0  0  0  0  0  0  0  0  0
  140.4580   71.1280  226.0190 C   0  0  0  0  0  0  0  0  0  0  0  0
  140.4250   71.8820  224.9040 N   0  0  0  0  0  0  0  0  0  0  0  0
  137.9640   71.5080  221.8620 H   0  0  0  0  0  0  0  0  0  0  0  0
  139.7263   72.9555  219.9790 H   0  0  0  0  0  0  0  0  0  0  0  0
  137.9701   72.6753  219.7581 H   0  0  0  0  0  0  0  0  0  0  0  0
  137.6728   76.7573  219.8044 H   0  0  0  0  0  0  0  0  0  0  0  0
  138.7979   77.4915  220.9238 H   0  0  0  0  0  0  0  0  0  0  0  0
  138.9281   77.3487  218.0062 H   0  0  0  0  0  0  0  0  0  0  0  0
  140.0394   78.2138  219.0997 H   0  0  0  0  0  0  0  0  0  0  0  0
  141.5774   76.5833  218.2923 H   0  0  0  0  0  0  0  0  0  0  0  0
  141.1912   74.5322  220.0788 H   0  0  0  0  0  0  0  0  0  0  0  0
  142.3909   76.2207  221.0755 H   0  0  0  0  0  0  0  0  0  0  0  0
  141.2511   77.4985  220.4676 H   0  0  0  0  0  0  0  0  0  0  0  0
  138.3118   77.7193  222.7370 H   0  0  0  0  0  0  0  0  0  0  0  0
  138.0819   80.0222  223.6515 H   0  0  0  0  0  0  0  0  0  0  0  0
  140.0852   81.3861  224.1249 H   0  0  0  0  0  0  0  0  0  0  0  0
  142.6044   78.1939  222.7809 H   0  0  0  0  0  0  0  0  0  0  0  0
  138.7772   69.8520  222.8554 H   0  0  0  0  0  0  0  0  0  0  0  0
  138.7998   68.4114  224.8623 H   0  0  0  0  0  0  0  0  0  0  0  0
  139.4062   68.0639  227.1050 H   0  0  0  0  0  0  0  0  0  0  0  0
  140.5091   68.8800  229.2066 H   0  0  0  0  0  0  0  0  0  0  0  0
  141.5465   71.1185  229.2061 H   0  0  0  0  0  0  0  0  0  0  0  0
  141.5367   72.5716  227.2139 H   0  0  0  0  0  0  0  0  0  0  0  0
  1  2  2  0
  2  3  1  0
  3  4  1  0
  4  5  1  0
  5  6  2  0
  5  7  1  0
  7  8  1  0
  8  9  1  0
  9 10  1  0
 10 11  1  0
 10 12  1  0
 12 13  1  0
 13 14  1  0
 14 15  1  0
 15 16  2  0
 16 17  1  0
 17 18  2  0
 18 19  1  0
 19 20  1  0
 19 21  2  0
  2 22  1  0
 22 23  2  0
 23 24  1  0
 24 25  2  0
 25 26  1  0
 26 27  2  0
 27 28  1  0
 28 29  2  0
 29 30  1  0
 30 31  2  0
 12  7  1  0
 21 15  1  0
 31 22  1  0
 30 25  1  0
  3 32  1  0
  4 33  1  0
  4 34  1  0
  8 35  1  0
  8 36  1  0
  9 37  1  0
  9 38  1  0
 10 39  1  6
 12 40  1  6
 13 41  1  0
 13 42  1  0
 16 43  1  0
 17 44  1  0
 18 45  1  0
 21 46  1  0
 23 47  1  0
 24 48  1  0
 26 49  1  0
 27 50  1  0
 28 51  1  0
 29 52  1  0
M  END
>  <smiles>  (47) 
O=C(NCC(=O)N1CC[C@H](F)[C@H]1COc1cccc(Cl)c1)c1ccc2ccccc2n1

>  <score_type>  (47) 
oracle

>  <origin>  (47) 
autodockgpu

>  <m_score__min__energy>  (47) 
-8.8200000000000003

>  <m_primary>  (47) 
energy

>  <rmsd>  (47) 
1.866935387228729

>  <m_score__min__rmsd>  (47) 
1.866935387228729

>  <meeko>  (47) 
{"free_energy": -7.89, "intermolecular_energy": -9.98, "internal_energy": -1.68, "cluster_size": 18, "cluster_id": 2, "rank_in_cluster": 14}

>  <energy>  (47) 
-6.88

>  <cluster_rmsd>  (47) 
0.32

>  <cluster>  (47) 
7

$$$$

     RDKit          3D

 52 55  0  0  0  0  0  0  0  0999 V2000
  140.8450   72.8660  222.6040 O   0  0  0  0  0  0  0  0  0  0  0  0
  139.7570   72.3010  222.9630 C   0  0  0  0  0  0  0  0  0  0  0  0
  138.5240   72.6490  222.3750 N   0  0  0  0  0  0  0  0  0  0  0  0
  138.5300   73.6750  221.3440 C   0  0  0  0  0  0  0  0  0  0  0  0
  138.8310   74.9860  221.9710 C   0  0  0  0  0  0  0  0  0  0  0  0
  139.9880   75.3190  222.3540 O   0  0  0  0  0  0  0  0  0  0  0  0
  137.8010   75.9450  222.1700 N   0  0  0  0  0  0  0  0  0  0  0  0
  136.9350   75.9510  223.3340 C   0  0  0  0  0  0  0  0  0  0  0  0
  135.6430   76.4700  222.7810 C   0  0  0  0  0  0  0  0  0  0  0  0
  135.8840   76.8560  221.3320 C   0  0  2  0  0  0  0  0  0  0  0  0
  135.5110   75.8780  220.4470 F   0  0  0  0  0  0  0  0  0  0  0  0
  137.3970   77.0570  221.3310 C   0  0  1  0  0  0  0  0  0  0  0  0
  137.6370   78.3220  222.1180 C   0  0  0  0  0  0  0  0  0  0  0  0
  138.6680   78.1700  223.0740 O   0  0  0  0  0  0  0  0  0  0  0  0
  139.9360   78.5860  222.6880 C   0  0  0  0  0  0  0  0  0  0  0  0
  140.5850   78.0940  221.5740 C   0  0  0  0  0  0  0  0  0  0  0  0
  141.8430   78.5780  221.2840 C   0  0  0  0  0  0  0  0  0  0  0  0
  142.4350   79.5360  222.0980 C   0  0  0  0  0  0  0  0  0  0  0  0
  141.7940   80.0400  223.2220 C   0  0  0  0  0  0  0  0  0  0  0  0
  142.5670   81.2490  224.2300 Cl  0  0  0  0  0  0  0  0  0  0  0  0
  140.5340   79.5500  223.5070 C   0  0  0  0  0  0  0  0  0  0  0  0
  139.8070   71.2770  224.0020 C   0  0  0  0  0  0  0  0  0  0  0  0
  139.2250   70.0360  223.7940 C   0  0  0  0  0  0  0  0  0  0  0  0
  139.2430   69.0350  224.7430 C   0  0  0  0  0  0  0  0  0  0  0  0
  139.8680   69.2900  225.9450 C   0  0  0  0  0  0  0  0  0  0  0  0
  139.8820   68.2830  226.8890 C   0  0  0  0  0  0  0  0  0  0  0  0
  140.5050   68.5150  228.1030 C   0  0  0  0  0  0  0  0  0  0  0  0
  141.0820   69.7490  228.3090 C   0  0  0  0  0  0  0  0  0  0  0  0
  141.0700   70.7590  227.3660 C   0  0  0  0  0  0  0  0  0  0  0  0
  140.4490   70.5250  226.1540 C   0  0  0  0  0  0  0  0  0  0  0  0
  140.4030   71.4680  225.1940 N   0  0  0  0  0  0  0  0  0  0  0  0
  137.6580   72.1700  222.6900 H   0  0  0  0  0  0  0  0  0  0  0  0
  139.2990   73.4396  220.5935 H   0  0  0  0  0  0  0  0  0  0  0  0
  137.5468   73.7144  220.8523 H   0  0  0  0  0  0  0  0  0  0  0  0
  136.8127   74.9370  223.7426 H   0  0  0  0  0  0  0  0  0  0  0  0
  137.3269   76.5539  224.1664 H   0  0  0  0  0  0  0  0  0  0  0  0
  134.8705   75.6889  222.8373 H   0  0  0  0  0  0  0  0  0  0  0  0
  135.2975   77.3395  223.3594 H   0  0  0  0  0  0  0  0  0  0  0  0
  135.2982   77.7297  221.0104 H   0  0  0  0  0  0  0  0  0  0  0  0
  137.8908   77.1106  220.3495 H   0  0  0  0  0  0  0  0  0  0  0  0
  137.9166   79.1253  221.4205 H   0  0  0  0  0  0  0  0  0  0  0  0
  136.7097   78.5645  222.6577 H   0  0  0  0  0  0  0  0  0  0  0  0
  140.1110   77.3353  220.9340 H   0  0  0  0  0  0  0  0  0  0  0  0
  142.3821   78.2029  220.4016 H   0  0  0  0  0  0  0  0  0  0  0  0
  143.4397   79.9055  221.8449 H   0  0  0  0  0  0  0  0  0  0  0  0
  139.9937   79.9228  224.3897 H   0  0  0  0  0  0  0  0  0  0  0  0
  138.7281   69.8414  222.8321 H   0  0  0  0  0  0  0  0  0  0  0  0
  138.7719   68.0607  224.5462 H   0  0  0  0  0  0  0  0  0  0  0  0
  139.4065   67.3133  226.6802 H   0  0  0  0  0  0  0  0  0  0  0  0
  140.5385   67.7373  228.8802 H   0  0  0  0  0  0  0  0  0  0  0  0
  141.5771   69.9398  229.2726 H   0  0  0  0  0  0  0  0  0  0  0  0
  141.5448   71.7288  227.5757 H   0  0  0  0  0  0  0  0  0  0  0  0
  1  2  2  0
  2  3  1  0
  3  4  1  0
  4  5  1  0
  5  6  2  0
  5  7  1  0
  7  8  1  0
  8  9  1  0
  9 10  1  0
 10 11  1  0
 10 12  1  0
 12 13  1  0
 13 14  1  0
 14 15  1  0
 15 16  2  0
 16 17  1  0
 17 18  2  0
 18 19  1  0
 19 20  1  0
 19 21  2  0
  2 22  1  0
 22 23  2  0
 23 24  1  0
 24 25  2  0
 25 26  1  0
 26 27  2  0
 27 28  1  0
 28 29  2  0
 29 30  1  0
 30 31  2  0
 12  7  1  0
 21 15  1  0
 31 22  1  0
 30 25  1  0
  3 32  1  0
  4 33  1  0
  4 34  1  0
  8 35  1  0
  8 36  1  0
  9 37  1  0
  9 38  1  0
 10 39  1  6
 12 40  1  6
 13 41  1  0
 13 42  1  0
 16 43  1  0
 17 44  1  0
 18 45  1  0
 21 46  1  0
 23 47  1  0
 24 48  1  0
 26 49  1  0
 27 50  1  0
 28 51  1  0
 29 52  1  0
M  END
>  <smiles>  (48) 
O=C(NCC(=O)N1CC[C@H](F)[C@H]1COc1cccc(Cl)c1)c1ccc2ccccc2n1

>  <score_type>  (48) 
oracle

>  <origin>  (48) 
autodockgpu

>  <m_score__min__energy>  (48) 
-8.8200000000000003

>  <m_primary>  (48) 
energy

>  <rmsd>  (48) 
3.303948698366466

>  <m_score__min__rmsd>  (48) 
3.303948698366466

>  <meeko>  (48) 
{"free_energy": -8.35, "intermolecular_energy": -10.43, "internal_energy": -1.42, "cluster_size": 3, "cluster_id": 3, "rank_in_cluster": 2}

>  <energy>  (48) 
-6.2

>  <cluster_rmsd>  (48) 
1.51

>  <cluster>  (48) 
7

$$$$

     RDKit          3D

 52 55  0  0  0  0  0  0  0  0999 V2000
  138.3190   75.1440  222.0320 O   0  0  0  0  0  0  0  0  0  0  0  0
  139.5270   75.5580  222.0010 C   0  0  0  0  0  0  0  0  0  0  0  0
  140.5750   74.7220  221.5670 N   0  0  0  0  0  0  0  0  0  0  0  0
  140.2370   73.3680  221.1550 C   0  0  0  0  0  0  0  0  0  0  0  0
  139.9580   72.5530  222.3620 C   0  0  0  0  0  0  0  0  0  0  0  0
  140.7080   72.5440  223.3790 O   0  0  0  0  0  0  0  0  0  0  0  0
  138.8030   71.7260  222.4240 N   0  0  0  0  0  0  0  0  0  0  0  0
  138.0880   71.2720  221.2470 C   0  0  0  0  0  0  0  0  0  0  0  0
  136.6690   71.2090  221.7260 C   0  0  0  0  0  0  0  0  0  0  0  0
  136.6730   71.5180  223.2140 C   0  0  2  0  0  0  0  0  0  0  0  0
  136.3820   72.8290  223.4890 F   0  0  0  0  0  0  0  0  0  0  0  0
  138.1160   71.1810  223.5790 C   0  0  1  0  0  0  0  0  0  0  0  0
  138.2140   69.6780  223.4910 C   0  0  0  0  0  0  0  0  0  0  0  0
  139.4980   69.2040  223.8500 O   0  0  0  0  0  0  0  0  0  0  0  0
  139.8140   69.2380  225.2020 C   0  0  0  0  0  0  0  0  0  0  0  0
  139.7000   68.1410  226.0320 C   0  0  0  0  0  0  0  0  0  0  0  0
  140.0420   68.2890  227.3590 C   0  0  0  0  0  0  0  0  0  0  0  0
  140.4890   69.5120  227.8400 C   0  0  0  0  0  0  0  0  0  0  0  0
  140.6100   70.6240  227.0180 C   0  0  0  0  0  0  0  0  0  0  0  0
  141.1790   72.1560  227.6560 Cl  0  0  0  0  0  0  0  0  0  0  0  0
  140.2650   70.4700  225.6890 C   0  0  0  0  0  0  0  0  0  0  0  0
  139.8130   76.9260  222.4260 C   0  0  0  0  0  0  0  0  0  0  0  0
  138.7790   77.7980  222.7260 C   0  0  0  0  0  0  0  0  0  0  0  0
  138.9950   79.0990  223.1310 C   0  0  0  0  0  0  0  0  0  0  0  0
  140.2970   79.5390  223.2390 C   0  0  0  0  0  0  0  0  0  0  0  0
  140.5040   80.8410  223.6450 C   0  0  0  0  0  0  0  0  0  0  0  0
  141.8030   81.3060  223.7610 C   0  0  0  0  0  0  0  0  0  0  0  0
  142.8300   80.4370  223.4620 C   0  0  0  0  0  0  0  0  0  0  0  0
  142.6260   79.1320  223.0550 C   0  0  0  0  0  0  0  0  0  0  0  0
  141.3290   78.6700  222.9410 C   0  0  0  0  0  0  0  0  0  0  0  0
  141.0640   77.4100  222.5490 N   0  0  0  0  0  0  0  0  0  0  0  0
  141.5460   75.0900  221.5540 H   0  0  0  0  0  0  0  0  0  0  0  0
  139.3459   73.3900  220.5105 H   0  0  0  0  0  0  0  0  0  0  0  0
  141.0759   72.9289  220.5952 H   0  0  0  0  0  0  0  0  0  0  0  0
  138.1952   71.9868  220.4178 H   0  0  0  0  0  0  0  0  0  0  0  0
  138.4586   70.3137  220.8542 H   0  0  0  0  0  0  0  0  0  0  0  0
  136.0588   71.9511  221.1903 H   0  0  0  0  0  0  0  0  0  0  0  0
  136.2417   70.2127  221.5391 H   0  0  0  0  0  0  0  0  0  0  0  0
  135.9095   70.9618  223.7776 H   0  0  0  0  0  0  0  0  0  0  0  0
  138.4788   71.5373  224.5544 H   0  0  0  0  0  0  0  0  0  0  0  0
  137.4702   69.2342  224.1691 H   0  0  0  0  0  0  0  0  0  0  0  0
  138.0269   69.3880  222.4465 H   0  0  0  0  0  0  0  0  0  0  0  0
  139.3456   67.1744  225.6447 H   0  0  0  0  0  0  0  0  0  0  0  0
  139.9601   67.4310  228.0424 H   0  0  0  0  0  0  0  0  0  0  0  0
  140.7551   69.6026  228.9035 H   0  0  0  0  0  0  0  0  0  0  0  0
  140.3459   71.3273  225.0045 H   0  0  0  0  0  0  0  0  0  0  0  0
  137.7433   77.4382  222.6376 H   0  0  0  0  0  0  0  0  0  0  0  0
  138.1517   79.7667  223.3613 H   0  0  0  0  0  0  0  0  0  0  0  0
  139.6519   81.4984  223.8726 H   0  0  0  0  0  0  0  0  0  0  0  0
  142.0090   82.3377  224.0821 H   0  0  0  0  0  0  0  0  0  0  0  0
  143.8644   80.8004  223.5518 H   0  0  0  0  0  0  0  0  0  0  0  0
  143.4783   78.4751  222.8267 H   0  0  0  0  0  0  0  0  0  0  0  0
  1  2  2  0
  2  3  1  0
  3  4  1  0
  4  5  1  0
  5  6  2  0
  5  7  1  0
  7  8  1  0
  8  9  1  0
  9 10  1  0
 10 11  1  0
 10 12  1  0
 12 13  1  0
 13 14  1  0
 14 15  1  0
 15 16  2  0
 16 17  1  0
 17 18  2  0
 18 19  1  0
 19 20  1  0
 19 21  2  0
  2 22  1  0
 22 23  2  0
 23 24  1  0
 24 25  2  0
 25 26  1  0
 26 27  2  0
 27 28  1  0
 28 29  2  0
 29 30  1  0
 30 31  2  0
 12  7  1  0
 21 15  1  0
 31 22  1  0
 30 25  1  0
  3 32  1  0
  4 33  1  0
  4 34  1  0
  8 35  1  0
  8 36  1  0
  9 37  1  0
  9 38  1  0
 10 39  1  1
 12 40  1  1
 13 41  1  0
 13 42  1  0
 16 43  1  0
 17 44  1  0
 18 45  1  0
 21 46  1  0
 23 47  1  0
 24 48  1  0
 26 49  1  0
 27 50  1  0
 28 51  1  0
 29 52  1  0
M  END
>  <smiles>  (49) 
O=C(NCC(=O)N1CC[C@H](F)[C@H]1COc1cccc(Cl)c1)c1ccc2ccccc2n1

>  <score_type>  (49) 
oracle

>  <origin>  (49) 
autodockgpu

>  <m_score__min__energy>  (49) 
-8.8200000000000003

>  <m_primary>  (49) 
energy

>  <rmsd>  (49) 
8.064571647716663

>  <m_score__min__rmsd>  (49) 
8.064571647716663

>  <meeko>  (49) 
{"free_energy": -8.46, "intermolecular_energy": -10.55, "internal_energy": -1.87, "cluster_size": 14, "cluster_id": 1, "rank_in_cluster": 5}

>  <energy>  (49) 
-6.27

>  <cluster_rmsd>  (49) 
0.0

>  <cluster>  (49) 
8

$$$$

     RDKit          3D

 52 55  0  0  0  0  0  0  0  0999 V2000
  141.2940   71.7030  221.4990 O   0  0  0  0  0  0  0  0  0  0  0  0
  140.6210   72.2470  222.4390 C   0  0  0  0  0  0  0  0  0  0  0  0
  140.1310   73.5630  222.3190 N   0  0  0  0  0  0  0  0  0  0  0  0
  140.4180   74.2850  221.0890 C   0  0  0  0  0  0  0  0  0  0  0  0
  140.7350   75.6950  221.4210 C   0  0  0  0  0  0  0  0  0  0  0  0
  140.5070   76.2070  222.5540 O   0  0  0  0  0  0  0  0  0  0  0  0
  141.3260   76.5500  220.4510 N   0  0  0  0  0  0  0  0  0  0  0  0
  141.8140   77.8810  220.7580 C   0  0  0  0  0  0  0  0  0  0  0  0
  141.5540   78.6290  219.4860 C   0  0  0  0  0  0  0  0  0  0  0  0
  141.0360   77.6320  218.4630 C   0  0  2  0  0  0  0  0  0  0  0  0
  139.6690   77.6190  218.3720 F   0  0  0  0  0  0  0  0  0  0  0  0
  141.5670   76.3220  219.0390 C   0  0  1  0  0  0  0  0  0  0  0  0
  143.0590   76.3610  218.8270 C   0  0  0  0  0  0  0  0  0  0  0  0
  143.7770   76.0790  220.0130 O   0  0  0  0  0  0  0  0  0  0  0  0
  144.2530   74.7820  220.1540 C   0  0  0  0  0  0  0  0  0  0  0  0
  145.4080   74.4730  220.8440 C   0  0  0  0  0  0  0  0  0  0  0  0
  145.7880   73.1500  220.9200 C   0  0  0  0  0  0  0  0  0  0  0  0
  145.0240   72.1600  220.3160 C   0  0  0  0  0  0  0  0  0  0  0  0
  143.8600   72.4560  219.6190 C   0  0  0  0  0  0  0  0  0  0  0  0
  142.9160   71.1830  218.8670 Cl  0  0  0  0  0  0  0  0  0  0  0  0
  143.4850   73.7840  219.5460 C   0  0  0  0  0  0  0  0  0  0  0  0
  140.3610   71.4790  223.6530 C   0  0  0  0  0  0  0  0  0  0  0  0
  139.6770   70.2760  223.5900 C   0  0  0  0  0  0  0  0  0  0  0  0
  139.4060   69.5130  224.7070 C   0  0  0  0  0  0  0  0  0  0  0  0
  139.8380   69.9760  225.9320 C   0  0  0  0  0  0  0  0  0  0  0  0
  139.5630   69.2070  227.0440 C   0  0  0  0  0  0  0  0  0  0  0  0
  139.9870   69.6510  228.2840 C   0  0  0  0  0  0  0  0  0  0  0  0
  140.6670   70.8480  228.3460 C   0  0  0  0  0  0  0  0  0  0  0  0
  140.9440   71.6210  227.2340 C   0  0  0  0  0  0  0  0  0  0  0  0
  140.5200   71.1750  225.9960 C   0  0  0  0  0  0  0  0  0  0  0  0
  140.7590   71.8820  224.8750 N   0  0  0  0  0  0  0  0  0  0  0  0
  139.5870   73.9760  223.1020 H   0  0  0  0  0  0  0  0  0  0  0  0
  141.2779   73.8230  220.5820 H   0  0  0  0  0  0  0  0  0  0  0  0
  139.5437   74.2471  220.4226 H   0  0  0  0  0  0  0  0  0  0  0  0
  141.2588   78.3229  221.5985 H   0  0  0  0  0  0  0  0  0  0  0  0
  142.8697   77.8983  221.0665 H   0  0  0  0  0  0  0  0  0  0  0  0
  140.8023   79.4132  219.6592 H   0  0  0  0  0  0  0  0  0  0  0  0
  142.4759   79.1084  219.1250 H   0  0  0  0  0  0  0  0  0  0  0  0
  141.3587   77.8530  217.4349 H   0  0  0  0  0  0  0  0  0  0  0  0
  141.1423   75.3923  218.6323 H   0  0  0  0  0  0  0  0  0  0  0  0
  143.3277   75.6148  218.0648 H   0  0  0  0  0  0  0  0  0  0  0  0
  143.3269   77.3781  218.5050 H   0  0  0  0  0  0  0  0  0  0  0  0
  146.0091   75.2614  221.3205 H   0  0  0  0  0  0  0  0  0  0  0  0
  146.7042   72.8762  221.4637 H   0  0  0  0  0  0  0  0  0  0  0  0
  145.3500   71.1122  220.3918 H   0  0  0  0  0  0  0  0  0  0  0  0
  142.5696   74.0599  219.0020 H   0  0  0  0  0  0  0  0  0  0  0  0
  139.3359   69.9142  222.6088 H   0  0  0  0  0  0  0  0  0  0  0  0
  138.8604   68.5616  224.6228 H   0  0  0  0  0  0  0  0  0  0  0  0
  139.0162   68.2575  226.9465 H   0  0  0  0  0  0  0  0  0  0  0  0
  139.7871   69.0657  229.1936 H   0  0  0  0  0  0  0  0  0  0  0  0
  141.0062   71.2061  229.3292 H   0  0  0  0  0  0  0  0  0  0  0  0
  141.4902   72.5708  227.3320 H   0  0  0  0  0  0  0  0  0  0  0  0
  1  2  2  0
  2  3  1  0
  3  4  1  0
  4  5  1  0
  5  6  2  0
  5  7  1  0
  7  8  1  0
  8  9  1  0
  9 10  1  0
 10 11  1  0
 10 12  1  0
 12 13  1  0
 13 14  1  0
 14 15  1  0
 15 16  2  0
 16 17  1  0
 17 18  2  0
 18 19  1  0
 19 20  1  0
 19 21  2  0
  2 22  1  0
 22 23  2  0
 23 24  1  0
 24 25  2  0
 25 26  1  0
 26 27  2  0
 27 28  1  0
 28 29  2  0
 29 30  1  0
 30 31  2  0
 12  7  1  0
 21 15  1  0
 31 22  1  0
 30 25  1  0
  3 32  1  0
  4 33  1  0
  4 34  1  0
  8 35  1  0
  8 36  1  0
  9 37  1  0
  9 38  1  0
 10 39  1  6
 12 40  1  6
 13 41  1  0
 13 42  1  0
 16 43  1  0
 17 44  1  0
 18 45  1  0
 21 46  1  0
 23 47  1  0
 24 48  1  0
 26 49  1  0
 27 50  1  0
 28 51  1  0
 29 52  1  0
M  END
>  <smiles>  (50) 
O=C(NCC(=O)N1CC[C@H](F)[C@H]1COc1cccc(Cl)c1)c1ccc2ccccc2n1

>  <score_type>  (50) 
oracle

>  <origin>  (50) 
autodockgpu

>  <m_score__min__energy>  (50) 
-8.8200000000000003

>  <m_primary>  (50) 
energy

>  <rmsd>  (50) 
2.4322105946303685

>  <m_score__min__rmsd>  (50) 
2.4322105946303685

>  <meeko>  (50) 
{"free_energy": -8.07, "intermolecular_energy": -10.16, "internal_energy": -2.19, "cluster_size": 7, "cluster_id": 4, "rank_in_cluster": 4}

>  <energy>  (50) 
-6.2

>  <cluster_rmsd>  (50) 
0.0

>  <cluster>  (50) 
9

$$$$
