
     RDKit          3D

 57 60  0  0  0  0  0  0  0  0999 V2000
  138.9850   75.0460  222.3380 O   0  0  0  0  0  0  0  0  0  0  0  0
  140.0840   75.6310  222.1310 C   0  0  0  0  0  0  0  0  0  0  0  0
  141.1840   74.9430  221.5610 N   0  0  0  0  0  0  0  0  0  0  0  0
  140.9950   73.5460  221.2260 C   0  0  0  0  0  0  0  0  0  0  0  0
  141.7690   73.1830  219.9970 C   0  0  0  0  0  0  0  0  0  0  0  0
  141.1960   72.6850  218.9950 O   0  0  0  0  0  0  0  0  0  0  0  0
  143.1510   73.3900  219.9360 N   0  0  0  0  0  0  0  0  0  0  0  0
  144.0400   72.7230  219.0080 C   0  0  0  0  0  0  0  0  0  0  0  0
  145.4430   73.0840  219.4730 C   0  0  2  0  0  0  0  0  0  0  0  0
  146.3330   72.0310  219.3640 O   0  0  0  0  0  0  0  0  0  0  0  0
  145.1900   73.4900  220.9250 C   0  0  2  0  0  0  0  0  0  0  0  0
  144.8100   72.2920  221.5650 O   0  0  0  0  0  0  0  0  0  0  0  0
  143.9380   74.3140  220.7940 C   0  0  1  0  0  0  0  0  0  0  0  0
  144.0670   75.6020  220.0460 C   0  0  0  0  0  0  0  0  0  0  0  0
  143.0180   76.2370  219.5840 O   0  0  0  0  0  0  0  0  0  0  0  0
  142.8640   77.3070  218.8390 C   0  0  0  0  0  0  0  0  0  0  0  0
  141.8010   78.2750  219.1510 C   0  0  0  0  0  0  0  0  0  0  0  0
  142.2060   79.6070  219.3150 C   0  0  0  0  0  0  0  0  0  0  0  0
  141.2910   80.6070  219.5920 C   0  0  0  0  0  0  0  0  0  0  0  0
  139.9540   80.3240  219.7170 C   0  0  0  0  0  0  0  0  0  0  0  0
  139.5520   79.0240  219.5580 C   0  0  0  0  0  0  0  0  0  0  0  0
  140.4680   78.0300  219.2800 C   0  0  0  0  0  0  0  0  0  0  0  0
  140.2410   77.0380  222.4810 C   0  0  0  0  0  0  0  0  0  0  0  0
  139.1300   77.8140  222.7250 C   0  0  0  0  0  0  0  0  0  0  0  0
  139.2460   79.1430  223.0560 C   0  0  0  0  0  0  0  0  0  0  0  0
  140.4810   79.7360  223.1520 C   0  0  0  0  0  0  0  0  0  0  0  0
  140.6030   81.0640  223.4830 C   0  0  0  0  0  0  0  0  0  0  0  0
  141.8640   81.5940  223.5620 C   0  0  0  0  0  0  0  0  0  0  0  0
  142.9710   80.8130  223.3170 C   0  0  0  0  0  0  0  0  0  0  0  0
  142.8660   79.4640  222.9800 C   0  0  0  0  0  0  0  0  0  0  0  0
  141.5980   78.9350  222.9010 C   0  0  0  0  0  0  0  0  0  0  0  0
  141.4410   77.6420  222.5820 N   0  0  0  0  0  0  0  0  0  0  0  0
  142.0790   75.4610  221.4050 H   0  0  0  0  0  0  0  0  0  0  0  0
  141.3395   72.9243  222.0655 H   0  0  0  0  0  0  0  0  0  0  0  0
  139.9262   73.3719  221.0330 H   0  0  0  0  0  0  0  0  0  0  0  0
  143.8895   71.6339  219.0443 H   0  0  0  0  0  0  0  0  0  0  0  0
  143.8581   73.0330  217.9684 H   0  0  0  0  0  0  0  0  0  0  0  0
  145.9188   73.8694  218.8673 H   0  0  0  0  0  0  0  0  0  0  0  0
  146.3610   71.5350  220.2420 H   0  0  0  0  0  0  0  0  0  0  0  0
  146.0203   73.9932  221.4422 H   0  0  0  0  0  0  0  0  0  0  0  0
  145.3810   71.5630  221.1970 H   0  0  0  0  0  0  0  0  0  0  0  0
  143.5518   74.6196  221.7776 H   0  0  0  0  0  0  0  0  0  0  0  0
  144.5801   76.3023  220.7216 H   0  0  0  0  0  0  0  0  0  0  0  0
  144.5762   75.2874  219.1231 H   0  0  0  0  0  0  0  0  0  0  0  0
  143.8154   77.8580  218.8745 H   0  0  0  0  0  0  0  0  0  0  0  0
  142.5533   76.8954  217.8674 H   0  0  0  0  0  0  0  0  0  0  0  0
  143.2719   79.8620  219.2216 H   0  0  0  0  0  0  0  0  0  0  0  0
  141.6399   81.6431  219.7137 H   0  0  0  0  0  0  0  0  0  0  0  0
  139.2259   81.1182  219.9385 H   0  0  0  0  0  0  0  0  0  0  0  0
  138.4861   78.7694  219.6531 H   0  0  0  0  0  0  0  0  0  0  0  0
  140.1066   76.9983  219.1577 H   0  0  0  0  0  0  0  0  0  0  0  0
  138.1300   77.3614  222.6536 H   0  0  0  0  0  0  0  0  0  0  0  0
  138.3403   79.7377  223.2460 H   0  0  0  0  0  0  0  0  0  0  0  0
  139.7150   81.6830  223.6787 H   0  0  0  0  0  0  0  0  0  0  0  0
  141.9932   82.6545  223.8239 H   0  0  0  0  0  0  0  0  0  0  0  0
  143.9700   81.2676  223.3894 H   0  0  0  0  0  0  0  0  0  0  0  0
  143.7575   78.8496  222.7858 H   0  0  0  0  0  0  0  0  0  0  0  0
  1  2  2  0
  2  3  1  0
  3  4  1  0
  4  5  1  0
  5  6  2  0
  5  7  1  0
  7  8  1  0
  8  9  1  0
  9 10  1  0
  9 11  1  0
 11 12  1  0
 11 13  1  0
 13 14  1  0
 14 15  1  0
 15 16  1  0
 16 17  1  0
 17 18  2  0
 18 19  1  0
 19 20  2  0
 20 21  1  0
 21 22  2  0
  2 23  1  0
 23 24  2  0
 24 25  1  0
 25 26  2  0
 26 27  1  0
 27 28  2  0
 28 29  1  0
 29 30  2  0
 30 31  1  0
 31 32  2  0
 13  7  1  0
 22 17  1  0
 32 23  1  0
 31 26  1  0
  3 33  1  0
  4 34  1  0
  4 35  1  0
  8 36  1  0
  8 37  1  0
  9 38  1  6
 10 39  1  0
 11 40  1  1
 12 41  1  0
 13 42  1  1
 14 43  1  0
 14 44  1  0
 16 45  1  0
 16 46  1  0
 18 47  1  0
 19 48  1  0
 20 49  1  0
 21 50  1  0
 22 51  1  0
 24 52  1  0
 25 53  1  0
 27 54  1  0
 28 55  1  0
 29 56  1  0
 30 57  1  0
M  END
>  <smiles>  (1) 
O=C(NCC(=O)N1C[C@H](O)[C@H](O)[C@H]1COCc1ccccc1)c1ccc2ccccc2n1

>  <score_type>  (1) 
oracle

>  <origin>  (1) 
autodockgpu

>  <m_score__min__energy>  (1) 
-9.0299999999999994

>  <m_primary>  (1) 
energy

>  <rmsd>  (1) 
7.637498046065406

>  <m_score__min__rmsd>  (1) 
7.637498046065406

>  <meeko>  (1) 
{"free_energy": -6.9, "intermolecular_energy": -9.88, "internal_energy": -5.29, "cluster_size": 34, "cluster_id": 5, "rank_in_cluster": 33}

>  <energy>  (1) 
-9.03

>  <cluster_rmsd>  (1) 
0.0

>  <cluster>  (1) 
1

$$$$

     RDKit          3D

 57 60  0  0  0  0  0  0  0  0999 V2000
  139.0040   75.0810  222.3530 O   0  0  0  0  0  0  0  0  0  0  0  0
  140.1050   75.6670  222.1610 C   0  0  0  0  0  0  0  0  0  0  0  0
  141.2170   74.9780  221.6140 N   0  0  0  0  0  0  0  0  0  0  0  0
  141.0370   73.5790  221.2870 C   0  0  0  0  0  0  0  0  0  0  0  0
  141.7510   73.2330  220.0170 C   0  0  0  0  0  0  0  0  0  0  0  0
  141.1370   72.7210  219.0470 O   0  0  0  0  0  0  0  0  0  0  0  0
  143.1230   73.4720  219.8810 N   0  0  0  0  0  0  0  0  0  0  0  0
  144.0020   72.7290  219.0030 C   0  0  0  0  0  0  0  0  0  0  0  0
  145.4070   73.1800  219.3710 C   0  0  2  0  0  0  0  0  0  0  0  0
  146.3270   72.1490  219.3490 O   0  0  0  0  0  0  0  0  0  0  0  0
  145.1900   73.7430  220.7760 C   0  0  2  0  0  0  0  0  0  0  0  0
  144.8720   72.6160  221.5610 O   0  0  0  0  0  0  0  0  0  0  0  0
  143.9080   74.5100  220.5980 C   0  0  1  0  0  0  0  0  0  0  0  0
  143.9690   75.7070  219.7050 C   0  0  0  0  0  0  0  0  0  0  0  0
  142.8850   76.3360  219.3230 O   0  0  0  0  0  0  0  0  0  0  0  0
  142.1780   77.3150  219.8370 C   0  0  0  0  0  0  0  0  0  0  0  0
  142.1870   78.6420  219.2030 C   0  0  0  0  0  0  0  0  0  0  0  0
  141.7480   79.7100  219.9980 C   0  0  0  0  0  0  0  0  0  0  0  0
  141.7300   81.0060  219.5150 C   0  0  0  0  0  0  0  0  0  0  0  0
  142.1430   81.2870  218.2360 C   0  0  0  0  0  0  0  0  0  0  0  0
  142.5730   80.2470  217.4540 C   0  0  0  0  0  0  0  0  0  0  0  0
  142.5890   78.9560  217.9420 C   0  0  0  0  0  0  0  0  0  0  0  0
  140.2530   77.0770  222.5030 C   0  0  0  0  0  0  0  0  0  0  0  0
  139.1380   77.8780  222.6130 C   0  0  0  0  0  0  0  0  0  0  0  0
  139.2440   79.2100  222.9330 C   0  0  0  0  0  0  0  0  0  0  0  0
  140.4730   79.7820  223.1530 C   0  0  0  0  0  0  0  0  0  0  0  0
  140.5860   81.1130  223.4740 C   0  0  0  0  0  0  0  0  0  0  0  0
  141.8410   81.6200  223.6800 C   0  0  0  0  0  0  0  0  0  0  0  0
  142.9520   80.8150  223.5700 C   0  0  0  0  0  0  0  0  0  0  0  0
  142.8570   79.4630  223.2450 C   0  0  0  0  0  0  0  0  0  0  0  0
  141.5940   78.9550  223.0370 C   0  0  0  0  0  0  0  0  0  0  0  0
  141.4460   77.6610  222.7230 N   0  0  0  0  0  0  0  0  0  0  0  0
  142.1130   75.4980  221.4710 H   0  0  0  0  0  0  0  0  0  0  0  0
  141.4380   72.9630  222.1054 H   0  0  0  0  0  0  0  0  0  0  0  0
  139.9629   73.3842  221.1516 H   0  0  0  0  0  0  0  0  0  0  0  0
  143.8883   71.6475  219.1683 H   0  0  0  0  0  0  0  0  0  0  0  0
  143.7755   72.9131  217.9424 H   0  0  0  0  0  0  0  0  0  0  0  0
  145.8361   73.9034  218.6620 H   0  0  0  0  0  0  0  0  0  0  0  0
  146.2240   71.6010  220.1900 H   0  0  0  0  0  0  0  0  0  0  0  0
  146.0197   74.3262  221.2019 H   0  0  0  0  0  0  0  0  0  0  0  0
  145.5770   71.9300  221.3990 H   0  0  0  0  0  0  0  0  0  0  0  0
  143.5455   74.9152  221.5542 H   0  0  0  0  0  0  0  0  0  0  0  0
  144.5909   76.4502  220.2255 H   0  0  0  0  0  0  0  0  0  0  0  0
  144.3358   75.2772  218.7612 H   0  0  0  0  0  0  0  0  0  0  0  0
  141.1313   76.9771  219.8509 H   0  0  0  0  0  0  0  0  0  0  0  0
  142.6649   77.4955  220.8067 H   0  0  0  0  0  0  0  0  0  0  0  0
  141.4111   79.5134  221.0265 H   0  0  0  0  0  0  0  0  0  0  0  0
  141.3802   81.8223  220.1641 H   0  0  0  0  0  0  0  0  0  0  0  0
  142.1291   82.3171  217.8502 H   0  0  0  0  0  0  0  0  0  0  0  0
  142.9094   80.4434  216.4253 H   0  0  0  0  0  0  0  0  0  0  0  0
  142.9413   78.1478  217.2842 H   0  0  0  0  0  0  0  0  0  0  0  0
  138.1426   77.4426  222.4412 H   0  0  0  0  0  0  0  0  0  0  0  0
  138.3352   79.8245  223.0138 H   0  0  0  0  0  0  0  0  0  0  0  0
  139.6951   81.7521  223.5628 H   0  0  0  0  0  0  0  0  0  0  0  0
  141.9628   82.6828  223.9363 H   0  0  0  0  0  0  0  0  0  0  0  0
  143.9461   81.2525  223.7441 H   0  0  0  0  0  0  0  0  0  0  0  0
  143.7519   78.8293  223.1584 H   0  0  0  0  0  0  0  0  0  0  0  0
  1  2  2  0
  2  3  1  0
  3  4  1  0
  4  5  1  0
  5  6  2  0
  5  7  1  0
  7  8  1  0
  8  9  1  0
  9 10  1  0
  9 11  1  0
 11 12  1  0
 11 13  1  0
 13 14  1  0
 14 15  1  0
 15 16  1  0
 16 17  1  0
 17 18  2  0
 18 19  1  0
 19 20  2  0
 20 21  1  0
 21 22  2  0
  2 23  1  0
 23 24  2  0
 24 25  1  0
 25 26  2  0
 26 27  1  0
 27 28  2  0
 28 29  1  0
 29 30  2  0
 30 31  1  0
 31 32  2  0
 13  7  1  0
 22 17  1  0
 32 23  1  0
 31 26  1  0
  3 33  1  0
  4 34  1  0
  4 35  1  0
  8 36  1  0
  8 37  1  0
  9 38  1  6
 10 39  1  0
 11 40  1  1
 12 41  1  0
 13 42  1  1
 14 43  1  0
 14 44  1  0
 16 45  1  0
 16 46  1  0
 18 47  1  0
 19 48  1  0
 20 49  1  0
 21 50  1  0
 22 51  1  0
 24 52  1  0
 25 53  1  0
 27 54  1  0
 28 55  1  0
 29 56  1  0
 30 57  1  0
M  END
>  <smiles>  (2) 
O=C(NCC(=O)N1C[C@H](O)[C@H](O)[C@H]1COCc1ccccc1)c1ccc2ccccc2n1

>  <score_type>  (2) 
oracle

>  <origin>  (2) 
autodockgpu

>  <m_score__min__energy>  (2) 
-9.0299999999999994

>  <m_primary>  (2) 
energy

>  <rmsd>  (2) 
7.613589978523049

>  <m_score__min__rmsd>  (2) 
7.613589978523049

>  <meeko>  (2) 
{"free_energy": -7.84, "intermolecular_energy": -10.83, "internal_energy": -4.25, "cluster_size": 34, "cluster_id": 5, "rank_in_cluster": 7}

>  <energy>  (2) 
-9.02

>  <cluster_rmsd>  (2) 
0.5

>  <cluster>  (2) 
1

$$$$

     RDKit          3D

 57 60  0  0  0  0  0  0  0  0999 V2000
  138.8130   75.4070  221.8960 O   0  0  0  0  0  0  0  0  0  0  0  0
  139.9780   75.8920  221.8900 C   0  0  0  0  0  0  0  0  0  0  0  0
  141.0810   75.1440  221.4070 N   0  0  0  0  0  0  0  0  0  0  0  0
  140.8150   73.8040  220.9230 C   0  0  0  0  0  0  0  0  0  0  0  0
  141.9810   72.9030  221.1860 C   0  0  0  0  0  0  0  0  0  0  0  0
  141.8750   71.9140  221.9560 O   0  0  0  0  0  0  0  0  0  0  0  0
  143.2200   73.1410  220.5800 N   0  0  0  0  0  0  0  0  0  0  0  0
  143.9180   72.1910  219.7410 C   0  0  0  0  0  0  0  0  0  0  0  0
  145.2960   72.7950  219.5180 C   0  0  2  0  0  0  0  0  0  0  0  0
  146.3060   71.8500  219.5280 O   0  0  0  0  0  0  0  0  0  0  0  0
  145.3960   73.7730  220.6890 C   0  0  2  0  0  0  0  0  0  0  0  0
  145.4580   72.9480  221.8310 O   0  0  0  0  0  0  0  0  0  0  0  0
  144.0230   74.3870  220.6860 C   0  0  1  0  0  0  0  0  0  0  0  0
  143.6770   75.2320  219.5020 C   0  0  0  0  0  0  0  0  0  0  0  0
  142.9850   76.3380  219.6250 O   0  0  0  0  0  0  0  0  0  0  0  0
  142.7900   77.3750  218.8450 C   0  0  0  0  0  0  0  0  0  0  0  0
  141.7410   78.3540  219.1690 C   0  0  0  0  0  0  0  0  0  0  0  0
  142.1760   79.6600  219.4340 C   0  0  0  0  0  0  0  0  0  0  0  0
  141.2780   80.6690  219.7330 C   0  0  0  0  0  0  0  0  0  0  0  0
  139.9290   80.4210  219.7790 C   0  0  0  0  0  0  0  0  0  0  0  0
  139.4980   79.1470  219.5200 C   0  0  0  0  0  0  0  0  0  0  0  0
  140.3980   78.1440  219.2220 C   0  0  0  0  0  0  0  0  0  0  0  0
  140.2100   77.2440  222.3850 C   0  0  0  0  0  0  0  0  0  0  0  0
  139.1430   78.0330  222.7550 C   0  0  0  0  0  0  0  0  0  0  0  0
  139.3290   79.3110  223.2240 C   0  0  0  0  0  0  0  0  0  0  0  0
  140.5930   79.8390  223.3370 C   0  0  0  0  0  0  0  0  0  0  0  0
  140.7850   81.1160  223.8060 C   0  0  0  0  0  0  0  0  0  0  0  0
  142.0700   81.5820  223.8930 C   0  0  0  0  0  0  0  0  0  0  0  0
  143.1320   80.7880  223.5220 C   0  0  0  0  0  0  0  0  0  0  0  0
  142.9560   79.4910  223.0440 C   0  0  0  0  0  0  0  0  0  0  0  0
  141.6630   79.0260  222.9570 C   0  0  0  0  0  0  0  0  0  0  0  0
  141.4370   77.7840  222.5040 N   0  0  0  0  0  0  0  0  0  0  0  0
  142.0300   75.5800  221.4180 H   0  0  0  0  0  0  0  0  0  0  0  0
  139.9277   73.4047  221.4361 H   0  0  0  0  0  0  0  0  0  0  0  0
  140.6417   73.8489  219.8377 H   0  0  0  0  0  0  0  0  0  0  0  0
  144.0005   71.2174  220.2464 H   0  0  0  0  0  0  0  0  0  0  0  0
  143.3888   72.0120  218.7934 H   0  0  0  0  0  0  0  0  0  0  0  0
  145.4144   73.2675  218.5318 H   0  0  0  0  0  0  0  0  0  0  0  0
  146.4460   71.5320  220.4750 H   0  0  0  0  0  0  0  0  0  0  0  0
  146.2238   74.4964  220.6518 H   0  0  0  0  0  0  0  0  0  0  0  0
  145.4980   72.0030  221.5160 H   0  0  0  0  0  0  0  0  0  0  0  0
  143.8828   75.0640  221.5416 H   0  0  0  0  0  0  0  0  0  0  0  0
  144.6315   75.5145  219.0338 H   0  0  0  0  0  0  0  0  0  0  0  0
  142.9853   74.5832  218.9447 H   0  0  0  0  0  0  0  0  0  0  0  0
  143.7401   77.9282  218.8093 H   0  0  0  0  0  0  0  0  0  0  0  0
  142.4318   76.9223  217.9086 H   0  0  0  0  0  0  0  0  0  0  0  0
  143.2519   79.8869  219.4036 H   0  0  0  0  0  0  0  0  0  0  0  0
  141.6503   81.6839  219.9366 H   0  0  0  0  0  0  0  0  0  0  0  0
  139.2143   81.2225  220.0171 H   0  0  0  0  0  0  0  0  0  0  0  0
  138.4220   78.9206  219.5499 H   0  0  0  0  0  0  0  0  0  0  0  0
  140.0136   77.1335  219.0190 H   0  0  0  0  0  0  0  0  0  0  0  0
  138.1220   77.6319  222.6734 H   0  0  0  0  0  0  0  0  0  0  0  0
  138.4577   79.9176  223.5119 H   0  0  0  0  0  0  0  0  0  0  0  0
  139.9327   81.7450  224.1026 H   0  0  0  0  0  0  0  0  0  0  0  0
  142.2555   82.6011  224.2631 H   0  0  0  0  0  0  0  0  0  0  0  0
  144.1523   81.1905  223.6057 H   0  0  0  0  0  0  0  0  0  0  0  0
  143.8121   78.8663  222.7493 H   0  0  0  0  0  0  0  0  0  0  0  0
  1  2  2  0
  2  3  1  0
  3  4  1  0
  4  5  1  0
  5  6  2  0
  5  7  1  0
  7  8  1  0
  8  9  1  0
  9 10  1  0
  9 11  1  0
 11 12  1  0
 11 13  1  0
 13 14  1  0
 14 15  1  0
 15 16  1  0
 16 17  1  0
 17 18  2  0
 18 19  1  0
 19 20  2  0
 20 21  1  0
 21 22  2  0
  2 23  1  0
 23 24  2  0
 24 25  1  0
 25 26  2  0
 26 27  1  0
 27 28  2  0
 28 29  1  0
 29 30  2  0
 30 31  1  0
 31 32  2  0
 13  7  1  0
 22 17  1  0
 32 23  1  0
 31 26  1  0
  3 33  1  0
  4 34  1  0
  4 35  1  0
  8 36  1  0
  8 37  1  0
  9 38  1  6
 10 39  1  0
 11 40  1  6
 12 41  1  0
 13 42  1  1
 14 43  1  0
 14 44  1  0
 16 45  1  0
 16 46  1  0
 18 47  1  0
 19 48  1  0
 20 49  1  0
 21 50  1  0
 22 51  1  0
 24 52  1  0
 25 53  1  0
 27 54  1  0
 28 55  1  0
 29 56  1  0
 30 57  1  0
M  END
>  <smiles>  (3) 
O=C(NCC(=O)N1C[C@H](O)[C@H](O)[C@H]1COCc1ccccc1)c1ccc2ccccc2n1

>  <score_type>  (3) 
oracle

>  <origin>  (3) 
autodockgpu

>  <m_score__min__energy>  (3) 
-9.0299999999999994

>  <m_primary>  (3) 
energy

>  <rmsd>  (3) 
7.66707520774295

>  <m_score__min__rmsd>  (3) 
7.66707520774295

>  <meeko>  (3) 
{"free_energy": -7.64, "intermolecular_energy": -10.62, "internal_energy": -5.23, "cluster_size": 34, "cluster_id": 5, "rank_in_cluster": 17}

>  <energy>  (3) 
-9.01

>  <cluster_rmsd>  (3) 
1.88

>  <cluster>  (3) 
1

$$$$

     RDKit          3D

 57 60  0  0  0  0  0  0  0  0999 V2000
  138.9050   75.2650  222.1080 O   0  0  0  0  0  0  0  0  0  0  0  0
  140.0140   75.8370  221.9190 C   0  0  0  0  0  0  0  0  0  0  0  0
  141.0720   75.1790  221.2420 N   0  0  0  0  0  0  0  0  0  0  0  0
  140.8270   73.8290  220.7780 C   0  0  0  0  0  0  0  0  0  0  0  0
  141.9870   72.9370  221.0980 C   0  0  0  0  0  0  0  0  0  0  0  0
  141.8750   72.0060  221.9350 O   0  0  0  0  0  0  0  0  0  0  0  0
  143.2240   73.1220  220.4710 N   0  0  0  0  0  0  0  0  0  0  0  0
  143.9230   72.1010  219.7200 C   0  0  0  0  0  0  0  0  0  0  0  0
  145.3000   72.6840  219.4420 C   0  0  2  0  0  0  0  0  0  0  0  0
  146.3110   71.7460  219.5350 O   0  0  0  0  0  0  0  0  0  0  0  0
  145.3990   73.7630  220.5210 C   0  0  2  0  0  0  0  0  0  0  0  0
  145.4640   73.0440  221.7320 O   0  0  0  0  0  0  0  0  0  0  0  0
  144.0260   74.3730  220.4640 C   0  0  1  0  0  0  0  0  0  0  0  0
  143.6770   75.1080  219.2100 C   0  0  0  0  0  0  0  0  0  0  0  0
  142.9050   76.1670  219.2250 O   0  0  0  0  0  0  0  0  0  0  0  0
  142.9190   77.3060  218.5740 C   0  0  0  0  0  0  0  0  0  0  0  0
  142.0110   78.3930  218.9720 C   0  0  0  0  0  0  0  0  0  0  0  0
  142.5260   79.6940  218.8800 C   0  0  0  0  0  0  0  0  0  0  0  0
  141.7580   80.7960  219.2100 C   0  0  0  0  0  0  0  0  0  0  0  0
  140.4630   80.6490  219.6400 C   0  0  0  0  0  0  0  0  0  0  0  0
  139.9540   79.3800  219.7320 C   0  0  0  0  0  0  0  0  0  0  0  0
  140.7240   78.2840  219.4010 C   0  0  0  0  0  0  0  0  0  0  0  0
  140.2270   77.1960  222.4000 C   0  0  0  0  0  0  0  0  0  0  0  0
  139.1510   77.9700  222.7750 C   0  0  0  0  0  0  0  0  0  0  0  0
  139.3190   79.2550  223.2310 C   0  0  0  0  0  0  0  0  0  0  0  0
  140.5740   79.8060  223.3270 C   0  0  0  0  0  0  0  0  0  0  0  0
  140.7480   81.0900  223.7830 C   0  0  0  0  0  0  0  0  0  0  0  0
  142.0260   81.5790  223.8530 C   0  0  0  0  0  0  0  0  0  0  0  0
  143.0980   80.8010  223.4770 C   0  0  0  0  0  0  0  0  0  0  0  0
  142.9400   79.4970  223.0120 C   0  0  0  0  0  0  0  0  0  0  0  0
  141.6550   79.0080  222.9420 C   0  0  0  0  0  0  0  0  0  0  0  0
  141.4460   77.7590  222.5020 N   0  0  0  0  0  0  0  0  0  0  0  0
  141.9760   75.6860  221.1050 H   0  0  0  0  0  0  0  0  0  0  0  0
  139.9244   73.4370  221.2697 H   0  0  0  0  0  0  0  0  0  0  0  0
  140.6901   73.8510  219.6868 H   0  0  0  0  0  0  0  0  0  0  0  0
  144.0073   71.1770  220.3109 H   0  0  0  0  0  0  0  0  0  0  0  0
  143.3932   71.8369  218.7929 H   0  0  0  0  0  0  0  0  0  0  0  0
  145.4171   73.0661  218.4172 H   0  0  0  0  0  0  0  0  0  0  0  0
  146.4640   71.5260  220.5080 H   0  0  0  0  0  0  0  0  0  0  0  0
  146.2256   74.4815  220.4186 H   0  0  0  0  0  0  0  0  0  0  0  0
  145.5270   72.0770  221.5030 H   0  0  0  0  0  0  0  0  0  0  0  0
  143.8868   75.1242  221.2554 H   0  0  0  0  0  0  0  0  0  0  0  0
  144.6301   75.4262  218.7624 H   0  0  0  0  0  0  0  0  0  0  0  0
  143.0581   74.3743  218.6728 H   0  0  0  0  0  0  0  0  0  0  0  0
  143.9420   77.7029  218.6509 H   0  0  0  0  0  0  0  0  0  0  0  0
  142.5574   77.0289  217.5728 H   0  0  0  0  0  0  0  0  0  0  0  0
  143.5613   79.8411  218.5386 H   0  0  0  0  0  0  0  0  0  0  0  0
  142.1910   81.8038  219.1267 H   0  0  0  0  0  0  0  0  0  0  0  0
  139.8513   81.5245  219.9032 H   0  0  0  0  0  0  0  0  0  0  0  0
  138.9188   79.2334  220.0739 H   0  0  0  0  0  0  0  0  0  0  0  0
  140.2797   77.2814  219.4874 H   0  0  0  0  0  0  0  0  0  0  0  0
  138.1363   77.5506  222.7079 H   0  0  0  0  0  0  0  0  0  0  0  0
  138.4400   79.8487  223.5222 H   0  0  0  0  0  0  0  0  0  0  0  0
  139.8878   81.7066  224.0827 H   0  0  0  0  0  0  0  0  0  0  0  0
  142.1974   82.6040  224.2134 H   0  0  0  0  0  0  0  0  0  0  0  0
  144.1117   81.2224  223.5459 H   0  0  0  0  0  0  0  0  0  0  0  0
  143.8041   78.8851  222.7139 H   0  0  0  0  0  0  0  0  0  0  0  0
  1  2  2  0
  2  3  1  0
  3  4  1  0
  4  5  1  0
  5  6  2  0
  5  7  1  0
  7  8  1  0
  8  9  1  0
  9 10  1  0
  9 11  1  0
 11 12  1  0
 11 13  1  0
 13 14  1  0
 14 15  1  0
 15 16  1  0
 16 17  1  0
 17 18  2  0
 18 19  1  0
 19 20  2  0
 20 21  1  0
 21 22  2  0
  2 23  1  0
 23 24  2  0
 24 25  1  0
 25 26  2  0
 26 27  1  0
 27 28  2  0
 28 29  1  0
 29 30  2  0
 30 31  1  0
 31 32  2  0
 13  7  1  0
 22 17  1  0
 32 23  1  0
 31 26  1  0
  3 33  1  0
  4 34  1  0
  4 35  1  0
  8 36  1  0
  8 37  1  0
  9 38  1  6
 10 39  1  0
 11 40  1  6
 12 41  1  0
 13 42  1  1
 14 43  1  0
 14 44  1  0
 16 45  1  0
 16 46  1  0
 18 47  1  0
 19 48  1  0
 20 49  1  0
 21 50  1  0
 22 51  1  0
 24 52  1  0
 25 53  1  0
 27 54  1  0
 28 55  1  0
 29 56  1  0
 30 57  1  0
M  END
>  <smiles>  (4) 
O=C(NCC(=O)N1C[C@H](O)[C@H](O)[C@H]1COCc1ccccc1)c1ccc2ccccc2n1

>  <score_type>  (4) 
oracle

>  <origin>  (4) 
autodockgpu

>  <m_score__min__energy>  (4) 
-9.0299999999999994

>  <m_primary>  (4) 
energy

>  <rmsd>  (4) 
7.656510518266914

>  <m_score__min__rmsd>  (4) 
7.656510518266914

>  <meeko>  (4) 
{"free_energy": -7.76, "intermolecular_energy": -10.74, "internal_energy": -5.04, "cluster_size": 34, "cluster_id": 5, "rank_in_cluster": 8}

>  <energy>  (4) 
-9.0

>  <cluster_rmsd>  (4) 
1.41

>  <cluster>  (4) 
1

$$$$

     RDKit          3D

 57 60  0  0  0  0  0  0  0  0999 V2000
  141.7290   72.0370  221.9120 O   0  0  0  0  0  0  0  0  0  0  0  0
  140.6730   72.2790  222.5600 C   0  0  0  0  0  0  0  0  0  0  0  0
  139.8230   73.3550  222.2020 N   0  0  0  0  0  0  0  0  0  0  0  0
  140.2150   74.1630  221.0650 C   0  0  0  0  0  0  0  0  0  0  0  0
  139.7310   75.5710  221.2200 C   0  0  0  0  0  0  0  0  0  0  0  0
  140.4660   76.5450  220.9190 O   0  0  0  0  0  0  0  0  0  0  0  0
  138.4450   75.8350  221.7050 N   0  0  0  0  0  0  0  0  0  0  0  0
  138.1460   76.2110  223.0710 C   0  0  0  0  0  0  0  0  0  0  0  0
  136.6290   76.1570  223.1740 C   0  0  2  0  0  0  0  0  0  0  0  0
  136.1890   75.6530  224.3840 O   0  0  0  0  0  0  0  0  0  0  0  0
  136.2730   75.2500  221.9960 C   0  0  2  0  0  0  0  0  0  0  0  0
  136.7820   73.9860  222.3590 O   0  0  0  0  0  0  0  0  0  0  0  0
  137.1840   75.7790  220.9230 C   0  0  1  0  0  0  0  0  0  0  0  0
  136.9060   77.1670  220.4420 C   0  0  0  0  0  0  0  0  0  0  0  0
  137.8070   78.1150  220.5180 O   0  0  0  0  0  0  0  0  0  0  0  0
  138.0600   79.0540  221.4000 C   0  0  0  0  0  0  0  0  0  0  0  0
  139.4350   79.2660  221.8770 C   0  0  0  0  0  0  0  0  0  0  0  0
  139.6270   79.1850  223.2640 C   0  0  0  0  0  0  0  0  0  0  0  0
  140.8810   79.3490  223.8250 C   0  0  0  0  0  0  0  0  0  0  0  0
  141.9780   79.5980  223.0400 C   0  0  0  0  0  0  0  0  0  0  0  0
  141.7960   79.6790  221.6840 C   0  0  0  0  0  0  0  0  0  0  0  0
  140.5440   79.5130  221.1290 C   0  0  0  0  0  0  0  0  0  0  0  0
  140.3090   71.4460  223.7000 C   0  0  0  0  0  0  0  0  0  0  0  0
  139.5600   70.3060  223.5080 C   0  0  0  0  0  0  0  0  0  0  0  0
  139.2000   69.5020  224.5620 C   0  0  0  0  0  0  0  0  0  0  0  0
  139.5790   69.8160  225.8450 C   0  0  0  0  0  0  0  0  0  0  0  0
  139.2220   69.0150  226.9030 C   0  0  0  0  0  0  0  0  0  0  0  0
  139.6330   69.3850  228.1560 C   0  0  0  0  0  0  0  0  0  0  0  0
  140.3810   70.5260  228.3420 C   0  0  0  0  0  0  0  0  0  0  0  0
  140.7520   71.3500  227.2810 C   0  0  0  0  0  0  0  0  0  0  0  0
  140.3380   70.9750  226.0230 C   0  0  0  0  0  0  0  0  0  0  0  0
  140.6680   71.7320  224.9660 N   0  0  0  0  0  0  0  0  0  0  0  0
  138.9580   73.5230  222.7640 H   0  0  0  0  0  0  0  0  0  0  0  0
  141.3121   74.1657  220.9858 H   0  0  0  0  0  0  0  0  0  0  0  0
  139.7661   73.7343  220.1569 H   0  0  0  0  0  0  0  0  0  0  0  0
  138.6064   75.5031  223.7760 H   0  0  0  0  0  0  0  0  0  0  0  0
  138.5408   77.2070  223.3201 H   0  0  0  0  0  0  0  0  0  0  0  0
  136.1505   77.1467  223.1344 H   0  0  0  0  0  0  0  0  0  0  0  0
  136.3540   74.6580  224.4030 H   0  0  0  0  0  0  0  0  0  0  0  0
  135.2098   75.2068  221.7174 H   0  0  0  0  0  0  0  0  0  0  0  0
  137.1590   74.0680  223.2780 H   0  0  0  0  0  0  0  0  0  0  0  0
  137.1269   75.1683  220.0099 H   0  0  0  0  0  0  0  0  0  0  0  0
  136.6391   77.0783  219.3786 H   0  0  0  0  0  0  0  0  0  0  0  0
  136.1414   77.5128  221.1532 H   0  0  0  0  0  0  0  0  0  0  0  0
  137.7284   80.0041  220.9558 H   0  0  0  0  0  0  0  0  0  0  0  0
  137.5324   78.7037  222.2994 H   0  0  0  0  0  0  0  0  0  0  0  0
  138.7647   78.9874  223.9178 H   0  0  0  0  0  0  0  0  0  0  0  0
  141.0000   79.2787  224.9163 H   0  0  0  0  0  0  0  0  0  0  0  0
  142.9750   79.7289  223.4859 H   0  0  0  0  0  0  0  0  0  0  0  0
  142.6582   79.8787  221.0307 H   0  0  0  0  0  0  0  0  0  0  0  0
  140.4381   79.5833  220.0364 H   0  0  0  0  0  0  0  0  0  0  0  0
  139.2438   70.0340  222.4901 H   0  0  0  0  0  0  0  0  0  0  0  0
  138.6021   68.5974  224.3771 H   0  0  0  0  0  0  0  0  0  0  0  0
  138.6244   68.1045  226.7483 H   0  0  0  0  0  0  0  0  0  0  0  0
  139.3627   68.7641  229.0229 H   0  0  0  0  0  0  0  0  0  0  0  0
  140.6959   70.7958  229.3608 H   0  0  0  0  0  0  0  0  0  0  0  0
  141.3492   72.2597  227.4418 H   0  0  0  0  0  0  0  0  0  0  0  0
  1  2  2  0
  2  3  1  0
  3  4  1  0
  4  5  1  0
  5  6  2  0
  5  7  1  0
  7  8  1  0
  8  9  1  0
  9 10  1  0
  9 11  1  0
 11 12  1  0
 11 13  1  0
 13 14  1  0
 14 15  1  0
 15 16  1  0
 16 17  1  0
 17 18  2  0
 18 19  1  0
 19 20  2  0
 20 21  1  0
 21 22  2  0
  2 23  1  0
 23 24  2  0
 24 25  1  0
 25 26  2  0
 26 27  1  0
 27 28  2  0
 28 29  1  0
 29 30  2  0
 30 31  1  0
 31 32  2  0
 13  7  1  0
 22 17  1  0
 32 23  1  0
 31 26  1  0
  3 33  1  0
  4 34  1  0
  4 35  1  0
  8 36  1  0
  8 37  1  0
  9 38  1  6
 10 39  1  0
 11 40  1  6
 12 41  1  0
 13 42  1  6
 14 43  1  0
 14 44  1  0
 16 45  1  0
 16 46  1  0
 18 47  1  0
 19 48  1  0
 20 49  1  0
 21 50  1  0
 22 51  1  0
 24 52  1  0
 25 53  1  0
 27 54  1  0
 28 55  1  0
 29 56  1  0
 30 57  1  0
M  END
>  <smiles>  (5) 
O=C(NCC(=O)N1C[C@H](O)[C@H](O)[C@H]1COCc1ccccc1)c1ccc2ccccc2n1

>  <score_type>  (5) 
oracle

>  <origin>  (5) 
autodockgpu

>  <m_score__min__energy>  (5) 
-9.0299999999999994

>  <m_primary>  (5) 
energy

>  <rmsd>  (5) 
3.840972262141049

>  <m_score__min__rmsd>  (5) 
3.840972262141049

>  <meeko>  (5) 
{"free_energy": -7.34, "intermolecular_energy": -10.32, "internal_energy": -3.79, "cluster_size": 3, "cluster_id": 4, "rank_in_cluster": 2}

>  <energy>  (5) 
-8.98

>  <cluster_rmsd>  (5) 
1.87

>  <cluster>  (5) 
1

$$$$

     RDKit          3D

 57 60  0  0  0  0  0  0  0  0999 V2000
  139.8560   74.3980  222.3240 O   0  0  0  0  0  0  0  0  0  0  0  0
  140.2930   75.3390  221.6050 C   0  0  0  0  0  0  0  0  0  0  0  0
  140.7620   75.0990  220.2890 N   0  0  0  0  0  0  0  0  0  0  0  0
  140.7210   73.7340  219.8060 C   0  0  0  0  0  0  0  0  0  0  0  0
  141.8460   73.4720  218.8550 C   0  0  0  0  0  0  0  0  0  0  0  0
  141.6220   73.1400  217.6630 O   0  0  0  0  0  0  0  0  0  0  0  0
  143.1760   73.5890  219.2720 N   0  0  0  0  0  0  0  0  0  0  0  0
  144.3030   72.9730  218.6030 C   0  0  0  0  0  0  0  0  0  0  0  0
  145.4840   73.1810  219.5390 C   0  0  2  0  0  0  0  0  0  0  0  0
  146.3300   72.0890  219.5880 O   0  0  0  0  0  0  0  0  0  0  0  0
  144.7780   73.4360  220.8710 C   0  0  2  0  0  0  0  0  0  0  0  0
  144.1750   72.2020  221.1920 O   0  0  0  0  0  0  0  0  0  0  0  0
  143.6620   74.3530  220.4500 C   0  0  1  0  0  0  0  0  0  0  0  0
  144.0650   75.7060  219.9580 C   0  0  0  0  0  0  0  0  0  0  0  0
  143.1810   76.6440  219.7230 O   0  0  0  0  0  0  0  0  0  0  0  0
  142.8100   77.2850  218.6400 C   0  0  0  0  0  0  0  0  0  0  0  0
  142.9230   76.6380  217.3240 C   0  0  0  0  0  0  0  0  0  0  0  0
  141.7170   76.3460  216.6720 C   0  0  0  0  0  0  0  0  0  0  0  0
  141.7010   75.7540  215.4220 C   0  0  0  0  0  0  0  0  0  0  0  0
  142.8710   75.4330  214.7790 C   0  0  0  0  0  0  0  0  0  0  0  0
  144.0530   75.7160  215.4110 C   0  0  0  0  0  0  0  0  0  0  0  0
  144.0630   76.3070  216.6580 C   0  0  0  0  0  0  0  0  0  0  0  0
  140.3210   76.7020  222.1230 C   0  0  0  0  0  0  0  0  0  0  0  0
  139.1560   77.3020  222.5470 C   0  0  0  0  0  0  0  0  0  0  0  0
  139.1510   78.5840  223.0380 C   0  0  0  0  0  0  0  0  0  0  0  0
  140.3160   79.3080  223.1220 C   0  0  0  0  0  0  0  0  0  0  0  0
  140.3170   80.5910  223.6130 C   0  0  0  0  0  0  0  0  0  0  0  0
  141.5120   81.2570  223.6690 C   0  0  0  0  0  0  0  0  0  0  0  0
  142.6740   80.6520  223.2450 C   0  0  0  0  0  0  0  0  0  0  0  0
  142.6920   79.3510  222.7430 C   0  0  0  0  0  0  0  0  0  0  0  0
  141.4890   78.6850  222.6880 C   0  0  0  0  0  0  0  0  0  0  0  0
  141.4500   77.4310  222.2150 N   0  0  0  0  0  0  0  0  0  0  0  0
  141.1160   75.9050  219.7250 H   0  0  0  0  0  0  0  0  0  0  0  0
  140.8040   73.0465  220.6607 H   0  0  0  0  0  0  0  0  0  0  0  0
  139.7692   73.5757  219.2778 H   0  0  0  0  0  0  0  0  0  0  0  0
  144.1192   71.8998  218.4463 H   0  0  0  0  0  0  0  0  0  0  0  0
  144.4824   73.4120  217.6105 H   0  0  0  0  0  0  0  0  0  0  0  0
  146.1547   73.9951  219.2269 H   0  0  0  0  0  0  0  0  0  0  0  0
  146.1380   71.5640  220.4280 H   0  0  0  0  0  0  0  0  0  0  0  0
  145.4051   73.8191  221.6895 H   0  0  0  0  0  0  0  0  0  0  0  0
  144.8750   71.4970  221.1100 H   0  0  0  0  0  0  0  0  0  0  0  0
  142.9820   74.5703  221.2869 H   0  0  0  0  0  0  0  0  0  0  0  0
  144.7577   76.1146  220.7085 H   0  0  0  0  0  0  0  0  0  0  0  0
  144.4461   75.4851  218.9500 H   0  0  0  0  0  0  0  0  0  0  0  0
  141.7502   77.5472  218.7743 H   0  0  0  0  0  0  0  0  0  0  0  0
  143.5332   78.1114  218.5768 H   0  0  0  0  0  0  0  0  0  0  0  0
  140.7646   76.5925  217.1641 H   0  0  0  0  0  0  0  0  0  0  0  0
  140.7380   75.5374  214.9365 H   0  0  0  0  0  0  0  0  0  0  0  0
  142.8595   74.9621  213.7850 H   0  0  0  0  0  0  0  0  0  0  0  0
  145.0053   75.4693  214.9187 H   0  0  0  0  0  0  0  0  0  0  0  0
  145.0320   76.5193  217.1333 H   0  0  0  0  0  0  0  0  0  0  0  0
  138.2105   76.7427  222.4911 H   0  0  0  0  0  0  0  0  0  0  0  0
  138.2042   79.0366  223.3677 H   0  0  0  0  0  0  0  0  0  0  0  0
  139.3857   81.0689  223.9510 H   0  0  0  0  0  0  0  0  0  0  0  0
  141.5441   82.2859  224.0567 H   0  0  0  0  0  0  0  0  0  0  0  0
  143.6184   81.2129  223.3041 H   0  0  0  0  0  0  0  0  0  0  0  0
  143.6263   78.8782  222.4060 H   0  0  0  0  0  0  0  0  0  0  0  0
  1  2  2  0
  2  3  1  0
  3  4  1  0
  4  5  1  0
  5  6  2  0
  5  7  1  0
  7  8  1  0
  8  9  1  0
  9 10  1  0
  9 11  1  0
 11 12  1  0
 11 13  1  0
 13 14  1  0
 14 15  1  0
 15 16  1  0
 16 17  1  0
 17 18  2  0
 18 19  1  0
 19 20  2  0
 20 21  1  0
 21 22  2  0
  2 23  1  0
 23 24  2  0
 24 25  1  0
 25 26  2  0
 26 27  1  0
 27 28  2  0
 28 29  1  0
 29 30  2  0
 30 31  1  0
 31 32  2  0
 13  7  1  0
 22 17  1  0
 32 23  1  0
 31 26  1  0
  3 33  1  0
  4 34  1  0
  4 35  1  0
  8 36  1  0
  8 37  1  0
  9 38  1  6
 10 39  1  0
 11 40  1  1
 12 41  1  0
 13 42  1  1
 14 43  1  0
 14 44  1  0
 16 45  1  0
 16 46  1  0
 18 47  1  0
 19 48  1  0
 20 49  1  0
 21 50  1  0
 22 51  1  0
 24 52  1  0
 25 53  1  0
 27 54  1  0
 28 55  1  0
 29 56  1  0
 30 57  1  0
M  END
>  <smiles>  (6) 
O=C(NCC(=O)N1C[C@H](O)[C@H](O)[C@H]1COCc1ccccc1)c1ccc2ccccc2n1

>  <score_type>  (6) 
oracle

>  <origin>  (6) 
autodockgpu

>  <m_score__min__energy>  (6) 
-9.0299999999999994

>  <m_primary>  (6) 
energy

>  <rmsd>  (6) 
7.448934455830065

>  <m_score__min__rmsd>  (6) 
7.448934455830065

>  <meeko>  (6) 
{"free_energy": -6.62, "intermolecular_energy": -9.6, "internal_energy": -4.63, "cluster_size": 34, "cluster_id": 5, "rank_in_cluster": 34}

>  <energy>  (6) 
-8.9

>  <cluster_rmsd>  (6) 
0.31

>  <cluster>  (6) 
1

$$$$

     RDKit          3D

 57 60  0  0  0  0  0  0  0  0999 V2000
  139.5540   74.6430  222.5060 O   0  0  0  0  0  0  0  0  0  0  0  0
  140.1990   75.5090  221.8520 C   0  0  0  0  0  0  0  0  0  0  0  0
  140.8570   75.1730  220.6420 N   0  0  0  0  0  0  0  0  0  0  0  0
  140.7590   73.8000  220.1900 C   0  0  0  0  0  0  0  0  0  0  0  0
  141.8910   72.9810  220.7270 C   0  0  0  0  0  0  0  0  0  0  0  0
  141.6860   72.0580  221.5550 O   0  0  0  0  0  0  0  0  0  0  0  0
  143.2070   73.2240  220.3180 N   0  0  0  0  0  0  0  0  0  0  0  0
  143.9500   72.3850  219.4020 C   0  0  0  0  0  0  0  0  0  0  0  0
  145.3770   72.9090  219.4510 C   0  0  2  0  0  0  0  0  0  0  0  0
  146.3230   71.9020  219.4000 O   0  0  0  0  0  0  0  0  0  0  0  0
  145.3850   73.6550  220.7860 C   0  0  2  0  0  0  0  0  0  0  0  0
  145.2570   72.6400  221.7560 O   0  0  0  0  0  0  0  0  0  0  0  0
  144.0600   74.3650  220.7410 C   0  0  1  0  0  0  0  0  0  0  0  0
  143.9120   75.4300  219.7020 C   0  0  0  0  0  0  0  0  0  0  0  0
  142.8250   75.5410  218.9800 O   0  0  0  0  0  0  0  0  0  0  0  0
  142.4330   76.3890  218.0580 C   0  0  0  0  0  0  0  0  0  0  0  0
  142.2780   77.8140  218.3860 C   0  0  0  0  0  0  0  0  0  0  0  0
  141.3360   78.1220  219.3780 C   0  0  0  0  0  0  0  0  0  0  0  0
  141.1170   79.4260  219.7810 C   0  0  0  0  0  0  0  0  0  0  0  0
  141.8180   80.4650  219.2200 C   0  0  0  0  0  0  0  0  0  0  0  0
  142.7400   80.1700  218.2510 C   0  0  0  0  0  0  0  0  0  0  0  0
  142.9550   78.8670  217.8530 C   0  0  0  0  0  0  0  0  0  0  0  0
  140.2780   76.8810  222.3360 C   0  0  0  0  0  0  0  0  0  0  0  0
  139.1260   77.5670  222.6540 C   0  0  0  0  0  0  0  0  0  0  0  0
  139.1680   78.8610  223.1110 C   0  0  0  0  0  0  0  0  0  0  0  0
  140.3690   79.5110  223.2660 C   0  0  0  0  0  0  0  0  0  0  0  0
  140.4170   80.8060  223.7240 C   0  0  0  0  0  0  0  0  0  0  0  0
  141.6460   81.3950  223.8550 C   0  0  0  0  0  0  0  0  0  0  0  0
  142.7940   80.7060  223.5370 C   0  0  0  0  0  0  0  0  0  0  0  0
  142.7640   79.3920  223.0710 C   0  0  0  0  0  0  0  0  0  0  0  0
  141.5280   78.8020  222.9400 C   0  0  0  0  0  0  0  0  0  0  0  0
  141.4420   77.5400  222.4960 N   0  0  0  0  0  0  0  0  0  0  0  0
  141.3820   75.9180  220.1290 H   0  0  0  0  0  0  0  0  0  0  0  0
  139.8074   73.3726  220.5390 H   0  0  0  0  0  0  0  0  0  0  0  0
  140.8048   73.7867  219.0910 H   0  0  0  0  0  0  0  0  0  0  0  0
  143.9135   71.3342  219.7251 H   0  0  0  0  0  0  0  0  0  0  0  0
  143.5342   72.4181  218.3841 H   0  0  0  0  0  0  0  0  0  0  0  0
  145.6440   73.5370  218.5882 H   0  0  0  0  0  0  0  0  0  0  0  0
  146.4090   71.4880  220.3170 H   0  0  0  0  0  0  0  0  0  0  0  0
  146.2505   74.3067  220.9763 H   0  0  0  0  0  0  0  0  0  0  0  0
  145.2680   71.7660  221.2780 H   0  0  0  0  0  0  0  0  0  0  0  0
  143.8531   74.8897  221.6854 H   0  0  0  0  0  0  0  0  0  0  0  0
  144.0362   76.3904  220.2237 H   0  0  0  0  0  0  0  0  0  0  0  0
  144.6610   75.1324  218.9533 H   0  0  0  0  0  0  0  0  0  0  0  0
  143.1661   76.3296  217.2400 H   0  0  0  0  0  0  0  0  0  0  0  0
  141.4040   76.0670  217.8403 H   0  0  0  0  0  0  0  0  0  0  0  0
  140.7597   77.3096  219.8449 H   0  0  0  0  0  0  0  0  0  0  0  0
  140.3708   79.6343  220.5619 H   0  0  0  0  0  0  0  0  0  0  0  0
  141.6443   81.5032  219.5393 H   0  0  0  0  0  0  0  0  0  0  0  0
  143.3163   80.9825  217.7843 H   0  0  0  0  0  0  0  0  0  0  0  0
  143.7048   78.6710  217.0724 H   0  0  0  0  0  0  0  0  0  0  0  0
  138.1527   77.0676  222.5394 H   0  0  0  0  0  0  0  0  0  0  0  0
  138.2310   79.3827  223.3555 H   0  0  0  0  0  0  0  0  0  0  0  0
  139.4965   81.3523  223.9775 H   0  0  0  0  0  0  0  0  0  0  0  0
  141.7166   82.4308  224.2186 H   0  0  0  0  0  0  0  0  0  0  0  0
  143.7660   81.2076  223.6541 H   0  0  0  0  0  0  0  0  0  0  0  0
  143.6880   78.8509  222.8192 H   0  0  0  0  0  0  0  0  0  0  0  0
  1  2  2  0
  2  3  1  0
  3  4  1  0
  4  5  1  0
  5  6  2  0
  5  7  1  0
  7  8  1  0
  8  9  1  0
  9 10  1  0
  9 11  1  0
 11 12  1  0
 11 13  1  0
 13 14  1  0
 14 15  1  0
 15 16  1  0
 16 17  1  0
 17 18  2  0
 18 19  1  0
 19 20  2  0
 20 21  1  0
 21 22  2  0
  2 23  1  0
 23 24  2  0
 24 25  1  0
 25 26  2  0
 26 27  1  0
 27 28  2  0
 28 29  1  0
 29 30  2  0
 30 31  1  0
 31 32  2  0
 13  7  1  0
 22 17  1  0
 32 23  1  0
 31 26  1  0
  3 33  1  0
  4 34  1  0
  4 35  1  0
  8 36  1  0
  8 37  1  0
  9 38  1  6
 10 39  1  0
 11 40  1  1
 12 41  1  0
 13 42  1  1
 14 43  1  0
 14 44  1  0
 16 45  1  0
 16 46  1  0
 18 47  1  0
 19 48  1  0
 20 49  1  0
 21 50  1  0
 22 51  1  0
 24 52  1  0
 25 53  1  0
 27 54  1  0
 28 55  1  0
 29 56  1  0
 30 57  1  0
M  END
>  <smiles>  (7) 
O=C(NCC(=O)N1C[C@H](O)[C@H](O)[C@H]1COCc1ccccc1)c1ccc2ccccc2n1

>  <score_type>  (7) 
oracle

>  <origin>  (7) 
autodockgpu

>  <m_score__min__energy>  (7) 
-9.0299999999999994

>  <m_primary>  (7) 
energy

>  <rmsd>  (7) 
7.49401231237585

>  <m_score__min__rmsd>  (7) 
7.49401231237585

>  <meeko>  (7) 
{"free_energy": -7.7, "intermolecular_energy": -10.69, "internal_energy": -4.75, "cluster_size": 34, "cluster_id": 5, "rank_in_cluster": 11}

>  <energy>  (7) 
-8.88

>  <cluster_rmsd>  (7) 
1.86

>  <cluster>  (7) 
1

$$$$

     RDKit          3D

 57 60  0  0  0  0  0  0  0  0999 V2000
  139.8860   74.2890  222.3210 O   0  0  0  0  0  0  0  0  0  0  0  0
  140.2470   75.2420  221.5760 C   0  0  0  0  0  0  0  0  0  0  0  0
  140.6330   75.0140  220.2310 N   0  0  0  0  0  0  0  0  0  0  0  0
  140.5960   73.6480  219.7500 C   0  0  0  0  0  0  0  0  0  0  0  0
  141.7420   73.3780  218.8250 C   0  0  0  0  0  0  0  0  0  0  0  0
  141.5460   72.9280  217.6670 O   0  0  0  0  0  0  0  0  0  0  0  0
  143.0590   73.6210  219.2280 N   0  0  0  0  0  0  0  0  0  0  0  0
  144.2280   73.0400  218.6030 C   0  0  0  0  0  0  0  0  0  0  0  0
  145.3890   73.3990  219.5190 C   0  0  2  0  0  0  0  0  0  0  0  0
  146.3120   72.3780  219.6450 O   0  0  0  0  0  0  0  0  0  0  0  0
  144.6630   73.6990  220.8310 C   0  0  2  0  0  0  0  0  0  0  0  0
  144.1500   72.4520  221.2420 O   0  0  0  0  0  0  0  0  0  0  0  0
  143.4860   74.5010  220.3470 C   0  0  1  0  0  0  0  0  0  0  0  0
  143.7920   75.8400  219.7570 C   0  0  0  0  0  0  0  0  0  0  0  0
  142.8830   76.5350  219.1200 O   0  0  0  0  0  0  0  0  0  0  0  0
  142.8800   77.7210  218.5570 C   0  0  0  0  0  0  0  0  0  0  0  0
  141.9320   78.7500  219.0110 C   0  0  0  0  0  0  0  0  0  0  0  0
  140.5990   78.3420  219.1580 C   0  0  0  0  0  0  0  0  0  0  0  0
  139.6230   79.2190  219.5960 C   0  0  0  0  0  0  0  0  0  0  0  0
  139.9320   80.5220  219.9020 C   0  0  0  0  0  0  0  0  0  0  0  0
  141.2330   80.9260  219.7600 C   0  0  0  0  0  0  0  0  0  0  0  0
  142.2030   80.0470  219.3240 C   0  0  0  0  0  0  0  0  0  0  0  0
  140.2740   76.6050  222.0920 C   0  0  0  0  0  0  0  0  0  0  0  0
  139.1100   77.1970  222.5330 C   0  0  0  0  0  0  0  0  0  0  0  0
  139.1030   78.4800  223.0230 C   0  0  0  0  0  0  0  0  0  0  0  0
  140.2640   79.2120  223.0880 C   0  0  0  0  0  0  0  0  0  0  0  0
  140.2630   80.4950  223.5790 C   0  0  0  0  0  0  0  0  0  0  0  0
  141.4540   81.1700  223.6160 C   0  0  0  0  0  0  0  0  0  0  0  0
  142.6140   80.5730  223.1750 C   0  0  0  0  0  0  0  0  0  0  0  0
  142.6340   79.2730  222.6740 C   0  0  0  0  0  0  0  0  0  0  0  0
  141.4350   78.5970  222.6380 C   0  0  0  0  0  0  0  0  0  0  0  0
  141.3980   77.3430  222.1660 N   0  0  0  0  0  0  0  0  0  0  0  0
  140.9270   75.8280  219.6450 H   0  0  0  0  0  0  0  0  0  0  0  0
  140.6558   72.9620  220.6078 H   0  0  0  0  0  0  0  0  0  0  0  0
  139.6557   73.4934  219.2004 H   0  0  0  0  0  0  0  0  0  0  0  0
  144.1213   71.9480  218.5251 H   0  0  0  0  0  0  0  0  0  0  0  0
  144.3785   73.4173  217.5808 H   0  0  0  0  0  0  0  0  0  0  0  0
  146.0004   74.2341  219.1465 H   0  0  0  0  0  0  0  0  0  0  0  0
  146.1190   71.8660  220.4920 H   0  0  0  0  0  0  0  0  0  0  0  0
  145.2584   74.1845  221.6183 H   0  0  0  0  0  0  0  0  0  0  0  0
  144.9040   71.8000  221.2310 H   0  0  0  0  0  0  0  0  0  0  0  0
  142.7903   74.7292  221.1679 H   0  0  0  0  0  0  0  0  0  0  0  0
  144.1390   76.4721  220.5876 H   0  0  0  0  0  0  0  0  0  0  0  0
  144.4987   75.5860  218.9533 H   0  0  0  0  0  0  0  0  0  0  0  0
  143.8890   78.1382  218.6907 H   0  0  0  0  0  0  0  0  0  0  0  0
  142.5507   77.5110  217.5287 H   0  0  0  0  0  0  0  0  0  0  0  0
  140.3236   77.3039  218.9204 H   0  0  0  0  0  0  0  0  0  0  0  0
  138.5857   78.8683  219.7006 H   0  0  0  0  0  0  0  0  0  0  0  0
  139.1572   81.2206  220.2509 H   0  0  0  0  0  0  0  0  0  0  0  0
  141.5080   81.9645  219.9966 H   0  0  0  0  0  0  0  0  0  0  0  0
  143.2371   80.4087  219.2253 H   0  0  0  0  0  0  0  0  0  0  0  0
  138.1679   76.6306  222.4917 H   0  0  0  0  0  0  0  0  0  0  0  0
  138.1582   78.9262  223.3669 H   0  0  0  0  0  0  0  0  0  0  0  0
  139.3336   80.9659  223.9318 H   0  0  0  0  0  0  0  0  0  0  0  0
  141.4844   82.1996  224.0019 H   0  0  0  0  0  0  0  0  0  0  0  0
  143.5551   81.1407  223.2197 H   0  0  0  0  0  0  0  0  0  0  0  0
  143.5666   78.8073  222.3227 H   0  0  0  0  0  0  0  0  0  0  0  0
  1  2  2  0
  2  3  1  0
  3  4  1  0
  4  5  1  0
  5  6  2  0
  5  7  1  0
  7  8  1  0
  8  9  1  0
  9 10  1  0
  9 11  1  0
 11 12  1  0
 11 13  1  0
 13 14  1  0
 14 15  1  0
 15 16  1  0
 16 17  1  0
 17 18  2  0
 18 19  1  0
 19 20  2  0
 20 21  1  0
 21 22  2  0
  2 23  1  0
 23 24  2  0
 24 25  1  0
 25 26  2  0
 26 27  1  0
 27 28  2  0
 28 29  1  0
 29 30  2  0
 30 31  1  0
 31 32  2  0
 13  7  1  0
 22 17  1  0
 32 23  1  0
 31 26  1  0
  3 33  1  0
  4 34  1  0
  4 35  1  0
  8 36  1  0
  8 37  1  0
  9 38  1  6
 10 39  1  0
 11 40  1  1
 12 41  1  0
 13 42  1  1
 14 43  1  0
 14 44  1  0
 16 45  1  0
 16 46  1  0
 18 47  1  0
 19 48  1  0
 20 49  1  0
 21 50  1  0
 22 51  1  0
 24 52  1  0
 25 53  1  0
 27 54  1  0
 28 55  1  0
 29 56  1  0
 30 57  1  0
M  END
>  <smiles>  (8) 
O=C(NCC(=O)N1C[C@H](O)[C@H](O)[C@H]1COCc1ccccc1)c1ccc2ccccc2n1

>  <score_type>  (8) 
oracle

>  <origin>  (8) 
autodockgpu

>  <m_score__min__energy>  (8) 
-9.0299999999999994

>  <m_primary>  (8) 
energy

>  <rmsd>  (8) 
7.3553532730432085

>  <m_score__min__rmsd>  (8) 
7.3553532730432085

>  <meeko>  (8) 
{"free_energy": -6.98, "intermolecular_energy": -9.97, "internal_energy": -5.3, "cluster_size": 34, "cluster_id": 5, "rank_in_cluster": 31}

>  <energy>  (8) 
-8.83

>  <cluster_rmsd>  (8) 
1.89

>  <cluster>  (8) 
1

$$$$

     RDKit          3D

 57 60  0  0  0  0  0  0  0  0999 V2000
  138.9590   75.1040  222.2670 O   0  0  0  0  0  0  0  0  0  0  0  0
  140.0220   75.7160  221.9690 C   0  0  0  0  0  0  0  0  0  0  0  0
  141.0320   75.0960  221.1920 N   0  0  0  0  0  0  0  0  0  0  0  0
  140.7950   73.7350  220.7560 C   0  0  0  0  0  0  0  0  0  0  0  0
  141.9620   72.8590  221.0880 C   0  0  0  0  0  0  0  0  0  0  0  0
  141.8490   71.9160  221.9120 O   0  0  0  0  0  0  0  0  0  0  0  0
  143.2080   73.0700  220.4880 N   0  0  0  0  0  0  0  0  0  0  0  0
  143.9710   72.0490  219.8020 C   0  0  0  0  0  0  0  0  0  0  0  0
  145.3300   72.6800  219.5370 C   0  0  2  0  0  0  0  0  0  0  0  0
  146.3770   71.7920  219.7000 O   0  0  0  0  0  0  0  0  0  0  0  0
  145.3520   73.8080  220.5690 C   0  0  2  0  0  0  0  0  0  0  0  0
  145.4110   73.1460  221.8120 O   0  0  0  0  0  0  0  0  0  0  0  0
  143.9550   74.3530  220.4470 C   0  0  1  0  0  0  0  0  0  0  0  0
  143.6130   75.0180  219.1530 C   0  0  0  0  0  0  0  0  0  0  0  0
  142.9170   76.1270  219.1120 O   0  0  0  0  0  0  0  0  0  0  0  0
  142.9000   77.1550  218.2950 C   0  0  0  0  0  0  0  0  0  0  0  0
  142.3220   78.4340  218.7330 C   0  0  0  0  0  0  0  0  0  0  0  0
  142.8970   79.5920  218.1900 C   0  0  0  0  0  0  0  0  0  0  0  0
  142.4230   80.8500  218.5150 C   0  0  0  0  0  0  0  0  0  0  0  0
  141.3710   81.0050  219.3830 C   0  0  0  0  0  0  0  0  0  0  0  0
  140.8050   79.8770  219.9170 C   0  0  0  0  0  0  0  0  0  0  0  0
  141.2810   78.6240  219.5890 C   0  0  0  0  0  0  0  0  0  0  0  0
  140.2290   77.0850  222.4250 C   0  0  0  0  0  0  0  0  0  0  0  0
  139.1470   77.8700  222.7610 C   0  0  0  0  0  0  0  0  0  0  0  0
  139.3100   79.1640  223.1930 C   0  0  0  0  0  0  0  0  0  0  0  0
  140.5640   79.7140  223.3020 C   0  0  0  0  0  0  0  0  0  0  0  0
  140.7330   81.0070  223.7340 C   0  0  0  0  0  0  0  0  0  0  0  0
  142.0100   81.4940  223.8200 C   0  0  0  0  0  0  0  0  0  0  0  0
  143.0870   80.7060  223.4840 C   0  0  0  0  0  0  0  0  0  0  0  0
  142.9350   79.3920  223.0430 C   0  0  0  0  0  0  0  0  0  0  0  0
  141.6500   78.9050  222.9570 C   0  0  0  0  0  0  0  0  0  0  0  0
  141.4470   77.6470  222.5410 N   0  0  0  0  0  0  0  0  0  0  0  0
  141.8980   75.6360  220.9660 H   0  0  0  0  0  0  0  0  0  0  0  0
  139.8976   73.3462  221.2596 H   0  0  0  0  0  0  0  0  0  0  0  0
  140.6530   73.7342  219.6652 H   0  0  0  0  0  0  0  0  0  0  0  0
  144.0769   71.1556  220.4349 H   0  0  0  0  0  0  0  0  0  0  0  0
  143.4803   71.7223  218.8733 H   0  0  0  0  0  0  0  0  0  0  0  0
  145.4602   73.0225  218.4998 H   0  0  0  0  0  0  0  0  0  0  0  0
  146.4970   71.6040  220.6840 H   0  0  0  0  0  0  0  0  0  0  0  0
  146.1502   74.5566  220.4575 H   0  0  0  0  0  0  0  0  0  0  0  0
  145.5080   72.1710  221.6280 H   0  0  0  0  0  0  0  0  0  0  0  0
  143.7592   75.1303  221.2004 H   0  0  0  0  0  0  0  0  0  0  0  0
  144.5692   75.2342  218.6541 H   0  0  0  0  0  0  0  0  0  0  0  0
  142.9263   74.2932  218.6914 H   0  0  0  0  0  0  0  0  0  0  0  0
  143.9451   77.3574  218.0179 H   0  0  0  0  0  0  0  0  0  0  0  0
  142.2179   76.8305  217.4954 H   0  0  0  0  0  0  0  0  0  0  0  0
  143.7418   79.4980  217.4918 H   0  0  0  0  0  0  0  0  0  0  0  0
  142.8957   81.7388  218.0717 H   0  0  0  0  0  0  0  0  0  0  0  0
  140.9934   82.0051  219.6423 H   0  0  0  0  0  0  0  0  0  0  0  0
  139.9607   79.9715  220.6158 H   0  0  0  0  0  0  0  0  0  0  0  0
  140.7994   77.7427  220.0377 H   0  0  0  0  0  0  0  0  0  0  0  0
  138.1326   77.4520  222.6817 H   0  0  0  0  0  0  0  0  0  0  0  0
  138.4271   79.7659  223.4543 H   0  0  0  0  0  0  0  0  0  0  0  0
  139.8688   81.6322  224.0027 H   0  0  0  0  0  0  0  0  0  0  0  0
  142.1767   82.5263  224.1614 H   0  0  0  0  0  0  0  0  0  0  0  0
  144.1003   81.1262  223.5659 H   0  0  0  0  0  0  0  0  0  0  0  0
  143.8033   78.7719  222.7756 H   0  0  0  0  0  0  0  0  0  0  0  0
  1  2  2  0
  2  3  1  0
  3  4  1  0
  4  5  1  0
  5  6  2  0
  5  7  1  0
  7  8  1  0
  8  9  1  0
  9 10  1  0
  9 11  1  0
 11 12  1  0
 11 13  1  0
 13 14  1  0
 14 15  1  0
 15 16  1  0
 16 17  1  0
 17 18  2  0
 18 19  1  0
 19 20  2  0
 20 21  1  0
 21 22  2  0
  2 23  1  0
 23 24  2  0
 24 25  1  0
 25 26  2  0
 26 27  1  0
 27 28  2  0
 28 29  1  0
 29 30  2  0
 30 31  1  0
 31 32  2  0
 13  7  1  0
 22 17  1  0
 32 23  1  0
 31 26  1  0
  3 33  1  0
  4 34  1  0
  4 35  1  0
  8 36  1  0
  8 37  1  0
  9 38  1  6
 10 39  1  0
 11 40  1  6
 12 41  1  0
 13 42  1  1
 14 43  1  0
 14 44  1  0
 16 45  1  0
 16 46  1  0
 18 47  1  0
 19 48  1  0
 20 49  1  0
 21 50  1  0
 22 51  1  0
 24 52  1  0
 25 53  1  0
 27 54  1  0
 28 55  1  0
 29 56  1  0
 30 57  1  0
M  END
>  <smiles>  (9) 
O=C(NCC(=O)N1C[C@H](O)[C@H](O)[C@H]1COCc1ccccc1)c1ccc2ccccc2n1

>  <score_type>  (9) 
oracle

>  <origin>  (9) 
autodockgpu

>  <m_score__min__energy>  (9) 
-9.0299999999999994

>  <m_primary>  (9) 
energy

>  <rmsd>  (9) 
7.614596027376055

>  <m_score__min__rmsd>  (9) 
7.614596027376055

>  <meeko>  (9) 
{"free_energy": -8.03, "intermolecular_energy": -11.01, "internal_energy": -4.71, "cluster_size": 34, "cluster_id": 5, "rank_in_cluster": 4}

>  <energy>  (9) 
-8.67

>  <cluster_rmsd>  (9) 
0.57

>  <cluster>  (9) 
1

$$$$

     RDKit          3D

 57 60  0  0  0  0  0  0  0  0999 V2000
  138.9830   75.0750  222.3430 O   0  0  0  0  0  0  0  0  0  0  0  0
  140.0950   75.6420  222.1580 C   0  0  0  0  0  0  0  0  0  0  0  0
  141.2110   74.9220  221.6610 N   0  0  0  0  0  0  0  0  0  0  0  0
  141.0220   73.5150  221.3760 C   0  0  0  0  0  0  0  0  0  0  0  0
  141.7320   73.1270  220.1170 C   0  0  0  0  0  0  0  0  0  0  0  0
  141.1240   72.5430  219.1840 O   0  0  0  0  0  0  0  0  0  0  0  0
  143.0930   73.4060  219.9490 N   0  0  0  0  0  0  0  0  0  0  0  0
  143.9730   72.6870  219.0520 C   0  0  0  0  0  0  0  0  0  0  0  0
  145.3720   73.1810  219.3860 C   0  0  2  0  0  0  0  0  0  0  0  0
  146.3220   72.1770  219.3460 O   0  0  0  0  0  0  0  0  0  0  0  0
  145.1710   73.7430  220.7950 C   0  0  2  0  0  0  0  0  0  0  0  0
  144.9040   72.6090  221.5900 O   0  0  0  0  0  0  0  0  0  0  0  0
  143.8630   74.4690  220.6450 C   0  0  1  0  0  0  0  0  0  0  0  0
  143.8670   75.6650  219.7470 C   0  0  0  0  0  0  0  0  0  0  0  0
  142.9560   76.6010  219.8440 O   0  0  0  0  0  0  0  0  0  0  0  0
  142.1620   77.1840  218.9760 C   0  0  0  0  0  0  0  0  0  0  0  0
  141.9870   78.6440  219.0020 C   0  0  0  0  0  0  0  0  0  0  0  0
  142.8280   79.3840  218.1590 C   0  0  0  0  0  0  0  0  0  0  0  0
  142.7410   80.7620  218.0870 C   0  0  0  0  0  0  0  0  0  0  0  0
  141.8250   81.4510  218.8420 C   0  0  0  0  0  0  0  0  0  0  0  0
  141.0010   80.7340  219.6680 C   0  0  0  0  0  0  0  0  0  0  0  0
  141.0910   79.3590  219.7360 C   0  0  0  0  0  0  0  0  0  0  0  0
  140.2510   77.0610  222.4570 C   0  0  0  0  0  0  0  0  0  0  0  0
  139.1400   77.8680  222.5600 C   0  0  0  0  0  0  0  0  0  0  0  0
  139.2550   79.2090  222.8380 C   0  0  0  0  0  0  0  0  0  0  0  0
  140.4890   79.7830  223.0240 C   0  0  0  0  0  0  0  0  0  0  0  0
  140.6100   81.1230  223.3040 C   0  0  0  0  0  0  0  0  0  0  0  0
  141.8700   81.6320  223.4770 C   0  0  0  0  0  0  0  0  0  0  0  0
  142.9770   80.8190  223.3740 C   0  0  0  0  0  0  0  0  0  0  0  0
  142.8730   79.4590  223.0900 C   0  0  0  0  0  0  0  0  0  0  0  0
  141.6060   78.9500  222.9160 C   0  0  0  0  0  0  0  0  0  0  0  0
  141.4490   77.6470  222.6420 N   0  0  0  0  0  0  0  0  0  0  0  0
  142.1160   75.4270  221.5220 H   0  0  0  0  0  0  0  0  0  0  0  0
  141.4201   72.9212  222.2120 H   0  0  0  0  0  0  0  0  0  0  0  0
  139.9466   73.3230  221.2474 H   0  0  0  0  0  0  0  0  0  0  0  0
  143.8957   71.6030  219.2223 H   0  0  0  0  0  0  0  0  0  0  0  0
  143.7163   72.8611  217.9966 H   0  0  0  0  0  0  0  0  0  0  0  0
  145.7626   73.9142  218.6650 H   0  0  0  0  0  0  0  0  0  0  0  0
  146.3470   71.7150  220.2430 H   0  0  0  0  0  0  0  0  0  0  0  0
  145.9925   74.3525  221.1995 H   0  0  0  0  0  0  0  0  0  0  0  0
  145.2600   71.8140  221.1060 H   0  0  0  0  0  0  0  0  0  0  0  0
  143.5106   74.8655  221.6087 H   0  0  0  0  0  0  0  0  0  0  0  0
  144.8374   76.1610  219.8965 H   0  0  0  0  0  0  0  0  0  0  0  0
  143.6442   75.2218  218.7652 H   0  0  0  0  0  0  0  0  0  0  0  0
  142.5425   76.9279  217.9762 H   0  0  0  0  0  0  0  0  0  0  0  0
  141.1664   76.8059  219.2515 H   0  0  0  0  0  0  0  0  0  0  0  0
  143.5718   78.8579  217.5426 H   0  0  0  0  0  0  0  0  0  0  0  0
  143.4152   81.3137  217.4154 H   0  0  0  0  0  0  0  0  0  0  0  0
  141.7548   82.5473  218.7852 H   0  0  0  0  0  0  0  0  0  0  0  0
  140.2582   81.2609  220.2849 H   0  0  0  0  0  0  0  0  0  0  0  0
  140.4110   78.8185  220.4108 H   0  0  0  0  0  0  0  0  0  0  0  0
  138.1408   77.4307  222.4170 H   0  0  0  0  0  0  0  0  0  0  0  0
  138.3495   79.8291  222.9123 H   0  0  0  0  0  0  0  0  0  0  0  0
  139.7222   81.7672  223.3867 H   0  0  0  0  0  0  0  0  0  0  0  0
  141.9990   82.7013  223.7006 H   0  0  0  0  0  0  0  0  0  0  0  0
  143.9751   81.2575  223.5206 H   0  0  0  0  0  0  0  0  0  0  0  0
  143.7645   78.8199  223.0084 H   0  0  0  0  0  0  0  0  0  0  0  0
  1  2  2  0
  2  3  1  0
  3  4  1  0
  4  5  1  0
  5  6  2  0
  5  7  1  0
  7  8  1  0
  8  9  1  0
  9 10  1  0
  9 11  1  0
 11 12  1  0
 11 13  1  0
 13 14  1  0
 14 15  1  0
 15 16  1  0
 16 17  1  0
 17 18  2  0
 18 19  1  0
 19 20  2  0
 20 21  1  0
 21 22  2  0
  2 23  1  0
 23 24  2  0
 24 25  1  0
 25 26  2  0
 26 27  1  0
 27 28  2  0
 28 29  1  0
 29 30  2  0
 30 31  1  0
 31 32  2  0
 13  7  1  0
 22 17  1  0
 32 23  1  0
 31 26  1  0
  3 33  1  0
  4 34  1  0
  4 35  1  0
  8 36  1  0
  8 37  1  0
  9 38  1  6
 10 39  1  0
 11 40  1  1
 12 41  1  0
 13 42  1  1
 14 43  1  0
 14 44  1  0
 16 45  1  0
 16 46  1  0
 18 47  1  0
 19 48  1  0
 20 49  1  0
 21 50  1  0
 22 51  1  0
 24 52  1  0
 25 53  1  0
 27 54  1  0
 28 55  1  0
 29 56  1  0
 30 57  1  0
M  END
>  <smiles>  (10) 
O=C(NCC(=O)N1C[C@H](O)[C@H](O)[C@H]1COCc1ccccc1)c1ccc2ccccc2n1

>  <score_type>  (10) 
oracle

>  <origin>  (10) 
autodockgpu

>  <m_score__min__energy>  (10) 
-9.0299999999999994

>  <m_primary>  (10) 
energy

>  <rmsd>  (10) 
7.622720618163793

>  <m_score__min__rmsd>  (10) 
7.622720618163793

>  <meeko>  (10) 
{"free_energy": -7.57, "intermolecular_energy": -10.55, "internal_energy": -4.79, "cluster_size": 34, "cluster_id": 5, "rank_in_cluster": 23}

>  <energy>  (10) 
-8.94

>  <cluster_rmsd>  (10) 
0.0

>  <cluster>  (10) 
2

$$$$

     RDKit          3D

 57 60  0  0  0  0  0  0  0  0999 V2000
  138.9500   72.6390  220.8210 O   0  0  0  0  0  0  0  0  0  0  0  0
  139.9740   72.0050  220.4450 C   0  0  0  0  0  0  0  0  0  0  0  0
  139.8760   70.6760  219.9610 N   0  0  0  0  0  0  0  0  0  0  0  0
  138.5570   70.0790  219.9160 C   0  0  0  0  0  0  0  0  0  0  0  0
  138.3340   69.1910  221.1000 C   0  0  0  0  0  0  0  0  0  0  0  0
  138.3980   67.9400  220.9930 O   0  0  0  0  0  0  0  0  0  0  0  0
  138.0470   69.7350  222.3570 N   0  0  0  0  0  0  0  0  0  0  0  0
  136.8400   70.4660  222.6790 C   0  0  0  0  0  0  0  0  0  0  0  0
  137.0850   71.0510  224.0620 C   0  0  2  0  0  0  0  0  0  0  0  0
  136.5760   72.3280  224.2040 O   0  0  0  0  0  0  0  0  0  0  0  0
  138.6110   71.0140  224.1440 C   0  0  2  0  0  0  0  0  0  0  0  0
  139.0370   71.9580  223.1870 O   0  0  0  0  0  0  0  0  0  0  0  0
  138.9120   69.6600  223.5630 C   0  0  1  0  0  0  0  0  0  0  0  0
  138.4520   68.4800  224.3590 C   0  0  0  0  0  0  0  0  0  0  0  0
  139.0200   68.1510  225.4920 O   0  0  0  0  0  0  0  0  0  0  0  0
  140.1940   68.4030  226.0220 C   0  0  0  0  0  0  0  0  0  0  0  0
  140.5030   69.7500  226.5260 C   0  0  0  0  0  0  0  0  0  0  0  0
  139.9470   70.0880  227.7680 C   0  0  0  0  0  0  0  0  0  0  0  0
  140.1830   71.3210  228.3490 C   0  0  0  0  0  0  0  0  0  0  0  0
  140.9720   72.2550  227.7250 C   0  0  0  0  0  0  0  0  0  0  0  0
  141.5180   71.9300  226.5110 C   0  0  0  0  0  0  0  0  0  0  0  0
  141.2800   70.6980  225.9360 C   0  0  0  0  0  0  0  0  0  0  0  0
  141.2870   72.6350  220.5050 C   0  0  0  0  0  0  0  0  0  0  0  0
  141.3950   73.9750  220.8070 C   0  0  0  0  0  0  0  0  0  0  0  0
  142.6180   74.5970  220.8690 C   0  0  0  0  0  0  0  0  0  0  0  0
  143.7740   73.8950  220.6300 C   0  0  0  0  0  0  0  0  0  0  0  0
  145.0000   74.5130  220.6920 C   0  0  0  0  0  0  0  0  0  0  0  0
  146.1140   73.7550  220.4420 C   0  0  0  0  0  0  0  0  0  0  0  0
  146.0010   72.4170  220.1410 C   0  0  0  0  0  0  0  0  0  0  0  0
  144.7660   71.7740  220.0740 C   0  0  0  0  0  0  0  0  0  0  0  0
  143.6480   72.5380  220.3240 C   0  0  0  0  0  0  0  0  0  0  0  0
  142.4350   71.9690  220.2740 N   0  0  0  0  0  0  0  0  0  0  0  0
  140.7470   70.1830  219.6590 H   0  0  0  0  0  0  0  0  0  0  0  0
  137.7999   70.8770  219.9162 H   0  0  0  0  0  0  0  0  0  0  0  0
  138.4754   69.4735  219.0013 H   0  0  0  0  0  0  0  0  0  0  0  0
  136.6675   71.2678  221.9460 H   0  0  0  0  0  0  0  0  0  0  0  0
  135.9500   69.8199  222.6576 H   0  0  0  0  0  0  0  0  0  0  0  0
  136.5821   70.4983  224.8692 H   0  0  0  0  0  0  0  0  0  0  0  0
  137.2950   72.9950  223.9660 H   0  0  0  0  0  0  0  0  0  0  0  0
  139.0506   71.1972  225.1355 H   0  0  0  0  0  0  0  0  0  0  0  0
  138.2350   72.4750  222.8980 H   0  0  0  0  0  0  0  0  0  0  0  0
  139.9950   69.4990  223.4568 H   0  0  0  0  0  0  0  0  0  0  0  0
  137.3895   68.6541  224.5846 H   0  0  0  0  0  0  0  0  0  0  0  0
  138.7241   67.6369  223.7069 H   0  0  0  0  0  0  0  0  0  0  0  0
  140.3139   67.7123  226.8697 H   0  0  0  0  0  0  0  0  0  0  0  0
  140.8832   68.2883  225.1724 H   0  0  0  0  0  0  0  0  0  0  0  0
  139.3108   69.3585  228.2905 H   0  0  0  0  0  0  0  0  0  0  0  0
  139.7322   71.5562  229.3244 H   0  0  0  0  0  0  0  0  0  0  0  0
  141.1605   73.2358  228.1861 H   0  0  0  0  0  0  0  0  0  0  0  0
  142.1537   72.6598  225.9883 H   0  0  0  0  0  0  0  0  0  0  0  0
  141.7372   70.4736  224.9610 H   0  0  0  0  0  0  0  0  0  0  0  0
  140.4832   74.5585  221.0024 H   0  0  0  0  0  0  0  0  0  0  0  0
  142.6722   75.6683  221.1126 H   0  0  0  0  0  0  0  0  0  0  0  0
  145.0844   75.5826  220.9347 H   0  0  0  0  0  0  0  0  0  0  0  0
  147.1095   74.2213  220.4824 H   0  0  0  0  0  0  0  0  0  0  0  0
  146.9147   71.8361  219.9470 H   0  0  0  0  0  0  0  0  0  0  0  0
  144.6880   70.7038  219.8322 H   0  0  0  0  0  0  0  0  0  0  0  0
  1  2  2  0
  2  3  1  0
  3  4  1  0
  4  5  1  0
  5  6  2  0
  5  7  1  0
  7  8  1  0
  8  9  1  0
  9 10  1  0
  9 11  1  0
 11 12  1  0
 11 13  1  0
 13 14  1  0
 14 15  1  0
 15 16  1  0
 16 17  1  0
 17 18  2  0
 18 19  1  0
 19 20  2  0
 20 21  1  0
 21 22  2  0
  2 23  1  0
 23 24  2  0
 24 25  1  0
 25 26  2  0
 26 27  1  0
 27 28  2  0
 28 29  1  0
 29 30  2  0
 30 31  1  0
 31 32  2  0
 13  7  1  0
 22 17  1  0
 32 23  1  0
 31 26  1  0
  3 33  1  0
  4 34  1  0
  4 35  1  0
  8 36  1  0
  8 37  1  0
  9 38  1  1
 10 39  1  0
 11 40  1  1
 12 41  1  0
 13 42  1  6
 14 43  1  0
 14 44  1  0
 16 45  1  0
 16 46  1  0
 18 47  1  0
 19 48  1  0
 20 49  1  0
 21 50  1  0
 22 51  1  0
 24 52  1  0
 25 53  1  0
 27 54  1  0
 28 55  1  0
 29 56  1  0
 30 57  1  0
M  END
>  <smiles>  (11) 
O=C(NCC(=O)N1C[C@H](O)[C@H](O)[C@H]1COCc1ccccc1)c1ccc2ccccc2n1

>  <score_type>  (11) 
oracle

>  <origin>  (11) 
autodockgpu

>  <m_score__min__energy>  (11) 
-9.0299999999999994

>  <m_primary>  (11) 
energy

>  <rmsd>  (11) 
7.7241121083063495

>  <m_score__min__rmsd>  (11) 
7.7241121083063495

>  <meeko>  (11) 
{"free_energy": -7.29, "intermolecular_energy": -10.27, "internal_energy": -4.1, "cluster_size": 1, "cluster_id": 6, "rank_in_cluster": 1}

>  <energy>  (11) 
-8.35

>  <cluster_rmsd>  (11) 
0.0

>  <cluster>  (11) 
3

$$$$

     RDKit          3D

 57 60  0  0  0  0  0  0  0  0999 V2000
  139.2130   74.8630  222.3950 O   0  0  0  0  0  0  0  0  0  0  0  0
  140.0890   75.6170  221.8890 C   0  0  0  0  0  0  0  0  0  0  0  0
  140.9440   75.1570  220.8570 N   0  0  0  0  0  0  0  0  0  0  0  0
  140.7700   73.7910  220.4080 C   0  0  0  0  0  0  0  0  0  0  0  0
  141.9200   72.9370  220.8440 C   0  0  0  0  0  0  0  0  0  0  0  0
  141.7590   72.0150  221.6840 O   0  0  0  0  0  0  0  0  0  0  0  0
  143.2020   73.1450  220.3250 N   0  0  0  0  0  0  0  0  0  0  0  0
  143.9310   72.1810  219.5280 C   0  0  0  0  0  0  0  0  0  0  0  0
  145.3370   72.7490  219.4040 C   0  0  2  0  0  0  0  0  0  0  0  0
  146.3180   71.7780  219.4760 O   0  0  0  0  0  0  0  0  0  0  0  0
  145.3820   73.7170  220.5870 C   0  0  2  0  0  0  0  0  0  0  0  0
  145.3440   72.8850  221.7240 O   0  0  0  0  0  0  0  0  0  0  0  0
  144.0290   74.3680  220.4950 C   0  0  1  0  0  0  0  0  0  0  0  0
  143.7870   75.2290  219.2970 C   0  0  0  0  0  0  0  0  0  0  0  0
  143.0410   76.3040  219.3620 O   0  0  0  0  0  0  0  0  0  0  0  0
  142.3830   77.0040  218.4670 C   0  0  0  0  0  0  0  0  0  0  0  0
  142.2220   78.4560  218.6410 C   0  0  0  0  0  0  0  0  0  0  0  0
  141.3150   78.8630  219.6300 C   0  0  0  0  0  0  0  0  0  0  0  0
  141.0950   80.2030  219.8940 C   0  0  0  0  0  0  0  0  0  0  0  0
  141.7600   81.1780  219.1940 C   0  0  0  0  0  0  0  0  0  0  0  0
  142.6480   80.7860  218.2270 C   0  0  0  0  0  0  0  0  0  0  0  0
  142.8640   79.4490  217.9670 C   0  0  0  0  0  0  0  0  0  0  0  0
  140.2380   76.9870  222.3660 C   0  0  0  0  0  0  0  0  0  0  0  0
  139.1240   77.7250  222.6990 C   0  0  0  0  0  0  0  0  0  0  0  0
  139.2320   79.0180  223.1490 C   0  0  0  0  0  0  0  0  0  0  0  0
  140.4630   79.6140  223.2810 C   0  0  0  0  0  0  0  0  0  0  0  0
  140.5770   80.9070  223.7310 C   0  0  0  0  0  0  0  0  0  0  0  0
  141.8330   81.4410  223.8390 C   0  0  0  0  0  0  0  0  0  0  0  0
  142.9440   80.6990  223.5050 C   0  0  0  0  0  0  0  0  0  0  0  0
  142.8470   79.3870  223.0460 C   0  0  0  0  0  0  0  0  0  0  0  0
  141.5830   78.8520  222.9380 C   0  0  0  0  0  0  0  0  0  0  0  0
  141.4330   77.5930  222.5030 N   0  0  0  0  0  0  0  0  0  0  0  0
  141.6590   75.8110  220.4640 H   0  0  0  0  0  0  0  0  0  0  0  0
  139.8395   73.3873  220.8336 H   0  0  0  0  0  0  0  0  0  0  0  0
  140.7230   73.7846  219.3090 H   0  0  0  0  0  0  0  0  0  0  0  0
  143.9530   71.2027  220.0304 H   0  0  0  0  0  0  0  0  0  0  0  0
  143.4633   72.0219  218.5452 H   0  0  0  0  0  0  0  0  0  0  0  0
  145.5352   73.2237  218.4317 H   0  0  0  0  0  0  0  0  0  0  0  0
  146.4310   71.4970  220.4390 H   0  0  0  0  0  0  0  0  0  0  0  0
  146.2294   74.4179  220.6119 H   0  0  0  0  0  0  0  0  0  0  0  0
  145.3830   71.9410  221.4060 H   0  0  0  0  0  0  0  0  0  0  0  0
  143.8491   75.0436  221.3442 H   0  0  0  0  0  0  0  0  0  0  0  0
  144.7766   75.5596  218.9484 H   0  0  0  0  0  0  0  0  0  0  0  0
  143.1909   74.5686  218.6500 H   0  0  0  0  0  0  0  0  0  0  0  0
  142.8974   76.8545  217.5062 H   0  0  0  0  0  0  0  0  0  0  0  0
  141.3546   76.6235  218.5549 H   0  0  0  0  0  0  0  0  0  0  0  0
  140.7682   78.1025  220.2067 H   0  0  0  0  0  0  0  0  0  0  0  0
  140.3769   80.4909  220.6760 H   0  0  0  0  0  0  0  0  0  0  0  0
  141.5852   82.2437  219.4032 H   0  0  0  0  0  0  0  0  0  0  0  0
  143.1952   81.5469  217.6511 H   0  0  0  0  0  0  0  0  0  0  0  0
  143.5846   79.1738  217.1828 H   0  0  0  0  0  0  0  0  0  0  0  0
  138.1274   77.2695  222.6026 H   0  0  0  0  0  0  0  0  0  0  0  0
  138.3236   79.5824  223.4064 H   0  0  0  0  0  0  0  0  0  0  0  0
  139.6863   81.4953  223.9965 H   0  0  0  0  0  0  0  0  0  0  0  0
  141.9560   82.4740  224.1965 H   0  0  0  0  0  0  0  0  0  0  0  0
  143.9395   81.1565  223.6037 H   0  0  0  0  0  0  0  0  0  0  0  0
  143.7415   78.8040  222.7814 H   0  0  0  0  0  0  0  0  0  0  0  0
  1  2  2  0
  2  3  1  0
  3  4  1  0
  4  5  1  0
  5  6  2  0
  5  7  1  0
  7  8  1  0
  8  9  1  0
  9 10  1  0
  9 11  1  0
 11 12  1  0
 11 13  1  0
 13 14  1  0
 14 15  1  0
 15 16  1  0
 16 17  1  0
 17 18  2  0
 18 19  1  0
 19 20  2  0
 20 21  1  0
 21 22  2  0
  2 23  1  0
 23 24  2  0
 24 25  1  0
 25 26  2  0
 26 27  1  0
 27 28  2  0
 28 29  1  0
 29 30  2  0
 30 31  1  0
 31 32  2  0
 13  7  1  0
 22 17  1  0
 32 23  1  0
 31 26  1  0
  3 33  1  0
  4 34  1  0
  4 35  1  0
  8 36  1  0
  8 37  1  0
  9 38  1  6
 10 39  1  0
 11 40  1  6
 12 41  1  0
 13 42  1  1
 14 43  1  0
 14 44  1  0
 16 45  1  0
 16 46  1  0
 18 47  1  0
 19 48  1  0
 20 49  1  0
 21 50  1  0
 22 51  1  0
 24 52  1  0
 25 53  1  0
 27 54  1  0
 28 55  1  0
 29 56  1  0
 30 57  1  0
M  END
>  <smiles>  (12) 
O=C(NCC(=O)N1C[C@H](O)[C@H](O)[C@H]1COCc1ccccc1)c1ccc2ccccc2n1

>  <score_type>  (12) 
oracle

>  <origin>  (12) 
autodockgpu

>  <m_score__min__energy>  (12) 
-9.0299999999999994

>  <m_primary>  (12) 
energy

>  <rmsd>  (12) 
7.549253918229326

>  <m_score__min__rmsd>  (12) 
7.549253918229326

>  <meeko>  (12) 
{"free_energy": -8.14, "intermolecular_energy": -11.12, "internal_energy": -4.73, "cluster_size": 34, "cluster_id": 5, "rank_in_cluster": 1}

>  <energy>  (12) 
-8.27

>  <cluster_rmsd>  (12) 
0.0

>  <cluster>  (12) 
4

$$$$

     RDKit          3D

 57 60  0  0  0  0  0  0  0  0999 V2000
  139.2900   74.7190  222.4230 O   0  0  0  0  0  0  0  0  0  0  0  0
  140.0950   75.5110  221.8590 C   0  0  0  0  0  0  0  0  0  0  0  0
  140.9120   75.0810  220.7820 N   0  0  0  0  0  0  0  0  0  0  0  0
  140.7850   73.7020  220.3600 C   0  0  0  0  0  0  0  0  0  0  0  0
  141.9620   72.8960  220.8140 C   0  0  0  0  0  0  0  0  0  0  0  0
  141.8260   71.9670  221.6500 O   0  0  0  0  0  0  0  0  0  0  0  0
  143.2430   73.1590  220.3160 N   0  0  0  0  0  0  0  0  0  0  0  0
  144.0840   72.1810  219.6590 C   0  0  0  0  0  0  0  0  0  0  0  0
  145.4400   72.8550  219.5160 C   0  0  2  0  0  0  0  0  0  0  0  0
  146.4970   71.9890  219.7310 O   0  0  0  0  0  0  0  0  0  0  0  0
  145.3530   73.9490  220.5810 C   0  0  2  0  0  0  0  0  0  0  0  0
  145.3380   73.2480  221.8050 O   0  0  0  0  0  0  0  0  0  0  0  0
  143.9550   74.4620  220.3710 C   0  0  1  0  0  0  0  0  0  0  0  0
  143.6910   75.1590  219.0750 C   0  0  0  0  0  0  0  0  0  0  0  0
  142.5240   75.0940  218.4840 O   0  0  0  0  0  0  0  0  0  0  0  0
  141.6910   75.9990  218.0250 C   0  0  0  0  0  0  0  0  0  0  0  0
  141.8750   77.4160  218.3750 C   0  0  0  0  0  0  0  0  0  0  0  0
  142.4110   78.2360  217.3720 C   0  0  0  0  0  0  0  0  0  0  0  0
  142.6110   79.5880  217.5820 C   0  0  0  0  0  0  0  0  0  0  0  0
  142.2910   80.1710  218.7820 C   0  0  0  0  0  0  0  0  0  0  0  0
  141.7670   79.3740  219.7660 C   0  0  0  0  0  0  0  0  0  0  0  0
  141.5680   78.0260  219.5520 C   0  0  0  0  0  0  0  0  0  0  0  0
  140.1980   76.8930  222.3100 C   0  0  0  0  0  0  0  0  0  0  0  0
  139.0560   77.6220  222.5610 C   0  0  0  0  0  0  0  0  0  0  0  0
  139.1210   78.9270  222.9860 C   0  0  0  0  0  0  0  0  0  0  0  0
  140.3340   79.5430  223.1740 C   0  0  0  0  0  0  0  0  0  0  0  0
  140.4050   80.8480  223.6000 C   0  0  0  0  0  0  0  0  0  0  0  0
  141.6460   81.4030  223.7670 C   0  0  0  0  0  0  0  0  0  0  0  0
  142.7840   80.6700  223.5140 C   0  0  0  0  0  0  0  0  0  0  0  0
  142.7310   79.3460  223.0820 C   0  0  0  0  0  0  0  0  0  0  0  0
  141.4820   78.7910  222.9150 C   0  0  0  0  0  0  0  0  0  0  0  0
  141.3740   77.5200  222.5010 N   0  0  0  0  0  0  0  0  0  0  0  0
  141.5660   75.7670  220.3410 H   0  0  0  0  0  0  0  0  0  0  0  0
  139.8678   73.2757  220.7923 H   0  0  0  0  0  0  0  0  0  0  0  0
  140.7404   73.6724  219.2613 H   0  0  0  0  0  0  0  0  0  0  0  0
  144.1680   71.2708  220.2710 H   0  0  0  0  0  0  0  0  0  0  0  0
  143.6733   71.8718  218.6865 H   0  0  0  0  0  0  0  0  0  0  0  0
  145.6375   73.2341  218.5025 H   0  0  0  0  0  0  0  0  0  0  0  0
  146.5750   71.8080  220.7210 H   0  0  0  0  0  0  0  0  0  0  0  0
  146.1359   74.7212  220.5529 H   0  0  0  0  0  0  0  0  0  0  0  0
  145.4660   72.2820  221.5980 H   0  0  0  0  0  0  0  0  0  0  0  0
  143.6828   75.2094  221.1308 H   0  0  0  0  0  0  0  0  0  0  0  0
  143.8892   76.2264  219.2518 H   0  0  0  0  0  0  0  0  0  0  0  0
  144.3383   74.6082  218.3767 H   0  0  0  0  0  0  0  0  0  0  0  0
  141.7277   75.9361  216.9274 H   0  0  0  0  0  0  0  0  0  0  0  0
  140.7416   75.7395  218.5162 H   0  0  0  0  0  0  0  0  0  0  0  0
  142.6774   77.7956  216.3998 H   0  0  0  0  0  0  0  0  0  0  0  0
  143.0329   80.2052  216.7751 H   0  0  0  0  0  0  0  0  0  0  0  0
  142.4503   81.2465  218.9494 H   0  0  0  0  0  0  0  0  0  0  0  0
  141.5019   79.8147  220.7384 H   0  0  0  0  0  0  0  0  0  0  0  0
  141.1439   77.4195  220.3658 H   0  0  0  0  0  0  0  0  0  0  0  0
  138.0728   77.1498  222.4183 H   0  0  0  0  0  0  0  0  0  0  0  0
  138.1920   79.4841  223.1776 H   0  0  0  0  0  0  0  0  0  0  0  0
  139.4928   81.4290  223.8007 H   0  0  0  0  0  0  0  0  0  0  0  0
  141.7346   82.4454  224.1068 H   0  0  0  0  0  0  0  0  0  0  0  0
  143.7660   81.1445  223.6574 H   0  0  0  0  0  0  0  0  0  0  0  0
  143.6467   78.7698  222.8832 H   0  0  0  0  0  0  0  0  0  0  0  0
  1  2  2  0
  2  3  1  0
  3  4  1  0
  4  5  1  0
  5  6  2  0
  5  7  1  0
  7  8  1  0
  8  9  1  0
  9 10  1  0
  9 11  1  0
 11 12  1  0
 11 13  1  0
 13 14  1  0
 14 15  1  0
 15 16  1  0
 16 17  1  0
 17 18  2  0
 18 19  1  0
 19 20  2  0
 20 21  1  0
 21 22  2  0
  2 23  1  0
 23 24  2  0
 24 25  1  0
 25 26  2  0
 26 27  1  0
 27 28  2  0
 28 29  1  0
 29 30  2  0
 30 31  1  0
 31 32  2  0
 13  7  1  0
 22 17  1  0
 32 23  1  0
 31 26  1  0
  3 33  1  0
  4 34  1  0
  4 35  1  0
  8 36  1  0
  8 37  1  0
  9 38  1  6
 10 39  1  0
 11 40  1  1
 12 41  1  0
 13 42  1  1
 14 43  1  0
 14 44  1  0
 16 45  1  0
 16 46  1  0
 18 47  1  0
 19 48  1  0
 20 49  1  0
 21 50  1  0
 22 51  1  0
 24 52  1  0
 25 53  1  0
 27 54  1  0
 28 55  1  0
 29 56  1  0
 30 57  1  0
M  END
>  <smiles>  (13) 
O=C(NCC(=O)N1C[C@H](O)[C@H](O)[C@H]1COCc1ccccc1)c1ccc2ccccc2n1

>  <score_type>  (13) 
oracle

>  <origin>  (13) 
autodockgpu

>  <m_score__min__energy>  (13) 
-9.0299999999999994

>  <m_primary>  (13) 
energy

>  <rmsd>  (13) 
7.512832904176572

>  <m_score__min__rmsd>  (13) 
7.512832904176572

>  <meeko>  (13) 
{"free_energy": -7.66, "intermolecular_energy": -10.64, "internal_energy": -4.51, "cluster_size": 34, "cluster_id": 5, "rank_in_cluster": 14}

>  <energy>  (13) 
-7.34

>  <cluster_rmsd>  (13) 
1.82

>  <cluster>  (13) 
4

$$$$

     RDKit          3D

 57 60  0  0  0  0  0  0  0  0999 V2000
  139.7090   70.4290  221.6270 O   0  0  0  0  0  0  0  0  0  0  0  0
  139.6420   71.3080  222.5300 C   0  0  0  0  0  0  0  0  0  0  0  0
  139.2220   72.6300  222.2370 N   0  0  0  0  0  0  0  0  0  0  0  0
  138.8740   72.9280  220.8630 C   0  0  0  0  0  0  0  0  0  0  0  0
  138.2870   74.3000  220.7480 C   0  0  0  0  0  0  0  0  0  0  0  0
  137.0960   74.4660  220.3780 O   0  0  0  0  0  0  0  0  0  0  0  0
  139.0510   75.4320  221.0500 N   0  0  0  0  0  0  0  0  0  0  0  0
  139.8200   76.1850  220.0810 C   0  0  0  0  0  0  0  0  0  0  0  0
  140.6530   77.1570  220.9030 C   0  0  2  0  0  0  0  0  0  0  0  0
  141.9310   77.3270  220.4030 O   0  0  0  0  0  0  0  0  0  0  0  0
  140.6440   76.4850  222.2760 C   0  0  2  0  0  0  0  0  0  0  0  0
  141.3970   75.3060  222.0950 O   0  0  0  0  0  0  0  0  0  0  0  0
  139.2080   76.0530  222.3910 C   0  0  1  0  0  0  0  0  0  0  0  0
  138.1920   77.1470  222.4870 C   0  0  0  0  0  0  0  0  0  0  0  0
  138.4440   78.2650  223.1210 O   0  0  0  0  0  0  0  0  0  0  0  0
  138.8630   79.4480  222.7370 C   0  0  0  0  0  0  0  0  0  0  0  0
  140.2890   79.7930  222.8350 C   0  0  0  0  0  0  0  0  0  0  0  0
  140.8120   80.5660  221.7890 C   0  0  0  0  0  0  0  0  0  0  0  0
  142.1360   80.9650  221.7830 C   0  0  0  0  0  0  0  0  0  0  0  0
  142.9830   80.6150  222.8060 C   0  0  0  0  0  0  0  0  0  0  0  0
  142.4770   79.8590  223.8310 C   0  0  0  0  0  0  0  0  0  0  0  0
  141.1560   79.4640  223.8320 C   0  0  0  0  0  0  0  0  0  0  0  0
  140.0010   70.9750  223.9030 C   0  0  0  0  0  0  0  0  0  0  0  0
  140.6890   71.8850  224.6750 C   0  0  0  0  0  0  0  0  0  0  0  0
  141.0430   71.5990  225.9720 C   0  0  0  0  0  0  0  0  0  0  0  0
  140.7170   70.3900  226.5370 C   0  0  0  0  0  0  0  0  0  0  0  0
  141.0670   70.0990  227.8330 C   0  0  0  0  0  0  0  0  0  0  0  0
  140.7120   68.8760  228.3360 C   0  0  0  0  0  0  0  0  0  0  0  0
  140.0240   67.9700  227.5600 C   0  0  0  0  0  0  0  0  0  0  0  0
  139.6600   68.2480  226.2430 C   0  0  0  0  0  0  0  0  0  0  0  0
  140.0190   69.4780  225.7410 C   0  0  0  0  0  0  0  0  0  0  0  0
  139.6940   69.7970  224.4800 N   0  0  0  0  0  0  0  0  0  0  0  0
  139.1810   73.3300  223.0120 H   0  0  0  0  0  0  0  0  0  0  0  0
  139.7795   72.8701  220.2411 H   0  0  0  0  0  0  0  0  0  0  0  0
  138.1273   72.1958  220.5221 H   0  0  0  0  0  0  0  0  0  0  0  0
  140.4706   75.5149  219.4998 H   0  0  0  0  0  0  0  0  0  0  0  0
  139.1746   76.7053  219.3580 H   0  0  0  0  0  0  0  0  0  0  0  0
  140.2551   78.1825  220.9070 H   0  0  0  0  0  0  0  0  0  0  0  0
  142.5780   76.8090  220.9780 H   0  0  0  0  0  0  0  0  0  0  0  0
  141.0117   77.0904  223.1176 H   0  0  0  0  0  0  0  0  0  0  0  0
  142.2540   75.5640  221.6560 H   0  0  0  0  0  0  0  0  0  0  0  0
  139.0391   75.4564  223.2996 H   0  0  0  0  0  0  0  0  0  0  0  0
  137.9400   77.4271  221.4535 H   0  0  0  0  0  0  0  0  0  0  0  0
  137.4139   76.6904  223.1163 H   0  0  0  0  0  0  0  0  0  0  0  0
  138.5828   79.5554  221.6787 H   0  0  0  0  0  0  0  0  0  0  0  0
  138.3890   80.1294  223.4588 H   0  0  0  0  0  0  0  0  0  0  0  0
  140.1562   80.8610  220.9566 H   0  0  0  0  0  0  0  0  0  0  0  0
  142.5161   81.5711  220.9474 H   0  0  0  0  0  0  0  0  0  0  0  0
  144.0363   80.9321  222.8027 H   0  0  0  0  0  0  0  0  0  0  0  0
  143.1329   79.5637  224.6632 H   0  0  0  0  0  0  0  0  0  0  0  0
  140.7874   78.8581  224.6729 H   0  0  0  0  0  0  0  0  0  0  0  0
  140.9606   72.8603  224.2448 H   0  0  0  0  0  0  0  0  0  0  0  0
  141.5929   72.3458  226.5635 H   0  0  0  0  0  0  0  0  0  0  0  0
  141.6161   70.8268  228.4484 H   0  0  0  0  0  0  0  0  0  0  0  0
  140.9791   68.6145  229.3705 H   0  0  0  0  0  0  0  0  0  0  0  0
  139.7529   66.9958  227.9930 H   0  0  0  0  0  0  0  0  0  0  0  0
  139.1103   67.5166  225.6324 H   0  0  0  0  0  0  0  0  0  0  0  0
  1  2  2  0
  2  3  1  0
  3  4  1  0
  4  5  1  0
  5  6  2  0
  5  7  1  0
  7  8  1  0
  8  9  1  0
  9 10  1  0
  9 11  1  0
 11 12  1  0
 11 13  1  0
 13 14  1  0
 14 15  1  0
 15 16  1  0
 16 17  1  0
 17 18  2  0
 18 19  1  0
 19 20  2  0
 20 21  1  0
 21 22  2  0
  2 23  1  0
 23 24  2  0
 24 25  1  0
 25 26  2  0
 26 27  1  0
 27 28  2  0
 28 29  1  0
 29 30  2  0
 30 31  1  0
 31 32  2  0
 13  7  1  0
 22 17  1  0
 32 23  1  0
 31 26  1  0
  3 33  1  0
  4 34  1  0
  4 35  1  0
  8 36  1  0
  8 37  1  0
  9 38  1  1
 10 39  1  0
 11 40  1  1
 12 41  1  0
 13 42  1  1
 14 43  1  0
 14 44  1  0
 16 45  1  0
 16 46  1  0
 18 47  1  0
 19 48  1  0
 20 49  1  0
 21 50  1  0
 22 51  1  0
 24 52  1  0
 25 53  1  0
 27 54  1  0
 28 55  1  0
 29 56  1  0
 30 57  1  0
M  END
>  <smiles>  (14) 
O=C(NCC(=O)N1C[C@H](O)[C@H](O)[C@H]1COCc1ccccc1)c1ccc2ccccc2n1

>  <score_type>  (14) 
oracle

>  <origin>  (14) 
autodockgpu

>  <m_score__min__energy>  (14) 
-9.0299999999999994

>  <m_primary>  (14) 
energy

>  <rmsd>  (14) 
3.5395990176742576

>  <m_score__min__rmsd>  (14) 
3.5395990176742576

>  <meeko>  (14) 
{"free_energy": -8.83, "intermolecular_energy": -11.81, "internal_energy": -3.02, "cluster_size": 9, "cluster_id": 1, "rank_in_cluster": 8}

>  <energy>  (14) 
-6.4

>  <cluster_rmsd>  (14) 
1.57

>  <cluster>  (14) 
4

$$$$

     RDKit          3D

 57 60  0  0  0  0  0  0  0  0999 V2000
  139.0070   74.9280  222.3450 O   0  0  0  0  0  0  0  0  0  0  0  0
  140.0640   75.5540  222.0580 C   0  0  0  0  0  0  0  0  0  0  0  0
  141.1180   74.9260  221.3480 N   0  0  0  0  0  0  0  0  0  0  0  0
  140.9320   73.5410  220.9680 C   0  0  0  0  0  0  0  0  0  0  0  0
  141.7440   73.2070  219.7560 C   0  0  0  0  0  0  0  0  0  0  0  0
  141.2030   72.7420  218.7210 O   0  0  0  0  0  0  0  0  0  0  0  0
  143.1290   73.4060  219.7480 N   0  0  0  0  0  0  0  0  0  0  0  0
  144.0520   72.7080  218.8780 C   0  0  0  0  0  0  0  0  0  0  0  0
  145.4370   73.0750  219.3910 C   0  0  2  0  0  0  0  0  0  0  0  0
  146.3240   72.0160  219.3500 O   0  0  0  0  0  0  0  0  0  0  0  0
  145.1260   73.5250  220.8190 C   0  0  2  0  0  0  0  0  0  0  0  0
  144.7120   72.3480  221.4760 O   0  0  0  0  0  0  0  0  0  0  0  0
  143.8860   74.3500  220.6100 C   0  0  1  0  0  0  0  0  0  0  0  0
  144.0530   75.6160  219.8320 C   0  0  0  0  0  0  0  0  0  0  0  0
  143.0250   76.2650  219.3440 O   0  0  0  0  0  0  0  0  0  0  0  0
  142.2230   77.1840  219.8280 C   0  0  0  0  0  0  0  0  0  0  0  0
  142.1260   78.4970  219.1720 C   0  0  0  0  0  0  0  0  0  0  0  0
  142.2910   78.5070  217.7800 C   0  0  0  0  0  0  0  0  0  0  0  0
  142.2030   79.6810  217.0540 C   0  0  0  0  0  0  0  0  0  0  0  0
  141.9500   80.8770  217.6770 C   0  0  0  0  0  0  0  0  0  0  0  0
  141.7890   80.8740  219.0380 C   0  0  0  0  0  0  0  0  0  0  0  0
  141.8770   79.7000  219.7570 C   0  0  0  0  0  0  0  0  0  0  0  0
  140.2190   76.9480  222.4570 C   0  0  0  0  0  0  0  0  0  0  0  0
  139.1060   77.7220  222.7030 C   0  0  0  0  0  0  0  0  0  0  0  0
  139.2200   79.0380  223.0790 C   0  0  0  0  0  0  0  0  0  0  0  0
  140.4560   79.6220  223.2210 C   0  0  0  0  0  0  0  0  0  0  0  0
  140.5760   80.9380  223.5970 C   0  0  0  0  0  0  0  0  0  0  0  0
  141.8370   81.4590  223.7200 C   0  0  0  0  0  0  0  0  0  0  0  0
  142.9450   80.6810  223.4730 C   0  0  0  0  0  0  0  0  0  0  0  0
  142.8430   79.3450  223.0900 C   0  0  0  0  0  0  0  0  0  0  0  0
  141.5740   78.8240  222.9670 C   0  0  0  0  0  0  0  0  0  0  0  0
  141.4180   77.5430  222.6020 N   0  0  0  0  0  0  0  0  0  0  0  0
  141.9790   75.4780  221.1290 H   0  0  0  0  0  0  0  0  0  0  0  0
  141.2446   72.8938  221.8007 H   0  0  0  0  0  0  0  0  0  0  0  0
  139.8692   73.3798  220.7348 H   0  0  0  0  0  0  0  0  0  0  0  0
  143.8932   71.6212  218.9392 H   0  0  0  0  0  0  0  0  0  0  0  0
  143.9159   72.9890  217.8232 H   0  0  0  0  0  0  0  0  0  0  0  0
  145.9426   73.8396  218.7830 H   0  0  0  0  0  0  0  0  0  0  0  0
  146.3070   71.5400  220.2400 H   0  0  0  0  0  0  0  0  0  0  0  0
  145.9363   74.0392  221.3566 H   0  0  0  0  0  0  0  0  0  0  0  0
  145.3490   71.6250  221.2230 H   0  0  0  0  0  0  0  0  0  0  0  0
  143.4612   74.6859  221.5675 H   0  0  0  0  0  0  0  0  0  0  0  0
  144.5766   76.3200  220.4955 H   0  0  0  0  0  0  0  0  0  0  0  0
  144.5624   75.2661  218.9220 H   0  0  0  0  0  0  0  0  0  0  0  0
  141.2107   76.7537  219.8278 H   0  0  0  0  0  0  0  0  0  0  0  0
  142.6720   77.4221  220.8036 H   0  0  0  0  0  0  0  0  0  0  0  0
  142.4945   77.5623  217.2545 H   0  0  0  0  0  0  0  0  0  0  0  0
  142.3377   79.6555  215.9626 H   0  0  0  0  0  0  0  0  0  0  0  0
  141.8784   81.8112  217.1007 H   0  0  0  0  0  0  0  0  0  0  0  0
  141.5872   81.8191  219.5634 H   0  0  0  0  0  0  0  0  0  0  0  0
  141.7403   79.7379  220.8478 H   0  0  0  0  0  0  0  0  0  0  0  0
  138.1058   77.2769  222.5961 H   0  0  0  0  0  0  0  0  0  0  0  0
  138.3129   79.6306  223.2684 H   0  0  0  0  0  0  0  0  0  0  0  0
  139.6865   81.5546  223.7933 H   0  0  0  0  0  0  0  0  0  0  0  0
  141.9652   82.5097  224.0192 H   0  0  0  0  0  0  0  0  0  0  0  0
  143.9440   81.1284  223.5815 H   0  0  0  0  0  0  0  0  0  0  0  0
  143.7364   78.7337  222.8946 H   0  0  0  0  0  0  0  0  0  0  0  0
  1  2  2  0
  2  3  1  0
  3  4  1  0
  4  5  1  0
  5  6  2  0
  5  7  1  0
  7  8  1  0
  8  9  1  0
  9 10  1  0
  9 11  1  0
 11 12  1  0
 11 13  1  0
 13 14  1  0
 14 15  1  0
 15 16  1  0
 16 17  1  0
 17 18  2  0
 18 19  1  0
 19 20  2  0
 20 21  1  0
 21 22  2  0
  2 23  1  0
 23 24  2  0
 24 25  1  0
 25 26  2  0
 26 27  1  0
 27 28  2  0
 28 29  1  0
 29 30  2  0
 30 31  1  0
 31 32  2  0
 13  7  1  0
 22 17  1  0
 32 23  1  0
 31 26  1  0
  3 33  1  0
  4 34  1  0
  4 35  1  0
  8 36  1  0
  8 37  1  0
  9 38  1  6
 10 39  1  0
 11 40  1  1
 12 41  1  0
 13 42  1  1
 14 43  1  0
 14 44  1  0
 16 45  1  0
 16 46  1  0
 18 47  1  0
 19 48  1  0
 20 49  1  0
 21 50  1  0
 22 51  1  0
 24 52  1  0
 25 53  1  0
 27 54  1  0
 28 55  1  0
 29 56  1  0
 30 57  1  0
M  END
>  <smiles>  (15) 
O=C(NCC(=O)N1C[C@H](O)[C@H](O)[C@H]1COCc1ccccc1)c1ccc2ccccc2n1

>  <score_type>  (15) 
oracle

>  <origin>  (15) 
autodockgpu

>  <m_score__min__energy>  (15) 
-9.0299999999999994

>  <m_primary>  (15) 
energy

>  <rmsd>  (15) 
7.548055067597671

>  <m_score__min__rmsd>  (15) 
7.548055067597671

>  <meeko>  (15) 
{"free_energy": -7.46, "intermolecular_energy": -10.45, "internal_energy": -4.37, "cluster_size": 34, "cluster_id": 5, "rank_in_cluster": 25}

>  <energy>  (15) 
-8.14

>  <cluster_rmsd>  (15) 
0.0

>  <cluster>  (15) 
5

$$$$

     RDKit          3D

 57 60  0  0  0  0  0  0  0  0999 V2000
  138.9830   75.0670  222.3040 O   0  0  0  0  0  0  0  0  0  0  0  0
  140.0880   75.6500  222.1240 C   0  0  0  0  0  0  0  0  0  0  0  0
  141.2000   74.9580  221.5800 N   0  0  0  0  0  0  0  0  0  0  0  0
  141.0160   73.5620  221.2420 C   0  0  0  0  0  0  0  0  0  0  0  0
  141.7490   73.2180  219.9830 C   0  0  0  0  0  0  0  0  0  0  0  0
  141.1420   72.7410  218.9910 O   0  0  0  0  0  0  0  0  0  0  0  0
  143.1290   73.4210  219.8810 N   0  0  0  0  0  0  0  0  0  0  0  0
  144.0040   72.6800  218.9970 C   0  0  0  0  0  0  0  0  0  0  0  0
  145.4140   73.0790  219.4060 C   0  0  2  0  0  0  0  0  0  0  0  0
  146.3040   72.0220  219.3690 O   0  0  0  0  0  0  0  0  0  0  0  0
  145.1850   73.6040  220.8240 C   0  0  2  0  0  0  0  0  0  0  0  0
  144.8180   72.4620  221.5660 O   0  0  0  0  0  0  0  0  0  0  0  0
  143.9290   74.4120  220.6460 C   0  0  1  0  0  0  0  0  0  0  0  0
  144.0420   75.6350  219.7930 C   0  0  0  0  0  0  0  0  0  0  0  0
  143.0780   76.5190  219.7280 O   0  0  0  0  0  0  0  0  0  0  0  0
  142.7450   77.4300  218.8430 C   0  0  0  0  0  0  0  0  0  0  0  0
  141.7330   78.4450  219.1760 C   0  0  0  0  0  0  0  0  0  0  0  0
  142.2030   79.7550  219.3450 C   0  0  0  0  0  0  0  0  0  0  0  0
  141.3400   80.7940  219.6410 C   0  0  0  0  0  0  0  0  0  0  0  0
  139.9930   80.5750  219.7810 C   0  0  0  0  0  0  0  0  0  0  0  0
  139.5280   79.2960  219.6170 C   0  0  0  0  0  0  0  0  0  0  0  0
  140.3920   78.2630  219.3210 C   0  0  0  0  0  0  0  0  0  0  0  0
  140.2390   77.0560  222.4760 C   0  0  0  0  0  0  0  0  0  0  0  0
  139.1250   77.8300  222.7150 C   0  0  0  0  0  0  0  0  0  0  0  0
  139.2350   79.1580  223.0480 C   0  0  0  0  0  0  0  0  0  0  0  0
  140.4680   79.7540  223.1520 C   0  0  0  0  0  0  0  0  0  0  0  0
  140.5850   81.0820  223.4850 C   0  0  0  0  0  0  0  0  0  0  0  0
  141.8440   81.6150  223.5720 C   0  0  0  0  0  0  0  0  0  0  0  0
  142.9540   80.8370  223.3330 C   0  0  0  0  0  0  0  0  0  0  0  0
  142.8550   79.4890  222.9930 C   0  0  0  0  0  0  0  0  0  0  0  0
  141.5890   78.9560  222.9060 C   0  0  0  0  0  0  0  0  0  0  0  0
  141.4360   77.6640  222.5840 N   0  0  0  0  0  0  0  0  0  0  0  0
  142.0990   75.4750  221.4470 H   0  0  0  0  0  0  0  0  0  0  0  0
  141.3986   72.9387  222.0637 H   0  0  0  0  0  0  0  0  0  0  0  0
  139.9431   73.3756  221.0871 H   0  0  0  0  0  0  0  0  0  0  0  0
  143.8565   71.5976  219.1263 H   0  0  0  0  0  0  0  0  0  0  0  0
  143.8041   72.9029  217.9385 H   0  0  0  0  0  0  0  0  0  0  0  0
  145.8777   73.8117  218.7291 H   0  0  0  0  0  0  0  0  0  0  0  0
  146.3230   71.5790  220.2750 H   0  0  0  0  0  0  0  0  0  0  0  0
  146.0223   74.1492  221.2840 H   0  0  0  0  0  0  0  0  0  0  0  0
  145.3450   71.6940  221.2130 H   0  0  0  0  0  0  0  0  0  0  0  0
  143.5588   74.7964  221.6079 H   0  0  0  0  0  0  0  0  0  0  0  0
  144.9342   76.1750  220.1428 H   0  0  0  0  0  0  0  0  0  0  0  0
  144.0427   75.2133  218.7770 H   0  0  0  0  0  0  0  0  0  0  0  0
  143.6660   77.9730  218.5845 H   0  0  0  0  0  0  0  0  0  0  0  0
  142.2625   76.8441  218.0468 H   0  0  0  0  0  0  0  0  0  0  0  0
  143.2786   79.9601  219.2401 H   0  0  0  0  0  0  0  0  0  0  0  0
  141.7394   81.8112  219.7661 H   0  0  0  0  0  0  0  0  0  0  0  0
  139.3065   81.4012  220.0178 H   0  0  0  0  0  0  0  0  0  0  0  0
  138.4524   79.0912  219.7228 H   0  0  0  0  0  0  0  0  0  0  0  0
  139.9806   77.2504  219.1970 H   0  0  0  0  0  0  0  0  0  0  0  0
  138.1265   77.3751  222.6376 H   0  0  0  0  0  0  0  0  0  0  0  0
  138.3266   79.7500  223.2332 H   0  0  0  0  0  0  0  0  0  0  0  0
  139.6944   81.6987  223.6760 H   0  0  0  0  0  0  0  0  0  0  0  0
  141.9691   82.6756  223.8356 H   0  0  0  0  0  0  0  0  0  0  0  0
  143.9514   81.2939  223.4129 H   0  0  0  0  0  0  0  0  0  0  0  0
  143.7495   78.8778  222.8025 H   0  0  0  0  0  0  0  0  0  0  0  0
  1  2  2  0
  2  3  1  0
  3  4  1  0
  4  5  1  0
  5  6  2  0
  5  7  1  0
  7  8  1  0
  8  9  1  0
  9 10  1  0
  9 11  1  0
 11 12  1  0
 11 13  1  0
 13 14  1  0
 14 15  1  0
 15 16  1  0
 16 17  1  0
 17 18  2  0
 18 19  1  0
 19 20  2  0
 20 21  1  0
 21 22  2  0
  2 23  1  0
 23 24  2  0
 24 25  1  0
 25 26  2  0
 26 27  1  0
 27 28  2  0
 28 29  1  0
 29 30  2  0
 30 31  1  0
 31 32  2  0
 13  7  1  0
 22 17  1  0
 32 23  1  0
 31 26  1  0
  3 33  1  0
  4 34  1  0
  4 35  1  0
  8 36  1  0
  8 37  1  0
  9 38  1  6
 10 39  1  0
 11 40  1  1
 12 41  1  0
 13 42  1  1
 14 43  1  0
 14 44  1  0
 16 45  1  0
 16 46  1  0
 18 47  1  0
 19 48  1  0
 20 49  1  0
 21 50  1  0
 22 51  1  0
 24 52  1  0
 25 53  1  0
 27 54  1  0
 28 55  1  0
 29 56  1  0
 30 57  1  0
M  END
>  <smiles>  (16) 
O=C(NCC(=O)N1C[C@H](O)[C@H](O)[C@H]1COCc1ccccc1)c1ccc2ccccc2n1

>  <score_type>  (16) 
oracle

>  <origin>  (16) 
autodockgpu

>  <m_score__min__energy>  (16) 
-9.0299999999999994

>  <m_primary>  (16) 
energy

>  <rmsd>  (16) 
7.62983408755683

>  <m_score__min__rmsd>  (16) 
7.62983408755683

>  <meeko>  (16) 
{"free_energy": -7.1, "intermolecular_energy": -10.09, "internal_energy": -5.23, "cluster_size": 34, "cluster_id": 5, "rank_in_cluster": 29}

>  <energy>  (16) 
-8.1

>  <cluster_rmsd>  (16) 
0.34

>  <cluster>  (16) 
5

$$$$

     RDKit          3D

 57 60  0  0  0  0  0  0  0  0999 V2000
  138.9990   75.0950  222.3040 O   0  0  0  0  0  0  0  0  0  0  0  0
  140.1010   75.6780  222.1020 C   0  0  0  0  0  0  0  0  0  0  0  0
  141.2050   74.9850  221.5450 N   0  0  0  0  0  0  0  0  0  0  0  0
  141.0170   73.5870  221.2170 C   0  0  0  0  0  0  0  0  0  0  0  0
  141.7540   73.2290  219.9650 C   0  0  0  0  0  0  0  0  0  0  0  0
  141.1530   72.7340  218.9780 O   0  0  0  0  0  0  0  0  0  0  0  0
  143.1340   73.4380  219.8630 N   0  0  0  0  0  0  0  0  0  0  0  0
  144.0130   72.6980  218.9830 C   0  0  0  0  0  0  0  0  0  0  0  0
  145.4210   73.1050  219.3920 C   0  0  2  0  0  0  0  0  0  0  0  0
  146.3170   72.0530  219.3610 O   0  0  0  0  0  0  0  0  0  0  0  0
  145.1880   73.6360  220.8070 C   0  0  2  0  0  0  0  0  0  0  0  0
  144.8270   72.4970  221.5550 O   0  0  0  0  0  0  0  0  0  0  0  0
  143.9280   74.4380  220.6240 C   0  0  1  0  0  0  0  0  0  0  0  0
  144.0360   75.6560  219.7650 C   0  0  0  0  0  0  0  0  0  0  0  0
  143.1720   76.6370  219.8510 O   0  0  0  0  0  0  0  0  0  0  0  0
  142.3000   77.1510  219.0160 C   0  0  0  0  0  0  0  0  0  0  0  0
  142.1890   78.6110  218.8710 C   0  0  0  0  0  0  0  0  0  0  0  0
  141.3440   79.2610  219.7820 C   0  0  0  0  0  0  0  0  0  0  0  0
  141.1760   80.6330  219.7530 C   0  0  0  0  0  0  0  0  0  0  0  0
  141.8340   81.4040  218.8270 C   0  0  0  0  0  0  0  0  0  0  0  0
  142.6610   80.7750  217.9340 C   0  0  0  0  0  0  0  0  0  0  0  0
  142.8260   79.4060  217.9680 C   0  0  0  0  0  0  0  0  0  0  0  0
  140.2560   77.0860  222.4450 C   0  0  0  0  0  0  0  0  0  0  0  0
  139.1430   77.8750  222.6350 C   0  0  0  0  0  0  0  0  0  0  0  0
  139.2570   79.2060  222.9570 C   0  0  0  0  0  0  0  0  0  0  0  0
  140.4930   79.7890  223.0990 C   0  0  0  0  0  0  0  0  0  0  0  0
  140.6130   81.1190  223.4210 C   0  0  0  0  0  0  0  0  0  0  0  0
  141.8740   81.6380  223.5470 C   0  0  0  0  0  0  0  0  0  0  0  0
  142.9830   80.8450  223.3560 C   0  0  0  0  0  0  0  0  0  0  0  0
  142.8800   79.4940  223.0280 C   0  0  0  0  0  0  0  0  0  0  0  0
  141.6110   78.9750  222.9020 C   0  0  0  0  0  0  0  0  0  0  0  0
  141.4560   77.6810  222.5890 N   0  0  0  0  0  0  0  0  0  0  0  0
  142.1010   75.5020  221.3940 H   0  0  0  0  0  0  0  0  0  0  0  0
  141.3930   72.9689  222.0456 H   0  0  0  0  0  0  0  0  0  0  0  0
  139.9440   73.4044  221.0579 H   0  0  0  0  0  0  0  0  0  0  0  0
  143.8703   71.6155  219.1162 H   0  0  0  0  0  0  0  0  0  0  0  0
  143.8132   72.9160  217.9235 H   0  0  0  0  0  0  0  0  0  0  0  0
  145.8818   73.8362  218.7115 H   0  0  0  0  0  0  0  0  0  0  0  0
  146.3110   71.5920  220.2590 H   0  0  0  0  0  0  0  0  0  0  0  0
  146.0223   74.1877  221.2648 H   0  0  0  0  0  0  0  0  0  0  0  0
  145.3650   71.7310  221.2130 H   0  0  0  0  0  0  0  0  0  0  0  0
  143.5549   74.8262  221.5832 H   0  0  0  0  0  0  0  0  0  0  0  0
  145.0235   76.0942  219.9720 H   0  0  0  0  0  0  0  0  0  0  0  0
  143.8350   75.2537  218.7611 H   0  0  0  0  0  0  0  0  0  0  0  0
  142.5407   76.7509  218.0200 H   0  0  0  0  0  0  0  0  0  0  0  0
  141.3326   76.8675  219.4562 H   0  0  0  0  0  0  0  0  0  0  0  0
  140.8041   78.6675  220.5346 H   0  0  0  0  0  0  0  0  0  0  0  0
  140.5062   81.1133  220.4815 H   0  0  0  0  0  0  0  0  0  0  0  0
  141.7010   82.4957  218.8027 H   0  0  0  0  0  0  0  0  0  0  0  0
  143.1998   81.3688  217.1810 H   0  0  0  0  0  0  0  0  0  0  0  0
  143.4998   78.9375  217.2356 H   0  0  0  0  0  0  0  0  0  0  0  0
  138.1426   77.4306  222.5267 H   0  0  0  0  0  0  0  0  0  0  0  0
  138.3497   79.8107  223.1025 H   0  0  0  0  0  0  0  0  0  0  0  0
  139.7234   81.7479  223.5730 H   0  0  0  0  0  0  0  0  0  0  0  0
  142.0021   82.7000  223.8036 H   0  0  0  0  0  0  0  0  0  0  0  0
  143.9822   81.2916  223.4657 H   0  0  0  0  0  0  0  0  0  0  0  0
  143.7732   78.8701  222.8765 H   0  0  0  0  0  0  0  0  0  0  0  0
  1  2  2  0
  2  3  1  0
  3  4  1  0
  4  5  1  0
  5  6  2  0
  5  7  1  0
  7  8  1  0
  8  9  1  0
  9 10  1  0
  9 11  1  0
 11 12  1  0
 11 13  1  0
 13 14  1  0
 14 15  1  0
 15 16  1  0
 16 17  1  0
 17 18  2  0
 18 19  1  0
 19 20  2  0
 20 21  1  0
 21 22  2  0
  2 23  1  0
 23 24  2  0
 24 25  1  0
 25 26  2  0
 26 27  1  0
 27 28  2  0
 28 29  1  0
 29 30  2  0
 30 31  1  0
 31 32  2  0
 13  7  1  0
 22 17  1  0
 32 23  1  0
 31 26  1  0
  3 33  1  0
  4 34  1  0
  4 35  1  0
  8 36  1  0
  8 37  1  0
  9 38  1  6
 10 39  1  0
 11 40  1  1
 12 41  1  0
 13 42  1  1
 14 43  1  0
 14 44  1  0
 16 45  1  0
 16 46  1  0
 18 47  1  0
 19 48  1  0
 20 49  1  0
 21 50  1  0
 22 51  1  0
 24 52  1  0
 25 53  1  0
 27 54  1  0
 28 55  1  0
 29 56  1  0
 30 57  1  0
M  END
>  <smiles>  (17) 
O=C(NCC(=O)N1C[C@H](O)[C@H](O)[C@H]1COCc1ccccc1)c1ccc2ccccc2n1

>  <score_type>  (17) 
oracle

>  <origin>  (17) 
autodockgpu

>  <m_score__min__energy>  (17) 
-9.0299999999999994

>  <m_primary>  (17) 
energy

>  <rmsd>  (17) 
7.646325357527161

>  <m_score__min__rmsd>  (17) 
7.646325357527161

>  <meeko>  (17) 
{"free_energy": -7.65, "intermolecular_energy": -10.64, "internal_energy": -4.74, "cluster_size": 34, "cluster_id": 5, "rank_in_cluster": 15}

>  <energy>  (17) 
-8.08

>  <cluster_rmsd>  (17) 
0.37

>  <cluster>  (17) 
5

$$$$

     RDKit          3D

 57 60  0  0  0  0  0  0  0  0999 V2000
  140.3830   73.7490  222.3270 O   0  0  0  0  0  0  0  0  0  0  0  0
  140.2980   72.4970  222.1940 C   0  0  0  0  0  0  0  0  0  0  0  0
  140.2800   71.8950  220.9100 N   0  0  0  0  0  0  0  0  0  0  0  0
  140.3620   72.7740  219.7620 C   0  0  0  0  0  0  0  0  0  0  0  0
  141.5970   72.4940  218.9640 C   0  0  0  0  0  0  0  0  0  0  0  0
  141.5540   71.7670  217.9390 O   0  0  0  0  0  0  0  0  0  0  0  0
  142.8310   73.0340  219.3430 N   0  0  0  0  0  0  0  0  0  0  0  0
  144.0730   72.8210  218.6310 C   0  0  0  0  0  0  0  0  0  0  0  0
  145.1530   73.3960  219.5340 C   0  0  2  0  0  0  0  0  0  0  0  0
  146.3100   72.6390  219.5400 O   0  0  0  0  0  0  0  0  0  0  0  0
  144.4480   73.4010  220.8910 C   0  0  2  0  0  0  0  0  0  0  0  0
  144.2900   72.0370  221.2100 O   0  0  0  0  0  0  0  0  0  0  0  0
  143.0820   73.9080  220.5180 C   0  0  1  0  0  0  0  0  0  0  0  0
  143.0070   75.3220  220.0360 C   0  0  0  0  0  0  0  0  0  0  0  0
  142.0960   76.1520  220.4800 O   0  0  0  0  0  0  0  0  0  0  0  0
  141.8350   77.4170  220.2470 C   0  0  0  0  0  0  0  0  0  0  0  0
  141.8350   78.3860  221.3530 C   0  0  0  0  0  0  0  0  0  0  0  0
  141.4510   77.8920  222.6080 C   0  0  0  0  0  0  0  0  0  0  0  0
  141.4310   78.7070  223.7250 C   0  0  0  0  0  0  0  0  0  0  0  0
  141.7870   80.0300  223.6400 C   0  0  0  0  0  0  0  0  0  0  0  0
  142.1620   80.5180  222.4160 C   0  0  0  0  0  0  0  0  0  0  0  0
  142.1820   79.7010  221.3050 C   0  0  0  0  0  0  0  0  0  0  0  0
  140.2160   71.6410  223.3720 C   0  0  0  0  0  0  0  0  0  0  0  0
  139.6270   70.3990  223.2800 C   0  0  0  0  0  0  0  0  0  0  0  0
  139.5330   69.5700  224.3720 C   0  0  0  0  0  0  0  0  0  0  0  0
  140.0290   69.9610  225.5920 C   0  0  0  0  0  0  0  0  0  0  0  0
  139.9390   69.1360  226.6870 C   0  0  0  0  0  0  0  0  0  0  0  0
  140.4530   69.5860  227.8750 C   0  0  0  0  0  0  0  0  0  0  0  0
  141.0410   70.8270  227.9600 C   0  0  0  0  0  0  0  0  0  0  0  0
  141.1410   71.6770  226.8600 C   0  0  0  0  0  0  0  0  0  0  0  0
  140.6230   71.2230  225.6680 C   0  0  0  0  0  0  0  0  0  0  0  0
  140.6940   72.0000  224.5780 N   0  0  0  0  0  0  0  0  0  0  0  0
  140.2080   70.8540  220.8420 H   0  0  0  0  0  0  0  0  0  0  0  0
  139.4785   72.6187  219.1253 H   0  0  0  0  0  0  0  0  0  0  0  0
  140.4006   73.8144  220.1171 H   0  0  0  0  0  0  0  0  0  0  0  0
  144.2421   71.7472  218.4628 H   0  0  0  0  0  0  0  0  0  0  0  0
  144.0668   73.2997  217.6407 H   0  0  0  0  0  0  0  0  0  0  0  0
  145.5118   74.3855  219.2144 H   0  0  0  0  0  0  0  0  0  0  0  0
  146.2780   72.0010  220.3210 H   0  0  0  0  0  0  0  0  0  0  0  0
  144.9436   73.9626  221.6966 H   0  0  0  0  0  0  0  0  0  0  0  0
  145.1810   71.6020  221.1130 H   0  0  0  0  0  0  0  0  0  0  0  0
  142.3967   73.8881  221.3782 H   0  0  0  0  0  0  0  0  0  0  0  0
  143.9807   75.7794  220.2654 H   0  0  0  0  0  0  0  0  0  0  0  0
  142.7164   75.1959  218.9826 H   0  0  0  0  0  0  0  0  0  0  0  0
  142.5826   77.7662  219.5196 H   0  0  0  0  0  0  0  0  0  0  0  0
  140.7831   77.4019  219.9256 H   0  0  0  0  0  0  0  0  0  0  0  0
  141.1601   76.8357  222.7058 H   0  0  0  0  0  0  0  0  0  0  0  0
  141.1254   78.2891  224.6956 H   0  0  0  0  0  0  0  0  0  0  0  0
  141.7717   80.6789  224.5281 H   0  0  0  0  0  0  0  0  0  0  0  0
  142.4508   81.5749  222.3181 H   0  0  0  0  0  0  0  0  0  0  0  0
  142.4912   80.1300  220.3404 H   0  0  0  0  0  0  0  0  0  0  0  0
  139.2238   70.0641  222.3129 H   0  0  0  0  0  0  0  0  0  0  0  0
  139.0562   68.5842  224.2682 H   0  0  0  0  0  0  0  0  0  0  0  0
  139.4686   68.1444  226.6124 H   0  0  0  0  0  0  0  0  0  0  0  0
  140.3949   68.9486  228.7696 H   0  0  0  0  0  0  0  0  0  0  0  0
  141.4453   71.1591  228.9276 H   0  0  0  0  0  0  0  0  0  0  0  0
  141.6131   72.6672  226.9407 H   0  0  0  0  0  0  0  0  0  0  0  0
  1  2  2  0
  2  3  1  0
  3  4  1  0
  4  5  1  0
  5  6  2  0
  5  7  1  0
  7  8  1  0
  8  9  1  0
  9 10  1  0
  9 11  1  0
 11 12  1  0
 11 13  1  0
 13 14  1  0
 14 15  1  0
 15 16  1  0
 16 17  1  0
 17 18  2  0
 18 19  1  0
 19 20  2  0
 20 21  1  0
 21 22  2  0
  2 23  1  0
 23 24  2  0
 24 25  1  0
 25 26  2  0
 26 27  1  0
 27 28  2  0
 28 29  1  0
 29 30  2  0
 30 31  1  0
 31 32  2  0
 13  7  1  0
 22 17  1  0
 32 23  1  0
 31 26  1  0
  3 33  1  0
  4 34  1  0
  4 35  1  0
  8 36  1  0
  8 37  1  0
  9 38  1  6
 10 39  1  0
 11 40  1  1
 12 41  1  0
 13 42  1  1
 14 43  1  0
 14 44  1  0
 16 45  1  0
 16 46  1  0
 18 47  1  0
 19 48  1  0
 20 49  1  0
 21 50  1  0
 22 51  1  0
 24 52  1  0
 25 53  1  0
 27 54  1  0
 28 55  1  0
 29 56  1  0
 30 57  1  0
M  END
>  <smiles>  (18) 
O=C(NCC(=O)N1C[C@H](O)[C@H](O)[C@H]1COCc1ccccc1)c1ccc2ccccc2n1

>  <score_type>  (18) 
oracle

>  <origin>  (18) 
autodockgpu

>  <m_score__min__energy>  (18) 
-9.0299999999999994

>  <m_primary>  (18) 
energy

>  <rmsd>  (18) 
3.5708202239268076

>  <m_score__min__rmsd>  (18) 
3.5708202239268076

>  <meeko>  (18) 
{"free_energy": -8.94, "intermolecular_energy": -11.92, "internal_energy": -2.8, "cluster_size": 1, "cluster_id": 2, "rank_in_cluster": 1}

>  <energy>  (18) 
-8.03

>  <cluster_rmsd>  (18) 
0.28

>  <cluster>  (18) 
5

$$$$

     RDKit          3D

 57 60  0  0  0  0  0  0  0  0999 V2000
  139.5270   74.6580  222.5190 O   0  0  0  0  0  0  0  0  0  0  0  0
  140.1630   75.5200  221.8540 C   0  0  0  0  0  0  0  0  0  0  0  0
  140.7960   75.1810  220.6310 N   0  0  0  0  0  0  0  0  0  0  0  0
  140.6820   73.8100  220.1800 C   0  0  0  0  0  0  0  0  0  0  0  0
  141.8270   72.9870  220.6840 C   0  0  0  0  0  0  0  0  0  0  0  0
  141.6450   72.0680  221.5220 O   0  0  0  0  0  0  0  0  0  0  0  0
  143.1300   73.2230  220.2310 N   0  0  0  0  0  0  0  0  0  0  0  0
  143.9100   72.2850  219.4520 C   0  0  0  0  0  0  0  0  0  0  0  0
  145.3120   72.8750  219.4060 C   0  0  2  0  0  0  0  0  0  0  0  0
  146.3030   71.9160  219.5060 O   0  0  0  0  0  0  0  0  0  0  0  0
  145.2860   73.8200  220.6080 C   0  0  2  0  0  0  0  0  0  0  0  0
  145.2060   72.9640  221.7260 O   0  0  0  0  0  0  0  0  0  0  0  0
  143.9300   74.4540  220.4640 C   0  0  1  0  0  0  0  0  0  0  0  0
  143.7320   75.3350  219.2730 C   0  0  0  0  0  0  0  0  0  0  0  0
  143.1980   76.5270  219.3790 O   0  0  0  0  0  0  0  0  0  0  0  0
  142.6020   77.3300  218.5310 C   0  0  0  0  0  0  0  0  0  0  0  0
  141.7830   78.4470  219.0240 C   0  0  0  0  0  0  0  0  0  0  0  0
  140.4090   78.1980  219.1540 C   0  0  0  0  0  0  0  0  0  0  0  0
  139.5440   79.1680  219.6250 C   0  0  0  0  0  0  0  0  0  0  0  0
  140.0050   80.4110  219.9830 C   0  0  0  0  0  0  0  0  0  0  0  0
  141.3470   80.6610  219.8580 C   0  0  0  0  0  0  0  0  0  0  0  0
  142.2060   79.6890  219.3880 C   0  0  0  0  0  0  0  0  0  0  0  0
  140.2590   76.8920  222.3370 C   0  0  0  0  0  0  0  0  0  0  0  0
  139.1190   77.5760  222.6970 C   0  0  0  0  0  0  0  0  0  0  0  0
  139.1770   78.8700  223.1550 C   0  0  0  0  0  0  0  0  0  0  0  0
  140.3820   79.5210  223.2670 C   0  0  0  0  0  0  0  0  0  0  0  0
  140.4460   80.8150  223.7240 C   0  0  0  0  0  0  0  0  0  0  0  0
  141.6790   81.4050  223.8110 C   0  0  0  0  0  0  0  0  0  0  0  0
  142.8150   80.7170  223.4500 C   0  0  0  0  0  0  0  0  0  0  0  0
  142.7690   79.4040  222.9840 C   0  0  0  0  0  0  0  0  0  0  0  0
  141.5290   78.8130  222.8970 C   0  0  0  0  0  0  0  0  0  0  0  0
  141.4280   77.5510  222.4550 N   0  0  0  0  0  0  0  0  0  0  0  0
  141.3150   75.9240  220.1090 H   0  0  0  0  0  0  0  0  0  0  0  0
  139.7395   73.3843  220.5548 H   0  0  0  0  0  0  0  0  0  0  0  0
  140.6970   73.7984  219.0802 H   0  0  0  0  0  0  0  0  0  0  0  0
  143.9226   71.2975  219.9365 H   0  0  0  0  0  0  0  0  0  0  0  0
  143.4919   72.1385  218.4451 H   0  0  0  0  0  0  0  0  0  0  0  0
  145.5495   73.3716  218.4536 H   0  0  0  0  0  0  0  0  0  0  0  0
  146.3010   71.5410  220.4430 H   0  0  0  0  0  0  0  0  0  0  0  0
  146.1206   74.5322  220.6870 H   0  0  0  0  0  0  0  0  0  0  0  0
  145.8430   72.2130  221.5740 H   0  0  0  0  0  0  0  0  0  0  0  0
  143.7004   75.1102  221.3165 H   0  0  0  0  0  0  0  0  0  0  0  0
  144.7270   75.4804  218.8270 H   0  0  0  0  0  0  0  0  0  0  0  0
  142.9692   74.7868  218.7006 H   0  0  0  0  0  0  0  0  0  0  0  0
  143.3906   77.7686  217.9019 H   0  0  0  0  0  0  0  0  0  0  0  0
  141.8663   76.6762  218.0398 H   0  0  0  0  0  0  0  0  0  0  0  0
  140.0115   77.2108  218.8756 H   0  0  0  0  0  0  0  0  0  0  0  0
  138.4714   78.9410  219.7143 H   0  0  0  0  0  0  0  0  0  0  0  0
  139.3177   81.1832  220.3590 H   0  0  0  0  0  0  0  0  0  0  0  0
  141.7439   81.6486  220.1358 H   0  0  0  0  0  0  0  0  0  0  0  0
  143.2766   79.9272  219.3039 H   0  0  0  0  0  0  0  0  0  0  0  0
  138.1425   77.0762  222.6162 H   0  0  0  0  0  0  0  0  0  0  0  0
  138.2492   79.3904  223.4350 H   0  0  0  0  0  0  0  0  0  0  0  0
  139.5350   81.3605  224.0112 H   0  0  0  0  0  0  0  0  0  0  0  0
  141.7622   82.4402  224.1734 H   0  0  0  0  0  0  0  0  0  0  0  0
  143.7903   81.2192  223.5318 H   0  0  0  0  0  0  0  0  0  0  0  0
  143.6837   78.8639  222.6983 H   0  0  0  0  0  0  0  0  0  0  0  0
  1  2  2  0
  2  3  1  0
  3  4  1  0
  4  5  1  0
  5  6  2  0
  5  7  1  0
  7  8  1  0
  8  9  1  0
  9 10  1  0
  9 11  1  0
 11 12  1  0
 11 13  1  0
 13 14  1  0
 14 15  1  0
 15 16  1  0
 16 17  1  0
 17 18  2  0
 18 19  1  0
 19 20  2  0
 20 21  1  0
 21 22  2  0
  2 23  1  0
 23 24  2  0
 24 25  1  0
 25 26  2  0
 26 27  1  0
 27 28  2  0
 28 29  1  0
 29 30  2  0
 30 31  1  0
 31 32  2  0
 13  7  1  0
 22 17  1  0
 32 23  1  0
 31 26  1  0
  3 33  1  0
  4 34  1  0
  4 35  1  0
  8 36  1  0
  8 37  1  0
  9 38  1  6
 10 39  1  0
 11 40  1  1
 12 41  1  0
 13 42  1  1
 14 43  1  0
 14 44  1  0
 16 45  1  0
 16 46  1  0
 18 47  1  0
 19 48  1  0
 20 49  1  0
 21 50  1  0
 22 51  1  0
 24 52  1  0
 25 53  1  0
 27 54  1  0
 28 55  1  0
 29 56  1  0
 30 57  1  0
M  END
>  <smiles>  (19) 
O=C(NCC(=O)N1C[C@H](O)[C@H](O)[C@H]1COCc1ccccc1)c1ccc2ccccc2n1

>  <score_type>  (19) 
oracle

>  <origin>  (19) 
autodockgpu

>  <m_score__min__energy>  (19) 
-9.0299999999999994

>  <m_primary>  (19) 
energy

>  <rmsd>  (19) 
7.494081669346947

>  <m_score__min__rmsd>  (19) 
7.494081669346947

>  <meeko>  (19) 
{"free_energy": -7.59, "intermolecular_energy": -10.57, "internal_energy": -5.14, "cluster_size": 34, "cluster_id": 5, "rank_in_cluster": 22}

>  <energy>  (19) 
-7.93

>  <cluster_rmsd>  (19) 
0.46

>  <cluster>  (19) 
5

$$$$

     RDKit          3D

 57 60  0  0  0  0  0  0  0  0999 V2000
  140.0260   73.4560  222.5220 O   0  0  0  0  0  0  0  0  0  0  0  0
  140.1060   72.1970  222.4830 C   0  0  0  0  0  0  0  0  0  0  0  0
  140.2080   71.5080  221.2480 N   0  0  0  0  0  0  0  0  0  0  0  0
  140.2160   72.3060  220.0390 C   0  0  0  0  0  0  0  0  0  0  0  0
  141.6180   72.6160  219.6150 C   0  0  0  0  0  0  0  0  0  0  0  0
  142.4520   71.6960  219.4150 O   0  0  0  0  0  0  0  0  0  0  0  0
  142.0320   73.9390  219.4300 N   0  0  0  0  0  0  0  0  0  0  0  0
  142.2280   74.5650  218.1390 C   0  0  0  0  0  0  0  0  0  0  0  0
  142.8960   75.8980  218.4410 C   0  0  2  0  0  0  0  0  0  0  0  0
  143.8670   76.2350  217.5160 O   0  0  0  0  0  0  0  0  0  0  0  0
  143.4740   75.6430  219.8330 C   0  0  2  0  0  0  0  0  0  0  0  0
  144.4860   74.6830  219.6230 O   0  0  0  0  0  0  0  0  0  0  0  0
  142.3390   74.9200  220.5030 C   0  0  1  0  0  0  0  0  0  0  0  0
  141.0940   75.7130  220.7390 C   0  0  0  0  0  0  0  0  0  0  0  0
  141.1290   76.9010  221.2910 O   0  0  0  0  0  0  0  0  0  0  0  0
  140.7280   77.3730  222.4480 C   0  0  0  0  0  0  0  0  0  0  0  0
  141.1540   78.7110  222.8860 C   0  0  0  0  0  0  0  0  0  0  0  0
  142.5100   79.0190  222.7030 C   0  0  0  0  0  0  0  0  0  0  0  0
  143.0200   80.2540  223.0600 C   0  0  0  0  0  0  0  0  0  0  0  0
  142.2130   81.2190  223.6090 C   0  0  0  0  0  0  0  0  0  0  0  0
  140.8880   80.9230  223.7900 C   0  0  0  0  0  0  0  0  0  0  0  0
  140.3830   79.6910  223.4310 C   0  0  0  0  0  0  0  0  0  0  0  0
  140.0950   71.4240  223.7190 C   0  0  0  0  0  0  0  0  0  0  0  0
  139.5640   70.1530  223.7310 C   0  0  0  0  0  0  0  0  0  0  0  0
  139.5380   69.4010  224.8800 C   0  0  0  0  0  0  0  0  0  0  0  0
  140.0440   69.9000  226.0560 C   0  0  0  0  0  0  0  0  0  0  0  0
  140.0200   69.1520  227.2080 C   0  0  0  0  0  0  0  0  0  0  0  0
  140.5410   69.7080  228.3460 C   0  0  0  0  0  0  0  0  0  0  0  0
  141.0710   70.9790  228.3280 C   0  0  0  0  0  0  0  0  0  0  0  0
  141.1020   71.7520  227.1690 C   0  0  0  0  0  0  0  0  0  0  0  0
  140.5780   71.1900  226.0270 C   0  0  0  0  0  0  0  0  0  0  0  0
  140.5840   71.8910  224.8840 N   0  0  0  0  0  0  0  0  0  0  0  0
  140.2720   70.4650  221.2560 H   0  0  0  0  0  0  0  0  0  0  0  0
  139.7114   71.7488  219.2359 H   0  0  0  0  0  0  0  0  0  0  0  0
  139.6908   73.2519  220.2378 H   0  0  0  0  0  0  0  0  0  0  0  0
  142.8760   73.9438  217.5032 H   0  0  0  0  0  0  0  0  0  0  0  0
  141.2803   74.6932  217.5955 H   0  0  0  0  0  0  0  0  0  0  0  0
  142.2083   76.7553  218.3947 H   0  0  0  0  0  0  0  0  0  0  0  0
  144.7640   75.9210  217.8550 H   0  0  0  0  0  0  0  0  0  0  0  0
  143.8426   76.5250  220.3772 H   0  0  0  0  0  0  0  0  0  0  0  0
  144.7930   74.7740  218.6790 H   0  0  0  0  0  0  0  0  0  0  0  0
  142.6218   74.5708  221.5070 H   0  0  0  0  0  0  0  0  0  0  0  0
  140.6186   75.8426  219.7555 H   0  0  0  0  0  0  0  0  0  0  0  0
  140.5762   75.1146  221.5031 H   0  0  0  0  0  0  0  0  0  0  0  0
  139.6283   77.3828  222.4226 H   0  0  0  0  0  0  0  0  0  0  0  0
  141.2123   76.7040  223.1746 H   0  0  0  0  0  0  0  0  0  0  0  0
  143.1807   78.2639  222.2672 H   0  0  0  0  0  0  0  0  0  0  0  0
  144.0877   80.4659  222.9017 H   0  0  0  0  0  0  0  0  0  0  0  0
  142.6183   82.2008  223.8951 H   0  0  0  0  0  0  0  0  0  0  0  0
  140.2180   81.6778  224.2274 H   0  0  0  0  0  0  0  0  0  0  0  0
  139.3131   79.4923  223.5918 H   0  0  0  0  0  0  0  0  0  0  0  0
  139.1526   69.7319  222.8018 H   0  0  0  0  0  0  0  0  0  0  0  0
  139.1077   68.3889  224.8586 H   0  0  0  0  0  0  0  0  0  0  0  0
  139.5952   68.1373  227.2161 H   0  0  0  0  0  0  0  0  0  0  0  0
  140.5361   69.1335  229.2840 H   0  0  0  0  0  0  0  0  0  0  0  0
  141.4830   71.3973  229.2582 H   0  0  0  0  0  0  0  0  0  0  0  0
  141.5266   72.7668  227.1668 H   0  0  0  0  0  0  0  0  0  0  0  0
  1  2  2  0
  2  3  1  0
  3  4  1  0
  4  5  1  0
  5  6  2  0
  5  7  1  0
  7  8  1  0
  8  9  1  0
  9 10  1  0
  9 11  1  0
 11 12  1  0
 11 13  1  0
 13 14  1  0
 14 15  1  0
 15 16  1  0
 16 17  1  0
 17 18  2  0
 18 19  1  0
 19 20  2  0
 20 21  1  0
 21 22  2  0
  2 23  1  0
 23 24  2  0
 24 25  1  0
 25 26  2  0
 26 27  1  0
 27 28  2  0
 28 29  1  0
 29 30  2  0
 30 31  1  0
 31 32  2  0
 13  7  1  0
 22 17  1  0
 32 23  1  0
 31 26  1  0
  3 33  1  0
  4 34  1  0
  4 35  1  0
  8 36  1  0
  8 37  1  0
  9 38  1  1
 10 39  1  0
 11 40  1  1
 12 41  1  0
 13 42  1  1
 14 43  1  0
 14 44  1  0
 16 45  1  0
 16 46  1  0
 18 47  1  0
 19 48  1  0
 20 49  1  0
 21 50  1  0
 22 51  1  0
 24 52  1  0
 25 53  1  0
 27 54  1  0
 28 55  1  0
 29 56  1  0
 30 57  1  0
M  END
>  <smiles>  (20) 
O=C(NCC(=O)N1C[C@H](O)[C@H](O)[C@H]1COCc1ccccc1)c1ccc2ccccc2n1

>  <score_type>  (20) 
oracle

>  <origin>  (20) 
autodockgpu

>  <m_score__min__energy>  (20) 
-9.0299999999999994

>  <m_primary>  (20) 
energy

>  <rmsd>  (20) 
2.5580571949022257

>  <m_score__min__rmsd>  (20) 
2.5580571949022257

>  <meeko>  (20) 
{"free_energy": -9.0, "intermolecular_energy": -11.99, "internal_energy": -2.73, "cluster_size": 9, "cluster_id": 1, "rank_in_cluster": 4}

>  <energy>  (20) 
-7.92

>  <cluster_rmsd>  (20) 
0.46

>  <cluster>  (20) 
5

$$$$

     RDKit          3D

 57 60  0  0  0  0  0  0  0  0999 V2000
  141.2900   71.8070  221.5860 O   0  0  0  0  0  0  0  0  0  0  0  0
  140.4520   72.2070  222.4410 C   0  0  0  0  0  0  0  0  0  0  0  0
  139.6940   73.3860  222.2280 N   0  0  0  0  0  0  0  0  0  0  0  0
  139.9200   74.1090  220.9940 C   0  0  0  0  0  0  0  0  0  0  0  0
  140.9300   75.1960  221.1900 C   0  0  0  0  0  0  0  0  0  0  0  0
  141.0890   75.7350  222.3150 O   0  0  0  0  0  0  0  0  0  0  0  0
  141.7200   75.6390  220.1240 N   0  0  0  0  0  0  0  0  0  0  0  0
  141.9440   74.8930  218.9040 C   0  0  0  0  0  0  0  0  0  0  0  0
  143.0350   75.6550  218.1670 C   0  0  2  0  0  0  0  0  0  0  0  0
  143.9400   74.8220  217.5360 O   0  0  0  0  0  0  0  0  0  0  0  0
  143.6700   76.4580  219.3030 C   0  0  2  0  0  0  0  0  0  0  0  0
  144.2870   75.4860  220.1180 O   0  0  0  0  0  0  0  0  0  0  0  0
  142.4550   76.9290  220.0540 C   0  0  1  0  0  0  0  0  0  0  0  0
  141.5690   77.8990  219.3400 C   0  0  0  0  0  0  0  0  0  0  0  0
  140.4090   78.2600  219.8310 O   0  0  0  0  0  0  0  0  0  0  0  0
  139.9860   78.5380  221.0420 C   0  0  0  0  0  0  0  0  0  0  0  0
  140.8910   79.1720  222.0120 C   0  0  0  0  0  0  0  0  0  0  0  0
  141.3170   80.4720  221.7030 C   0  0  0  0  0  0  0  0  0  0  0  0
  142.1550   81.1740  222.5500 C   0  0  0  0  0  0  0  0  0  0  0  0
  142.5980   80.6180  223.7240 C   0  0  0  0  0  0  0  0  0  0  0  0
  142.1840   79.3480  224.0320 C   0  0  0  0  0  0  0  0  0  0  0  0
  141.3480   78.6520  223.1840 C   0  0  0  0  0  0  0  0  0  0  0  0
  140.2500   71.4560  223.6740 C   0  0  0  0  0  0  0  0  0  0  0  0
  139.5700   70.2580  223.6470 C   0  0  0  0  0  0  0  0  0  0  0  0
  139.3620   69.5280  224.7920 C   0  0  0  0  0  0  0  0  0  0  0  0
  139.8320   69.9760  226.0030 C   0  0  0  0  0  0  0  0  0  0  0  0
  139.6280   69.2490  227.1510 C   0  0  0  0  0  0  0  0  0  0  0  0
  140.1210   69.7520  228.3260 C   0  0  0  0  0  0  0  0  0  0  0  0
  140.8010   70.9490  228.3470 C   0  0  0  0  0  0  0  0  0  0  0  0
  141.0160   71.7000  227.1920 C   0  0  0  0  0  0  0  0  0  0  0  0
  140.5190   71.1920  226.0140 C   0  0  0  0  0  0  0  0  0  0  0  0
  140.7000   71.8730  224.8730 N   0  0  0  0  0  0  0  0  0  0  0  0
  139.0100   73.6850  222.9600 H   0  0  0  0  0  0  0  0  0  0  0  0
  140.2875   73.4095  220.2287 H   0  0  0  0  0  0  0  0  0  0  0  0
  138.9710   74.5641  220.6741 H   0  0  0  0  0  0  0  0  0  0  0  0
  142.2753   73.8693  219.1328 H   0  0  0  0  0  0  0  0  0  0  0  0
  141.0273   74.8020  218.3028 H   0  0  0  0  0  0  0  0  0  0  0  0
  142.6570   76.2749  217.3407 H   0  0  0  0  0  0  0  0  0  0  0  0
  144.8200   74.8620  218.0280 H   0  0  0  0  0  0  0  0  0  0  0  0
  144.3662   77.2565  219.0068 H   0  0  0  0  0  0  0  0  0  0  0  0
  144.8170   74.8890  219.5220 H   0  0  0  0  0  0  0  0  0  0  0  0
  142.7324   77.4579  220.9778 H   0  0  0  0  0  0  0  0  0  0  0  0
  142.1548   78.8221  219.2186 H   0  0  0  0  0  0  0  0  0  0  0  0
  141.2786   77.3347  218.4415 H   0  0  0  0  0  0  0  0  0  0  0  0
  139.1215   79.2088  220.9296 H   0  0  0  0  0  0  0  0  0  0  0  0
  139.8042   77.5451  221.4792 H   0  0  0  0  0  0  0  0  0  0  0  0
  140.9778   80.9426  220.7684 H   0  0  0  0  0  0  0  0  0  0  0  0
  142.4709   82.1922  222.2790 H   0  0  0  0  0  0  0  0  0  0  0  0
  143.2656   81.1750  224.3979 H   0  0  0  0  0  0  0  0  0  0  0  0
  142.5228   78.8781  224.9671 H   0  0  0  0  0  0  0  0  0  0  0  0
  141.0379   77.6351  223.4664 H   0  0  0  0  0  0  0  0  0  0  0  0
  139.1857   69.8782  222.6888 H   0  0  0  0  0  0  0  0  0  0  0  0
  138.8140   68.5757  224.7389 H   0  0  0  0  0  0  0  0  0  0  0  0
  139.0855   68.2924  227.1273 H   0  0  0  0  0  0  0  0  0  0  0  0
  139.9721   69.1939  229.2622 H   0  0  0  0  0  0  0  0  0  0  0  0
  141.1871   71.3250  229.3059 H   0  0  0  0  0  0  0  0  0  0  0  0
  141.5589   72.6562  227.2214 H   0  0  0  0  0  0  0  0  0  0  0  0
  1  2  2  0
  2  3  1  0
  3  4  1  0
  4  5  1  0
  5  6  2  0
  5  7  1  0
  7  8  1  0
  8  9  1  0
  9 10  1  0
  9 11  1  0
 11 12  1  0
 11 13  1  0
 13 14  1  0
 14 15  1  0
 15 16  1  0
 16 17  1  0
 17 18  2  0
 18 19  1  0
 19 20  2  0
 20 21  1  0
 21 22  2  0
  2 23  1  0
 23 24  2  0
 24 25  1  0
 25 26  2  0
 26 27  1  0
 27 28  2  0
 28 29  1  0
 29 30  2  0
 30 31  1  0
 31 32  2  0
 13  7  1  0
 22 17  1  0
 32 23  1  0
 31 26  1  0
  3 33  1  0
  4 34  1  0
  4 35  1  0
  8 36  1  0
  8 37  1  0
  9 38  1  6
 10 39  1  0
 11 40  1  6
 12 41  1  0
 13 42  1  1
 14 43  1  0
 14 44  1  0
 16 45  1  0
 16 46  1  0
 18 47  1  0
 19 48  1  0
 20 49  1  0
 21 50  1  0
 22 51  1  0
 24 52  1  0
 25 53  1  0
 27 54  1  0
 28 55  1  0
 29 56  1  0
 30 57  1  0
M  END
>  <smiles>  (21) 
O=C(NCC(=O)N1C[C@H](O)[C@H](O)[C@H]1COCc1ccccc1)c1ccc2ccccc2n1

>  <score_type>  (21) 
oracle

>  <origin>  (21) 
autodockgpu

>  <m_score__min__energy>  (21) 
-9.0299999999999994

>  <m_primary>  (21) 
energy

>  <rmsd>  (21) 
2.0846165084709916

>  <m_score__min__rmsd>  (21) 
2.0846165084709916

>  <meeko>  (21) 
{"free_energy": -9.03, "intermolecular_energy": -12.01, "internal_energy": -3.03, "cluster_size": 9, "cluster_id": 1, "rank_in_cluster": 1}

>  <energy>  (21) 
-7.84

>  <cluster_rmsd>  (21) 
0.74

>  <cluster>  (21) 
5

$$$$

     RDKit          3D

 57 60  0  0  0  0  0  0  0  0999 V2000
  140.8110   71.4710  221.3560 O   0  0  0  0  0  0  0  0  0  0  0  0
  140.3040   72.0390  222.3630 C   0  0  0  0  0  0  0  0  0  0  0  0
  139.8390   73.3760  222.2940 N   0  0  0  0  0  0  0  0  0  0  0  0
  139.9680   74.0610  221.0240 C   0  0  0  0  0  0  0  0  0  0  0  0
  140.9520   75.1850  221.1230 C   0  0  0  0  0  0  0  0  0  0  0  0
  141.0880   75.8340  222.1920 O   0  0  0  0  0  0  0  0  0  0  0  0
  141.7440   75.5400  220.0270 N   0  0  0  0  0  0  0  0  0  0  0  0
  142.0630   74.6570  218.9250 C   0  0  0  0  0  0  0  0  0  0  0  0
  143.1220   75.3940  218.1180 C   0  0  2  0  0  0  0  0  0  0  0  0
  144.1060   74.5550  217.6280 O   0  0  0  0  0  0  0  0  0  0  0  0
  143.6570   76.3870  219.1490 C   0  0  2  0  0  0  0  0  0  0  0  0
  144.3140   75.5830  220.1040 O   0  0  0  0  0  0  0  0  0  0  0  0
  142.3860   76.8610  219.7990 C   0  0  1  0  0  0  0  0  0  0  0  0
  141.4580   77.6570  218.9390 C   0  0  0  0  0  0  0  0  0  0  0  0
  140.9840   78.8150  219.3270 O   0  0  0  0  0  0  0  0  0  0  0  0
  141.5040   79.8380  219.9630 C   0  0  0  0  0  0  0  0  0  0  0  0
  141.7110   79.7750  221.4170 C   0  0  0  0  0  0  0  0  0  0  0  0
  140.9540   78.8190  222.1090 C   0  0  0  0  0  0  0  0  0  0  0  0
  141.0780   78.6560  223.4770 C   0  0  0  0  0  0  0  0  0  0  0  0
  141.9500   79.4290  224.2020 C   0  0  0  0  0  0  0  0  0  0  0  0
  142.6930   80.3650  223.5320 C   0  0  0  0  0  0  0  0  0  0  0  0
  142.5660   80.5220  222.1670 C   0  0  0  0  0  0  0  0  0  0  0  0
  140.1900   71.3200  223.6270 C   0  0  0  0  0  0  0  0  0  0  0  0
  139.5870   70.0820  223.6620 C   0  0  0  0  0  0  0  0  0  0  0  0
  139.4630   69.3810  224.8370 C   0  0  0  0  0  0  0  0  0  0  0  0
  139.9400   69.9010  226.0160 C   0  0  0  0  0  0  0  0  0  0  0  0
  139.8190   69.2040  227.1950 C   0  0  0  0  0  0  0  0  0  0  0  0
  140.3160   69.7790  228.3340 C   0  0  0  0  0  0  0  0  0  0  0  0
  140.9170   71.0160  228.2930 C   0  0  0  0  0  0  0  0  0  0  0  0
  141.0480   71.7370  227.1070 C   0  0  0  0  0  0  0  0  0  0  0  0
  140.5480   71.1570  225.9630 C   0  0  0  0  0  0  0  0  0  0  0  0
  140.6490   71.8070  224.7950 N   0  0  0  0  0  0  0  0  0  0  0  0
  139.4250   73.8110  223.1490 H   0  0  0  0  0  0  0  0  0  0  0  0
  140.3126   73.3462  220.2622 H   0  0  0  0  0  0  0  0  0  0  0  0
  138.9875   74.4746  220.7456 H   0  0  0  0  0  0  0  0  0  0  0  0
  142.4585   73.7010  219.2986 H   0  0  0  0  0  0  0  0  0  0  0  0
  141.1764   74.4180  218.3193 H   0  0  0  0  0  0  0  0  0  0  0  0
  142.7297   75.8672  217.2057 H   0  0  0  0  0  0  0  0  0  0  0  0
  144.9480   74.6890  218.1680 H   0  0  0  0  0  0  0  0  0  0  0  0
  144.3037   77.1891  218.7638 H   0  0  0  0  0  0  0  0  0  0  0  0
  144.8910   74.9400  219.6070 H   0  0  0  0  0  0  0  0  0  0  0  0
  142.5927   77.5287  220.6484 H   0  0  0  0  0  0  0  0  0  0  0  0
  141.9923   77.8417  217.9954 H   0  0  0  0  0  0  0  0  0  0  0  0
  140.5558   77.0279  218.9224 H   0  0  0  0  0  0  0  0  0  0  0  0
  142.4890   80.0252  219.5104 H   0  0  0  0  0  0  0  0  0  0  0  0
  140.7377   80.6193  219.8517 H   0  0  0  0  0  0  0  0  0  0  0  0
  140.2472   78.1858  221.5527 H   0  0  0  0  0  0  0  0  0  0  0  0
  140.4697   77.8969  223.9905 H   0  0  0  0  0  0  0  0  0  0  0  0
  142.0495   79.3007  225.2899 H   0  0  0  0  0  0  0  0  0  0  0  0
  143.3990   80.9987  224.0887 H   0  0  0  0  0  0  0  0  0  0  0  0
  143.1815   81.2826  221.6643 H   0  0  0  0  0  0  0  0  0  0  0  0
  139.1970   69.6459  222.7305 H   0  0  0  0  0  0  0  0  0  0  0  0
  138.9772   68.3941  224.8339 H   0  0  0  0  0  0  0  0  0  0  0  0
  139.3379   68.2152  227.2224 H   0  0  0  0  0  0  0  0  0  0  0  0
  140.2338   69.2459  229.2927 H   0  0  0  0  0  0  0  0  0  0  0  0
  141.3066   71.4499  229.2257 H   0  0  0  0  0  0  0  0  0  0  0  0
  141.5296   72.7257  227.0862 H   0  0  0  0  0  0  0  0  0  0  0  0
  1  2  2  0
  2  3  1  0
  3  4  1  0
  4  5  1  0
  5  6  2  0
  5  7  1  0
  7  8  1  0
  8  9  1  0
  9 10  1  0
  9 11  1  0
 11 12  1  0
 11 13  1  0
 13 14  1  0
 14 15  1  0
 15 16  1  0
 16 17  1  0
 17 18  2  0
 18 19  1  0
 19 20  2  0
 20 21  1  0
 21 22  2  0
  2 23  1  0
 23 24  2  0
 24 25  1  0
 25 26  2  0
 26 27  1  0
 27 28  2  0
 28 29  1  0
 29 30  2  0
 30 31  1  0
 31 32  2  0
 13  7  1  0
 22 17  1  0
 32 23  1  0
 31 26  1  0
  3 33  1  0
  4 34  1  0
  4 35  1  0
  8 36  1  0
  8 37  1  0
  9 38  1  6
 10 39  1  0
 11 40  1  6
 12 41  1  0
 13 42  1  1
 14 43  1  0
 14 44  1  0
 16 45  1  0
 16 46  1  0
 18 47  1  0
 19 48  1  0
 20 49  1  0
 21 50  1  0
 22 51  1  0
 24 52  1  0
 25 53  1  0
 27 54  1  0
 28 55  1  0
 29 56  1  0
 30 57  1  0
M  END
>  <smiles>  (22) 
O=C(NCC(=O)N1C[C@H](O)[C@H](O)[C@H]1COCc1ccccc1)c1ccc2ccccc2n1

>  <score_type>  (22) 
oracle

>  <origin>  (22) 
autodockgpu

>  <m_score__min__energy>  (22) 
-9.0299999999999994

>  <m_primary>  (22) 
energy

>  <rmsd>  (22) 
2.0678872172809686

>  <m_score__min__rmsd>  (22) 
2.0678872172809686

>  <meeko>  (22) 
{"free_energy": -9.02, "intermolecular_energy": -12.0, "internal_energy": -3.03, "cluster_size": 9, "cluster_id": 1, "rank_in_cluster": 2}

>  <energy>  (22) 
-7.76

>  <cluster_rmsd>  (22) 
0.45

>  <cluster>  (22) 
5

$$$$

     RDKit          3D

 57 60  0  0  0  0  0  0  0  0999 V2000
  138.8580   75.3180  222.0420 O   0  0  0  0  0  0  0  0  0  0  0  0
  139.9990   75.8450  221.9260 C   0  0  0  0  0  0  0  0  0  0  0  0
  141.0740   75.1400  221.3280 N   0  0  0  0  0  0  0  0  0  0  0  0
  140.8090   73.7970  220.8570 C   0  0  0  0  0  0  0  0  0  0  0  0
  141.9710   72.8950  221.1380 C   0  0  0  0  0  0  0  0  0  0  0  0
  141.8560   71.9150  221.9170 O   0  0  0  0  0  0  0  0  0  0  0  0
  143.2140   73.1240  220.5390 N   0  0  0  0  0  0  0  0  0  0  0  0
  143.9150   72.1640  219.7120 C   0  0  0  0  0  0  0  0  0  0  0  0
  145.2970   72.7610  219.4940 C   0  0  2  0  0  0  0  0  0  0  0  0
  146.3030   71.8130  219.5190 O   0  0  0  0  0  0  0  0  0  0  0  0
  145.3920   73.7480  220.6580 C   0  0  2  0  0  0  0  0  0  0  0  0
  145.4430   72.9320  221.8070 O   0  0  0  0  0  0  0  0  0  0  0  0
  144.0220   74.3670  220.6400 C   0  0  1  0  0  0  0  0  0  0  0  0
  143.6870   75.2040  219.4480 C   0  0  0  0  0  0  0  0  0  0  0  0
  143.1420   76.3900  219.5700 O   0  0  0  0  0  0  0  0  0  0  0  0
  142.8150   77.3280  218.7130 C   0  0  0  0  0  0  0  0  0  0  0  0
  141.8690   78.3840  219.1020 C   0  0  0  0  0  0  0  0  0  0  0  0
  140.5190   78.0120  219.1700 C   0  0  0  0  0  0  0  0  0  0  0  0
  139.5420   78.9170  219.5430 C   0  0  0  0  0  0  0  0  0  0  0  0
  139.8640   80.2130  219.8590 C   0  0  0  0  0  0  0  0  0  0  0  0
  141.1820   80.5830  219.7940 C   0  0  0  0  0  0  0  0  0  0  0  0
  142.1530   79.6760  219.4230 C   0  0  0  0  0  0  0  0  0  0  0  0
  140.2320   77.1990  222.4120 C   0  0  0  0  0  0  0  0  0  0  0  0
  139.1680   77.9850  222.7970 C   0  0  0  0  0  0  0  0  0  0  0  0
  139.3550   79.2650  223.2580 C   0  0  0  0  0  0  0  0  0  0  0  0
  140.6170   79.8000  223.3480 C   0  0  0  0  0  0  0  0  0  0  0  0
  140.8100   81.0810  223.8090 C   0  0  0  0  0  0  0  0  0  0  0  0
  142.0940   81.5530  223.8730 C   0  0  0  0  0  0  0  0  0  0  0  0
  143.1540   80.7640  223.4880 C   0  0  0  0  0  0  0  0  0  0  0  0
  142.9770   79.4640  223.0170 C   0  0  0  0  0  0  0  0  0  0  0  0
  141.6850   78.9910  222.9530 C   0  0  0  0  0  0  0  0  0  0  0  0
  141.4590   77.7470  222.5090 N   0  0  0  0  0  0  0  0  0  0  0  0
  142.0050   75.6110  221.2500 H   0  0  0  0  0  0  0  0  0  0  0  0
  139.9169   73.4054  221.3677 H   0  0  0  0  0  0  0  0  0  0  0  0
  140.6444   73.8311  219.7699 H   0  0  0  0  0  0  0  0  0  0  0  0
  143.9902   71.1942  220.2257 H   0  0  0  0  0  0  0  0  0  0  0  0
  143.3919   71.9795  218.7621 H   0  0  0  0  0  0  0  0  0  0  0  0
  145.4243   73.2249  218.5048 H   0  0  0  0  0  0  0  0  0  0  0  0
  146.4410   71.5070  220.4700 H   0  0  0  0  0  0  0  0  0  0  0  0
  146.2227   74.4681  220.6212 H   0  0  0  0  0  0  0  0  0  0  0  0
  145.4860   71.9850  221.5000 H   0  0  0  0  0  0  0  0  0  0  0  0
  143.8794   75.0516  221.4891 H   0  0  0  0  0  0  0  0  0  0  0  0
  144.6287   75.3514  218.8990 H   0  0  0  0  0  0  0  0  0  0  0  0
  142.8817   74.6240  218.9735 H   0  0  0  0  0  0  0  0  0  0  0  0
  143.7489   77.8306  218.4211 H   0  0  0  0  0  0  0  0  0  0  0  0
  142.2706   76.7771  217.9319 H   0  0  0  0  0  0  0  0  0  0  0  0
  140.2311   76.9798  218.9217 H   0  0  0  0  0  0  0  0  0  0  0  0
  138.4916   78.5933  219.5870 H   0  0  0  0  0  0  0  0  0  0  0  0
  139.0874   80.9334  220.1556 H   0  0  0  0  0  0  0  0  0  0  0  0
  141.4691   81.6158  220.0407 H   0  0  0  0  0  0  0  0  0  0  0  0
  143.2001   80.0107  219.3850 H   0  0  0  0  0  0  0  0  0  0  0  0
  138.1477   77.5789  222.7338 H   0  0  0  0  0  0  0  0  0  0  0  0
  138.4854   79.8680  223.5582 H   0  0  0  0  0  0  0  0  0  0  0  0
  139.9596   81.7071  224.1168 H   0  0  0  0  0  0  0  0  0  0  0  0
  142.2803   82.5744  224.2363 H   0  0  0  0  0  0  0  0  0  0  0  0
  144.1733   81.1723  223.5541 H   0  0  0  0  0  0  0  0  0  0  0  0
  143.8316   78.8432  222.7099 H   0  0  0  0  0  0  0  0  0  0  0  0
  1  2  2  0
  2  3  1  0
  3  4  1  0
  4  5  1  0
  5  6  2  0
  5  7  1  0
  7  8  1  0
  8  9  1  0
  9 10  1  0
  9 11  1  0
 11 12  1  0
 11 13  1  0
 13 14  1  0
 14 15  1  0
 15 16  1  0
 16 17  1  0
 17 18  2  0
 18 19  1  0
 19 20  2  0
 20 21  1  0
 21 22  2  0
  2 23  1  0
 23 24  2  0
 24 25  1  0
 25 26  2  0
 26 27  1  0
 27 28  2  0
 28 29  1  0
 29 30  2  0
 30 31  1  0
 31 32  2  0
 13  7  1  0
 22 17  1  0
 32 23  1  0
 31 26  1  0
  3 33  1  0
  4 34  1  0
  4 35  1  0
  8 36  1  0
  8 37  1  0
  9 38  1  6
 10 39  1  0
 11 40  1  6
 12 41  1  0
 13 42  1  1
 14 43  1  0
 14 44  1  0
 16 45  1  0
 16 46  1  0
 18 47  1  0
 19 48  1  0
 20 49  1  0
 21 50  1  0
 22 51  1  0
 24 52  1  0
 25 53  1  0
 27 54  1  0
 28 55  1  0
 29 56  1  0
 30 57  1  0
M  END
>  <smiles>  (23) 
O=C(NCC(=O)N1C[C@H](O)[C@H](O)[C@H]1COCc1ccccc1)c1ccc2ccccc2n1

>  <score_type>  (23) 
oracle

>  <origin>  (23) 
autodockgpu

>  <m_score__min__energy>  (23) 
-9.0299999999999994

>  <m_primary>  (23) 
energy

>  <rmsd>  (23) 
7.651154046566406

>  <m_score__min__rmsd>  (23) 
7.651154046566406

>  <meeko>  (23) 
{"free_energy": -7.62, "intermolecular_energy": -10.6, "internal_energy": -5.23, "cluster_size": 34, "cluster_id": 5, "rank_in_cluster": 18}

>  <energy>  (23) 
-7.76

>  <cluster_rmsd>  (23) 
0.66

>  <cluster>  (23) 
5

$$$$

     RDKit          3D

 57 60  0  0  0  0  0  0  0  0999 V2000
  139.8660   73.7800  222.3630 O   0  0  0  0  0  0  0  0  0  0  0  0
  140.2900   72.6010  222.2150 C   0  0  0  0  0  0  0  0  0  0  0  0
  140.8500   72.1730  220.9850 N   0  0  0  0  0  0  0  0  0  0  0  0
  140.9160   73.1420  219.9100 C   0  0  0  0  0  0  0  0  0  0  0  0
  142.1580   73.9700  220.0160 C   0  0  0  0  0  0  0  0  0  0  0  0
  142.0970   75.2250  220.0690 O   0  0  0  0  0  0  0  0  0  0  0  0
  143.4190   73.3650  220.0570 N   0  0  0  0  0  0  0  0  0  0  0  0
  144.5460   73.8690  220.8130 C   0  0  0  0  0  0  0  0  0  0  0  0
  145.7330   73.0300  220.3640 C   0  0  2  0  0  0  0  0  0  0  0  0
  146.8980   73.7650  220.2450 O   0  0  0  0  0  0  0  0  0  0  0  0
  145.2390   72.4920  219.0210 C   0  0  2  0  0  0  0  0  0  0  0  0
  145.1680   73.6300  218.1910 O   0  0  0  0  0  0  0  0  0  0  0  0
  143.8190   72.1210  219.3500 C   0  0  1  0  0  0  0  0  0  0  0  0
  143.6340   70.9920  220.3120 C   0  0  0  0  0  0  0  0  0  0  0  0
  142.7900   70.0180  220.0760 O   0  0  0  0  0  0  0  0  0  0  0  0
  142.8210   68.9630  219.2960 C   0  0  0  0  0  0  0  0  0  0  0  0
  144.0830   68.2390  219.0840 C   0  0  0  0  0  0  0  0  0  0  0  0
  144.2630   67.6640  217.8190 C   0  0  0  0  0  0  0  0  0  0  0  0
  145.4190   66.9750  217.5000 C   0  0  0  0  0  0  0  0  0  0  0  0
  146.4300   66.8310  218.4170 C   0  0  0  0  0  0  0  0  0  0  0  0
  146.2600   67.3910  219.6560 C   0  0  0  0  0  0  0  0  0  0  0  0
  145.1060   68.0790  219.9690 C   0  0  0  0  0  0  0  0  0  0  0  0
  140.2070   71.6500  223.3170 C   0  0  0  0  0  0  0  0  0  0  0  0
  139.6450   70.4090  223.1150 C   0  0  0  0  0  0  0  0  0  0  0  0
  139.5510   69.4920  224.1340 C   0  0  0  0  0  0  0  0  0  0  0  0
  140.0210   69.7910  225.3900 C   0  0  0  0  0  0  0  0  0  0  0  0
  139.9310   68.8770  226.4130 C   0  0  0  0  0  0  0  0  0  0  0  0
  140.4170   69.2390  227.6410 C   0  0  0  0  0  0  0  0  0  0  0  0
  140.9790   70.4800  227.8370 C   0  0  0  0  0  0  0  0  0  0  0  0
  141.0780   71.4190  226.8120 C   0  0  0  0  0  0  0  0  0  0  0  0
  140.5880   71.0530  225.5790 C   0  0  0  0  0  0  0  0  0  0  0  0
  140.6590   71.9180  224.5570 N   0  0  0  0  0  0  0  0  0  0  0  0
  141.1900   71.1870  220.9010 H   0  0  0  0  0  0  0  0  0  0  0  0
  140.9173   72.6118  218.9462 H   0  0  0  0  0  0  0  0  0  0  0  0
  140.0423   73.8066  219.9804 H   0  0  0  0  0  0  0  0  0  0  0  0
  144.7175   74.9320  220.5878 H   0  0  0  0  0  0  0  0  0  0  0  0
  144.3787   73.7982  221.8979 H   0  0  0  0  0  0  0  0  0  0  0  0
  146.0128   72.2454  221.0824 H   0  0  0  0  0  0  0  0  0  0  0  0
  146.8930   74.2450  219.3580 H   0  0  0  0  0  0  0  0  0  0  0  0
  145.8338   71.6838  218.5703 H   0  0  0  0  0  0  0  0  0  0  0  0
  145.5340   74.4000  218.7080 H   0  0  0  0  0  0  0  0  0  0  0  0
  143.2708   71.7941  218.4541 H   0  0  0  0  0  0  0  0  0  0  0  0
  144.6218   70.5231  220.4324 H   0  0  0  0  0  0  0  0  0  0  0  0
  143.1766   71.4940  221.1773 H   0  0  0  0  0  0  0  0  0  0  0  0
  142.1064   68.2387  219.7140 H   0  0  0  0  0  0  0  0  0  0  0  0
  142.5994   69.3786  218.3019 H   0  0  0  0  0  0  0  0  0  0  0  0
  143.4688   67.7626  217.0643 H   0  0  0  0  0  0  0  0  0  0  0  0
  145.5297   66.5363  216.4974 H   0  0  0  0  0  0  0  0  0  0  0  0
  147.3494   66.2823  218.1648 H   0  0  0  0  0  0  0  0  0  0  0  0
  147.0539   67.2906  220.4107 H   0  0  0  0  0  0  0  0  0  0  0  0
  145.0080   68.5160  220.9737 H   0  0  0  0  0  0  0  0  0  0  0  0
  139.2635   70.1464  222.1173 H   0  0  0  0  0  0  0  0  0  0  0  0
  139.0952   68.5094  223.9424 H   0  0  0  0  0  0  0  0  0  0  0  0
  139.4826   67.8858  226.2502 H   0  0  0  0  0  0  0  0  0  0  0  0
  140.3576   68.5301  228.4800 H   0  0  0  0  0  0  0  0  0  0  0  0
  141.3624   70.7390  228.8350 H   0  0  0  0  0  0  0  0  0  0  0  0
  141.5277   72.4086  226.9808 H   0  0  0  0  0  0  0  0  0  0  0  0
  1  2  2  0
  2  3  1  0
  3  4  1  0
  4  5  1  0
  5  6  2  0
  5  7  1  0
  7  8  1  0
  8  9  1  0
  9 10  1  0
  9 11  1  0
 11 12  1  0
 11 13  1  0
 13 14  1  0
 14 15  1  0
 15 16  1  0
 16 17  1  0
 17 18  2  0
 18 19  1  0
 19 20  2  0
 20 21  1  0
 21 22  2  0
  2 23  1  0
 23 24  2  0
 24 25  1  0
 25 26  2  0
 26 27  1  0
 27 28  2  0
 28 29  1  0
 29 30  2  0
 30 31  1  0
 31 32  2  0
 13  7  1  0
 22 17  1  0
 32 23  1  0
 31 26  1  0
  3 33  1  0
  4 34  1  0
  4 35  1  0
  8 36  1  0
  8 37  1  0
  9 38  1  1
 10 39  1  0
 11 40  1  6
 12 41  1  0
 13 42  1  6
 14 43  1  0
 14 44  1  0
 16 45  1  0
 16 46  1  0
 18 47  1  0
 19 48  1  0
 20 49  1  0
 21 50  1  0
 22 51  1  0
 24 52  1  0
 25 53  1  0
 27 54  1  0
 28 55  1  0
 29 56  1  0
 30 57  1  0
M  END
>  <smiles>  (24) 
O=C(NCC(=O)N1C[C@H](O)[C@H](O)[C@H]1COCc1ccccc1)c1ccc2ccccc2n1

>  <score_type>  (24) 
oracle

>  <origin>  (24) 
autodockgpu

>  <m_score__min__energy>  (24) 
-9.0299999999999994

>  <m_primary>  (24) 
energy

>  <rmsd>  (24) 
4.101820118122201

>  <m_score__min__rmsd>  (24) 
4.101820118122201

>  <meeko>  (24) 
{"free_energy": -8.35, "intermolecular_energy": -11.33, "internal_energy": -3.63, "cluster_size": 1, "cluster_id": 3, "rank_in_cluster": 1}

>  <energy>  (24) 
-7.74

>  <cluster_rmsd>  (24) 
0.35

>  <cluster>  (24) 
5

$$$$

     RDKit          3D

 57 60  0  0  0  0  0  0  0  0999 V2000
  140.6490   71.3460  221.2770 O   0  0  0  0  0  0  0  0  0  0  0  0
  140.2650   71.9770  222.3000 C   0  0  0  0  0  0  0  0  0  0  0  0
  139.9330   73.3530  222.2310 N   0  0  0  0  0  0  0  0  0  0  0  0
  140.0530   74.0030  220.9420 C   0  0  0  0  0  0  0  0  0  0  0  0
  140.8680   75.2540  221.0500 C   0  0  0  0  0  0  0  0  0  0  0  0
  141.0120   75.8400  222.1530 O   0  0  0  0  0  0  0  0  0  0  0  0
  141.4900   75.8010  219.9230 N   0  0  0  0  0  0  0  0  0  0  0  0
  141.8720   75.0450  218.7490 C   0  0  0  0  0  0  0  0  0  0  0  0
  142.7090   76.0020  217.9140 C   0  0  2  0  0  0  0  0  0  0  0  0
  143.7850   75.3840  217.3030 O   0  0  0  0  0  0  0  0  0  0  0  0
  143.1400   77.0280  218.9630 C   0  0  2  0  0  0  0  0  0  0  0  0
  144.0070   76.3150  219.8160 O   0  0  0  0  0  0  0  0  0  0  0  0
  141.8620   77.2270  219.7310 C   0  0  1  0  0  0  0  0  0  0  0  0
  140.7370   77.8760  218.9910 C   0  0  0  0  0  0  0  0  0  0  0  0
  140.1300   78.9400  219.4570 O   0  0  0  0  0  0  0  0  0  0  0  0
  139.7530   79.3130  220.6570 C   0  0  0  0  0  0  0  0  0  0  0  0
  140.7590   79.5600  221.7020 C   0  0  0  0  0  0  0  0  0  0  0  0
  140.5860   78.8610  222.9050 C   0  0  0  0  0  0  0  0  0  0  0  0
  141.4790   79.0000  223.9520 C   0  0  0  0  0  0  0  0  0  0  0  0
  142.5670   79.8310  223.8450 C   0  0  0  0  0  0  0  0  0  0  0  0
  142.7410   80.5160  222.6720 C   0  0  0  0  0  0  0  0  0  0  0  0
  141.8470   80.3730  221.6300 C   0  0  0  0  0  0  0  0  0  0  0  0
  140.1560   71.2920  223.5830 C   0  0  0  0  0  0  0  0  0  0  0  0
  139.5610   70.0520  223.6530 C   0  0  0  0  0  0  0  0  0  0  0  0
  139.4430   69.3820  224.8460 C   0  0  0  0  0  0  0  0  0  0  0  0
  139.9190   69.9360  226.0100 C   0  0  0  0  0  0  0  0  0  0  0  0
  139.8040   69.2700  227.2070 C   0  0  0  0  0  0  0  0  0  0  0  0
  140.2990   69.8780  228.3300 C   0  0  0  0  0  0  0  0  0  0  0  0
  140.8940   71.1180  228.2540 C   0  0  0  0  0  0  0  0  0  0  0  0
  141.0190   71.8070  227.0490 C   0  0  0  0  0  0  0  0  0  0  0  0
  140.5200   71.1940  225.9220 C   0  0  0  0  0  0  0  0  0  0  0  0
  140.6150   71.8130  224.7370 N   0  0  0  0  0  0  0  0  0  0  0  0
  139.6200   73.8410  223.1010 H   0  0  0  0  0  0  0  0  0  0  0  0
  140.5405   73.3151  220.2355 H   0  0  0  0  0  0  0  0  0  0  0  0
  139.0464   74.2682  220.5864 H   0  0  0  0  0  0  0  0  0  0  0  0
  142.4639   74.1627  219.0340 H   0  0  0  0  0  0  0  0  0  0  0  0
  140.9966   74.6741  218.1957 H   0  0  0  0  0  0  0  0  0  0  0  0
  142.1628   76.4363  217.0637 H   0  0  0  0  0  0  0  0  0  0  0  0
  144.6230   75.6010  217.8200 H   0  0  0  0  0  0  0  0  0  0  0  0
  143.5975   77.9531  218.5824 H   0  0  0  0  0  0  0  0  0  0  0  0
  144.4490   75.6080  219.2700 H   0  0  0  0  0  0  0  0  0  0  0  0
  142.0144   77.8808  220.6024 H   0  0  0  0  0  0  0  0  0  0  0  0
  141.1354   78.1543  218.0042 H   0  0  0  0  0  0  0  0  0  0  0  0
  139.9476   77.1120  219.0473 H   0  0  0  0  0  0  0  0  0  0  0  0
  139.1860   80.2477  220.5352 H   0  0  0  0  0  0  0  0  0  0  0  0
  139.2077   78.4353  221.0343 H   0  0  0  0  0  0  0  0  0  0  0  0
  139.7228   78.1886  223.0184 H   0  0  0  0  0  0  0  0  0  0  0  0
  141.3155   78.4373  224.8829 H   0  0  0  0  0  0  0  0  0  0  0  0
  143.2778   79.9431  224.6770 H   0  0  0  0  0  0  0  0  0  0  0  0
  143.6040   81.1886  222.5587 H   0  0  0  0  0  0  0  0  0  0  0  0
  142.0217   80.9397  220.7036 H   0  0  0  0  0  0  0  0  0  0  0  0
  139.1722   69.5886  222.7343 H   0  0  0  0  0  0  0  0  0  0  0  0
  138.9629   68.3926  224.8700 H   0  0  0  0  0  0  0  0  0  0  0  0
  139.3291   68.2793  227.2613 H   0  0  0  0  0  0  0  0  0  0  0  0
  140.2206   69.3707  229.3029 H   0  0  0  0  0  0  0  0  0  0  0  0
  141.2829   71.5792  229.1738 H   0  0  0  0  0  0  0  0  0  0  0  0
  141.4955   72.7972  227.0006 H   0  0  0  0  0  0  0  0  0  0  0  0
  1  2  2  0
  2  3  1  0
  3  4  1  0
  4  5  1  0
  5  6  2  0
  5  7  1  0
  7  8  1  0
  8  9  1  0
  9 10  1  0
  9 11  1  0
 11 12  1  0
 11 13  1  0
 13 14  1  0
 14 15  1  0
 15 16  1  0
 16 17  1  0
 17 18  2  0
 18 19  1  0
 19 20  2  0
 20 21  1  0
 21 22  2  0
  2 23  1  0
 23 24  2  0
 24 25  1  0
 25 26  2  0
 26 27  1  0
 27 28  2  0
 28 29  1  0
 29 30  2  0
 30 31  1  0
 31 32  2  0
 13  7  1  0
 22 17  1  0
 32 23  1  0
 31 26  1  0
  3 33  1  0
  4 34  1  0
  4 35  1  0
  8 36  1  0
  8 37  1  0
  9 38  1  6
 10 39  1  0
 11 40  1  6
 12 41  1  0
 13 42  1  1
 14 43  1  0
 14 44  1  0
 16 45  1  0
 16 46  1  0
 18 47  1  0
 19 48  1  0
 20 49  1  0
 21 50  1  0
 22 51  1  0
 24 52  1  0
 25 53  1  0
 27 54  1  0
 28 55  1  0
 29 56  1  0
 30 57  1  0
M  END
>  <smiles>  (25) 
O=C(NCC(=O)N1C[C@H](O)[C@H](O)[C@H]1COCc1ccccc1)c1ccc2ccccc2n1

>  <score_type>  (25) 
oracle

>  <origin>  (25) 
autodockgpu

>  <m_score__min__energy>  (25) 
-9.0299999999999994

>  <m_primary>  (25) 
energy

>  <rmsd>  (25) 
1.9412308359965496

>  <m_score__min__rmsd>  (25) 
1.9412308359965496

>  <meeko>  (25) 
{"free_energy": -8.67, "intermolecular_energy": -11.66, "internal_energy": -3.22, "cluster_size": 9, "cluster_id": 1, "rank_in_cluster": 9}

>  <energy>  (25) 
-7.7

>  <cluster_rmsd>  (25) 
0.39

>  <cluster>  (25) 
5

$$$$

     RDKit          3D

 57 60  0  0  0  0  0  0  0  0999 V2000
  138.9820   75.0880  222.3380 O   0  0  0  0  0  0  0  0  0  0  0  0
  140.0760   75.6780  222.1170 C   0  0  0  0  0  0  0  0  0  0  0  0
  141.1680   74.9970  221.5220 N   0  0  0  0  0  0  0  0  0  0  0  0
  140.9760   73.6020  221.1800 C   0  0  0  0  0  0  0  0  0  0  0  0
  141.7300   73.2510  219.9350 C   0  0  0  0  0  0  0  0  0  0  0  0
  141.1470   72.7350  218.9490 O   0  0  0  0  0  0  0  0  0  0  0  0
  143.1060   73.4890  219.8420 N   0  0  0  0  0  0  0  0  0  0  0  0
  144.0080   72.7540  218.9810 C   0  0  0  0  0  0  0  0  0  0  0  0
  145.4030   73.1990  219.3950 C   0  0  2  0  0  0  0  0  0  0  0  0
  146.3220   72.1660  219.3870 O   0  0  0  0  0  0  0  0  0  0  0  0
  145.1470   73.7460  220.8000 C   0  0  2  0  0  0  0  0  0  0  0  0
  144.8040   72.6090  221.5620 O   0  0  0  0  0  0  0  0  0  0  0  0
  143.8720   74.5160  220.5940 C   0  0  1  0  0  0  0  0  0  0  0  0
  143.9600   75.7240  219.7180 C   0  0  0  0  0  0  0  0  0  0  0  0
  143.0060   76.6220  219.6850 O   0  0  0  0  0  0  0  0  0  0  0  0
  142.5900   77.4670  218.7710 C   0  0  0  0  0  0  0  0  0  0  0  0
  141.7830   78.6330  219.1590 C   0  0  0  0  0  0  0  0  0  0  0  0
  140.4060   78.4110  219.3070 C   0  0  0  0  0  0  0  0  0  0  0  0
  139.5510   79.4300  219.6870 C   0  0  0  0  0  0  0  0  0  0  0  0
  140.0260   80.6950  219.9300 C   0  0  0  0  0  0  0  0  0  0  0  0
  141.3700   80.9180  219.7870 C   0  0  0  0  0  0  0  0  0  0  0  0
  142.2190   79.8980  219.4090 C   0  0  0  0  0  0  0  0  0  0  0  0
  140.2360   77.0820  222.4750 C   0  0  0  0  0  0  0  0  0  0  0  0
  139.1260   77.8610  222.7160 C   0  0  0  0  0  0  0  0  0  0  0  0
  139.2440   79.1870  223.0540 C   0  0  0  0  0  0  0  0  0  0  0  0
  140.4800   79.7760  223.1610 C   0  0  0  0  0  0  0  0  0  0  0  0
  140.6040   81.1020  223.5000 C   0  0  0  0  0  0  0  0  0  0  0  0
  141.8660   81.6270  223.5900 C   0  0  0  0  0  0  0  0  0  0  0  0
  142.9720   80.8430  223.3480 C   0  0  0  0  0  0  0  0  0  0  0  0
  142.8660   79.4970  223.0040 C   0  0  0  0  0  0  0  0  0  0  0  0
  141.5960   78.9720  222.9140 C   0  0  0  0  0  0  0  0  0  0  0  0
  141.4360   77.6820  222.5870 N   0  0  0  0  0  0  0  0  0  0  0  0
  142.0580   75.5190  221.3550 H   0  0  0  0  0  0  0  0  0  0  0  0
  141.3362   72.9747  222.0087 H   0  0  0  0  0  0  0  0  0  0  0  0
  139.9044   73.4263  221.0045 H   0  0  0  0  0  0  0  0  0  0  0  0
  143.8879   71.6709  219.1308 H   0  0  0  0  0  0  0  0  0  0  0  0
  143.8122   72.9497  217.9164 H   0  0  0  0  0  0  0  0  0  0  0  0
  145.8530   73.9304  218.7076 H   0  0  0  0  0  0  0  0  0  0  0  0
  146.2160   71.6280  220.2340 H   0  0  0  0  0  0  0  0  0  0  0  0
  145.9648   74.3228  221.2566 H   0  0  0  0  0  0  0  0  0  0  0  0
  145.5130   71.9250  221.4130 H   0  0  0  0  0  0  0  0  0  0  0  0
  143.4827   74.9093  221.5446 H   0  0  0  0  0  0  0  0  0  0  0  0
  144.8755   76.2561  220.0160 H   0  0  0  0  0  0  0  0  0  0  0  0
  143.9050   75.2868  218.7101 H   0  0  0  0  0  0  0  0  0  0  0  0
  143.4869   77.8556  218.2665 H   0  0  0  0  0  0  0  0  0  0  0  0
  141.8917   76.8655  218.1705 H   0  0  0  0  0  0  0  0  0  0  0  0
  139.9981   77.4072  219.1173 H   0  0  0  0  0  0  0  0  0  0  0  0
  138.4760   79.2239  219.7959 H   0  0  0  0  0  0  0  0  0  0  0  0
  139.3468   81.5062  220.2309 H   0  0  0  0  0  0  0  0  0  0  0  0
  141.7773   81.9222  219.9758 H   0  0  0  0  0  0  0  0  0  0  0  0
  143.2922   80.1161  219.3054 H   0  0  0  0  0  0  0  0  0  0  0  0
  138.1249   77.4122  222.6362 H   0  0  0  0  0  0  0  0  0  0  0  0
  138.3389   79.7835  223.2410 H   0  0  0  0  0  0  0  0  0  0  0  0
  139.7168   81.7229  223.6932 H   0  0  0  0  0  0  0  0  0  0  0  0
  141.9973   82.6857  223.8583 H   0  0  0  0  0  0  0  0  0  0  0  0
  143.9719   81.2942  223.4290 H   0  0  0  0  0  0  0  0  0  0  0  0
  143.7571   78.8811  222.8128 H   0  0  0  0  0  0  0  0  0  0  0  0
  1  2  2  0
  2  3  1  0
  3  4  1  0
  4  5  1  0
  5  6  2  0
  5  7  1  0
  7  8  1  0
  8  9  1  0
  9 10  1  0
  9 11  1  0
 11 12  1  0
 11 13  1  0
 13 14  1  0
 14 15  1  0
 15 16  1  0
 16 17  1  0
 17 18  2  0
 18 19  1  0
 19 20  2  0
 20 21  1  0
 21 22  2  0
  2 23  1  0
 23 24  2  0
 24 25  1  0
 25 26  2  0
 26 27  1  0
 27 28  2  0
 28 29  1  0
 29 30  2  0
 30 31  1  0
 31 32  2  0
 13  7  1  0
 22 17  1  0
 32 23  1  0
 31 26  1  0
  3 33  1  0
  4 34  1  0
  4 35  1  0
  8 36  1  0
  8 37  1  0
  9 38  1  6
 10 39  1  0
 11 40  1  1
 12 41  1  0
 13 42  1  1
 14 43  1  0
 14 44  1  0
 16 45  1  0
 16 46  1  0
 18 47  1  0
 19 48  1  0
 20 49  1  0
 21 50  1  0
 22 51  1  0
 24 52  1  0
 25 53  1  0
 27 54  1  0
 28 55  1  0
 29 56  1  0
 30 57  1  0
M  END
>  <smiles>  (26) 
O=C(NCC(=O)N1C[C@H](O)[C@H](O)[C@H]1COCc1ccccc1)c1ccc2ccccc2n1

>  <score_type>  (26) 
oracle

>  <origin>  (26) 
autodockgpu

>  <m_score__min__energy>  (26) 
-9.0299999999999994

>  <m_primary>  (26) 
energy

>  <rmsd>  (26) 
7.625754196650826

>  <m_score__min__rmsd>  (26) 
7.625754196650826

>  <meeko>  (26) 
{"free_energy": -7.22, "intermolecular_energy": -10.2, "internal_energy": -5.2, "cluster_size": 34, "cluster_id": 5, "rank_in_cluster": 28}

>  <energy>  (26) 
-7.67

>  <cluster_rmsd>  (26) 
0.57

>  <cluster>  (26) 
5

$$$$

     RDKit          3D

 57 60  0  0  0  0  0  0  0  0999 V2000
  138.8950   75.3040  222.0540 O   0  0  0  0  0  0  0  0  0  0  0  0
  140.0210   75.8550  221.9060 C   0  0  0  0  0  0  0  0  0  0  0  0
  141.0890   75.1780  221.2660 N   0  0  0  0  0  0  0  0  0  0  0  0
  140.8360   73.8340  220.7910 C   0  0  0  0  0  0  0  0  0  0  0  0
  141.9940   72.9350  221.0950 C   0  0  0  0  0  0  0  0  0  0  0  0
  141.8830   71.9910  221.9180 O   0  0  0  0  0  0  0  0  0  0  0  0
  143.2310   73.1270  220.4700 N   0  0  0  0  0  0  0  0  0  0  0  0
  143.9300   72.1150  219.7070 C   0  0  0  0  0  0  0  0  0  0  0  0
  145.3070   72.7020  219.4350 C   0  0  2  0  0  0  0  0  0  0  0  0
  146.3190   71.7630  219.5180 O   0  0  0  0  0  0  0  0  0  0  0  0
  145.4060   73.7700  220.5240 C   0  0  2  0  0  0  0  0  0  0  0  0
  145.4720   73.0390  221.7280 O   0  0  0  0  0  0  0  0  0  0  0  0
  144.0320   74.3790  220.4750 C   0  0  1  0  0  0  0  0  0  0  0  0
  143.6820   75.1270  219.2290 C   0  0  0  0  0  0  0  0  0  0  0  0
  142.8840   76.1650  219.2510 O   0  0  0  0  0  0  0  0  0  0  0  0
  142.9470   77.3670  218.7260 C   0  0  0  0  0  0  0  0  0  0  0  0
  141.9600   78.3890  219.1050 C   0  0  0  0  0  0  0  0  0  0  0  0
  140.6220   77.9730  219.1470 C   0  0  0  0  0  0  0  0  0  0  0  0
  139.6100   78.8430  219.5080 C   0  0  0  0  0  0  0  0  0  0  0  0
  139.8850   80.1470  219.8360 C   0  0  0  0  0  0  0  0  0  0  0  0
  141.1900   80.5600  219.7960 C   0  0  0  0  0  0  0  0  0  0  0  0
  142.1970   79.6880  219.4370 C   0  0  0  0  0  0  0  0  0  0  0  0
  140.2410   77.2100  222.3960 C   0  0  0  0  0  0  0  0  0  0  0  0
  139.1700   77.9870  222.7800 C   0  0  0  0  0  0  0  0  0  0  0  0
  139.3460   79.2670  223.2450 C   0  0  0  0  0  0  0  0  0  0  0  0
  140.6040   79.8110  223.3410 C   0  0  0  0  0  0  0  0  0  0  0  0
  140.7860   81.0910  223.8060 C   0  0  0  0  0  0  0  0  0  0  0  0
  142.0660   81.5730  223.8770 C   0  0  0  0  0  0  0  0  0  0  0  0
  143.1330   80.7930  223.4930 C   0  0  0  0  0  0  0  0  0  0  0  0
  142.9670   79.4930  223.0180 C   0  0  0  0  0  0  0  0  0  0  0  0
  141.6800   79.0110  222.9480 C   0  0  0  0  0  0  0  0  0  0  0  0
  141.4640   77.7660  222.5000 N   0  0  0  0  0  0  0  0  0  0  0  0
  142.0070   75.6680  221.1630 H   0  0  0  0  0  0  0  0  0  0  0  0
  139.9351   73.4408  221.2847 H   0  0  0  0  0  0  0  0  0  0  0  0
  140.6923   73.8669  219.7009 H   0  0  0  0  0  0  0  0  0  0  0  0
  144.0150   71.1843  220.2872 H   0  0  0  0  0  0  0  0  0  0  0  0
  143.3998   71.8613  218.7772 H   0  0  0  0  0  0  0  0  0  0  0  0
  145.4235   73.0948  218.4142 H   0  0  0  0  0  0  0  0  0  0  0  0
  146.4710   71.5320  220.4880 H   0  0  0  0  0  0  0  0  0  0  0  0
  146.2320   74.4900  220.4275 H   0  0  0  0  0  0  0  0  0  0  0  0
  145.5180   72.0720  221.4890 H   0  0  0  0  0  0  0  0  0  0  0  0
  143.8922   75.1215  221.2745 H   0  0  0  0  0  0  0  0  0  0  0  0
  144.6329   75.4768  218.8007 H   0  0  0  0  0  0  0  0  0  0  0  0
  143.0893   74.3876  218.6705 H   0  0  0  0  0  0  0  0  0  0  0  0
  143.9374   77.7727  218.9802 H   0  0  0  0  0  0  0  0  0  0  0  0
  142.7302   77.1893  217.6623 H   0  0  0  0  0  0  0  0  0  0  0  0
  140.3723   76.9336  218.8876 H   0  0  0  0  0  0  0  0  0  0  0  0
  138.5701   78.4852  219.5327 H   0  0  0  0  0  0  0  0  0  0  0  0
  139.0805   80.8402  220.1227 H   0  0  0  0  0  0  0  0  0  0  0  0
  141.4385   81.6002  220.0534 H   0  0  0  0  0  0  0  0  0  0  0  0
  143.2331   80.0571  219.4182 H   0  0  0  0  0  0  0  0  0  0  0  0
  138.1529   77.5734  222.7127 H   0  0  0  0  0  0  0  0  0  0  0  0
  138.4709   79.8629  223.5437 H   0  0  0  0  0  0  0  0  0  0  0  0
  139.9296   81.7099  224.1120 H   0  0  0  0  0  0  0  0  0  0  0  0
  142.2432   82.5944  224.2449 H   0  0  0  0  0  0  0  0  0  0  0  0
  144.1490   81.2087  223.5631 H   0  0  0  0  0  0  0  0  0  0  0  0
  143.8272   78.8793  222.7125 H   0  0  0  0  0  0  0  0  0  0  0  0
  1  2  2  0
  2  3  1  0
  3  4  1  0
  4  5  1  0
  5  6  2  0
  5  7  1  0
  7  8  1  0
  8  9  1  0
  9 10  1  0
  9 11  1  0
 11 12  1  0
 11 13  1  0
 13 14  1  0
 14 15  1  0
 15 16  1  0
 16 17  1  0
 17 18  2  0
 18 19  1  0
 19 20  2  0
 20 21  1  0
 21 22  2  0
  2 23  1  0
 23 24  2  0
 24 25  1  0
 25 26  2  0
 26 27  1  0
 27 28  2  0
 28 29  1  0
 29 30  2  0
 30 31  1  0
 31 32  2  0
 13  7  1  0
 22 17  1  0
 32 23  1  0
 31 26  1  0
  3 33  1  0
  4 34  1  0
  4 35  1  0
  8 36  1  0
  8 37  1  0
  9 38  1  6
 10 39  1  0
 11 40  1  6
 12 41  1  0
 13 42  1  1
 14 43  1  0
 14 44  1  0
 16 45  1  0
 16 46  1  0
 18 47  1  0
 19 48  1  0
 20 49  1  0
 21 50  1  0
 22 51  1  0
 24 52  1  0
 25 53  1  0
 27 54  1  0
 28 55  1  0
 29 56  1  0
 30 57  1  0
M  END
>  <smiles>  (27) 
O=C(NCC(=O)N1C[C@H](O)[C@H](O)[C@H]1COCc1ccccc1)c1ccc2ccccc2n1

>  <score_type>  (27) 
oracle

>  <origin>  (27) 
autodockgpu

>  <m_score__min__energy>  (27) 
-9.0299999999999994

>  <m_primary>  (27) 
energy

>  <rmsd>  (27) 
7.658501208053274

>  <m_score__min__rmsd>  (27) 
7.658501208053274

>  <meeko>  (27) 
{"free_energy": -7.66, "intermolecular_energy": -10.64, "internal_energy": -5.21, "cluster_size": 34, "cluster_id": 5, "rank_in_cluster": 13}

>  <energy>  (27) 
-7.66

>  <cluster_rmsd>  (27) 
0.55

>  <cluster>  (27) 
5

$$$$

     RDKit          3D

 57 60  0  0  0  0  0  0  0  0999 V2000
  138.9530   75.0850  222.1820 O   0  0  0  0  0  0  0  0  0  0  0  0
  140.0790   75.6430  222.0720 C   0  0  0  0  0  0  0  0  0  0  0  0
  141.2070   74.9300  221.5930 N   0  0  0  0  0  0  0  0  0  0  0  0
  141.0130   73.5400  221.2360 C   0  0  0  0  0  0  0  0  0  0  0  0
  141.7580   73.2040  219.9820 C   0  0  0  0  0  0  0  0  0  0  0  0
  141.1610   72.7360  218.9790 O   0  0  0  0  0  0  0  0  0  0  0  0
  143.1410   73.4030  219.8970 N   0  0  0  0  0  0  0  0  0  0  0  0
  144.0080   72.7370  218.9480 C   0  0  0  0  0  0  0  0  0  0  0  0
  145.4220   73.0860  219.3890 C   0  0  2  0  0  0  0  0  0  0  0  0
  146.3030   72.0290  219.2570 O   0  0  0  0  0  0  0  0  0  0  0  0
  145.1980   73.4850  220.8490 C   0  0  2  0  0  0  0  0  0  0  0  0
  144.8230   72.2840  221.4870 O   0  0  0  0  0  0  0  0  0  0  0  0
  143.9490   74.3160  220.7460 C   0  0  1  0  0  0  0  0  0  0  0  0
  144.0720   75.6090  220.0040 C   0  0  0  0  0  0  0  0  0  0  0  0
  143.0340   76.3780  219.7870 O   0  0  0  0  0  0  0  0  0  0  0  0
  142.6100   77.0510  218.7430 C   0  0  0  0  0  0  0  0  0  0  0  0
  142.2880   78.4810  218.8700 C   0  0  0  0  0  0  0  0  0  0  0  0
  142.8890   79.3350  217.9340 C   0  0  0  0  0  0  0  0  0  0  0  0
  142.6450   80.6970  217.9450 C   0  0  0  0  0  0  0  0  0  0  0  0
  141.8050   81.2560  218.8750 C   0  0  0  0  0  0  0  0  0  0  0  0
  141.2150   80.4260  219.7920 C   0  0  0  0  0  0  0  0  0  0  0  0
  141.4610   79.0680  219.7770 C   0  0  0  0  0  0  0  0  0  0  0  0
  140.2390   77.0440  222.4420 C   0  0  0  0  0  0  0  0  0  0  0  0
  139.1290   77.8330  222.6480 C   0  0  0  0  0  0  0  0  0  0  0  0
  139.2470   79.1570  222.9960 C   0  0  0  0  0  0  0  0  0  0  0  0
  140.4850   79.7330  223.1480 C   0  0  0  0  0  0  0  0  0  0  0  0
  140.6100   81.0570  223.4960 C   0  0  0  0  0  0  0  0  0  0  0  0
  141.8730   81.5690  223.6320 C   0  0  0  0  0  0  0  0  0  0  0  0
  142.9790   80.7760  223.4240 C   0  0  0  0  0  0  0  0  0  0  0  0
  142.8720   79.4320  223.0700 C   0  0  0  0  0  0  0  0  0  0  0  0
  141.6010   78.9200  222.9350 C   0  0  0  0  0  0  0  0  0  0  0  0
  141.4410   77.6330  222.5970 N   0  0  0  0  0  0  0  0  0  0  0  0
  142.1230   75.4280  221.5170 H   0  0  0  0  0  0  0  0  0  0  0  0
  141.3792   72.9030  222.0546 H   0  0  0  0  0  0  0  0  0  0  0  0
  139.9402   73.3662  221.0659 H   0  0  0  0  0  0  0  0  0  0  0  0
  143.8513   71.6487  218.9797 H   0  0  0  0  0  0  0  0  0  0  0  0
  143.8086   73.0554  217.9141 H   0  0  0  0  0  0  0  0  0  0  0  0
  145.8917   73.8718  218.7792 H   0  0  0  0  0  0  0  0  0  0  0  0
  146.2690   71.4680  220.0950 H   0  0  0  0  0  0  0  0  0  0  0  0
  146.0398   73.9808  221.3545 H   0  0  0  0  0  0  0  0  0  0  0  0
  145.4780   71.5840  221.2160 H   0  0  0  0  0  0  0  0  0  0  0  0
  143.5824   74.6168  221.7385 H   0  0  0  0  0  0  0  0  0  0  0  0
  144.7977   76.2186  220.5623 H   0  0  0  0  0  0  0  0  0  0  0  0
  144.3323   75.2737  218.9892 H   0  0  0  0  0  0  0  0  0  0  0  0
  143.3917   76.9688  217.9735 H   0  0  0  0  0  0  0  0  0  0  0  0
  141.6349   76.5910  218.5250 H   0  0  0  0  0  0  0  0  0  0  0  0
  143.5671   78.9143  217.1769 H   0  0  0  0  0  0  0  0  0  0  0  0
  143.1314   81.3409  217.1975 H   0  0  0  0  0  0  0  0  0  0  0  0
  141.6109   82.3387  218.8841 H   0  0  0  0  0  0  0  0  0  0  0  0
  140.5372   80.8471  220.5491 H   0  0  0  0  0  0  0  0  0  0  0  0
  140.9683   78.4343  220.5291 H   0  0  0  0  0  0  0  0  0  0  0  0
  138.1271   77.3940  222.5315 H   0  0  0  0  0  0  0  0  0  0  0  0
  138.3417   79.7615  223.1544 H   0  0  0  0  0  0  0  0  0  0  0  0
  139.7227   81.6861  223.6602 H   0  0  0  0  0  0  0  0  0  0  0  0
  142.0051   82.6250  223.9104 H   0  0  0  0  0  0  0  0  0  0  0  0
  143.9798   81.2174  223.5410 H   0  0  0  0  0  0  0  0  0  0  0  0
  143.7631   78.8083  222.9059 H   0  0  0  0  0  0  0  0  0  0  0  0
  1  2  2  0
  2  3  1  0
  3  4  1  0
  4  5  1  0
  5  6  2  0
  5  7  1  0
  7  8  1  0
  8  9  1  0
  9 10  1  0
  9 11  1  0
 11 12  1  0
 11 13  1  0
 13 14  1  0
 14 15  1  0
 15 16  1  0
 16 17  1  0
 17 18  2  0
 18 19  1  0
 19 20  2  0
 20 21  1  0
 21 22  2  0
  2 23  1  0
 23 24  2  0
 24 25  1  0
 25 26  2  0
 26 27  1  0
 27 28  2  0
 28 29  1  0
 29 30  2  0
 30 31  1  0
 31 32  2  0
 13  7  1  0
 22 17  1  0
 32 23  1  0
 31 26  1  0
  3 33  1  0
  4 34  1  0
  4 35  1  0
  8 36  1  0
  8 37  1  0
  9 38  1  6
 10 39  1  0
 11 40  1  1
 12 41  1  0
 13 42  1  1
 14 43  1  0
 14 44  1  0
 16 45  1  0
 16 46  1  0
 18 47  1  0
 19 48  1  0
 20 49  1  0
 21 50  1  0
 22 51  1  0
 24 52  1  0
 25 53  1  0
 27 54  1  0
 28 55  1  0
 29 56  1  0
 30 57  1  0
M  END
>  <smiles>  (28) 
O=C(NCC(=O)N1C[C@H](O)[C@H](O)[C@H]1COCc1ccccc1)c1ccc2ccccc2n1

>  <score_type>  (28) 
oracle

>  <origin>  (28) 
autodockgpu

>  <m_score__min__energy>  (28) 
-9.0299999999999994

>  <m_primary>  (28) 
energy

>  <rmsd>  (28) 
7.620688873368315

>  <m_score__min__rmsd>  (28) 
7.620688873368315

>  <meeko>  (28) 
{"free_energy": -7.55, "intermolecular_energy": -10.53, "internal_energy": -4.77, "cluster_size": 34, "cluster_id": 5, "rank_in_cluster": 24}

>  <energy>  (28) 
-7.66

>  <cluster_rmsd>  (28) 
0.55

>  <cluster>  (28) 
5

$$$$

     RDKit          3D

 57 60  0  0  0  0  0  0  0  0999 V2000
  138.8400   75.3440  221.9710 O   0  0  0  0  0  0  0  0  0  0  0  0
  139.9930   75.8550  221.9010 C   0  0  0  0  0  0  0  0  0  0  0  0
  141.0810   75.1320  221.3510 N   0  0  0  0  0  0  0  0  0  0  0  0
  140.8170   73.7900  220.8750 C   0  0  0  0  0  0  0  0  0  0  0  0
  141.9820   72.8900  221.1460 C   0  0  0  0  0  0  0  0  0  0  0  0
  141.8760   71.9100  221.9270 O   0  0  0  0  0  0  0  0  0  0  0  0
  143.2200   73.1200  220.5360 N   0  0  0  0  0  0  0  0  0  0  0  0
  143.9230   72.1560  219.7180 C   0  0  0  0  0  0  0  0  0  0  0  0
  145.2990   72.7600  219.4830 C   0  0  2  0  0  0  0  0  0  0  0  0
  146.3130   71.8200  219.5140 O   0  0  0  0  0  0  0  0  0  0  0  0
  145.3940   73.7630  220.6340 C   0  0  2  0  0  0  0  0  0  0  0  0
  145.4580   72.9630  221.7930 O   0  0  0  0  0  0  0  0  0  0  0  0
  144.0190   74.3710  220.6160 C   0  0  1  0  0  0  0  0  0  0  0  0
  143.6700   75.1900  219.4150 C   0  0  0  0  0  0  0  0  0  0  0  0
  142.9970   76.3100  219.5170 O   0  0  0  0  0  0  0  0  0  0  0  0
  142.8950   77.3760  218.7590 C   0  0  0  0  0  0  0  0  0  0  0  0
  141.9340   78.4350  219.1030 C   0  0  0  0  0  0  0  0  0  0  0  0
  140.5900   78.0460  219.1930 C   0  0  0  0  0  0  0  0  0  0  0  0
  139.6000   78.9520  219.5270 C   0  0  0  0  0  0  0  0  0  0  0  0
  139.9040   80.2660  219.7810 C   0  0  0  0  0  0  0  0  0  0  0  0
  141.2160   80.6530  219.6940 C   0  0  0  0  0  0  0  0  0  0  0  0
  142.2000   79.7450  219.3620 C   0  0  0  0  0  0  0  0  0  0  0  0
  140.2240   77.2080  222.3900 C   0  0  0  0  0  0  0  0  0  0  0  0
  139.1590   77.9930  222.7750 C   0  0  0  0  0  0  0  0  0  0  0  0
  139.3440   79.2720  223.2380 C   0  0  0  0  0  0  0  0  0  0  0  0
  140.6060   79.8070  223.3320 C   0  0  0  0  0  0  0  0  0  0  0  0
  140.7980   81.0870  223.7960 C   0  0  0  0  0  0  0  0  0  0  0  0
  142.0820   81.5590  223.8650 C   0  0  0  0  0  0  0  0  0  0  0  0
  143.1430   80.7710  223.4800 C   0  0  0  0  0  0  0  0  0  0  0  0
  142.9670   79.4720  223.0060 C   0  0  0  0  0  0  0  0  0  0  0  0
  141.6760   78.9990  222.9380 C   0  0  0  0  0  0  0  0  0  0  0  0
  141.4500   77.7560  222.4920 N   0  0  0  0  0  0  0  0  0  0  0  0
  142.0210   75.5890  221.3100 H   0  0  0  0  0  0  0  0  0  0  0  0
  139.9284   73.3938  221.3882 H   0  0  0  0  0  0  0  0  0  0  0  0
  140.6471   73.8287  219.7889 H   0  0  0  0  0  0  0  0  0  0  0  0
  144.0089   71.1937  220.2439 H   0  0  0  0  0  0  0  0  0  0  0  0
  143.3954   71.9556  218.7738 H   0  0  0  0  0  0  0  0  0  0  0  0
  145.4163   73.2114  218.4868 H   0  0  0  0  0  0  0  0  0  0  0  0
  146.4680   71.5380  220.4700 H   0  0  0  0  0  0  0  0  0  0  0  0
  146.2192   74.4886  220.5829 H   0  0  0  0  0  0  0  0  0  0  0  0
  145.5090   72.0120  221.4980 H   0  0  0  0  0  0  0  0  0  0  0  0
  143.8761   75.0656  221.4569 H   0  0  0  0  0  0  0  0  0  0  0  0
  144.6223   75.4447  218.9269 H   0  0  0  0  0  0  0  0  0  0  0  0
  142.9603   74.5378  218.8849 H   0  0  0  0  0  0  0  0  0  0  0  0
  143.8896   77.8453  218.7359 H   0  0  0  0  0  0  0  0  0  0  0  0
  142.5018   76.9761  217.8127 H   0  0  0  0  0  0  0  0  0  0  0  0
  140.3175   76.9990  218.9939 H   0  0  0  0  0  0  0  0  0  0  0  0
  138.5548   78.6149  219.5899 H   0  0  0  0  0  0  0  0  0  0  0  0
  139.1175   80.9877  220.0467 H   0  0  0  0  0  0  0  0  0  0  0  0
  141.4876   81.7005  219.8913 H   0  0  0  0  0  0  0  0  0  0  0  0
  143.2418   80.0934  219.3042 H   0  0  0  0  0  0  0  0  0  0  0  0
  138.1391   77.5862  222.7099 H   0  0  0  0  0  0  0  0  0  0  0  0
  138.4734   79.8744  223.5367 H   0  0  0  0  0  0  0  0  0  0  0  0
  139.9467   81.7127  224.1024 H   0  0  0  0  0  0  0  0  0  0  0  0
  142.2674   82.5792  224.2322 H   0  0  0  0  0  0  0  0  0  0  0  0
  144.1621   81.1794  223.5486 H   0  0  0  0  0  0  0  0  0  0  0  0
  143.8224   78.8519  222.6996 H   0  0  0  0  0  0  0  0  0  0  0  0
  1  2  2  0
  2  3  1  0
  3  4  1  0
  4  5  1  0
  5  6  2  0
  5  7  1  0
  7  8  1  0
  8  9  1  0
  9 10  1  0
  9 11  1  0
 11 12  1  0
 11 13  1  0
 13 14  1  0
 14 15  1  0
 15 16  1  0
 16 17  1  0
 17 18  2  0
 18 19  1  0
 19 20  2  0
 20 21  1  0
 21 22  2  0
  2 23  1  0
 23 24  2  0
 24 25  1  0
 25 26  2  0
 26 27  1  0
 27 28  2  0
 28 29  1  0
 29 30  2  0
 30 31  1  0
 31 32  2  0
 13  7  1  0
 22 17  1  0
 32 23  1  0
 31 26  1  0
  3 33  1  0
  4 34  1  0
  4 35  1  0
  8 36  1  0
  8 37  1  0
  9 38  1  6
 10 39  1  0
 11 40  1  6
 12 41  1  0
 13 42  1  1
 14 43  1  0
 14 44  1  0
 16 45  1  0
 16 46  1  0
 18 47  1  0
 19 48  1  0
 20 49  1  0
 21 50  1  0
 22 51  1  0
 24 52  1  0
 25 53  1  0
 27 54  1  0
 28 55  1  0
 29 56  1  0
 30 57  1  0
M  END
>  <smiles>  (29) 
O=C(NCC(=O)N1C[C@H](O)[C@H](O)[C@H]1COCc1ccccc1)c1ccc2ccccc2n1

>  <score_type>  (29) 
oracle

>  <origin>  (29) 
autodockgpu

>  <m_score__min__energy>  (29) 
-9.0299999999999994

>  <m_primary>  (29) 
energy

>  <rmsd>  (29) 
7.6554378253995985

>  <m_score__min__rmsd>  (29) 
7.6554378253995985

>  <meeko>  (29) 
{"free_energy": -7.67, "intermolecular_energy": -10.65, "internal_energy": -5.22, "cluster_size": 34, "cluster_id": 5, "rank_in_cluster": 12}

>  <energy>  (29) 
-7.65

>  <cluster_rmsd>  (29) 
0.68

>  <cluster>  (29) 
5

$$$$

     RDKit          3D

 57 60  0  0  0  0  0  0  0  0999 V2000
  139.4410   74.6980  222.5470 O   0  0  0  0  0  0  0  0  0  0  0  0
  140.1460   75.5210  221.9010 C   0  0  0  0  0  0  0  0  0  0  0  0
  140.8330   75.1320  220.7230 N   0  0  0  0  0  0  0  0  0  0  0  0
  140.6920   73.7550  220.2950 C   0  0  0  0  0  0  0  0  0  0  0  0
  141.8590   72.9350  220.7510 C   0  0  0  0  0  0  0  0  0  0  0  0
  141.7000   71.9610  221.5310 O   0  0  0  0  0  0  0  0  0  0  0  0
  143.1550   73.2340  220.3190 N   0  0  0  0  0  0  0  0  0  0  0  0
  143.9170   72.4260  219.3910 C   0  0  0  0  0  0  0  0  0  0  0  0
  145.3220   73.0110  219.4140 C   0  0  2  0  0  0  0  0  0  0  0  0
  146.3080   72.0450  219.3480 O   0  0  0  0  0  0  0  0  0  0  0  0
  145.3200   73.7590  220.7470 C   0  0  2  0  0  0  0  0  0  0  0  0
  145.2540   72.7410  221.7210 O   0  0  0  0  0  0  0  0  0  0  0  0
  143.9650   74.4120  220.7250 C   0  0  1  0  0  0  0  0  0  0  0  0
  143.7540   75.4670  219.6870 C   0  0  0  0  0  0  0  0  0  0  0  0
  142.8880   75.3130  218.7160 O   0  0  0  0  0  0  0  0  0  0  0  0
  142.1250   76.1430  218.0450 C   0  0  0  0  0  0  0  0  0  0  0  0
  142.1440   77.5800  218.3590 C   0  0  0  0  0  0  0  0  0  0  0  0
  141.2450   78.0100  219.3460 C   0  0  0  0  0  0  0  0  0  0  0  0
  141.1870   79.3350  219.7360 C   0  0  0  0  0  0  0  0  0  0  0  0
  142.0100   80.2750  219.1670 C   0  0  0  0  0  0  0  0  0  0  0  0
  142.8900   79.8610  218.2020 C   0  0  0  0  0  0  0  0  0  0  0  0
  142.9450   78.5380  217.8170 C   0  0  0  0  0  0  0  0  0  0  0  0
  140.2660   76.9000  222.3600 C   0  0  0  0  0  0  0  0  0  0  0  0
  139.1350   77.6220  222.6730 C   0  0  0  0  0  0  0  0  0  0  0  0
  139.2160   78.9230  223.1070 C   0  0  0  0  0  0  0  0  0  0  0  0
  140.4350   79.5420  223.2430 C   0  0  0  0  0  0  0  0  0  0  0  0
  140.5220   80.8430  223.6770 C   0  0  0  0  0  0  0  0  0  0  0  0
  141.7670   81.4000  223.7900 C   0  0  0  0  0  0  0  0  0  0  0  0
  142.8940   80.6730  223.4770 C   0  0  0  0  0  0  0  0  0  0  0  0
  142.8250   79.3540  223.0350 C   0  0  0  0  0  0  0  0  0  0  0  0
  141.5720   78.7960  222.9220 C   0  0  0  0  0  0  0  0  0  0  0  0
  141.4480   77.5290  222.5010 N   0  0  0  0  0  0  0  0  0  0  0  0
  141.4070   75.8430  220.2160 H   0  0  0  0  0  0  0  0  0  0  0  0
  139.7685   73.3371  220.7223 H   0  0  0  0  0  0  0  0  0  0  0  0
  140.6507   73.7295  219.1961 H   0  0  0  0  0  0  0  0  0  0  0  0
  143.9312   71.3752  219.7159 H   0  0  0  0  0  0  0  0  0  0  0  0
  143.4822   72.4395  218.3807 H   0  0  0  0  0  0  0  0  0  0  0  0
  145.5482   73.6480  218.5462 H   0  0  0  0  0  0  0  0  0  0  0  0
  146.3800   71.5890  220.2450 H   0  0  0  0  0  0  0  0  0  0  0  0
  146.1594   74.4483  220.9210 H   0  0  0  0  0  0  0  0  0  0  0  0
  145.3020   71.8680  221.2440 H   0  0  0  0  0  0  0  0  0  0  0  0
  143.7518   74.9297  221.6718 H   0  0  0  0  0  0  0  0  0  0  0  0
  143.4547   76.3773  220.2272 H   0  0  0  0  0  0  0  0  0  0  0  0
  144.7133   75.4618  219.1488 H   0  0  0  0  0  0  0  0  0  0  0  0
  142.4057   76.0461  216.9858 H   0  0  0  0  0  0  0  0  0  0  0  0
  141.1078   75.8363  218.3299 H   0  0  0  0  0  0  0  0  0  0  0  0
  140.5730   77.2787  219.8189 H   0  0  0  0  0  0  0  0  0  0  0  0
  140.4712   79.6405  220.5133 H   0  0  0  0  0  0  0  0  0  0  0  0
  141.9642   81.3295  219.4768 H   0  0  0  0  0  0  0  0  0  0  0  0
  143.5609   80.5929  217.7285 H   0  0  0  0  0  0  0  0  0  0  0  0
  143.6660   78.2446  217.0398 H   0  0  0  0  0  0  0  0  0  0  0  0
  138.1477   77.1474  222.5734 H   0  0  0  0  0  0  0  0  0  0  0  0
  138.2954   79.4747  223.3481 H   0  0  0  0  0  0  0  0  0  0  0  0
  139.6186   81.4191  223.9260 H   0  0  0  0  0  0  0  0  0  0  0  0
  141.8686   82.4397  224.1346 H   0  0  0  0  0  0  0  0  0  0  0  0
  143.8802   81.1493  223.5794 H   0  0  0  0  0  0  0  0  0  0  0  0
  143.7321   78.7833  222.7871 H   0  0  0  0  0  0  0  0  0  0  0  0
  1  2  2  0
  2  3  1  0
  3  4  1  0
  4  5  1  0
  5  6  2  0
  5  7  1  0
  7  8  1  0
  8  9  1  0
  9 10  1  0
  9 11  1  0
 11 12  1  0
 11 13  1  0
 13 14  1  0
 14 15  1  0
 15 16  1  0
 16 17  1  0
 17 18  2  0
 18 19  1  0
 19 20  2  0
 20 21  1  0
 21 22  2  0
  2 23  1  0
 23 24  2  0
 24 25  1  0
 25 26  2  0
 26 27  1  0
 27 28  2  0
 28 29  1  0
 29 30  2  0
 30 31  1  0
 31 32  2  0
 13  7  1  0
 22 17  1  0
 32 23  1  0
 31 26  1  0
  3 33  1  0
  4 34  1  0
  4 35  1  0
  8 36  1  0
  8 37  1  0
  9 38  1  6
 10 39  1  0
 11 40  1  1
 12 41  1  0
 13 42  1  1
 14 43  1  0
 14 44  1  0
 16 45  1  0
 16 46  1  0
 18 47  1  0
 19 48  1  0
 20 49  1  0
 21 50  1  0
 22 51  1  0
 24 52  1  0
 25 53  1  0
 27 54  1  0
 28 55  1  0
 29 56  1  0
 30 57  1  0
M  END
>  <smiles>  (30) 
O=C(NCC(=O)N1C[C@H](O)[C@H](O)[C@H]1COCc1ccccc1)c1ccc2ccccc2n1

>  <score_type>  (30) 
oracle

>  <origin>  (30) 
autodockgpu

>  <m_score__min__energy>  (30) 
-9.0299999999999994

>  <m_primary>  (30) 
energy

>  <rmsd>  (30) 
7.482720297279571

>  <m_score__min__rmsd>  (30) 
7.482720297279571

>  <meeko>  (30) 
{"free_energy": -7.59, "intermolecular_energy": -10.58, "internal_energy": -4.81, "cluster_size": 34, "cluster_id": 5, "rank_in_cluster": 21}

>  <energy>  (30) 
-7.65

>  <cluster_rmsd>  (30) 
0.49

>  <cluster>  (30) 
5

$$$$

     RDKit          3D

 57 60  0  0  0  0  0  0  0  0999 V2000
  138.8610   75.2940  222.0650 O   0  0  0  0  0  0  0  0  0  0  0  0
  139.9930   75.8350  221.9300 C   0  0  0  0  0  0  0  0  0  0  0  0
  141.0680   75.1420  221.3170 N   0  0  0  0  0  0  0  0  0  0  0  0
  140.8130   73.7930  220.8560 C   0  0  0  0  0  0  0  0  0  0  0  0
  141.9790   72.9000  221.1510 C   0  0  0  0  0  0  0  0  0  0  0  0
  141.8680   71.9330  221.9460 O   0  0  0  0  0  0  0  0  0  0  0  0
  143.2210   73.1240  220.5470 N   0  0  0  0  0  0  0  0  0  0  0  0
  143.9190   72.1580  219.7260 C   0  0  0  0  0  0  0  0  0  0  0  0
  145.3010   72.7520  219.5000 C   0  0  2  0  0  0  0  0  0  0  0  0
  146.3070   71.8040  219.5300 O   0  0  0  0  0  0  0  0  0  0  0  0
  145.3990   73.7490  220.6560 C   0  0  2  0  0  0  0  0  0  0  0  0
  145.4520   72.9420  221.8110 O   0  0  0  0  0  0  0  0  0  0  0  0
  144.0280   74.3680  220.6360 C   0  0  1  0  0  0  0  0  0  0  0  0
  143.6910   75.1960  219.4380 C   0  0  0  0  0  0  0  0  0  0  0  0
  143.1640   76.3890  219.5530 O   0  0  0  0  0  0  0  0  0  0  0  0
  142.0820   76.9510  219.0670 C   0  0  0  0  0  0  0  0  0  0  0  0
  141.9390   78.4150  219.0860 C   0  0  0  0  0  0  0  0  0  0  0  0
  142.8030   79.1310  218.2460 C   0  0  0  0  0  0  0  0  0  0  0  0
  142.7470   80.5110  218.1670 C   0  0  0  0  0  0  0  0  0  0  0  0
  141.8410   81.2240  218.9130 C   0  0  0  0  0  0  0  0  0  0  0  0
  140.9940   80.5290  219.7350 C   0  0  0  0  0  0  0  0  0  0  0  0
  141.0530   79.1530  219.8090 C   0  0  0  0  0  0  0  0  0  0  0  0
  140.2160   77.1940  222.4060 C   0  0  0  0  0  0  0  0  0  0  0  0
  139.1420   77.9900  222.7410 C   0  0  0  0  0  0  0  0  0  0  0  0
  139.3200   79.2760  223.1920 C   0  0  0  0  0  0  0  0  0  0  0  0
  140.5810   79.8050  223.3230 C   0  0  0  0  0  0  0  0  0  0  0  0
  140.7640   81.0900  223.7740 C   0  0  0  0  0  0  0  0  0  0  0  0
  142.0470   81.5560  223.8810 C   0  0  0  0  0  0  0  0  0  0  0  0
  143.1160   80.7560  223.5450 C   0  0  0  0  0  0  0  0  0  0  0  0
  142.9490   79.4510  223.0860 C   0  0  0  0  0  0  0  0  0  0  0  0
  141.6580   78.9850  222.9790 C   0  0  0  0  0  0  0  0  0  0  0  0
  141.4410   77.7360  222.5430 N   0  0  0  0  0  0  0  0  0  0  0  0
  141.9910   75.6240  221.2240 H   0  0  0  0  0  0  0  0  0  0  0  0
  139.9205   73.4006  221.3653 H   0  0  0  0  0  0  0  0  0  0  0  0
  140.6539   73.8167  219.7678 H   0  0  0  0  0  0  0  0  0  0  0  0
  143.9947   71.1920  220.2468 H   0  0  0  0  0  0  0  0  0  0  0  0
  143.3934   71.9670  218.7787 H   0  0  0  0  0  0  0  0  0  0  0  0
  145.4264   73.2073  218.5065 H   0  0  0  0  0  0  0  0  0  0  0  0
  146.4540   71.5140  220.4850 H   0  0  0  0  0  0  0  0  0  0  0  0
  146.2296   74.4688  220.6116 H   0  0  0  0  0  0  0  0  0  0  0  0
  145.4930   71.9920  221.5110 H   0  0  0  0  0  0  0  0  0  0  0  0
  143.8861   75.0594  221.4797 H   0  0  0  0  0  0  0  0  0  0  0  0
  144.6284   75.3245  218.8770 H   0  0  0  0  0  0  0  0  0  0  0  0
  142.8731   74.6216  218.9785 H   0  0  0  0  0  0  0  0  0  0  0  0
  142.0078   76.6388  218.0149 H   0  0  0  0  0  0  0  0  0  0  0  0
  141.2922   76.6119  219.7534 H   0  0  0  0  0  0  0  0  0  0  0  0
  143.5396   78.5852  217.6381 H   0  0  0  0  0  0  0  0  0  0  0  0
  143.4377   81.0445  217.4974 H   0  0  0  0  0  0  0  0  0  0  0  0
  141.7968   82.3214  218.8522 H   0  0  0  0  0  0  0  0  0  0  0  0
  140.2579   81.0748  220.3434 H   0  0  0  0  0  0  0  0  0  0  0  0
  140.3553   78.6306  220.4800 H   0  0  0  0  0  0  0  0  0  0  0  0
  138.1224   77.5882  222.6456 H   0  0  0  0  0  0  0  0  0  0  0  0
  138.4435   79.8881  223.4508 H   0  0  0  0  0  0  0  0  0  0  0  0
  139.9062   81.7247  224.0409 H   0  0  0  0  0  0  0  0  0  0  0  0
  142.2256   82.5806  224.2393 H   0  0  0  0  0  0  0  0  0  0  0  0
  144.1345   81.1600  223.6420 H   0  0  0  0  0  0  0  0  0  0  0  0
  143.8108   78.8209  222.8208 H   0  0  0  0  0  0  0  0  0  0  0  0
  1  2  2  0
  2  3  1  0
  3  4  1  0
  4  5  1  0
  5  6  2  0
  5  7  1  0
  7  8  1  0
  8  9  1  0
  9 10  1  0
  9 11  1  0
 11 12  1  0
 11 13  1  0
 13 14  1  0
 14 15  1  0
 15 16  1  0
 16 17  1  0
 17 18  2  0
 18 19  1  0
 19 20  2  0
 20 21  1  0
 21 22  2  0
  2 23  1  0
 23 24  2  0
 24 25  1  0
 25 26  2  0
 26 27  1  0
 27 28  2  0
 28 29  1  0
 29 30  2  0
 30 31  1  0
 31 32  2  0
 13  7  1  0
 22 17  1  0
 32 23  1  0
 31 26  1  0
  3 33  1  0
  4 34  1  0
  4 35  1  0
  8 36  1  0
  8 37  1  0
  9 38  1  6
 10 39  1  0
 11 40  1  6
 12 41  1  0
 13 42  1  1
 14 43  1  0
 14 44  1  0
 16 45  1  0
 16 46  1  0
 18 47  1  0
 19 48  1  0
 20 49  1  0
 21 50  1  0
 22 51  1  0
 24 52  1  0
 25 53  1  0
 27 54  1  0
 28 55  1  0
 29 56  1  0
 30 57  1  0
M  END
>  <smiles>  (31) 
O=C(NCC(=O)N1C[C@H](O)[C@H](O)[C@H]1COCc1ccccc1)c1ccc2ccccc2n1

>  <score_type>  (31) 
oracle

>  <origin>  (31) 
autodockgpu

>  <m_score__min__energy>  (31) 
-9.0299999999999994

>  <m_primary>  (31) 
energy

>  <rmsd>  (31) 
7.648727497687696

>  <m_score__min__rmsd>  (31) 
7.648727497687696

>  <meeko>  (31) 
{"free_energy": -8.1, "intermolecular_energy": -11.08, "internal_energy": -4.77, "cluster_size": 34, "cluster_id": 5, "rank_in_cluster": 2}

>  <energy>  (31) 
-7.64

>  <cluster_rmsd>  (31) 
0.6

>  <cluster>  (31) 
5

$$$$

     RDKit          3D

 57 60  0  0  0  0  0  0  0  0999 V2000
  138.8350   75.3380  221.8910 O   0  0  0  0  0  0  0  0  0  0  0  0
  139.9870   75.8520  221.8530 C   0  0  0  0  0  0  0  0  0  0  0  0
  141.0920   75.1350  221.3300 N   0  0  0  0  0  0  0  0  0  0  0  0
  140.8450   73.7940  220.8430 C   0  0  0  0  0  0  0  0  0  0  0  0
  142.0080   72.8980  221.1370 C   0  0  0  0  0  0  0  0  0  0  0  0
  141.8820   71.8980  221.8880 O   0  0  0  0  0  0  0  0  0  0  0  0
  143.2660   73.1550  220.5810 N   0  0  0  0  0  0  0  0  0  0  0  0
  143.9610   72.2630  219.6770 C   0  0  0  0  0  0  0  0  0  0  0  0
  145.3590   72.8480  219.5380 C   0  0  2  0  0  0  0  0  0  0  0  0
  146.3450   71.8800  219.4870 O   0  0  0  0  0  0  0  0  0  0  0  0
  145.4540   73.7170  220.7920 C   0  0  2  0  0  0  0  0  0  0  0  0
  145.4680   72.7950  221.8590 O   0  0  0  0  0  0  0  0  0  0  0  0
  144.0970   74.3650  220.8130 C   0  0  1  0  0  0  0  0  0  0  0  0
  143.8000   75.3190  219.7000 C   0  0  0  0  0  0  0  0  0  0  0  0
  142.5890   75.4630  219.2220 O   0  0  0  0  0  0  0  0  0  0  0  0
  142.0550   76.2740  218.3390 C   0  0  0  0  0  0  0  0  0  0  0  0
  141.6130   77.6170  218.7450 C   0  0  0  0  0  0  0  0  0  0  0  0
  142.5660   78.6400  218.6420 C   0  0  0  0  0  0  0  0  0  0  0  0
  142.2580   79.9460  218.9780 C   0  0  0  0  0  0  0  0  0  0  0  0
  141.0040   80.2820  219.4250 C   0  0  0  0  0  0  0  0  0  0  0  0
  140.0690   79.2870  219.5270 C   0  0  0  0  0  0  0  0  0  0  0  0
  140.3800   77.9860  219.1900 C   0  0  0  0  0  0  0  0  0  0  0  0
  140.2000   77.2050  222.3530 C   0  0  0  0  0  0  0  0  0  0  0  0
  139.1230   77.9840  222.7110 C   0  0  0  0  0  0  0  0  0  0  0  0
  139.2910   79.2630  223.1840 C   0  0  0  0  0  0  0  0  0  0  0  0
  140.5490   79.8020  223.3130 C   0  0  0  0  0  0  0  0  0  0  0  0
  140.7240   81.0800  223.7860 C   0  0  0  0  0  0  0  0  0  0  0  0
  142.0040   81.5570  223.8900 C   0  0  0  0  0  0  0  0  0  0  0  0
  143.0770   80.7730  223.5310 C   0  0  0  0  0  0  0  0  0  0  0  0
  142.9180   79.4750  223.0490 C   0  0  0  0  0  0  0  0  0  0  0  0
  141.6310   78.9990  222.9450 C   0  0  0  0  0  0  0  0  0  0  0  0
  141.4220   77.7560  222.4890 N   0  0  0  0  0  0  0  0  0  0  0  0
  142.0310   75.5950  221.3160 H   0  0  0  0  0  0  0  0  0  0  0  0
  139.9468   73.3918  221.3344 H   0  0  0  0  0  0  0  0  0  0  0  0
  140.6995   73.8362  219.7535 H   0  0  0  0  0  0  0  0  0  0  0  0
  144.0076   71.2473  220.0968 H   0  0  0  0  0  0  0  0  0  0  0  0
  143.4505   72.1810  218.7061 H   0  0  0  0  0  0  0  0  0  0  0  0
  145.5128   73.4014  218.5998 H   0  0  0  0  0  0  0  0  0  0  0  0
  146.4880   71.5110  220.4150 H   0  0  0  0  0  0  0  0  0  0  0  0
  146.3001   74.4185  220.8361 H   0  0  0  0  0  0  0  0  0  0  0  0
  145.4780   71.8800  221.4630 H   0  0  0  0  0  0  0  0  0  0  0  0
  143.9534   74.9684  221.7214 H   0  0  0  0  0  0  0  0  0  0  0  0
  144.1138   76.3127  220.0522 H   0  0  0  0  0  0  0  0  0  0  0  0
  144.3339   74.8641  218.8526 H   0  0  0  0  0  0  0  0  0  0  0  0
  142.8016   76.4127  217.5432 H   0  0  0  0  0  0  0  0  0  0  0  0
  141.1152   75.7699  218.0693 H   0  0  0  0  0  0  0  0  0  0  0  0
  143.5789   78.3993  218.2869 H   0  0  0  0  0  0  0  0  0  0  0  0
  143.0282   80.7260  218.8858 H   0  0  0  0  0  0  0  0  0  0  0  0
  140.7578   81.3200  219.6933 H   0  0  0  0  0  0  0  0  0  0  0  0
  139.0563   79.5283  219.8824 H   0  0  0  0  0  0  0  0  0  0  0  0
  139.6006   77.2155  219.2846 H   0  0  0  0  0  0  0  0  0  0  0  0
  138.1067   77.5740  222.6164 H   0  0  0  0  0  0  0  0  0  0  0  0
  138.4107   79.8612  223.4620 H   0  0  0  0  0  0  0  0  0  0  0  0
  139.8626   81.7013  224.0724 H   0  0  0  0  0  0  0  0  0  0  0  0
  142.1761   82.5770  224.2642 H   0  0  0  0  0  0  0  0  0  0  0  0
  144.0927   81.1842  223.6277 H   0  0  0  0  0  0  0  0  0  0  0  0
  143.7831   78.8582  222.7642 H   0  0  0  0  0  0  0  0  0  0  0  0
  1  2  2  0
  2  3  1  0
  3  4  1  0
  4  5  1  0
  5  6  2  0
  5  7  1  0
  7  8  1  0
  8  9  1  0
  9 10  1  0
  9 11  1  0
 11 12  1  0
 11 13  1  0
 13 14  1  0
 14 15  1  0
 15 16  1  0
 16 17  1  0
 17 18  2  0
 18 19  1  0
 19 20  2  0
 20 21  1  0
 21 22  2  0
  2 23  1  0
 23 24  2  0
 24 25  1  0
 25 26  2  0
 26 27  1  0
 27 28  2  0
 28 29  1  0
 29 30  2  0
 30 31  1  0
 31 32  2  0
 13  7  1  0
 22 17  1  0
 32 23  1  0
 31 26  1  0
  3 33  1  0
  4 34  1  0
  4 35  1  0
  8 36  1  0
  8 37  1  0
  9 38  1  6
 10 39  1  0
 11 40  1  6
 12 41  1  0
 13 42  1  1
 14 43  1  0
 14 44  1  0
 16 45  1  0
 16 46  1  0
 18 47  1  0
 19 48  1  0
 20 49  1  0
 21 50  1  0
 22 51  1  0
 24 52  1  0
 25 53  1  0
 27 54  1  0
 28 55  1  0
 29 56  1  0
 30 57  1  0
M  END
>  <smiles>  (32) 
O=C(NCC(=O)N1C[C@H](O)[C@H](O)[C@H]1COCc1ccccc1)c1ccc2ccccc2n1

>  <score_type>  (32) 
oracle

>  <origin>  (32) 
autodockgpu

>  <m_score__min__energy>  (32) 
-9.0299999999999994

>  <m_primary>  (32) 
energy

>  <rmsd>  (32) 
7.655508974221311

>  <m_score__min__rmsd>  (32) 
7.655508974221311

>  <meeko>  (32) 
{"free_energy": -7.41, "intermolecular_energy": -10.39, "internal_energy": -5.07, "cluster_size": 34, "cluster_id": 5, "rank_in_cluster": 26}

>  <energy>  (32) 
-7.62

>  <cluster_rmsd>  (32) 
0.57

>  <cluster>  (32) 
5

$$$$

     RDKit          3D

 57 60  0  0  0  0  0  0  0  0999 V2000
  139.8840   70.8350  221.2140 O   0  0  0  0  0  0  0  0  0  0  0  0
  139.5490   71.5590  222.1920 C   0  0  0  0  0  0  0  0  0  0  0  0
  138.9660   72.8360  221.9930 N   0  0  0  0  0  0  0  0  0  0  0  0
  138.7720   73.2730  220.6260 C   0  0  0  0  0  0  0  0  0  0  0  0
  138.2310   74.6680  220.5850 C   0  0  0  0  0  0  0  0  0  0  0  0
  137.0590   74.8970  220.1900 O   0  0  0  0  0  0  0  0  0  0  0  0
  139.0200   75.7520  220.9850 N   0  0  0  0  0  0  0  0  0  0  0  0
  139.8450   76.5390  220.0930 C   0  0  0  0  0  0  0  0  0  0  0  0
  140.6780   77.4290  221.0030 C   0  0  2  0  0  0  0  0  0  0  0  0
  141.9770   77.5880  220.5580 O   0  0  0  0  0  0  0  0  0  0  0  0
  140.6010   76.6700  222.3290 C   0  0  2  0  0  0  0  0  0  0  0  0
  141.3230   75.4810  222.0950 O   0  0  0  0  0  0  0  0  0  0  0  0
  139.1490   76.2800  222.3680 C   0  0  1  0  0  0  0  0  0  0  0  0
  138.1650   77.3980  222.5030 C   0  0  0  0  0  0  0  0  0  0  0  0
  138.3710   78.4000  223.3210 O   0  0  0  0  0  0  0  0  0  0  0  0
  138.7810   79.6350  223.1540 C   0  0  0  0  0  0  0  0  0  0  0  0
  140.2200   79.9360  223.1240 C   0  0  0  0  0  0  0  0  0  0  0  0
  140.6370   80.8730  222.1670 C   0  0  0  0  0  0  0  0  0  0  0  0
  141.9630   81.2470  222.0580 C   0  0  0  0  0  0  0  0  0  0  0  0
  142.9180   80.7110  222.8870 C   0  0  0  0  0  0  0  0  0  0  0  0
  142.5170   79.7950  223.8240 C   0  0  0  0  0  0  0  0  0  0  0  0
  141.1920   79.4260  223.9290 C   0  0  0  0  0  0  0  0  0  0  0  0
  139.7590   71.0880  223.5560 C   0  0  0  0  0  0  0  0  0  0  0  0
  139.3830   69.8110  223.9090 C   0  0  0  0  0  0  0  0  0  0  0  0
  139.5660   69.3400  225.1860 C   0  0  0  0  0  0  0  0  0  0  0  0
  140.1340   70.1350  226.1520 C   0  0  0  0  0  0  0  0  0  0  0  0
  140.3210   69.6680  227.4310 C   0  0  0  0  0  0  0  0  0  0  0  0
  140.8930   70.5120  228.3460 C   0  0  0  0  0  0  0  0  0  0  0  0
  141.2680   71.7880  227.9870 C   0  0  0  0  0  0  0  0  0  0  0  0
  141.0850   72.2780  226.6950 C   0  0  0  0  0  0  0  0  0  0  0  0
  140.5100   71.4270  225.7780 C   0  0  0  0  0  0  0  0  0  0  0  0
  140.3130   71.8480  224.5200 N   0  0  0  0  0  0  0  0  0  0  0  0
  138.7020   73.4060  222.8290 H   0  0  0  0  0  0  0  0  0  0  0  0
  139.7367   73.2448  220.0981 H   0  0  0  0  0  0  0  0  0  0  0  0
  138.0496   72.6005  220.1403 H   0  0  0  0  0  0  0  0  0  0  0  0
  140.4947   75.8862  219.4916 H   0  0  0  0  0  0  0  0  0  0  0  0
  139.2416   77.1251  219.3842 H   0  0  0  0  0  0  0  0  0  0  0  0
  140.3116   78.4646  221.0602 H   0  0  0  0  0  0  0  0  0  0  0  0
  142.5870   77.0070  221.1140 H   0  0  0  0  0  0  0  0  0  0  0  0
  140.9581   77.2066  223.2204 H   0  0  0  0  0  0  0  0  0  0  0  0
  142.1930   75.7360  221.6810 H   0  0  0  0  0  0  0  0  0  0  0  0
  138.9296   75.6321  223.2294 H   0  0  0  0  0  0  0  0  0  0  0  0
  138.0536   77.8352  221.4998 H   0  0  0  0  0  0  0  0  0  0  0  0
  137.3001   76.8955  222.9606 H   0  0  0  0  0  0  0  0  0  0  0  0
  138.3646   79.9807  222.1964 H   0  0  0  0  0  0  0  0  0  0  0  0
  138.4368   80.1406  224.0683 H   0  0  0  0  0  0  0  0  0  0  0  0
  139.8937   81.3190  221.4898 H   0  0  0  0  0  0  0  0  0  0  0  0
  142.2577   81.9843  221.2967 H   0  0  0  0  0  0  0  0  0  0  0  0
  143.9736   81.0083  222.8013 H   0  0  0  0  0  0  0  0  0  0  0  0
  143.2606   79.3486  224.5006 H   0  0  0  0  0  0  0  0  0  0  0  0
  140.9091   78.6890  224.6951 H   0  0  0  0  0  0  0  0  0  0  0  0
  138.9269   69.1551  223.1529 H   0  0  0  0  0  0  0  0  0  0  0  0
  139.2546   68.3156  225.4381 H   0  0  0  0  0  0  0  0  0  0  0  0
  140.0205   68.6477  227.7114 H   0  0  0  0  0  0  0  0  0  0  0  0
  141.0545   70.1672  229.3780 H   0  0  0  0  0  0  0  0  0  0  0  0
  141.7265   72.4411  228.7441 H   0  0  0  0  0  0  0  0  0  0  0  0
  141.3867   73.2995  226.4201 H   0  0  0  0  0  0  0  0  0  0  0  0
  1  2  2  0
  2  3  1  0
  3  4  1  0
  4  5  1  0
  5  6  2  0
  5  7  1  0
  7  8  1  0
  8  9  1  0
  9 10  1  0
  9 11  1  0
 11 12  1  0
 11 13  1  0
 13 14  1  0
 14 15  1  0
 15 16  1  0
 16 17  1  0
 17 18  2  0
 18 19  1  0
 19 20  2  0
 20 21  1  0
 21 22  2  0
  2 23  1  0
 23 24  2  0
 24 25  1  0
 25 26  2  0
 26 27  1  0
 27 28  2  0
 28 29  1  0
 29 30  2  0
 30 31  1  0
 31 32  2  0
 13  7  1  0
 22 17  1  0
 32 23  1  0
 31 26  1  0
  3 33  1  0
  4 34  1  0
  4 35  1  0
  8 36  1  0
  8 37  1  0
  9 38  1  1
 10 39  1  0
 11 40  1  1
 12 41  1  0
 13 42  1  1
 14 43  1  0
 14 44  1  0
 16 45  1  0
 16 46  1  0
 18 47  1  0
 19 48  1  0
 20 49  1  0
 21 50  1  0
 22 51  1  0
 24 52  1  0
 25 53  1  0
 27 54  1  0
 28 55  1  0
 29 56  1  0
 30 57  1  0
M  END
>  <smiles>  (33) 
O=C(NCC(=O)N1C[C@H](O)[C@H](O)[C@H]1COCc1ccccc1)c1ccc2ccccc2n1

>  <score_type>  (33) 
oracle

>  <origin>  (33) 
autodockgpu

>  <m_score__min__energy>  (33) 
-9.0299999999999994

>  <m_primary>  (33) 
energy

>  <rmsd>  (33) 
2.9153123210611214

>  <m_score__min__rmsd>  (33) 
2.9153123210611214

>  <meeko>  (33) 
{"free_energy": -8.88, "intermolecular_energy": -11.86, "internal_energy": -3.12, "cluster_size": 9, "cluster_id": 1, "rank_in_cluster": 7}

>  <energy>  (33) 
-7.61

>  <cluster_rmsd>  (33) 
0.56

>  <cluster>  (33) 
5

$$$$

     RDKit          3D

 57 60  0  0  0  0  0  0  0  0999 V2000
  136.3080   71.4180  221.4640 O   0  0  0  0  0  0  0  0  0  0  0  0
  137.0220   71.9830  222.3380 C   0  0  0  0  0  0  0  0  0  0  0  0
  137.1930   73.3910  222.3460 N   0  0  0  0  0  0  0  0  0  0  0  0
  136.5170   74.1490  221.3130 C   0  0  0  0  0  0  0  0  0  0  0  0
  137.5030   74.7330  220.3500 C   0  0  0  0  0  0  0  0  0  0  0  0
  137.1250   75.4620  219.3980 O   0  0  0  0  0  0  0  0  0  0  0  0
  138.8720   74.4790  220.4870 N   0  0  0  0  0  0  0  0  0  0  0  0
  139.5270   73.2600  220.0610 C   0  0  0  0  0  0  0  0  0  0  0  0
  140.9370   73.3480  220.6230 C   0  0  2  0  0  0  0  0  0  0  0  0
  141.4100   72.1330  221.0840 O   0  0  0  0  0  0  0  0  0  0  0  0
  140.7560   74.3710  221.7460 C   0  0  2  0  0  0  0  0  0  0  0  0
  139.9460   73.7120  222.6940 O   0  0  0  0  0  0  0  0  0  0  0  0
  139.8790   75.3960  221.0810 C   0  0  1  0  0  0  0  0  0  0  0  0
  140.4920   76.1610  219.9520 C   0  0  0  0  0  0  0  0  0  0  0  0
  140.4160   77.4670  219.8860 O   0  0  0  0  0  0  0  0  0  0  0  0
  141.3020   78.4310  219.9700 C   0  0  0  0  0  0  0  0  0  0  0  0
  141.6190   79.0290  221.2770 C   0  0  0  0  0  0  0  0  0  0  0  0
  141.3710   78.2280  222.4000 C   0  0  0  0  0  0  0  0  0  0  0  0
  141.6470   78.6780  223.6780 C   0  0  0  0  0  0  0  0  0  0  0  0
  142.1740   79.9280  223.8870 C   0  0  0  0  0  0  0  0  0  0  0  0
  142.4190   80.7150  222.7930 C   0  0  0  0  0  0  0  0  0  0  0  0
  142.1430   80.2610  221.5200 C   0  0  0  0  0  0  0  0  0  0  0  0
  137.6890   71.1890  223.3630 C   0  0  0  0  0  0  0  0  0  0  0  0
  137.0590   70.0880  223.8980 C   0  0  0  0  0  0  0  0  0  0  0  0
  137.6610   69.3210  224.8660 C   0  0  0  0  0  0  0  0  0  0  0  0
  138.9160   69.6340  225.3280 C   0  0  0  0  0  0  0  0  0  0  0  0
  139.5230   68.8700  226.2960 C   0  0  0  0  0  0  0  0  0  0  0  0
  140.7750   69.2370  226.7120 C   0  0  0  0  0  0  0  0  0  0  0  0
  141.4010   70.3390  226.1730 C   0  0  0  0  0  0  0  0  0  0  0  0
  140.8000   71.1260  225.1920 C   0  0  0  0  0  0  0  0  0  0  0  0
  139.5410   70.7540  224.7750 C   0  0  0  0  0  0  0  0  0  0  0  0
  138.9180   71.4750  223.8320 N   0  0  0  0  0  0  0  0  0  0  0  0
  137.7920   73.8220  223.0860 H   0  0  0  0  0  0  0  0  0  0  0  0
  135.8314   73.4836  220.7679 H   0  0  0  0  0  0  0  0  0  0  0  0
  135.9586   74.9699  221.7867 H   0  0  0  0  0  0  0  0  0  0  0  0
  139.0049   72.3801  220.4650 H   0  0  0  0  0  0  0  0  0  0  0  0
  139.5266   73.1540  218.9661 H   0  0  0  0  0  0  0  0  0  0  0  0
  141.6910   73.6349  219.8753 H   0  0  0  0  0  0  0  0  0  0  0  0
  140.9900   71.9370  221.9800 H   0  0  0  0  0  0  0  0  0  0  0  0
  141.6770   74.7738  222.1927 H   0  0  0  0  0  0  0  0  0  0  0  0
  139.7890   72.7860  222.3610 H   0  0  0  0  0  0  0  0  0  0  0  0
  139.5658   76.1776  221.7888 H   0  0  0  0  0  0  0  0  0  0  0  0
  141.5637   75.9129  219.9556 H   0  0  0  0  0  0  0  0  0  0  0  0
  139.8789   75.8463  219.0946 H   0  0  0  0  0  0  0  0  0  0  0  0
  142.2444   78.0318  219.5668 H   0  0  0  0  0  0  0  0  0  0  0  0
  140.8271   79.2585  219.4225 H   0  0  0  0  0  0  0  0  0  0  0  0
  140.9486   77.2218  222.2620 H   0  0  0  0  0  0  0  0  0  0  0  0
  141.4414   78.0252  224.5391 H   0  0  0  0  0  0  0  0  0  0  0  0
  142.3932   80.2873  224.9033 H   0  0  0  0  0  0  0  0  0  0  0  0
  142.8410   81.7214  222.9313 H   0  0  0  0  0  0  0  0  0  0  0  0
  142.3552   80.9218  220.6666 H   0  0  0  0  0  0  0  0  0  0  0  0
  136.0536   69.8170  223.5434 H   0  0  0  0  0  0  0  0  0  0  0  0
  137.1325   68.4474  225.2751 H   0  0  0  0  0  0  0  0  0  0  0  0
  139.0186   67.9908  226.7234 H   0  0  0  0  0  0  0  0  0  0  0  0
  141.2864   68.6450  227.4853 H   0  0  0  0  0  0  0  0  0  0  0  0
  142.4072   70.6066  226.5279 H   0  0  0  0  0  0  0  0  0  0  0  0
  141.3086   72.0052  224.7696 H   0  0  0  0  0  0  0  0  0  0  0  0
  1  2  2  0
  2  3  1  0
  3  4  1  0
  4  5  1  0
  5  6  2  0
  5  7  1  0
  7  8  1  0
  8  9  1  0
  9 10  1  0
  9 11  1  0
 11 12  1  0
 11 13  1  0
 13 14  1  0
 14 15  1  0
 15 16  1  0
 16 17  1  0
 17 18  2  0
 18 19  1  0
 19 20  2  0
 20 21  1  0
 21 22  2  0
  2 23  1  0
 23 24  2  0
 24 25  1  0
 25 26  2  0
 26 27  1  0
 27 28  2  0
 28 29  1  0
 29 30  2  0
 30 31  1  0
 31 32  2  0
 13  7  1  0
 22 17  1  0
 32 23  1  0
 31 26  1  0
  3 33  1  0
  4 34  1  0
  4 35  1  0
  8 36  1  0
  8 37  1  0
  9 38  1  6
 10 39  1  0
 11 40  1  1
 12 41  1  0
 13 42  1  1
 14 43  1  0
 14 44  1  0
 16 45  1  0
 16 46  1  0
 18 47  1  0
 19 48  1  0
 20 49  1  0
 21 50  1  0
 22 51  1  0
 24 52  1  0
 25 53  1  0
 27 54  1  0
 28 55  1  0
 29 56  1  0
 30 57  1  0
M  END
>  <smiles>  (34) 
O=C(NCC(=O)N1C[C@H](O)[C@H](O)[C@H]1COCc1ccccc1)c1ccc2ccccc2n1

>  <score_type>  (34) 
oracle

>  <origin>  (34) 
autodockgpu

>  <m_score__min__energy>  (34) 
-9.0299999999999994

>  <m_primary>  (34) 
energy

>  <rmsd>  (34) 
2.8881492175109873

>  <m_score__min__rmsd>  (34) 
2.8881492175109873

>  <meeko>  (34) 
{"free_energy": -6.4, "intermolecular_energy": -9.38, "internal_energy": -4.72, "cluster_size": 3, "cluster_id": 4, "rank_in_cluster": 3}

>  <energy>  (34) 
-7.6

>  <cluster_rmsd>  (34) 
0.52

>  <cluster>  (34) 
5

$$$$

     RDKit          3D

 57 60  0  0  0  0  0  0  0  0999 V2000
  140.6030   71.9220  221.5280 O   0  0  0  0  0  0  0  0  0  0  0  0
  139.7530   72.0650  222.4510 C   0  0  0  0  0  0  0  0  0  0  0  0
  138.6420   72.9310  222.2960 N   0  0  0  0  0  0  0  0  0  0  0  0
  138.5220   73.6420  221.0400 C   0  0  0  0  0  0  0  0  0  0  0  0
  138.0550   75.0460  221.2660 C   0  0  0  0  0  0  0  0  0  0  0  0
  136.8340   75.3070  221.4140 O   0  0  0  0  0  0  0  0  0  0  0  0
  138.9700   76.1040  221.3160 N   0  0  0  0  0  0  0  0  0  0  0  0
  139.8050   76.5180  220.2090 C   0  0  0  0  0  0  0  0  0  0  0  0
  140.7800   77.5250  220.8010 C   0  0  2  0  0  0  0  0  0  0  0  0
  142.0550   77.4100  220.2800 O   0  0  0  0  0  0  0  0  0  0  0  0
  140.7190   77.1730  222.2880 C   0  0  2  0  0  0  0  0  0  0  0  0
  141.3060   75.8930  222.3700 O   0  0  0  0  0  0  0  0  0  0  0  0
  139.2420   76.9740  222.4890 C   0  0  1  0  0  0  0  0  0  0  0  0
  138.3820   78.1880  222.3420 C   0  0  0  0  0  0  0  0  0  0  0  0
  138.1830   79.0150  223.3380 O   0  0  0  0  0  0  0  0  0  0  0  0
  138.8420   80.0530  223.7970 C   0  0  0  0  0  0  0  0  0  0  0  0
  140.2230   80.3040  223.3570 C   0  0  0  0  0  0  0  0  0  0  0  0
  141.2300   79.6380  224.0690 C   0  0  0  0  0  0  0  0  0  0  0  0
  142.5640   79.7830  223.7330 C   0  0  0  0  0  0  0  0  0  0  0  0
  142.9440   80.5870  222.6880 C   0  0  0  0  0  0  0  0  0  0  0  0
  141.9640   81.2400  221.9880 C   0  0  0  0  0  0  0  0  0  0  0  0
  140.6350   81.0920  222.3260 C   0  0  0  0  0  0  0  0  0  0  0  0
  139.9050   71.3340  223.7030 C   0  0  0  0  0  0  0  0  0  0  0  0
  139.5340   70.0100  223.7770 C   0  0  0  0  0  0  0  0  0  0  0  0
  139.6630   69.2950  224.9430 C   0  0  0  0  0  0  0  0  0  0  0  0
  140.1700   69.8860  226.0740 C   0  0  0  0  0  0  0  0  0  0  0  0
  140.3020   69.1760  227.2430 C   0  0  0  0  0  0  0  0  0  0  0  0
  140.8140   69.8260  228.3350 C   0  0  0  0  0  0  0  0  0  0  0  0
  141.1840   71.1500  228.2560 C   0  0  0  0  0  0  0  0  0  0  0  0
  141.0560   71.8860  227.0790 C   0  0  0  0  0  0  0  0  0  0  0  0
  140.5410   71.2300  225.9830 C   0  0  0  0  0  0  0  0  0  0  0  0
  140.3980   71.8910  224.8260 N   0  0  0  0  0  0  0  0  0  0  0  0
  137.9600   73.0220  223.0830 H   0  0  0  0  0  0  0  0  0  0  0  0
  139.5031   73.6640  220.5430 H   0  0  0  0  0  0  0  0  0  0  0  0
  137.7849   73.1225  220.4100 H   0  0  0  0  0  0  0  0  0  0  0  0
  140.3463   75.6566  219.7907 H   0  0  0  0  0  0  0  0  0  0  0  0
  139.2148   76.9504  219.3876 H   0  0  0  0  0  0  0  0  0  0  0  0
  140.5207   78.5708  220.5797 H   0  0  0  0  0  0  0  0  0  0  0  0
  142.6420   76.9420  220.9540 H   0  0  0  0  0  0  0  0  0  0  0  0
  141.1851   77.8903  222.9795 H   0  0  0  0  0  0  0  0  0  0  0  0
  142.1710   75.9290  221.8770 H   0  0  0  0  0  0  0  0  0  0  0  0
  139.0193   76.6171  223.5054 H   0  0  0  0  0  0  0  0  0  0  0  0
  138.8234   78.7833  221.5291 H   0  0  0  0  0  0  0  0  0  0  0  0
  137.3829   77.7512  222.1969 H   0  0  0  0  0  0  0  0  0  0  0  0
  138.2566   80.9445  223.5278 H   0  0  0  0  0  0  0  0  0  0  0  0
  138.9564   79.8253  224.8671 H   0  0  0  0  0  0  0  0  0  0  0  0
  140.9540   78.9871  224.9117 H   0  0  0  0  0  0  0  0  0  0  0  0
  143.3306   79.2465  224.3114 H   0  0  0  0  0  0  0  0  0  0  0  0
  144.0045   80.7038  222.4202 H   0  0  0  0  0  0  0  0  0  0  0  0
  142.2406   81.8908  221.1454 H   0  0  0  0  0  0  0  0  0  0  0  0
  139.8776   81.6323  221.7391 H   0  0  0  0  0  0  0  0  0  0  0  0
  139.1258   69.5144  222.8838 H   0  0  0  0  0  0  0  0  0  0  0  0
  139.3571   68.2387  224.9708 H   0  0  0  0  0  0  0  0  0  0  0  0
  140.0057   68.1182  227.3003 H   0  0  0  0  0  0  0  0  0  0  0  0
  140.9308   69.2843  229.2852 H   0  0  0  0  0  0  0  0  0  0  0  0
  141.5937   71.6426  229.1501 H   0  0  0  0  0  0  0  0  0  0  0  0
  141.3532   72.9439  227.0279 H   0  0  0  0  0  0  0  0  0  0  0  0
  1  2  2  0
  2  3  1  0
  3  4  1  0
  4  5  1  0
  5  6  2  0
  5  7  1  0
  7  8  1  0
  8  9  1  0
  9 10  1  0
  9 11  1  0
 11 12  1  0
 11 13  1  0
 13 14  1  0
 14 15  1  0
 15 16  1  0
 16 17  1  0
 17 18  2  0
 18 19  1  0
 19 20  2  0
 20 21  1  0
 21 22  2  0
  2 23  1  0
 23 24  2  0
 24 25  1  0
 25 26  2  0
 26 27  1  0
 27 28  2  0
 28 29  1  0
 29 30  2  0
 30 31  1  0
 31 32  2  0
 13  7  1  0
 22 17  1  0
 32 23  1  0
 31 26  1  0
  3 33  1  0
  4 34  1  0
  4 35  1  0
  8 36  1  0
  8 37  1  0
  9 38  1  1
 10 39  1  0
 11 40  1  1
 12 41  1  0
 13 42  1  1
 14 43  1  0
 14 44  1  0
 16 45  1  0
 16 46  1  0
 18 47  1  0
 19 48  1  0
 20 49  1  0
 21 50  1  0
 22 51  1  0
 24 52  1  0
 25 53  1  0
 27 54  1  0
 28 55  1  0
 29 56  1  0
 30 57  1  0
M  END
>  <smiles>  (35) 
O=C(NCC(=O)N1C[C@H](O)[C@H](O)[C@H]1COCc1ccccc1)c1ccc2ccccc2n1

>  <score_type>  (35) 
oracle

>  <origin>  (35) 
autodockgpu

>  <m_score__min__energy>  (35) 
-9.0299999999999994

>  <m_primary>  (35) 
energy

>  <rmsd>  (35) 
2.861525807431129

>  <m_score__min__rmsd>  (35) 
2.861525807431129

>  <meeko>  (35) 
{"free_energy": -9.01, "intermolecular_energy": -11.99, "internal_energy": -3.0, "cluster_size": 9, "cluster_id": 1, "rank_in_cluster": 3}

>  <energy>  (35) 
-7.59

>  <cluster_rmsd>  (35) 
0.46

>  <cluster>  (35) 
5

$$$$

     RDKit          3D

 57 60  0  0  0  0  0  0  0  0999 V2000
  139.4740   74.6000  222.3780 O   0  0  0  0  0  0  0  0  0  0  0  0
  140.1390   75.4410  221.7110 C   0  0  0  0  0  0  0  0  0  0  0  0
  140.7800   75.0740  220.5010 N   0  0  0  0  0  0  0  0  0  0  0  0
  140.6410   73.7000  220.0640 C   0  0  0  0  0  0  0  0  0  0  0  0
  141.6960   73.3520  219.0600 C   0  0  0  0  0  0  0  0  0  0  0  0
  141.3930   72.8270  217.9580 O   0  0  0  0  0  0  0  0  0  0  0  0
  143.0460   73.6040  219.3250 N   0  0  0  0  0  0  0  0  0  0  0  0
  144.1490   73.0080  218.6010 C   0  0  0  0  0  0  0  0  0  0  0  0
  145.3940   73.3890  219.3890 C   0  0  2  0  0  0  0  0  0  0  0  0
  146.3270   72.3700  219.4460 O   0  0  0  0  0  0  0  0  0  0  0  0
  144.8010   73.7200  220.7590 C   0  0  2  0  0  0  0  0  0  0  0  0
  144.3340   72.4820  221.2480 O   0  0  0  0  0  0  0  0  0  0  0  0
  143.5800   74.5100  220.3750 C   0  0  1  0  0  0  0  0  0  0  0  0
  143.8230   75.8350  219.7270 C   0  0  0  0  0  0  0  0  0  0  0  0
  143.0460   76.2880  218.7750 O   0  0  0  0  0  0  0  0  0  0  0  0
  142.9470   77.4440  218.1600 C   0  0  0  0  0  0  0  0  0  0  0  0
  142.0750   78.4960  218.7050 C   0  0  0  0  0  0  0  0  0  0  0  0
  142.5820   79.8020  218.6630 C   0  0  0  0  0  0  0  0  0  0  0  0
  141.8430   80.8740  219.1300 C   0  0  0  0  0  0  0  0  0  0  0  0
  140.5870   80.6910  219.6510 C   0  0  0  0  0  0  0  0  0  0  0  0
  140.0870   79.4170  219.6950 C   0  0  0  0  0  0  0  0  0  0  0  0
  140.8270   78.3510  219.2270 C   0  0  0  0  0  0  0  0  0  0  0  0
  140.2590   76.8160  222.1800 C   0  0  0  0  0  0  0  0  0  0  0  0
  139.1360   77.5080  222.5780 C   0  0  0  0  0  0  0  0  0  0  0  0
  139.2170   78.8050  223.0240 C   0  0  0  0  0  0  0  0  0  0  0  0
  140.4280   79.4500  223.0850 C   0  0  0  0  0  0  0  0  0  0  0  0
  140.5150   80.7470  223.5310 C   0  0  0  0  0  0  0  0  0  0  0  0
  141.7530   81.3320  223.5680 C   0  0  0  0  0  0  0  0  0  0  0  0
  142.8710   80.6360  223.1690 C   0  0  0  0  0  0  0  0  0  0  0  0
  142.8020   79.3200  222.7140 C   0  0  0  0  0  0  0  0  0  0  0  0
  141.5570   78.7350  222.6780 C   0  0  0  0  0  0  0  0  0  0  0  0
  141.4340   77.4700  222.2500 N   0  0  0  0  0  0  0  0  0  0  0  0
  141.3210   75.7990  219.9770 H   0  0  0  0  0  0  0  0  0  0  0  0
  140.7370   73.0335  220.9338 H   0  0  0  0  0  0  0  0  0  0  0  0
  139.6537   73.5774  219.5948 H   0  0  0  0  0  0  0  0  0  0  0  0
  144.0378   71.9144  218.5600 H   0  0  0  0  0  0  0  0  0  0  0  0
  144.1967   73.3606  217.5601 H   0  0  0  0  0  0  0  0  0  0  0  0
  145.9636   74.2156  218.9393 H   0  0  0  0  0  0  0  0  0  0  0  0
  146.1980   71.8570  220.3060 H   0  0  0  0  0  0  0  0  0  0  0  0
  145.4700   74.2241  221.4720 H   0  0  0  0  0  0  0  0  0  0  0  0
  145.0930   71.8390  221.2070 H   0  0  0  0  0  0  0  0  0  0  0  0
  142.9682   74.7572  221.2551 H   0  0  0  0  0  0  0  0  0  0  0  0
  143.7938   76.5834  220.5326 H   0  0  0  0  0  0  0  0  0  0  0  0
  144.7709   75.6655  219.1952 H   0  0  0  0  0  0  0  0  0  0  0  0
  143.9617   77.8660  218.1124 H   0  0  0  0  0  0  0  0  0  0  0  0
  142.4622   77.1826  217.2079 H   0  0  0  0  0  0  0  0  0  0  0  0
  143.5866   79.9778  218.2508 H   0  0  0  0  0  0  0  0  0  0  0  0
  142.2683   81.8874  219.0830 H   0  0  0  0  0  0  0  0  0  0  0  0
  139.9988   81.5430  220.0226 H   0  0  0  0  0  0  0  0  0  0  0  0
  139.0830   79.2414  220.1086 H   0  0  0  0  0  0  0  0  0  0  0  0
  140.3903   77.3427  219.2779 H   0  0  0  0  0  0  0  0  0  0  0  0
  138.1549   77.0121  222.5379 H   0  0  0  0  0  0  0  0  0  0  0  0
  138.3030   79.3320  223.3353 H   0  0  0  0  0  0  0  0  0  0  0  0
  139.6178   81.2985  223.8486 H   0  0  0  0  0  0  0  0  0  0  0  0
  141.8546   82.3691  223.9204 H   0  0  0  0  0  0  0  0  0  0  0  0
  143.8509   81.1341  223.2104 H   0  0  0  0  0  0  0  0  0  0  0  0
  143.7028   78.7736  222.3978 H   0  0  0  0  0  0  0  0  0  0  0  0
  1  2  2  0
  2  3  1  0
  3  4  1  0
  4  5  1  0
  5  6  2  0
  5  7  1  0
  7  8  1  0
  8  9  1  0
  9 10  1  0
  9 11  1  0
 11 12  1  0
 11 13  1  0
 13 14  1  0
 14 15  1  0
 15 16  1  0
 16 17  1  0
 17 18  2  0
 18 19  1  0
 19 20  2  0
 20 21  1  0
 21 22  2  0
  2 23  1  0
 23 24  2  0
 24 25  1  0
 25 26  2  0
 26 27  1  0
 27 28  2  0
 28 29  1  0
 29 30  2  0
 30 31  1  0
 31 32  2  0
 13  7  1  0
 22 17  1  0
 32 23  1  0
 31 26  1  0
  3 33  1  0
  4 34  1  0
  4 35  1  0
  8 36  1  0
  8 37  1  0
  9 38  1  6
 10 39  1  0
 11 40  1  1
 12 41  1  0
 13 42  1  1
 14 43  1  0
 14 44  1  0
 16 45  1  0
 16 46  1  0
 18 47  1  0
 19 48  1  0
 20 49  1  0
 21 50  1  0
 22 51  1  0
 24 52  1  0
 25 53  1  0
 27 54  1  0
 28 55  1  0
 29 56  1  0
 30 57  1  0
M  END
>  <smiles>  (36) 
O=C(NCC(=O)N1C[C@H](O)[C@H](O)[C@H]1COCc1ccccc1)c1ccc2ccccc2n1

>  <score_type>  (36) 
oracle

>  <origin>  (36) 
autodockgpu

>  <m_score__min__energy>  (36) 
-9.0299999999999994

>  <m_primary>  (36) 
energy

>  <rmsd>  (36) 
7.458807073273706

>  <m_score__min__rmsd>  (36) 
7.458807073273706

>  <meeko>  (36) 
{"free_energy": -7.09, "intermolecular_energy": -10.08, "internal_energy": -5.1, "cluster_size": 34, "cluster_id": 5, "rank_in_cluster": 30}

>  <energy>  (36) 
-7.59

>  <cluster_rmsd>  (36) 
0.52

>  <cluster>  (36) 
5

$$$$

     RDKit          3D

 57 60  0  0  0  0  0  0  0  0999 V2000
  138.8960   75.2530  222.1040 O   0  0  0  0  0  0  0  0  0  0  0  0
  140.0070   75.8200  221.9140 C   0  0  0  0  0  0  0  0  0  0  0  0
  141.0650   75.1530  221.2460 N   0  0  0  0  0  0  0  0  0  0  0  0
  140.8180   73.8000  220.7930 C   0  0  0  0  0  0  0  0  0  0  0  0
  141.9820   72.9130  221.1070 C   0  0  0  0  0  0  0  0  0  0  0  0
  141.8630   71.9440  221.9000 O   0  0  0  0  0  0  0  0  0  0  0  0
  143.2330   73.1420  220.5230 N   0  0  0  0  0  0  0  0  0  0  0  0
  143.9350   72.1910  219.6880 C   0  0  0  0  0  0  0  0  0  0  0  0
  145.3240   72.7810  219.4930 C   0  0  2  0  0  0  0  0  0  0  0  0
  146.3230   71.8260  219.5130 O   0  0  0  0  0  0  0  0  0  0  0  0
  145.4140   73.7490  220.6740 C   0  0  2  0  0  0  0  0  0  0  0  0
  145.4480   72.9150  221.8100 O   0  0  0  0  0  0  0  0  0  0  0  0
  144.0480   74.3780  220.6520 C   0  0  1  0  0  0  0  0  0  0  0  0
  143.7310   75.2360  219.4700 C   0  0  0  0  0  0  0  0  0  0  0  0
  142.5030   75.3880  219.0390 O   0  0  0  0  0  0  0  0  0  0  0  0
  141.9220   76.2600  218.2490 C   0  0  0  0  0  0  0  0  0  0  0  0
  141.9770   77.6950  218.5690 C   0  0  0  0  0  0  0  0  0  0  0  0
  142.7690   78.4860  217.7260 C   0  0  0  0  0  0  0  0  0  0  0  0
  142.8810   79.8510  217.9190 C   0  0  0  0  0  0  0  0  0  0  0  0
  142.2180   80.4750  218.9460 C   0  0  0  0  0  0  0  0  0  0  0  0
  141.4420   79.7060  219.7730 C   0  0  0  0  0  0  0  0  0  0  0  0
  141.3320   78.3450  219.5750 C   0  0  0  0  0  0  0  0  0  0  0  0
  140.2220   77.1830  222.3840 C   0  0  0  0  0  0  0  0  0  0  0  0
  139.1440   77.9820  222.6950 C   0  0  0  0  0  0  0  0  0  0  0  0
  139.3150   79.2710  223.1390 C   0  0  0  0  0  0  0  0  0  0  0  0
  140.5740   79.8010  223.2870 C   0  0  0  0  0  0  0  0  0  0  0  0
  140.7500   81.0890  223.7310 C   0  0  0  0  0  0  0  0  0  0  0  0
  142.0320   81.5550  223.8560 C   0  0  0  0  0  0  0  0  0  0  0  0
  143.1060   80.7520  223.5440 C   0  0  0  0  0  0  0  0  0  0  0  0
  142.9460   79.4430  223.0920 C   0  0  0  0  0  0  0  0  0  0  0  0
  141.6560   78.9770  222.9670 C   0  0  0  0  0  0  0  0  0  0  0  0
  141.4460   77.7250  222.5370 N   0  0  0  0  0  0  0  0  0  0  0  0
  141.9710   75.6560  221.1080 H   0  0  0  0  0  0  0  0  0  0  0  0
  139.9211   73.4095  221.2960 H   0  0  0  0  0  0  0  0  0  0  0  0
  140.6702   73.8148  219.7031 H   0  0  0  0  0  0  0  0  0  0  0  0
  143.9980   71.2125  220.1867 H   0  0  0  0  0  0  0  0  0  0  0  0
  143.4200   72.0260  218.7301 H   0  0  0  0  0  0  0  0  0  0  0  0
  145.4647   73.2590  218.5123 H   0  0  0  0  0  0  0  0  0  0  0  0
  146.4460   71.5010  220.4600 H   0  0  0  0  0  0  0  0  0  0  0  0
  146.2500   74.4638  220.6570 H   0  0  0  0  0  0  0  0  0  0  0  0
  145.5160   71.9740  221.4890 H   0  0  0  0  0  0  0  0  0  0  0  0
  143.9011   75.0501  221.5103 H   0  0  0  0  0  0  0  0  0  0  0  0
  144.1012   76.2434  219.7109 H   0  0  0  0  0  0  0  0  0  0  0  0
  144.2018   74.6813  218.6450 H   0  0  0  0  0  0  0  0  0  0  0  0
  142.3760   76.1390  217.2544 H   0  0  0  0  0  0  0  0  0  0  0  0
  140.8534   76.0196  218.3503 H   0  0  0  0  0  0  0  0  0  0  0  0
  143.3120   78.0123  216.8949 H   0  0  0  0  0  0  0  0  0  0  0  0
  143.5103   80.4448  217.2398 H   0  0  0  0  0  0  0  0  0  0  0  0
  142.3070   81.5604  219.1006 H   0  0  0  0  0  0  0  0  0  0  0  0
  140.9001   80.1795  220.6049 H   0  0  0  0  0  0  0  0  0  0  0  0
  140.6970   77.7619  220.2583 H   0  0  0  0  0  0  0  0  0  0  0  0
  138.1259   77.5801  222.5857 H   0  0  0  0  0  0  0  0  0  0  0  0
  138.4345   79.8853  223.3786 H   0  0  0  0  0  0  0  0  0  0  0  0
  139.8883   81.7263  223.9785 H   0  0  0  0  0  0  0  0  0  0  0  0
  142.2053   82.5821  224.2096 H   0  0  0  0  0  0  0  0  0  0  0  0
  144.1230   81.1563  223.6550 H   0  0  0  0  0  0  0  0  0  0  0  0
  143.8116   78.8104  222.8461 H   0  0  0  0  0  0  0  0  0  0  0  0
  1  2  2  0
  2  3  1  0
  3  4  1  0
  4  5  1  0
  5  6  2  0
  5  7  1  0
  7  8  1  0
  8  9  1  0
  9 10  1  0
  9 11  1  0
 11 12  1  0
 11 13  1  0
 13 14  1  0
 14 15  1  0
 15 16  1  0
 16 17  1  0
 17 18  2  0
 18 19  1  0
 19 20  2  0
 20 21  1  0
 21 22  2  0
  2 23  1  0
 23 24  2  0
 24 25  1  0
 25 26  2  0
 26 27  1  0
 27 28  2  0
 28 29  1  0
 29 30  2  0
 30 31  1  0
 31 32  2  0
 13  7  1  0
 22 17  1  0
 32 23  1  0
 31 26  1  0
  3 33  1  0
  4 34  1  0
  4 35  1  0
  8 36  1  0
  8 37  1  0
  9 38  1  6
 10 39  1  0
 11 40  1  6
 12 41  1  0
 13 42  1  1
 14 43  1  0
 14 44  1  0
 16 45  1  0
 16 46  1  0
 18 47  1  0
 19 48  1  0
 20 49  1  0
 21 50  1  0
 22 51  1  0
 24 52  1  0
 25 53  1  0
 27 54  1  0
 28 55  1  0
 29 56  1  0
 30 57  1  0
M  END
>  <smiles>  (37) 
O=C(NCC(=O)N1C[C@H](O)[C@H](O)[C@H]1COCc1ccccc1)c1ccc2ccccc2n1

>  <score_type>  (37) 
oracle

>  <origin>  (37) 
autodockgpu

>  <m_score__min__energy>  (37) 
-9.0299999999999994

>  <m_primary>  (37) 
energy

>  <rmsd>  (37) 
7.64447550522148

>  <m_score__min__rmsd>  (37) 
7.64447550522148

>  <meeko>  (37) 
{"free_energy": -7.92, "intermolecular_energy": -10.9, "internal_energy": -4.67, "cluster_size": 34, "cluster_id": 5, "rank_in_cluster": 6}

>  <energy>  (37) 
-7.57

>  <cluster_rmsd>  (37) 
0.67

>  <cluster>  (37) 
5

$$$$

     RDKit          3D

 57 60  0  0  0  0  0  0  0  0999 V2000
  139.8860   70.9570  221.2400 O   0  0  0  0  0  0  0  0  0  0  0  0
  139.5590   71.6230  222.2610 C   0  0  0  0  0  0  0  0  0  0  0  0
  138.9480   72.8970  222.1400 N   0  0  0  0  0  0  0  0  0  0  0  0
  138.7170   73.4000  220.8010 C   0  0  0  0  0  0  0  0  0  0  0  0
  138.2010   74.8040  220.8420 C   0  0  0  0  0  0  0  0  0  0  0  0
  136.9800   75.0500  220.6690 O   0  0  0  0  0  0  0  0  0  0  0  0
  139.0670   75.8780  221.0730 N   0  0  0  0  0  0  0  0  0  0  0  0
  139.9650   76.4350  220.0830 C   0  0  0  0  0  0  0  0  0  0  0  0
  140.8530   77.4020  220.8520 C   0  0  2  0  0  0  0  0  0  0  0  0
  142.1670   77.3830  220.4220 O   0  0  0  0  0  0  0  0  0  0  0  0
  140.6970   76.8900  222.2840 C   0  0  2  0  0  0  0  0  0  0  0  0
  141.3260   75.6280  222.2770 O   0  0  0  0  0  0  0  0  0  0  0  0
  139.2180   76.6240  222.3490 C   0  0  1  0  0  0  0  0  0  0  0  0
  138.3240   77.8200  222.2640 C   0  0  0  0  0  0  0  0  0  0  0  0
  138.2310   78.6800  223.2480 O   0  0  0  0  0  0  0  0  0  0  0  0
  138.8010   79.8360  223.4960 C   0  0  0  0  0  0  0  0  0  0  0  0
  140.2440   80.0100  223.2700 C   0  0  0  0  0  0  0  0  0  0  0  0
  140.6060   80.8460  222.2040 C   0  0  0  0  0  0  0  0  0  0  0  0
  141.9340   81.0970  221.9080 C   0  0  0  0  0  0  0  0  0  0  0  0
  142.9410   80.5350  222.6510 C   0  0  0  0  0  0  0  0  0  0  0  0
  142.5930   79.7170  223.6940 C   0  0  0  0  0  0  0  0  0  0  0  0
  141.2670   79.4700  223.9860 C   0  0  0  0  0  0  0  0  0  0  0  0
  139.8060   71.0880  223.5940 C   0  0  0  0  0  0  0  0  0  0  0  0
  139.5080   69.7720  223.8740 C   0  0  0  0  0  0  0  0  0  0  0  0
  139.7290   69.2390  225.1200 C   0  0  0  0  0  0  0  0  0  0  0  0
  140.2570   70.0090  226.1280 C   0  0  0  0  0  0  0  0  0  0  0  0
  140.4800   69.4810  227.3770 C   0  0  0  0  0  0  0  0  0  0  0  0
  141.0090   70.3030  228.3370 C   0  0  0  0  0  0  0  0  0  0  0  0
  141.3050   71.6170  228.0520 C   0  0  0  0  0  0  0  0  0  0  0  0
  141.0840   72.1690  226.7920 C   0  0  0  0  0  0  0  0  0  0  0  0
  140.5530   71.3410  225.8290 C   0  0  0  0  0  0  0  0  0  0  0  0
  140.3220   71.8210  224.5990 N   0  0  0  0  0  0  0  0  0  0  0  0
  138.6910   73.4180  223.0090 H   0  0  0  0  0  0  0  0  0  0  0  0
  139.6630   73.3798  220.2401 H   0  0  0  0  0  0  0  0  0  0  0  0
  137.9667   72.7630  220.3098 H   0  0  0  0  0  0  0  0  0  0  0  0
  140.5692   75.6411  219.6197 H   0  0  0  0  0  0  0  0  0  0  0  0
  139.4208   76.9347  219.2680 H   0  0  0  0  0  0  0  0  0  0  0  0
  140.5693   78.4569  220.7231 H   0  0  0  0  0  0  0  0  0  0  0  0
  142.7200   76.8610  221.0850 H   0  0  0  0  0  0  0  0  0  0  0  0
  141.0828   77.5433  223.0805 H   0  0  0  0  0  0  0  0  0  0  0  0
  142.2100   75.7370  221.8320 H   0  0  0  0  0  0  0  0  0  0  0  0
  138.9358   76.1525  223.3019 H   0  0  0  0  0  0  0  0  0  0  0  0
  138.6539   78.3912  221.3837 H   0  0  0  0  0  0  0  0  0  0  0  0
  137.3228   77.3646  222.2548 H   0  0  0  0  0  0  0  0  0  0  0  0
  138.2897   80.5824  222.8704 H   0  0  0  0  0  0  0  0  0  0  0  0
  138.7029   79.9364  224.5870 H   0  0  0  0  0  0  0  0  0  0  0  0
  139.8194   81.3110  221.5916 H   0  0  0  0  0  0  0  0  0  0  0  0
  142.1860   81.7568  221.0647 H   0  0  0  0  0  0  0  0  0  0  0  0
  143.9969   80.7351  222.4164 H   0  0  0  0  0  0  0  0  0  0  0  0
  143.3800   79.2518  224.3057 H   0  0  0  0  0  0  0  0  0  0  0  0
  141.0274   78.8094  224.8323 H   0  0  0  0  0  0  0  0  0  0  0  0
  139.0844   69.1355  223.0831 H   0  0  0  0  0  0  0  0  0  0  0  0
  139.4808   68.1849  225.3131 H   0  0  0  0  0  0  0  0  0  0  0  0
  140.2411   68.4305  227.5992 H   0  0  0  0  0  0  0  0  0  0  0  0
  141.1993   69.9089  229.3462 H   0  0  0  0  0  0  0  0  0  0  0  0
  141.7294   72.2512  228.8442 H   0  0  0  0  0  0  0  0  0  0  0  0
  141.3234   73.2207  226.5761 H   0  0  0  0  0  0  0  0  0  0  0  0
  1  2  2  0
  2  3  1  0
  3  4  1  0
  4  5  1  0
  5  6  2  0
  5  7  1  0
  7  8  1  0
  8  9  1  0
  9 10  1  0
  9 11  1  0
 11 12  1  0
 11 13  1  0
 13 14  1  0
 14 15  1  0
 15 16  1  0
 16 17  1  0
 17 18  2  0
 18 19  1  0
 19 20  2  0
 20 21  1  0
 21 22  2  0
  2 23  1  0
 23 24  2  0
 24 25  1  0
 25 26  2  0
 26 27  1  0
 27 28  2  0
 28 29  1  0
 29 30  2  0
 30 31  1  0
 31 32  2  0
 13  7  1  0
 22 17  1  0
 32 23  1  0
 31 26  1  0
  3 33  1  0
  4 34  1  0
  4 35  1  0
  8 36  1  0
  8 37  1  0
  9 38  1  1
 10 39  1  0
 11 40  1  1
 12 41  1  0
 13 42  1  1
 14 43  1  0
 14 44  1  0
 16 45  1  0
 16 46  1  0
 18 47  1  0
 19 48  1  0
 20 49  1  0
 21 50  1  0
 22 51  1  0
 24 52  1  0
 25 53  1  0
 27 54  1  0
 28 55  1  0
 29 56  1  0
 30 57  1  0
M  END
>  <smiles>  (38) 
O=C(NCC(=O)N1C[C@H](O)[C@H](O)[C@H]1COCc1ccccc1)c1ccc2ccccc2n1

>  <score_type>  (38) 
oracle

>  <origin>  (38) 
autodockgpu

>  <m_score__min__energy>  (38) 
-9.0299999999999994

>  <m_primary>  (38) 
energy

>  <rmsd>  (38) 
2.8386152741548587

>  <m_score__min__rmsd>  (38) 
2.8386152741548587

>  <meeko>  (38) 
{"free_energy": -8.98, "intermolecular_energy": -11.96, "internal_energy": -3.1, "cluster_size": 9, "cluster_id": 1, "rank_in_cluster": 5}

>  <energy>  (38) 
-7.55

>  <cluster_rmsd>  (38) 
0.68

>  <cluster>  (38) 
5

$$$$

     RDKit          3D

 57 60  0  0  0  0  0  0  0  0999 V2000
  138.9270   75.1430  221.9730 O   0  0  0  0  0  0  0  0  0  0  0  0
  140.0780   75.6410  222.1130 C   0  0  0  0  0  0  0  0  0  0  0  0
  141.2440   74.8570  221.9280 N   0  0  0  0  0  0  0  0  0  0  0  0
  141.0600   73.4650  221.5720 C   0  0  0  0  0  0  0  0  0  0  0  0
  141.5790   73.1940  220.1940 C   0  0  0  0  0  0  0  0  0  0  0  0
  140.8150   72.7840  219.2840 O   0  0  0  0  0  0  0  0  0  0  0  0
  142.9300   73.3920  219.8880 N   0  0  0  0  0  0  0  0  0  0  0  0
  143.7500   72.4510  219.1550 C   0  0  0  0  0  0  0  0  0  0  0  0
  145.1710   72.9820  219.2770 C   0  0  2  0  0  0  0  0  0  0  0  0
  146.1080   71.9790  219.4390 O   0  0  0  0  0  0  0  0  0  0  0  0
  145.0560   73.8830  220.5080 C   0  0  2  0  0  0  0  0  0  0  0  0
  144.8280   72.9910  221.5760 O   0  0  0  0  0  0  0  0  0  0  0  0
  143.7480   74.5780  220.2520 C   0  0  1  0  0  0  0  0  0  0  0  0
  143.7090   75.5100  219.0830 C   0  0  0  0  0  0  0  0  0  0  0  0
  143.1130   76.6750  219.1520 O   0  0  0  0  0  0  0  0  0  0  0  0
  141.9300   77.1090  218.7830 C   0  0  0  0  0  0  0  0  0  0  0  0
  141.5270   78.4920  219.0800 C   0  0  0  0  0  0  0  0  0  0  0  0
  140.2060   78.6720  219.5110 C   0  0  0  0  0  0  0  0  0  0  0  0
  139.7210   79.9260  219.8360 C   0  0  0  0  0  0  0  0  0  0  0  0
  140.5220   81.0370  219.7450 C   0  0  0  0  0  0  0  0  0  0  0  0
  141.8140   80.8670  219.3240 C   0  0  0  0  0  0  0  0  0  0  0  0
  142.2940   79.6140  219.0020 C   0  0  0  0  0  0  0  0  0  0  0  0
  140.2270   77.0460  222.4730 C   0  0  0  0  0  0  0  0  0  0  0  0
  139.1110   77.8200  222.7040 C   0  0  0  0  0  0  0  0  0  0  0  0
  139.2190   79.1470  223.0430 C   0  0  0  0  0  0  0  0  0  0  0  0
  140.4510   79.7410  223.1620 C   0  0  0  0  0  0  0  0  0  0  0  0
  140.5650   81.0680  223.5010 C   0  0  0  0  0  0  0  0  0  0  0  0
  141.8240   81.6000  223.6020 C   0  0  0  0  0  0  0  0  0  0  0  0
  142.9360   80.8220  223.3700 C   0  0  0  0  0  0  0  0  0  0  0  0
  142.8390   79.4750  223.0240 C   0  0  0  0  0  0  0  0  0  0  0  0
  141.5730   78.9440  222.9230 C   0  0  0  0  0  0  0  0  0  0  0  0
  141.4230   77.6530  222.5940 N   0  0  0  0  0  0  0  0  0  0  0  0
  142.1800   75.3060  222.0530 H   0  0  0  0  0  0  0  0  0  0  0  0
  141.6022   72.8342  222.2918 H   0  0  0  0  0  0  0  0  0  0  0  0
  139.9845   73.2352  221.5945 H   0  0  0  0  0  0  0  0  0  0  0  0
  143.6740   71.4467  219.5972 H   0  0  0  0  0  0  0  0  0  0  0  0
  143.4335   72.3597  218.1055 H   0  0  0  0  0  0  0  0  0  0  0  0
  145.5256   73.5024  218.3751 H   0  0  0  0  0  0  0  0  0  0  0  0
  146.0290   71.6050  220.3730 H   0  0  0  0  0  0  0  0  0  0  0  0
  145.9043   74.5562  220.7009 H   0  0  0  0  0  0  0  0  0  0  0  0
  145.5050   72.2630  221.5080 H   0  0  0  0  0  0  0  0  0  0  0  0
  143.4562   75.2112  221.1028 H   0  0  0  0  0  0  0  0  0  0  0  0
  144.7561   75.7134  218.8141 H   0  0  0  0  0  0  0  0  0  0  0  0
  143.0753   74.9641  218.3685 H   0  0  0  0  0  0  0  0  0  0  0  0
  141.8749   76.9901  217.6908 H   0  0  0  0  0  0  0  0  0  0  0  0
  141.2394   76.5085  219.3934 H   0  0  0  0  0  0  0  0  0  0  0  0
  139.5416   77.7991  219.5925 H   0  0  0  0  0  0  0  0  0  0  0  0
  138.6792   80.0344  220.1720 H   0  0  0  0  0  0  0  0  0  0  0  0
  140.1373   82.0348  220.0027 H   0  0  0  0  0  0  0  0  0  0  0  0
  142.4776   81.7404  219.2415 H   0  0  0  0  0  0  0  0  0  0  0  0
  143.3380   79.5179  218.6690 H   0  0  0  0  0  0  0  0  0  0  0  0
  138.1129   77.3662  222.6152 H   0  0  0  0  0  0  0  0  0  0  0  0
  138.3094   79.7394  223.2208 H   0  0  0  0  0  0  0  0  0  0  0  0
  139.6728   81.6844  223.6857 H   0  0  0  0  0  0  0  0  0  0  0  0
  141.9473   82.6594  223.8712 H   0  0  0  0  0  0  0  0  0  0  0  0
  143.9330   81.2779  223.4605 H   0  0  0  0  0  0  0  0  0  0  0  0
  143.7346   78.8635  222.8398 H   0  0  0  0  0  0  0  0  0  0  0  0
  1  2  2  0
  2  3  1  0
  3  4  1  0
  4  5  1  0
  5  6  2  0
  5  7  1  0
  7  8  1  0
  8  9  1  0
  9 10  1  0
  9 11  1  0
 11 12  1  0
 11 13  1  0
 13 14  1  0
 14 15  1  0
 15 16  1  0
 16 17  1  0
 17 18  2  0
 18 19  1  0
 19 20  2  0
 20 21  1  0
 21 22  2  0
  2 23  1  0
 23 24  2  0
 24 25  1  0
 25 26  2  0
 26 27  1  0
 27 28  2  0
 28 29  1  0
 29 30  2  0
 30 31  1  0
 31 32  2  0
 13  7  1  0
 22 17  1  0
 32 23  1  0
 31 26  1  0
  3 33  1  0
  4 34  1  0
  4 35  1  0
  8 36  1  0
  8 37  1  0
  9 38  1  6
 10 39  1  0
 11 40  1  1
 12 41  1  0
 13 42  1  1
 14 43  1  0
 14 44  1  0
 16 45  1  0
 16 46  1  0
 18 47  1  0
 19 48  1  0
 20 49  1  0
 21 50  1  0
 22 51  1  0
 24 52  1  0
 25 53  1  0
 27 54  1  0
 28 55  1  0
 29 56  1  0
 30 57  1  0
M  END
>  <smiles>  (39) 
O=C(NCC(=O)N1C[C@H](O)[C@H](O)[C@H]1COCc1ccccc1)c1ccc2ccccc2n1

>  <score_type>  (39) 
oracle

>  <origin>  (39) 
autodockgpu

>  <m_score__min__energy>  (39) 
-9.0299999999999994

>  <m_primary>  (39) 
energy

>  <rmsd>  (39) 
7.563474123465229

>  <m_score__min__rmsd>  (39) 
7.563474123465229

>  <meeko>  (39) 
{"free_energy": -7.23, "intermolecular_energy": -10.21, "internal_energy": -4.64, "cluster_size": 34, "cluster_id": 5, "rank_in_cluster": 27}

>  <energy>  (39) 
-7.46

>  <cluster_rmsd>  (39) 
0.78

>  <cluster>  (39) 
5

$$$$

     RDKit          3D

 57 60  0  0  0  0  0  0  0  0999 V2000
  139.9860   74.2300  222.3380 O   0  0  0  0  0  0  0  0  0  0  0  0
  140.2750   75.1860  221.5670 C   0  0  0  0  0  0  0  0  0  0  0  0
  140.5990   74.9570  220.2060 N   0  0  0  0  0  0  0  0  0  0  0  0
  140.5850   73.5860  219.7400 C   0  0  0  0  0  0  0  0  0  0  0  0
  141.7370   73.3240  218.8200 C   0  0  0  0  0  0  0  0  0  0  0  0
  141.5510   72.8760  217.6600 O   0  0  0  0  0  0  0  0  0  0  0  0
  143.0510   73.5720  219.2320 N   0  0  0  0  0  0  0  0  0  0  0  0
  144.2280   73.0230  218.5930 C   0  0  0  0  0  0  0  0  0  0  0  0
  145.3830   73.3720  219.5190 C   0  0  2  0  0  0  0  0  0  0  0  0
  146.3190   72.3590  219.6180 O   0  0  0  0  0  0  0  0  0  0  0  0
  144.6520   73.6260  220.8380 C   0  0  2  0  0  0  0  0  0  0  0  0
  144.1550   72.3610  221.2140 O   0  0  0  0  0  0  0  0  0  0  0  0
  143.4650   74.4260  220.3750 C   0  0  1  0  0  0  0  0  0  0  0  0
  143.7550   75.7850  219.8230 C   0  0  0  0  0  0  0  0  0  0  0  0
  142.8310   76.4970  219.2270 O   0  0  0  0  0  0  0  0  0  0  0  0
  142.8380   77.6540  218.6090 C   0  0  0  0  0  0  0  0  0  0  0  0
  141.9130   78.7190  219.0260 C   0  0  0  0  0  0  0  0  0  0  0  0
  140.5640   78.3560  219.1410 C   0  0  0  0  0  0  0  0  0  0  0  0
  139.6060   79.2690  219.5430 C   0  0  0  0  0  0  0  0  0  0  0  0
  139.9480   80.5640  219.8430 C   0  0  0  0  0  0  0  0  0  0  0  0
  141.2650   80.9240  219.7320 C   0  0  0  0  0  0  0  0  0  0  0  0
  142.2170   80.0100  219.3320 C   0  0  0  0  0  0  0  0  0  0  0  0
  140.2800   76.5550  222.0680 C   0  0  0  0  0  0  0  0  0  0  0  0
  139.0990   77.1530  222.4490 C   0  0  0  0  0  0  0  0  0  0  0  0
  139.0710   78.4410  222.9250 C   0  0  0  0  0  0  0  0  0  0  0  0
  140.2290   79.1730  223.0340 C   0  0  0  0  0  0  0  0  0  0  0  0
  140.2080   80.4620  223.5100 C   0  0  0  0  0  0  0  0  0  0  0  0
  141.3980   81.1350  223.5940 C   0  0  0  0  0  0  0  0  0  0  0  0
  142.5750   80.5320  223.2120 C   0  0  0  0  0  0  0  0  0  0  0  0
  142.6160   79.2260  222.7270 C   0  0  0  0  0  0  0  0  0  0  0  0
  141.4180   78.5520  222.6440 C   0  0  0  0  0  0  0  0  0  0  0  0
  141.4010   77.2920  222.1850 N   0  0  0  0  0  0  0  0  0  0  0  0
  140.8330   75.7750  219.5980 H   0  0  0  0  0  0  0  0  0  0  0  0
  140.6540   72.9105  220.6054 H   0  0  0  0  0  0  0  0  0  0  0  0
  139.6485   73.4106  219.1903 H   0  0  0  0  0  0  0  0  0  0  0  0
  144.1355   71.9322  218.4857 H   0  0  0  0  0  0  0  0  0  0  0  0
  144.3744   73.4296  217.5814 H   0  0  0  0  0  0  0  0  0  0  0  0
  145.9837   74.2250  219.1704 H   0  0  0  0  0  0  0  0  0  0  0  0
  146.1480   71.8370  220.4650 H   0  0  0  0  0  0  0  0  0  0  0  0
  145.2402   74.0972  221.6392 H   0  0  0  0  0  0  0  0  0  0  0  0
  144.9200   71.7230  221.2000 H   0  0  0  0  0  0  0  0  0  0  0  0
  142.7651   74.6225  221.2006 H   0  0  0  0  0  0  0  0  0  0  0  0
  144.1164   76.3911  220.6668 H   0  0  0  0  0  0  0  0  0  0  0  0
  144.4465   75.5601  218.9976 H   0  0  0  0  0  0  0  0  0  0  0  0
  143.8552   78.0606  218.7088 H   0  0  0  0  0  0  0  0  0  0  0  0
  142.4901   77.4006  217.5967 H   0  0  0  0  0  0  0  0  0  0  0  0
  140.2613   77.3247  218.9069 H   0  0  0  0  0  0  0  0  0  0  0  0
  138.5555   78.9529  219.6234 H   0  0  0  0  0  0  0  0  0  0  0  0
  139.1871   81.2911  220.1630 H   0  0  0  0  0  0  0  0  0  0  0  0
  141.5672   81.9557  219.9650 H   0  0  0  0  0  0  0  0  0  0  0  0
  143.2644   80.3375  219.2572 H   0  0  0  0  0  0  0  0  0  0  0  0
  138.1589   76.5873  222.3704 H   0  0  0  0  0  0  0  0  0  0  0  0
  138.1122   78.8911  223.2219 H   0  0  0  0  0  0  0  0  0  0  0  0
  139.2645   80.9387  223.8142 H   0  0  0  0  0  0  0  0  0  0  0  0
  141.4133   82.1684  223.9707 H   0  0  0  0  0  0  0  0  0  0  0  0
  143.5139   81.0995  223.2922 H   0  0  0  0  0  0  0  0  0  0  0  0
  143.5627   78.7548  222.4242 H   0  0  0  0  0  0  0  0  0  0  0  0
  1  2  2  0
  2  3  1  0
  3  4  1  0
  4  5  1  0
  5  6  2  0
  5  7  1  0
  7  8  1  0
  8  9  1  0
  9 10  1  0
  9 11  1  0
 11 12  1  0
 11 13  1  0
 13 14  1  0
 14 15  1  0
 15 16  1  0
 16 17  1  0
 17 18  2  0
 18 19  1  0
 19 20  2  0
 20 21  1  0
 21 22  2  0
  2 23  1  0
 23 24  2  0
 24 25  1  0
 25 26  2  0
 26 27  1  0
 27 28  2  0
 28 29  1  0
 29 30  2  0
 30 31  1  0
 31 32  2  0
 13  7  1  0
 22 17  1  0
 32 23  1  0
 31 26  1  0
  3 33  1  0
  4 34  1  0
  4 35  1  0
  8 36  1  0
  8 37  1  0
  9 38  1  6
 10 39  1  0
 11 40  1  1
 12 41  1  0
 13 42  1  1
 14 43  1  0
 14 44  1  0
 16 45  1  0
 16 46  1  0
 18 47  1  0
 19 48  1  0
 20 49  1  0
 21 50  1  0
 22 51  1  0
 24 52  1  0
 25 53  1  0
 27 54  1  0
 28 55  1  0
 29 56  1  0
 30 57  1  0
M  END
>  <smiles>  (40) 
O=C(NCC(=O)N1C[C@H](O)[C@H](O)[C@H]1COCc1ccccc1)c1ccc2ccccc2n1

>  <score_type>  (40) 
oracle

>  <origin>  (40) 
autodockgpu

>  <m_score__min__energy>  (40) 
-9.0299999999999994

>  <m_primary>  (40) 
energy

>  <rmsd>  (40) 
7.336811637141783

>  <m_score__min__rmsd>  (40) 
7.336811637141783

>  <meeko>  (40) 
{"free_energy": -6.98, "intermolecular_energy": -9.96, "internal_energy": -5.31, "cluster_size": 34, "cluster_id": 5, "rank_in_cluster": 32}

>  <energy>  (40) 
-7.41

>  <cluster_rmsd>  (40) 
0.57

>  <cluster>  (40) 
5

$$$$

     RDKit          3D

 57 60  0  0  0  0  0  0  0  0999 V2000
  138.8460   75.3960  221.9660 O   0  0  0  0  0  0  0  0  0  0  0  0
  140.0040   75.8970  221.9130 C   0  0  0  0  0  0  0  0  0  0  0  0
  141.0960   75.1640  221.3840 N   0  0  0  0  0  0  0  0  0  0  0  0
  140.8290   73.8220  220.9090 C   0  0  0  0  0  0  0  0  0  0  0  0
  141.9940   72.9220  221.1770 C   0  0  0  0  0  0  0  0  0  0  0  0
  141.8840   71.9310  221.9430 O   0  0  0  0  0  0  0  0  0  0  0  0
  143.2360   73.1630  220.5790 N   0  0  0  0  0  0  0  0  0  0  0  0
  143.9370   72.2190  219.7340 C   0  0  0  0  0  0  0  0  0  0  0  0
  145.3180   72.8220  219.5240 C   0  0  2  0  0  0  0  0  0  0  0  0
  146.3250   71.8750  219.5310 O   0  0  0  0  0  0  0  0  0  0  0  0
  145.4130   73.7890  220.7050 C   0  0  2  0  0  0  0  0  0  0  0  0
  145.4680   72.9530  221.8400 O   0  0  0  0  0  0  0  0  0  0  0  0
  144.0420   74.4060  220.7000 C   0  0  1  0  0  0  0  0  0  0  0  0
  143.7030   75.2630  219.5230 C   0  0  0  0  0  0  0  0  0  0  0  0
  142.4630   75.5580  219.2210 O   0  0  0  0  0  0  0  0  0  0  0  0
  141.9130   76.4080  218.3860 C   0  0  0  0  0  0  0  0  0  0  0  0
  141.9200   77.8480  218.6880 C   0  0  0  0  0  0  0  0  0  0  0  0
  142.8410   78.6250  217.9720 C   0  0  0  0  0  0  0  0  0  0  0  0
  142.9250   79.9930  218.1600 C   0  0  0  0  0  0  0  0  0  0  0  0
  142.1060   80.6330  219.0570 C   0  0  0  0  0  0  0  0  0  0  0  0
  141.2050   79.8780  219.7590 C   0  0  0  0  0  0  0  0  0  0  0  0
  141.1240   78.5150  219.5680 C   0  0  0  0  0  0  0  0  0  0  0  0
  140.2370   77.2510  222.4000 C   0  0  0  0  0  0  0  0  0  0  0  0
  139.1720   78.0470  222.7600 C   0  0  0  0  0  0  0  0  0  0  0  0
  139.3600   79.3270  223.2220 C   0  0  0  0  0  0  0  0  0  0  0  0
  140.6240   79.8510  223.3380 C   0  0  0  0  0  0  0  0  0  0  0  0
  140.8180   81.1310  223.8000 C   0  0  0  0  0  0  0  0  0  0  0  0
  142.1040   81.5930  223.8910 C   0  0  0  0  0  0  0  0  0  0  0  0
  143.1660   80.7930  223.5300 C   0  0  0  0  0  0  0  0  0  0  0  0
  142.9880   79.4930  223.0600 C   0  0  0  0  0  0  0  0  0  0  0  0
  141.6940   79.0320  222.9690 C   0  0  0  0  0  0  0  0  0  0  0  0
  141.4660   77.7880  222.5230 N   0  0  0  0  0  0  0  0  0  0  0  0
  142.0390   75.6140  221.3570 H   0  0  0  0  0  0  0  0  0  0  0  0
  139.9416   73.4266  221.4250 H   0  0  0  0  0  0  0  0  0  0  0  0
  140.6553   73.8602  219.8235 H   0  0  0  0  0  0  0  0  0  0  0  0
  144.0146   71.2404  220.2304 H   0  0  0  0  0  0  0  0  0  0  0  0
  143.4124   72.0505  218.7819 H   0  0  0  0  0  0  0  0  0  0  0  0
  145.4435   73.3034  218.5429 H   0  0  0  0  0  0  0  0  0  0  0  0
  146.4610   71.5480  220.4750 H   0  0  0  0  0  0  0  0  0  0  0  0
  146.2422   74.5113  220.6793 H   0  0  0  0  0  0  0  0  0  0  0  0
  145.5200   72.0120  221.5160 H   0  0  0  0  0  0  0  0  0  0  0  0
  143.8999   75.0758  221.5609 H   0  0  0  0  0  0  0  0  0  0  0  0
  144.2199   76.2214  219.6790 H   0  0  0  0  0  0  0  0  0  0  0  0
  144.0059   74.6291  218.6766 H   0  0  0  0  0  0  0  0  0  0  0  0
  142.4278   76.2837  217.4219 H   0  0  0  0  0  0  0  0  0  0  0  0
  140.8452   76.1471  218.4278 H   0  0  0  0  0  0  0  0  0  0  0  0
  143.5096   78.1379  217.2470 H   0  0  0  0  0  0  0  0  0  0  0  0
  143.6580   80.5759  217.5830 H   0  0  0  0  0  0  0  0  0  0  0  0
  142.1718   81.7207  219.2073 H   0  0  0  0  0  0  0  0  0  0  0  0
  140.5372   80.3652  220.4847 H   0  0  0  0  0  0  0  0  0  0  0  0
  140.3863   77.9434  220.1503 H   0  0  0  0  0  0  0  0  0  0  0  0
  138.1498   77.6495  222.6758 H   0  0  0  0  0  0  0  0  0  0  0  0
  138.4893   79.9383  223.5018 H   0  0  0  0  0  0  0  0  0  0  0  0
  139.9663   81.7649  224.0878 H   0  0  0  0  0  0  0  0  0  0  0  0
  142.2910   82.6136  224.2562 H   0  0  0  0  0  0  0  0  0  0  0  0
  144.1871   81.1931  223.6154 H   0  0  0  0  0  0  0  0  0  0  0  0
  143.8435   78.8633  222.7744 H   0  0  0  0  0  0  0  0  0  0  0  0
  1  2  2  0
  2  3  1  0
  3  4  1  0
  4  5  1  0
  5  6  2  0
  5  7  1  0
  7  8  1  0
  8  9  1  0
  9 10  1  0
  9 11  1  0
 11 12  1  0
 11 13  1  0
 13 14  1  0
 14 15  1  0
 15 16  1  0
 16 17  1  0
 17 18  2  0
 18 19  1  0
 19 20  2  0
 20 21  1  0
 21 22  2  0
  2 23  1  0
 23 24  2  0
 24 25  1  0
 25 26  2  0
 26 27  1  0
 27 28  2  0
 28 29  1  0
 29 30  2  0
 30 31  1  0
 31 32  2  0
 13  7  1  0
 22 17  1  0
 32 23  1  0
 31 26  1  0
  3 33  1  0
  4 34  1  0
  4 35  1  0
  8 36  1  0
  8 37  1  0
  9 38  1  6
 10 39  1  0
 11 40  1  6
 12 41  1  0
 13 42  1  1
 14 43  1  0
 14 44  1  0
 16 45  1  0
 16 46  1  0
 18 47  1  0
 19 48  1  0
 20 49  1  0
 21 50  1  0
 22 51  1  0
 24 52  1  0
 25 53  1  0
 27 54  1  0
 28 55  1  0
 29 56  1  0
 30 57  1  0
M  END
>  <smiles>  (41) 
O=C(NCC(=O)N1C[C@H](O)[C@H](O)[C@H]1COCc1ccccc1)c1ccc2ccccc2n1

>  <score_type>  (41) 
oracle

>  <origin>  (41) 
autodockgpu

>  <m_score__min__energy>  (41) 
-9.0299999999999994

>  <m_primary>  (41) 
energy

>  <rmsd>  (41) 
7.673538870260081

>  <m_score__min__rmsd>  (41) 
7.673538870260081

>  <meeko>  (41) 
{"free_energy": -7.93, "intermolecular_energy": -10.92, "internal_energy": -4.73, "cluster_size": 34, "cluster_id": 5, "rank_in_cluster": 5}

>  <energy>  (41) 
-7.23

>  <cluster_rmsd>  (41) 
0.81

>  <cluster>  (41) 
5

$$$$

     RDKit          3D

 57 60  0  0  0  0  0  0  0  0999 V2000
  138.9710   75.0690  222.3040 O   0  0  0  0  0  0  0  0  0  0  0  0
  140.0770   75.6430  222.1040 C   0  0  0  0  0  0  0  0  0  0  0  0
  141.1770   74.9430  221.5480 N   0  0  0  0  0  0  0  0  0  0  0  0
  140.9800   73.5460  221.2210 C   0  0  0  0  0  0  0  0  0  0  0  0
  141.7260   73.1800  219.9760 C   0  0  0  0  0  0  0  0  0  0  0  0
  141.1400   72.6300  219.0090 O   0  0  0  0  0  0  0  0  0  0  0  0
  143.0950   73.4410  219.8610 N   0  0  0  0  0  0  0  0  0  0  0  0
  143.9970   72.7210  218.9870 C   0  0  0  0  0  0  0  0  0  0  0  0
  145.3900   73.1910  219.3770 C   0  0  2  0  0  0  0  0  0  0  0  0
  146.3260   72.1740  219.3570 O   0  0  0  0  0  0  0  0  0  0  0  0
  145.1460   73.7360  220.7850 C   0  0  2  0  0  0  0  0  0  0  0  0
  144.8360   72.5960  221.5550 O   0  0  0  0  0  0  0  0  0  0  0  0
  143.8540   74.4840  220.5990 C   0  0  1  0  0  0  0  0  0  0  0  0
  143.9070   75.6910  219.7180 C   0  0  0  0  0  0  0  0  0  0  0  0
  142.9640   76.6000  219.7400 O   0  0  0  0  0  0  0  0  0  0  0  0
  142.2540   77.1890  218.8070 C   0  0  0  0  0  0  0  0  0  0  0  0
  142.1520   78.6560  218.7740 C   0  0  0  0  0  0  0  0  0  0  0  0
  141.3470   79.2430  219.7590 C   0  0  0  0  0  0  0  0  0  0  0  0
  141.1910   80.6150  219.8370 C   0  0  0  0  0  0  0  0  0  0  0  0
  141.8230   81.4480  218.9470 C   0  0  0  0  0  0  0  0  0  0  0  0
  142.6110   80.8800  217.9810 C   0  0  0  0  0  0  0  0  0  0  0  0
  142.7640   79.5110  217.9090 C   0  0  0  0  0  0  0  0  0  0  0  0
  140.2410   77.0510  222.4450 C   0  0  0  0  0  0  0  0  0  0  0  0
  139.1330   77.8470  222.6370 C   0  0  0  0  0  0  0  0  0  0  0  0
  139.2560   79.1770  222.9580 C   0  0  0  0  0  0  0  0  0  0  0  0
  140.4950   79.7530  223.0970 C   0  0  0  0  0  0  0  0  0  0  0  0
  140.6240   81.0830  223.4190 C   0  0  0  0  0  0  0  0  0  0  0  0
  141.8880   81.5940  223.5430 C   0  0  0  0  0  0  0  0  0  0  0  0
  142.9920   80.7940  223.3500 C   0  0  0  0  0  0  0  0  0  0  0  0
  142.8810   79.4440  223.0230 C   0  0  0  0  0  0  0  0  0  0  0  0
  141.6090   78.9330  222.8990 C   0  0  0  0  0  0  0  0  0  0  0  0
  141.4440   77.6390  222.5870 N   0  0  0  0  0  0  0  0  0  0  0  0
  142.0760   75.4540  221.3970 H   0  0  0  0  0  0  0  0  0  0  0  0
  141.3430   72.9262  222.0541 H   0  0  0  0  0  0  0  0  0  0  0  0
  139.9070   73.3717  221.0526 H   0  0  0  0  0  0  0  0  0  0  0  0
  143.8989   71.6362  219.1404 H   0  0  0  0  0  0  0  0  0  0  0  0
  143.7808   72.9120  217.9255 H   0  0  0  0  0  0  0  0  0  0  0  0
  145.8166   73.9283  218.6810 H   0  0  0  0  0  0  0  0  0  0  0  0
  146.2250   71.6200  220.1940 H   0  0  0  0  0  0  0  0  0  0  0  0
  145.9610   74.3280  221.2269 H   0  0  0  0  0  0  0  0  0  0  0  0
  145.5590   71.9270  221.4040 H   0  0  0  0  0  0  0  0  0  0  0  0
  143.4731   74.8732  221.5547 H   0  0  0  0  0  0  0  0  0  0  0  0
  144.8447   76.2117  219.9623 H   0  0  0  0  0  0  0  0  0  0  0  0
  143.7894   75.2549  218.7150 H   0  0  0  0  0  0  0  0  0  0  0  0
  142.6796   76.8789  217.8413 H   0  0  0  0  0  0  0  0  0  0  0  0
  141.2260   76.8700  219.0336 H   0  0  0  0  0  0  0  0  0  0  0  0
  140.8285   78.5996  220.4851 H   0  0  0  0  0  0  0  0  0  0  0  0
  140.5520   81.0447  220.6226 H   0  0  0  0  0  0  0  0  0  0  0  0
  141.7002   82.5394  219.0079 H   0  0  0  0  0  0  0  0  0  0  0  0
  143.1280   81.5235  217.2539 H   0  0  0  0  0  0  0  0  0  0  0  0
  143.4069   79.0929  217.1204 H   0  0  0  0  0  0  0  0  0  0  0  0
  138.1297   77.4087  222.5311 H   0  0  0  0  0  0  0  0  0  0  0  0
  138.3526   79.7871  223.1052 H   0  0  0  0  0  0  0  0  0  0  0  0
  139.7386   81.7175  223.5724 H   0  0  0  0  0  0  0  0  0  0  0  0
  142.0231   82.6551  223.7996 H   0  0  0  0  0  0  0  0  0  0  0  0
  143.9940   81.2349  223.4575 H   0  0  0  0  0  0  0  0  0  0  0  0
  143.7703   78.8147  222.8707 H   0  0  0  0  0  0  0  0  0  0  0  0
  1  2  2  0
  2  3  1  0
  3  4  1  0
  4  5  1  0
  5  6  2  0
  5  7  1  0
  7  8  1  0
  8  9  1  0
  9 10  1  0
  9 11  1  0
 11 12  1  0
 11 13  1  0
 13 14  1  0
 14 15  1  0
 15 16  1  0
 16 17  1  0
 17 18  2  0
 18 19  1  0
 19 20  2  0
 20 21  1  0
 21 22  2  0
  2 23  1  0
 23 24  2  0
 24 25  1  0
 25 26  2  0
 26 27  1  0
 27 28  2  0
 28 29  1  0
 29 30  2  0
 30 31  1  0
 31 32  2  0
 13  7  1  0
 22 17  1  0
 32 23  1  0
 31 26  1  0
  3 33  1  0
  4 34  1  0
  4 35  1  0
  8 36  1  0
  8 37  1  0
  9 38  1  6
 10 39  1  0
 11 40  1  1
 12 41  1  0
 13 42  1  1
 14 43  1  0
 14 44  1  0
 16 45  1  0
 16 46  1  0
 18 47  1  0
 19 48  1  0
 20 49  1  0
 21 50  1  0
 22 51  1  0
 24 52  1  0
 25 53  1  0
 27 54  1  0
 28 55  1  0
 29 56  1  0
 30 57  1  0
M  END
>  <smiles>  (42) 
O=C(NCC(=O)N1C[C@H](O)[C@H](O)[C@H]1COCc1ccccc1)c1ccc2ccccc2n1

>  <score_type>  (42) 
oracle

>  <origin>  (42) 
autodockgpu

>  <m_score__min__energy>  (42) 
-9.0299999999999994

>  <m_primary>  (42) 
energy

>  <rmsd>  (42) 
7.613589035181047

>  <m_score__min__rmsd>  (42) 
7.613589035181047

>  <meeko>  (42) 
{"free_energy": -7.76, "intermolecular_energy": -10.74, "internal_energy": -4.69, "cluster_size": 34, "cluster_id": 5, "rank_in_cluster": 9}

>  <energy>  (42) 
-7.22

>  <cluster_rmsd>  (42) 
0.82

>  <cluster>  (42) 
5

$$$$

     RDKit          3D

 57 60  0  0  0  0  0  0  0  0999 V2000
  138.8140   75.3590  221.9330 O   0  0  0  0  0  0  0  0  0  0  0  0
  139.9760   75.8510  221.8960 C   0  0  0  0  0  0  0  0  0  0  0  0
  141.0680   75.1090  221.3790 N   0  0  0  0  0  0  0  0  0  0  0  0
  140.7960   73.7700  220.8990 C   0  0  0  0  0  0  0  0  0  0  0  0
  141.9650   72.8680  221.1470 C   0  0  0  0  0  0  0  0  0  0  0  0
  141.8690   71.8840  221.9230 O   0  0  0  0  0  0  0  0  0  0  0  0
  143.1930   73.1010  220.5190 N   0  0  0  0  0  0  0  0  0  0  0  0
  143.9100   72.1220  219.7300 C   0  0  0  0  0  0  0  0  0  0  0  0
  145.2720   72.7450  219.4630 C   0  0  2  0  0  0  0  0  0  0  0  0
  146.3040   71.8270  219.5190 O   0  0  0  0  0  0  0  0  0  0  0  0
  145.3540   73.7900  220.5770 C   0  0  2  0  0  0  0  0  0  0  0  0
  145.4430   73.0330  221.7630 O   0  0  0  0  0  0  0  0  0  0  0  0
  143.9670   74.3700  220.5490 C   0  0  1  0  0  0  0  0  0  0  0  0
  143.5930   75.1380  219.3220 C   0  0  0  0  0  0  0  0  0  0  0  0
  142.5030   75.8620  219.2690 O   0  0  0  0  0  0  0  0  0  0  0  0
  141.9950   76.6690  218.3670 C   0  0  0  0  0  0  0  0  0  0  0  0
  142.0520   78.1260  218.5660 C   0  0  0  0  0  0  0  0  0  0  0  0
  141.2000   78.6490  219.5490 C   0  0  0  0  0  0  0  0  0  0  0  0
  141.1810   80.0020  219.8360 C   0  0  0  0  0  0  0  0  0  0  0  0
  141.9980   80.8770  219.1640 C   0  0  0  0  0  0  0  0  0  0  0  0
  142.8320   80.3710  218.2030 C   0  0  0  0  0  0  0  0  0  0  0  0
  142.8490   79.0210  217.9210 C   0  0  0  0  0  0  0  0  0  0  0  0
  140.2150   77.2020  222.3890 C   0  0  0  0  0  0  0  0  0  0  0  0
  139.1520   78.0030  222.7440 C   0  0  0  0  0  0  0  0  0  0  0  0
  139.3440   79.2800  223.2110 C   0  0  0  0  0  0  0  0  0  0  0  0
  140.6110   79.7970  223.3360 C   0  0  0  0  0  0  0  0  0  0  0  0
  140.8100   81.0740  223.8030 C   0  0  0  0  0  0  0  0  0  0  0  0
  142.0990   81.5270  223.9040 C   0  0  0  0  0  0  0  0  0  0  0  0
  143.1580   80.7220  223.5470 C   0  0  0  0  0  0  0  0  0  0  0  0
  142.9740   79.4250  223.0720 C   0  0  0  0  0  0  0  0  0  0  0  0
  141.6780   78.9720  222.9710 C   0  0  0  0  0  0  0  0  0  0  0  0
  141.4460   77.7310  222.5210 N   0  0  0  0  0  0  0  0  0  0  0  0
  142.0160   75.5510  221.3650 H   0  0  0  0  0  0  0  0  0  0  0  0
  139.9152   73.3710  221.4234 H   0  0  0  0  0  0  0  0  0  0  0  0
  140.6093   73.8151  219.8159 H   0  0  0  0  0  0  0  0  0  0  0  0
  144.0192   71.1810  220.2891 H   0  0  0  0  0  0  0  0  0  0  0  0
  143.3799   71.8773  218.7977 H   0  0  0  0  0  0  0  0  0  0  0  0
  145.3739   73.1635  218.4508 H   0  0  0  0  0  0  0  0  0  0  0  0
  146.4250   71.5290  220.4760 H   0  0  0  0  0  0  0  0  0  0  0  0
  146.1636   74.5300  220.4933 H   0  0  0  0  0  0  0  0  0  0  0  0
  145.5270   72.0750  221.5010 H   0  0  0  0  0  0  0  0  0  0  0  0
  143.8163   75.0910  221.3660 H   0  0  0  0  0  0  0  0  0  0  0  0
  144.4295   75.8228  219.1187 H   0  0  0  0  0  0  0  0  0  0  0  0
  143.3770   74.3362  218.6006 H   0  0  0  0  0  0  0  0  0  0  0  0
  142.5166   76.4572  217.4220 H   0  0  0  0  0  0  0  0  0  0  0  0
  140.9178   76.4503  218.4109 H   0  0  0  0  0  0  0  0  0  0  0  0
  140.5341   77.9706  220.1024 H   0  0  0  0  0  0  0  0  0  0  0  0
  140.5019   80.3821  220.6134 H   0  0  0  0  0  0  0  0  0  0  0  0
  141.9831   81.9532  219.3909 H   0  0  0  0  0  0  0  0  0  0  0  0
  143.4969   81.0499  217.6489 H   0  0  0  0  0  0  0  0  0  0  0  0
  143.5344   78.6528  217.1434 H   0  0  0  0  0  0  0  0  0  0  0  0
  138.1282   77.6116  222.6515 H   0  0  0  0  0  0  0  0  0  0  0  0
  138.4750   79.8951  223.4877 H   0  0  0  0  0  0  0  0  0  0  0  0
  139.9606   81.7127  224.0869 H   0  0  0  0  0  0  0  0  0  0  0  0
  142.2903   82.5450  224.2744 H   0  0  0  0  0  0  0  0  0  0  0  0
  144.1811   81.1153  223.6397 H   0  0  0  0  0  0  0  0  0  0  0  0
  143.8273   78.7907  222.7900 H   0  0  0  0  0  0  0  0  0  0  0  0
  1  2  2  0
  2  3  1  0
  3  4  1  0
  4  5  1  0
  5  6  2  0
  5  7  1  0
  7  8  1  0
  8  9  1  0
  9 10  1  0
  9 11  1  0
 11 12  1  0
 11 13  1  0
 13 14  1  0
 14 15  1  0
 15 16  1  0
 16 17  1  0
 17 18  2  0
 18 19  1  0
 19 20  2  0
 20 21  1  0
 21 22  2  0
  2 23  1  0
 23 24  2  0
 24 25  1  0
 25 26  2  0
 26 27  1  0
 27 28  2  0
 28 29  1  0
 29 30  2  0
 30 31  1  0
 31 32  2  0
 13  7  1  0
 22 17  1  0
 32 23  1  0
 31 26  1  0
  3 33  1  0
  4 34  1  0
  4 35  1  0
  8 36  1  0
  8 37  1  0
  9 38  1  6
 10 39  1  0
 11 40  1  6
 12 41  1  0
 13 42  1  1
 14 43  1  0
 14 44  1  0
 16 45  1  0
 16 46  1  0
 18 47  1  0
 19 48  1  0
 20 49  1  0
 21 50  1  0
 22 51  1  0
 24 52  1  0
 25 53  1  0
 27 54  1  0
 28 55  1  0
 29 56  1  0
 30 57  1  0
M  END
>  <smiles>  (43) 
O=C(NCC(=O)N1C[C@H](O)[C@H](O)[C@H]1COCc1ccccc1)c1ccc2ccccc2n1

>  <score_type>  (43) 
oracle

>  <origin>  (43) 
autodockgpu

>  <m_score__min__energy>  (43) 
-9.0299999999999994

>  <m_primary>  (43) 
energy

>  <rmsd>  (43) 
7.633845295671412

>  <m_score__min__rmsd>  (43) 
7.633845295671412

>  <meeko>  (43) 
{"free_energy": -8.08, "intermolecular_energy": -11.06, "internal_energy": -4.73, "cluster_size": 34, "cluster_id": 5, "rank_in_cluster": 3}

>  <energy>  (43) 
-7.1

>  <cluster_rmsd>  (43) 
0.83

>  <cluster>  (43) 
5

$$$$

     RDKit          3D

 57 60  0  0  0  0  0  0  0  0999 V2000
  139.1200   74.9080  222.3500 O   0  0  0  0  0  0  0  0  0  0  0  0
  140.0440   75.6270  221.8800 C   0  0  0  0  0  0  0  0  0  0  0  0
  140.9290   75.1280  220.8910 N   0  0  0  0  0  0  0  0  0  0  0  0
  140.7290   73.7650  220.4450 C   0  0  0  0  0  0  0  0  0  0  0  0
  141.8880   72.9020  220.8330 C   0  0  0  0  0  0  0  0  0  0  0  0
  141.7430   71.9460  221.6370 O   0  0  0  0  0  0  0  0  0  0  0  0
  143.1640   73.1400  220.3100 N   0  0  0  0  0  0  0  0  0  0  0  0
  143.9160   72.1900  219.5180 C   0  0  0  0  0  0  0  0  0  0  0  0
  145.3060   72.7950  219.3860 C   0  0  2  0  0  0  0  0  0  0  0  0
  146.3130   71.8510  219.4620 O   0  0  0  0  0  0  0  0  0  0  0  0
  145.3280   73.7730  220.5610 C   0  0  2  0  0  0  0  0  0  0  0  0
  145.3150   72.9480  221.7050 O   0  0  0  0  0  0  0  0  0  0  0  0
  143.9580   74.3860  220.4680 C   0  0  1  0  0  0  0  0  0  0  0  0
  143.6900   75.2310  219.2640 C   0  0  0  0  0  0  0  0  0  0  0  0
  143.3490   76.4920  219.3700 O   0  0  0  0  0  0  0  0  0  0  0  0
  142.8800   77.3770  218.5220 C   0  0  0  0  0  0  0  0  0  0  0  0
  141.9330   78.4060  218.9790 C   0  0  0  0  0  0  0  0  0  0  0  0
  140.5990   77.9980  219.1250 C   0  0  0  0  0  0  0  0  0  0  0  0
  139.6240   78.8750  219.5660 C   0  0  0  0  0  0  0  0  0  0  0  0
  139.9340   80.1760  219.8740 C   0  0  0  0  0  0  0  0  0  0  0  0
  141.2350   80.5800  219.7320 C   0  0  0  0  0  0  0  0  0  0  0  0
  142.2040   79.7020  219.2940 C   0  0  0  0  0  0  0  0  0  0  0  0
  140.2190   76.9950  222.3520 C   0  0  0  0  0  0  0  0  0  0  0  0
  139.1240   77.7320  222.7460 C   0  0  0  0  0  0  0  0  0  0  0  0
  139.2550   79.0240  223.1940 C   0  0  0  0  0  0  0  0  0  0  0  0
  140.4920   79.6190  223.2630 C   0  0  0  0  0  0  0  0  0  0  0  0
  140.6300   80.9110  223.7110 C   0  0  0  0  0  0  0  0  0  0  0  0
  141.8910   81.4440  223.7550 C   0  0  0  0  0  0  0  0  0  0  0  0
  142.9820   80.7030  223.3610 C   0  0  0  0  0  0  0  0  0  0  0  0
  142.8610   79.3920  222.9030 C   0  0  0  0  0  0  0  0  0  0  0  0
  141.5920   78.8580  222.8600 C   0  0  0  0  0  0  0  0  0  0  0  0
  141.4190   77.6010  222.4290 N   0  0  0  0  0  0  0  0  0  0  0  0
  141.6830   75.7540  220.5270 H   0  0  0  0  0  0  0  0  0  0  0  0
  139.8128   73.3661  220.9049 H   0  0  0  0  0  0  0  0  0  0  0  0
  140.6401   73.7629  219.3486 H   0  0  0  0  0  0  0  0  0  0  0  0
  143.9656   71.2163  220.0274 H   0  0  0  0  0  0  0  0  0  0  0  0
  143.4501   72.0109  218.5378 H   0  0  0  0  0  0  0  0  0  0  0  0
  145.4890   73.2677  218.4098 H   0  0  0  0  0  0  0  0  0  0  0  0
  146.3870   71.5290  220.4160 H   0  0  0  0  0  0  0  0  0  0  0  0
  146.1561   74.4968  220.5781 H   0  0  0  0  0  0  0  0  0  0  0  0
  145.4550   72.0100  221.3990 H   0  0  0  0  0  0  0  0  0  0  0  0
  143.7617   75.0629  221.3126 H   0  0  0  0  0  0  0  0  0  0  0  0
  144.6088   75.2087  218.6596 H   0  0  0  0  0  0  0  0  0  0  0  0
  142.7761   74.7746  218.8561 H   0  0  0  0  0  0  0  0  0  0  0  0
  143.7484   77.9079  218.1048 H   0  0  0  0  0  0  0  0  0  0  0  0
  142.2777   76.7693  217.8307 H   0  0  0  0  0  0  0  0  0  0  0  0
  140.3227   76.9608  218.8843 H   0  0  0  0  0  0  0  0  0  0  0  0
  138.5865   78.5248  219.6711 H   0  0  0  0  0  0  0  0  0  0  0  0
  139.1598   80.8743  220.2248 H   0  0  0  0  0  0  0  0  0  0  0  0
  141.5104   81.6180  219.9703 H   0  0  0  0  0  0  0  0  0  0  0  0
  143.2381   80.0639  219.1952 H   0  0  0  0  0  0  0  0  0  0  0  0
  138.1238   77.2765  222.7010 H   0  0  0  0  0  0  0  0  0  0  0  0
  138.3615   79.5877  223.5004 H   0  0  0  0  0  0  0  0  0  0  0  0
  139.7547   81.4989  224.0245 H   0  0  0  0  0  0  0  0  0  0  0  0
  142.0334   82.4757  224.1092 H   0  0  0  0  0  0  0  0  0  0  0  0
  143.9814   81.1600  223.4091 H   0  0  0  0  0  0  0  0  0  0  0  0
  143.7401   78.8096  222.5898 H   0  0  0  0  0  0  0  0  0  0  0  0
  1  2  2  0
  2  3  1  0
  3  4  1  0
  4  5  1  0
  5  6  2  0
  5  7  1  0
  7  8  1  0
  8  9  1  0
  9 10  1  0
  9 11  1  0
 11 12  1  0
 11 13  1  0
 13 14  1  0
 14 15  1  0
 15 16  1  0
 16 17  1  0
 17 18  2  0
 18 19  1  0
 19 20  2  0
 20 21  1  0
 21 22  2  0
  2 23  1  0
 23 24  2  0
 24 25  1  0
 25 26  2  0
 26 27  1  0
 27 28  2  0
 28 29  1  0
 29 30  2  0
 30 31  1  0
 31 32  2  0
 13  7  1  0
 22 17  1  0
 32 23  1  0
 31 26  1  0
  3 33  1  0
  4 34  1  0
  4 35  1  0
  8 36  1  0
  8 37  1  0
  9 38  1  6
 10 39  1  0
 11 40  1  6
 12 41  1  0
 13 42  1  1
 14 43  1  0
 14 44  1  0
 16 45  1  0
 16 46  1  0
 18 47  1  0
 19 48  1  0
 20 49  1  0
 21 50  1  0
 22 51  1  0
 24 52  1  0
 25 53  1  0
 27 54  1  0
 28 55  1  0
 29 56  1  0
 30 57  1  0
M  END
>  <smiles>  (44) 
O=C(NCC(=O)N1C[C@H](O)[C@H](O)[C@H]1COCc1ccccc1)c1ccc2ccccc2n1

>  <score_type>  (44) 
oracle

>  <origin>  (44) 
autodockgpu

>  <m_score__min__energy>  (44) 
-9.0299999999999994

>  <m_primary>  (44) 
energy

>  <rmsd>  (44) 
7.55015666087535

>  <m_score__min__rmsd>  (44) 
7.55015666087535

>  <meeko>  (44) 
{"free_energy": -7.65, "intermolecular_energy": -10.63, "internal_energy": -5.16, "cluster_size": 34, "cluster_id": 5, "rank_in_cluster": 16}

>  <energy>  (44) 
-7.09

>  <cluster_rmsd>  (44) 
0.93

>  <cluster>  (44) 
5

$$$$

     RDKit          3D

 57 60  0  0  0  0  0  0  0  0999 V2000
  137.7300   70.5520  221.8260 O   0  0  0  0  0  0  0  0  0  0  0  0
  138.3340   71.4180  222.5170 C   0  0  0  0  0  0  0  0  0  0  0  0
  138.3280   72.7860  222.1450 N   0  0  0  0  0  0  0  0  0  0  0  0
  137.6030   73.1460  220.9440 C   0  0  0  0  0  0  0  0  0  0  0  0
  137.4890   74.6330  220.8160 C   0  0  0  0  0  0  0  0  0  0  0  0
  136.4080   75.1720  220.4670 O   0  0  0  0  0  0  0  0  0  0  0  0
  138.5860   75.4600  221.0830 N   0  0  0  0  0  0  0  0  0  0  0  0
  139.6180   75.7870  220.1220 C   0  0  0  0  0  0  0  0  0  0  0  0
  140.6960   76.5010  220.9240 C   0  0  2  0  0  0  0  0  0  0  0  0
  141.9760   76.1630  220.5240 O   0  0  0  0  0  0  0  0  0  0  0  0
  140.3820   76.0310  222.3450 C   0  0  2  0  0  0  0  0  0  0  0  0
  140.6820   74.6530  222.3340 O   0  0  0  0  0  0  0  0  0  0  0  0
  138.8820   76.1360  222.3720 C   0  0  1  0  0  0  0  0  0  0  0  0
  138.3110   77.5150  222.2840 C   0  0  0  0  0  0  0  0  0  0  0  0
  138.6560   78.4570  223.1260 O   0  0  0  0  0  0  0  0  0  0  0  0
  139.1440   79.6670  222.9800 C   0  0  0  0  0  0  0  0  0  0  0  0
  140.5930   79.8950  223.0900 C   0  0  0  0  0  0  0  0  0  0  0  0
  140.9890   81.0240  223.8210 C   0  0  0  0  0  0  0  0  0  0  0  0
  142.3250   81.3280  224.0060 C   0  0  0  0  0  0  0  0  0  0  0  0
  143.3090   80.5320  223.4760 C   0  0  0  0  0  0  0  0  0  0  0  0
  142.9290   79.4280  222.7600 C   0  0  0  0  0  0  0  0  0  0  0  0
  141.5950   79.1280  222.5790 C   0  0  0  0  0  0  0  0  0  0  0  0
  139.0560   71.0210  223.7200 C   0  0  0  0  0  0  0  0  0  0  0  0
  140.0300   71.8440  224.2410 C   0  0  0  0  0  0  0  0  0  0  0  0
  140.7280   71.4970  225.3720 C   0  0  0  0  0  0  0  0  0  0  0  0
  140.4710   70.3130  226.0190 C   0  0  0  0  0  0  0  0  0  0  0  0
  141.1650   69.9610  227.1510 C   0  0  0  0  0  0  0  0  0  0  0  0
  140.8590   68.7660  227.7470 C   0  0  0  0  0  0  0  0  0  0  0  0
  139.8840   67.9480  227.2230 C   0  0  0  0  0  0  0  0  0  0  0  0
  139.1700   68.2890  226.0750 C   0  0  0  0  0  0  0  0  0  0  0  0
  139.4800   69.4900  225.4780 C   0  0  0  0  0  0  0  0  0  0  0  0
  138.8220   69.8660  224.3720 N   0  0  0  0  0  0  0  0  0  0  0  0
  138.8410   73.4740  222.7420 H   0  0  0  0  0  0  0  0  0  0  0  0
  138.1368   72.7487  220.0681 H   0  0  0  0  0  0  0  0  0  0  0  0
  136.5909   72.7191  221.0025 H   0  0  0  0  0  0  0  0  0  0  0  0
  140.0210   74.8726  219.6621 H   0  0  0  0  0  0  0  0  0  0  0  0
  139.2339   76.4110  219.3016 H   0  0  0  0  0  0  0  0  0  0  0  0
  140.6834   77.5943  220.8031 H   0  0  0  0  0  0  0  0  0  0  0  0
  142.4320   75.6660  221.2750 H   0  0  0  0  0  0  0  0  0  0  0  0
  140.8955   76.5627  223.1596 H   0  0  0  0  0  0  0  0  0  0  0  0
  141.0920   74.4430  221.4510 H   0  0  0  0  0  0  0  0  0  0  0  0
  138.4681   75.7408  223.3114 H   0  0  0  0  0  0  0  0  0  0  0  0
  138.5609   77.8900  221.2806 H   0  0  0  0  0  0  0  0  0  0  0  0
  137.2541   77.3480  222.5389 H   0  0  0  0  0  0  0  0  0  0  0  0
  138.8436   80.0117  221.9795 H   0  0  0  0  0  0  0  0  0  0  0  0
  138.7367   80.2095  223.8459 H   0  0  0  0  0  0  0  0  0  0  0  0
  140.2214   81.6810  224.2560 H   0  0  0  0  0  0  0  0  0  0  0  0
  142.6029   82.2203  224.5861 H   0  0  0  0  0  0  0  0  0  0  0  0
  144.3722   80.7735  223.6219 H   0  0  0  0  0  0  0  0  0  0  0  0
  143.6972   78.7725  222.3239 H   0  0  0  0  0  0  0  0  0  0  0  0
  141.3298   78.2324  221.9980 H   0  0  0  0  0  0  0  0  0  0  0  0
  140.2533   72.7982  223.7413 H   0  0  0  0  0  0  0  0  0  0  0  0
  141.5010   72.1745  225.7637 H   0  0  0  0  0  0  0  0  0  0  0  0
  141.9428   70.6187  227.5663 H   0  0  0  0  0  0  0  0  0  0  0  0
  141.3985   68.4568  228.6544 H   0  0  0  0  0  0  0  0  0  0  0  0
  139.6611   66.9953  227.7257 H   0  0  0  0  0  0  0  0  0  0  0  0
  138.3931   67.6274  225.6644 H   0  0  0  0  0  0  0  0  0  0  0  0
  1  2  2  0
  2  3  1  0
  3  4  1  0
  4  5  1  0
  5  6  2  0
  5  7  1  0
  7  8  1  0
  8  9  1  0
  9 10  1  0
  9 11  1  0
 11 12  1  0
 11 13  1  0
 13 14  1  0
 14 15  1  0
 15 16  1  0
 16 17  1  0
 17 18  2  0
 18 19  1  0
 19 20  2  0
 20 21  1  0
 21 22  2  0
  2 23  1  0
 23 24  2  0
 24 25  1  0
 25 26  2  0
 26 27  1  0
 27 28  2  0
 28 29  1  0
 29 30  2  0
 30 31  1  0
 31 32  2  0
 13  7  1  0
 22 17  1  0
 32 23  1  0
 31 26  1  0
  3 33  1  0
  4 34  1  0
  4 35  1  0
  8 36  1  0
  8 37  1  0
  9 38  1  1
 10 39  1  0
 11 40  1  1
 12 41  1  0
 13 42  1  1
 14 43  1  0
 14 44  1  0
 16 45  1  0
 16 46  1  0
 18 47  1  0
 19 48  1  0
 20 49  1  0
 21 50  1  0
 22 51  1  0
 24 52  1  0
 25 53  1  0
 27 54  1  0
 28 55  1  0
 29 56  1  0
 30 57  1  0
M  END
>  <smiles>  (45) 
O=C(NCC(=O)N1C[C@H](O)[C@H](O)[C@H]1COCc1ccccc1)c1ccc2ccccc2n1

>  <score_type>  (45) 
oracle

>  <origin>  (45) 
autodockgpu

>  <m_score__min__energy>  (45) 
-9.0299999999999994

>  <m_primary>  (45) 
energy

>  <rmsd>  (45) 
3.46368712017385

>  <m_score__min__rmsd>  (45) 
3.46368712017385

>  <meeko>  (45) 
{"free_energy": -8.27, "intermolecular_energy": -11.25, "internal_energy": -3.47, "cluster_size": 3, "cluster_id": 4, "rank_in_cluster": 1}

>  <energy>  (45) 
-6.98

>  <cluster_rmsd>  (45) 
1.1

>  <cluster>  (45) 
5

$$$$

     RDKit          3D

 57 60  0  0  0  0  0  0  0  0999 V2000
  139.1830   74.8760  222.3630 O   0  0  0  0  0  0  0  0  0  0  0  0
  140.0750   75.6210  221.8710 C   0  0  0  0  0  0  0  0  0  0  0  0
  140.9470   75.1490  220.8580 N   0  0  0  0  0  0  0  0  0  0  0  0
  140.7710   73.7820  220.4120 C   0  0  0  0  0  0  0  0  0  0  0  0
  141.9240   72.9290  220.8430 C   0  0  0  0  0  0  0  0  0  0  0  0
  141.7720   72.0190  221.6970 O   0  0  0  0  0  0  0  0  0  0  0  0
  143.2000   73.1270  220.3040 N   0  0  0  0  0  0  0  0  0  0  0  0
  143.9330   72.1350  219.5470 C   0  0  0  0  0  0  0  0  0  0  0  0
  145.3310   72.7120  219.3840 C   0  0  2  0  0  0  0  0  0  0  0  0
  146.3240   71.7560  219.4930 O   0  0  0  0  0  0  0  0  0  0  0  0
  145.3750   73.7350  220.5190 C   0  0  2  0  0  0  0  0  0  0  0  0
  145.3560   72.9570  221.6950 O   0  0  0  0  0  0  0  0  0  0  0  0
  144.0140   74.3660  220.4080 C   0  0  1  0  0  0  0  0  0  0  0  0
  143.7520   75.1670  219.1730 C   0  0  0  0  0  0  0  0  0  0  0  0
  143.2200   76.3620  219.2290 O   0  0  0  0  0  0  0  0  0  0  0  0
  142.4710   77.0590  218.4060 C   0  0  0  0  0  0  0  0  0  0  0  0
  141.9250   78.3580  218.8270 C   0  0  0  0  0  0  0  0  0  0  0  0
  140.6240   78.3420  219.3490 C   0  0  0  0  0  0  0  0  0  0  0  0
  140.0140   79.5000  219.7930 C   0  0  0  0  0  0  0  0  0  0  0  0
  140.6660   80.7070  219.7360 C   0  0  0  0  0  0  0  0  0  0  0  0
  141.9370   80.7290  219.2270 C   0  0  0  0  0  0  0  0  0  0  0  0
  142.5420   79.5700  218.7850 C   0  0  0  0  0  0  0  0  0  0  0  0
  140.2260   76.9920  222.3440 C   0  0  0  0  0  0  0  0  0  0  0  0
  139.1140   77.7200  222.7090 C   0  0  0  0  0  0  0  0  0  0  0  0
  139.2230   79.0140  223.1560 C   0  0  0  0  0  0  0  0  0  0  0  0
  140.4520   79.6210  223.2530 C   0  0  0  0  0  0  0  0  0  0  0  0
  140.5670   80.9150  223.7000 C   0  0  0  0  0  0  0  0  0  0  0  0
  141.8220   81.4610  223.7720 C   0  0  0  0  0  0  0  0  0  0  0  0
  142.9290   80.7290  223.4070 C   0  0  0  0  0  0  0  0  0  0  0  0
  142.8310   79.4150  222.9500 C   0  0  0  0  0  0  0  0  0  0  0  0
  141.5690   78.8690  222.8780 C   0  0  0  0  0  0  0  0  0  0  0  0
  141.4180   77.6090  222.4470 N   0  0  0  0  0  0  0  0  0  0  0  0
  141.6740   75.7960  220.4760 H   0  0  0  0  0  0  0  0  0  0  0  0
  139.8430   73.3786  220.8434 H   0  0  0  0  0  0  0  0  0  0  0  0
  140.7179   73.7738  219.3133 H   0  0  0  0  0  0  0  0  0  0  0  0
  143.9704   71.1817  220.0946 H   0  0  0  0  0  0  0  0  0  0  0  0
  143.4590   71.9246  218.5769 H   0  0  0  0  0  0  0  0  0  0  0  0
  145.5155   73.1424  218.3887 H   0  0  0  0  0  0  0  0  0  0  0  0
  146.4290   71.5020  220.4640 H   0  0  0  0  0  0  0  0  0  0  0  0
  146.2146   74.4455  220.5033 H   0  0  0  0  0  0  0  0  0  0  0  0
  145.4520   72.0030  221.4240 H   0  0  0  0  0  0  0  0  0  0  0  0
  143.8333   75.0794  221.2256 H   0  0  0  0  0  0  0  0  0  0  0  0
  144.7222   75.2835  218.6679 H   0  0  0  0  0  0  0  0  0  0  0  0
  142.9635   74.5821  218.6768 H   0  0  0  0  0  0  0  0  0  0  0  0
  143.0767   77.2459  217.5070 H   0  0  0  0  0  0  0  0  0  0  0  0
  141.5733   76.4336  218.2913 H   0  0  0  0  0  0  0  0  0  0  0  0
  140.0778   77.3889  219.4063 H   0  0  0  0  0  0  0  0  0  0  0  0
  138.9922   79.4540  220.1976 H   0  0  0  0  0  0  0  0  0  0  0  0
  140.1815   81.6293  220.0889 H   0  0  0  0  0  0  0  0  0  0  0  0
  142.4827   81.6824  219.1697 H   0  0  0  0  0  0  0  0  0  0  0  0
  143.5641   79.6284  218.3826 H   0  0  0  0  0  0  0  0  0  0  0  0
  138.1193   77.2553  222.6409 H   0  0  0  0  0  0  0  0  0  0  0  0
  138.3173   79.5702  223.4393 H   0  0  0  0  0  0  0  0  0  0  0  0
  139.6789   81.4951  223.9912 H   0  0  0  0  0  0  0  0  0  0  0  0
  141.9459   82.4953  224.1253 H   0  0  0  0  0  0  0  0  0  0  0  0
  143.9227   81.1953  223.4780 H   0  0  0  0  0  0  0  0  0  0  0  0
  143.7227   78.8400  222.6598 H   0  0  0  0  0  0  0  0  0  0  0  0
  1  2  2  0
  2  3  1  0
  3  4  1  0
  4  5  1  0
  5  6  2  0
  5  7  1  0
  7  8  1  0
  8  9  1  0
  9 10  1  0
  9 11  1  0
 11 12  1  0
 11 13  1  0
 13 14  1  0
 14 15  1  0
 15 16  1  0
 16 17  1  0
 17 18  2  0
 18 19  1  0
 19 20  2  0
 20 21  1  0
 21 22  2  0
  2 23  1  0
 23 24  2  0
 24 25  1  0
 25 26  2  0
 26 27  1  0
 27 28  2  0
 28 29  1  0
 29 30  2  0
 30 31  1  0
 31 32  2  0
 13  7  1  0
 22 17  1  0
 32 23  1  0
 31 26  1  0
  3 33  1  0
  4 34  1  0
  4 35  1  0
  8 36  1  0
  8 37  1  0
  9 38  1  6
 10 39  1  0
 11 40  1  6
 12 41  1  0
 13 42  1  1
 14 43  1  0
 14 44  1  0
 16 45  1  0
 16 46  1  0
 18 47  1  0
 19 48  1  0
 20 49  1  0
 21 50  1  0
 22 51  1  0
 24 52  1  0
 25 53  1  0
 27 54  1  0
 28 55  1  0
 29 56  1  0
 30 57  1  0
M  END
>  <smiles>  (46) 
O=C(NCC(=O)N1C[C@H](O)[C@H](O)[C@H]1COCc1ccccc1)c1ccc2ccccc2n1

>  <score_type>  (46) 
oracle

>  <origin>  (46) 
autodockgpu

>  <m_score__min__energy>  (46) 
-9.0299999999999994

>  <m_primary>  (46) 
energy

>  <rmsd>  (46) 
7.561963150702709

>  <m_score__min__rmsd>  (46) 
7.561963150702709

>  <meeko>  (46) 
{"free_energy": -7.74, "intermolecular_energy": -10.72, "internal_energy": -5.03, "cluster_size": 34, "cluster_id": 5, "rank_in_cluster": 10}

>  <energy>  (46) 
-6.98

>  <cluster_rmsd>  (46) 
1.12

>  <cluster>  (46) 
5

$$$$

     RDKit          3D

 57 60  0  0  0  0  0  0  0  0999 V2000
  136.1750   72.1500  221.5440 O   0  0  0  0  0  0  0  0  0  0  0  0
  136.5360   72.8350  222.5410 C   0  0  0  0  0  0  0  0  0  0  0  0
  136.1830   72.4510  223.8600 N   0  0  0  0  0  0  0  0  0  0  0  0
  135.3950   71.2450  224.0140 C   0  0  0  0  0  0  0  0  0  0  0  0
  136.2790   70.0470  224.1670 C   0  0  0  0  0  0  0  0  0  0  0  0
  135.8420   68.9790  224.6670 O   0  0  0  0  0  0  0  0  0  0  0  0
  137.6170   70.0890  223.7580 N   0  0  0  0  0  0  0  0  0  0  0  0
  138.5590   71.1190  224.1400 C   0  0  0  0  0  0  0  0  0  0  0  0
  139.7880   70.8730  223.2770 C   0  0  2  0  0  0  0  0  0  0  0  0
  140.3790   72.0430  222.8370 O   0  0  0  0  0  0  0  0  0  0  0  0
  139.1990   70.0470  222.1330 C   0  0  2  0  0  0  0  0  0  0  0  0
  138.3550   70.9450  221.4490 O   0  0  0  0  0  0  0  0  0  0  0  0
  138.2960   69.1030  222.8780 C   0  0  1  0  0  0  0  0  0  0  0  0
  138.9660   68.1080  223.7710 C   0  0  0  0  0  0  0  0  0  0  0  0
  138.8120   68.1380  225.0720 O   0  0  0  0  0  0  0  0  0  0  0  0
  139.6490   68.1890  226.0810 C   0  0  0  0  0  0  0  0  0  0  0  0
  140.1270   69.4890  226.5770 C   0  0  0  0  0  0  0  0  0  0  0  0
  139.5810   69.9260  227.7920 C   0  0  0  0  0  0  0  0  0  0  0  0
  139.9690   71.1240  228.3640 C   0  0  0  0  0  0  0  0  0  0  0  0
  140.9050   71.9250  227.7570 C   0  0  0  0  0  0  0  0  0  0  0  0
  141.4420   71.5030  226.5700 C   0  0  0  0  0  0  0  0  0  0  0  0
  141.0520   70.3060  226.0040 C   0  0  0  0  0  0  0  0  0  0  0  0
  137.3280   74.0440  222.3510 C   0  0  0  0  0  0  0  0  0  0  0  0
  136.7620   75.2800  222.5740 C   0  0  0  0  0  0  0  0  0  0  0  0
  137.4830   76.4370  222.4010 C   0  0  0  0  0  0  0  0  0  0  0  0
  138.7960   76.3910  222.0000 C   0  0  0  0  0  0  0  0  0  0  0  0
  139.5210   77.5450  221.8260 C   0  0  0  0  0  0  0  0  0  0  0  0
  140.8250   77.4300  221.4240 C   0  0  0  0  0  0  0  0  0  0  0  0
  141.3860   76.1920  221.2030 C   0  0  0  0  0  0  0  0  0  0  0  0
  140.6650   75.0110  221.3740 C   0  0  0  0  0  0  0  0  0  0  0  0
  139.3550   75.1300  221.7770 C   0  0  0  0  0  0  0  0  0  0  0  0
  138.6160   74.0260  221.9580 N   0  0  0  0  0  0  0  0  0  0  0  0
  136.5010   73.0440  224.6600 H   0  0  0  0  0  0  0  0  0  0  0  0
  134.7602   71.3409  224.9072 H   0  0  0  0  0  0  0  0  0  0  0  0
  134.7749   71.1125  223.1152 H   0  0  0  0  0  0  0  0  0  0  0  0
  138.1413   72.1171  223.9414 H   0  0  0  0  0  0  0  0  0  0  0  0
  138.7957   71.0830  225.2136 H   0  0  0  0  0  0  0  0  0  0  0  0
  140.6082   70.3719  223.8120 H   0  0  0  0  0  0  0  0  0  0  0  0
  139.8960   72.3620  222.0110 H   0  0  0  0  0  0  0  0  0  0  0  0
  139.9206   69.5598  221.4608 H   0  0  0  0  0  0  0  0  0  0  0  0
  138.4100   71.8230  221.9170 H   0  0  0  0  0  0  0  0  0  0  0  0
  137.7078   68.4804  222.1878 H   0  0  0  0  0  0  0  0  0  0  0  0
  138.6230   67.1161  223.4415 H   0  0  0  0  0  0  0  0  0  0  0  0
  140.0288   68.3666  223.6545 H   0  0  0  0  0  0  0  0  0  0  0  0
  139.1564   67.6881  226.9274 H   0  0  0  0  0  0  0  0  0  0  0  0
  140.5598   67.7229  225.6769 H   0  0  0  0  0  0  0  0  0  0  0  0
  138.8294   69.3041  228.3003 H   0  0  0  0  0  0  0  0  0  0  0  0
  139.5218   71.4396  229.3182 H   0  0  0  0  0  0  0  0  0  0  0  0
  141.2144   72.8779  228.2111 H   0  0  0  0  0  0  0  0  0  0  0  0
  142.1931   72.1254  226.0616 H   0  0  0  0  0  0  0  0  0  0  0  0
  141.5076   70.0000  225.0507 H   0  0  0  0  0  0  0  0  0  0  0  0
  135.7123   75.3420  222.8969 H   0  0  0  0  0  0  0  0  0  0  0  0
  137.0039   77.4098  222.5855 H   0  0  0  0  0  0  0  0  0  0  0  0
  139.0678   78.5313  222.0042 H   0  0  0  0  0  0  0  0  0  0  0  0
  141.4308   78.3362  221.2760 H   0  0  0  0  0  0  0  0  0  0  0  0
  142.4363   76.1330  220.8814 H   0  0  0  0  0  0  0  0  0  0  0  0
  141.1234   74.0273  221.1946 H   0  0  0  0  0  0  0  0  0  0  0  0
  1  2  2  0
  2  3  1  0
  3  4  1  0
  4  5  1  0
  5  6  2  0
  5  7  1  0
  7  8  1  0
  8  9  1  0
  9 10  1  0
  9 11  1  0
 11 12  1  0
 11 13  1  0
 13 14  1  0
 14 15  1  0
 15 16  1  0
 16 17  1  0
 17 18  2  0
 18 19  1  0
 19 20  2  0
 20 21  1  0
 21 22  2  0
  2 23  1  0
 23 24  2  0
 24 25  1  0
 25 26  2  0
 26 27  1  0
 27 28  2  0
 28 29  1  0
 29 30  2  0
 30 31  1  0
 31 32  2  0
 13  7  1  0
 22 17  1  0
 32 23  1  0
 31 26  1  0
  3 33  1  0
  4 34  1  0
  4 35  1  0
  8 36  1  0
  8 37  1  0
  9 38  1  1
 10 39  1  0
 11 40  1  6
 12 41  1  0
 13 42  1  6
 14 43  1  0
 14 44  1  0
 16 45  1  0
 16 46  1  0
 18 47  1  0
 19 48  1  0
 20 49  1  0
 21 50  1  0
 22 51  1  0
 24 52  1  0
 25 53  1  0
 27 54  1  0
 28 55  1  0
 29 56  1  0
 30 57  1  0
M  END
>  <smiles>  (47) 
O=C(NCC(=O)N1C[C@H](O)[C@H](O)[C@H]1COCc1ccccc1)c1ccc2ccccc2n1

>  <score_type>  (47) 
oracle

>  <origin>  (47) 
autodockgpu

>  <m_score__min__energy>  (47) 
-9.0299999999999994

>  <m_primary>  (47) 
energy

>  <rmsd>  (47) 
7.701613913839197

>  <m_score__min__rmsd>  (47) 
7.701613913839197

>  <meeko>  (47) 
{"free_energy": -7.0, "intermolecular_energy": -9.98, "internal_energy": -5.18, "cluster_size": 1, "cluster_id": 7, "rank_in_cluster": 1}

>  <energy>  (47) 
-6.9

>  <cluster_rmsd>  (47) 
0.82

>  <cluster>  (47) 
5

$$$$

     RDKit          3D

 57 60  0  0  0  0  0  0  0  0999 V2000
  139.1910   74.8180  222.3840 O   0  0  0  0  0  0  0  0  0  0  0  0
  140.0580   75.5800  221.8730 C   0  0  0  0  0  0  0  0  0  0  0  0
  140.9090   75.1270  220.8330 N   0  0  0  0  0  0  0  0  0  0  0  0
  140.7430   73.7590  220.3850 C   0  0  0  0  0  0  0  0  0  0  0  0
  141.9100   72.9180  220.8000 C   0  0  0  0  0  0  0  0  0  0  0  0
  141.7690   71.9770  221.6210 O   0  0  0  0  0  0  0  0  0  0  0  0
  143.1860   73.1610  220.2810 N   0  0  0  0  0  0  0  0  0  0  0  0
  143.9260   72.2320  219.4530 C   0  0  0  0  0  0  0  0  0  0  0  0
  145.3220   72.8240  219.3390 C   0  0  2  0  0  0  0  0  0  0  0  0
  146.3180   71.8670  219.3780 O   0  0  0  0  0  0  0  0  0  0  0  0
  145.3580   73.7590  220.5490 C   0  0  2  0  0  0  0  0  0  0  0  0
  145.3390   72.8930  221.6620 O   0  0  0  0  0  0  0  0  0  0  0  0
  143.9950   74.3910  220.4820 C   0  0  1  0  0  0  0  0  0  0  0  0
  143.7340   75.2820  219.3110 C   0  0  0  0  0  0  0  0  0  0  0  0
  142.9040   76.2930  219.3880 O   0  0  0  0  0  0  0  0  0  0  0  0
  142.7940   77.4250  218.7320 C   0  0  0  0  0  0  0  0  0  0  0  0
  141.7600   78.4000  219.1130 C   0  0  0  0  0  0  0  0  0  0  0  0
  142.2010   79.7100  219.3440 C   0  0  0  0  0  0  0  0  0  0  0  0
  141.3170   80.7150  219.6900 C   0  0  0  0  0  0  0  0  0  0  0  0
  139.9740   80.4600  219.8190 C   0  0  0  0  0  0  0  0  0  0  0  0
  139.5380   79.1810  219.5950 C   0  0  0  0  0  0  0  0  0  0  0  0
  140.4240   78.1820  219.2480 C   0  0  0  0  0  0  0  0  0  0  0  0
  140.1990   76.9500  222.3480 C   0  0  0  0  0  0  0  0  0  0  0  0
  139.0830   77.6730  222.7080 C   0  0  0  0  0  0  0  0  0  0  0  0
  139.1830   78.9660  223.1580 C   0  0  0  0  0  0  0  0  0  0  0  0
  140.4090   79.5790  223.2630 C   0  0  0  0  0  0  0  0  0  0  0  0
  140.5160   80.8720  223.7140 C   0  0  0  0  0  0  0  0  0  0  0  0
  141.7670   81.4230  223.7940 C   0  0  0  0  0  0  0  0  0  0  0  0
  142.8800   80.6970  223.4340 C   0  0  0  0  0  0  0  0  0  0  0  0
  142.7900   79.3840  222.9740 C   0  0  0  0  0  0  0  0  0  0  0  0
  141.5310   78.8330  222.8940 C   0  0  0  0  0  0  0  0  0  0  0  0
  141.3890   77.5730  222.4600 N   0  0  0  0  0  0  0  0  0  0  0  0
  141.6150   75.7870  220.4350 H   0  0  0  0  0  0  0  0  0  0  0  0
  139.8246   73.3441  220.8260 H   0  0  0  0  0  0  0  0  0  0  0  0
  140.6772   73.7533  219.2870 H   0  0  0  0  0  0  0  0  0  0  0  0
  143.9652   71.2400  219.9266 H   0  0  0  0  0  0  0  0  0  0  0  0
  143.4559   72.0949  218.4680 H   0  0  0  0  0  0  0  0  0  0  0  0
  145.5084   73.3289  218.3796 H   0  0  0  0  0  0  0  0  0  0  0  0
  146.3700   71.4870  220.3110 H   0  0  0  0  0  0  0  0  0  0  0  0
  146.1941   74.4726  220.5902 H   0  0  0  0  0  0  0  0  0  0  0  0
  145.9950   72.1640  221.4860 H   0  0  0  0  0  0  0  0  0  0  0  0
  143.8089   75.0390  221.3512 H   0  0  0  0  0  0  0  0  0  0  0  0
  144.7076   75.7023  219.0186 H   0  0  0  0  0  0  0  0  0  0  0  0
  143.2176   74.6069  218.6127 H   0  0  0  0  0  0  0  0  0  0  0  0
  143.7626   77.9387  218.8209 H   0  0  0  0  0  0  0  0  0  0  0  0
  142.4809   77.1049  217.7273 H   0  0  0  0  0  0  0  0  0  0  0  0
  143.2717   79.9432  219.2481 H   0  0  0  0  0  0  0  0  0  0  0  0
  141.6948   81.7332  219.8644 H   0  0  0  0  0  0  0  0  0  0  0  0
  139.2695   81.2588  220.0939 H   0  0  0  0  0  0  0  0  0  0  0  0
  138.4676   78.9473  219.6930 H   0  0  0  0  0  0  0  0  0  0  0  0
  140.0344   77.1682  219.0734 H   0  0  0  0  0  0  0  0  0  0  0  0
  138.0907   77.2042  222.6332 H   0  0  0  0  0  0  0  0  0  0  0  0
  138.2730   79.5172  223.4374 H   0  0  0  0  0  0  0  0  0  0  0  0
  139.6239   81.4474  224.0022 H   0  0  0  0  0  0  0  0  0  0  0  0
  141.8840   82.4572  224.1499 H   0  0  0  0  0  0  0  0  0  0  0  0
  143.8712   81.1676  223.5117 H   0  0  0  0  0  0  0  0  0  0  0  0
  143.6857   78.8134  222.6875 H   0  0  0  0  0  0  0  0  0  0  0  0
  1  2  2  0
  2  3  1  0
  3  4  1  0
  4  5  1  0
  5  6  2  0
  5  7  1  0
  7  8  1  0
  8  9  1  0
  9 10  1  0
  9 11  1  0
 11 12  1  0
 11 13  1  0
 13 14  1  0
 14 15  1  0
 15 16  1  0
 16 17  1  0
 17 18  2  0
 18 19  1  0
 19 20  2  0
 20 21  1  0
 21 22  2  0
  2 23  1  0
 23 24  2  0
 24 25  1  0
 25 26  2  0
 26 27  1  0
 27 28  2  0
 28 29  1  0
 29 30  2  0
 30 31  1  0
 31 32  2  0
 13  7  1  0
 22 17  1  0
 32 23  1  0
 31 26  1  0
  3 33  1  0
  4 34  1  0
  4 35  1  0
  8 36  1  0
  8 37  1  0
  9 38  1  6
 10 39  1  0
 11 40  1  6
 12 41  1  0
 13 42  1  1
 14 43  1  0
 14 44  1  0
 16 45  1  0
 16 46  1  0
 18 47  1  0
 19 48  1  0
 20 49  1  0
 21 50  1  0
 22 51  1  0
 24 52  1  0
 25 53  1  0
 27 54  1  0
 28 55  1  0
 29 56  1  0
 30 57  1  0
M  END
>  <smiles>  (48) 
O=C(NCC(=O)N1C[C@H](O)[C@H](O)[C@H]1COCc1ccccc1)c1ccc2ccccc2n1

>  <score_type>  (48) 
oracle

>  <origin>  (48) 
autodockgpu

>  <m_score__min__energy>  (48) 
-9.0299999999999994

>  <m_primary>  (48) 
energy

>  <rmsd>  (48) 
7.529720822435123

>  <m_score__min__rmsd>  (48) 
7.529720822435123

>  <meeko>  (48) 
{"free_energy": -7.6, "intermolecular_energy": -10.59, "internal_energy": -5.18, "cluster_size": 34, "cluster_id": 5, "rank_in_cluster": 20}

>  <energy>  (48) 
-6.62

>  <cluster_rmsd>  (48) 
1.85

>  <cluster>  (48) 
5

$$$$

     RDKit          3D

 57 60  0  0  0  0  0  0  0  0999 V2000
  138.8900   75.3310  221.9820 O   0  0  0  0  0  0  0  0  0  0  0  0
  140.0180   75.8820  221.8610 C   0  0  0  0  0  0  0  0  0  0  0  0
  141.0990   75.2100  221.2370 N   0  0  0  0  0  0  0  0  0  0  0  0
  140.8550   73.8700  220.7460 C   0  0  0  0  0  0  0  0  0  0  0  0
  141.9970   72.9630  221.0850 C   0  0  0  0  0  0  0  0  0  0  0  0
  141.8600   72.0380  221.9260 O   0  0  0  0  0  0  0  0  0  0  0  0
  143.2440   73.1240  220.4730 N   0  0  0  0  0  0  0  0  0  0  0  0
  143.9250   72.0960  219.7140 C   0  0  0  0  0  0  0  0  0  0  0  0
  145.3190   72.6480  219.4580 C   0  0  2  0  0  0  0  0  0  0  0  0
  146.3050   71.6830  219.5480 O   0  0  0  0  0  0  0  0  0  0  0  0
  145.4350   73.7100  220.5520 C   0  0  2  0  0  0  0  0  0  0  0  0
  145.4690   72.9740  221.7540 O   0  0  0  0  0  0  0  0  0  0  0  0
  144.0770   74.3550  220.4900 C   0  0  1  0  0  0  0  0  0  0  0  0
  143.7590   75.1150  219.2420 C   0  0  0  0  0  0  0  0  0  0  0  0
  142.9170   76.1180  219.2440 O   0  0  0  0  0  0  0  0  0  0  0  0
  142.8900   77.2780  218.6310 C   0  0  0  0  0  0  0  0  0  0  0  0
  141.9150   78.3030  219.0350 C   0  0  0  0  0  0  0  0  0  0  0  0
  140.5700   77.9080  219.0440 C   0  0  0  0  0  0  0  0  0  0  0  0
  139.5680   78.7820  219.4240 C   0  0  0  0  0  0  0  0  0  0  0  0
  139.8600   80.0680  219.8050 C   0  0  0  0  0  0  0  0  0  0  0  0
  141.1730   80.4590  219.7980 C   0  0  0  0  0  0  0  0  0  0  0  0
  142.1690   79.5840  219.4190 C   0  0  0  0  0  0  0  0  0  0  0  0
  140.2300   77.2330  222.3680 C   0  0  0  0  0  0  0  0  0  0  0  0
  139.1520   78.0020  222.7480 C   0  0  0  0  0  0  0  0  0  0  0  0
  139.3190   79.2790  223.2280 C   0  0  0  0  0  0  0  0  0  0  0  0
  140.5740   79.8250  223.3430 C   0  0  0  0  0  0  0  0  0  0  0  0
  140.7480   81.1010  223.8230 C   0  0  0  0  0  0  0  0  0  0  0  0
  142.0260   81.5860  223.9130 C   0  0  0  0  0  0  0  0  0  0  0  0
  143.0990   80.8120  223.5320 C   0  0  0  0  0  0  0  0  0  0  0  0
  142.9420   79.5170  223.0420 C   0  0  0  0  0  0  0  0  0  0  0  0
  141.6570   79.0320  222.9540 C   0  0  0  0  0  0  0  0  0  0  0  0
  141.4490   77.7910  222.4900 N   0  0  0  0  0  0  0  0  0  0  0  0
  142.0190   75.7010  221.1560 H   0  0  0  0  0  0  0  0  0  0  0  0
  139.9354   73.4793  221.2061 H   0  0  0  0  0  0  0  0  0  0  0  0
  140.7491   73.9094  219.6518 H   0  0  0  0  0  0  0  0  0  0  0  0
  143.9800   71.1619  220.2923 H   0  0  0  0  0  0  0  0  0  0  0  0
  143.3982   71.8585  218.7780 H   0  0  0  0  0  0  0  0  0  0  0  0
  145.4558   73.0411  218.4398 H   0  0  0  0  0  0  0  0  0  0  0  0
  146.4900   71.4950  220.5220 H   0  0  0  0  0  0  0  0  0  0  0  0
  146.2807   74.4083  220.4670 H   0  0  0  0  0  0  0  0  0  0  0  0
  145.4960   72.0080  221.5120 H   0  0  0  0  0  0  0  0  0  0  0  0
  143.9483   75.0990  221.2899 H   0  0  0  0  0  0  0  0  0  0  0  0
  144.7145   75.5136  218.8703 H   0  0  0  0  0  0  0  0  0  0  0  0
  143.2281   74.3640  218.6386 H   0  0  0  0  0  0  0  0  0  0  0  0
  143.8880   77.7242  218.7525 H   0  0  0  0  0  0  0  0  0  0  0  0
  142.5725   77.0165  217.6108 H   0  0  0  0  0  0  0  0  0  0  0  0
  140.3066   76.8833  218.7431 H   0  0  0  0  0  0  0  0  0  0  0  0
  138.5219   78.4418  219.4209 H   0  0  0  0  0  0  0  0  0  0  0  0
  139.0634   80.7639  220.1069 H   0  0  0  0  0  0  0  0  0  0  0  0
  141.4360   81.4839  220.0985 H   0  0  0  0  0  0  0  0  0  0  0  0
  143.2113   79.9355  219.4273 H   0  0  0  0  0  0  0  0  0  0  0  0
  138.1372   77.5856  222.6656 H   0  0  0  0  0  0  0  0  0  0  0  0
  138.4390   79.8695  223.5229 H   0  0  0  0  0  0  0  0  0  0  0  0
  139.8867   81.7146  224.1259 H   0  0  0  0  0  0  0  0  0  0  0  0
  142.1966   82.6039  224.2934 H   0  0  0  0  0  0  0  0  0  0  0  0
  144.1131   81.2294  223.6172 H   0  0  0  0  0  0  0  0  0  0  0  0
  143.8071   78.9090  222.7389 H   0  0  0  0  0  0  0  0  0  0  0  0
  1  2  2  0
  2  3  1  0
  3  4  1  0
  4  5  1  0
  5  6  2  0
  5  7  1  0
  7  8  1  0
  8  9  1  0
  9 10  1  0
  9 11  1  0
 11 12  1  0
 11 13  1  0
 13 14  1  0
 14 15  1  0
 15 16  1  0
 16 17  1  0
 17 18  2  0
 18 19  1  0
 19 20  2  0
 20 21  1  0
 21 22  2  0
  2 23  1  0
 23 24  2  0
 24 25  1  0
 25 26  2  0
 26 27  1  0
 27 28  2  0
 28 29  1  0
 29 30  2  0
 30 31  1  0
 31 32  2  0
 13  7  1  0
 22 17  1  0
 32 23  1  0
 31 26  1  0
  3 33  1  0
  4 34  1  0
  4 35  1  0
  8 36  1  0
  8 37  1  0
  9 38  1  6
 10 39  1  0
 11 40  1  6
 12 41  1  0
 13 42  1  1
 14 43  1  0
 14 44  1  0
 16 45  1  0
 16 46  1  0
 18 47  1  0
 19 48  1  0
 20 49  1  0
 21 50  1  0
 22 51  1  0
 24 52  1  0
 25 53  1  0
 27 54  1  0
 28 55  1  0
 29 56  1  0
 30 57  1  0
M  END
>  <smiles>  (49) 
O=C(NCC(=O)N1C[C@H](O)[C@H](O)[C@H]1COCc1ccccc1)c1ccc2ccccc2n1

>  <score_type>  (49) 
oracle

>  <origin>  (49) 
autodockgpu

>  <m_score__min__energy>  (49) 
-9.0299999999999994

>  <m_primary>  (49) 
energy

>  <rmsd>  (49) 
7.672891401065723

>  <m_score__min__rmsd>  (49) 
7.672891401065723

>  <meeko>  (49) 
{"free_energy": -7.61, "intermolecular_energy": -10.59, "internal_energy": -5.23, "cluster_size": 34, "cluster_id": 5, "rank_in_cluster": 19}

>  <energy>  (49) 
-7.29

>  <cluster_rmsd>  (49) 
0.0

>  <cluster>  (49) 
6

$$$$

     RDKit          3D

 57 60  0  0  0  0  0  0  0  0999 V2000
  141.3880   72.0010  221.6640 O   0  0  0  0  0  0  0  0  0  0  0  0
  140.4620   72.2940  222.4710 C   0  0  0  0  0  0  0  0  0  0  0  0
  139.5850   73.3780  222.2170 N   0  0  0  0  0  0  0  0  0  0  0  0
  139.7940   74.1320  220.9980 C   0  0  0  0  0  0  0  0  0  0  0  0
  140.8690   75.1570  221.1840 C   0  0  0  0  0  0  0  0  0  0  0  0
  141.1840   75.5640  222.3310 O   0  0  0  0  0  0  0  0  0  0  0  0
  141.5490   75.6870  220.0820 N   0  0  0  0  0  0  0  0  0  0  0  0
  141.8350   74.9570  218.8660 C   0  0  0  0  0  0  0  0  0  0  0  0
  142.7780   75.8520  218.0770 C   0  0  2  0  0  0  0  0  0  0  0  0
  143.7720   75.1460  217.4250 O   0  0  0  0  0  0  0  0  0  0  0  0
  143.3290   76.7620  219.1750 C   0  0  2  0  0  0  0  0  0  0  0  0
  144.1090   75.9060  219.9810 O   0  0  0  0  0  0  0  0  0  0  0  0
  142.0860   77.0680  219.9650 C   0  0  1  0  0  0  0  0  0  0  0  0
  141.0440   77.8850  219.2700 C   0  0  0  0  0  0  0  0  0  0  0  0
  139.9040   78.1770  219.8450 O   0  0  0  0  0  0  0  0  0  0  0  0
  139.5820   78.8220  220.9420 C   0  0  0  0  0  0  0  0  0  0  0  0
  140.6250   79.1940  221.9100 C   0  0  0  0  0  0  0  0  0  0  0  0
  141.3770   80.3360  221.6010 C   0  0  0  0  0  0  0  0  0  0  0  0
  142.3730   80.7910  222.4470 C   0  0  0  0  0  0  0  0  0  0  0  0
  142.6560   80.1360  223.6190 C   0  0  0  0  0  0  0  0  0  0  0  0
  141.9240   79.0190  223.9270 C   0  0  0  0  0  0  0  0  0  0  0  0
  140.9320   78.5700  223.0800 C   0  0  0  0  0  0  0  0  0  0  0  0
  140.2800   71.5140  223.6900 C   0  0  0  0  0  0  0  0  0  0  0  0
  139.6160   70.3080  223.6420 C   0  0  0  0  0  0  0  0  0  0  0  0
  139.4280   69.5510  224.7730 C   0  0  0  0  0  0  0  0  0  0  0  0
  139.9000   69.9800  225.9900 C   0  0  0  0  0  0  0  0  0  0  0  0
  139.7150   69.2270  227.1240 C   0  0  0  0  0  0  0  0  0  0  0  0
  140.2110   69.7130  228.3050 C   0  0  0  0  0  0  0  0  0  0  0  0
  140.8740   70.9180  228.3470 C   0  0  0  0  0  0  0  0  0  0  0  0
  141.0710   71.6960  227.2060 C   0  0  0  0  0  0  0  0  0  0  0  0
  140.5710   71.2060  226.0210 C   0  0  0  0  0  0  0  0  0  0  0  0
  140.7330   71.9130  224.8940 N   0  0  0  0  0  0  0  0  0  0  0  0
  138.8300   73.5890  222.9100 H   0  0  0  0  0  0  0  0  0  0  0  0
  140.0889   73.4422  220.1935 H   0  0  0  0  0  0  0  0  0  0  0  0
  138.8576   74.6469  220.7372 H   0  0  0  0  0  0  0  0  0  0  0  0
  142.3181   73.9962  219.0973 H   0  0  0  0  0  0  0  0  0  0  0  0
  140.9203   74.7238  218.3013 H   0  0  0  0  0  0  0  0  0  0  0  0
  142.2852   76.3927  217.2556 H   0  0  0  0  0  0  0  0  0  0  0  0
  144.6410   75.2710  217.9210 H   0  0  0  0  0  0  0  0  0  0  0  0
  143.8906   77.6465  218.8400 H   0  0  0  0  0  0  0  0  0  0  0  0
  144.6350   75.3180  219.3720 H   0  0  0  0  0  0  0  0  0  0  0  0
  142.3161   77.6500  220.8696 H   0  0  0  0  0  0  0  0  0  0  0  0
  141.5193   78.8448  219.0193 H   0  0  0  0  0  0  0  0  0  0  0  0
  140.7310   77.2200  218.4516 H   0  0  0  0  0  0  0  0  0  0  0  0
  139.0918   79.7557  220.6290 H   0  0  0  0  0  0  0  0  0  0  0  0
  138.9731   78.0916  221.4950 H   0  0  0  0  0  0  0  0  0  0  0  0
  141.1713   80.8810  220.6679 H   0  0  0  0  0  0  0  0  0  0  0  0
  142.9458   81.6902  222.1762 H   0  0  0  0  0  0  0  0  0  0  0  0
  143.4476   80.4970  224.2920 H   0  0  0  0  0  0  0  0  0  0  0  0
  142.1298   78.4743  224.8602 H   0  0  0  0  0  0  0  0  0  0  0  0
  140.3655   77.6702  223.3619 H   0  0  0  0  0  0  0  0  0  0  0  0
  139.2286   69.9438  222.6790 H   0  0  0  0  0  0  0  0  0  0  0  0
  138.8942   68.5917  224.7035 H   0  0  0  0  0  0  0  0  0  0  0  0
  139.1851   68.2638  227.0850 H   0  0  0  0  0  0  0  0  0  0  0  0
  140.0777   69.1332  229.2303 H   0  0  0  0  0  0  0  0  0  0  0  0
  141.2610   71.2794  229.3112 H   0  0  0  0  0  0  0  0  0  0  0  0
  141.6022   72.6581  227.2513 H   0  0  0  0  0  0  0  0  0  0  0  0
  1  2  2  0
  2  3  1  0
  3  4  1  0
  4  5  1  0
  5  6  2  0
  5  7  1  0
  7  8  1  0
  8  9  1  0
  9 10  1  0
  9 11  1  0
 11 12  1  0
 11 13  1  0
 13 14  1  0
 14 15  1  0
 15 16  1  0
 16 17  1  0
 17 18  2  0
 18 19  1  0
 19 20  2  0
 20 21  1  0
 21 22  2  0
  2 23  1  0
 23 24  2  0
 24 25  1  0
 25 26  2  0
 26 27  1  0
 27 28  2  0
 28 29  1  0
 29 30  2  0
 30 31  1  0
 31 32  2  0
 13  7  1  0
 22 17  1  0
 32 23  1  0
 31 26  1  0
  3 33  1  0
  4 34  1  0
  4 35  1  0
  8 36  1  0
  8 37  1  0
  9 38  1  6
 10 39  1  0
 11 40  1  6
 12 41  1  0
 13 42  1  1
 14 43  1  0
 14 44  1  0
 16 45  1  0
 16 46  1  0
 18 47  1  0
 19 48  1  0
 20 49  1  0
 21 50  1  0
 22 51  1  0
 24 52  1  0
 25 53  1  0
 27 54  1  0
 28 55  1  0
 29 56  1  0
 30 57  1  0
M  END
>  <smiles>  (50) 
O=C(NCC(=O)N1C[C@H](O)[C@H](O)[C@H]1COCc1ccccc1)c1ccc2ccccc2n1

>  <score_type>  (50) 
oracle

>  <origin>  (50) 
autodockgpu

>  <m_score__min__energy>  (50) 
-9.0299999999999994

>  <m_primary>  (50) 
energy

>  <rmsd>  (50) 
1.9886137239694728

>  <m_score__min__rmsd>  (50) 
1.9886137239694728

>  <meeko>  (50) 
{"free_energy": -8.9, "intermolecular_energy": -11.89, "internal_energy": -3.1, "cluster_size": 9, "cluster_id": 1, "rank_in_cluster": 6}

>  <energy>  (50) 
-7.0

>  <cluster_rmsd>  (50) 
0.0

>  <cluster>  (50) 
7

$$$$
