
     RDKit          3D

 64 67  0  0  0  0  0  0  0  0999 V2000
  145.9600   74.1310  220.9020 C   0  0  0  0  0  0  0  0  0  0  0  0
  146.1090   72.6530  220.5760 C   0  0  0  0  0  0  0  0  0  0  0  0
  145.5040   72.3970  219.2200 C   0  0  0  0  0  0  0  0  0  0  0  0
  146.0550   73.0180  218.2660 O   0  0  0  0  0  0  0  0  0  0  0  0
  144.4080   71.5350  219.0390 N   0  0  0  0  0  0  0  0  0  0  0  0
  144.6840   70.2250  218.5260 C   0  0  0  0  0  0  0  0  0  0  0  0
  144.2430   69.8020  217.2870 C   0  0  0  0  0  0  0  0  0  0  0  0
  144.5150   68.5320  216.7930 C   0  0  0  0  0  0  0  0  0  0  0  0
  145.2460   67.6870  217.5710 C   0  0  0  0  0  0  0  0  0  0  0  0
  145.7130   68.0460  218.8120 C   0  0  0  0  0  0  0  0  0  0  0  0
  145.4290   69.3160  219.2830 C   0  0  0  0  0  0  0  0  0  0  0  0
  143.0830   71.9980  219.3570 C   0  0  0  0  0  0  0  0  0  0  0  0
  142.4160   71.2900  220.4830 C   0  0  0  0  0  0  0  0  0  0  0  0
  141.8480   72.1970  221.5510 C   0  0  0  0  0  0  0  0  0  0  0  0
  141.0580   73.2670  220.9590 N   0  0  0  0  0  0  0  0  0  0  0  0
  139.8610   73.6320  221.6260 C   0  0  0  0  0  0  0  0  0  0  0  0
  139.6470   72.9790  222.7130 O   0  0  0  0  0  0  0  0  0  0  0  0
  138.9030   74.6420  221.1900 C   0  0  1  0  0  0  0  0  0  0  0  0
  137.6340   74.4740  221.8490 N   0  0  0  0  0  0  0  0  0  0  0  0
  139.3820   76.0600  221.1850 C   0  0  2  0  0  0  0  0  0  0  0  0
  139.5250   76.5970  219.8040 C   0  0  0  0  0  0  0  0  0  0  0  0
  140.9120   77.0730  219.4430 C   0  0  0  0  0  0  0  0  0  0  0  0
  141.3150   78.0490  220.5050 C   0  0  0  0  0  0  0  0  0  0  0  0
  141.8270   79.2730  220.1470 C   0  0  0  0  0  0  0  0  0  0  0  0
  142.1770   80.1310  221.1990 C   0  0  0  0  0  0  0  0  0  0  0  0
  142.0130   79.7520  222.5110 C   0  0  0  0  0  0  0  0  0  0  0  0
  142.5270   80.9980  223.8550 Br  0  0  0  0  0  0  0  0  0  0  0  0
  141.4910   78.5010  222.8110 C   0  0  0  0  0  0  0  0  0  0  0  0
  141.1350   77.6320  221.8020 C   0  0  0  0  0  0  0  0  0  0  0  0
  140.5840   76.2820  222.0660 C   0  0  0  0  0  0  0  0  0  0  0  0
  141.5700   73.8710  219.7580 C   0  0  0  0  0  0  0  0  0  0  0  0
  143.0610   73.4950  219.6580 C   0  0  0  0  0  0  0  0  0  0  0  0
  145.9464   74.2662  221.9936 H   0  0  0  0  0  0  0  0  0  0  0  0
  146.8066   74.6880  220.4741 H   0  0  0  0  0  0  0  0  0  0  0  0
  145.0193   74.5078  220.4741 H   0  0  0  0  0  0  0  0  0  0  0  0
  147.1750   72.3818  220.5635 H   0  0  0  0  0  0  0  0  0  0  0  0
  145.5962   72.0465  221.3371 H   0  0  0  0  0  0  0  0  0  0  0  0
  143.6548   70.4961  216.6687 H   0  0  0  0  0  0  0  0  0  0  0  0
  144.1508   68.2189  215.8034 H   0  0  0  0  0  0  0  0  0  0  0  0
  145.4710   66.6793  217.1917 H   0  0  0  0  0  0  0  0  0  0  0  0
  146.2996   67.3398  219.4179 H   0  0  0  0  0  0  0  0  0  0  0  0
  145.7976   69.6168  220.2748 H   0  0  0  0  0  0  0  0  0  0  0  0
  142.5126   71.7704  218.4444 H   0  0  0  0  0  0  0  0  0  0  0  0
  141.5924   70.6890  220.0702 H   0  0  0  0  0  0  0  0  0  0  0  0
  143.1920   70.6825  220.9715 H   0  0  0  0  0  0  0  0  0  0  0  0
  141.2077   71.6058  222.2221 H   0  0  0  0  0  0  0  0  0  0  0  0
  142.6821   72.6451  222.1110 H   0  0  0  0  0  0  0  0  0  0  0  0
  138.7671   74.4448  220.1164 H   0  0  0  0  0  0  0  0  0  0  0  0
  137.6850   73.8960  222.7180 H   0  0  0  0  0  0  0  0  0  0  0  0
  137.1800   75.4150  222.0650 H   0  0  0  0  0  0  0  0  0  0  0  0
  138.5916   76.6652  221.6529 H   0  0  0  0  0  0  0  0  0  0  0  0
  139.2429   75.8019  219.0981 H   0  0  0  0  0  0  0  0  0  0  0  0
  138.8734   77.4816  219.7499 H   0  0  0  0  0  0  0  0  0  0  0  0
  141.6116   76.2244  219.4212 H   0  0  0  0  0  0  0  0  0  0  0  0
  140.9263   77.5396  218.4470 H   0  0  0  0  0  0  0  0  0  0  0  0
  141.9550   79.5633  219.0938 H   0  0  0  0  0  0  0  0  0  0  0  0
  142.5900   81.1247  220.9712 H   0  0  0  0  0  0  0  0  0  0  0  0
  141.3606   78.2012  223.8613 H   0  0  0  0  0  0  0  0  0  0  0  0
  141.3483   75.5224  221.8449 H   0  0  0  0  0  0  0  0  0  0  0  0
  140.2892   76.2018  223.1227 H   0  0  0  0  0  0  0  0  0  0  0  0
  141.0254   73.4885  218.8822 H   0  0  0  0  0  0  0  0  0  0  0  0
  141.4441   74.9634  219.7863 H   0  0  0  0  0  0  0  0  0  0  0  0
  143.5462   74.0577  218.8469 H   0  0  0  0  0  0  0  0  0  0  0  0
  143.6059   73.7341  220.5832 H   0  0  0  0  0  0  0  0  0  0  0  0
  1  2  1  0
  2  3  1  0
  3  4  2  0
  3  5  1  0
  5  6  1  0
  6  7  2  0
  7  8  1  0
  8  9  2  0
  9 10  1  0
 10 11  2  0
  5 12  1  0
 12 13  1  0
 13 14  1  0
 14 15  1  0
 15 16  1  0
 16 17  2  0
 16 18  1  0
 18 19  1  0
 18 20  1  0
 20 21  1  0
 21 22  1  0
 22 23  1  0
 23 24  2  0
 24 25  1  0
 25 26  2  0
 26 27  1  0
 26 28  1  0
 28 29  2  0
 29 30  1  0
 15 31  1  0
 31 32  1  0
 11  6  1  0
 32 12  1  0
 30 20  1  0
 29 23  1  0
  1 33  1  0
  1 34  1  0
  1 35  1  0
  2 36  1  0
  2 37  1  0
  7 38  1  0
  8 39  1  0
  9 40  1  0
 10 41  1  0
 11 42  1  0
 12 43  1  0
 13 44  1  0
 13 45  1  0
 14 46  1  0
 14 47  1  0
 18 48  1  6
 19 49  1  0
 19 50  1  0
 20 51  1  1
 21 52  1  0
 21 53  1  0
 22 54  1  0
 22 55  1  0
 24 56  1  0
 25 57  1  0
 28 58  1  0
 30 59  1  0
 30 60  1  0
 31 61  1  0
 31 62  1  0
 32 63  1  0
 32 64  1  0
M  END
>  <smiles>  (1) 
CCC(=O)N(c1ccccc1)C1CCN(C(=O)[C@@H](N)C2CCc3ccc(Br)cc3C2)CC1

>  <score_type>  (1) 
oracle

>  <origin>  (1) 
autodockgpu

>  <m_score__min__energy>  (1) 
-8.7100000000000009

>  <m_primary>  (1) 
energy

>  <rmsd>  (1) 
5.5223110200622

>  <m_score__min__rmsd>  (1) 
5.5223110200622

>  <meeko>  (1) 
{"free_energy": -7.95, "intermolecular_energy": -10.04, "internal_energy": -2.53, "cluster_size": 15, "cluster_id": 2, "rank_in_cluster": 9}

>  <energy>  (1) 
-8.71

>  <cluster_rmsd>  (1) 
0.0

>  <cluster>  (1) 
1

$$$$

     RDKit          3D

 64 67  0  0  0  0  0  0  0  0999 V2000
  138.0070   80.9010  223.9280 C   0  0  0  0  0  0  0  0  0  0  0  0
  137.4680   79.5610  223.4510 C   0  0  0  0  0  0  0  0  0  0  0  0
  138.1000   79.2360  222.1230 C   0  0  0  0  0  0  0  0  0  0  0  0
  137.4010   79.5350  221.1130 O   0  0  0  0  0  0  0  0  0  0  0  0
  139.3700   78.6410  222.0220 N   0  0  0  0  0  0  0  0  0  0  0  0
  140.4860   79.3940  222.5150 C   0  0  0  0  0  0  0  0  0  0  0  0
  140.9750   80.5110  221.8640 C   0  0  0  0  0  0  0  0  0  0  0  0
  142.0560   81.2400  222.3470 C   0  0  0  0  0  0  0  0  0  0  0  0
  142.6400   80.8250  223.5050 C   0  0  0  0  0  0  0  0  0  0  0  0
  142.2020   79.7230  224.1980 C   0  0  0  0  0  0  0  0  0  0  0  0
  141.1250   79.0120  223.6980 C   0  0  0  0  0  0  0  0  0  0  0  0
  139.4950   77.3340  221.4320 C   0  0  0  0  0  0  0  0  0  0  0  0
  140.8010   77.0540  220.7770 C   0  0  0  0  0  0  0  0  0  0  0  0
  141.4600   75.7640  221.2090 C   0  0  0  0  0  0  0  0  0  0  0  0
  140.5150   74.6570  221.1660 N   0  0  0  0  0  0  0  0  0  0  0  0
  141.0000   73.4110  220.6930 C   0  0  0  0  0  0  0  0  0  0  0  0
  142.2500   73.4150  220.3940 O   0  0  0  0  0  0  0  0  0  0  0  0
  140.2220   72.1880  220.5280 C   0  0  1  0  0  0  0  0  0  0  0  0
  140.6120   71.4790  219.3370 N   0  0  0  0  0  0  0  0  0  0  0  0
  140.1060   71.3030  221.7300 C   0  0  2  0  0  0  0  0  0  0  0  0
  138.9790   70.3390  221.6070 C   0  0  0  0  0  0  0  0  0  0  0  0
  137.9330   70.4350  222.6930 C   0  0  0  0  0  0  0  0  0  0  0  0
  138.6650   70.3310  223.9960 C   0  0  0  0  0  0  0  0  0  0  0  0
  138.2230   69.4550  224.9580 C   0  0  0  0  0  0  0  0  0  0  0  0
  138.9620   69.4160  226.1480 C   0  0  0  0  0  0  0  0  0  0  0  0
  140.0660   70.2180  226.3270 C   0  0  0  0  0  0  0  0  0  0  0  0
  140.9910   70.0810  227.9850 Br  0  0  0  0  0  0  0  0  0  0  0  0
  140.4630   71.0840  225.3180 C   0  0  0  0  0  0  0  0  0  0  0  0
  139.7600   71.1490  224.1340 C   0  0  0  0  0  0  0  0  0  0  0  0
  140.1350   72.0640  223.0300 C   0  0  0  0  0  0  0  0  0  0  0  0
  139.1770   74.9210  221.6220 C   0  0  0  0  0  0  0  0  0  0  0  0
  139.2240   76.2240  222.4440 C   0  0  0  0  0  0  0  0  0  0  0  0
  138.0156   80.9223  225.0278 H   0  0  0  0  0  0  0  0  0  0  0  0
  139.0309   81.0397  223.5506 H   0  0  0  0  0  0  0  0  0  0  0  0
  137.3644   81.7101  223.5506 H   0  0  0  0  0  0  0  0  0  0  0  0
  137.7189   78.7787  224.1825 H   0  0  0  0  0  0  0  0  0  0  0  0
  136.3743   79.6112  223.3452 H   0  0  0  0  0  0  0  0  0  0  0  0
  140.4917   80.8348  220.9304 H   0  0  0  0  0  0  0  0  0  0  0  0
  142.4281   82.1250  221.8100 H   0  0  0  0  0  0  0  0  0  0  0  0
  143.4946   81.3937  223.9003 H   0  0  0  0  0  0  0  0  0  0  0  0
  142.6965   79.4123  225.1302 H   0  0  0  0  0  0  0  0  0  0  0  0
  140.7642   78.1274  224.2432 H   0  0  0  0  0  0  0  0  0  0  0  0
  138.7292   77.3433  220.6424 H   0  0  0  0  0  0  0  0  0  0  0  0
  140.6365   77.0077  219.6904 H   0  0  0  0  0  0  0  0  0  0  0  0
  141.4798   77.8657  221.0774 H   0  0  0  0  0  0  0  0  0  0  0  0
  142.3010   75.5458  220.5343 H   0  0  0  0  0  0  0  0  0  0  0  0
  141.8168   75.8811  222.2429 H   0  0  0  0  0  0  0  0  0  0  0  0
  139.1867   72.5374  220.4015 H   0  0  0  0  0  0  0  0  0  0  0  0
  139.8900   71.5000  218.5820 H   0  0  0  0  0  0  0  0  0  0  0  0
  141.5430   71.8350  218.9590 H   0  0  0  0  0  0  0  0  0  0  0  0
  141.0158   70.6854  221.7612 H   0  0  0  0  0  0  0  0  0  0  0  0
  138.4841   70.5147  220.6405 H   0  0  0  0  0  0  0  0  0  0  0  0
  139.4222   69.3362  221.6959 H   0  0  0  0  0  0  0  0  0  0  0  0
  137.4054   71.3981  222.6289 H   0  0  0  0  0  0  0  0  0  0  0  0
  137.1808   69.6385  222.5936 H   0  0  0  0  0  0  0  0  0  0  0  0
  137.3385   68.8198  224.8026 H   0  0  0  0  0  0  0  0  0  0  0  0
  138.6543   68.7325  226.9531 H   0  0  0  0  0  0  0  0  0  0  0  0
  141.3458   71.7238  225.4641 H   0  0  0  0  0  0  0  0  0  0  0  0
  139.4204   72.8990  222.9844 H   0  0  0  0  0  0  0  0  0  0  0  0
  141.1454   72.4622  223.2047 H   0  0  0  0  0  0  0  0  0  0  0  0
  138.5027   75.0425  220.7614 H   0  0  0  0  0  0  0  0  0  0  0  0
  138.8013   74.0872  222.2333 H   0  0  0  0  0  0  0  0  0  0  0  0
  138.2631   76.3930  222.9521 H   0  0  0  0  0  0  0  0  0  0  0  0
  139.9971   76.1862  223.2256 H   0  0  0  0  0  0  0  0  0  0  0  0
  1  2  1  0
  2  3  1  0
  3  4  2  0
  3  5  1  0
  5  6  1  0
  6  7  2  0
  7  8  1  0
  8  9  2  0
  9 10  1  0
 10 11  2  0
  5 12  1  0
 12 13  1  0
 13 14  1  0
 14 15  1  0
 15 16  1  0
 16 17  2  0
 16 18  1  0
 18 19  1  0
 18 20  1  0
 20 21  1  0
 21 22  1  0
 22 23  1  0
 23 24  2  0
 24 25  1  0
 25 26  2  0
 26 27  1  0
 26 28  1  0
 28 29  2  0
 29 30  1  0
 15 31  1  0
 31 32  1  0
 11  6  1  0
 32 12  1  0
 30 20  1  0
 29 23  1  0
  1 33  1  0
  1 34  1  0
  1 35  1  0
  2 36  1  0
  2 37  1  0
  7 38  1  0
  8 39  1  0
  9 40  1  0
 10 41  1  0
 11 42  1  0
 12 43  1  0
 13 44  1  0
 13 45  1  0
 14 46  1  0
 14 47  1  0
 18 48  1  6
 19 49  1  0
 19 50  1  0
 20 51  1  1
 21 52  1  0
 21 53  1  0
 22 54  1  0
 22 55  1  0
 24 56  1  0
 25 57  1  0
 28 58  1  0
 30 59  1  0
 30 60  1  0
 31 61  1  0
 31 62  1  0
 32 63  1  0
 32 64  1  0
M  END
>  <smiles>  (2) 
CCC(=O)N(c1ccccc1)C1CCN(C(=O)[C@@H](N)C2CCc3ccc(Br)cc3C2)CC1

>  <score_type>  (2) 
oracle

>  <origin>  (2) 
autodockgpu

>  <m_score__min__energy>  (2) 
-8.7100000000000009

>  <m_primary>  (2) 
energy

>  <rmsd>  (2) 
7.764504174691573

>  <m_score__min__rmsd>  (2) 
7.764504174691573

>  <meeko>  (2) 
{"free_energy": -7.55, "intermolecular_energy": -9.64, "internal_energy": -2.33, "cluster_size": 14, "cluster_id": 5, "rank_in_cluster": 12}

>  <energy>  (2) 
-8.56

>  <cluster_rmsd>  (2) 
0.61

>  <cluster>  (2) 
1

$$$$

     RDKit          3D

 64 67  0  0  0  0  0  0  0  0999 V2000
  136.0910   77.4180  222.7610 C   0  0  0  0  0  0  0  0  0  0  0  0
  136.8030   78.4660  221.9200 C   0  0  0  0  0  0  0  0  0  0  0  0
  138.0230   78.9350  222.6700 C   0  0  0  0  0  0  0  0  0  0  0  0
  137.7950   79.7810  223.5810 O   0  0  0  0  0  0  0  0  0  0  0  0
  139.3140   78.4640  222.3710 N   0  0  0  0  0  0  0  0  0  0  0  0
  140.4160   79.3160  222.7120 C   0  0  0  0  0  0  0  0  0  0  0  0
  141.2570   79.0530  223.7760 C   0  0  0  0  0  0  0  0  0  0  0  0
  142.3260   79.8800  224.1010 C   0  0  0  0  0  0  0  0  0  0  0  0
  142.5380   80.9830  223.3320 C   0  0  0  0  0  0  0  0  0  0  0  0
  141.7380   81.3000  222.2620 C   0  0  0  0  0  0  0  0  0  0  0  0
  140.6790   80.4620  221.9570 C   0  0  0  0  0  0  0  0  0  0  0  0
  139.4700   77.1800  221.7390 C   0  0  0  0  0  0  0  0  0  0  0  0
  140.8040   76.9300  221.1310 C   0  0  0  0  0  0  0  0  0  0  0  0
  141.4510   75.6260  221.5420 C   0  0  0  0  0  0  0  0  0  0  0  0
  140.5140   74.5190  221.4190 N   0  0  0  0  0  0  0  0  0  0  0  0
  141.0250   73.2930  220.9220 C   0  0  0  0  0  0  0  0  0  0  0  0
  142.2870   73.3120  220.6770 O   0  0  0  0  0  0  0  0  0  0  0  0
  140.2610   72.0740  220.6790 C   0  0  1  0  0  0  0  0  0  0  0  0
  140.7260   71.3940  219.4990 N   0  0  0  0  0  0  0  0  0  0  0  0
  140.0710   71.1600  221.8500 C   0  0  2  0  0  0  0  0  0  0  0  0
  138.8130   70.3730  221.7460 C   0  0  0  0  0  0  0  0  0  0  0  0
  137.8400   70.5670  222.8860 C   0  0  0  0  0  0  0  0  0  0  0  0
  138.6060   70.3010  224.1460 C   0  0  0  0  0  0  0  0  0  0  0  0
  138.0850   69.4530  225.0940 C   0  0  0  0  0  0  0  0  0  0  0  0
  138.8630   69.2540  226.2430 C   0  0  0  0  0  0  0  0  0  0  0  0
  140.0780   69.8820  226.3980 C   0  0  0  0  0  0  0  0  0  0  0  0
  141.0450   69.5390  228.0010 Br  0  0  0  0  0  0  0  0  0  0  0  0
  140.5510   70.7290  225.4050 C   0  0  0  0  0  0  0  0  0  0  0  0
  139.8130   70.9470  224.2610 C   0  0  0  0  0  0  0  0  0  0  0  0
  140.2670   71.8490  223.1760 C   0  0  0  0  0  0  0  0  0  0  0  0
  139.1560   74.7610  221.8270 C   0  0  0  0  0  0  0  0  0  0  0  0
  139.1620   76.0330  222.6970 C   0  0  0  0  0  0  0  0  0  0  0  0
  136.2416   77.6397  223.8278 H   0  0  0  0  0  0  0  0  0  0  0  0
  135.0153   77.4328  222.5318 H   0  0  0  0  0  0  0  0  0  0  0  0
  136.5011   76.4234  222.5318 H   0  0  0  0  0  0  0  0  0  0  0  0
  137.1053   78.0266  220.9580 H   0  0  0  0  0  0  0  0  0  0  0  0
  136.1302   79.3147  221.7277 H   0  0  0  0  0  0  0  0  0  0  0  0
  141.0742   78.1573  224.3878 H   0  0  0  0  0  0  0  0  0  0  0  0
  142.9811   79.6499  224.9542 H   0  0  0  0  0  0  0  0  0  0  0  0
  143.3816   81.6451  223.5769 H   0  0  0  0  0  0  0  0  0  0  0  0
  141.9342   82.1998  221.6605 H   0  0  0  0  0  0  0  0  0  0  0  0
  140.0306   80.7035  221.1019 H   0  0  0  0  0  0  0  0  0  0  0  0
  138.7383   77.2148  220.9184 H   0  0  0  0  0  0  0  0  0  0  0  0
  140.6866   76.9246  220.0373 H   0  0  0  0  0  0  0  0  0  0  0  0
  141.4650   77.7321  221.4910 H   0  0  0  0  0  0  0  0  0  0  0  0
  142.3200   75.4357  220.8950 H   0  0  0  0  0  0  0  0  0  0  0  0
  141.7644   75.7056  222.5934 H   0  0  0  0  0  0  0  0  0  0  0  0
  139.2352   72.4264  220.4959 H   0  0  0  0  0  0  0  0  0  0  0  0
  140.0600   71.4470  218.6950 H   0  0  0  0  0  0  0  0  0  0  0  0
  141.6870   71.7470  219.1980 H   0  0  0  0  0  0  0  0  0  0  0  0
  140.8823   70.4181  221.8115 H   0  0  0  0  0  0  0  0  0  0  0  0
  138.3067   70.6613  220.8129 H   0  0  0  0  0  0  0  0  0  0  0  0
  139.1105   69.3144  221.7736 H   0  0  0  0  0  0  0  0  0  0  0  0
  137.4541   71.5971  222.8857 H   0  0  0  0  0  0  0  0  0  0  0  0
  136.9774   69.8907  222.7935 H   0  0  0  0  0  0  0  0  0  0  0  0
  137.1120   68.9582  224.9586 H   0  0  0  0  0  0  0  0  0  0  0  0
  138.4961   68.5842  227.0347 H   0  0  0  0  0  0  0  0  0  0  0  0
  141.5220   71.2300  225.5319 H   0  0  0  0  0  0  0  0  0  0  0  0
  139.6791   72.7784  223.1990 H   0  0  0  0  0  0  0  0  0  0  0  0
  141.3310   72.0910  223.3151 H   0  0  0  0  0  0  0  0  0  0  0  0
  138.5181   74.9115  220.9436 H   0  0  0  0  0  0  0  0  0  0  0  0
  138.7587   73.9040  222.3906 H   0  0  0  0  0  0  0  0  0  0  0  0
  138.1798   76.1801  223.1698 H   0  0  0  0  0  0  0  0  0  0  0  0
  139.9017   75.9691  223.5086 H   0  0  0  0  0  0  0  0  0  0  0  0
  1  2  1  0
  2  3  1  0
  3  4  2  0
  3  5  1  0
  5  6  1  0
  6  7  2  0
  7  8  1  0
  8  9  2  0
  9 10  1  0
 10 11  2  0
  5 12  1  0
 12 13  1  0
 13 14  1  0
 14 15  1  0
 15 16  1  0
 16 17  2  0
 16 18  1  0
 18 19  1  0
 18 20  1  0
 20 21  1  0
 21 22  1  0
 22 23  1  0
 23 24  2  0
 24 25  1  0
 25 26  2  0
 26 27  1  0
 26 28  1  0
 28 29  2  0
 29 30  1  0
 15 31  1  0
 31 32  1  0
 11  6  1  0
 32 12  1  0
 30 20  1  0
 29 23  1  0
  1 33  1  0
  1 34  1  0
  1 35  1  0
  2 36  1  0
  2 37  1  0
  7 38  1  0
  8 39  1  0
  9 40  1  0
 10 41  1  0
 11 42  1  0
 12 43  1  0
 13 44  1  0
 13 45  1  0
 14 46  1  0
 14 47  1  0
 18 48  1  6
 19 49  1  0
 19 50  1  0
 20 51  1  6
 21 52  1  0
 21 53  1  0
 22 54  1  0
 22 55  1  0
 24 56  1  0
 25 57  1  0
 28 58  1  0
 30 59  1  0
 30 60  1  0
 31 61  1  0
 31 62  1  0
 32 63  1  0
 32 64  1  0
M  END
>  <smiles>  (3) 
CCC(=O)N(c1ccccc1)C1CCN(C(=O)[C@@H](N)C2CCc3ccc(Br)cc3C2)CC1

>  <score_type>  (3) 
oracle

>  <origin>  (3) 
autodockgpu

>  <m_score__min__energy>  (3) 
-8.7100000000000009

>  <m_primary>  (3) 
energy

>  <rmsd>  (3) 
7.990463496001124

>  <m_score__min__rmsd>  (3) 
7.990463496001124

>  <meeko>  (3) 
{"free_energy": -7.6, "intermolecular_energy": -9.68, "internal_energy": -2.37, "cluster_size": 14, "cluster_id": 5, "rank_in_cluster": 9}

>  <energy>  (3) 
-8.35

>  <cluster_rmsd>  (3) 
0.0

>  <cluster>  (3) 
2

$$$$

     RDKit          3D

 64 67  0  0  0  0  0  0  0  0999 V2000
  136.7880   79.0040  220.5670 C   0  0  0  0  0  0  0  0  0  0  0  0
  136.7050   78.4050  221.9630 C   0  0  0  0  0  0  0  0  0  0  0  0
  137.9050   78.8620  222.7520 C   0  0  0  0  0  0  0  0  0  0  0  0
  137.6450   79.6450  223.7100 O   0  0  0  0  0  0  0  0  0  0  0  0
  139.2110   78.4460  222.4390 N   0  0  0  0  0  0  0  0  0  0  0  0
  140.2820   79.3310  222.7930 C   0  0  0  0  0  0  0  0  0  0  0  0
  141.3640   78.9230  223.5500 C   0  0  0  0  0  0  0  0  0  0  0  0
  142.4020   79.7840  223.8890 C   0  0  0  0  0  0  0  0  0  0  0  0
  142.3330   81.0700  223.4500 C   0  0  0  0  0  0  0  0  0  0  0  0
  141.2850   81.5370  222.6960 C   0  0  0  0  0  0  0  0  0  0  0  0
  140.2630   80.6630  222.3720 C   0  0  0  0  0  0  0  0  0  0  0  0
  139.4120   77.1820  221.7800 C   0  0  0  0  0  0  0  0  0  0  0  0
  140.7530   76.9920  221.1660 C   0  0  0  0  0  0  0  0  0  0  0  0
  141.4470   75.7040  221.5500 C   0  0  0  0  0  0  0  0  0  0  0  0
  140.5510   74.5670  221.4040 N   0  0  0  0  0  0  0  0  0  0  0  0
  141.1050   73.3710  220.8820 C   0  0  0  0  0  0  0  0  0  0  0  0
  142.3650   73.4400  220.6360 O   0  0  0  0  0  0  0  0  0  0  0  0
  140.3850   72.1300  220.6150 C   0  0  1  0  0  0  0  0  0  0  0  0
  140.9370   71.4410  219.4780 N   0  0  0  0  0  0  0  0  0  0  0  0
  140.1430   71.2320  221.7880 C   0  0  2  0  0  0  0  0  0  0  0  0
  138.8510   70.5020  221.6760 C   0  0  0  0  0  0  0  0  0  0  0  0
  137.8780   70.7460  222.8060 C   0  0  0  0  0  0  0  0  0  0  0  0
  138.6200   70.4510  224.0740 C   0  0  0  0  0  0  0  0  0  0  0  0
  138.0520   69.6330  225.0210 C   0  0  0  0  0  0  0  0  0  0  0  0
  138.8100   69.4050  226.1780 C   0  0  0  0  0  0  0  0  0  0  0  0
  140.0510   69.9770  226.3410 C   0  0  0  0  0  0  0  0  0  0  0  0
  140.9870   69.5980  227.9540 Br  0  0  0  0  0  0  0  0  0  0  0  0
  140.5710   70.7960  225.3490 C   0  0  0  0  0  0  0  0  0  0  0  0
  139.8540   71.0430  224.1970 C   0  0  0  0  0  0  0  0  0  0  0  0
  140.3590   71.9170  223.1120 C   0  0  0  0  0  0  0  0  0  0  0  0
  139.1860   74.7510  221.8190 C   0  0  0  0  0  0  0  0  0  0  0  0
  139.1470   76.0040  222.7150 C   0  0  0  0  0  0  0  0  0  0  0  0
  136.9386   80.0910  220.6428 H   0  0  0  0  0  0  0  0  0  0  0  0
  137.6323   78.5538  220.0244 H   0  0  0  0  0  0  0  0  0  0  0  0
  135.8530   78.8003  220.0244 H   0  0  0  0  0  0  0  0  0  0  0  0
  135.7837   78.7452  222.4585 H   0  0  0  0  0  0  0  0  0  0  0  0
  136.6905   77.3068  221.9015 H   0  0  0  0  0  0  0  0  0  0  0  0
  141.4055   77.8799  223.8967 H   0  0  0  0  0  0  0  0  0  0  0  0
  143.2527   79.4361  224.4935 H   0  0  0  0  0  0  0  0  0  0  0  0
  143.1480   81.7619  223.7091 H   0  0  0  0  0  0  0  0  0  0  0  0
  141.2587   82.5831  222.3570 H   0  0  0  0  0  0  0  0  0  0  0  0
  139.4167   81.0247  221.7696 H   0  0  0  0  0  0  0  0  0  0  0  0
  138.6783   77.2083  220.9609 H   0  0  0  0  0  0  0  0  0  0  0  0
  140.6341   77.0044  220.0725 H   0  0  0  0  0  0  0  0  0  0  0  0
  141.3855   77.8098  221.5417 H   0  0  0  0  0  0  0  0  0  0  0  0
  142.3220   75.5587  220.8994 H   0  0  0  0  0  0  0  0  0  0  0  0
  141.7579   75.7731  222.6029 H   0  0  0  0  0  0  0  0  0  0  0  0
  139.3649   72.4554  220.3630 H   0  0  0  0  0  0  0  0  0  0  0  0
  141.8650   71.8140  219.1720 H   0  0  0  0  0  0  0  0  0  0  0  0
  141.0080   70.3920  219.6540 H   0  0  0  0  0  0  0  0  0  0  0  0
  140.9199   70.4537  221.7602 H   0  0  0  0  0  0  0  0  0  0  0  0
  138.3667   70.8081  220.7370 H   0  0  0  0  0  0  0  0  0  0  0  0
  139.0997   69.4311  221.7112 H   0  0  0  0  0  0  0  0  0  0  0  0
  137.5400   71.7928  222.7977 H   0  0  0  0  0  0  0  0  0  0  0  0
  136.9859   70.1098  222.7086 H   0  0  0  0  0  0  0  0  0  0  0  0
  137.0585   69.1825  224.8791 H   0  0  0  0  0  0  0  0  0  0  0  0
  138.4056   68.7573  226.9698 H   0  0  0  0  0  0  0  0  0  0  0  0
  141.5631   71.2520  225.4824 H   0  0  0  0  0  0  0  0  0  0  0  0
  139.8149   72.8729  223.1255 H   0  0  0  0  0  0  0  0  0  0  0  0
  141.4319   72.1094  223.2596 H   0  0  0  0  0  0  0  0  0  0  0  0
  138.5411   74.8962  220.9398 H   0  0  0  0  0  0  0  0  0  0  0  0
  138.8218   73.8686  222.3656 H   0  0  0  0  0  0  0  0  0  0  0  0
  138.1607   76.1055  223.1914 H   0  0  0  0  0  0  0  0  0  0  0  0
  139.8897   75.9503  223.5246 H   0  0  0  0  0  0  0  0  0  0  0  0
  1  2  1  0
  2  3  1  0
  3  4  2  0
  3  5  1  0
  5  6  1  0
  6  7  2  0
  7  8  1  0
  8  9  2  0
  9 10  1  0
 10 11  2  0
  5 12  1  0
 12 13  1  0
 13 14  1  0
 14 15  1  0
 15 16  1  0
 16 17  2  0
 16 18  1  0
 18 19  1  0
 18 20  1  0
 20 21  1  0
 21 22  1  0
 22 23  1  0
 23 24  2  0
 24 25  1  0
 25 26  2  0
 26 27  1  0
 26 28  1  0
 28 29  2  0
 29 30  1  0
 15 31  1  0
 31 32  1  0
 11  6  1  0
 32 12  1  0
 30 20  1  0
 29 23  1  0
  1 33  1  0
  1 34  1  0
  1 35  1  0
  2 36  1  0
  2 37  1  0
  7 38  1  0
  8 39  1  0
  9 40  1  0
 10 41  1  0
 11 42  1  0
 12 43  1  0
 13 44  1  0
 13 45  1  0
 14 46  1  0
 14 47  1  0
 18 48  1  6
 19 49  1  0
 19 50  1  0
 20 51  1  6
 21 52  1  0
 21 53  1  0
 22 54  1  0
 22 55  1  0
 24 56  1  0
 25 57  1  0
 28 58  1  0
 30 59  1  0
 30 60  1  0
 31 61  1  0
 31 62  1  0
 32 63  1  0
 32 64  1  0
M  END
>  <smiles>  (4) 
CCC(=O)N(c1ccccc1)C1CCN(C(=O)[C@@H](N)C2CCc3ccc(Br)cc3C2)CC1

>  <score_type>  (4) 
oracle

>  <origin>  (4) 
autodockgpu

>  <m_score__min__energy>  (4) 
-8.7100000000000009

>  <m_primary>  (4) 
energy

>  <rmsd>  (4) 
7.947119711588793

>  <m_score__min__rmsd>  (4) 
7.947119711588793

>  <meeko>  (4) 
{"free_energy": -7.45, "intermolecular_energy": -9.54, "internal_energy": -2.33, "cluster_size": 14, "cluster_id": 5, "rank_in_cluster": 14}

>  <energy>  (4) 
-8.22

>  <cluster_rmsd>  (4) 
0.31

>  <cluster>  (4) 
2

$$$$

     RDKit          3D

 64 67  0  0  0  0  0  0  0  0999 V2000
  138.0570   80.5930  224.5520 C   0  0  0  0  0  0  0  0  0  0  0  0
  137.8750   80.3940  223.0550 C   0  0  0  0  0  0  0  0  0  0  0  0
  138.1150   78.9420  222.7310 C   0  0  0  0  0  0  0  0  0  0  0  0
  137.0890   78.2060  222.7970 O   0  0  0  0  0  0  0  0  0  0  0  0
  139.3860   78.4510  222.3860 N   0  0  0  0  0  0  0  0  0  0  0  0
  140.5150   79.2760  222.7010 C   0  0  0  0  0  0  0  0  0  0  0  0
  141.2640   79.1060  223.8500 C   0  0  0  0  0  0  0  0  0  0  0  0
  142.3590   79.9080  224.1500 C   0  0  0  0  0  0  0  0  0  0  0  0
  142.6930   80.8890  223.2680 C   0  0  0  0  0  0  0  0  0  0  0  0
  141.9890   81.1100  222.1100 C   0  0  0  0  0  0  0  0  0  0  0  0
  140.9020   80.3010  221.8320 C   0  0  0  0  0  0  0  0  0  0  0  0
  139.4970   77.1710  221.7350 C   0  0  0  0  0  0  0  0  0  0  0  0
  140.7900   76.9200  221.0440 C   0  0  0  0  0  0  0  0  0  0  0  0
  141.4550   75.6110  221.4040 C   0  0  0  0  0  0  0  0  0  0  0  0
  140.5070   74.5080  221.3300 N   0  0  0  0  0  0  0  0  0  0  0  0
  140.9800   73.2840  220.7930 C   0  0  0  0  0  0  0  0  0  0  0  0
  142.2250   73.3000  220.4700 O   0  0  0  0  0  0  0  0  0  0  0  0
  140.1980   72.0710  220.5880 C   0  0  1  0  0  0  0  0  0  0  0  0
  140.6090   71.3800  219.3940 N   0  0  0  0  0  0  0  0  0  0  0  0
  140.0460   71.1650  221.7710 C   0  0  2  0  0  0  0  0  0  0  0  0
  138.8620   70.2730  221.6450 C   0  0  0  0  0  0  0  0  0  0  0  0
  137.8410   70.4050  222.7500 C   0  0  0  0  0  0  0  0  0  0  0  0
  138.5850   70.2270  224.0380 C   0  0  0  0  0  0  0  0  0  0  0  0
  138.1050   69.3560  224.9870 C   0  0  0  0  0  0  0  0  0  0  0  0
  138.8600   69.2440  226.1630 C   0  0  0  0  0  0  0  0  0  0  0  0
  140.0120   69.9750  226.3420 C   0  0  0  0  0  0  0  0  0  0  0  0
  140.9520   69.7430  227.9810 Br  0  0  0  0  0  0  0  0  0  0  0  0
  140.4450   70.8400  225.3470 C   0  0  0  0  0  0  0  0  0  0  0  0
  139.7290   70.9750  224.1770 C   0  0  0  0  0  0  0  0  0  0  0  0
  140.1410   71.8920  223.0880 C   0  0  0  0  0  0  0  0  0  0  0  0
  139.1780   74.7530  221.8240 C   0  0  0  0  0  0  0  0  0  0  0  0
  139.2440   76.0170  222.7020 C   0  0  0  0  0  0  0  0  0  0  0  0
  137.4120   79.8878  225.0967 H   0  0  0  0  0  0  0  0  0  0  0  0
  139.1081   80.4114  224.8209 H   0  0  0  0  0  0  0  0  0  0  0  0
  137.7825   81.6237  224.8209 H   0  0  0  0  0  0  0  0  0  0  0  0
  136.8514   80.6741  222.7655 H   0  0  0  0  0  0  0  0  0  0  0  0
  138.5865   81.0252  222.5024 H   0  0  0  0  0  0  0  0  0  0  0  0
  140.9835   78.3073  224.5524 H   0  0  0  0  0  0  0  0  0  0  0  0
  142.9381   79.7543  225.0725 H   0  0  0  0  0  0  0  0  0  0  0  0
  143.5594   81.5289  223.4911 H   0  0  0  0  0  0  0  0  0  0  0  0
  142.2831   81.9131  221.4183 H   0  0  0  0  0  0  0  0  0  0  0  0
  140.3297   80.4675  220.9075 H   0  0  0  0  0  0  0  0  0  0  0  0
  138.7163   77.2158  220.9614 H   0  0  0  0  0  0  0  0  0  0  0  0
  140.6053   76.9236  219.9596 H   0  0  0  0  0  0  0  0  0  0  0  0
  141.4756   77.7164  221.3690 H   0  0  0  0  0  0  0  0  0  0  0  0
  142.2819   75.4226  220.7034 H   0  0  0  0  0  0  0  0  0  0  0  0
  141.8326   75.6808  222.4348 H   0  0  0  0  0  0  0  0  0  0  0  0
  139.1690   72.4320  220.4438 H   0  0  0  0  0  0  0  0  0  0  0  0
  141.5240   71.7110  219.0130 H   0  0  0  0  0  0  0  0  0  0  0  0
  140.6390   70.3240  219.5460 H   0  0  0  0  0  0  0  0  0  0  0  0
  140.9166   70.4926  221.7721 H   0  0  0  0  0  0  0  0  0  0  0  0
  138.3635   70.5008  220.6913 H   0  0  0  0  0  0  0  0  0  0  0  0
  139.2458   69.2438  221.7034 H   0  0  0  0  0  0  0  0  0  0  0  0
  137.3709   71.3989  222.7166 H   0  0  0  0  0  0  0  0  0  0  0  0
  137.0414   69.6569  222.6451 H   0  0  0  0  0  0  0  0  0  0  0  0
  137.1809   68.7796  224.8325 H   0  0  0  0  0  0  0  0  0  0  0  0
  138.5256   68.5597  226.9566 H   0  0  0  0  0  0  0  0  0  0  0  0
  141.3667   71.4224  225.4931 H   0  0  0  0  0  0  0  0  0  0  0  0
  139.4772   72.7691  223.0737 H   0  0  0  0  0  0  0  0  0  0  0  0
  141.1761   72.2249  223.2546 H   0  0  0  0  0  0  0  0  0  0  0  0
  138.4871   74.9138  220.9833 H   0  0  0  0  0  0  0  0  0  0  0  0
  138.8126   73.8931  222.4045 H   0  0  0  0  0  0  0  0  0  0  0  0
  138.2939   76.1642  223.2364 H   0  0  0  0  0  0  0  0  0  0  0  0
  140.0324   75.9434  223.4655 H   0  0  0  0  0  0  0  0  0  0  0  0
  1  2  1  0
  2  3  1  0
  3  4  2  0
  3  5  1  0
  5  6  1  0
  6  7  2  0
  7  8  1  0
  8  9  2  0
  9 10  1  0
 10 11  2  0
  5 12  1  0
 12 13  1  0
 13 14  1  0
 14 15  1  0
 15 16  1  0
 16 17  2  0
 16 18  1  0
 18 19  1  0
 18 20  1  0
 20 21  1  0
 21 22  1  0
 22 23  1  0
 23 24  2  0
 24 25  1  0
 25 26  2  0
 26 27  1  0
 26 28  1  0
 28 29  2  0
 29 30  1  0
 15 31  1  0
 31 32  1  0
 11  6  1  0
 32 12  1  0
 30 20  1  0
 29 23  1  0
  1 33  1  0
  1 34  1  0
  1 35  1  0
  2 36  1  0
  2 37  1  0
  7 38  1  0
  8 39  1  0
  9 40  1  0
 10 41  1  0
 11 42  1  0
 12 43  1  0
 13 44  1  0
 13 45  1  0
 14 46  1  0
 14 47  1  0
 18 48  1  6
 19 49  1  0
 19 50  1  0
 20 51  1  1
 21 52  1  0
 21 53  1  0
 22 54  1  0
 22 55  1  0
 24 56  1  0
 25 57  1  0
 28 58  1  0
 30 59  1  0
 30 60  1  0
 31 61  1  0
 31 62  1  0
 32 63  1  0
 32 64  1  0
M  END
>  <smiles>  (5) 
CCC(=O)N(c1ccccc1)C1CCN(C(=O)[C@@H](N)C2CCc3ccc(Br)cc3C2)CC1

>  <score_type>  (5) 
oracle

>  <origin>  (5) 
autodockgpu

>  <m_score__min__energy>  (5) 
-8.7100000000000009

>  <m_primary>  (5) 
energy

>  <rmsd>  (5) 
7.928179956251626

>  <m_score__min__rmsd>  (5) 
7.928179956251626

>  <meeko>  (5) 
{"free_energy": -7.79, "intermolecular_energy": -9.87, "internal_energy": -2.29, "cluster_size": 14, "cluster_id": 5, "rank_in_cluster": 5}

>  <energy>  (5) 
-8.15

>  <cluster_rmsd>  (5) 
0.57

>  <cluster>  (5) 
2

$$$$

     RDKit          3D

 64 67  0  0  0  0  0  0  0  0999 V2000
  142.5380   81.1350  217.9010 C   0  0  0  0  0  0  0  0  0  0  0  0
  141.4970   80.6390  218.8930 C   0  0  0  0  0  0  0  0  0  0  0  0
  141.8750   79.2490  219.3320 C   0  0  0  0  0  0  0  0  0  0  0  0
  142.5520   78.5910  218.4900 O   0  0  0  0  0  0  0  0  0  0  0  0
  141.4980   78.7270  220.5820 N   0  0  0  0  0  0  0  0  0  0  0  0
  141.6650   79.5780  221.7230 C   0  0  0  0  0  0  0  0  0  0  0  0
  142.8410   79.6260  222.4490 C   0  0  0  0  0  0  0  0  0  0  0  0
  142.9990   80.4540  223.5540 C   0  0  0  0  0  0  0  0  0  0  0  0
  141.9500   81.2410  223.9190 C   0  0  0  0  0  0  0  0  0  0  0  0
  140.7560   81.2390  223.2400 C   0  0  0  0  0  0  0  0  0  0  0  0
  140.6200   80.4050  222.1440 C   0  0  0  0  0  0  0  0  0  0  0  0
  140.9810   77.3860  220.6620 C   0  0  0  0  0  0  0  0  0  0  0  0
  141.8160   76.3430  220.0080 C   0  0  0  0  0  0  0  0  0  0  0  0
  142.1270   75.1460  220.8780 C   0  0  0  0  0  0  0  0  0  0  0  0
  140.9210   74.6390  221.5170 N   0  0  0  0  0  0  0  0  0  0  0  0
  140.7820   73.2320  221.6100 C   0  0  0  0  0  0  0  0  0  0  0  0
  141.7820   72.5730  221.1420 O   0  0  0  0  0  0  0  0  0  0  0  0
  139.6440   72.5110  222.1700 C   0  0  1  0  0  0  0  0  0  0  0  0
  138.6450   72.2530  221.1660 N   0  0  0  0  0  0  0  0  0  0  0  0
  139.9590   71.3130  223.0100 C   0  0  2  0  0  0  0  0  0  0  0  0
  139.5280   70.0450  222.3610 C   0  0  0  0  0  0  0  0  0  0  0  0
  138.5400   69.2230  223.1550 C   0  0  0  0  0  0  0  0  0  0  0  0
  139.1490   69.0200  224.5090 C   0  0  0  0  0  0  0  0  0  0  0  0
  139.1970   67.7590  225.0520 C   0  0  0  0  0  0  0  0  0  0  0  0
  139.7840   67.6520  226.3210 C   0  0  0  0  0  0  0  0  0  0  0  0
  140.2790   68.7590  226.9720 C   0  0  0  0  0  0  0  0  0  0  0  0
  141.0520   68.4940  228.6910 Br  0  0  0  0  0  0  0  0  0  0  0  0
  140.2020   70.0080  226.3710 C   0  0  0  0  0  0  0  0  0  0  0  0
  139.6310   70.1510  225.1240 C   0  0  0  0  0  0  0  0  0  0  0  0
  139.5140   71.4610  224.4420 C   0  0  0  0  0  0  0  0  0  0  0  0
  139.9840   75.6130  222.0110 C   0  0  0  0  0  0  0  0  0  0  0  0
  140.7310   76.9580  222.1060 C   0  0  0  0  0  0  0  0  0  0  0  0
  143.3995   81.5455  218.4481 H   0  0  0  0  0  0  0  0  0  0  0  0
  142.8700   80.2983  217.2688 H   0  0  0  0  0  0  0  0  0  0  0  0
  142.0973   81.9199  217.2688 H   0  0  0  0  0  0  0  0  0  0  0  0
  141.4683   81.3082  219.7656 H   0  0  0  0  0  0  0  0  0  0  0  0
  140.5037   80.6266  218.4204 H   0  0  0  0  0  0  0  0  0  0  0  0
  143.6811   78.9862  222.1410 H   0  0  0  0  0  0  0  0  0  0  0  0
  143.9438   80.4728  224.1170 H   0  0  0  0  0  0  0  0  0  0  0  0
  142.0627   81.9032  224.7901 H   0  0  0  0  0  0  0  0  0  0  0  0
  139.9261   81.8861  223.5603 H   0  0  0  0  0  0  0  0  0  0  0  0
  139.6685   80.3928  221.5921 H   0  0  0  0  0  0  0  0  0  0  0  0
  140.0374   77.4482  220.1001 H   0  0  0  0  0  0  0  0  0  0  0  0
  141.2825   75.9876  219.1141 H   0  0  0  0  0  0  0  0  0  0  0  0
  142.7808   76.8176  219.7757 H   0  0  0  0  0  0  0  0  0  0  0  0
  142.5650   74.3523  220.2549 H   0  0  0  0  0  0  0  0  0  0  0  0
  142.8351   75.4557  221.6608 H   0  0  0  0  0  0  0  0  0  0  0  0
  139.2207   73.2039  222.9121 H   0  0  0  0  0  0  0  0  0  0  0  0
  137.8090   72.8760  221.2360 H   0  0  0  0  0  0  0  0  0  0  0  0
  139.0570   72.3080  220.1840 H   0  0  0  0  0  0  0  0  0  0  0  0
  141.0552   71.2487  223.0748 H   0  0  0  0  0  0  0  0  0  0  0  0
  139.0642   70.2966  221.3958 H   0  0  0  0  0  0  0  0  0  0  0  0
  140.4329   69.4272  222.2640 H   0  0  0  0  0  0  0  0  0  0  0  0
  137.5840   69.7597  223.2446 H   0  0  0  0  0  0  0  0  0  0  0  0
  138.3348   68.2613  222.6621 H   0  0  0  0  0  0  0  0  0  0  0  0
  138.7974   66.8824  224.5211 H   0  0  0  0  0  0  0  0  0  0  0  0
  139.8500   66.6662  226.8046 H   0  0  0  0  0  0  0  0  0  0  0  0
  140.5996   70.8905  226.8936 H   0  0  0  0  0  0  0  0  0  0  0  0
  138.4674   71.7984  224.4695 H   0  0  0  0  0  0  0  0  0  0  0  0
  140.1470   72.2021  224.9520 H   0  0  0  0  0  0  0  0  0  0  0  0
  139.1336   75.7024  221.3191 H   0  0  0  0  0  0  0  0  0  0  0  0
  139.5924   75.3139  222.9944 H   0  0  0  0  0  0  0  0  0  0  0  0
  140.1142   77.7048  222.6274 H   0  0  0  0  0  0  0  0  0  0  0  0
  141.6688   76.8658  222.6735 H   0  0  0  0  0  0  0  0  0  0  0  0
  1  2  1  0
  2  3  1  0
  3  4  2  0
  3  5  1  0
  5  6  1  0
  6  7  2  0
  7  8  1  0
  8  9  2  0
  9 10  1  0
 10 11  2  0
  5 12  1  0
 12 13  1  0
 13 14  1  0
 14 15  1  0
 15 16  1  0
 16 17  2  0
 16 18  1  0
 18 19  1  0
 18 20  1  0
 20 21  1  0
 21 22  1  0
 22 23  1  0
 23 24  2  0
 24 25  1  0
 25 26  2  0
 26 27  1  0
 26 28  1  0
 28 29  2  0
 29 30  1  0
 15 31  1  0
 31 32  1  0
 11  6  1  0
 32 12  1  0
 30 20  1  0
 29 23  1  0
  1 33  1  0
  1 34  1  0
  1 35  1  0
  2 36  1  0
  2 37  1  0
  7 38  1  0
  8 39  1  0
  9 40  1  0
 10 41  1  0
 11 42  1  0
 12 43  1  0
 13 44  1  0
 13 45  1  0
 14 46  1  0
 14 47  1  0
 18 48  1  1
 19 49  1  0
 19 50  1  0
 20 51  1  1
 21 52  1  0
 21 53  1  0
 22 54  1  0
 22 55  1  0
 24 56  1  0
 25 57  1  0
 28 58  1  0
 30 59  1  0
 30 60  1  0
 31 61  1  0
 31 62  1  0
 32 63  1  0
 32 64  1  0
M  END
>  <smiles>  (6) 
CCC(=O)N(c1ccccc1)C1CCN(C(=O)[C@@H](N)C2CCc3ccc(Br)cc3C2)CC1

>  <score_type>  (6) 
oracle

>  <origin>  (6) 
autodockgpu

>  <m_score__min__energy>  (6) 
-8.7100000000000009

>  <m_primary>  (6) 
energy

>  <rmsd>  (6) 
8.23326350621655

>  <m_score__min__rmsd>  (6) 
8.23326350621655

>  <meeko>  (6) 
{"free_energy": -8.71, "intermolecular_energy": -10.8, "internal_energy": -1.48, "cluster_size": 2, "cluster_id": 1, "rank_in_cluster": 1}

>  <energy>  (6) 
-8.13

>  <cluster_rmsd>  (6) 
0.56

>  <cluster>  (6) 
2

$$$$

     RDKit          3D

 64 67  0  0  0  0  0  0  0  0999 V2000
  136.7730   70.3980  224.1610 C   0  0  0  0  0  0  0  0  0  0  0  0
  137.0190   68.9320  224.4870 C   0  0  0  0  0  0  0  0  0  0  0  0
  138.4490   68.6000  224.1500 C   0  0  0  0  0  0  0  0  0  0  0  0
  138.6160   67.4790  223.5890 O   0  0  0  0  0  0  0  0  0  0  0  0
  139.5120   69.4730  224.4440 N   0  0  0  0  0  0  0  0  0  0  0  0
  140.0500   69.4250  225.7720 C   0  0  0  0  0  0  0  0  0  0  0  0
  140.3190   68.2360  226.4230 C   0  0  0  0  0  0  0  0  0  0  0  0
  140.8440   68.1950  227.7100 C   0  0  0  0  0  0  0  0  0  0  0  0
  141.0960   69.3780  228.3350 C   0  0  0  0  0  0  0  0  0  0  0  0
  140.8500   70.5920  227.7420 C   0  0  0  0  0  0  0  0  0  0  0  0
  140.3270   70.6080  226.4610 C   0  0  0  0  0  0  0  0  0  0  0  0
  139.9960   70.3660  223.4240 C   0  0  0  0  0  0  0  0  0  0  0  0
  139.4450   70.1320  222.0620 C   0  0  0  0  0  0  0  0  0  0  0  0
  138.8820   71.3640  221.3890 C   0  0  0  0  0  0  0  0  0  0  0  0
  139.8140   72.4790  221.4790 N   0  0  0  0  0  0  0  0  0  0  0  0
  139.9390   73.3110  220.3390 C   0  0  0  0  0  0  0  0  0  0  0  0
  139.1640   72.9870  219.3650 O   0  0  0  0  0  0  0  0  0  0  0  0
  140.8370   74.4510  220.1960 C   0  0  1  0  0  0  0  0  0  0  0  0
  140.8070   74.9730  218.8540 N   0  0  0  0  0  0  0  0  0  0  0  0
  140.7400   75.5150  221.2450 C   0  0  2  0  0  0  0  0  0  0  0  0
  139.3910   75.5630  221.8700 C   0  0  0  0  0  0  0  0  0  0  0  0
  138.6730   76.8860  221.7420 C   0  0  0  0  0  0  0  0  0  0  0  0
  139.6090   77.9290  222.2680 C   0  0  0  0  0  0  0  0  0  0  0  0
  139.1590   78.8490  223.1850 C   0  0  0  0  0  0  0  0  0  0  0  0
  140.0960   79.7910  223.6310 C   0  0  0  0  0  0  0  0  0  0  0  0
  141.3920   79.7820  223.1650 C   0  0  0  0  0  0  0  0  0  0  0  0
  142.5760   81.1110  223.8390 Br  0  0  0  0  0  0  0  0  0  0  0  0
  141.7870   78.8270  222.2380 C   0  0  0  0  0  0  0  0  0  0  0  0
  140.8920   77.8850  221.7780 C   0  0  0  0  0  0  0  0  0  0  0  0
  141.2600   76.8520  220.7810 C   0  0  0  0  0  0  0  0  0  0  0  0
  140.5160   72.6460  222.7250 C   0  0  0  0  0  0  0  0  0  0  0  0
  139.7570   71.8290  223.7880 C   0  0  0  0  0  0  0  0  0  0  0  0
  136.6770   70.9703  225.0955 H   0  0  0  0  0  0  0  0  0  0  0  0
  137.6179   70.7903  223.5759 H   0  0  0  0  0  0  0  0  0  0  0  0
  135.8463   70.4930  223.5759 H   0  0  0  0  0  0  0  0  0  0  0  0
  136.8396   68.7550  225.5577 H   0  0  0  0  0  0  0  0  0  0  0  0
  136.3372   68.2968  223.9025 H   0  0  0  0  0  0  0  0  0  0  0  0
  140.1104   67.2884  225.9047 H   0  0  0  0  0  0  0  0  0  0  0  0
  141.0494   67.2359  228.2080 H   0  0  0  0  0  0  0  0  0  0  0  0
  141.5122   69.3608  229.3531 H   0  0  0  0  0  0  0  0  0  0  0  0
  141.0640   71.5309  228.2736 H   0  0  0  0  0  0  0  0  0  0  0  0
  140.1249   71.5737  225.9746 H   0  0  0  0  0  0  0  0  0  0  0  0
  141.0719   70.1406  223.3846 H   0  0  0  0  0  0  0  0  0  0  0  0
  140.2522   69.7343  221.4293 H   0  0  0  0  0  0  0  0  0  0  0  0
  138.6052   69.4318  222.1821 H   0  0  0  0  0  0  0  0  0  0  0  0
  138.6908   71.1395  220.3293 H   0  0  0  0  0  0  0  0  0  0  0  0
  137.9482   71.6456  221.8976 H   0  0  0  0  0  0  0  0  0  0  0  0
  141.8376   74.0355  220.3859 H   0  0  0  0  0  0  0  0  0  0  0  0
  141.5940   74.6350  218.2550 H   0  0  0  0  0  0  0  0  0  0  0  0
  139.8750   74.7710  218.3780 H   0  0  0  0  0  0  0  0  0  0  0  0
  141.4255   75.2277  222.0559 H   0  0  0  0  0  0  0  0  0  0  0  0
  138.7681   74.7899  221.3964 H   0  0  0  0  0  0  0  0  0  0  0  0
  139.5460   75.4011  222.9469 H   0  0  0  0  0  0  0  0  0  0  0  0
  138.4327   77.0877  220.6877 H   0  0  0  0  0  0  0  0  0  0  0  0
  137.7265   76.8813  222.3025 H   0  0  0  0  0  0  0  0  0  0  0  0
  138.1208   78.8460  223.5486 H   0  0  0  0  0  0  0  0  0  0  0  0
  139.7911   80.5506  224.3659 H   0  0  0  0  0  0  0  0  0  0  0  0
  142.8227   78.8220  221.8676 H   0  0  0  0  0  0  0  0  0  0  0  0
  140.8140   77.1035  219.8075 H   0  0  0  0  0  0  0  0  0  0  0  0
  142.3542   76.8094  220.6765 H   0  0  0  0  0  0  0  0  0  0  0  0
  141.5470   72.2747  222.6295 H   0  0  0  0  0  0  0  0  0  0  0  0
  140.5623   73.7080  223.0080 H   0  0  0  0  0  0  0  0  0  0  0  0
  140.1507   72.0447  224.7922 H   0  0  0  0  0  0  0  0  0  0  0  0
  138.6852   72.0760  223.8045 H   0  0  0  0  0  0  0  0  0  0  0  0
  1  2  1  0
  2  3  1  0
  3  4  2  0
  3  5  1  0
  5  6  1  0
  6  7  2  0
  7  8  1  0
  8  9  2  0
  9 10  1  0
 10 11  2  0
  5 12  1  0
 12 13  1  0
 13 14  1  0
 14 15  1  0
 15 16  1  0
 16 17  2  0
 16 18  1  0
 18 19  1  0
 18 20  1  0
 20 21  1  0
 21 22  1  0
 22 23  1  0
 23 24  2  0
 24 25  1  0
 25 26  2  0
 26 27  1  0
 26 28  1  0
 28 29  2  0
 29 30  1  0
 15 31  1  0
 31 32  1  0
 11  6  1  0
 32 12  1  0
 30 20  1  0
 29 23  1  0
  1 33  1  0
  1 34  1  0
  1 35  1  0
  2 36  1  0
  2 37  1  0
  7 38  1  0
  8 39  1  0
  9 40  1  0
 10 41  1  0
 11 42  1  0
 12 43  1  0
 13 44  1  0
 13 45  1  0
 14 46  1  0
 14 47  1  0
 18 48  1  1
 19 49  1  0
 19 50  1  0
 20 51  1  1
 21 52  1  0
 21 53  1  0
 22 54  1  0
 22 55  1  0
 24 56  1  0
 25 57  1  0
 28 58  1  0
 30 59  1  0
 30 60  1  0
 31 61  1  0
 31 62  1  0
 32 63  1  0
 32 64  1  0
M  END
>  <smiles>  (7) 
CCC(=O)N(c1ccccc1)C1CCN(C(=O)[C@@H](N)C2CCc3ccc(Br)cc3C2)CC1

>  <score_type>  (7) 
oracle

>  <origin>  (7) 
autodockgpu

>  <m_score__min__energy>  (7) 
-8.7100000000000009

>  <m_primary>  (7) 
energy

>  <rmsd>  (7) 
6.152360709817147

>  <m_score__min__rmsd>  (7) 
6.152360709817147

>  <meeko>  (7) 
{"free_energy": -8.01, "intermolecular_energy": -10.09, "internal_energy": -2.2, "cluster_size": 10, "cluster_id": 3, "rank_in_cluster": 8}

>  <energy>  (7) 
-8.11

>  <cluster_rmsd>  (7) 
0.52

>  <cluster>  (7) 
2

$$$$

     RDKit          3D

 64 67  0  0  0  0  0  0  0  0999 V2000
  146.0600   73.1010  221.8530 C   0  0  0  0  0  0  0  0  0  0  0  0
  146.2810   73.8170  220.5290 C   0  0  0  0  0  0  0  0  0  0  0  0
  145.7300   72.9580  219.4210 C   0  0  0  0  0  0  0  0  0  0  0  0
  146.2010   71.7860  219.3730 O   0  0  0  0  0  0  0  0  0  0  0  0
  144.7680   73.4320  218.5120 N   0  0  0  0  0  0  0  0  0  0  0  0
  145.2130   73.7240  217.1810 C   0  0  0  0  0  0  0  0  0  0  0  0
  146.0740   72.8960  216.4860 C   0  0  0  0  0  0  0  0  0  0  0  0
  146.5010   73.1820  215.1950 C   0  0  0  0  0  0  0  0  0  0  0  0
  146.0430   74.3220  214.6090 C   0  0  0  0  0  0  0  0  0  0  0  0
  145.1880   75.1870  215.2460 C   0  0  0  0  0  0  0  0  0  0  0  0
  144.7770   74.8820  216.5320 C   0  0  0  0  0  0  0  0  0  0  0  0
  143.4080   73.6110  218.9500 C   0  0  0  0  0  0  0  0  0  0  0  0
  142.8970   72.5660  219.8770 C   0  0  0  0  0  0  0  0  0  0  0  0
  142.2610   73.1000  221.1410 C   0  0  0  0  0  0  0  0  0  0  0  0
  141.3050   74.1550  220.8370 N   0  0  0  0  0  0  0  0  0  0  0  0
  140.1030   74.1740  221.5870 C   0  0  0  0  0  0  0  0  0  0  0  0
  140.0300   73.2560  222.4860 O   0  0  0  0  0  0  0  0  0  0  0  0
  138.9960   75.1100  221.4220 C   0  0  1  0  0  0  0  0  0  0  0  0
  137.8650   74.7270  222.2270 N   0  0  0  0  0  0  0  0  0  0  0  0
  139.3300   76.5650  221.5280 C   0  0  2  0  0  0  0  0  0  0  0  0
  139.1160   77.2840  220.2430 C   0  0  0  0  0  0  0  0  0  0  0  0
  140.3410   77.9660  219.6800 C   0  0  0  0  0  0  0  0  0  0  0  0
  140.8750   78.8440  220.7690 C   0  0  0  0  0  0  0  0  0  0  0  0
  141.1820   80.1560  220.4980 C   0  0  0  0  0  0  0  0  0  0  0  0
  141.6740   80.9120  221.5710 C   0  0  0  0  0  0  0  0  0  0  0  0
  141.8380   80.3550  222.8190 C   0  0  0  0  0  0  0  0  0  0  0  0
  142.5170   81.4770  224.1980 Br  0  0  0  0  0  0  0  0  0  0  0  0
  141.5110   79.0220  223.0310 C   0  0  0  0  0  0  0  0  0  0  0  0
  141.0230   78.2490  221.9990 C   0  0  0  0  0  0  0  0  0  0  0  0
  140.6700   76.8200  222.1680 C   0  0  0  0  0  0  0  0  0  0  0  0
  141.6730   75.0960  219.8130 C   0  0  0  0  0  0  0  0  0  0  0  0
  143.1960   74.9730  219.6060 C   0  0  0  0  0  0  0  0  0  0  0  0
  146.2729   73.7908  222.6829 H   0  0  0  0  0  0  0  0  0  0  0  0
  145.0154   72.7621  221.9167 H   0  0  0  0  0  0  0  0  0  0  0  0
  146.7318   72.2323  221.9167 H   0  0  0  0  0  0  0  0  0  0  0  0
  145.7608   74.7862  220.5403 H   0  0  0  0  0  0  0  0  0  0  0  0
  147.3555   73.9915  220.3706 H   0  0  0  0  0  0  0  0  0  0  0  0
  146.4343   71.9775  216.9723 H   0  0  0  0  0  0  0  0  0  0  0  0
  147.1882   72.5077  214.6628 H   0  0  0  0  0  0  0  0  0  0  0  0
  146.3704   74.5593  213.5860 H   0  0  0  0  0  0  0  0  0  0  0  0
  144.8375   76.1018  214.7456 H   0  0  0  0  0  0  0  0  0  0  0  0
  144.0922   75.5662  217.0545 H   0  0  0  0  0  0  0  0  0  0  0  0
  142.8319   73.5295  218.0164 H   0  0  0  0  0  0  0  0  0  0  0  0
  142.1445   71.9697  219.3401 H   0  0  0  0  0  0  0  0  0  0  0  0
  143.7703   71.9767  220.1932 H   0  0  0  0  0  0  0  0  0  0  0  0
  141.7399   72.2795  221.6561 H   0  0  0  0  0  0  0  0  0  0  0  0
  143.0514   73.5167  221.7826 H   0  0  0  0  0  0  0  0  0  0  0  0
  138.7157   75.0177  220.3623 H   0  0  0  0  0  0  0  0  0  0  0  0
  137.0830   74.3060  221.6770 H   0  0  0  0  0  0  0  0  0  0  0  0
  138.1520   74.0670  223.0140 H   0  0  0  0  0  0  0  0  0  0  0  0
  138.6089   77.0064  222.2316 H   0  0  0  0  0  0  0  0  0  0  0  0
  138.7594   76.5555  219.4999 H   0  0  0  0  0  0  0  0  0  0  0  0
  138.3903   78.0829  220.4554 H   0  0  0  0  0  0  0  0  0  0  0  0
  141.0939   77.2178  219.3912 H   0  0  0  0  0  0  0  0  0  0  0  0
  140.0940   78.5509  218.7817 H   0  0  0  0  0  0  0  0  0  0  0  0
  141.0491   80.5885  219.4954 H   0  0  0  0  0  0  0  0  0  0  0  0
  141.9336   81.9692  221.4129 H   0  0  0  0  0  0  0  0  0  0  0  0
  141.6423   78.5797  224.0296 H   0  0  0  0  0  0  0  0  0  0  0  0
  141.4340   76.1922  221.6861 H   0  0  0  0  0  0  0  0  0  0  0  0
  140.6224   76.5738  223.2390 H   0  0  0  0  0  0  0  0  0  0  0  0
  141.1453   74.8600  218.8772 H   0  0  0  0  0  0  0  0  0  0  0  0
  141.4007   76.1201  220.1080 H   0  0  0  0  0  0  0  0  0  0  0  0
  143.5613   75.7770  218.9501 H   0  0  0  0  0  0  0  0  0  0  0  0
  143.7458   75.0598  220.5548 H   0  0  0  0  0  0  0  0  0  0  0  0
  1  2  1  0
  2  3  1  0
  3  4  2  0
  3  5  1  0
  5  6  1  0
  6  7  2  0
  7  8  1  0
  8  9  2  0
  9 10  1  0
 10 11  2  0
  5 12  1  0
 12 13  1  0
 13 14  1  0
 14 15  1  0
 15 16  1  0
 16 17  2  0
 16 18  1  0
 18 19  1  0
 18 20  1  0
 20 21  1  0
 21 22  1  0
 22 23  1  0
 23 24  2  0
 24 25  1  0
 25 26  2  0
 26 27  1  0
 26 28  1  0
 28 29  2  0
 29 30  1  0
 15 31  1  0
 31 32  1  0
 11  6  1  0
 32 12  1  0
 30 20  1  0
 29 23  1  0
  1 33  1  0
  1 34  1  0
  1 35  1  0
  2 36  1  0
  2 37  1  0
  7 38  1  0
  8 39  1  0
  9 40  1  0
 10 41  1  0
 11 42  1  0
 12 43  1  0
 13 44  1  0
 13 45  1  0
 14 46  1  0
 14 47  1  0
 18 48  1  6
 19 49  1  0
 19 50  1  0
 20 51  1  1
 21 52  1  0
 21 53  1  0
 22 54  1  0
 22 55  1  0
 24 56  1  0
 25 57  1  0
 28 58  1  0
 30 59  1  0
 30 60  1  0
 31 61  1  0
 31 62  1  0
 32 63  1  0
 32 64  1  0
M  END
>  <smiles>  (8) 
CCC(=O)N(c1ccccc1)C1CCN(C(=O)[C@@H](N)C2CCc3ccc(Br)cc3C2)CC1

>  <score_type>  (8) 
oracle

>  <origin>  (8) 
autodockgpu

>  <m_score__min__energy>  (8) 
-8.7100000000000009

>  <m_primary>  (8) 
energy

>  <rmsd>  (8) 
4.8981729069233

>  <m_score__min__rmsd>  (8) 
4.8981729069233

>  <meeko>  (8) 
{"free_energy": -7.58, "intermolecular_energy": -9.66, "internal_energy": -2.48, "cluster_size": 15, "cluster_id": 2, "rank_in_cluster": 15}

>  <energy>  (8) 
-8.06

>  <cluster_rmsd>  (8) 
0.56

>  <cluster>  (8) 
2

$$$$

     RDKit          3D

 64 67  0  0  0  0  0  0  0  0999 V2000
  136.7700   70.0940  224.6000 C   0  0  0  0  0  0  0  0  0  0  0  0
  137.2410   68.9450  223.7210 C   0  0  0  0  0  0  0  0  0  0  0  0
  138.6600   68.6050  224.0960 C   0  0  0  0  0  0  0  0  0  0  0  0
  138.9190   67.3680  224.1310 O   0  0  0  0  0  0  0  0  0  0  0  0
  139.6170   69.5940  224.3860 N   0  0  0  0  0  0  0  0  0  0  0  0
  140.0800   69.6790  225.7390 C   0  0  0  0  0  0  0  0  0  0  0  0
  140.5080   70.8650  226.3060 C   0  0  0  0  0  0  0  0  0  0  0  0
  140.9540   70.9440  227.6200 C   0  0  0  0  0  0  0  0  0  0  0  0
  140.9620   69.8010  228.3610 C   0  0  0  0  0  0  0  0  0  0  0  0
  140.5520   68.5920  227.8570 C   0  0  0  0  0  0  0  0  0  0  0  0
  140.1120   68.5380  226.5450 C   0  0  0  0  0  0  0  0  0  0  0  0
  140.0720   70.4670  223.3350 C   0  0  0  0  0  0  0  0  0  0  0  0
  139.5920   70.1220  221.9700 C   0  0  0  0  0  0  0  0  0  0  0  0
  138.9660   71.2710  221.2120 C   0  0  0  0  0  0  0  0  0  0  0  0
  139.8080   72.4560  221.2730 N   0  0  0  0  0  0  0  0  0  0  0  0
  139.9140   73.2360  220.0940 C   0  0  0  0  0  0  0  0  0  0  0  0
  139.2030   72.8030  219.1140 O   0  0  0  0  0  0  0  0  0  0  0  0
  140.7300   74.4320  219.9190 C   0  0  1  0  0  0  0  0  0  0  0  0
  140.5530   74.9970  218.6070 N   0  0  0  0  0  0  0  0  0  0  0  0
  140.6660   75.4510  221.0140 C   0  0  2  0  0  0  0  0  0  0  0  0
  139.3230   75.5040  221.6520 C   0  0  0  0  0  0  0  0  0  0  0  0
  138.6360   76.8480  221.5860 C   0  0  0  0  0  0  0  0  0  0  0  0
  139.6010   77.8440  222.1510 C   0  0  0  0  0  0  0  0  0  0  0  0
  139.1790   78.7340  223.1090 C   0  0  0  0  0  0  0  0  0  0  0  0
  140.1420   79.6330  223.5880 C   0  0  0  0  0  0  0  0  0  0  0  0
  141.4330   79.6130  223.1120 C   0  0  0  0  0  0  0  0  0  0  0  0
  142.6530   80.8830  223.8350 Br  0  0  0  0  0  0  0  0  0  0  0  0
  141.7990   78.6910  222.1420 C   0  0  0  0  0  0  0  0  0  0  0  0
  140.8790   77.7910  221.6490 C   0  0  0  0  0  0  0  0  0  0  0  0
  141.2150   76.7940  220.6050 C   0  0  0  0  0  0  0  0  0  0  0  0
  140.4470   72.7410  222.5310 C   0  0  0  0  0  0  0  0  0  0  0  0
  139.7120   71.9250  223.6110 C   0  0  0  0  0  0  0  0  0  0  0  0
  136.8838   69.8165  225.6583 H   0  0  0  0  0  0  0  0  0  0  0  0
  137.3739   70.9888  224.3886 H   0  0  0  0  0  0  0  0  0  0  0  0
  135.7118   70.3075  224.3886 H   0  0  0  0  0  0  0  0  0  0  0  0
  136.5955   68.0685  223.8791 H   0  0  0  0  0  0  0  0  0  0  0  0
  137.1913   69.2368  222.6616 H   0  0  0  0  0  0  0  0  0  0  0  0
  140.4951   71.7795  225.6949 H   0  0  0  0  0  0  0  0  0  0  0  0
  141.2901   71.8998  228.0483 H   0  0  0  0  0  0  0  0  0  0  0  0
  141.3104   69.8488  229.4033 H   0  0  0  0  0  0  0  0  0  0  0  0
  140.5724   67.6864  228.4811 H   0  0  0  0  0  0  0  0  0  0  0  0
  139.7804   67.5756  226.1281 H   0  0  0  0  0  0  0  0  0  0  0  0
  141.1623   70.3215  223.3438 H   0  0  0  0  0  0  0  0  0  0  0  0
  140.4497   69.7541  221.3878 H   0  0  0  0  0  0  0  0  0  0  0  0
  138.8019   69.3677  222.0995 H   0  0  0  0  0  0  0  0  0  0  0  0
  138.8329   70.9780  220.1601 H   0  0  0  0  0  0  0  0  0  0  0  0
  137.9951   71.5068  221.6721 H   0  0  0  0  0  0  0  0  0  0  0  0
  141.7654   74.0707  220.0048 H   0  0  0  0  0  0  0  0  0  0  0  0
  141.3330   74.7790  217.9480 H   0  0  0  0  0  0  0  0  0  0  0  0
  139.6220   74.7020  218.1790 H   0  0  0  0  0  0  0  0  0  0  0  0
  141.3500   75.1117  221.8058 H   0  0  0  0  0  0  0  0  0  0  0  0
  138.6783   74.7666  221.1514 H   0  0  0  0  0  0  0  0  0  0  0  0
  139.4819   75.2927  222.7197 H   0  0  0  0  0  0  0  0  0  0  0  0
  138.3948   77.1012  220.5431 H   0  0  0  0  0  0  0  0  0  0  0  0
  137.6924   76.8418  222.1513 H   0  0  0  0  0  0  0  0  0  0  0  0
  138.1433   78.7407  223.4794 H   0  0  0  0  0  0  0  0  0  0  0  0
  139.8609   80.3670  224.3575 H   0  0  0  0  0  0  0  0  0  0  0  0
  142.8317   78.6782  221.7634 H   0  0  0  0  0  0  0  0  0  0  0  0
  140.7686   77.0986  219.6469 H   0  0  0  0  0  0  0  0  0  0  0  0
  142.3071   76.7297  220.4903 H   0  0  0  0  0  0  0  0  0  0  0  0
  141.5059   72.4457  222.4912 H   0  0  0  0  0  0  0  0  0  0  0  0
  140.4022   73.8167  222.7566 H   0  0  0  0  0  0  0  0  0  0  0  0
  140.0513   72.2216  224.6145 H   0  0  0  0  0  0  0  0  0  0  0  0
  138.6250   72.0905  223.5787 H   0  0  0  0  0  0  0  0  0  0  0  0
  1  2  1  0
  2  3  1  0
  3  4  2  0
  3  5  1  0
  5  6  1  0
  6  7  2  0
  7  8  1  0
  8  9  2  0
  9 10  1  0
 10 11  2  0
  5 12  1  0
 12 13  1  0
 13 14  1  0
 14 15  1  0
 15 16  1  0
 16 17  2  0
 16 18  1  0
 18 19  1  0
 18 20  1  0
 20 21  1  0
 21 22  1  0
 22 23  1  0
 23 24  2  0
 24 25  1  0
 25 26  2  0
 26 27  1  0
 26 28  1  0
 28 29  2  0
 29 30  1  0
 15 31  1  0
 31 32  1  0
 11  6  1  0
 32 12  1  0
 30 20  1  0
 29 23  1  0
  1 33  1  0
  1 34  1  0
  1 35  1  0
  2 36  1  0
  2 37  1  0
  7 38  1  0
  8 39  1  0
  9 40  1  0
 10 41  1  0
 11 42  1  0
 12 43  1  0
 13 44  1  0
 13 45  1  0
 14 46  1  0
 14 47  1  0
 18 48  1  6
 19 49  1  0
 19 50  1  0
 20 51  1  1
 21 52  1  0
 21 53  1  0
 22 54  1  0
 22 55  1  0
 24 56  1  0
 25 57  1  0
 28 58  1  0
 30 59  1  0
 30 60  1  0
 31 61  1  0
 31 62  1  0
 32 63  1  0
 32 64  1  0
M  END
>  <smiles>  (9) 
CCC(=O)N(c1ccccc1)C1CCN(C(=O)[C@@H](N)C2CCc3ccc(Br)cc3C2)CC1

>  <score_type>  (9) 
oracle

>  <origin>  (9) 
autodockgpu

>  <m_score__min__energy>  (9) 
-8.7100000000000009

>  <m_primary>  (9) 
energy

>  <rmsd>  (9) 
6.128814867635895

>  <m_score__min__rmsd>  (9) 
6.128814867635895

>  <meeko>  (9) 
{"free_energy": -8.1, "intermolecular_energy": -10.18, "internal_energy": -2.09, "cluster_size": 10, "cluster_id": 3, "rank_in_cluster": 5}

>  <energy>  (9) 
-8.05

>  <cluster_rmsd>  (9) 
0.73

>  <cluster>  (9) 
2

$$$$

     RDKit          3D

 64 67  0  0  0  0  0  0  0  0999 V2000
  136.6800   68.3540  222.5460 C   0  0  0  0  0  0  0  0  0  0  0  0
  137.1740   68.9130  223.8710 C   0  0  0  0  0  0  0  0  0  0  0  0
  138.6110   68.5000  224.0610 C   0  0  0  0  0  0  0  0  0  0  0  0
  138.8360   67.2670  223.8920 O   0  0  0  0  0  0  0  0  0  0  0  0
  139.6170   69.4200  224.4020 N   0  0  0  0  0  0  0  0  0  0  0  0
  140.0960   69.3950  225.7530 C   0  0  0  0  0  0  0  0  0  0  0  0
  140.1280   70.5220  226.5520 C   0  0  0  0  0  0  0  0  0  0  0  0
  140.5910   70.4920  227.8630 C   0  0  0  0  0  0  0  0  0  0  0  0
  141.0230   69.3010  228.3610 C   0  0  0  0  0  0  0  0  0  0  0  0
  141.0180   68.1460  227.6180 C   0  0  0  0  0  0  0  0  0  0  0  0
  140.5540   68.2000  226.3150 C   0  0  0  0  0  0  0  0  0  0  0  0
  140.1060   70.3360  223.4050 C   0  0  0  0  0  0  0  0  0  0  0  0
  139.5510   70.1430  222.0390 C   0  0  0  0  0  0  0  0  0  0  0  0
  138.9960   71.3960  221.4000 C   0  0  0  0  0  0  0  0  0  0  0  0
  139.9360   72.5010  221.5170 N   0  0  0  0  0  0  0  0  0  0  0  0
  140.0640   73.3620  220.3990 C   0  0  0  0  0  0  0  0  0  0  0  0
  139.2850   73.0690  219.4190 O   0  0  0  0  0  0  0  0  0  0  0  0
  140.9700   74.4990  220.2840 C   0  0  1  0  0  0  0  0  0  0  0  0
  140.9720   75.0310  218.9460 N   0  0  0  0  0  0  0  0  0  0  0  0
  140.8550   75.5560  221.3380 C   0  0  2  0  0  0  0  0  0  0  0  0
  139.5050   75.5770  221.9640 C   0  0  0  0  0  0  0  0  0  0  0  0
  138.7630   76.8880  221.8420 C   0  0  0  0  0  0  0  0  0  0  0  0
  139.6820   77.9450  222.3740 C   0  0  0  0  0  0  0  0  0  0  0  0
  139.2150   78.8520  223.2950 C   0  0  0  0  0  0  0  0  0  0  0  0
  140.1360   79.8070  223.7460 C   0  0  0  0  0  0  0  0  0  0  0  0
  141.4310   79.8240  223.2800 C   0  0  0  0  0  0  0  0  0  0  0  0
  142.5920   81.1700  223.9610 Br  0  0  0  0  0  0  0  0  0  0  0  0
  141.8430   78.8810  222.3480 C   0  0  0  0  0  0  0  0  0  0  0  0
  140.9650   77.9250  221.8830 C   0  0  0  0  0  0  0  0  0  0  0  0
  141.3500   76.9040  220.8810 C   0  0  0  0  0  0  0  0  0  0  0  0
  140.6410   72.6300  222.7650 C   0  0  0  0  0  0  0  0  0  0  0  0
  139.8780   71.7910  223.8090 C   0  0  0  0  0  0  0  0  0  0  0  0
  135.9624   67.5420  222.7353 H   0  0  0  0  0  0  0  0  0  0  0  0
  136.1871   69.1525  221.9721 H   0  0  0  0  0  0  0  0  0  0  0  0
  137.5331   67.9630  221.9721 H   0  0  0  0  0  0  0  0  0  0  0  0
  137.1022   70.0106  223.8600 H   0  0  0  0  0  0  0  0  0  0  0  0
  136.5589   68.5240  224.6958 H   0  0  0  0  0  0  0  0  0  0  0  0
  139.7746   71.4771  226.1361 H   0  0  0  0  0  0  0  0  0  0  0  0
  140.6076   71.4032  228.4790 H   0  0  0  0  0  0  0  0  0  0  0  0
  141.3898   69.2623  229.3973 H   0  0  0  0  0  0  0  0  0  0  0  0
  141.3749   67.1989  228.0488 H   0  0  0  0  0  0  0  0  0  0  0  0
  140.5455   67.2823  225.7085 H   0  0  0  0  0  0  0  0  0  0  0  0
  141.1801   70.1035  223.3570 H   0  0  0  0  0  0  0  0  0  0  0  0
  140.3540   69.7563  221.3943 H   0  0  0  0  0  0  0  0  0  0  0  0
  138.7060   69.4464  222.1424 H   0  0  0  0  0  0  0  0  0  0  0  0
  138.8010   71.2008  220.3352 H   0  0  0  0  0  0  0  0  0  0  0  0
  138.0654   71.6710  221.9179 H   0  0  0  0  0  0  0  0  0  0  0  0
  141.9641   74.0769  220.4928 H   0  0  0  0  0  0  0  0  0  0  0  0
  141.7630   74.6830  218.3580 H   0  0  0  0  0  0  0  0  0  0  0  0
  140.0450   74.8480  218.4520 H   0  0  0  0  0  0  0  0  0  0  0  0
  141.5466   75.2768  222.1465 H   0  0  0  0  0  0  0  0  0  0  0  0
  138.8959   74.7949  221.4873 H   0  0  0  0  0  0  0  0  0  0  0  0
  139.6634   75.4132  223.0402 H   0  0  0  0  0  0  0  0  0  0  0  0
  138.5193   77.0907  220.7886 H   0  0  0  0  0  0  0  0  0  0  0  0
  137.8163   76.8641  222.4016 H   0  0  0  0  0  0  0  0  0  0  0  0
  138.1767   78.8295  223.6577 H   0  0  0  0  0  0  0  0  0  0  0  0
  139.8183   80.5566  224.4858 H   0  0  0  0  0  0  0  0  0  0  0  0
  142.8786   78.8967  221.9775 H   0  0  0  0  0  0  0  0  0  0  0  0
  140.8985   77.1525  219.9092 H   0  0  0  0  0  0  0  0  0  0  0  0
  142.4447   76.8814  220.7756 H   0  0  0  0  0  0  0  0  0  0  0  0
  141.6691   72.2537  222.6576 H   0  0  0  0  0  0  0  0  0  0  0  0
  140.6953   73.6839  223.0754 H   0  0  0  0  0  0  0  0  0  0  0  0
  140.2757   71.9772  224.8176 H   0  0  0  0  0  0  0  0  0  0  0  0
  138.8082   72.0454  223.8356 H   0  0  0  0  0  0  0  0  0  0  0  0
  1  2  1  0
  2  3  1  0
  3  4  2  0
  3  5  1  0
  5  6  1  0
  6  7  2  0
  7  8  1  0
  8  9  2  0
  9 10  1  0
 10 11  2  0
  5 12  1  0
 12 13  1  0
 13 14  1  0
 14 15  1  0
 15 16  1  0
 16 17  2  0
 16 18  1  0
 18 19  1  0
 18 20  1  0
 20 21  1  0
 21 22  1  0
 22 23  1  0
 23 24  2  0
 24 25  1  0
 25 26  2  0
 26 27  1  0
 26 28  1  0
 28 29  2  0
 29 30  1  0
 15 31  1  0
 31 32  1  0
 11  6  1  0
 32 12  1  0
 30 20  1  0
 29 23  1  0
  1 33  1  0
  1 34  1  0
  1 35  1  0
  2 36  1  0
  2 37  1  0
  7 38  1  0
  8 39  1  0
  9 40  1  0
 10 41  1  0
 11 42  1  0
 12 43  1  0
 13 44  1  0
 13 45  1  0
 14 46  1  0
 14 47  1  0
 18 48  1  1
 19 49  1  0
 19 50  1  0
 20 51  1  1
 21 52  1  0
 21 53  1  0
 22 54  1  0
 22 55  1  0
 24 56  1  0
 25 57  1  0
 28 58  1  0
 30 59  1  0
 30 60  1  0
 31 61  1  0
 31 62  1  0
 32 63  1  0
 32 64  1  0
M  END
>  <smiles>  (10) 
CCC(=O)N(c1ccccc1)C1CCN(C(=O)[C@@H](N)C2CCc3ccc(Br)cc3C2)CC1

>  <score_type>  (10) 
oracle

>  <origin>  (10) 
autodockgpu

>  <m_score__min__energy>  (10) 
-8.7100000000000009

>  <m_primary>  (10) 
energy

>  <rmsd>  (10) 
6.139315377957736

>  <m_score__min__rmsd>  (10) 
6.139315377957736

>  <meeko>  (10) 
{"free_energy": -7.97, "intermolecular_energy": -10.06, "internal_energy": -2.14, "cluster_size": 10, "cluster_id": 3, "rank_in_cluster": 9}

>  <energy>  (10) 
-7.98

>  <cluster_rmsd>  (10) 
0.76

>  <cluster>  (10) 
2

$$$$

     RDKit          3D

 64 67  0  0  0  0  0  0  0  0999 V2000
  136.6980   70.0590  224.5710 C   0  0  0  0  0  0  0  0  0  0  0  0
  137.1830   68.9170  223.6910 C   0  0  0  0  0  0  0  0  0  0  0  0
  138.5930   68.5690  224.0910 C   0  0  0  0  0  0  0  0  0  0  0  0
  138.8370   67.3290  224.1530 O   0  0  0  0  0  0  0  0  0  0  0  0
  139.5570   69.5520  224.3760 N   0  0  0  0  0  0  0  0  0  0  0  0
  140.0370   69.6260  225.7250 C   0  0  0  0  0  0  0  0  0  0  0  0
  140.3130   70.8270  226.3510 C   0  0  0  0  0  0  0  0  0  0  0  0
  140.7770   70.8940  227.6600 C   0  0  0  0  0  0  0  0  0  0  0  0
  140.9580   69.7250  228.3340 C   0  0  0  0  0  0  0  0  0  0  0  0
  140.7030   68.5000  227.7680 C   0  0  0  0  0  0  0  0  0  0  0  0
  140.2430   68.4580  226.4630 C   0  0  0  0  0  0  0  0  0  0  0  0
  140.0020   70.4310  223.3260 C   0  0  0  0  0  0  0  0  0  0  0  0
  139.4850   70.1110  221.9690 C   0  0  0  0  0  0  0  0  0  0  0  0
  138.8600   71.2800  221.2400 C   0  0  0  0  0  0  0  0  0  0  0  0
  139.7240   72.4500  221.2960 N   0  0  0  0  0  0  0  0  0  0  0  0
  139.8160   73.2430  220.1240 C   0  0  0  0  0  0  0  0  0  0  0  0
  139.0750   72.8340  219.1550 O   0  0  0  0  0  0  0  0  0  0  0  0
  140.6480   74.4270  219.9450 C   0  0  1  0  0  0  0  0  0  0  0  0
  140.4710   74.9950  218.6340 N   0  0  0  0  0  0  0  0  0  0  0  0
  140.6030   75.4470  221.0400 C   0  0  2  0  0  0  0  0  0  0  0  0
  139.2590   75.5310  221.6730 C   0  0  0  0  0  0  0  0  0  0  0  0
  138.6030   76.8900  221.6060 C   0  0  0  0  0  0  0  0  0  0  0  0
  139.5890   77.8640  222.1740 C   0  0  0  0  0  0  0  0  0  0  0  0
  139.1840   78.7630  223.1310 C   0  0  0  0  0  0  0  0  0  0  0  0
  140.1650   79.6390  223.6140 C   0  0  0  0  0  0  0  0  0  0  0  0
  141.4570   79.5900  223.1420 C   0  0  0  0  0  0  0  0  0  0  0  0
  142.7040   80.8320  223.8690 Br  0  0  0  0  0  0  0  0  0  0  0  0
  141.8060   78.6600  222.1730 C   0  0  0  0  0  0  0  0  0  0  0  0
  140.8670   77.7820  221.6760 C   0  0  0  0  0  0  0  0  0  0  0  0
  141.1830   76.7770  220.6340 C   0  0  0  0  0  0  0  0  0  0  0  0
  140.3970   72.7080  222.5410 C   0  0  0  0  0  0  0  0  0  0  0  0
  139.6730   71.8900  223.6290 C   0  0  0  0  0  0  0  0  0  0  0  0
  136.8156   69.7820  225.6290 H   0  0  0  0  0  0  0  0  0  0  0  0
  137.2905   70.9615  224.3602 H   0  0  0  0  0  0  0  0  0  0  0  0
  135.6371   70.2593  224.3602 H   0  0  0  0  0  0  0  0  0  0  0  0
  136.5318   68.0411  223.8279 H   0  0  0  0  0  0  0  0  0  0  0  0
  137.1555   69.2189  222.6336 H   0  0  0  0  0  0  0  0  0  0  0  0
  140.1602   71.7630  225.7938 H   0  0  0  0  0  0  0  0  0  0  0  0
  140.9913   71.8620  228.1365 H   0  0  0  0  0  0  0  0  0  0  0  0
  141.3223   69.7632  229.3712 H   0  0  0  0  0  0  0  0  0  0  0  0
  140.8607   67.5730  228.3388 H   0  0  0  0  0  0  0  0  0  0  0  0
  140.0351   67.4835  225.9970 H   0  0  0  0  0  0  0  0  0  0  0  0
  141.0897   70.2684  223.3070 H   0  0  0  0  0  0  0  0  0  0  0  0
  140.3228   69.7369  221.3623 H   0  0  0  0  0  0  0  0  0  0  0  0
  138.6861   69.3676  222.1076 H   0  0  0  0  0  0  0  0  0  0  0  0
  138.6971   71.0028  220.1880 H   0  0  0  0  0  0  0  0  0  0  0  0
  137.9040   71.5259  221.7254 H   0  0  0  0  0  0  0  0  0  0  0  0
  141.6787   74.0512  220.0255 H   0  0  0  0  0  0  0  0  0  0  0  0
  141.2390   74.7550  217.9670 H   0  0  0  0  0  0  0  0  0  0  0  0
  139.5290   74.7240  218.2150 H   0  0  0  0  0  0  0  0  0  0  0  0
  141.2764   75.0913  221.8337 H   0  0  0  0  0  0  0  0  0  0  0  0
  138.5994   74.8090  221.1694 H   0  0  0  0  0  0  0  0  0  0  0  0
  139.4095   75.3158  222.7412 H   0  0  0  0  0  0  0  0  0  0  0  0
  138.3702   77.1491  220.5626 H   0  0  0  0  0  0  0  0  0  0  0  0
  137.6581   76.9049  222.1691 H   0  0  0  0  0  0  0  0  0  0  0  0
  138.1473   78.7932  223.4975 H   0  0  0  0  0  0  0  0  0  0  0  0
  139.8981   80.3784  224.3834 H   0  0  0  0  0  0  0  0  0  0  0  0
  142.8397   78.6233  221.7988 H   0  0  0  0  0  0  0  0  0  0  0  0
  140.7468   77.0916  219.6744 H   0  0  0  0  0  0  0  0  0  0  0  0
  142.2738   76.6876  220.5240 H   0  0  0  0  0  0  0  0  0  0  0  0
  141.4494   72.3954  222.4723 H   0  0  0  0  0  0  0  0  0  0  0  0
  140.3761   73.7813  222.7809 H   0  0  0  0  0  0  0  0  0  0  0  0
  140.0406   72.1679  224.6278 H   0  0  0  0  0  0  0  0  0  0  0  0
  138.5885   72.0739  223.6250 H   0  0  0  0  0  0  0  0  0  0  0  0
  1  2  1  0
  2  3  1  0
  3  4  2  0
  3  5  1  0
  5  6  1  0
  6  7  2  0
  7  8  1  0
  8  9  2  0
  9 10  1  0
 10 11  2  0
  5 12  1  0
 12 13  1  0
 13 14  1  0
 14 15  1  0
 15 16  1  0
 16 17  2  0
 16 18  1  0
 18 19  1  0
 18 20  1  0
 20 21  1  0
 21 22  1  0
 22 23  1  0
 23 24  2  0
 24 25  1  0
 25 26  2  0
 26 27  1  0
 26 28  1  0
 28 29  2  0
 29 30  1  0
 15 31  1  0
 31 32  1  0
 11  6  1  0
 32 12  1  0
 30 20  1  0
 29 23  1  0
  1 33  1  0
  1 34  1  0
  1 35  1  0
  2 36  1  0
  2 37  1  0
  7 38  1  0
  8 39  1  0
  9 40  1  0
 10 41  1  0
 11 42  1  0
 12 43  1  0
 13 44  1  0
 13 45  1  0
 14 46  1  0
 14 47  1  0
 18 48  1  6
 19 49  1  0
 19 50  1  0
 20 51  1  1
 21 52  1  0
 21 53  1  0
 22 54  1  0
 22 55  1  0
 24 56  1  0
 25 57  1  0
 28 58  1  0
 30 59  1  0
 30 60  1  0
 31 61  1  0
 31 62  1  0
 32 63  1  0
 32 64  1  0
M  END
>  <smiles>  (11) 
CCC(=O)N(c1ccccc1)C1CCN(C(=O)[C@@H](N)C2CCc3ccc(Br)cc3C2)CC1

>  <score_type>  (11) 
oracle

>  <origin>  (11) 
autodockgpu

>  <m_score__min__energy>  (11) 
-8.7100000000000009

>  <m_primary>  (11) 
energy

>  <rmsd>  (11) 
6.1487438663286085

>  <m_score__min__rmsd>  (11) 
6.1487438663286085

>  <meeko>  (11) 
{"free_energy": -8.16, "intermolecular_energy": -10.25, "internal_energy": -2.09, "cluster_size": 10, "cluster_id": 3, "rank_in_cluster": 1}

>  <energy>  (11) 
-7.95

>  <cluster_rmsd>  (11) 
0.72

>  <cluster>  (11) 
2

$$$$

     RDKit          3D

 64 67  0  0  0  0  0  0  0  0999 V2000
  146.1750   69.7260  218.9700 C   0  0  0  0  0  0  0  0  0  0  0  0
  145.2060   70.5890  218.1760 C   0  0  0  0  0  0  0  0  0  0  0  0
  145.3770   72.0230  218.6070 C   0  0  0  0  0  0  0  0  0  0  0  0
  146.2940   72.2180  219.4560 O   0  0  0  0  0  0  0  0  0  0  0  0
  144.5710   73.0590  218.1020 N   0  0  0  0  0  0  0  0  0  0  0  0
  145.1260   73.8690  217.0580 C   0  0  0  0  0  0  0  0  0  0  0  0
  144.3830   74.8140  216.3750 C   0  0  0  0  0  0  0  0  0  0  0  0
  144.9260   75.5990  215.3650 C   0  0  0  0  0  0  0  0  0  0  0  0
  146.2380   75.4180  215.0510 C   0  0  0  0  0  0  0  0  0  0  0  0
  147.0290   74.4970  215.6900 C   0  0  0  0  0  0  0  0  0  0  0  0
  146.4670   73.7250  216.6930 C   0  0  0  0  0  0  0  0  0  0  0  0
  143.2570   73.2650  218.6520 C   0  0  0  0  0  0  0  0  0  0  0  0
  142.8200   72.2530  219.6500 C   0  0  0  0  0  0  0  0  0  0  0  0
  142.3020   72.8290  220.9490 C   0  0  0  0  0  0  0  0  0  0  0  0
  141.3320   73.8860  220.6990 N   0  0  0  0  0  0  0  0  0  0  0  0
  140.2000   73.9390  221.5500 C   0  0  0  0  0  0  0  0  0  0  0  0
  140.1990   73.0480  222.4780 O   0  0  0  0  0  0  0  0  0  0  0  0
  139.0910   74.8820  221.4550 C   0  0  1  0  0  0  0  0  0  0  0  0
  138.0150   74.5120  222.3360 N   0  0  0  0  0  0  0  0  0  0  0  0
  139.4420   76.3360  221.5310 C   0  0  2  0  0  0  0  0  0  0  0  0
  139.2970   77.0160  220.2150 C   0  0  0  0  0  0  0  0  0  0  0  0
  140.5560   77.6630  219.6870 C   0  0  0  0  0  0  0  0  0  0  0  0
  141.0540   78.5680  220.7720 C   0  0  0  0  0  0  0  0  0  0  0  0
  141.3920   79.8660  220.4750 C   0  0  0  0  0  0  0  0  0  0  0  0
  141.8460   80.6490  221.5450 C   0  0  0  0  0  0  0  0  0  0  0  0
  141.9450   80.1310  222.8160 C   0  0  0  0  0  0  0  0  0  0  0  0
  142.5780   81.2870  224.1890 Br  0  0  0  0  0  0  0  0  0  0  0  0
  141.5890   78.8100  223.0540 C   0  0  0  0  0  0  0  0  0  0  0  0
  141.1370   78.0110  222.0260 C   0  0  0  0  0  0  0  0  0  0  0  0
  140.7550   76.5930  222.2230 C   0  0  0  0  0  0  0  0  0  0  0  0
  141.6170   74.7940  219.6190 C   0  0  0  0  0  0  0  0  0  0  0  0
  143.1150   74.6470  219.2840 C   0  0  0  0  0  0  0  0  0  0  0  0
  146.0043   69.8780  220.0460 H   0  0  0  0  0  0  0  0  0  0  0  0
  146.0133   68.6673  218.7191 H   0  0  0  0  0  0  0  0  0  0  0  0
  147.2080   70.0087  218.7191 H   0  0  0  0  0  0  0  0  0  0  0  0
  145.4220   70.4965  217.1014 H   0  0  0  0  0  0  0  0  0  0  0  0
  144.1723   70.2613  218.3605 H   0  0  0  0  0  0  0  0  0  0  0  0
  143.3241   74.9493  216.6406 H   0  0  0  0  0  0  0  0  0  0  0  0
  144.3141   76.3440  214.8354 H   0  0  0  0  0  0  0  0  0  0  0  0
  146.6810   76.0337  214.2544 H   0  0  0  0  0  0  0  0  0  0  0  0
  148.0862   74.3745  215.4118 H   0  0  0  0  0  0  0  0  0  0  0  0
  147.0897   72.9825  217.2135 H   0  0  0  0  0  0  0  0  0  0  0  0
  142.6009   73.1630  217.7750 H   0  0  0  0  0  0  0  0  0  0  0  0
  142.0181   71.6505  219.1984 H   0  0  0  0  0  0  0  0  0  0  0  0
  143.7127   71.6633  219.9058 H   0  0  0  0  0  0  0  0  0  0  0  0
  141.8209   72.0291  221.5311 H   0  0  0  0  0  0  0  0  0  0  0  0
  143.1491   73.2544  221.5071 H   0  0  0  0  0  0  0  0  0  0  0  0
  138.7392   74.7861  220.4172 H   0  0  0  0  0  0  0  0  0  0  0  0
  138.1150   73.5540  222.7410 H   0  0  0  0  0  0  0  0  0  0  0  0
  137.8890   75.2260  223.1180 H   0  0  0  0  0  0  0  0  0  0  0  0
  138.6970   76.8098  222.1872 H   0  0  0  0  0  0  0  0  0  0  0  0
  138.9636   76.2687  219.4799 H   0  0  0  0  0  0  0  0  0  0  0  0
  138.5744   77.8310  220.3687 H   0  0  0  0  0  0  0  0  0  0  0  0
  141.3097   76.8959  219.4558 H   0  0  0  0  0  0  0  0  0  0  0  0
  140.3584   78.2224  218.7607 H   0  0  0  0  0  0  0  0  0  0  0  0
  141.3108   80.2683  219.4544 H   0  0  0  0  0  0  0  0  0  0  0  0
  142.1284   81.6969  221.3655 H   0  0  0  0  0  0  0  0  0  0  0  0
  141.6684   78.3981  224.0709 H   0  0  0  0  0  0  0  0  0  0  0  0
  141.5304   75.9398  221.7963 H   0  0  0  0  0  0  0  0  0  0  0  0
  140.6552   76.3818  223.2979 H   0  0  0  0  0  0  0  0  0  0  0  0
  141.0072   74.5377  218.7401 H   0  0  0  0  0  0  0  0  0  0  0  0
  141.3805   75.8292  219.9061 H   0  0  0  0  0  0  0  0  0  0  0  0
  143.4291   75.4279  218.5758 H   0  0  0  0  0  0  0  0  0  0  0  0
  143.7460   74.7537  220.1787 H   0  0  0  0  0  0  0  0  0  0  0  0
  1  2  1  0
  2  3  1  0
  3  4  2  0
  3  5  1  0
  5  6  1  0
  6  7  2  0
  7  8  1  0
  8  9  2  0
  9 10  1  0
 10 11  2  0
  5 12  1  0
 12 13  1  0
 13 14  1  0
 14 15  1  0
 15 16  1  0
 16 17  2  0
 16 18  1  0
 18 19  1  0
 18 20  1  0
 20 21  1  0
 21 22  1  0
 22 23  1  0
 23 24  2  0
 24 25  1  0
 25 26  2  0
 26 27  1  0
 26 28  1  0
 28 29  2  0
 29 30  1  0
 15 31  1  0
 31 32  1  0
 11  6  1  0
 32 12  1  0
 30 20  1  0
 29 23  1  0
  1 33  1  0
  1 34  1  0
  1 35  1  0
  2 36  1  0
  2 37  1  0
  7 38  1  0
  8 39  1  0
  9 40  1  0
 10 41  1  0
 11 42  1  0
 12 43  1  0
 13 44  1  0
 13 45  1  0
 14 46  1  0
 14 47  1  0
 18 48  1  6
 19 49  1  0
 19 50  1  0
 20 51  1  1
 21 52  1  0
 21 53  1  0
 22 54  1  0
 22 55  1  0
 24 56  1  0
 25 57  1  0
 28 58  1  0
 30 59  1  0
 30 60  1  0
 31 61  1  0
 31 62  1  0
 32 63  1  0
 32 64  1  0
M  END
>  <smiles>  (12) 
CCC(=O)N(c1ccccc1)C1CCN(C(=O)[C@@H](N)C2CCc3ccc(Br)cc3C2)CC1

>  <score_type>  (12) 
oracle

>  <origin>  (12) 
autodockgpu

>  <m_score__min__energy>  (12) 
-8.7100000000000009

>  <m_primary>  (12) 
energy

>  <rmsd>  (12) 
5.066571830805289

>  <m_score__min__rmsd>  (12) 
5.066571830805289

>  <meeko>  (12) 
{"free_energy": -7.65, "intermolecular_energy": -9.73, "internal_energy": -2.36, "cluster_size": 6, "cluster_id": 4, "rank_in_cluster": 6}

>  <energy>  (12) 
-7.92

>  <cluster_rmsd>  (12) 
0.99

>  <cluster>  (12) 
2

$$$$

     RDKit          3D

 64 67  0  0  0  0  0  0  0  0999 V2000
  138.0120   80.5760  224.5660 C   0  0  0  0  0  0  0  0  0  0  0  0
  137.7860   80.3860  223.0740 C   0  0  0  0  0  0  0  0  0  0  0  0
  138.0560   78.9450  222.7280 C   0  0  0  0  0  0  0  0  0  0  0  0
  137.0430   78.1900  222.7640 O   0  0  0  0  0  0  0  0  0  0  0  0
  139.3410   78.4820  222.3940 N   0  0  0  0  0  0  0  0  0  0  0  0
  140.4470   79.3390  222.7060 C   0  0  0  0  0  0  0  0  0  0  0  0
  140.7960   80.4190  221.9170 C   0  0  0  0  0  0  0  0  0  0  0  0
  141.8680   81.2490  222.2250 C   0  0  0  0  0  0  0  0  0  0  0  0
  142.5870   80.9750  223.3470 C   0  0  0  0  0  0  0  0  0  0  0  0
  142.2920   79.9170  224.1720 C   0  0  0  0  0  0  0  0  0  0  0  0
  141.2210   79.1030  223.8450 C   0  0  0  0  0  0  0  0  0  0  0  0
  139.4880   77.1990  221.7580 C   0  0  0  0  0  0  0  0  0  0  0  0
  140.8200   76.9400  221.1480 C   0  0  0  0  0  0  0  0  0  0  0  0
  141.4570   75.6310  221.5550 C   0  0  0  0  0  0  0  0  0  0  0  0
  140.5130   74.5310  221.4280 N   0  0  0  0  0  0  0  0  0  0  0  0
  141.0140   73.3030  220.9270 C   0  0  0  0  0  0  0  0  0  0  0  0
  142.2760   73.3130  220.6820 O   0  0  0  0  0  0  0  0  0  0  0  0
  140.2410   72.0900  220.6800 C   0  0  1  0  0  0  0  0  0  0  0  0
  140.7060   71.4060  219.5020 N   0  0  0  0  0  0  0  0  0  0  0  0
  140.0370   71.1780  221.8500 C   0  0  2  0  0  0  0  0  0  0  0  0
  138.7530   70.4320  221.7600 C   0  0  0  0  0  0  0  0  0  0  0  0
  137.8020   70.6520  222.9130 C   0  0  0  0  0  0  0  0  0  0  0  0
  138.5750   70.3570  224.1620 C   0  0  0  0  0  0  0  0  0  0  0  0
  138.0390   69.5220  225.1130 C   0  0  0  0  0  0  0  0  0  0  0  0
  138.8250   69.2940  226.2510 C   0  0  0  0  0  0  0  0  0  0  0  0
  140.0610   69.8820  226.3920 C   0  0  0  0  0  0  0  0  0  0  0  0
  141.0370   69.5010  227.9820 Br  0  0  0  0  0  0  0  0  0  0  0  0
  140.5490   70.7170  225.3970 C   0  0  0  0  0  0  0  0  0  0  0  0
  139.8040   70.9640  224.2630 C   0  0  0  0  0  0  0  0  0  0  0  0
  140.2720   71.8550  223.1760 C   0  0  0  0  0  0  0  0  0  0  0  0
  139.1560   74.7810  221.8380 C   0  0  0  0  0  0  0  0  0  0  0  0
  139.1720   76.0500  222.7120 C   0  0  0  0  0  0  0  0  0  0  0  0
  137.2877   79.9671  225.1270 H   0  0  0  0  0  0  0  0  0  0  0  0
  139.0338   80.2617  224.8250 H   0  0  0  0  0  0  0  0  0  0  0  0
  137.8779   81.6366  224.8250 H   0  0  0  0  0  0  0  0  0  0  0  0
  136.7458   80.6394  222.8213 H   0  0  0  0  0  0  0  0  0  0  0  0
  138.4604   81.0425  222.5046 H   0  0  0  0  0  0  0  0  0  0  0  0
  140.2047   80.6292  221.0136 H   0  0  0  0  0  0  0  0  0  0  0  0
  142.1271   82.1020  221.5806 H   0  0  0  0  0  0  0  0  0  0  0  0
  143.4365   81.6251  223.6032 H   0  0  0  0  0  0  0  0  0  0  0  0
  142.8932   79.7210  225.0721 H   0  0  0  0  0  0  0  0  0  0  0  0
  140.9739   78.2517  224.4963 H   0  0  0  0  0  0  0  0  0  0  0  0
  138.7561   77.2433  220.9380 H   0  0  0  0  0  0  0  0  0  0  0  0
  140.7016   76.9381  220.0544 H   0  0  0  0  0  0  0  0  0  0  0  0
  141.4875   77.7361  221.5094 H   0  0  0  0  0  0  0  0  0  0  0  0
  142.3252   75.4367  220.9080 H   0  0  0  0  0  0  0  0  0  0  0  0
  141.7698   75.7052  222.6070 H   0  0  0  0  0  0  0  0  0  0  0  0
  139.2192   72.4510  220.4915 H   0  0  0  0  0  0  0  0  0  0  0  0
  140.0490   71.4720  218.6920 H   0  0  0  0  0  0  0  0  0  0  0  0
  141.6750   71.7440  219.2120 H   0  0  0  0  0  0  0  0  0  0  0  0
  140.8236   70.4109  221.7978 H   0  0  0  0  0  0  0  0  0  0  0  0
  138.2440   70.7401  220.8348 H   0  0  0  0  0  0  0  0  0  0  0  0
  139.0169   69.3643  221.7800 H   0  0  0  0  0  0  0  0  0  0  0  0
  137.4490   71.6938  222.9213 H   0  0  0  0  0  0  0  0  0  0  0  0
  136.9175   70.0035  222.8293 H   0  0  0  0  0  0  0  0  0  0  0  0
  137.0491   69.0588  224.9882 H   0  0  0  0  0  0  0  0  0  0  0  0
  138.4471   68.6334  227.0453 H   0  0  0  0  0  0  0  0  0  0  0  0
  141.5374   71.1854  225.5136 H   0  0  0  0  0  0  0  0  0  0  0  0
  139.7143   72.8025  223.2101 H   0  0  0  0  0  0  0  0  0  0  0  0
  141.3449   72.0624  223.3020 H   0  0  0  0  0  0  0  0  0  0  0  0
  138.5184   74.9388  220.9556 H   0  0  0  0  0  0  0  0  0  0  0  0
  138.7530   73.9249  222.3989 H   0  0  0  0  0  0  0  0  0  0  0  0
  138.1911   76.2027  223.1859 H   0  0  0  0  0  0  0  0  0  0  0  0
  139.9121   75.9776  223.5226 H   0  0  0  0  0  0  0  0  0  0  0  0
  1  2  1  0
  2  3  1  0
  3  4  2  0
  3  5  1  0
  5  6  1  0
  6  7  2  0
  7  8  1  0
  8  9  2  0
  9 10  1  0
 10 11  2  0
  5 12  1  0
 12 13  1  0
 13 14  1  0
 14 15  1  0
 15 16  1  0
 16 17  2  0
 16 18  1  0
 18 19  1  0
 18 20  1  0
 20 21  1  0
 21 22  1  0
 22 23  1  0
 23 24  2  0
 24 25  1  0
 25 26  2  0
 26 27  1  0
 26 28  1  0
 28 29  2  0
 29 30  1  0
 15 31  1  0
 31 32  1  0
 11  6  1  0
 32 12  1  0
 30 20  1  0
 29 23  1  0
  1 33  1  0
  1 34  1  0
  1 35  1  0
  2 36  1  0
  2 37  1  0
  7 38  1  0
  8 39  1  0
  9 40  1  0
 10 41  1  0
 11 42  1  0
 12 43  1  0
 13 44  1  0
 13 45  1  0
 14 46  1  0
 14 47  1  0
 18 48  1  6
 19 49  1  0
 19 50  1  0
 20 51  1  6
 21 52  1  0
 21 53  1  0
 22 54  1  0
 22 55  1  0
 24 56  1  0
 25 57  1  0
 28 58  1  0
 30 59  1  0
 30 60  1  0
 31 61  1  0
 31 62  1  0
 32 63  1  0
 32 64  1  0
M  END
>  <smiles>  (13) 
CCC(=O)N(c1ccccc1)C1CCN(C(=O)[C@@H](N)C2CCc3ccc(Br)cc3C2)CC1

>  <score_type>  (13) 
oracle

>  <origin>  (13) 
autodockgpu

>  <m_score__min__energy>  (13) 
-8.7100000000000009

>  <m_primary>  (13) 
energy

>  <rmsd>  (13) 
7.991392562022767

>  <m_score__min__rmsd>  (13) 
7.991392562022767

>  <meeko>  (13) 
{"free_energy": -7.81, "intermolecular_energy": -9.9, "internal_energy": -2.35, "cluster_size": 14, "cluster_id": 5, "rank_in_cluster": 2}

>  <energy>  (13) 
-7.91

>  <cluster_rmsd>  (13) 
1.88

>  <cluster>  (13) 
2

$$$$

     RDKit          3D

 64 67  0  0  0  0  0  0  0  0999 V2000
  145.6680   72.9940  221.4420 C   0  0  0  0  0  0  0  0  0  0  0  0
  146.0120   73.7660  220.1780 C   0  0  0  0  0  0  0  0  0  0  0  0
  145.4850   73.0020  218.9910 C   0  0  0  0  0  0  0  0  0  0  0  0
  146.0400   73.2820  217.8890 O   0  0  0  0  0  0  0  0  0  0  0  0
  144.4530   72.0550  219.1070 N   0  0  0  0  0  0  0  0  0  0  0  0
  144.7990   70.6800  218.8930 C   0  0  0  0  0  0  0  0  0  0  0  0
  143.9590   69.7930  218.2470 C   0  0  0  0  0  0  0  0  0  0  0  0
  144.3000   68.4610  218.0400 C   0  0  0  0  0  0  0  0  0  0  0  0
  145.5100   68.0340  218.4950 C   0  0  0  0  0  0  0  0  0  0  0  0
  146.3890   68.8650  219.1440 C   0  0  0  0  0  0  0  0  0  0  0  0
  146.0280   70.1870  219.3400 C   0  0  0  0  0  0  0  0  0  0  0  0
  143.1190   72.4970  219.4170 C   0  0  0  0  0  0  0  0  0  0  0  0
  142.4270   71.7270  220.4860 C   0  0  0  0  0  0  0  0  0  0  0  0
  141.8290   72.5740  221.5870 C   0  0  0  0  0  0  0  0  0  0  0  0
  141.0500   73.6720  221.0350 N   0  0  0  0  0  0  0  0  0  0  0  0
  139.8360   73.9970  221.6900 C   0  0  0  0  0  0  0  0  0  0  0  0
  139.5970   73.2860  222.7350 O   0  0  0  0  0  0  0  0  0  0  0  0
  138.8840   75.0260  221.2870 C   0  0  1  0  0  0  0  0  0  0  0  0
  137.6120   74.8440  221.9360 N   0  0  0  0  0  0  0  0  0  0  0  0
  139.3710   76.4420  221.3300 C   0  0  2  0  0  0  0  0  0  0  0  0
  139.5110   77.0280  219.9700 C   0  0  0  0  0  0  0  0  0  0  0  0
  140.8990   77.5090  219.6190 C   0  0  0  0  0  0  0  0  0  0  0  0
  141.3120   78.4440  220.7140 C   0  0  0  0  0  0  0  0  0  0  0  0
  141.8300   79.6770  220.3980 C   0  0  0  0  0  0  0  0  0  0  0  0
  142.1900   80.4940  221.4780 C   0  0  0  0  0  0  0  0  0  0  0  0
  142.0300   80.0680  222.7770 C   0  0  0  0  0  0  0  0  0  0  0  0
  142.5570   81.2620  224.1630 Br  0  0  0  0  0  0  0  0  0  0  0  0
  141.5020   78.8100  223.0340 C   0  0  0  0  0  0  0  0  0  0  0  0
  141.1360   77.9800  221.9960 C   0  0  0  0  0  0  0  0  0  0  0  0
  140.5790   76.6240  222.2140 C   0  0  0  0  0  0  0  0  0  0  0  0
  141.5890   74.3420  219.8810 C   0  0  0  0  0  0  0  0  0  0  0  0
  143.0830   73.9750  219.7980 C   0  0  0  0  0  0  0  0  0  0  0  0
  145.9359   73.5953  222.3233 H   0  0  0  0  0  0  0  0  0  0  0  0
  144.5892   72.7797  221.4586 H   0  0  0  0  0  0  0  0  0  0  0  0
  146.2300   72.0485  221.4586 H   0  0  0  0  0  0  0  0  0  0  0  0
  145.5470   74.7622  220.2139 H   0  0  0  0  0  0  0  0  0  0  0  0
  147.1024   73.8851  220.0949 H   0  0  0  0  0  0  0  0  0  0  0  0
  142.9855   70.1537  217.8834 H   0  0  0  0  0  0  0  0  0  0  0  0
  143.6133   67.7735  217.5245 H   0  0  0  0  0  0  0  0  0  0  0  0
  145.7941   66.9832  218.3366 H   0  0  0  0  0  0  0  0  0  0  0  0
  147.3592   68.4886  219.5006 H   0  0  0  0  0  0  0  0  0  0  0  0
  146.7231   70.8637  219.8585 H   0  0  0  0  0  0  0  0  0  0  0  0
  142.5727   72.3181  218.4792 H   0  0  0  0  0  0  0  0  0  0  0  0
  141.6163   71.1471  220.0208 H   0  0  0  0  0  0  0  0  0  0  0  0
  143.1928   71.0956  220.9602 H   0  0  0  0  0  0  0  0  0  0  0  0
  141.1746   71.9457  222.2091 H   0  0  0  0  0  0  0  0  0  0  0  0
  142.6475   72.9934  222.1905 H   0  0  0  0  0  0  0  0  0  0  0  0
  138.7495   74.8641  220.2073 H   0  0  0  0  0  0  0  0  0  0  0  0
  136.9010   74.3680  221.3370 H   0  0  0  0  0  0  0  0  0  0  0  0
  137.7180   74.3230  222.8600 H   0  0  0  0  0  0  0  0  0  0  0  0
  138.5857   77.0351  221.8214 H   0  0  0  0  0  0  0  0  0  0  0  0
  139.2207   76.2609  219.2370 H   0  0  0  0  0  0  0  0  0  0  0  0
  138.8649   77.9181  219.9521 H   0  0  0  0  0  0  0  0  0  0  0  0
  141.5938   76.6580  219.5632 H   0  0  0  0  0  0  0  0  0  0  0  0
  140.9115   78.0108  218.6402 H   0  0  0  0  0  0  0  0  0  0  0  0
  141.9551   80.0044  219.3553 H   0  0  0  0  0  0  0  0  0  0  0  0
  142.6077   81.4930  221.2843 H   0  0  0  0  0  0  0  0  0  0  0  0
  141.3748   78.4731  224.0734 H   0  0  0  0  0  0  0  0  0  0  0  0
  141.3378   75.8686  221.9618 H   0  0  0  0  0  0  0  0  0  0  0  0
  140.2892   76.5062  223.2686 H   0  0  0  0  0  0  0  0  0  0  0  0
  141.0674   74.0065  218.9725 H   0  0  0  0  0  0  0  0  0  0  0  0
  141.4584   75.4310  219.9651 H   0  0  0  0  0  0  0  0  0  0  0  0
  143.5860   74.5822  219.0310 H   0  0  0  0  0  0  0  0  0  0  0  0
  143.6033   74.1644  220.7485 H   0  0  0  0  0  0  0  0  0  0  0  0
  1  2  1  0
  2  3  1  0
  3  4  2  0
  3  5  1  0
  5  6  1  0
  6  7  2  0
  7  8  1  0
  8  9  2  0
  9 10  1  0
 10 11  2  0
  5 12  1  0
 12 13  1  0
 13 14  1  0
 14 15  1  0
 15 16  1  0
 16 17  2  0
 16 18  1  0
 18 19  1  0
 18 20  1  0
 20 21  1  0
 21 22  1  0
 22 23  1  0
 23 24  2  0
 24 25  1  0
 25 26  2  0
 26 27  1  0
 26 28  1  0
 28 29  2  0
 29 30  1  0
 15 31  1  0
 31 32  1  0
 11  6  1  0
 32 12  1  0
 30 20  1  0
 29 23  1  0
  1 33  1  0
  1 34  1  0
  1 35  1  0
  2 36  1  0
  2 37  1  0
  7 38  1  0
  8 39  1  0
  9 40  1  0
 10 41  1  0
 11 42  1  0
 12 43  1  0
 13 44  1  0
 13 45  1  0
 14 46  1  0
 14 47  1  0
 18 48  1  6
 19 49  1  0
 19 50  1  0
 20 51  1  1
 21 52  1  0
 21 53  1  0
 22 54  1  0
 22 55  1  0
 24 56  1  0
 25 57  1  0
 28 58  1  0
 30 59  1  0
 30 60  1  0
 31 61  1  0
 31 62  1  0
 32 63  1  0
 32 64  1  0
M  END
>  <smiles>  (14) 
CCC(=O)N(c1ccccc1)C1CCN(C(=O)[C@@H](N)C2CCc3ccc(Br)cc3C2)CC1

>  <score_type>  (14) 
oracle

>  <origin>  (14) 
autodockgpu

>  <m_score__min__energy>  (14) 
-8.7100000000000009

>  <m_primary>  (14) 
energy

>  <rmsd>  (14) 
5.233492419734551

>  <m_score__min__rmsd>  (14) 
5.233492419734551

>  <meeko>  (14) 
{"free_energy": -8.11, "intermolecular_energy": -10.19, "internal_energy": -2.4, "cluster_size": 15, "cluster_id": 2, "rank_in_cluster": 5}

>  <energy>  (14) 
-7.69

>  <cluster_rmsd>  (14) 
1.17

>  <cluster>  (14) 
2

$$$$

     RDKit          3D

 64 67  0  0  0  0  0  0  0  0999 V2000
  137.8260   81.3960  223.0440 C   0  0  0  0  0  0  0  0  0  0  0  0
  138.0150   80.0700  223.7650 C   0  0  0  0  0  0  0  0  0  0  0  0
  138.1660   78.9820  222.7340 C   0  0  0  0  0  0  0  0  0  0  0  0
  137.0800   78.5640  222.2390 O   0  0  0  0  0  0  0  0  0  0  0  0
  139.4220   78.4730  222.3590 N   0  0  0  0  0  0  0  0  0  0  0  0
  140.5680   79.2860  222.6400 C   0  0  0  0  0  0  0  0  0  0  0  0
  141.4030   79.0480  223.7160 C   0  0  0  0  0  0  0  0  0  0  0  0
  142.5150   79.8380  223.9830 C   0  0  0  0  0  0  0  0  0  0  0  0
  142.7770   80.8770  223.1440 C   0  0  0  0  0  0  0  0  0  0  0  0
  141.9870   81.1660  222.0590 C   0  0  0  0  0  0  0  0  0  0  0  0
  140.8840   80.3670  221.8130 C   0  0  0  0  0  0  0  0  0  0  0  0
  139.5000   77.1890  221.7120 C   0  0  0  0  0  0  0  0  0  0  0  0
  140.7300   76.9560  220.9090 C   0  0  0  0  0  0  0  0  0  0  0  0
  141.4520   75.6640  221.2200 C   0  0  0  0  0  0  0  0  0  0  0  0
  140.5250   74.5420  221.2410 N   0  0  0  0  0  0  0  0  0  0  0  0
  140.9730   73.3220  220.6740 C   0  0  0  0  0  0  0  0  0  0  0  0
  142.1830   73.3590  220.2400 O   0  0  0  0  0  0  0  0  0  0  0  0
  140.2000   72.0910  220.5520 C   0  0  1  0  0  0  0  0  0  0  0  0
  140.4500   71.4420  219.2920 N   0  0  0  0  0  0  0  0  0  0  0  0
  140.2480   71.1530  221.7180 C   0  0  2  0  0  0  0  0  0  0  0  0
  139.5340   69.8780  221.4400 C   0  0  0  0  0  0  0  0  0  0  0  0
  138.3970   69.5620  222.3830 C   0  0  0  0  0  0  0  0  0  0  0  0
  138.9630   69.6370  223.7680 C   0  0  0  0  0  0  0  0  0  0  0  0
  138.7310   68.6120  224.6550 C   0  0  0  0  0  0  0  0  0  0  0  0
  139.2960   68.7560  225.9300 C   0  0  0  0  0  0  0  0  0  0  0  0
  140.0370   69.8680  226.2590 C   0  0  0  0  0  0  0  0  0  0  0  0
  140.7520   69.9560  228.0210 Br  0  0  0  0  0  0  0  0  0  0  0  0
  140.2350   70.8710  225.3200 C   0  0  0  0  0  0  0  0  0  0  0  0
  139.6950   70.7630  224.0560 C   0  0  0  0  0  0  0  0  0  0  0  0
  139.8670   71.8090  223.0200 C   0  0  0  0  0  0  0  0  0  0  0  0
  139.2410   74.7650  221.8500 C   0  0  0  0  0  0  0  0  0  0  0  0
  139.3590   76.0400  222.7080 C   0  0  0  0  0  0  0  0  0  0  0  0
  137.7111   82.2023  223.7834 H   0  0  0  0  0  0  0  0  0  0  0  0
  138.7043   81.5990  222.4136 H   0  0  0  0  0  0  0  0  0  0  0  0
  136.9260   81.3456  222.4136 H   0  0  0  0  0  0  0  0  0  0  0  0
  138.9174   80.1143  224.3925 H   0  0  0  0  0  0  0  0  0  0  0  0
  137.1459   79.8629  224.4067 H   0  0  0  0  0  0  0  0  0  0  0  0
  141.1794   78.2035  224.3844 H   0  0  0  0  0  0  0  0  0  0  0  0
  143.1638   79.6297  224.8465 H   0  0  0  0  0  0  0  0  0  0  0  0
  143.6550   81.5092  223.3427 H   0  0  0  0  0  0  0  0  0  0  0  0
  142.2254   82.0138  221.3998 H   0  0  0  0  0  0  0  0  0  0  0  0
  140.2421   80.5878  220.9475 H   0  0  0  0  0  0  0  0  0  0  0  0
  138.6518   77.2106  221.0120 H   0  0  0  0  0  0  0  0  0  0  0  0
  140.4480   76.9436  219.8458 H   0  0  0  0  0  0  0  0  0  0  0  0
  141.4255   77.7696  221.1626 H   0  0  0  0  0  0  0  0  0  0  0  0
  142.2168   75.4847  220.4500 H   0  0  0  0  0  0  0  0  0  0  0  0
  141.9185   75.7526  222.2123 H   0  0  0  0  0  0  0  0  0  0  0  0
  139.1517   72.4238  220.5706 H   0  0  0  0  0  0  0  0  0  0  0  0
  139.6690   71.5460  218.6050 H   0  0  0  0  0  0  0  0  0  0  0  0
  141.3640   71.7750  218.8560 H   0  0  0  0  0  0  0  0  0  0  0  0
  141.3020   70.8710  221.8580 H   0  0  0  0  0  0  0  0  0  0  0  0
  139.1260   69.9313  220.4199 H   0  0  0  0  0  0  0  0  0  0  0  0
  140.2751   69.0762  221.5738 H   0  0  0  0  0  0  0  0  0  0  0  0
  137.5874   70.2969  222.2625 H   0  0  0  0  0  0  0  0  0  0  0  0
  137.9739   68.5674  222.1784 H   0  0  0  0  0  0  0  0  0  0  0  0
  138.1357   67.7289  224.3797 H   0  0  0  0  0  0  0  0  0  0  0  0
  139.1444   67.9663  226.6805 H   0  0  0  0  0  0  0  0  0  0  0  0
  140.8273   71.7588  225.5864 H   0  0  0  0  0  0  0  0  0  0  0  0
  138.9238   72.3605  222.8928 H   0  0  0  0  0  0  0  0  0  0  0  0
  140.6569   72.5100  223.3277 H   0  0  0  0  0  0  0  0  0  0  0  0
  138.4743   74.9029  221.0734 H   0  0  0  0  0  0  0  0  0  0  0  0
  138.9472   73.9040  222.4683 H   0  0  0  0  0  0  0  0  0  0  0  0
  138.4577   76.1736  223.3243 H   0  0  0  0  0  0  0  0  0  0  0  0
  140.2141   75.9903  223.3982 H   0  0  0  0  0  0  0  0  0  0  0  0
  1  2  1  0
  2  3  1  0
  3  4  2  0
  3  5  1  0
  5  6  1  0
  6  7  2  0
  7  8  1  0
  8  9  2  0
  9 10  1  0
 10 11  2  0
  5 12  1  0
 12 13  1  0
 13 14  1  0
 14 15  1  0
 15 16  1  0
 16 17  2  0
 16 18  1  0
 18 19  1  0
 18 20  1  0
 20 21  1  0
 21 22  1  0
 22 23  1  0
 23 24  2  0
 24 25  1  0
 25 26  2  0
 26 27  1  0
 26 28  1  0
 28 29  2  0
 29 30  1  0
 15 31  1  0
 31 32  1  0
 11  6  1  0
 32 12  1  0
 30 20  1  0
 29 23  1  0
  1 33  1  0
  1 34  1  0
  1 35  1  0
  2 36  1  0
  2 37  1  0
  7 38  1  0
  8 39  1  0
  9 40  1  0
 10 41  1  0
 11 42  1  0
 12 43  1  0
 13 44  1  0
 13 45  1  0
 14 46  1  0
 14 47  1  0
 18 48  1  6
 19 49  1  0
 19 50  1  0
 20 51  1  1
 21 52  1  0
 21 53  1  0
 22 54  1  0
 22 55  1  0
 24 56  1  0
 25 57  1  0
 28 58  1  0
 30 59  1  0
 30 60  1  0
 31 61  1  0
 31 62  1  0
 32 63  1  0
 32 64  1  0
M  END
>  <smiles>  (15) 
CCC(=O)N(c1ccccc1)C1CCN(C(=O)[C@@H](N)C2CCc3ccc(Br)cc3C2)CC1

>  <score_type>  (15) 
oracle

>  <origin>  (15) 
autodockgpu

>  <m_score__min__energy>  (15) 
-8.7100000000000009

>  <m_primary>  (15) 
energy

>  <rmsd>  (15) 
7.8954083960273

>  <m_score__min__rmsd>  (15) 
7.8954083960273

>  <meeko>  (15) 
{"free_energy": -7.65, "intermolecular_energy": -9.74, "internal_energy": -2.26, "cluster_size": 14, "cluster_id": 5, "rank_in_cluster": 7}

>  <energy>  (15) 
-7.66

>  <cluster_rmsd>  (15) 
1.87

>  <cluster>  (15) 
2

$$$$

     RDKit          3D

 64 67  0  0  0  0  0  0  0  0999 V2000
  136.6130   70.3590  223.9330 C   0  0  0  0  0  0  0  0  0  0  0  0
  136.9930   69.0950  224.6900 C   0  0  0  0  0  0  0  0  0  0  0  0
  138.3930   68.7030  224.2950 C   0  0  0  0  0  0  0  0  0  0  0  0
  138.4860   67.5900  223.7010 O   0  0  0  0  0  0  0  0  0  0  0  0
  139.5070   69.5150  224.5720 N   0  0  0  0  0  0  0  0  0  0  0  0
  140.0480   69.4530  225.8980 C   0  0  0  0  0  0  0  0  0  0  0  0
  140.2740   70.5820  226.6630 C   0  0  0  0  0  0  0  0  0  0  0  0
  140.7970   70.5170  227.9490 C   0  0  0  0  0  0  0  0  0  0  0  0
  141.0880   69.2890  228.4590 C   0  0  0  0  0  0  0  0  0  0  0  0
  140.8880   68.1300  227.7500 C   0  0  0  0  0  0  0  0  0  0  0  0
  140.3680   68.2190  226.4710 C   0  0  0  0  0  0  0  0  0  0  0  0
  140.0380   70.3640  223.5380 C   0  0  0  0  0  0  0  0  0  0  0  0
  139.6130   70.0220  222.1550 C   0  0  0  0  0  0  0  0  0  0  0  0
  139.0590   71.1820  221.3590 C   0  0  0  0  0  0  0  0  0  0  0  0
  139.9330   72.3420  221.4510 N   0  0  0  0  0  0  0  0  0  0  0  0
  140.1190   73.1070  220.2720 C   0  0  0  0  0  0  0  0  0  0  0  0
  139.4420   72.6870  219.2620 O   0  0  0  0  0  0  0  0  0  0  0  0
  140.9790   74.2760  220.1270 C   0  0  1  0  0  0  0  0  0  0  0  0
  140.9180   74.8060  218.7900 N   0  0  0  0  0  0  0  0  0  0  0  0
  140.8590   75.3290  221.1840 C   0  0  2  0  0  0  0  0  0  0  0  0
  139.4900   75.3860  221.7650 C   0  0  0  0  0  0  0  0  0  0  0  0
  138.7910   76.7190  221.6270 C   0  0  0  0  0  0  0  0  0  0  0  0
  139.7210   77.7450  222.1970 C   0  0  0  0  0  0  0  0  0  0  0  0
  139.2510   78.6600  223.1080 C   0  0  0  0  0  0  0  0  0  0  0  0
  140.1840   79.5860  223.5960 C   0  0  0  0  0  0  0  0  0  0  0  0
  141.4930   79.5670  223.1740 C   0  0  0  0  0  0  0  0  0  0  0  0
  142.6690   80.8740  223.9030 Br  0  0  0  0  0  0  0  0  0  0  0  0
  141.9090   78.6180  222.2500 C   0  0  0  0  0  0  0  0  0  0  0  0
  141.0200   77.6910  221.7490 C   0  0  0  0  0  0  0  0  0  0  0  0
  141.4080   76.6650  220.7540 C   0  0  0  0  0  0  0  0  0  0  0  0
  140.5200   72.6180  222.7350 C   0  0  0  0  0  0  0  0  0  0  0  0
  139.7090   71.8350  223.7850 C   0  0  0  0  0  0  0  0  0  0  0  0
  136.3729   71.1577  224.6502 H   0  0  0  0  0  0  0  0  0  0  0  0
  137.4558   70.6751  223.3008 H   0  0  0  0  0  0  0  0  0  0  0  0
  135.7356   70.1580  223.3008 H   0  0  0  0  0  0  0  0  0  0  0  0
  136.9525   69.2848  225.7728 H   0  0  0  0  0  0  0  0  0  0  0  0
  136.2915   68.2840  224.4448 H   0  0  0  0  0  0  0  0  0  0  0  0
  140.0311   71.5673  226.2386 H   0  0  0  0  0  0  0  0  0  0  0  0
  140.9705   71.4304  228.5369 H   0  0  0  0  0  0  0  0  0  0  0  0
  141.4988   69.2225  229.4773 H   0  0  0  0  0  0  0  0  0  0  0  0
  141.1358   67.1524  228.1893 H   0  0  0  0  0  0  0  0  0  0  0  0
  140.2028   67.2982  225.8923 H   0  0  0  0  0  0  0  0  0  0  0  0
  141.1216   70.1857  223.6005 H   0  0  0  0  0  0  0  0  0  0  0  0
  140.4857   69.6232  221.6172 H   0  0  0  0  0  0  0  0  0  0  0  0
  138.7947   69.2934  222.2528 H   0  0  0  0  0  0  0  0  0  0  0  0
  138.9673   70.8834  220.3043 H   0  0  0  0  0  0  0  0  0  0  0  0
  138.0749   71.4511  221.7701 H   0  0  0  0  0  0  0  0  0  0  0  0
  141.9943   73.8909  220.3026 H   0  0  0  0  0  0  0  0  0  0  0  0
  141.7300   74.5300  218.1930 H   0  0  0  0  0  0  0  0  0  0  0  0
  140.0050   74.5400  218.3070 H   0  0  0  0  0  0  0  0  0  0  0  0
  141.5145   75.0238  222.0129 H   0  0  0  0  0  0  0  0  0  0  0  0
  138.8747   74.6248  221.2631 H   0  0  0  0  0  0  0  0  0  0  0  0
  139.6074   75.2115  222.8447 H   0  0  0  0  0  0  0  0  0  0  0  0
  138.5895   76.9350  220.5674 H   0  0  0  0  0  0  0  0  0  0  0  0
  137.8254   76.7194  222.1539 H   0  0  0  0  0  0  0  0  0  0  0  0
  138.2011   78.6657  223.4362 H   0  0  0  0  0  0  0  0  0  0  0  0
  139.8635   80.3408  224.3291 H   0  0  0  0  0  0  0  0  0  0  0  0
  142.9566   78.6056  221.9149 H   0  0  0  0  0  0  0  0  0  0  0  0
  140.9969   76.9326  219.7694 H   0  0  0  0  0  0  0  0  0  0  0  0
  142.5045   76.6106  220.6859 H   0  0  0  0  0  0  0  0  0  0  0  0
  141.5697   72.2894  222.7479 H   0  0  0  0  0  0  0  0  0  0  0  0
  140.4987   73.6965  222.9502 H   0  0  0  0  0  0  0  0  0  0  0  0
  140.0083   72.1308  224.8013 H   0  0  0  0  0  0  0  0  0  0  0  0
  138.6303   72.0327  223.6992 H   0  0  0  0  0  0  0  0  0  0  0  0
  1  2  1  0
  2  3  1  0
  3  4  2  0
  3  5  1  0
  5  6  1  0
  6  7  2  0
  7  8  1  0
  8  9  2  0
  9 10  1  0
 10 11  2  0
  5 12  1  0
 12 13  1  0
 13 14  1  0
 14 15  1  0
 15 16  1  0
 16 17  2  0
 16 18  1  0
 18 19  1  0
 18 20  1  0
 20 21  1  0
 21 22  1  0
 22 23  1  0
 23 24  2  0
 24 25  1  0
 25 26  2  0
 26 27  1  0
 26 28  1  0
 28 29  2  0
 29 30  1  0
 15 31  1  0
 31 32  1  0
 11  6  1  0
 32 12  1  0
 30 20  1  0
 29 23  1  0
  1 33  1  0
  1 34  1  0
  1 35  1  0
  2 36  1  0
  2 37  1  0
  7 38  1  0
  8 39  1  0
  9 40  1  0
 10 41  1  0
 11 42  1  0
 12 43  1  0
 13 44  1  0
 13 45  1  0
 14 46  1  0
 14 47  1  0
 18 48  1  6
 19 49  1  0
 19 50  1  0
 20 51  1  1
 21 52  1  0
 21 53  1  0
 22 54  1  0
 22 55  1  0
 24 56  1  0
 25 57  1  0
 28 58  1  0
 30 59  1  0
 30 60  1  0
 31 61  1  0
 31 62  1  0
 32 63  1  0
 32 64  1  0
M  END
>  <smiles>  (16) 
CCC(=O)N(c1ccccc1)C1CCN(C(=O)[C@@H](N)C2CCc3ccc(Br)cc3C2)CC1

>  <score_type>  (16) 
oracle

>  <origin>  (16) 
autodockgpu

>  <m_score__min__energy>  (16) 
-8.7100000000000009

>  <m_primary>  (16) 
energy

>  <rmsd>  (16) 
6.28472308765166

>  <m_score__min__rmsd>  (16) 
6.28472308765166

>  <meeko>  (16) 
{"free_energy": -7.93, "intermolecular_energy": -10.02, "internal_energy": -2.25, "cluster_size": 10, "cluster_id": 3, "rank_in_cluster": 10}

>  <energy>  (16) 
-7.63

>  <cluster_rmsd>  (16) 
1.01

>  <cluster>  (16) 
2

$$$$

     RDKit          3D

 64 67  0  0  0  0  0  0  0  0999 V2000
  137.6770   81.3110  223.0840 C   0  0  0  0  0  0  0  0  0  0  0  0
  137.8920   79.9870  223.8010 C   0  0  0  0  0  0  0  0  0  0  0  0
  138.0870   78.9080  222.7680 C   0  0  0  0  0  0  0  0  0  0  0  0
  137.0210   78.4710  222.2470 O   0  0  0  0  0  0  0  0  0  0  0  0
  139.3610   78.4270  222.4170 N   0  0  0  0  0  0  0  0  0  0  0  0
  140.4850   79.2590  222.7340 C   0  0  0  0  0  0  0  0  0  0  0  0
  141.3010   79.0230  223.8240 C   0  0  0  0  0  0  0  0  0  0  0  0
  142.3910   79.8310  224.1250 C   0  0  0  0  0  0  0  0  0  0  0  0
  142.6500   80.8870  223.3050 C   0  0  0  0  0  0  0  0  0  0  0  0
  141.8770   81.1750  222.2080 C   0  0  0  0  0  0  0  0  0  0  0  0
  140.7960   80.3570  221.9270 C   0  0  0  0  0  0  0  0  0  0  0  0
  139.4790   77.1520  221.7590 C   0  0  0  0  0  0  0  0  0  0  0  0
  140.7670   76.9190  221.0530 C   0  0  0  0  0  0  0  0  0  0  0  0
  141.4500   75.6150  221.4000 C   0  0  0  0  0  0  0  0  0  0  0  0
  140.5140   74.5020  221.3310 N   0  0  0  0  0  0  0  0  0  0  0  0
  140.9950   73.2860  220.7830 C   0  0  0  0  0  0  0  0  0  0  0  0
  142.2360   73.3170  220.4470 O   0  0  0  0  0  0  0  0  0  0  0  0
  140.2230   72.0650  220.5810 C   0  0  1  0  0  0  0  0  0  0  0  0
  140.6620   71.3590  219.4050 N   0  0  0  0  0  0  0  0  0  0  0  0
  140.0550   71.1760  221.7730 C   0  0  2  0  0  0  0  0  0  0  0  0
  138.8340   70.3300  221.6730 C   0  0  0  0  0  0  0  0  0  0  0  0
  137.8360   70.5120  222.7920 C   0  0  0  0  0  0  0  0  0  0  0  0
  138.5920   70.3140  224.0700 C   0  0  0  0  0  0  0  0  0  0  0  0
  138.0930   69.4710  225.0330 C   0  0  0  0  0  0  0  0  0  0  0  0
  138.8610   69.3380  226.1990 C   0  0  0  0  0  0  0  0  0  0  0  0
  140.0440   70.0230  226.3540 C   0  0  0  0  0  0  0  0  0  0  0  0
  140.9990   69.7670  227.9810 Br  0  0  0  0  0  0  0  0  0  0  0  0
  140.4950   70.8630  225.3450 C   0  0  0  0  0  0  0  0  0  0  0  0
  139.7670   71.0170  224.1850 C   0  0  0  0  0  0  0  0  0  0  0  0
  140.1980   71.9080  223.0820 C   0  0  0  0  0  0  0  0  0  0  0  0
  139.1870   74.7300  221.8390 C   0  0  0  0  0  0  0  0  0  0  0  0
  139.2480   75.9910  222.7230 C   0  0  0  0  0  0  0  0  0  0  0  0
  137.5468   82.1128  223.8258 H   0  0  0  0  0  0  0  0  0  0  0  0
  138.5509   81.5329  222.4538 H   0  0  0  0  0  0  0  0  0  0  0  0
  136.7778   81.2449  222.4538 H   0  0  0  0  0  0  0  0  0  0  0  0
  138.7840   80.0528  224.4413 H   0  0  0  0  0  0  0  0  0  0  0  0
  137.0196   79.7533  224.4289 H   0  0  0  0  0  0  0  0  0  0  0  0
  141.0800   78.1654  224.4764 H   0  0  0  0  0  0  0  0  0  0  0  0
  143.0255   79.6238  224.9993 H   0  0  0  0  0  0  0  0  0  0  0  0
  143.5110   81.5334  223.5303 H   0  0  0  0  0  0  0  0  0  0  0  0
  142.1113   82.0370  221.5661 H   0  0  0  0  0  0  0  0  0  0  0  0
  140.1687   80.5758  221.0503 H   0  0  0  0  0  0  0  0  0  0  0  0
  138.6899   77.1913  220.9936 H   0  0  0  0  0  0  0  0  0  0  0  0
  140.5708   76.9258  219.9707 H   0  0  0  0  0  0  0  0  0  0  0  0
  141.4473   77.7215  221.3740 H   0  0  0  0  0  0  0  0  0  0  0  0
  142.2714   75.4389  220.6899 H   0  0  0  0  0  0  0  0  0  0  0  0
  141.8373   75.6844  222.4272 H   0  0  0  0  0  0  0  0  0  0  0  0
  139.1947   72.4172  220.4122 H   0  0  0  0  0  0  0  0  0  0  0  0
  141.5740   71.7010  219.0270 H   0  0  0  0  0  0  0  0  0  0  0  0
  140.7120   70.3080  219.5770 H   0  0  0  0  0  0  0  0  0  0  0  0
  140.8994   70.4711  221.7659 H   0  0  0  0  0  0  0  0  0  0  0  0
  138.3303   70.5690  220.7248 H   0  0  0  0  0  0  0  0  0  0  0  0
  139.1777   69.2869  221.7352 H   0  0  0  0  0  0  0  0  0  0  0  0
  137.4060   71.5239  222.7573 H   0  0  0  0  0  0  0  0  0  0  0  0
  137.0052   69.7963  222.7054 H   0  0  0  0  0  0  0  0  0  0  0  0
  137.1445   68.9307  224.8973 H   0  0  0  0  0  0  0  0  0  0  0  0
  138.5114   68.6744  227.0036 H   0  0  0  0  0  0  0  0  0  0  0  0
  141.4408   71.4100  225.4723 H   0  0  0  0  0  0  0  0  0  0  0  0
  139.5690   72.8104  223.0701 H   0  0  0  0  0  0  0  0  0  0  0  0
  141.2480   72.2005  223.2304 H   0  0  0  0  0  0  0  0  0  0  0  0
  138.4863   74.8874  221.0058 H   0  0  0  0  0  0  0  0  0  0  0  0
  138.8365   73.8633  222.4186 H   0  0  0  0  0  0  0  0  0  0  0  0
  138.3016   76.1254  223.2674 H   0  0  0  0  0  0  0  0  0  0  0  0
  140.0445   75.9224  223.4786 H   0  0  0  0  0  0  0  0  0  0  0  0
  1  2  1  0
  2  3  1  0
  3  4  2  0
  3  5  1  0
  5  6  1  0
  6  7  2  0
  7  8  1  0
  8  9  2  0
  9 10  1  0
 10 11  2  0
  5 12  1  0
 12 13  1  0
 13 14  1  0
 14 15  1  0
 15 16  1  0
 16 17  2  0
 16 18  1  0
 18 19  1  0
 18 20  1  0
 20 21  1  0
 21 22  1  0
 22 23  1  0
 23 24  2  0
 24 25  1  0
 25 26  2  0
 26 27  1  0
 26 28  1  0
 28 29  2  0
 29 30  1  0
 15 31  1  0
 31 32  1  0
 11  6  1  0
 32 12  1  0
 30 20  1  0
 29 23  1  0
  1 33  1  0
  1 34  1  0
  1 35  1  0
  2 36  1  0
  2 37  1  0
  7 38  1  0
  8 39  1  0
  9 40  1  0
 10 41  1  0
 11 42  1  0
 12 43  1  0
 13 44  1  0
 13 45  1  0
 14 46  1  0
 14 47  1  0
 18 48  1  6
 19 49  1  0
 19 50  1  0
 20 51  1  6
 21 52  1  0
 21 53  1  0
 22 54  1  0
 22 55  1  0
 24 56  1  0
 25 57  1  0
 28 58  1  0
 30 59  1  0
 30 60  1  0
 31 61  1  0
 31 62  1  0
 32 63  1  0
 32 64  1  0
M  END
>  <smiles>  (17) 
CCC(=O)N(c1ccccc1)C1CCN(C(=O)[C@@H](N)C2CCc3ccc(Br)cc3C2)CC1

>  <score_type>  (17) 
oracle

>  <origin>  (17) 
autodockgpu

>  <m_score__min__energy>  (17) 
-8.7100000000000009

>  <m_primary>  (17) 
energy

>  <rmsd>  (17) 
7.9230855898108405

>  <m_score__min__rmsd>  (17) 
7.9230855898108405

>  <meeko>  (17) 
{"free_energy": -7.59, "intermolecular_energy": -9.68, "internal_energy": -2.34, "cluster_size": 14, "cluster_id": 5, "rank_in_cluster": 10}

>  <energy>  (17) 
-7.58

>  <cluster_rmsd>  (17) 
1.85

>  <cluster>  (17) 
2

$$$$

     RDKit          3D

 64 67  0  0  0  0  0  0  0  0999 V2000
  145.9330   73.1730  221.5780 C   0  0  0  0  0  0  0  0  0  0  0  0
  146.3260   73.7780  220.2390 C   0  0  0  0  0  0  0  0  0  0  0  0
  145.5740   73.0590  219.1490 C   0  0  0  0  0  0  0  0  0  0  0  0
  145.9460   71.8690  218.9420 O   0  0  0  0  0  0  0  0  0  0  0  0
  144.5400   73.6740  218.4210 N   0  0  0  0  0  0  0  0  0  0  0  0
  144.8790   74.2260  217.1420 C   0  0  0  0  0  0  0  0  0  0  0  0
  145.9870   73.8160  216.4250 C   0  0  0  0  0  0  0  0  0  0  0  0
  146.3110   74.3530  215.1840 C   0  0  0  0  0  0  0  0  0  0  0  0
  145.4950   75.3150  214.6720 C   0  0  0  0  0  0  0  0  0  0  0  0
  144.3800   75.7660  215.3350 C   0  0  0  0  0  0  0  0  0  0  0  0
  144.0780   75.2180  216.5690 C   0  0  0  0  0  0  0  0  0  0  0  0
  143.2160   73.7310  218.9830 C   0  0  0  0  0  0  0  0  0  0  0  0
  142.8530   72.5930  219.8690 C   0  0  0  0  0  0  0  0  0  0  0  0
  142.2990   72.9950  221.2180 C   0  0  0  0  0  0  0  0  0  0  0  0
  141.2580   74.0030  221.0740 N   0  0  0  0  0  0  0  0  0  0  0  0
  140.1270   73.8900  221.9210 C   0  0  0  0  0  0  0  0  0  0  0  0
  140.1900   72.9100  222.7510 O   0  0  0  0  0  0  0  0  0  0  0  0
  138.9560   74.7590  221.9190 C   0  0  1  0  0  0  0  0  0  0  0  0
  137.7790   74.0490  222.3460 N   0  0  0  0  0  0  0  0  0  0  0  0
  139.1120   76.0930  222.5800 C   0  0  2  0  0  0  0  0  0  0  0  0
  137.8140   76.8110  222.7040 C   0  0  0  0  0  0  0  0  0  0  0  0
  137.7620   78.1600  222.0250 C   0  0  0  0  0  0  0  0  0  0  0  0
  138.9270   78.9430  222.5480 C   0  0  0  0  0  0  0  0  0  0  0  0
  138.7350   80.2230  223.0090 C   0  0  0  0  0  0  0  0  0  0  0  0
  139.8740   80.8880  223.4840 C   0  0  0  0  0  0  0  0  0  0  0  0
  141.1090   80.2780  223.4780 C   0  0  0  0  0  0  0  0  0  0  0  0
  142.5840   81.2800  224.1450 Br  0  0  0  0  0  0  0  0  0  0  0  0
  141.2390   78.9830  222.9980 C   0  0  0  0  0  0  0  0  0  0  0  0
  140.1400   78.2980  222.5240 C   0  0  0  0  0  0  0  0  0  0  0  0
  140.2260   76.9180  221.9910 C   0  0  0  0  0  0  0  0  0  0  0  0
  141.4770   75.0340  220.0950 C   0  0  0  0  0  0  0  0  0  0  0  0
  142.9800   75.0270  219.7530 C   0  0  0  0  0  0  0  0  0  0  0  0
  146.3356   73.7928  222.3927 H   0  0  0  0  0  0  0  0  0  0  0  0
  144.8364   73.1336  221.6548 H   0  0  0  0  0  0  0  0  0  0  0  0
  146.3428   72.1551  221.6548 H   0  0  0  0  0  0  0  0  0  0  0  0
  146.0674   74.8471  220.2249 H   0  0  0  0  0  0  0  0  0  0  0  0
  147.4095   73.6722  220.0816 H   0  0  0  0  0  0  0  0  0  0  0  0
  146.6359   73.0368  216.8514 H   0  0  0  0  0  0  0  0  0  0  0  0
  147.1994   74.0110  214.6328 H   0  0  0  0  0  0  0  0  0  0  0  0
  145.7379   75.7474  213.6902 H   0  0  0  0  0  0  0  0  0  0  0  0
  143.7412   76.5457  214.8947 H   0  0  0  0  0  0  0  0  0  0  0  0
  143.1881   75.5706  217.1110 H   0  0  0  0  0  0  0  0  0  0  0  0
  142.5660   73.6754  218.0973 H   0  0  0  0  0  0  0  0  0  0  0  0
  142.0940   71.9860  219.3538 H   0  0  0  0  0  0  0  0  0  0  0  0
  143.7850   72.0432  220.0668 H   0  0  0  0  0  0  0  0  0  0  0  0
  141.8754   72.1081  221.7120 H   0  0  0  0  0  0  0  0  0  0  0  0
  143.1160   73.4179  221.8211 H   0  0  0  0  0  0  0  0  0  0  0  0
  138.8282   75.0416  220.8636 H   0  0  0  0  0  0  0  0  0  0  0  0
  137.9810   73.1040  222.7450 H   0  0  0  0  0  0  0  0  0  0  0  0
  137.2080   74.6220  223.0400 H   0  0  0  0  0  0  0  0  0  0  0  0
  139.4381   75.9015  223.6129 H   0  0  0  0  0  0  0  0  0  0  0  0
  137.0302   76.1771  222.2637 H   0  0  0  0  0  0  0  0  0  0  0  0
  137.6701   77.0019  223.7777 H   0  0  0  0  0  0  0  0  0  0  0  0
  137.8431   78.0402  220.9345 H   0  0  0  0  0  0  0  0  0  0  0  0
  136.8116   78.6738  222.2319 H   0  0  0  0  0  0  0  0  0  0  0  0
  137.7434   80.6991  223.0056 H   0  0  0  0  0  0  0  0  0  0  0  0
  139.7799   81.9145  223.8681 H   0  0  0  0  0  0  0  0  0  0  0  0
  142.2266   78.4986  222.9955 H   0  0  0  0  0  0  0  0  0  0  0  0
  140.1292   76.9394  220.8955 H   0  0  0  0  0  0  0  0  0  0  0  0
  141.1969   76.4763  222.2598 H   0  0  0  0  0  0  0  0  0  0  0  0
  140.8841   74.8278  219.1917 H   0  0  0  0  0  0  0  0  0  0  0  0
  141.1705   76.0152  220.4865 H   0  0  0  0  0  0  0  0  0  0  0  0
  143.2367   75.8966  219.1302 H   0  0  0  0  0  0  0  0  0  0  0  0
  143.6047   75.0848  220.6565 H   0  0  0  0  0  0  0  0  0  0  0  0
  1  2  1  0
  2  3  1  0
  3  4  2  0
  3  5  1  0
  5  6  1  0
  6  7  2  0
  7  8  1  0
  8  9  2  0
  9 10  1  0
 10 11  2  0
  5 12  1  0
 12 13  1  0
 13 14  1  0
 14 15  1  0
 15 16  1  0
 16 17  2  0
 16 18  1  0
 18 19  1  0
 18 20  1  0
 20 21  1  0
 21 22  1  0
 22 23  1  0
 23 24  2  0
 24 25  1  0
 25 26  2  0
 26 27  1  0
 26 28  1  0
 28 29  2  0
 29 30  1  0
 15 31  1  0
 31 32  1  0
 11  6  1  0
 32 12  1  0
 30 20  1  0
 29 23  1  0
  1 33  1  0
  1 34  1  0
  1 35  1  0
  2 36  1  0
  2 37  1  0
  7 38  1  0
  8 39  1  0
  9 40  1  0
 10 41  1  0
 11 42  1  0
 12 43  1  0
 13 44  1  0
 13 45  1  0
 14 46  1  0
 14 47  1  0
 18 48  1  6
 19 49  1  0
 19 50  1  0
 20 51  1  1
 21 52  1  0
 21 53  1  0
 22 54  1  0
 22 55  1  0
 24 56  1  0
 25 57  1  0
 28 58  1  0
 30 59  1  0
 30 60  1  0
 31 61  1  0
 31 62  1  0
 32 63  1  0
 32 64  1  0
M  END
>  <smiles>  (18) 
CCC(=O)N(c1ccccc1)C1CCN(C(=O)[C@@H](N)C2CCc3ccc(Br)cc3C2)CC1

>  <score_type>  (18) 
oracle

>  <origin>  (18) 
autodockgpu

>  <m_score__min__energy>  (18) 
-8.7100000000000009

>  <m_primary>  (18) 
energy

>  <rmsd>  (18) 
4.934074763407529

>  <m_score__min__rmsd>  (18) 
4.934074763407529

>  <meeko>  (18) 
{"free_energy": -8.05, "intermolecular_energy": -10.14, "internal_energy": -2.13, "cluster_size": 6, "cluster_id": 4, "rank_in_cluster": 2}

>  <energy>  (18) 
-8.16

>  <cluster_rmsd>  (18) 
0.0

>  <cluster>  (18) 
3

$$$$

     RDKit          3D

 64 67  0  0  0  0  0  0  0  0999 V2000
  142.6180   80.9920  217.9080 C   0  0  0  0  0  0  0  0  0  0  0  0
  142.5430   79.5700  218.4450 C   0  0  0  0  0  0  0  0  0  0  0  0
  141.2240   79.3930  219.1500 C   0  0  0  0  0  0  0  0  0  0  0  0
  140.2160   79.7930  218.4990 O   0  0  0  0  0  0  0  0  0  0  0  0
  141.1290   78.8290  220.4340 N   0  0  0  0  0  0  0  0  0  0  0  0
  141.5110   79.6550  221.5420 C   0  0  0  0  0  0  0  0  0  0  0  0
  142.5720   79.3430  222.3710 C   0  0  0  0  0  0  0  0  0  0  0  0
  142.9390   80.1490  223.4430 C   0  0  0  0  0  0  0  0  0  0  0  0
  142.2190   81.2820  223.6670 C   0  0  0  0  0  0  0  0  0  0  0  0
  141.1540   81.6460  222.8810 C   0  0  0  0  0  0  0  0  0  0  0  0
  140.8050   80.8280  221.8200 C   0  0  0  0  0  0  0  0  0  0  0  0
  140.6730   77.4710  220.5780 C   0  0  0  0  0  0  0  0  0  0  0  0
  141.5620   76.4360  219.9830 C   0  0  0  0  0  0  0  0  0  0  0  0
  141.9190   75.3000  220.9140 C   0  0  0  0  0  0  0  0  0  0  0  0
  140.7330   74.7700  221.5690 N   0  0  0  0  0  0  0  0  0  0  0  0
  140.6570   73.3640  221.7330 C   0  0  0  0  0  0  0  0  0  0  0  0
  141.6910   72.7300  221.3040 O   0  0  0  0  0  0  0  0  0  0  0  0
  139.5480   72.6210  222.3200 C   0  0  1  0  0  0  0  0  0  0  0  0
  138.5130   72.3750  221.3510 N   0  0  0  0  0  0  0  0  0  0  0  0
  139.9070   71.4070  223.1200 C   0  0  2  0  0  0  0  0  0  0  0  0
  139.5260   70.1470  222.4260 C   0  0  0  0  0  0  0  0  0  0  0  0
  138.5680   69.2610  223.1880 C   0  0  0  0  0  0  0  0  0  0  0  0
  139.1820   69.0350  224.5360 C   0  0  0  0  0  0  0  0  0  0  0  0
  139.2760   67.7590  225.0370 C   0  0  0  0  0  0  0  0  0  0  0  0
  139.8640   67.6310  226.3030 C   0  0  0  0  0  0  0  0  0  0  0  0
  140.3150   68.7330  226.9930 C   0  0  0  0  0  0  0  0  0  0  0  0
  141.0930   68.4370  228.7050 Br  0  0  0  0  0  0  0  0  0  0  0  0
  140.1910   69.9970  226.4350 C   0  0  0  0  0  0  0  0  0  0  0  0
  139.6190   70.1610  225.1910 C   0  0  0  0  0  0  0  0  0  0  0  0
  139.4530   71.4890  224.5550 C   0  0  0  0  0  0  0  0  0  0  0  0
  139.7470   75.7230  222.0080 C   0  0  0  0  0  0  0  0  0  0  0  0
  140.4300   77.1040  222.0400 C   0  0  0  0  0  0  0  0  0  0  0  0
  142.6553   81.7000  218.7490 H   0  0  0  0  0  0  0  0  0  0  0  0
  143.5233   81.1046  217.2934 H   0  0  0  0  0  0  0  0  0  0  0  0
  141.7295   81.1992  217.2934 H   0  0  0  0  0  0  0  0  0  0  0  0
  142.6174   78.8548  217.6125 H   0  0  0  0  0  0  0  0  0  0  0  0
  143.3715   79.3880  219.1454 H   0  0  0  0  0  0  0  0  0  0  0  0
  143.1461   78.4252  222.1760 H   0  0  0  0  0  0  0  0  0  0  0  0
  143.7861   79.8789  224.0907 H   0  0  0  0  0  0  0  0  0  0  0  0
  142.5010   81.9305  224.5096 H   0  0  0  0  0  0  0  0  0  0  0  0
  140.5904   82.5673  223.0896 H   0  0  0  0  0  0  0  0  0  0  0  0
  139.9535   81.1077  221.1822 H   0  0  0  0  0  0  0  0  0  0  0  0
  139.7325   77.4616  220.0076 H   0  0  0  0  0  0  0  0  0  0  0  0
  141.0542   76.0122  219.1041 H   0  0  0  0  0  0  0  0  0  0  0  0
  142.5062   76.9427  219.7344 H   0  0  0  0  0  0  0  0  0  0  0  0
  142.3989   74.4975  220.3347 H   0  0  0  0  0  0  0  0  0  0  0  0
  142.6043   75.6814  221.6853 H   0  0  0  0  0  0  0  0  0  0  0  0
  139.1474   73.2941  223.0924 H   0  0  0  0  0  0  0  0  0  0  0  0
  138.8420   71.8490  220.5100 H   0  0  0  0  0  0  0  0  0  0  0  0
  137.6800   71.8750  221.7890 H   0  0  0  0  0  0  0  0  0  0  0  0
  141.0047   71.3817  223.1869 H   0  0  0  0  0  0  0  0  0  0  0  0
  139.0551   70.4141  221.4685 H   0  0  0  0  0  0  0  0  0  0  0  0
  140.4539   69.5677  222.3107 H   0  0  0  0  0  0  0  0  0  0  0  0
  137.5921   69.7576  223.2929 H   0  0  0  0  0  0  0  0  0  0  0  0
  138.4001   68.3098  222.6617 H   0  0  0  0  0  0  0  0  0  0  0  0
  138.9102   66.8865  224.4758 H   0  0  0  0  0  0  0  0  0  0  0  0
  139.9667   66.6324  226.7527 H   0  0  0  0  0  0  0  0  0  0  0  0
  140.5519   70.8758  226.9895 H   0  0  0  0  0  0  0  0  0  0  0  0
  138.3941   71.7849  224.5903 H   0  0  0  0  0  0  0  0  0  0  0  0
  140.0552   72.2361  225.0928 H   0  0  0  0  0  0  0  0  0  0  0  0
  138.8993   75.7380  221.3072 H   0  0  0  0  0  0  0  0  0  0  0  0
  139.3611   75.4553  223.0027 H   0  0  0  0  0  0  0  0  0  0  0  0
  139.7747   77.8463  222.5192 H   0  0  0  0  0  0  0  0  0  0  0  0
  141.3661   77.0838  222.6174 H   0  0  0  0  0  0  0  0  0  0  0  0
  1  2  1  0
  2  3  1  0
  3  4  2  0
  3  5  1  0
  5  6  1  0
  6  7  2  0
  7  8  1  0
  8  9  2  0
  9 10  1  0
 10 11  2  0
  5 12  1  0
 12 13  1  0
 13 14  1  0
 14 15  1  0
 15 16  1  0
 16 17  2  0
 16 18  1  0
 18 19  1  0
 18 20  1  0
 20 21  1  0
 21 22  1  0
 22 23  1  0
 23 24  2  0
 24 25  1  0
 25 26  2  0
 26 27  1  0
 26 28  1  0
 28 29  2  0
 29 30  1  0
 15 31  1  0
 31 32  1  0
 11  6  1  0
 32 12  1  0
 30 20  1  0
 29 23  1  0
  1 33  1  0
  1 34  1  0
  1 35  1  0
  2 36  1  0
  2 37  1  0
  7 38  1  0
  8 39  1  0
  9 40  1  0
 10 41  1  0
 11 42  1  0
 12 43  1  0
 13 44  1  0
 13 45  1  0
 14 46  1  0
 14 47  1  0
 18 48  1  1
 19 49  1  0
 19 50  1  0
 20 51  1  1
 21 52  1  0
 21 53  1  0
 22 54  1  0
 22 55  1  0
 24 56  1  0
 25 57  1  0
 28 58  1  0
 30 59  1  0
 30 60  1  0
 31 61  1  0
 31 62  1  0
 32 63  1  0
 32 64  1  0
M  END
>  <smiles>  (19) 
CCC(=O)N(c1ccccc1)C1CCN(C(=O)[C@@H](N)C2CCc3ccc(Br)cc3C2)CC1

>  <score_type>  (19) 
oracle

>  <origin>  (19) 
autodockgpu

>  <m_score__min__energy>  (19) 
-8.7100000000000009

>  <m_primary>  (19) 
energy

>  <rmsd>  (19) 
8.217633309322599

>  <m_score__min__rmsd>  (19) 
8.217633309322599

>  <meeko>  (19) 
{"free_energy": -8.56, "intermolecular_energy": -10.65, "internal_energy": -1.48, "cluster_size": 2, "cluster_id": 1, "rank_in_cluster": 2}

>  <energy>  (19) 
-8.15

>  <cluster_rmsd>  (19) 
0.16

>  <cluster>  (19) 
3

$$$$

     RDKit          3D

 64 67  0  0  0  0  0  0  0  0999 V2000
  145.5590   73.0090  221.4000 C   0  0  0  0  0  0  0  0  0  0  0  0
  146.1890   73.4910  220.1020 C   0  0  0  0  0  0  0  0  0  0  0  0
  145.4720   72.8360  218.9490 C   0  0  0  0  0  0  0  0  0  0  0  0
  145.8710   73.1920  217.8030 O   0  0  0  0  0  0  0  0  0  0  0  0
  144.4380   71.9030  219.1410 N   0  0  0  0  0  0  0  0  0  0  0  0
  144.7770   70.5160  219.0220 C   0  0  0  0  0  0  0  0  0  0  0  0
  143.8720   69.5630  218.5950 C   0  0  0  0  0  0  0  0  0  0  0  0
  144.2060   68.2180  218.4780 C   0  0  0  0  0  0  0  0  0  0  0  0
  145.4760   67.8460  218.7990 C   0  0  0  0  0  0  0  0  0  0  0  0
  146.4210   68.7440  219.2290 C   0  0  0  0  0  0  0  0  0  0  0  0
  146.0650   70.0770  219.3390 C   0  0  0  0  0  0  0  0  0  0  0  0
  143.1080   72.3720  219.4330 C   0  0  0  0  0  0  0  0  0  0  0  0
  142.4070   71.6530  220.5300 C   0  0  0  0  0  0  0  0  0  0  0  0
  141.8180   72.5490  221.5960 C   0  0  0  0  0  0  0  0  0  0  0  0
  141.0510   73.6330  221.0000 N   0  0  0  0  0  0  0  0  0  0  0  0
  139.8400   73.9970  221.6410 C   0  0  0  0  0  0  0  0  0  0  0  0
  139.5930   73.3300  222.7130 O   0  0  0  0  0  0  0  0  0  0  0  0
  138.9000   75.0190  221.1960 C   0  0  1  0  0  0  0  0  0  0  0  0
  137.6050   74.8340  221.7950 N   0  0  0  0  0  0  0  0  0  0  0  0
  139.3790   76.4370  221.2520 C   0  0  2  0  0  0  0  0  0  0  0  0
  139.5050   77.0390  219.8970 C   0  0  0  0  0  0  0  0  0  0  0  0
  140.8890   77.5330  219.5430 C   0  0  0  0  0  0  0  0  0  0  0  0
  141.3030   78.4580  220.6460 C   0  0  0  0  0  0  0  0  0  0  0  0
  141.8100   79.6980  220.3400 C   0  0  0  0  0  0  0  0  0  0  0  0
  142.1720   80.5050  221.4280 C   0  0  0  0  0  0  0  0  0  0  0  0
  142.0230   80.0640  222.7230 C   0  0  0  0  0  0  0  0  0  0  0  0
  142.5520   81.2460  224.1180 Br  0  0  0  0  0  0  0  0  0  0  0  0
  141.5050   78.8000  222.9680 C   0  0  0  0  0  0  0  0  0  0  0  0
  141.1380   77.9790  221.9230 C   0  0  0  0  0  0  0  0  0  0  0  0
  140.5900   76.6180  222.1300 C   0  0  0  0  0  0  0  0  0  0  0  0
  141.5980   74.2500  219.8210 C   0  0  0  0  0  0  0  0  0  0  0  0
  143.0890   73.8640  219.7540 C   0  0  0  0  0  0  0  0  0  0  0  0
  146.1100   73.4305  222.2537 H   0  0  0  0  0  0  0  0  0  0  0  0
  144.5100   73.3373  221.4425 H   0  0  0  0  0  0  0  0  0  0  0  0
  145.6015   71.9106  221.4425 H   0  0  0  0  0  0  0  0  0  0  0  0
  146.0920   74.5841  220.0262 H   0  0  0  0  0  0  0  0  0  0  0  0
  147.2565   73.2264  220.0807 H   0  0  0  0  0  0  0  0  0  0  0  0
  142.8503   69.8797  218.3383 H   0  0  0  0  0  0  0  0  0  0  0  0
  143.4673   67.4778  218.1368 H   0  0  0  0  0  0  0  0  0  0  0  0
  145.7552   66.7857  218.7104 H   0  0  0  0  0  0  0  0  0  0  0  0
  147.4389   68.4115  219.4806 H   0  0  0  0  0  0  0  0  0  0  0  0
  146.8125   70.8068  219.6835 H   0  0  0  0  0  0  0  0  0  0  0  0
  142.5593   72.1618  218.5031 H   0  0  0  0  0  0  0  0  0  0  0  0
  141.5901   71.0645  220.0870 H   0  0  0  0  0  0  0  0  0  0  0  0
  143.1653   71.0322  221.0295 H   0  0  0  0  0  0  0  0  0  0  0  0
  141.1565   71.9529  222.2419 H   0  0  0  0  0  0  0  0  0  0  0  0
  142.6407   72.9830  222.1832 H   0  0  0  0  0  0  0  0  0  0  0  0
  138.8081   74.8516  220.1127 H   0  0  0  0  0  0  0  0  0  0  0  0
  136.9300   74.3210  221.1850 H   0  0  0  0  0  0  0  0  0  0  0  0
  137.6790   74.3480  222.7420 H   0  0  0  0  0  0  0  0  0  0  0  0
  138.5940   77.0197  221.7562 H   0  0  0  0  0  0  0  0  0  0  0  0
  139.2148   76.2782  219.1574 H   0  0  0  0  0  0  0  0  0  0  0  0
  138.8523   77.9244  219.8924 H   0  0  0  0  0  0  0  0  0  0  0  0
  141.5886   76.6870  219.4733 H   0  0  0  0  0  0  0  0  0  0  0  0
  140.8925   78.0460  218.5700 H   0  0  0  0  0  0  0  0  0  0  0  0
  141.9253   80.0383  219.3003 H   0  0  0  0  0  0  0  0  0  0  0  0
  142.5825   81.5086  221.2431 H   0  0  0  0  0  0  0  0  0  0  0  0
  141.3863   78.4504  224.0042 H   0  0  0  0  0  0  0  0  0  0  0  0
  141.3519   75.8698  221.8660 H   0  0  0  0  0  0  0  0  0  0  0  0
  140.3064   76.4885  223.1849 H   0  0  0  0  0  0  0  0  0  0  0  0
  141.0734   73.8838  218.9262 H   0  0  0  0  0  0  0  0  0  0  0  0
  141.4792   75.3428  219.8615 H   0  0  0  0  0  0  0  0  0  0  0  0
  143.5989   74.4342  218.9635 H   0  0  0  0  0  0  0  0  0  0  0  0
  143.6116   74.0862  220.6961 H   0  0  0  0  0  0  0  0  0  0  0  0
  1  2  1  0
  2  3  1  0
  3  4  2  0
  3  5  1  0
  5  6  1  0
  6  7  2  0
  7  8  1  0
  8  9  2  0
  9 10  1  0
 10 11  2  0
  5 12  1  0
 12 13  1  0
 13 14  1  0
 14 15  1  0
 15 16  1  0
 16 17  2  0
 16 18  1  0
 18 19  1  0
 18 20  1  0
 20 21  1  0
 21 22  1  0
 22 23  1  0
 23 24  2  0
 24 25  1  0
 25 26  2  0
 26 27  1  0
 26 28  1  0
 28 29  2  0
 29 30  1  0
 15 31  1  0
 31 32  1  0
 11  6  1  0
 32 12  1  0
 30 20  1  0
 29 23  1  0
  1 33  1  0
  1 34  1  0
  1 35  1  0
  2 36  1  0
  2 37  1  0
  7 38  1  0
  8 39  1  0
  9 40  1  0
 10 41  1  0
 11 42  1  0
 12 43  1  0
 13 44  1  0
 13 45  1  0
 14 46  1  0
 14 47  1  0
 18 48  1  6
 19 49  1  0
 19 50  1  0
 20 51  1  1
 21 52  1  0
 21 53  1  0
 22 54  1  0
 22 55  1  0
 24 56  1  0
 25 57  1  0
 28 58  1  0
 30 59  1  0
 30 60  1  0
 31 61  1  0
 31 62  1  0
 32 63  1  0
 32 64  1  0
M  END
>  <smiles>  (20) 
CCC(=O)N(c1ccccc1)C1CCN(C(=O)[C@@H](N)C2CCc3ccc(Br)cc3C2)CC1

>  <score_type>  (20) 
oracle

>  <origin>  (20) 
autodockgpu

>  <m_score__min__energy>  (20) 
-8.7100000000000009

>  <m_primary>  (20) 
energy

>  <rmsd>  (20) 
5.2616124409604055

>  <m_score__min__rmsd>  (20) 
5.2616124409604055

>  <meeko>  (20) 
{"free_energy": -8.06, "intermolecular_energy": -10.14, "internal_energy": -2.42, "cluster_size": 15, "cluster_id": 2, "rank_in_cluster": 6}

>  <energy>  (20) 
-8.11

>  <cluster_rmsd>  (20) 
0.28

>  <cluster>  (20) 
3

$$$$

     RDKit          3D

 64 67  0  0  0  0  0  0  0  0999 V2000
  145.7600   72.2360  215.7390 C   0  0  0  0  0  0  0  0  0  0  0  0
  145.0880   73.1830  216.7210 C   0  0  0  0  0  0  0  0  0  0  0  0
  145.2390   72.6200  218.1100 C   0  0  0  0  0  0  0  0  0  0  0  0
  146.2580   73.0250  218.7400 O   0  0  0  0  0  0  0  0  0  0  0  0
  144.3150   71.7110  218.6560 N   0  0  0  0  0  0  0  0  0  0  0  0
  144.7180   70.3380  218.7380 C   0  0  0  0  0  0  0  0  0  0  0  0
  145.9320   69.9500  219.2710 C   0  0  0  0  0  0  0  0  0  0  0  0
  146.3170   68.6160  219.3510 C   0  0  0  0  0  0  0  0  0  0  0  0
  145.4540   67.6730  218.8840 C   0  0  0  0  0  0  0  0  0  0  0  0
  144.2340   67.9940  218.3430 C   0  0  0  0  0  0  0  0  0  0  0  0
  143.8720   69.3280  218.2730 C   0  0  0  0  0  0  0  0  0  0  0  0
  143.0270   72.1870  219.0900 C   0  0  0  0  0  0  0  0  0  0  0  0
  142.4670   71.5030  220.2860 C   0  0  0  0  0  0  0  0  0  0  0  0
  142.0050   72.4320  221.3860 C   0  0  0  0  0  0  0  0  0  0  0  0
  141.1660   73.4950  220.8510 N   0  0  0  0  0  0  0  0  0  0  0  0
  140.0390   73.8780  221.6210 C   0  0  0  0  0  0  0  0  0  0  0  0
  139.9260   73.2460  222.7350 O   0  0  0  0  0  0  0  0  0  0  0  0
  139.0470   74.8840  221.2590 C   0  0  1  0  0  0  0  0  0  0  0  0
  137.7980   74.6530  221.9370 N   0  0  0  0  0  0  0  0  0  0  0  0
  139.4920   76.3120  221.3130 C   0  0  2  0  0  0  0  0  0  0  0  0
  139.6020   76.9160  219.9580 C   0  0  0  0  0  0  0  0  0  0  0  0
  140.9720   77.4420  219.6000 C   0  0  0  0  0  0  0  0  0  0  0  0
  141.3680   78.3770  220.7010 C   0  0  0  0  0  0  0  0  0  0  0  0
  141.8460   79.6280  220.3940 C   0  0  0  0  0  0  0  0  0  0  0  0
  142.1920   80.4440  221.4790 C   0  0  0  0  0  0  0  0  0  0  0  0
  142.0560   80.0000  222.7750 C   0  0  0  0  0  0  0  0  0  0  0  0
  142.5610   81.1950  224.1690 Br  0  0  0  0  0  0  0  0  0  0  0  0
  141.5680   78.7250  223.0230 C   0  0  0  0  0  0  0  0  0  0  0  0
  141.2170   77.8950  221.9790 C   0  0  0  0  0  0  0  0  0  0  0  0
  140.7020   76.5220  222.1880 C   0  0  0  0  0  0  0  0  0  0  0  0
  141.5640   74.0750  219.5960 C   0  0  0  0  0  0  0  0  0  0  0  0
  143.0380   73.6890  219.3630 C   0  0  0  0  0  0  0  0  0  0  0  0
  146.3096   71.4615  216.2941 H   0  0  0  0  0  0  0  0  0  0  0  0
  144.9958   71.7610  215.1063 H   0  0  0  0  0  0  0  0  0  0  0  0
  146.4607   72.8005  215.1063 H   0  0  0  0  0  0  0  0  0  0  0  0
  145.5658   74.1724  216.6680 H   0  0  0  0  0  0  0  0  0  0  0  0
  144.0218   73.2889  216.4718 H   0  0  0  0  0  0  0  0  0  0  0  0
  146.6185   70.7236  219.6454 H   0  0  0  0  0  0  0  0  0  0  0  0
  147.2897   68.3317  219.7788 H   0  0  0  0  0  0  0  0  0  0  0  0
  145.7451   66.6138  218.9423 H   0  0  0  0  0  0  0  0  0  0  0  0
  143.5588   67.2082  217.9732 H   0  0  0  0  0  0  0  0  0  0  0  0
  142.8970   69.5990  217.8418 H   0  0  0  0  0  0  0  0  0  0  0  0
  142.3721   71.9458  218.2398 H   0  0  0  0  0  0  0  0  0  0  0  0
  141.6062   70.8988  219.9636 H   0  0  0  0  0  0  0  0  0  0  0  0
  143.2836   70.9005  220.7104 H   0  0  0  0  0  0  0  0  0  0  0  0
  141.4289   71.8562  222.1252 H   0  0  0  0  0  0  0  0  0  0  0  0
  142.8895   72.8860  221.8568 H   0  0  0  0  0  0  0  0  0  0  0  0
  138.8899   74.7356  220.1804 H   0  0  0  0  0  0  0  0  0  0  0  0
  137.0770   74.1880  221.3410 H   0  0  0  0  0  0  0  0  0  0  0  0
  137.9400   74.0980  222.8360 H   0  0  0  0  0  0  0  0  0  0  0  0
  138.6939   76.8755  221.8184 H   0  0  0  0  0  0  0  0  0  0  0  0
  139.3281   76.1482  219.2194 H   0  0  0  0  0  0  0  0  0  0  0  0
  138.9294   77.7864  219.9552 H   0  0  0  0  0  0  0  0  0  0  0  0
  141.6910   76.6126  219.5284 H   0  0  0  0  0  0  0  0  0  0  0  0
  140.9601   77.9548  218.6269 H   0  0  0  0  0  0  0  0  0  0  0  0
  141.9512   79.9700  219.3538 H   0  0  0  0  0  0  0  0  0  0  0  0
  142.5789   81.4566  221.2922 H   0  0  0  0  0  0  0  0  0  0  0  0
  141.4603   78.3737  224.0598 H   0  0  0  0  0  0  0  0  0  0  0  0
  141.4805   75.7918  221.9220 H   0  0  0  0  0  0  0  0  0  0  0  0
  140.4247   76.3862  223.2438 H   0  0  0  0  0  0  0  0  0  0  0  0
  140.9377   73.6797  218.7826 H   0  0  0  0  0  0  0  0  0  0  0  0
  141.4449   75.1684  219.6157 H   0  0  0  0  0  0  0  0  0  0  0  0
  143.4463   74.2340  218.4991 H   0  0  0  0  0  0  0  0  0  0  0  0
  143.6683   73.9423  220.2282 H   0  0  0  0  0  0  0  0  0  0  0  0
  1  2  1  0
  2  3  1  0
  3  4  2  0
  3  5  1  0
  5  6  1  0
  6  7  2  0
  7  8  1  0
  8  9  2  0
  9 10  1  0
 10 11  2  0
  5 12  1  0
 12 13  1  0
 13 14  1  0
 14 15  1  0
 15 16  1  0
 16 17  2  0
 16 18  1  0
 18 19  1  0
 18 20  1  0
 20 21  1  0
 21 22  1  0
 22 23  1  0
 23 24  2  0
 24 25  1  0
 25 26  2  0
 26 27  1  0
 26 28  1  0
 28 29  2  0
 29 30  1  0
 15 31  1  0
 31 32  1  0
 11  6  1  0
 32 12  1  0
 30 20  1  0
 29 23  1  0
  1 33  1  0
  1 34  1  0
  1 35  1  0
  2 36  1  0
  2 37  1  0
  7 38  1  0
  8 39  1  0
  9 40  1  0
 10 41  1  0
 11 42  1  0
 12 43  1  0
 13 44  1  0
 13 45  1  0
 14 46  1  0
 14 47  1  0
 18 48  1  6
 19 49  1  0
 19 50  1  0
 20 51  1  1
 21 52  1  0
 21 53  1  0
 22 54  1  0
 22 55  1  0
 24 56  1  0
 25 57  1  0
 28 58  1  0
 30 59  1  0
 30 60  1  0
 31 61  1  0
 31 62  1  0
 32 63  1  0
 32 64  1  0
M  END
>  <smiles>  (21) 
CCC(=O)N(c1ccccc1)C1CCN(C(=O)[C@@H](N)C2CCc3ccc(Br)cc3C2)CC1

>  <score_type>  (21) 
oracle

>  <origin>  (21) 
autodockgpu

>  <m_score__min__energy>  (21) 
-8.7100000000000009

>  <m_primary>  (21) 
energy

>  <rmsd>  (21) 
5.355127100948496

>  <m_score__min__rmsd>  (21) 
5.355127100948496

>  <meeko>  (21) 
{"free_energy": -7.63, "intermolecular_energy": -9.72, "internal_energy": -2.52, "cluster_size": 15, "cluster_id": 2, "rank_in_cluster": 14}

>  <energy>  (21) 
-8.1

>  <cluster_rmsd>  (21) 
0.11

>  <cluster>  (21) 
3

$$$$

     RDKit          3D

 64 67  0  0  0  0  0  0  0  0999 V2000
  145.9400   72.9850  220.7270 C   0  0  0  0  0  0  0  0  0  0  0  0
  144.8890   73.1280  219.6370 C   0  0  0  0  0  0  0  0  0  0  0  0
  145.0820   72.0190  218.6350 C   0  0  0  0  0  0  0  0  0  0  0  0
  145.9500   72.2510  217.7460 O   0  0  0  0  0  0  0  0  0  0  0  0
  144.3480   70.8210  218.6910 N   0  0  0  0  0  0  0  0  0  0  0  0
  145.0630   69.6030  218.4480 C   0  0  0  0  0  0  0  0  0  0  0  0
  145.2530   68.6440  219.4260 C   0  0  0  0  0  0  0  0  0  0  0  0
  145.9460   67.4630  219.1850 C   0  0  0  0  0  0  0  0  0  0  0  0
  146.4450   67.2590  217.9350 C   0  0  0  0  0  0  0  0  0  0  0  0
  146.2910   68.1720  216.9220 C   0  0  0  0  0  0  0  0  0  0  0  0
  145.5990   69.3420  217.1850 C   0  0  0  0  0  0  0  0  0  0  0  0
  142.9370   70.8690  218.9720 C   0  0  0  0  0  0  0  0  0  0  0  0
  142.1230   69.8080  218.3220 C   0  0  0  0  0  0  0  0  0  0  0  0
  141.2100   69.0480  219.2590 C   0  0  0  0  0  0  0  0  0  0  0  0
  140.4490   69.9620  220.0980 N   0  0  0  0  0  0  0  0  0  0  0  0
  139.0940   69.6310  220.3500 C   0  0  0  0  0  0  0  0  0  0  0  0
  138.7180   68.5210  219.8220 O   0  0  0  0  0  0  0  0  0  0  0  0
  138.1420   70.4200  221.1240 C   0  0  1  0  0  0  0  0  0  0  0  0
  136.7940   69.9580  220.9190 N   0  0  0  0  0  0  0  0  0  0  0  0
  138.4750   70.6430  222.5670 C   0  0  2  0  0  0  0  0  0  0  0  0
  138.9310   72.0360  222.8270 C   0  0  0  0  0  0  0  0  0  0  0  0
  140.3160   72.1560  223.4180 C   0  0  0  0  0  0  0  0  0  0  0  0
  140.3320   71.2880  224.6390 C   0  0  0  0  0  0  0  0  0  0  0  0
  140.8080   71.7910  225.8260 C   0  0  0  0  0  0  0  0  0  0  0  0
  140.7880   70.9170  226.9210 C   0  0  0  0  0  0  0  0  0  0  0  0
  140.3170   69.6300  226.7970 C   0  0  0  0  0  0  0  0  0  0  0  0
  140.3410   68.5330  228.3530 Br  0  0  0  0  0  0  0  0  0  0  0  0
  139.8490   69.1790  225.5710 C   0  0  0  0  0  0  0  0  0  0  0  0
  139.8520   70.0110  224.4720 C   0  0  0  0  0  0  0  0  0  0  0  0
  139.3750   69.5770  223.1380 C   0  0  0  0  0  0  0  0  0  0  0  0
  141.1450   71.1120  220.6120 C   0  0  0  0  0  0  0  0  0  0  0  0
  142.6540   70.8320  220.4720 C   0  0  0  0  0  0  0  0  0  0  0  0
  145.4569   73.0507  221.7131 H   0  0  0  0  0  0  0  0  0  0  0  0
  146.4405   72.0105  220.6282 H   0  0  0  0  0  0  0  0  0  0  0  0
  146.6827   73.7904  220.6282 H   0  0  0  0  0  0  0  0  0  0  0  0
  143.8843   73.0572  220.0793 H   0  0  0  0  0  0  0  0  0  0  0  0
  144.9919   74.1046  219.1413 H   0  0  0  0  0  0  0  0  0  0  0  0
  144.8412   68.8218  220.4304 H   0  0  0  0  0  0  0  0  0  0  0  0
  146.0868   66.7162  219.9802 H   0  0  0  0  0  0  0  0  0  0  0  0
  146.9923   66.3273  217.7291 H   0  0  0  0  0  0  0  0  0  0  0  0
  146.7083   67.9784  215.9228 H   0  0  0  0  0  0  0  0  0  0  0  0
  145.4685   70.0821  216.3817 H   0  0  0  0  0  0  0  0  0  0  0  0
  142.6285   71.8305  218.5356 H   0  0  0  0  0  0  0  0  0  0  0  0
  141.5019   70.2797  217.5462 H   0  0  0  0  0  0  0  0  0  0  0  0
  142.8354   69.0732  217.9188 H   0  0  0  0  0  0  0  0  0  0  0  0
  140.5125   68.4381  218.6661 H   0  0  0  0  0  0  0  0  0  0  0  0
  141.8261   68.4070  219.9067 H   0  0  0  0  0  0  0  0  0  0  0  0
  138.2294   71.4354  220.7101 H   0  0  0  0  0  0  0  0  0  0  0  0
  136.2450   70.5500  220.2550 H   0  0  0  0  0  0  0  0  0  0  0  0
  136.7750   68.9410  220.6000 H   0  0  0  0  0  0  0  0  0  0  0  0
  137.5374   70.5332  223.1316 H   0  0  0  0  0  0  0  0  0  0  0  0
  138.9191   72.5824  221.8724 H   0  0  0  0  0  0  0  0  0  0  0  0
  138.2406   72.4499  223.5767 H   0  0  0  0  0  0  0  0  0  0  0  0
  141.0693   71.8096  222.6952 H   0  0  0  0  0  0  0  0  0  0  0  0
  140.5534   73.2005  223.6683 H   0  0  0  0  0  0  0  0  0  0  0  0
  141.1834   72.8214  225.9116 H   0  0  0  0  0  0  0  0  0  0  0  0
  141.1554   71.2659  227.8973 H   0  0  0  0  0  0  0  0  0  0  0  0
  139.4728   68.1498  225.4754 H   0  0  0  0  0  0  0  0  0  0  0  0
  140.2358   69.4248  222.4703 H   0  0  0  0  0  0  0  0  0  0  0  0
  138.8188   68.6326  223.2317 H   0  0  0  0  0  0  0  0  0  0  0  0
  140.8726   72.0070  220.0335 H   0  0  0  0  0  0  0  0  0  0  0  0
  140.8774   71.2924  221.6636 H   0  0  0  0  0  0  0  0  0  0  0  0
  143.2385   71.6046  220.9929 H   0  0  0  0  0  0  0  0  0  0  0  0
  142.9332   69.8655  220.9168 H   0  0  0  0  0  0  0  0  0  0  0  0
  1  2  1  0
  2  3  1  0
  3  4  2  0
  3  5  1  0
  5  6  1  0
  6  7  2  0
  7  8  1  0
  8  9  2  0
  9 10  1  0
 10 11  2  0
  5 12  1  0
 12 13  1  0
 13 14  1  0
 14 15  1  0
 15 16  1  0
 16 17  2  0
 16 18  1  0
 18 19  1  0
 18 20  1  0
 20 21  1  0
 21 22  1  0
 22 23  1  0
 23 24  2  0
 24 25  1  0
 25 26  2  0
 26 27  1  0
 26 28  1  0
 28 29  2  0
 29 30  1  0
 15 31  1  0
 31 32  1  0
 11  6  1  0
 32 12  1  0
 30 20  1  0
 29 23  1  0
  1 33  1  0
  1 34  1  0
  1 35  1  0
  2 36  1  0
  2 37  1  0
  7 38  1  0
  8 39  1  0
  9 40  1  0
 10 41  1  0
 11 42  1  0
 12 43  1  0
 13 44  1  0
 13 45  1  0
 14 46  1  0
 14 47  1  0
 18 48  1  6
 19 49  1  0
 19 50  1  0
 20 51  1  1
 21 52  1  0
 21 53  1  0
 22 54  1  0
 22 55  1  0
 24 56  1  0
 25 57  1  0
 28 58  1  0
 30 59  1  0
 30 60  1  0
 31 61  1  0
 31 62  1  0
 32 63  1  0
 32 64  1  0
M  END
>  <smiles>  (22) 
CCC(=O)N(c1ccccc1)C1CCN(C(=O)[C@@H](N)C2CCc3ccc(Br)cc3C2)CC1

>  <score_type>  (22) 
oracle

>  <origin>  (22) 
autodockgpu

>  <m_score__min__energy>  (22) 
-8.7100000000000009

>  <m_primary>  (22) 
energy

>  <rmsd>  (22) 
9.874098453410712

>  <m_score__min__rmsd>  (22) 
9.874098453410712

>  <meeko>  (22) 
{"free_energy": -7.1, "intermolecular_energy": -9.19, "internal_energy": -2.53, "cluster_size": 1, "cluster_id": 7, "rank_in_cluster": 1}

>  <energy>  (22) 
-8.1

>  <cluster_rmsd>  (22) 
0.1

>  <cluster>  (22) 
3

$$$$

     RDKit          3D

 64 67  0  0  0  0  0  0  0  0999 V2000
  139.2520   68.0580  221.6950 C   0  0  0  0  0  0  0  0  0  0  0  0
  138.4350   67.5500  222.8740 C   0  0  0  0  0  0  0  0  0  0  0  0
  138.9910   68.1540  224.1380 C   0  0  0  0  0  0  0  0  0  0  0  0
  139.5040   67.3240  224.9420 O   0  0  0  0  0  0  0  0  0  0  0  0
  138.9360   69.5340  224.3970 N   0  0  0  0  0  0  0  0  0  0  0  0
  139.5930   70.0050  225.5810 C   0  0  0  0  0  0  0  0  0  0  0  0
  139.2060   69.6190  226.8500 C   0  0  0  0  0  0  0  0  0  0  0  0
  139.8490   70.0760  227.9950 C   0  0  0  0  0  0  0  0  0  0  0  0
  140.8960   70.9320  227.8410 C   0  0  0  0  0  0  0  0  0  0  0  0
  141.3290   71.3530  226.6080 C   0  0  0  0  0  0  0  0  0  0  0  0
  140.6740   70.8860  225.4820 C   0  0  0  0  0  0  0  0  0  0  0  0
  138.2260   70.3970  223.4880 C   0  0  0  0  0  0  0  0  0  0  0  0
  136.8310   70.7270  223.8840 C   0  0  0  0  0  0  0  0  0  0  0  0
  136.5040   72.2030  223.8740 C   0  0  0  0  0  0  0  0  0  0  0  0
  136.9410   72.8250  222.6330 N   0  0  0  0  0  0  0  0  0  0  0  0
  136.0850   73.7980  222.0610 C   0  0  0  0  0  0  0  0  0  0  0  0
  135.0260   74.0370  222.7520 O   0  0  0  0  0  0  0  0  0  0  0  0
  136.3030   74.5130  220.8080 C   0  0  1  0  0  0  0  0  0  0  0  0
  135.0670   75.0240  220.2760 N   0  0  0  0  0  0  0  0  0  0  0  0
  137.4110   75.5200  220.7970 C   0  0  2  0  0  0  0  0  0  0  0  0
  138.5580   75.0800  219.9560 C   0  0  0  0  0  0  0  0  0  0  0  0
  139.8780   74.9680  220.6820 C   0  0  0  0  0  0  0  0  0  0  0  0
  140.1050   76.2880  221.3540 C   0  0  0  0  0  0  0  0  0  0  0  0
  141.3140   76.9250  221.2130 C   0  0  0  0  0  0  0  0  0  0  0  0
  141.4470   78.1560  221.8710 C   0  0  0  0  0  0  0  0  0  0  0  0
  140.4140   78.6810  222.6140 C   0  0  0  0  0  0  0  0  0  0  0  0
  140.7100   80.3570  223.4650 Br  0  0  0  0  0  0  0  0  0  0  0  0
  139.2160   77.9890  222.7200 C   0  0  0  0  0  0  0  0  0  0  0  0
  139.0490   76.7760  222.0860 C   0  0  0  0  0  0  0  0  0  0  0  0
  137.7950   75.9920  222.1750 C   0  0  0  0  0  0  0  0  0  0  0  0
  138.2130   72.4080  222.1040 C   0  0  0  0  0  0  0  0  0  0  0  0
  138.9730   71.7060  223.2470 C   0  0  0  0  0  0  0  0  0  0  0  0
  140.1312   68.6047  222.0666 H   0  0  0  0  0  0  0  0  0  0  0  0
  139.5819   67.2055  221.0831 H   0  0  0  0  0  0  0  0  0  0  0  0
  138.6334   68.7310  221.0831 H   0  0  0  0  0  0  0  0  0  0  0  0
  137.3831   67.8479  222.7521 H   0  0  0  0  0  0  0  0  0  0  0  0
  138.4901   66.4526  222.9252 H   0  0  0  0  0  0  0  0  0  0  0  0
  138.3591   68.9255  226.9583 H   0  0  0  0  0  0  0  0  0  0  0  0
  139.5215   69.7555  228.9950 H   0  0  0  0  0  0  0  0  0  0  0  0
  141.4148   71.3004  228.7383 H   0  0  0  0  0  0  0  0  0  0  0  0
  142.1781   72.0464  226.5172 H   0  0  0  0  0  0  0  0  0  0  0  0
  141.0110   71.2150  224.4879 H   0  0  0  0  0  0  0  0  0  0  0  0
  138.1708   69.7984  222.5668 H   0  0  0  0  0  0  0  0  0  0  0  0
  136.1478   70.2199  223.1868 H   0  0  0  0  0  0  0  0  0  0  0  0
  136.7155   70.3902  224.9248 H   0  0  0  0  0  0  0  0  0  0  0  0
  135.4164   72.3313  223.9773 H   0  0  0  0  0  0  0  0  0  0  0  0
  137.0298   72.6844  224.7117 H   0  0  0  0  0  0  0  0  0  0  0  0
  136.6860   73.7452  220.1197 H   0  0  0  0  0  0  0  0  0  0  0  0
  134.2480   74.8840  220.9100 H   0  0  0  0  0  0  0  0  0  0  0  0
  135.1520   76.0550  220.0160 H   0  0  0  0  0  0  0  0  0  0  0  0
  137.0180   76.4219  220.3049 H   0  0  0  0  0  0  0  0  0  0  0  0
  138.3145   74.0925  219.5370 H   0  0  0  0  0  0  0  0  0  0  0  0
  138.6938   75.8586  219.1909 H   0  0  0  0  0  0  0  0  0  0  0  0
  139.8335   74.1629  221.4303 H   0  0  0  0  0  0  0  0  0  0  0  0
  140.6962   74.7287  219.9869 H   0  0  0  0  0  0  0  0  0  0  0  0
  142.1319   76.4935  220.6173 H   0  0  0  0  0  0  0  0  0  0  0  0
  142.3930   78.7117  221.7921 H   0  0  0  0  0  0  0  0  0  0  0  0
  138.3927   78.4116  223.3147 H   0  0  0  0  0  0  0  0  0  0  0  0
  137.9492   75.1236  222.8323 H   0  0  0  0  0  0  0  0  0  0  0  0
  136.9929   76.6209  222.5886 H   0  0  0  0  0  0  0  0  0  0  0  0
  138.0628   71.7104  221.2669 H   0  0  0  0  0  0  0  0  0  0  0  0
  138.7821   73.2712  221.7286 H   0  0  0  0  0  0  0  0  0  0  0  0
  140.0135   71.5063  222.9513 H   0  0  0  0  0  0  0  0  0  0  0  0
  139.0118   72.3273  224.1539 H   0  0  0  0  0  0  0  0  0  0  0  0
  1  2  1  0
  2  3  1  0
  3  4  2  0
  3  5  1  0
  5  6  1  0
  6  7  2  0
  7  8  1  0
  8  9  2  0
  9 10  1  0
 10 11  2  0
  5 12  1  0
 12 13  1  0
 13 14  1  0
 14 15  1  0
 15 16  1  0
 16 17  2  0
 16 18  1  0
 18 19  1  0
 18 20  1  0
 20 21  1  0
 21 22  1  0
 22 23  1  0
 23 24  2  0
 24 25  1  0
 25 26  2  0
 26 27  1  0
 26 28  1  0
 28 29  2  0
 29 30  1  0
 15 31  1  0
 31 32  1  0
 11  6  1  0
 32 12  1  0
 30 20  1  0
 29 23  1  0
  1 33  1  0
  1 34  1  0
  1 35  1  0
  2 36  1  0
  2 37  1  0
  7 38  1  0
  8 39  1  0
  9 40  1  0
 10 41  1  0
 11 42  1  0
 12 43  1  0
 13 44  1  0
 13 45  1  0
 14 46  1  0
 14 47  1  0
 18 48  1  6
 19 49  1  0
 19 50  1  0
 20 51  1  6
 21 52  1  0
 21 53  1  0
 22 54  1  0
 22 55  1  0
 24 56  1  0
 25 57  1  0
 28 58  1  0
 30 59  1  0
 30 60  1  0
 31 61  1  0
 31 62  1  0
 32 63  1  0
 32 64  1  0
M  END
>  <smiles>  (23) 
CCC(=O)N(c1ccccc1)C1CCN(C(=O)[C@@H](N)C2CCc3ccc(Br)cc3C2)CC1

>  <score_type>  (23) 
oracle

>  <origin>  (23) 
autodockgpu

>  <m_score__min__energy>  (23) 
-8.7100000000000009

>  <m_primary>  (23) 
energy

>  <rmsd>  (23) 
7.047952730345369

>  <m_score__min__rmsd>  (23) 
7.047952730345369

>  <meeko>  (23) 
{"free_energy": -7.18, "intermolecular_energy": -9.27, "internal_energy": -2.35, "cluster_size": 2, "cluster_id": 6, "rank_in_cluster": 2}

>  <energy>  (23) 
-8.09

>  <cluster_rmsd>  (23) 
0.42

>  <cluster>  (23) 
3

$$$$

     RDKit          3D

 64 67  0  0  0  0  0  0  0  0999 V2000
  136.8440   70.2230  224.5130 C   0  0  0  0  0  0  0  0  0  0  0  0
  137.1700   68.9170  223.8040 C   0  0  0  0  0  0  0  0  0  0  0  0
  138.6020   68.5550  224.1010 C   0  0  0  0  0  0  0  0  0  0  0  0
  138.8530   67.3160  224.0790 O   0  0  0  0  0  0  0  0  0  0  0  0
  139.5790   69.5270  224.3820 N   0  0  0  0  0  0  0  0  0  0  0  0
  140.0600   69.6010  225.7300 C   0  0  0  0  0  0  0  0  0  0  0  0
  140.3380   70.8020  226.3560 C   0  0  0  0  0  0  0  0  0  0  0  0
  140.8020   70.8680  227.6650 C   0  0  0  0  0  0  0  0  0  0  0  0
  140.9820   69.6990  228.3390 C   0  0  0  0  0  0  0  0  0  0  0  0
  140.7250   68.4750  227.7730 C   0  0  0  0  0  0  0  0  0  0  0  0
  140.2650   68.4320  226.4690 C   0  0  0  0  0  0  0  0  0  0  0  0
  140.0360   70.3950  223.3280 C   0  0  0  0  0  0  0  0  0  0  0  0
  139.5700   70.0370  221.9620 C   0  0  0  0  0  0  0  0  0  0  0  0
  138.9410   71.1750  221.1900 C   0  0  0  0  0  0  0  0  0  0  0  0
  139.7750   72.3670  221.2490 N   0  0  0  0  0  0  0  0  0  0  0  0
  139.8850   73.1380  220.0640 C   0  0  0  0  0  0  0  0  0  0  0  0
  139.1850   72.6920  219.0820 O   0  0  0  0  0  0  0  0  0  0  0  0
  140.6940   74.3380  219.8870 C   0  0  1  0  0  0  0  0  0  0  0  0
  140.5030   74.9070  218.5780 N   0  0  0  0  0  0  0  0  0  0  0  0
  140.6330   75.3540  220.9850 C   0  0  2  0  0  0  0  0  0  0  0  0
  139.2870   75.4170  221.6150 C   0  0  0  0  0  0  0  0  0  0  0  0
  138.6130   76.7680  221.5510 C   0  0  0  0  0  0  0  0  0  0  0  0
  139.5850   77.7530  222.1250 C   0  0  0  0  0  0  0  0  0  0  0  0
  139.1660   78.6430  223.0850 C   0  0  0  0  0  0  0  0  0  0  0  0
  140.1350   79.5300  223.5730 C   0  0  0  0  0  0  0  0  0  0  0  0
  141.4290   79.5000  223.1040 C   0  0  0  0  0  0  0  0  0  0  0  0
  142.6580   80.7550  223.8390 Br  0  0  0  0  0  0  0  0  0  0  0  0
  141.7920   78.5780  222.1330 C   0  0  0  0  0  0  0  0  0  0  0  0
  140.8650   77.6890  221.6300 C   0  0  0  0  0  0  0  0  0  0  0  0
  141.1970   76.6930  220.5850 C   0  0  0  0  0  0  0  0  0  0  0  0
  140.4020   72.6660  222.5090 C   0  0  0  0  0  0  0  0  0  0  0  0
  139.6630   71.8530  223.5900 C   0  0  0  0  0  0  0  0  0  0  0  0
  136.8825   70.0688  225.6015 H   0  0  0  0  0  0  0  0  0  0  0  0
  137.5783   70.9897  224.2251 H   0  0  0  0  0  0  0  0  0  0  0  0
  135.8355   70.5547  224.2251 H   0  0  0  0  0  0  0  0  0  0  0  0
  136.5033   68.1212  224.1676 H   0  0  0  0  0  0  0  0  0  0  0  0
  137.0280   69.0319  222.7193 H   0  0  0  0  0  0  0  0  0  0  0  0
  140.1867   71.7383  225.7988 H   0  0  0  0  0  0  0  0  0  0  0  0
  141.0172   71.8357  228.1417 H   0  0  0  0  0  0  0  0  0  0  0  0
  141.3470   69.7366  229.3760 H   0  0  0  0  0  0  0  0  0  0  0  0
  140.8815   67.5481  228.3442 H   0  0  0  0  0  0  0  0  0  0  0  0
  140.0561   67.4574  226.0037 H   0  0  0  0  0  0  0  0  0  0  0  0
  141.1271   70.2567  223.3468 H   0  0  0  0  0  0  0  0  0  0  0  0
  140.4354   69.6718  221.3896 H   0  0  0  0  0  0  0  0  0  0  0  0
  138.7846   69.2778  222.0909 H   0  0  0  0  0  0  0  0  0  0  0  0
  138.8184   70.8730  220.1394 H   0  0  0  0  0  0  0  0  0  0  0  0
  137.9643   71.4070  221.6398 H   0  0  0  0  0  0  0  0  0  0  0  0
  141.7315   73.9808  219.9642 H   0  0  0  0  0  0  0  0  0  0  0  0
  141.2830   74.7020  217.9140 H   0  0  0  0  0  0  0  0  0  0  0  0
  139.5740   74.6020  218.1520 H   0  0  0  0  0  0  0  0  0  0  0  0
  141.3095   75.0056  221.7794 H   0  0  0  0  0  0  0  0  0  0  0  0
  138.6384   74.6880  221.1072 H   0  0  0  0  0  0  0  0  0  0  0  0
  139.4375   75.1995  222.6827 H   0  0  0  0  0  0  0  0  0  0  0  0
  138.3795   77.0276  220.5079 H   0  0  0  0  0  0  0  0  0  0  0  0
  137.6666   76.7686  222.1116 H   0  0  0  0  0  0  0  0  0  0  0  0
  138.1283   78.6582  223.4498 H   0  0  0  0  0  0  0  0  0  0  0  0
  139.8568   80.2632  224.3444 H   0  0  0  0  0  0  0  0  0  0  0  0
  142.8271   78.5557  221.7613 H   0  0  0  0  0  0  0  0  0  0  0  0
  140.7593   77.0056  219.6255 H   0  0  0  0  0  0  0  0  0  0  0  0
  142.2891   76.6184  220.4769 H   0  0  0  0  0  0  0  0  0  0  0  0
  141.4630   72.3773  222.4799 H   0  0  0  0  0  0  0  0  0  0  0  0
  140.3487   73.7431  222.7258 H   0  0  0  0  0  0  0  0  0  0  0  0
  139.9917   72.1598  224.5939 H   0  0  0  0  0  0  0  0  0  0  0  0
  138.5752   72.0106  223.5476 H   0  0  0  0  0  0  0  0  0  0  0  0
  1  2  1  0
  2  3  1  0
  3  4  2  0
  3  5  1  0
  5  6  1  0
  6  7  2  0
  7  8  1  0
  8  9  2  0
  9 10  1  0
 10 11  2  0
  5 12  1  0
 12 13  1  0
 13 14  1  0
 14 15  1  0
 15 16  1  0
 16 17  2  0
 16 18  1  0
 18 19  1  0
 18 20  1  0
 20 21  1  0
 21 22  1  0
 22 23  1  0
 23 24  2  0
 24 25  1  0
 25 26  2  0
 26 27  1  0
 26 28  1  0
 28 29  2  0
 29 30  1  0
 15 31  1  0
 31 32  1  0
 11  6  1  0
 32 12  1  0
 30 20  1  0
 29 23  1  0
  1 33  1  0
  1 34  1  0
  1 35  1  0
  2 36  1  0
  2 37  1  0
  7 38  1  0
  8 39  1  0
  9 40  1  0
 10 41  1  0
 11 42  1  0
 12 43  1  0
 13 44  1  0
 13 45  1  0
 14 46  1  0
 14 47  1  0
 18 48  1  6
 19 49  1  0
 19 50  1  0
 20 51  1  1
 21 52  1  0
 21 53  1  0
 22 54  1  0
 22 55  1  0
 24 56  1  0
 25 57  1  0
 28 58  1  0
 30 59  1  0
 30 60  1  0
 31 61  1  0
 31 62  1  0
 32 63  1  0
 32 64  1  0
M  END
>  <smiles>  (24) 
CCC(=O)N(c1ccccc1)C1CCN(C(=O)[C@@H](N)C2CCc3ccc(Br)cc3C2)CC1

>  <score_type>  (24) 
oracle

>  <origin>  (24) 
autodockgpu

>  <m_score__min__energy>  (24) 
-8.7100000000000009

>  <m_primary>  (24) 
energy

>  <rmsd>  (24) 
6.200932020712278

>  <m_score__min__rmsd>  (24) 
6.200932020712278

>  <meeko>  (24) 
{"free_energy": -8.1, "intermolecular_energy": -10.19, "internal_energy": -2.13, "cluster_size": 10, "cluster_id": 3, "rank_in_cluster": 4}

>  <energy>  (24) 
-8.08

>  <cluster_rmsd>  (24) 
0.2

>  <cluster>  (24) 
3

$$$$

     RDKit          3D

 64 67  0  0  0  0  0  0  0  0999 V2000
  145.8570   73.0230  221.5860 C   0  0  0  0  0  0  0  0  0  0  0  0
  146.3020   73.7430  220.3220 C   0  0  0  0  0  0  0  0  0  0  0  0
  145.6240   73.0990  219.1400 C   0  0  0  0  0  0  0  0  0  0  0  0
  145.9100   71.8800  218.9620 O   0  0  0  0  0  0  0  0  0  0  0  0
  144.7460   73.8070  218.3010 N   0  0  0  0  0  0  0  0  0  0  0  0
  145.1960   74.0880  216.9690 C   0  0  0  0  0  0  0  0  0  0  0  0
  146.4710   73.7770  216.5340 C   0  0  0  0  0  0  0  0  0  0  0  0
  146.9020   74.0490  215.2410 C   0  0  0  0  0  0  0  0  0  0  0  0
  146.0240   74.6410  214.3860 C   0  0  0  0  0  0  0  0  0  0  0  0
  144.7450   74.9750  214.7570 C   0  0  0  0  0  0  0  0  0  0  0  0
  144.3370   74.6960  216.0500 C   0  0  0  0  0  0  0  0  0  0  0  0
  143.4630   74.2210  218.8080 C   0  0  0  0  0  0  0  0  0  0  0  0
  142.6980   73.1720  219.5330 C   0  0  0  0  0  0  0  0  0  0  0  0
  142.1900   73.5880  220.8950 C   0  0  0  0  0  0  0  0  0  0  0  0
  141.5260   74.8820  220.8300 N   0  0  0  0  0  0  0  0  0  0  0  0
  140.3520   75.0450  221.6070 C   0  0  0  0  0  0  0  0  0  0  0  0
  140.0430   74.0160  222.3140 O   0  0  0  0  0  0  0  0  0  0  0  0
  139.5100   76.2350  221.6600 C   0  0  1  0  0  0  0  0  0  0  0  0
  138.5250   76.1310  222.7050 N   0  0  0  0  0  0  0  0  0  0  0  0
  140.2150   77.5550  221.6440 C   0  0  2  0  0  0  0  0  0  0  0  0
  141.3880   77.5740  222.5600 C   0  0  0  0  0  0  0  0  0  0  0  0
  141.3390   78.6290  223.6410 C   0  0  0  0  0  0  0  0  0  0  0  0
  141.1070   79.9360  222.9460 C   0  0  0  0  0  0  0  0  0  0  0  0
  141.9030   81.0160  223.2430 C   0  0  0  0  0  0  0  0  0  0  0  0
  141.6230   82.2010  222.5490 C   0  0  0  0  0  0  0  0  0  0  0  0
  140.6040   82.2630  221.6260 C   0  0  0  0  0  0  0  0  0  0  0  0
  140.3150   83.9270  220.7480 Br  0  0  0  0  0  0  0  0  0  0  0  0
  139.8340   81.1370  221.3700 C   0  0  0  0  0  0  0  0  0  0  0  0
  140.0800   79.9540  222.0330 C   0  0  0  0  0  0  0  0  0  0  0  0
  139.2820   78.7270  221.8040 C   0  0  0  0  0  0  0  0  0  0  0  0
  142.1290   75.8860  219.9940 C   0  0  0  0  0  0  0  0  0  0  0  0
  143.5790   75.4400  219.7200 C   0  0  0  0  0  0  0  0  0  0  0  0
  146.2028   73.5825  222.4677 H   0  0  0  0  0  0  0  0  0  0  0  0
  144.7592   72.9552  221.6021 H   0  0  0  0  0  0  0  0  0  0  0  0
  146.2872   72.0107  221.6021 H   0  0  0  0  0  0  0  0  0  0  0  0
  146.0177   74.8040  220.3799 H   0  0  0  0  0  0  0  0  0  0  0  0
  147.3944   73.6731  220.2136 H   0  0  0  0  0  0  0  0  0  0  0  0
  147.1689   73.2974  217.2361 H   0  0  0  0  0  0  0  0  0  0  0  0
  147.9221   73.7935  214.9183 H   0  0  0  0  0  0  0  0  0  0  0  0
  146.3515   74.8601  213.3590 H   0  0  0  0  0  0  0  0  0  0  0  0
  144.0595   75.4539  214.0424 H   0  0  0  0  0  0  0  0  0  0  0  0
  143.3149   74.9585  216.3605 H   0  0  0  0  0  0  0  0  0  0  0  0
  142.8995   74.4633  217.8949 H   0  0  0  0  0  0  0  0  0  0  0  0
  141.8321   72.8910  218.9155 H   0  0  0  0  0  0  0  0  0  0  0  0
  143.3967   72.3396  219.7030 H   0  0  0  0  0  0  0  0  0  0  0  0
  141.4755   72.8346  221.2582 H   0  0  0  0  0  0  0  0  0  0  0  0
  143.0470   73.6673  221.5801 H   0  0  0  0  0  0  0  0  0  0  0  0
  138.9899   76.2436  220.6907 H   0  0  0  0  0  0  0  0  0  0  0  0
  138.4620   75.1770  223.1280 H   0  0  0  0  0  0  0  0  0  0  0  0
  138.6900   76.8560  223.4690 H   0  0  0  0  0  0  0  0  0  0  0  0
  140.6319   77.6810  220.6339 H   0  0  0  0  0  0  0  0  0  0  0  0
  141.4564   76.5900  223.0468 H   0  0  0  0  0  0  0  0  0  0  0  0
  142.2610   77.8149  221.9356 H   0  0  0  0  0  0  0  0  0  0  0  0
  140.5166   78.4189  224.3407 H   0  0  0  0  0  0  0  0  0  0  0  0
  142.2720   78.6470  224.2234 H   0  0  0  0  0  0  0  0  0  0  0  0
  142.7140   80.9540  223.9835 H   0  0  0  0  0  0  0  0  0  0  0  0
  142.2288   83.0979  222.7456 H   0  0  0  0  0  0  0  0  0  0  0  0
  139.0204   81.1892  220.6316 H   0  0  0  0  0  0  0  0  0  0  0  0
  138.6174   78.5541  222.6633 H   0  0  0  0  0  0  0  0  0  0  0  0
  138.6748   78.8442  220.8943 H   0  0  0  0  0  0  0  0  0  0  0  0
  141.5753   75.9704  219.0473 H   0  0  0  0  0  0  0  0  0  0  0  0
  142.1094   76.8687  220.4878 H   0  0  0  0  0  0  0  0  0  0  0  0
  144.1405   76.2428  219.2198 H   0  0  0  0  0  0  0  0  0  0  0  0
  144.1173   75.2052  220.6501 H   0  0  0  0  0  0  0  0  0  0  0  0
  1  2  1  0
  2  3  1  0
  3  4  2  0
  3  5  1  0
  5  6  1  0
  6  7  2  0
  7  8  1  0
  8  9  2  0
  9 10  1  0
 10 11  2  0
  5 12  1  0
 12 13  1  0
 13 14  1  0
 14 15  1  0
 15 16  1  0
 16 17  2  0
 16 18  1  0
 18 19  1  0
 18 20  1  0
 20 21  1  0
 21 22  1  0
 22 23  1  0
 23 24  2  0
 24 25  1  0
 25 26  2  0
 26 27  1  0
 26 28  1  0
 28 29  2  0
 29 30  1  0
 15 31  1  0
 31 32  1  0
 11  6  1  0
 32 12  1  0
 30 20  1  0
 29 23  1  0
  1 33  1  0
  1 34  1  0
  1 35  1  0
  2 36  1  0
  2 37  1  0
  7 38  1  0
  8 39  1  0
  9 40  1  0
 10 41  1  0
 11 42  1  0
 12 43  1  0
 13 44  1  0
 13 45  1  0
 14 46  1  0
 14 47  1  0
 18 48  1  6
 19 49  1  0
 19 50  1  0
 20 51  1  6
 21 52  1  0
 21 53  1  0
 22 54  1  0
 22 55  1  0
 24 56  1  0
 25 57  1  0
 28 58  1  0
 30 59  1  0
 30 60  1  0
 31 61  1  0
 31 62  1  0
 32 63  1  0
 32 64  1  0
M  END
>  <smiles>  (25) 
CCC(=O)N(c1ccccc1)C1CCN(C(=O)[C@@H](N)C2CCc3ccc(Br)cc3C2)CC1

>  <score_type>  (25) 
oracle

>  <origin>  (25) 
autodockgpu

>  <m_score__min__energy>  (25) 
-8.7100000000000009

>  <m_primary>  (25) 
energy

>  <rmsd>  (25) 
3.8482210246719473

>  <m_score__min__rmsd>  (25) 
3.8482210246719473

>  <meeko>  (25) 
{"free_energy": -7.94, "intermolecular_energy": -10.03, "internal_energy": -2.2, "cluster_size": 6, "cluster_id": 4, "rank_in_cluster": 3}

>  <energy>  (25) 
-8.01

>  <cluster_rmsd>  (25) 
0.31

>  <cluster>  (25) 
3

$$$$

     RDKit          3D

 64 67  0  0  0  0  0  0  0  0999 V2000
  146.2270   73.0730  221.8150 C   0  0  0  0  0  0  0  0  0  0  0  0
  146.4110   73.7800  220.4810 C   0  0  0  0  0  0  0  0  0  0  0  0
  145.8090   72.9230  219.3980 C   0  0  0  0  0  0  0  0  0  0  0  0
  146.2580   71.7420  219.3420 O   0  0  0  0  0  0  0  0  0  0  0  0
  144.8250   73.4080  218.5180 N   0  0  0  0  0  0  0  0  0  0  0  0
  145.2450   73.7470  217.1900 C   0  0  0  0  0  0  0  0  0  0  0  0
  146.5710   73.7230  216.8000 C   0  0  0  0  0  0  0  0  0  0  0  0
  146.9730   74.0500  215.5100 C   0  0  0  0  0  0  0  0  0  0  0  0
  146.0130   74.4030  214.6120 C   0  0  0  0  0  0  0  0  0  0  0  0
  144.6800   74.4470  214.9360 C   0  0  0  0  0  0  0  0  0  0  0  0
  144.3030   74.1180  216.2270 C   0  0  0  0  0  0  0  0  0  0  0  0
  143.4700   73.5510  218.9810 C   0  0  0  0  0  0  0  0  0  0  0  0
  143.0070   72.4980  219.9240 C   0  0  0  0  0  0  0  0  0  0  0  0
  142.3800   73.0220  221.1970 C   0  0  0  0  0  0  0  0  0  0  0  0
  141.3900   74.0480  220.9060 N   0  0  0  0  0  0  0  0  0  0  0  0
  140.2020   74.0380  221.6790 C   0  0  0  0  0  0  0  0  0  0  0  0
  140.1730   73.1250  222.5840 O   0  0  0  0  0  0  0  0  0  0  0  0
  139.0660   74.9410  221.5300 C   0  0  1  0  0  0  0  0  0  0  0  0
  137.9500   74.5130  222.3330 N   0  0  0  0  0  0  0  0  0  0  0  0
  139.3550   76.4050  221.6560 C   0  0  2  0  0  0  0  0  0  0  0  0
  139.0160   77.1510  220.4130 C   0  0  0  0  0  0  0  0  0  0  0  0
  140.1670   77.8950  219.7790 C   0  0  0  0  0  0  0  0  0  0  0  0
  140.7540   78.7610  220.8510 C   0  0  0  0  0  0  0  0  0  0  0  0
  140.9910   80.0910  220.5980 C   0  0  0  0  0  0  0  0  0  0  0  0
  141.5380   80.8340  221.6520 C   0  0  0  0  0  0  0  0  0  0  0  0
  141.8190   80.2490  222.8660 C   0  0  0  0  0  0  0  0  0  0  0  0
  142.5640   81.3570  224.2230 Br  0  0  0  0  0  0  0  0  0  0  0  0
  141.5580   78.9000  223.0600 C   0  0  0  0  0  0  0  0  0  0  0  0
  141.0190   78.1380  222.0460 C   0  0  0  0  0  0  0  0  0  0  0  0
  140.7310   76.6920  222.1970 C   0  0  0  0  0  0  0  0  0  0  0  0
  141.7110   74.9930  219.8690 C   0  0  0  0  0  0  0  0  0  0  0  0
  143.2320   74.9110  219.6330 C   0  0  0  0  0  0  0  0  0  0  0  0
  146.4117   73.7829  222.6347 H   0  0  0  0  0  0  0  0  0  0  0  0
  145.1989   72.6886  221.8875 H   0  0  0  0  0  0  0  0  0  0  0  0
  146.9373   72.2362  221.8875 H   0  0  0  0  0  0  0  0  0  0  0  0
  145.9049   74.7563  220.5057 H   0  0  0  0  0  0  0  0  0  0  0  0
  147.4814   73.9395  220.2838 H   0  0  0  0  0  0  0  0  0  0  0  0
  147.3354   73.4349  217.5367 H   0  0  0  0  0  0  0  0  0  0  0  0
  148.0348   74.0242  215.2237 H   0  0  0  0  0  0  0  0  0  0  0  0
  146.3171   74.6630  213.5873 H   0  0  0  0  0  0  0  0  0  0  0  0
  143.9283   74.7370  214.1871 H   0  0  0  0  0  0  0  0  0  0  0  0
  143.2380   74.1494  216.5007 H   0  0  0  0  0  0  0  0  0  0  0  0
  142.8785   73.4470  218.0594 H   0  0  0  0  0  0  0  0  0  0  0  0
  142.2619   71.8769  219.4053 H   0  0  0  0  0  0  0  0  0  0  0  0
  143.9028   71.9360  220.2269 H   0  0  0  0  0  0  0  0  0  0  0  0
  141.8916   72.1905  221.7263 H   0  0  0  0  0  0  0  0  0  0  0  0
  143.1705   73.4644  221.8210 H   0  0  0  0  0  0  0  0  0  0  0  0
  138.7857   74.8536  220.4699 H   0  0  0  0  0  0  0  0  0  0  0  0
  138.0680   73.5570  222.7380 H   0  0  0  0  0  0  0  0  0  0  0  0
  137.7370   75.2130  223.1090 H   0  0  0  0  0  0  0  0  0  0  0  0
  138.6763   76.7987  222.4269 H   0  0  0  0  0  0  0  0  0  0  0  0
  138.6296   76.4301  219.6774 H   0  0  0  0  0  0  0  0  0  0  0  0
  138.2807   77.9152  220.7050 H   0  0  0  0  0  0  0  0  0  0  0  0
  140.9209   77.1848  219.4086 H   0  0  0  0  0  0  0  0  0  0  0  0
  139.8290   78.4960  218.9220 H   0  0  0  0  0  0  0  0  0  0  0  0
  140.7639   80.5463  219.6228 H   0  0  0  0  0  0  0  0  0  0  0  0
  141.7468   81.9042  221.5070 H   0  0  0  0  0  0  0  0  0  0  0  0
  141.7832   78.4350  224.0311 H   0  0  0  0  0  0  0  0  0  0  0  0
  141.4762   76.1075  221.6375 H   0  0  0  0  0  0  0  0  0  0  0  0
  140.7769   76.4138  223.2603 H   0  0  0  0  0  0  0  0  0  0  0  0
  141.1718   74.7364  218.9452 H   0  0  0  0  0  0  0  0  0  0  0  0
  141.4157   76.0110  220.1631 H   0  0  0  0  0  0  0  0  0  0  0  0
  143.5618   75.7206  218.9653 H   0  0  0  0  0  0  0  0  0  0  0  0
  143.7972   75.0191  220.5705 H   0  0  0  0  0  0  0  0  0  0  0  0
  1  2  1  0
  2  3  1  0
  3  4  2  0
  3  5  1  0
  5  6  1  0
  6  7  2  0
  7  8  1  0
  8  9  2  0
  9 10  1  0
 10 11  2  0
  5 12  1  0
 12 13  1  0
 13 14  1  0
 14 15  1  0
 15 16  1  0
 16 17  2  0
 16 18  1  0
 18 19  1  0
 18 20  1  0
 20 21  1  0
 21 22  1  0
 22 23  1  0
 23 24  2  0
 24 25  1  0
 25 26  2  0
 26 27  1  0
 26 28  1  0
 28 29  2  0
 29 30  1  0
 15 31  1  0
 31 32  1  0
 11  6  1  0
 32 12  1  0
 30 20  1  0
 29 23  1  0
  1 33  1  0
  1 34  1  0
  1 35  1  0
  2 36  1  0
  2 37  1  0
  7 38  1  0
  8 39  1  0
  9 40  1  0
 10 41  1  0
 11 42  1  0
 12 43  1  0
 13 44  1  0
 13 45  1  0
 14 46  1  0
 14 47  1  0
 18 48  1  6
 19 49  1  0
 19 50  1  0
 20 51  1  1
 21 52  1  0
 21 53  1  0
 22 54  1  0
 22 55  1  0
 24 56  1  0
 25 57  1  0
 28 58  1  0
 30 59  1  0
 30 60  1  0
 31 61  1  0
 31 62  1  0
 32 63  1  0
 32 64  1  0
M  END
>  <smiles>  (26) 
CCC(=O)N(c1ccccc1)C1CCN(C(=O)[C@@H](N)C2CCc3ccc(Br)cc3C2)CC1

>  <score_type>  (26) 
oracle

>  <origin>  (26) 
autodockgpu

>  <m_score__min__energy>  (26) 
-8.7100000000000009

>  <m_primary>  (26) 
energy

>  <rmsd>  (26) 
5.016526769844733

>  <m_score__min__rmsd>  (26) 
5.016526769844733

>  <meeko>  (26) 
{"free_energy": -7.91, "intermolecular_energy": -10.0, "internal_energy": -2.47, "cluster_size": 15, "cluster_id": 2, "rank_in_cluster": 11}

>  <energy>  (26) 
-7.97

>  <cluster_rmsd>  (26) 
0.43

>  <cluster>  (26) 
3

$$$$

     RDKit          3D

 64 67  0  0  0  0  0  0  0  0999 V2000
  136.5740   69.6210  224.9560 C   0  0  0  0  0  0  0  0  0  0  0  0
  137.1690   68.8910  223.7610 C   0  0  0  0  0  0  0  0  0  0  0  0
  138.5920   68.5170  224.0870 C   0  0  0  0  0  0  0  0  0  0  0  0
  138.8330   67.2760  224.0670 O   0  0  0  0  0  0  0  0  0  0  0  0
  139.5690   69.4800  224.3920 N   0  0  0  0  0  0  0  0  0  0  0  0
  140.0460   69.5240  225.7430 C   0  0  0  0  0  0  0  0  0  0  0  0
  140.2610   70.7100  226.4190 C   0  0  0  0  0  0  0  0  0  0  0  0
  140.7200   70.7470  227.7300 C   0  0  0  0  0  0  0  0  0  0  0  0
  140.9610   69.5630  228.3560 C   0  0  0  0  0  0  0  0  0  0  0  0
  140.7680   68.3510  227.7410 C   0  0  0  0  0  0  0  0  0  0  0  0
  140.3110   68.3380  226.4340 C   0  0  0  0  0  0  0  0  0  0  0  0
  140.0320   70.3700  223.3600 C   0  0  0  0  0  0  0  0  0  0  0  0
  139.5110   70.0860  221.9960 C   0  0  0  0  0  0  0  0  0  0  0  0
  138.9090   71.2790  221.2880 C   0  0  0  0  0  0  0  0  0  0  0  0
  139.7940   72.4320  221.3670 N   0  0  0  0  0  0  0  0  0  0  0  0
  139.9020   73.2440  220.2100 C   0  0  0  0  0  0  0  0  0  0  0  0
  139.1550   72.8680  219.2330 O   0  0  0  0  0  0  0  0  0  0  0  0
  140.7560   74.4170  220.0540 C   0  0  1  0  0  0  0  0  0  0  0  0
  140.6560   74.9610  218.7250 N   0  0  0  0  0  0  0  0  0  0  0  0
  140.6650   75.4580  221.1270 C   0  0  2  0  0  0  0  0  0  0  0  0
  139.3150   75.5000  221.7510 C   0  0  0  0  0  0  0  0  0  0  0  0
  138.6050   76.8310  221.6520 C   0  0  0  0  0  0  0  0  0  0  0  0
  139.5480   77.8560  222.2030 C   0  0  0  0  0  0  0  0  0  0  0  0
  139.1030   78.7580  223.1390 C   0  0  0  0  0  0  0  0  0  0  0  0
  140.0460   79.6830  223.6060 C   0  0  0  0  0  0  0  0  0  0  0  0
  141.3410   79.6760  223.1420 C   0  0  0  0  0  0  0  0  0  0  0  0
  142.5330   80.9820  223.8470 Br  0  0  0  0  0  0  0  0  0  0  0  0
  141.7320   78.7400  222.1950 C   0  0  0  0  0  0  0  0  0  0  0  0
  140.8310   77.8140  221.7130 C   0  0  0  0  0  0  0  0  0  0  0  0
  141.1930   76.8010  220.6940 C   0  0  0  0  0  0  0  0  0  0  0  0
  140.4700   72.6540  222.6180 C   0  0  0  0  0  0  0  0  0  0  0  0
  139.7290   71.8300  223.6890 C   0  0  0  0  0  0  0  0  0  0  0  0
  136.9452   69.1655  225.8859 H   0  0  0  0  0  0  0  0  0  0  0  0
  136.8695   70.6801  224.9230 H   0  0  0  0  0  0  0  0  0  0  0  0
  135.4771   69.5452  224.9230 H   0  0  0  0  0  0  0  0  0  0  0  0
  136.5851   67.9822  223.5534 H   0  0  0  0  0  0  0  0  0  0  0  0
  137.1446   69.5402  222.8733 H   0  0  0  0  0  0  0  0  0  0  0  0
  140.0615   71.6593  225.9004 H   0  0  0  0  0  0  0  0  0  0  0  0
  140.8836   71.7045  228.2462 H   0  0  0  0  0  0  0  0  0  0  0  0
  141.3242   69.5777  229.3942 H   0  0  0  0  0  0  0  0  0  0  0  0
  140.9719   67.4110  228.2747 H   0  0  0  0  0  0  0  0  0  0  0  0
  140.1531   67.3738  225.9286 H   0  0  0  0  0  0  0  0  0  0  0  0
  141.1165   70.1870  223.3407 H   0  0  0  0  0  0  0  0  0  0  0  0
  140.3428   69.7080  221.3834 H   0  0  0  0  0  0  0  0  0  0  0  0
  138.6978   69.3557  222.1201 H   0  0  0  0  0  0  0  0  0  0  0  0
  138.7432   71.0242  220.2308 H   0  0  0  0  0  0  0  0  0  0  0  0
  137.9567   71.5333  221.7763 H   0  0  0  0  0  0  0  0  0  0  0  0
  141.7769   74.0330  220.1966 H   0  0  0  0  0  0  0  0  0  0  0  0
  141.4380   74.6740  218.0950 H   0  0  0  0  0  0  0  0  0  0  0  0
  139.7200   74.7210  218.2750 H   0  0  0  0  0  0  0  0  0  0  0  0
  141.3482   75.1487  221.9317 H   0  0  0  0  0  0  0  0  0  0  0  0
  138.6882   74.7417  221.2589 H   0  0  0  0  0  0  0  0  0  0  0  0
  139.4671   75.3125  222.8242 H   0  0  0  0  0  0  0  0  0  0  0  0
  138.3674   77.0581  220.6023 H   0  0  0  0  0  0  0  0  0  0  0  0
  137.6576   76.8199  222.2108 H   0  0  0  0  0  0  0  0  0  0  0  0
  138.0644   78.7541  223.5015 H   0  0  0  0  0  0  0  0  0  0  0  0
  139.7455   80.4282  224.3572 H   0  0  0  0  0  0  0  0  0  0  0  0
  142.7683   78.7367  221.8261 H   0  0  0  0  0  0  0  0  0  0  0  0
  140.7493   77.0769  219.7260 H   0  0  0  0  0  0  0  0  0  0  0  0
  142.2870   76.7538  220.5897 H   0  0  0  0  0  0  0  0  0  0  0  0
  141.5164   72.3228  222.5449 H   0  0  0  0  0  0  0  0  0  0  0  0
  140.4692   73.7228  222.8779 H   0  0  0  0  0  0  0  0  0  0  0  0
  140.0994   72.0829  224.6934 H   0  0  0  0  0  0  0  0  0  0  0  0
  138.6481   72.0338  223.6861 H   0  0  0  0  0  0  0  0  0  0  0  0
  1  2  1  0
  2  3  1  0
  3  4  2  0
  3  5  1  0
  5  6  1  0
  6  7  2  0
  7  8  1  0
  8  9  2  0
  9 10  1  0
 10 11  2  0
  5 12  1  0
 12 13  1  0
 13 14  1  0
 14 15  1  0
 15 16  1  0
 16 17  2  0
 16 18  1  0
 18 19  1  0
 18 20  1  0
 20 21  1  0
 21 22  1  0
 22 23  1  0
 23 24  2  0
 24 25  1  0
 25 26  2  0
 26 27  1  0
 26 28  1  0
 28 29  2  0
 29 30  1  0
 15 31  1  0
 31 32  1  0
 11  6  1  0
 32 12  1  0
 30 20  1  0
 29 23  1  0
  1 33  1  0
  1 34  1  0
  1 35  1  0
  2 36  1  0
  2 37  1  0
  7 38  1  0
  8 39  1  0
  9 40  1  0
 10 41  1  0
 11 42  1  0
 12 43  1  0
 13 44  1  0
 13 45  1  0
 14 46  1  0
 14 47  1  0
 18 48  1  6
 19 49  1  0
 19 50  1  0
 20 51  1  1
 21 52  1  0
 21 53  1  0
 22 54  1  0
 22 55  1  0
 24 56  1  0
 25 57  1  0
 28 58  1  0
 30 59  1  0
 30 60  1  0
 31 61  1  0
 31 62  1  0
 32 63  1  0
 32 64  1  0
M  END
>  <smiles>  (27) 
CCC(=O)N(c1ccccc1)C1CCN(C(=O)[C@@H](N)C2CCc3ccc(Br)cc3C2)CC1

>  <score_type>  (27) 
oracle

>  <origin>  (27) 
autodockgpu

>  <m_score__min__energy>  (27) 
-8.7100000000000009

>  <m_primary>  (27) 
energy

>  <rmsd>  (27) 
6.156382650596125

>  <m_score__min__rmsd>  (27) 
6.156382650596125

>  <meeko>  (27) 
{"free_energy": -8.15, "intermolecular_energy": -10.23, "internal_energy": -2.14, "cluster_size": 10, "cluster_id": 3, "rank_in_cluster": 2}

>  <energy>  (27) 
-7.93

>  <cluster_rmsd>  (27) 
0.39

>  <cluster>  (27) 
3

$$$$

     RDKit          3D

 64 67  0  0  0  0  0  0  0  0999 V2000
  136.6420   70.0220  224.5910 C   0  0  0  0  0  0  0  0  0  0  0  0
  137.1240   68.8950  223.6900 C   0  0  0  0  0  0  0  0  0  0  0  0
  138.5520   68.5730  224.0480 C   0  0  0  0  0  0  0  0  0  0  0  0
  138.8310   67.3390  224.0660 O   0  0  0  0  0  0  0  0  0  0  0  0
  139.4960   69.5730  224.3410 N   0  0  0  0  0  0  0  0  0  0  0  0
  139.9470   69.6690  225.6970 C   0  0  0  0  0  0  0  0  0  0  0  0
  140.4680   70.8350  226.2270 C   0  0  0  0  0  0  0  0  0  0  0  0
  140.9020   70.9250  227.5440 C   0  0  0  0  0  0  0  0  0  0  0  0
  140.8020   69.8150  228.3270 C   0  0  0  0  0  0  0  0  0  0  0  0
  140.2960   68.6270  227.8610 C   0  0  0  0  0  0  0  0  0  0  0  0
  139.8700   68.5610  226.5450 C   0  0  0  0  0  0  0  0  0  0  0  0
  139.9500   70.4460  223.2900 C   0  0  0  0  0  0  0  0  0  0  0  0
  139.4620   70.1060  221.9260 C   0  0  0  0  0  0  0  0  0  0  0  0
  138.8380   71.2590  221.1730 C   0  0  0  0  0  0  0  0  0  0  0  0
  139.6860   72.4400  221.2330 N   0  0  0  0  0  0  0  0  0  0  0  0
  139.7910   73.2210  220.0540 C   0  0  0  0  0  0  0  0  0  0  0  0
  139.0730   72.7940  219.0770 O   0  0  0  0  0  0  0  0  0  0  0  0
  140.6120   74.4140  219.8780 C   0  0  1  0  0  0  0  0  0  0  0  0
  140.4220   74.9900  218.5720 N   0  0  0  0  0  0  0  0  0  0  0  0
  140.5670   75.4260  220.9810 C   0  0  2  0  0  0  0  0  0  0  0  0
  139.2250   75.4970  221.6200 C   0  0  0  0  0  0  0  0  0  0  0  0
  138.5610   76.8530  221.5660 C   0  0  0  0  0  0  0  0  0  0  0  0
  139.5440   77.8290  222.1360 C   0  0  0  0  0  0  0  0  0  0  0  0
  139.1380   78.7180  223.1020 C   0  0  0  0  0  0  0  0  0  0  0  0
  140.1180   79.5970  223.5870 C   0  0  0  0  0  0  0  0  0  0  0  0
  141.4080   79.5580  223.1090 C   0  0  0  0  0  0  0  0  0  0  0  0
  142.6510   80.8010  223.8390 Br  0  0  0  0  0  0  0  0  0  0  0  0
  141.7570   78.6370  222.1320 C   0  0  0  0  0  0  0  0  0  0  0  0
  140.8200   77.7570  221.6320 C   0  0  0  0  0  0  0  0  0  0  0  0
  141.1370   76.7620  220.5810 C   0  0  0  0  0  0  0  0  0  0  0  0
  140.3330   72.7200  222.4880 C   0  0  0  0  0  0  0  0  0  0  0  0
  139.5980   71.9050  223.5700 C   0  0  0  0  0  0  0  0  0  0  0  0
  136.7674   69.7289  225.6438 H   0  0  0  0  0  0  0  0  0  0  0  0
  137.2309   70.9292  224.3904 H   0  0  0  0  0  0  0  0  0  0  0  0
  135.5793   70.2228  224.3904 H   0  0  0  0  0  0  0  0  0  0  0  0
  136.4945   68.0054  223.8397 H   0  0  0  0  0  0  0  0  0  0  0  0
  137.0602   69.2023  222.6357 H   0  0  0  0  0  0  0  0  0  0  0  0
  140.5416   71.7235  225.5827 H   0  0  0  0  0  0  0  0  0  0  0  0
  141.3138   71.8641  227.9421 H   0  0  0  0  0  0  0  0  0  0  0  0
  141.1395   69.8727  229.3724 H   0  0  0  0  0  0  0  0  0  0  0  0
  140.2304   67.7473  228.5181 H   0  0  0  0  0  0  0  0  0  0  0  0
  139.4619   67.6154  226.1586 H   0  0  0  0  0  0  0  0  0  0  0  0
  141.0396   70.2954  223.2940 H   0  0  0  0  0  0  0  0  0  0  0  0
  140.3154   69.7353  221.3392 H   0  0  0  0  0  0  0  0  0  0  0  0
  138.6689   69.3553  222.0578 H   0  0  0  0  0  0  0  0  0  0  0  0
  138.6991   70.9688  220.1211 H   0  0  0  0  0  0  0  0  0  0  0  0
  137.8700   71.4983  221.6374 H   0  0  0  0  0  0  0  0  0  0  0  0
  141.6461   74.0459  219.9491 H   0  0  0  0  0  0  0  0  0  0  0  0
  140.0220   74.3230  217.8740 H   0  0  0  0  0  0  0  0  0  0  0  0
  139.8220   75.8700  218.6180 H   0  0  0  0  0  0  0  0  0  0  0  0
  141.2464   75.0698  221.7694 H   0  0  0  0  0  0  0  0  0  0  0  0
  138.5676   74.7751  221.1133 H   0  0  0  0  0  0  0  0  0  0  0  0
  139.3808   75.2741  222.6859 H   0  0  0  0  0  0  0  0  0  0  0  0
  138.3216   77.1181  220.5256 H   0  0  0  0  0  0  0  0  0  0  0  0
  137.6190   76.8584  222.1341 H   0  0  0  0  0  0  0  0  0  0  0  0
  138.1030   78.7392  223.4740 H   0  0  0  0  0  0  0  0  0  0  0  0
  139.8508   80.3299  224.3626 H   0  0  0  0  0  0  0  0  0  0  0  0
  142.7893   78.6083  221.7531 H   0  0  0  0  0  0  0  0  0  0  0  0
  140.6939   77.0808  219.6260 H   0  0  0  0  0  0  0  0  0  0  0  0
  142.2277   76.6802  220.4641 H   0  0  0  0  0  0  0  0  0  0  0  0
  141.3902   72.4194  222.4426 H   0  0  0  0  0  0  0  0  0  0  0  0
  140.2956   73.7955  222.7158 H   0  0  0  0  0  0  0  0  0  0  0  0
  139.9426   72.1981  224.5727 H   0  0  0  0  0  0  0  0  0  0  0  0
  138.5117   72.0756  223.5423 H   0  0  0  0  0  0  0  0  0  0  0  0
  1  2  1  0
  2  3  1  0
  3  4  2  0
  3  5  1  0
  5  6  1  0
  6  7  2  0
  7  8  1  0
  8  9  2  0
  9 10  1  0
 10 11  2  0
  5 12  1  0
 12 13  1  0
 13 14  1  0
 14 15  1  0
 15 16  1  0
 16 17  2  0
 16 18  1  0
 18 19  1  0
 18 20  1  0
 20 21  1  0
 21 22  1  0
 22 23  1  0
 23 24  2  0
 24 25  1  0
 25 26  2  0
 26 27  1  0
 26 28  1  0
 28 29  2  0
 29 30  1  0
 15 31  1  0
 31 32  1  0
 11  6  1  0
 32 12  1  0
 30 20  1  0
 29 23  1  0
  1 33  1  0
  1 34  1  0
  1 35  1  0
  2 36  1  0
  2 37  1  0
  7 38  1  0
  8 39  1  0
  9 40  1  0
 10 41  1  0
 11 42  1  0
 12 43  1  0
 13 44  1  0
 13 45  1  0
 14 46  1  0
 14 47  1  0
 18 48  1  6
 19 49  1  0
 19 50  1  0
 20 51  1  1
 21 52  1  0
 21 53  1  0
 22 54  1  0
 22 55  1  0
 24 56  1  0
 25 57  1  0
 28 58  1  0
 30 59  1  0
 30 60  1  0
 31 61  1  0
 31 62  1  0
 32 63  1  0
 32 64  1  0
M  END
>  <smiles>  (28) 
CCC(=O)N(c1ccccc1)C1CCN(C(=O)[C@@H](N)C2CCc3ccc(Br)cc3C2)CC1

>  <score_type>  (28) 
oracle

>  <origin>  (28) 
autodockgpu

>  <m_score__min__energy>  (28) 
-8.7100000000000009

>  <m_primary>  (28) 
energy

>  <rmsd>  (28) 
6.139825964326187

>  <m_score__min__rmsd>  (28) 
6.139825964326187

>  <meeko>  (28) 
{"free_energy": -8.11, "intermolecular_energy": -10.2, "internal_energy": -2.09, "cluster_size": 10, "cluster_id": 3, "rank_in_cluster": 3}

>  <energy>  (28) 
-8.07

>  <cluster_rmsd>  (28) 
0.0

>  <cluster>  (28) 
4

$$$$

     RDKit          3D

 64 67  0  0  0  0  0  0  0  0999 V2000
  136.9110   70.2550  224.4540 C   0  0  0  0  0  0  0  0  0  0  0  0
  137.1300   68.8690  223.8680 C   0  0  0  0  0  0  0  0  0  0  0  0
  138.5750   68.4880  224.0640 C   0  0  0  0  0  0  0  0  0  0  0  0
  138.8230   67.2560  223.9250 O   0  0  0  0  0  0  0  0  0  0  0  0
  139.5640   69.4360  224.3810 N   0  0  0  0  0  0  0  0  0  0  0  0
  140.0370   69.4610  225.7340 C   0  0  0  0  0  0  0  0  0  0  0  0
  140.2730   70.6390  226.4170 C   0  0  0  0  0  0  0  0  0  0  0  0
  140.7290   70.6580  227.7300 C   0  0  0  0  0  0  0  0  0  0  0  0
  140.9430   69.4650  228.3500 C   0  0  0  0  0  0  0  0  0  0  0  0
  140.7280   68.2610  227.7260 C   0  0  0  0  0  0  0  0  0  0  0  0
  140.2750   68.2660  226.4180 C   0  0  0  0  0  0  0  0  0  0  0  0
  140.0420   70.3280  223.3570 C   0  0  0  0  0  0  0  0  0  0  0  0
  139.5190   70.0650  221.9900 C   0  0  0  0  0  0  0  0  0  0  0  0
  138.9370   71.2740  221.2930 C   0  0  0  0  0  0  0  0  0  0  0  0
  139.8390   72.4120  221.3840 N   0  0  0  0  0  0  0  0  0  0  0  0
  139.9610   73.2340  220.2350 C   0  0  0  0  0  0  0  0  0  0  0  0
  139.2100   72.8780  219.2540 O   0  0  0  0  0  0  0  0  0  0  0  0
  140.8320   74.3950  220.0920 C   0  0  1  0  0  0  0  0  0  0  0  0
  140.7610   74.9390  218.7610 N   0  0  0  0  0  0  0  0  0  0  0  0
  140.7380   75.4380  221.1610 C   0  0  2  0  0  0  0  0  0  0  0  0
  139.3860   75.4830  221.7810 C   0  0  0  0  0  0  0  0  0  0  0  0
  138.6760   76.8130  221.6760 C   0  0  0  0  0  0  0  0  0  0  0  0
  139.6180   77.8390  222.2280 C   0  0  0  0  0  0  0  0  0  0  0  0
  139.1690   78.7440  223.1600 C   0  0  0  0  0  0  0  0  0  0  0  0
  140.1110   79.6700  223.6290 C   0  0  0  0  0  0  0  0  0  0  0  0
  141.4080   79.6620  223.1680 C   0  0  0  0  0  0  0  0  0  0  0  0
  142.5980   80.9690  223.8750 Br  0  0  0  0  0  0  0  0  0  0  0  0
  141.8010   78.7230  222.2250 C   0  0  0  0  0  0  0  0  0  0  0  0
  140.9030   77.7960  221.7420 C   0  0  0  0  0  0  0  0  0  0  0  0
  141.2680   76.7800  220.7270 C   0  0  0  0  0  0  0  0  0  0  0  0
  140.5150   72.6130  222.6380 C   0  0  0  0  0  0  0  0  0  0  0  0
  139.7610   71.7890  223.7000 C   0  0  0  0  0  0  0  0  0  0  0  0
  136.9206   70.1944  225.5523 H   0  0  0  0  0  0  0  0  0  0  0  0
  137.7141   70.9268  224.1168 H   0  0  0  0  0  0  0  0  0  0  0  0
  135.9399   70.6464  224.1168 H   0  0  0  0  0  0  0  0  0  0  0  0
  136.4823   68.1429  224.3811 H   0  0  0  0  0  0  0  0  0  0  0  0
  136.8834   68.8705  222.7960 H   0  0  0  0  0  0  0  0  0  0  0  0
  140.0937   71.5952  225.9036 H   0  0  0  0  0  0  0  0  0  0  0  0
  140.9115   71.6086  228.2525 H   0  0  0  0  0  0  0  0  0  0  0  0
  141.3016   69.4657  229.3899 H   0  0  0  0  0  0  0  0  0  0  0  0
  140.9117   67.3135  228.2538 H   0  0  0  0  0  0  0  0  0  0  0  0
  140.0985   67.3086  225.9060 H   0  0  0  0  0  0  0  0  0  0  0  0
  141.1235   70.1280  223.3362 H   0  0  0  0  0  0  0  0  0  0  0  0
  140.3457   69.6799  221.3750 H   0  0  0  0  0  0  0  0  0  0  0  0
  138.6945   69.3461  222.1057 H   0  0  0  0  0  0  0  0  0  0  0  0
  138.7687   71.0321  220.2332 H   0  0  0  0  0  0  0  0  0  0  0  0
  137.9883   71.5384  221.7829 H   0  0  0  0  0  0  0  0  0  0  0  0
  141.8449   73.9969  220.2521 H   0  0  0  0  0  0  0  0  0  0  0  0
  141.6100   74.7440  218.1830 H   0  0  0  0  0  0  0  0  0  0  0  0
  139.8880   74.6040  218.2490 H   0  0  0  0  0  0  0  0  0  0  0  0
  141.4187   75.1294  221.9681 H   0  0  0  0  0  0  0  0  0  0  0  0
  138.7605   74.7232  221.2897 H   0  0  0  0  0  0  0  0  0  0  0  0
  139.5356   75.2998  222.8553 H   0  0  0  0  0  0  0  0  0  0  0  0
  138.4420   77.0376  220.6249 H   0  0  0  0  0  0  0  0  0  0  0  0
  137.7263   76.8034  222.2310 H   0  0  0  0  0  0  0  0  0  0  0  0
  138.1288   78.7417  223.5178 H   0  0  0  0  0  0  0  0  0  0  0  0
  139.8085   80.4161  224.3785 H   0  0  0  0  0  0  0  0  0  0  0  0
  142.8386   78.7185  221.8598 H   0  0  0  0  0  0  0  0  0  0  0  0
  140.8279   77.0538  219.7568 H   0  0  0  0  0  0  0  0  0  0  0  0
  142.3624   76.7319  220.6272 H   0  0  0  0  0  0  0  0  0  0  0  0
  141.5570   72.2685  222.5638 H   0  0  0  0  0  0  0  0  0  0  0  0
  140.5277   73.6793  222.9080 H   0  0  0  0  0  0  0  0  0  0  0  0
  140.1343   72.0262  224.7072 H   0  0  0  0  0  0  0  0  0  0  0  0
  138.6832   72.0089  223.6980 H   0  0  0  0  0  0  0  0  0  0  0  0
  1  2  1  0
  2  3  1  0
  3  4  2  0
  3  5  1  0
  5  6  1  0
  6  7  2  0
  7  8  1  0
  8  9  2  0
  9 10  1  0
 10 11  2  0
  5 12  1  0
 12 13  1  0
 13 14  1  0
 14 15  1  0
 15 16  1  0
 16 17  2  0
 16 18  1  0
 18 19  1  0
 18 20  1  0
 20 21  1  0
 21 22  1  0
 22 23  1  0
 23 24  2  0
 24 25  1  0
 25 26  2  0
 26 27  1  0
 26 28  1  0
 28 29  2  0
 29 30  1  0
 15 31  1  0
 31 32  1  0
 11  6  1  0
 32 12  1  0
 30 20  1  0
 29 23  1  0
  1 33  1  0
  1 34  1  0
  1 35  1  0
  2 36  1  0
  2 37  1  0
  7 38  1  0
  8 39  1  0
  9 40  1  0
 10 41  1  0
 11 42  1  0
 12 43  1  0
 13 44  1  0
 13 45  1  0
 14 46  1  0
 14 47  1  0
 18 48  1  6
 19 49  1  0
 19 50  1  0
 20 51  1  1
 21 52  1  0
 21 53  1  0
 22 54  1  0
 22 55  1  0
 24 56  1  0
 25 57  1  0
 28 58  1  0
 30 59  1  0
 30 60  1  0
 31 61  1  0
 31 62  1  0
 32 63  1  0
 32 64  1  0
M  END
>  <smiles>  (29) 
CCC(=O)N(c1ccccc1)C1CCN(C(=O)[C@@H](N)C2CCc3ccc(Br)cc3C2)CC1

>  <score_type>  (29) 
oracle

>  <origin>  (29) 
autodockgpu

>  <m_score__min__energy>  (29) 
-8.7100000000000009

>  <m_primary>  (29) 
energy

>  <rmsd>  (29) 
6.18341055506336

>  <m_score__min__rmsd>  (29) 
6.18341055506336

>  <meeko>  (29) 
{"free_energy": -8.08, "intermolecular_energy": -10.17, "internal_energy": -2.16, "cluster_size": 10, "cluster_id": 3, "rank_in_cluster": 7}

>  <energy>  (29) 
-8.05

>  <cluster_rmsd>  (29) 
0.1

>  <cluster>  (29) 
4

$$$$

     RDKit          3D

 64 67  0  0  0  0  0  0  0  0999 V2000
  145.6420   73.0190  221.4910 C   0  0  0  0  0  0  0  0  0  0  0  0
  146.3230   73.5190  220.2260 C   0  0  0  0  0  0  0  0  0  0  0  0
  145.6140   72.9300  219.0350 C   0  0  0  0  0  0  0  0  0  0  0  0
  146.0100   73.3600  217.9130 O   0  0  0  0  0  0  0  0  0  0  0  0
  144.5880   71.9770  219.1680 N   0  0  0  0  0  0  0  0  0  0  0  0
  144.9490   70.6000  219.0010 C   0  0  0  0  0  0  0  0  0  0  0  0
  144.4050   69.5900  219.7730 C   0  0  0  0  0  0  0  0  0  0  0  0
  144.7560   68.2560  219.6060 C   0  0  0  0  0  0  0  0  0  0  0  0
  145.6680   67.9500  218.6420 C   0  0  0  0  0  0  0  0  0  0  0  0
  146.2440   68.9070  217.8430 C   0  0  0  0  0  0  0  0  0  0  0  0
  145.8810   70.2290  218.0280 C   0  0  0  0  0  0  0  0  0  0  0  0
  143.2470   72.4170  219.4480 C   0  0  0  0  0  0  0  0  0  0  0  0
  142.5480   71.6750  220.5310 C   0  0  0  0  0  0  0  0  0  0  0  0
  141.9290   72.5490  221.5990 C   0  0  0  0  0  0  0  0  0  0  0  0
  141.1480   73.6230  221.0040 N   0  0  0  0  0  0  0  0  0  0  0  0
  139.9230   73.9580  221.6340 C   0  0  0  0  0  0  0  0  0  0  0  0
  139.6770   73.2770  222.6970 O   0  0  0  0  0  0  0  0  0  0  0  0
  138.9680   74.9660  221.1880 C   0  0  1  0  0  0  0  0  0  0  0  0
  137.6670   74.7430  221.7620 N   0  0  0  0  0  0  0  0  0  0  0  0
  139.4140   76.3930  221.2730 C   0  0  2  0  0  0  0  0  0  0  0  0
  139.4510   77.0480  219.9380 C   0  0  0  0  0  0  0  0  0  0  0  0
  140.8000   77.5920  219.5290 C   0  0  0  0  0  0  0  0  0  0  0  0
  141.2510   78.4870  220.6430 C   0  0  0  0  0  0  0  0  0  0  0  0
  141.7100   79.7500  220.3590 C   0  0  0  0  0  0  0  0  0  0  0  0
  142.1110   80.5260  221.4550 C   0  0  0  0  0  0  0  0  0  0  0  0
  142.0450   80.0320  222.7380 C   0  0  0  0  0  0  0  0  0  0  0  0
  142.6200   81.1750  224.1480 Br  0  0  0  0  0  0  0  0  0  0  0  0
  141.5730   78.7470  222.9620 C   0  0  0  0  0  0  0  0  0  0  0  0
  141.1680   77.9560  221.9080 C   0  0  0  0  0  0  0  0  0  0  0  0
  140.6670   76.5730  222.0900 C   0  0  0  0  0  0  0  0  0  0  0  0
  141.6960   74.2620  219.8370 C   0  0  0  0  0  0  0  0  0  0  0  0
  143.1940   73.9060  219.7830 C   0  0  0  0  0  0  0  0  0  0  0  0
  146.1730   73.4089  222.3719 H   0  0  0  0  0  0  0  0  0  0  0  0
  144.5987   73.3672  221.5079 H   0  0  0  0  0  0  0  0  0  0  0  0
  145.6618   71.9193  221.5079 H   0  0  0  0  0  0  0  0  0  0  0  0
  146.2682   74.6168  220.1846 H   0  0  0  0  0  0  0  0  0  0  0  0
  147.3802   73.2152  220.2226 H   0  0  0  0  0  0  0  0  0  0  0  0
  143.6683   69.8519  220.5467 H   0  0  0  0  0  0  0  0  0  0  0  0
  144.3104   67.4703  220.2339 H   0  0  0  0  0  0  0  0  0  0  0  0
  145.9538   66.8976  218.4980 H   0  0  0  0  0  0  0  0  0  0  0  0
  146.9781   68.6284  217.0726 H   0  0  0  0  0  0  0  0  0  0  0  0
  146.3360   71.0053  217.3953 H   0  0  0  0  0  0  0  0  0  0  0  0
  142.7143   72.2046  218.5093 H   0  0  0  0  0  0  0  0  0  0  0  0
  141.7479   71.0745  220.0736 H   0  0  0  0  0  0  0  0  0  0  0  0
  143.3134   71.0655  221.0337 H   0  0  0  0  0  0  0  0  0  0  0  0
  141.2720   71.9339  222.2314 H   0  0  0  0  0  0  0  0  0  0  0  0
  142.7359   72.9932  222.2003 H   0  0  0  0  0  0  0  0  0  0  0  0
  138.8983   74.8134  220.1009 H   0  0  0  0  0  0  0  0  0  0  0  0
  137.0250   74.1950  221.1450 H   0  0  0  0  0  0  0  0  0  0  0  0
  137.7380   74.2760  222.7180 H   0  0  0  0  0  0  0  0  0  0  0  0
  138.6436   76.9351  221.8410 H   0  0  0  0  0  0  0  0  0  0  0  0
  139.1398   76.3077  219.1863 H   0  0  0  0  0  0  0  0  0  0  0  0
  138.7775   77.9153  220.0031 H   0  0  0  0  0  0  0  0  0  0  0  0
  141.5158   76.7685  219.3892 H   0  0  0  0  0  0  0  0  0  0  0  0
  140.7369   78.1405  218.5776 H   0  0  0  0  0  0  0  0  0  0  0  0
  141.7601   80.1313  219.3284 H   0  0  0  0  0  0  0  0  0  0  0  0
  142.4847   81.5469  221.2871 H   0  0  0  0  0  0  0  0  0  0  0  0
  141.5214   78.3560  223.9889 H   0  0  0  0  0  0  0  0  0  0  0  0
  141.4317   75.8568  221.7549 H   0  0  0  0  0  0  0  0  0  0  0  0
  140.4461   76.3949  223.1528 H   0  0  0  0  0  0  0  0  0  0  0  0
  141.1886   73.8944  218.9329 H   0  0  0  0  0  0  0  0  0  0  0  0
  141.5555   75.3519  219.8866 H   0  0  0  0  0  0  0  0  0  0  0  0
  143.7011   74.4938  219.0037 H   0  0  0  0  0  0  0  0  0  0  0  0
  143.7013   74.1291  220.7332 H   0  0  0  0  0  0  0  0  0  0  0  0
  1  2  1  0
  2  3  1  0
  3  4  2  0
  3  5  1  0
  5  6  1  0
  6  7  2  0
  7  8  1  0
  8  9  2  0
  9 10  1  0
 10 11  2  0
  5 12  1  0
 12 13  1  0
 13 14  1  0
 14 15  1  0
 15 16  1  0
 16 17  2  0
 16 18  1  0
 18 19  1  0
 18 20  1  0
 20 21  1  0
 21 22  1  0
 22 23  1  0
 23 24  2  0
 24 25  1  0
 25 26  2  0
 26 27  1  0
 26 28  1  0
 28 29  2  0
 29 30  1  0
 15 31  1  0
 31 32  1  0
 11  6  1  0
 32 12  1  0
 30 20  1  0
 29 23  1  0
  1 33  1  0
  1 34  1  0
  1 35  1  0
  2 36  1  0
  2 37  1  0
  7 38  1  0
  8 39  1  0
  9 40  1  0
 10 41  1  0
 11 42  1  0
 12 43  1  0
 13 44  1  0
 13 45  1  0
 14 46  1  0
 14 47  1  0
 18 48  1  6
 19 49  1  0
 19 50  1  0
 20 51  1  1
 21 52  1  0
 21 53  1  0
 22 54  1  0
 22 55  1  0
 24 56  1  0
 25 57  1  0
 28 58  1  0
 30 59  1  0
 30 60  1  0
 31 61  1  0
 31 62  1  0
 32 63  1  0
 32 64  1  0
M  END
>  <smiles>  (30) 
CCC(=O)N(c1ccccc1)C1CCN(C(=O)[C@@H](N)C2CCc3ccc(Br)cc3C2)CC1

>  <score_type>  (30) 
oracle

>  <origin>  (30) 
autodockgpu

>  <m_score__min__energy>  (30) 
-8.7100000000000009

>  <m_primary>  (30) 
energy

>  <rmsd>  (30) 
5.3004855513309845

>  <m_score__min__rmsd>  (30) 
5.3004855513309845

>  <meeko>  (30) 
{"free_energy": -8.22, "intermolecular_energy": -10.31, "internal_energy": -2.23, "cluster_size": 15, "cluster_id": 2, "rank_in_cluster": 2}

>  <energy>  (30) 
-7.94

>  <cluster_rmsd>  (30) 
1.56

>  <cluster>  (30) 
4

$$$$

     RDKit          3D

 64 67  0  0  0  0  0  0  0  0999 V2000
  138.0650   80.4930  223.7790 C   0  0  0  0  0  0  0  0  0  0  0  0
  137.5820   79.2220  223.0970 C   0  0  0  0  0  0  0  0  0  0  0  0
  138.3830   79.0200  221.8370 C   0  0  0  0  0  0  0  0  0  0  0  0
  137.8410   79.4660  220.7850 O   0  0  0  0  0  0  0  0  0  0  0  0
  139.6350   78.3800  221.8380 N   0  0  0  0  0  0  0  0  0  0  0  0
  140.7420   79.1090  222.3850 C   0  0  0  0  0  0  0  0  0  0  0  0
  141.1550   78.9630  223.6960 C   0  0  0  0  0  0  0  0  0  0  0  0
  142.2300   79.6700  224.2210 C   0  0  0  0  0  0  0  0  0  0  0  0
  142.8900   80.5320  223.3990 C   0  0  0  0  0  0  0  0  0  0  0  0
  142.5290   80.7240  222.0880 C   0  0  0  0  0  0  0  0  0  0  0  0
  141.4540   80.0090  221.5870 C   0  0  0  0  0  0  0  0  0  0  0  0
  139.7530   77.0530  221.2930 C   0  0  0  0  0  0  0  0  0  0  0  0
  141.0840   76.7160  220.7220 C   0  0  0  0  0  0  0  0  0  0  0  0
  141.6780   75.4200  221.2260 C   0  0  0  0  0  0  0  0  0  0  0  0
  140.7030   74.3410  221.1600 N   0  0  0  0  0  0  0  0  0  0  0  0
  141.1750   73.0680  220.7510 C   0  0  0  0  0  0  0  0  0  0  0  0
  142.4400   73.0260  220.5240 O   0  0  0  0  0  0  0  0  0  0  0  0
  140.3710   71.8640  220.5760 C   0  0  1  0  0  0  0  0  0  0  0  0
  140.7890   71.1210  219.4170 N   0  0  0  0  0  0  0  0  0  0  0  0
  140.1790   71.0060  221.7880 C   0  0  2  0  0  0  0  0  0  0  0  0
  138.9540   70.1670  221.6920 C   0  0  0  0  0  0  0  0  0  0  0  0
  137.9410   70.3830  222.7920 C   0  0  0  0  0  0  0  0  0  0  0  0
  138.6780   70.2130  224.0850 C   0  0  0  0  0  0  0  0  0  0  0  0
  138.1600   69.3970  225.0620 C   0  0  0  0  0  0  0  0  0  0  0  0
  138.9090   69.2890  226.2410 C   0  0  0  0  0  0  0  0  0  0  0  0
  140.0950   69.9700  226.3970 C   0  0  0  0  0  0  0  0  0  0  0  0
  141.0250   69.7490  228.0420 Br  0  0  0  0  0  0  0  0  0  0  0  0
  140.5670   70.7810  225.3730 C   0  0  0  0  0  0  0  0  0  0  0  0
  139.8560   70.9110  224.1990 C   0  0  0  0  0  0  0  0  0  0  0  0
  140.3090   71.7710  223.0810 C   0  0  0  0  0  0  0  0  0  0  0  0
  139.3500   74.6570  221.5320 C   0  0  0  0  0  0  0  0  0  0  0  0
  139.3910   75.9820  222.3190 C   0  0  0  0  0  0  0  0  0  0  0  0
  138.0163   80.3647  224.8704 H   0  0  0  0  0  0  0  0  0  0  0  0
  139.1036   80.6976  223.4799 H   0  0  0  0  0  0  0  0  0  0  0  0
  137.4245   81.3357  223.4799 H   0  0  0  0  0  0  0  0  0  0  0  0
  137.7252   78.3631  223.7692 H   0  0  0  0  0  0  0  0  0  0  0  0
  136.5128   79.3086  222.8534 H   0  0  0  0  0  0  0  0  0  0  0  0
  140.6130   78.2617  224.3474 H   0  0  0  0  0  0  0  0  0  0  0  0
  142.5384   79.5374  225.2685 H   0  0  0  0  0  0  0  0  0  0  0  0
  143.7449   81.0960  223.8004 H   0  0  0  0  0  0  0  0  0  0  0  0
  143.0813   81.4298  221.4502 H   0  0  0  0  0  0  0  0  0  0  0  0
  141.1540   80.1525  220.5385 H   0  0  0  0  0  0  0  0  0  0  0  0
  139.0339   77.0608  220.4607 H   0  0  0  0  0  0  0  0  0  0  0  0
  140.9796   76.6430  219.6294 H   0  0  0  0  0  0  0  0  0  0  0  0
  141.7695   77.5158  221.0388 H   0  0  0  0  0  0  0  0  0  0  0  0
  142.5480   75.1576  220.6061 H   0  0  0  0  0  0  0  0  0  0  0  0
  141.9804   75.5566  222.2748 H   0  0  0  0  0  0  0  0  0  0  0  0
  139.3527   72.2405  220.3992 H   0  0  0  0  0  0  0  0  0  0  0  0
  141.7310   71.3980  219.0580 H   0  0  0  0  0  0  0  0  0  0  0  0
  140.7650   70.0700  219.5980 H   0  0  0  0  0  0  0  0  0  0  0  0
  141.0177   70.2946  221.8107 H   0  0  0  0  0  0  0  0  0  0  0  0
  138.4654   70.3861  220.7311 H   0  0  0  0  0  0  0  0  0  0  0  0
  139.2894   69.1236  221.7853 H   0  0  0  0  0  0  0  0  0  0  0  0
  137.5177   71.3961  222.7258 H   0  0  0  0  0  0  0  0  0  0  0  0
  137.1070   69.6703  222.7117 H   0  0  0  0  0  0  0  0  0  0  0  0
  137.2104   68.8588  224.9259 H   0  0  0  0  0  0  0  0  0  0  0  0
  138.5427   68.6484  227.0568 H   0  0  0  0  0  0  0  0  0  0  0  0
  141.5154   71.3237  225.4997 H   0  0  0  0  0  0  0  0  0  0  0  0
  139.6868   72.6771  223.0374 H   0  0  0  0  0  0  0  0  0  0  0  0
  141.3587   72.0605  223.2371 H   0  0  0  0  0  0  0  0  0  0  0  0
  138.7288   74.7726  220.6316 H   0  0  0  0  0  0  0  0  0  0  0  0
  138.9154   73.8528  222.1439 H   0  0  0  0  0  0  0  0  0  0  0  0
  138.4088   76.1942  222.7664 H   0  0  0  0  0  0  0  0  0  0  0  0
  140.1171   75.9448  223.1445 H   0  0  0  0  0  0  0  0  0  0  0  0
  1  2  1  0
  2  3  1  0
  3  4  2  0
  3  5  1  0
  5  6  1  0
  6  7  2  0
  7  8  1  0
  8  9  2  0
  9 10  1  0
 10 11  2  0
  5 12  1  0
 12 13  1  0
 13 14  1  0
 14 15  1  0
 15 16  1  0
 16 17  2  0
 16 18  1  0
 18 19  1  0
 18 20  1  0
 20 21  1  0
 21 22  1  0
 22 23  1  0
 23 24  2  0
 24 25  1  0
 25 26  2  0
 26 27  1  0
 26 28  1  0
 28 29  2  0
 29 30  1  0
 15 31  1  0
 31 32  1  0
 11  6  1  0
 32 12  1  0
 30 20  1  0
 29 23  1  0
  1 33  1  0
  1 34  1  0
  1 35  1  0
  2 36  1  0
  2 37  1  0
  7 38  1  0
  8 39  1  0
  9 40  1  0
 10 41  1  0
 11 42  1  0
 12 43  1  0
 13 44  1  0
 13 45  1  0
 14 46  1  0
 14 47  1  0
 18 48  1  6
 19 49  1  0
 19 50  1  0
 20 51  1  1
 21 52  1  0
 21 53  1  0
 22 54  1  0
 22 55  1  0
 24 56  1  0
 25 57  1  0
 28 58  1  0
 30 59  1  0
 30 60  1  0
 31 61  1  0
 31 62  1  0
 32 63  1  0
 32 64  1  0
M  END
>  <smiles>  (31) 
CCC(=O)N(c1ccccc1)C1CCN(C(=O)[C@@H](N)C2CCc3ccc(Br)cc3C2)CC1

>  <score_type>  (31) 
oracle

>  <origin>  (31) 
autodockgpu

>  <m_score__min__energy>  (31) 
-8.7100000000000009

>  <m_primary>  (31) 
energy

>  <rmsd>  (31) 
7.957816652912827

>  <m_score__min__rmsd>  (31) 
7.957816652912827

>  <meeko>  (31) 
{"free_energy": -7.53, "intermolecular_energy": -9.62, "internal_energy": -2.28, "cluster_size": 14, "cluster_id": 5, "rank_in_cluster": 13}

>  <energy>  (31) 
-7.92

>  <cluster_rmsd>  (31) 
1.55

>  <cluster>  (31) 
4

$$$$

     RDKit          3D

 64 67  0  0  0  0  0  0  0  0999 V2000
  145.9440   74.1430  220.9470 C   0  0  0  0  0  0  0  0  0  0  0  0
  146.2630   72.7120  220.5420 C   0  0  0  0  0  0  0  0  0  0  0  0
  145.5400   72.4040  219.2570 C   0  0  0  0  0  0  0  0  0  0  0  0
  145.9770   73.0160  218.2410 O   0  0  0  0  0  0  0  0  0  0  0  0
  144.4590   71.5060  219.2010 N   0  0  0  0  0  0  0  0  0  0  0  0
  144.7550   70.1470  218.8550 C   0  0  0  0  0  0  0  0  0  0  0  0
  144.4820   69.0880  219.7010 C   0  0  0  0  0  0  0  0  0  0  0  0
  144.7680   67.7710  219.3600 C   0  0  0  0  0  0  0  0  0  0  0  0
  145.3360   67.5350  218.1450 C   0  0  0  0  0  0  0  0  0  0  0  0
  145.6320   68.5430  217.2610 C   0  0  0  0  0  0  0  0  0  0  0  0
  145.3400   69.8460  217.6220 C   0  0  0  0  0  0  0  0  0  0  0  0
  143.1290   71.9830  219.4770 C   0  0  0  0  0  0  0  0  0  0  0  0
  142.4320   71.3050  220.6020 C   0  0  0  0  0  0  0  0  0  0  0  0
  141.8420   72.2390  221.6350 C   0  0  0  0  0  0  0  0  0  0  0  0
  141.0720   73.2980  220.9990 N   0  0  0  0  0  0  0  0  0  0  0  0
  139.8610   73.6840  221.6270 C   0  0  0  0  0  0  0  0  0  0  0  0
  139.6170   73.0580  222.7240 O   0  0  0  0  0  0  0  0  0  0  0  0
  138.9180   74.6860  221.1450 C   0  0  1  0  0  0  0  0  0  0  0  0
  137.6230   74.5180  221.7510 N   0  0  0  0  0  0  0  0  0  0  0  0
  139.3910   76.1070  221.1500 C   0  0  2  0  0  0  0  0  0  0  0  0
  139.5240   76.6570  219.7740 C   0  0  0  0  0  0  0  0  0  0  0  0
  140.9080   77.1420  219.4090 C   0  0  0  0  0  0  0  0  0  0  0  0
  141.3130   78.1100  220.4780 C   0  0  0  0  0  0  0  0  0  0  0  0
  141.8180   79.3390  220.1280 C   0  0  0  0  0  0  0  0  0  0  0  0
  142.1710   80.1880  221.1860 C   0  0  0  0  0  0  0  0  0  0  0  0
  142.0170   79.7960  222.4960 C   0  0  0  0  0  0  0  0  0  0  0  0
  142.5330   81.0320  223.8490 Br  0  0  0  0  0  0  0  0  0  0  0  0
  141.5010   78.5410  222.7870 C   0  0  0  0  0  0  0  0  0  0  0  0
  141.1420   77.6790  221.7720 C   0  0  0  0  0  0  0  0  0  0  0  0
  140.5980   76.3250  222.0270 C   0  0  0  0  0  0  0  0  0  0  0  0
  141.6150   73.8710  219.7960 C   0  0  0  0  0  0  0  0  0  0  0  0
  143.1060   73.4860  219.7410 C   0  0  0  0  0  0  0  0  0  0  0  0
  145.9272   74.2184  222.0443 H   0  0  0  0  0  0  0  0  0  0  0  0
  146.7137   74.8181  220.5448 H   0  0  0  0  0  0  0  0  0  0  0  0
  144.9604   74.4273  220.5448 H   0  0  0  0  0  0  0  0  0  0  0  0
  147.3473   72.6020  220.3928 H   0  0  0  0  0  0  0  0  0  0  0  0
  145.9398   72.0171  221.3311 H   0  0  0  0  0  0  0  0  0  0  0  0
  144.0222   69.2949  220.6786 H   0  0  0  0  0  0  0  0  0  0  0  0
  144.5424   66.9449  220.0504 H   0  0  0  0  0  0  0  0  0  0  0  0
  145.5664   66.4975  217.8611 H   0  0  0  0  0  0  0  0  0  0  0  0
  146.0914   68.3193  216.2869 H   0  0  0  0  0  0  0  0  0  0  0  0
  145.5733   70.6630  216.9234 H   0  0  0  0  0  0  0  0  0  0  0  0
  142.5799   71.7365  218.5563 H   0  0  0  0  0  0  0  0  0  0  0  0
  141.6159   70.6978  220.1833 H   0  0  0  0  0  0  0  0  0  0  0  0
  143.1934   70.7063  221.1234 H   0  0  0  0  0  0  0  0  0  0  0  0
  141.1825   71.6661  222.3035 H   0  0  0  0  0  0  0  0  0  0  0  0
  142.6640   72.6964  222.2052 H   0  0  0  0  0  0  0  0  0  0  0  0
  138.8280   74.4794  220.0683 H   0  0  0  0  0  0  0  0  0  0  0  0
  136.9580   73.9580  221.1700 H   0  0  0  0  0  0  0  0  0  0  0  0
  137.7010   74.0940  222.7260 H   0  0  0  0  0  0  0  0  0  0  0  0
  138.6007   76.7052  221.6271 H   0  0  0  0  0  0  0  0  0  0  0  0
  139.2409   75.8674  219.0625 H   0  0  0  0  0  0  0  0  0  0  0  0
  138.8689   77.5396  219.7320 H   0  0  0  0  0  0  0  0  0  0  0  0
  141.6108   76.2964  219.3754 H   0  0  0  0  0  0  0  0  0  0  0  0
  140.9150   77.6176  218.4172 H   0  0  0  0  0  0  0  0  0  0  0  0
  141.9385   79.6397  219.0768 H   0  0  0  0  0  0  0  0  0  0  0  0
  142.5785   81.1856  220.9651 H   0  0  0  0  0  0  0  0  0  0  0  0
  141.3774   78.2314  223.8353 H   0  0  0  0  0  0  0  0  0  0  0  0
  141.3637   75.5702  221.7946 H   0  0  0  0  0  0  0  0  0  0  0  0
  140.3099   76.2337  223.0847 H   0  0  0  0  0  0  0  0  0  0  0  0
  141.0894   73.4699  218.9169 H   0  0  0  0  0  0  0  0  0  0  0  0
  141.4936   74.9643  219.7948 H   0  0  0  0  0  0  0  0  0  0  0  0
  143.6131   74.0269  218.9284 H   0  0  0  0  0  0  0  0  0  0  0  0
  143.6292   73.7448  220.6733 H   0  0  0  0  0  0  0  0  0  0  0  0
  1  2  1  0
  2  3  1  0
  3  4  2  0
  3  5  1  0
  5  6  1  0
  6  7  2  0
  7  8  1  0
  8  9  2  0
  9 10  1  0
 10 11  2  0
  5 12  1  0
 12 13  1  0
 13 14  1  0
 14 15  1  0
 15 16  1  0
 16 17  2  0
 16 18  1  0
 18 19  1  0
 18 20  1  0
 20 21  1  0
 21 22  1  0
 22 23  1  0
 23 24  2  0
 24 25  1  0
 25 26  2  0
 26 27  1  0
 26 28  1  0
 28 29  2  0
 29 30  1  0
 15 31  1  0
 31 32  1  0
 11  6  1  0
 32 12  1  0
 30 20  1  0
 29 23  1  0
  1 33  1  0
  1 34  1  0
  1 35  1  0
  2 36  1  0
  2 37  1  0
  7 38  1  0
  8 39  1  0
  9 40  1  0
 10 41  1  0
 11 42  1  0
 12 43  1  0
 13 44  1  0
 13 45  1  0
 14 46  1  0
 14 47  1  0
 18 48  1  6
 19 49  1  0
 19 50  1  0
 20 51  1  1
 21 52  1  0
 21 53  1  0
 22 54  1  0
 22 55  1  0
 24 56  1  0
 25 57  1  0
 28 58  1  0
 30 59  1  0
 30 60  1  0
 31 61  1  0
 31 62  1  0
 32 63  1  0
 32 64  1  0
M  END
>  <smiles>  (32) 
CCC(=O)N(c1ccccc1)C1CCN(C(=O)[C@@H](N)C2CCc3ccc(Br)cc3C2)CC1

>  <score_type>  (32) 
oracle

>  <origin>  (32) 
autodockgpu

>  <m_score__min__energy>  (32) 
-8.7100000000000009

>  <m_primary>  (32) 
energy

>  <rmsd>  (32) 
5.516902664086334

>  <m_score__min__rmsd>  (32) 
5.516902664086334

>  <meeko>  (32) 
{"free_energy": -8.13, "intermolecular_energy": -10.22, "internal_energy": -2.48, "cluster_size": 15, "cluster_id": 2, "rank_in_cluster": 4}

>  <energy>  (32) 
-7.91

>  <cluster_rmsd>  (32) 
1.62

>  <cluster>  (32) 
4

$$$$

     RDKit          3D

 64 67  0  0  0  0  0  0  0  0999 V2000
  136.4050   80.3130  223.9080 C   0  0  0  0  0  0  0  0  0  0  0  0
  137.8880   80.1600  223.6020 C   0  0  0  0  0  0  0  0  0  0  0  0
  138.0800   78.9180  222.7710 C   0  0  0  0  0  0  0  0  0  0  0  0
  137.0110   78.3270  222.4430 O   0  0  0  0  0  0  0  0  0  0  0  0
  139.3540   78.4570  222.3950 N   0  0  0  0  0  0  0  0  0  0  0  0
  140.4690   79.3110  222.6790 C   0  0  0  0  0  0  0  0  0  0  0  0
  140.7630   80.4280  221.9200 C   0  0  0  0  0  0  0  0  0  0  0  0
  141.8450   81.2550  222.2010 C   0  0  0  0  0  0  0  0  0  0  0  0
  142.6310   80.9390  223.2670 C   0  0  0  0  0  0  0  0  0  0  0  0
  142.3930   79.8430  224.0590 C   0  0  0  0  0  0  0  0  0  0  0  0
  141.3110   79.0330  223.7600 C   0  0  0  0  0  0  0  0  0  0  0  0
  139.4800   77.1790  221.7440 C   0  0  0  0  0  0  0  0  0  0  0  0
  140.7830   76.9340  221.0710 C   0  0  0  0  0  0  0  0  0  0  0  0
  141.4490   75.6270  221.4390 C   0  0  0  0  0  0  0  0  0  0  0  0
  140.5080   74.5210  221.3500 N   0  0  0  0  0  0  0  0  0  0  0  0
  140.9940   73.3000  220.8180 C   0  0  0  0  0  0  0  0  0  0  0  0
  142.2430   73.3210  220.5130 O   0  0  0  0  0  0  0  0  0  0  0  0
  140.2200   72.0830  220.6010 C   0  0  1  0  0  0  0  0  0  0  0  0
  140.6430   71.4010  219.4060 N   0  0  0  0  0  0  0  0  0  0  0  0
  140.0660   71.1690  221.7770 C   0  0  2  0  0  0  0  0  0  0  0  0
  138.8720   70.2900  221.6510 C   0  0  0  0  0  0  0  0  0  0  0  0
  137.8580   70.4230  222.7630 C   0  0  0  0  0  0  0  0  0  0  0  0
  138.6070   70.2270  224.0450 C   0  0  0  0  0  0  0  0  0  0  0  0
  138.1250   69.3530  224.9890 C   0  0  0  0  0  0  0  0  0  0  0  0
  138.8840   69.2240  226.1600 C   0  0  0  0  0  0  0  0  0  0  0  0
  140.0450   69.9420  226.3390 C   0  0  0  0  0  0  0  0  0  0  0  0
  140.9910   69.6870  227.9710 Br  0  0  0  0  0  0  0  0  0  0  0  0
  140.4810   70.8100  225.3480 C   0  0  0  0  0  0  0  0  0  0  0  0
  139.7600   70.9620  224.1830 C   0  0  0  0  0  0  0  0  0  0  0  0
  140.1750   71.8840  223.0990 C   0  0  0  0  0  0  0  0  0  0  0  0
  139.1700   74.7590  221.8250 C   0  0  0  0  0  0  0  0  0  0  0  0
  139.2180   76.0220  222.7060 C   0  0  0  0  0  0  0  0  0  0  0  0
  136.2551   80.3285  224.9976 H   0  0  0  0  0  0  0  0  0  0  0  0
  136.0362   81.2540  223.4738 H   0  0  0  0  0  0  0  0  0  0  0  0
  135.8518   79.4672  223.4738 H   0  0  0  0  0  0  0  0  0  0  0  0
  138.2441   81.0384  223.0438 H   0  0  0  0  0  0  0  0  0  0  0  0
  138.4592   80.0784  224.5385 H   0  0  0  0  0  0  0  0  0  0  0  0
  140.1180   80.6715  221.0629 H   0  0  0  0  0  0  0  0  0  0  0  0
  142.0595   82.1378  221.5808 H   0  0  0  0  0  0  0  0  0  0  0  0
  143.4888   81.5861  223.5025 H   0  0  0  0  0  0  0  0  0  0  0  0
  143.0479   79.6136  224.9125 H   0  0  0  0  0  0  0  0  0  0  0  0
  141.1093   78.1516  224.3864 H   0  0  0  0  0  0  0  0  0  0  0  0
  138.7103   77.2222  220.9593 H   0  0  0  0  0  0  0  0  0  0  0  0
  140.6133   76.9379  219.9842 H   0  0  0  0  0  0  0  0  0  0  0  0
  141.4607   77.7330  221.4063 H   0  0  0  0  0  0  0  0  0  0  0  0
  142.2867   75.4433  220.7501 H   0  0  0  0  0  0  0  0  0  0  0  0
  141.8115   75.6971  222.4752 H   0  0  0  0  0  0  0  0  0  0  0  0
  139.1900   72.4395  220.4526 H   0  0  0  0  0  0  0  0  0  0  0  0
  139.9570   71.4680  218.6200 H   0  0  0  0  0  0  0  0  0  0  0  0
  141.6010   71.7420  219.0820 H   0  0  0  0  0  0  0  0  0  0  0  0
  140.9300   70.4883  221.7670 H   0  0  0  0  0  0  0  0  0  0  0  0
  138.3705   70.5304  220.7020 H   0  0  0  0  0  0  0  0  0  0  0  0
  139.2459   69.2566  221.6994 H   0  0  0  0  0  0  0  0  0  0  0  0
  137.3976   71.4218  222.7404 H   0  0  0  0  0  0  0  0  0  0  0  0
  137.0504   69.6838  222.6563 H   0  0  0  0  0  0  0  0  0  0  0  0
  137.1951   68.7860  224.8343 H   0  0  0  0  0  0  0  0  0  0  0  0
  138.5462   68.5371  226.9500 H   0  0  0  0  0  0  0  0  0  0  0  0
  141.4096   71.3815  225.4933 H   0  0  0  0  0  0  0  0  0  0  0  0
  139.5196   72.7675  223.0954 H   0  0  0  0  0  0  0  0  0  0  0  0
  141.2142   72.2055  223.2626 H   0  0  0  0  0  0  0  0  0  0  0  0
  138.4908   74.9182  220.9745 H   0  0  0  0  0  0  0  0  0  0  0  0
  138.7997   73.8964  222.3984 H   0  0  0  0  0  0  0  0  0  0  0  0
  138.2597   76.1643  223.2269 H   0  0  0  0  0  0  0  0  0  0  0  0
  139.9956   75.9506  223.4807 H   0  0  0  0  0  0  0  0  0  0  0  0
  1  2  1  0
  2  3  1  0
  3  4  2  0
  3  5  1  0
  5  6  1  0
  6  7  2  0
  7  8  1  0
  8  9  2  0
  9 10  1  0
 10 11  2  0
  5 12  1  0
 12 13  1  0
 13 14  1  0
 14 15  1  0
 15 16  1  0
 16 17  2  0
 16 18  1  0
 18 19  1  0
 18 20  1  0
 20 21  1  0
 21 22  1  0
 22 23  1  0
 23 24  2  0
 24 25  1  0
 25 26  2  0
 26 27  1  0
 26 28  1  0
 28 29  2  0
 29 30  1  0
 15 31  1  0
 31 32  1  0
 11  6  1  0
 32 12  1  0
 30 20  1  0
 29 23  1  0
  1 33  1  0
  1 34  1  0
  1 35  1  0
  2 36  1  0
  2 37  1  0
  7 38  1  0
  8 39  1  0
  9 40  1  0
 10 41  1  0
 11 42  1  0
 12 43  1  0
 13 44  1  0
 13 45  1  0
 14 46  1  0
 14 47  1  0
 18 48  1  6
 19 49  1  0
 19 50  1  0
 20 51  1  1
 21 52  1  0
 21 53  1  0
 22 54  1  0
 22 55  1  0
 24 56  1  0
 25 57  1  0
 28 58  1  0
 30 59  1  0
 30 60  1  0
 31 61  1  0
 31 62  1  0
 32 63  1  0
 32 64  1  0
M  END
>  <smiles>  (33) 
CCC(=O)N(c1ccccc1)C1CCN(C(=O)[C@@H](N)C2CCc3ccc(Br)cc3C2)CC1

>  <score_type>  (33) 
oracle

>  <origin>  (33) 
autodockgpu

>  <m_score__min__energy>  (33) 
-8.7100000000000009

>  <m_primary>  (33) 
energy

>  <rmsd>  (33) 
7.941354596115689

>  <m_score__min__rmsd>  (33) 
7.941354596115689

>  <meeko>  (33) 
{"free_energy": -7.69, "intermolecular_energy": -9.78, "internal_energy": -2.3, "cluster_size": 14, "cluster_id": 5, "rank_in_cluster": 6}

>  <energy>  (33) 
-7.65

>  <cluster_rmsd>  (33) 
1.29

>  <cluster>  (33) 
4

$$$$

     RDKit          3D

 64 67  0  0  0  0  0  0  0  0999 V2000
  145.8340   73.0620  221.5850 C   0  0  0  0  0  0  0  0  0  0  0  0
  146.3290   73.7490  220.3220 C   0  0  0  0  0  0  0  0  0  0  0  0
  145.6520   73.1140  219.1350 C   0  0  0  0  0  0  0  0  0  0  0  0
  145.9360   71.8960  218.9480 O   0  0  0  0  0  0  0  0  0  0  0  0
  144.7740   73.8290  218.3010 N   0  0  0  0  0  0  0  0  0  0  0  0
  145.2290   74.1290  216.9750 C   0  0  0  0  0  0  0  0  0  0  0  0
  146.4410   73.6790  216.4850 C   0  0  0  0  0  0  0  0  0  0  0  0
  146.8780   73.9700  215.1980 C   0  0  0  0  0  0  0  0  0  0  0  0
  146.0680   74.7250  214.4040 C   0  0  0  0  0  0  0  0  0  0  0  0
  144.8540   75.2020  214.8310 C   0  0  0  0  0  0  0  0  0  0  0  0
  144.4410   74.9010  216.1180 C   0  0  0  0  0  0  0  0  0  0  0  0
  143.4880   74.2310  218.8070 C   0  0  0  0  0  0  0  0  0  0  0  0
  142.7270   73.1720  219.5210 C   0  0  0  0  0  0  0  0  0  0  0  0
  142.2130   73.5750  220.8850 C   0  0  0  0  0  0  0  0  0  0  0  0
  141.5400   74.8640  220.8280 N   0  0  0  0  0  0  0  0  0  0  0  0
  140.3630   75.0150  221.6030 C   0  0  0  0  0  0  0  0  0  0  0  0
  140.0590   73.9790  222.3010 O   0  0  0  0  0  0  0  0  0  0  0  0
  139.5130   76.1990  221.6620 C   0  0  1  0  0  0  0  0  0  0  0  0
  138.5460   76.0940  222.7240 N   0  0  0  0  0  0  0  0  0  0  0  0
  140.2090   77.5240  221.6270 C   0  0  2  0  0  0  0  0  0  0  0  0
  141.3340   77.5910  222.5980 C   0  0  0  0  0  0  0  0  0  0  0  0
  141.2250   78.6890  223.6300 C   0  0  0  0  0  0  0  0  0  0  0  0
  141.0170   79.9640  222.8720 C   0  0  0  0  0  0  0  0  0  0  0  0
  141.7890   81.0630  223.1640 C   0  0  0  0  0  0  0  0  0  0  0  0
  141.5350   82.2160  222.4090 C   0  0  0  0  0  0  0  0  0  0  0  0
  140.5620   82.2310  221.4350 C   0  0  0  0  0  0  0  0  0  0  0  0
  140.3050   83.8550  220.4760 Br  0  0  0  0  0  0  0  0  0  0  0  0
  139.8140   81.0880  221.1870 C   0  0  0  0  0  0  0  0  0  0  0  0
  140.0370   79.9350  221.9100 C   0  0  0  0  0  0  0  0  0  0  0  0
  139.2590   78.6920  221.6930 C   0  0  0  0  0  0  0  0  0  0  0  0
  142.1400   75.8790  220.0020 C   0  0  0  0  0  0  0  0  0  0  0  0
  143.5930   75.4440  219.7280 C   0  0  0  0  0  0  0  0  0  0  0  0
  146.2182   73.5952  222.4671 H   0  0  0  0  0  0  0  0  0  0  0  0
  144.7342   73.0719  221.6008 H   0  0  0  0  0  0  0  0  0  0  0  0
  146.1916   72.0218  221.6008 H   0  0  0  0  0  0  0  0  0  0  0  0
  146.0816   74.8201  220.3610 H   0  0  0  0  0  0  0  0  0  0  0  0
  147.4202   73.6393  220.2365 H   0  0  0  0  0  0  0  0  0  0  0  0
  147.0827   73.0685  217.1373 H   0  0  0  0  0  0  0  0  0  0  0  0
  147.8478   73.6021  214.8318 H   0  0  0  0  0  0  0  0  0  0  0  0
  146.3996   74.9611  213.3821 H   0  0  0  0  0  0  0  0  0  0  0  0
  144.2232   75.8098  214.1657 H   0  0  0  0  0  0  0  0  0  0  0  0
  143.4708   75.2782  216.4734 H   0  0  0  0  0  0  0  0  0  0  0  0
  142.9261   74.4768  217.8939 H   0  0  0  0  0  0  0  0  0  0  0  0
  141.8644   72.8911  218.8988 H   0  0  0  0  0  0  0  0  0  0  0  0
  143.4295   72.3418  219.6861 H   0  0  0  0  0  0  0  0  0  0  0  0
  141.5032   72.8139  221.2414 H   0  0  0  0  0  0  0  0  0  0  0  0
  143.0681   73.6558  221.5722 H   0  0  0  0  0  0  0  0  0  0  0  0
  138.9767   76.1983  220.7016 H   0  0  0  0  0  0  0  0  0  0  0  0
  137.5580   76.0440  222.3870 H   0  0  0  0  0  0  0  0  0  0  0  0
  138.7550   75.2640  223.3600 H   0  0  0  0  0  0  0  0  0  0  0  0
  140.6761   77.6135  220.6351 H   0  0  0  0  0  0  0  0  0  0  0  0
  141.3842   76.6286  223.1283 H   0  0  0  0  0  0  0  0  0  0  0  0
  142.2353   77.8134  222.0079 H   0  0  0  0  0  0  0  0  0  0  0  0
  140.3715   78.5000  224.2977 H   0  0  0  0  0  0  0  0  0  0  0  0
  142.1290   78.7398  224.2546 H   0  0  0  0  0  0  0  0  0  0  0  0
  142.5623   81.0389  223.9459 H   0  0  0  0  0  0  0  0  0  0  0  0
  142.1238   83.1257  222.5980 H   0  0  0  0  0  0  0  0  0  0  0  0
  139.0376   81.1021  220.4079 H   0  0  0  0  0  0  0  0  0  0  0  0
  138.5545   78.5478  222.5254 H   0  0  0  0  0  0  0  0  0  0  0  0
  138.6950   78.7661  220.7515 H   0  0  0  0  0  0  0  0  0  0  0  0
  141.5884   75.9685  219.0545 H   0  0  0  0  0  0  0  0  0  0  0  0
  142.1135   76.8572  220.5045 H   0  0  0  0  0  0  0  0  0  0  0  0
  144.1505   76.2541  219.2350 H   0  0  0  0  0  0  0  0  0  0  0  0
  144.1302   75.2055  220.6578 H   0  0  0  0  0  0  0  0  0  0  0  0
  1  2  1  0
  2  3  1  0
  3  4  2  0
  3  5  1  0
  5  6  1  0
  6  7  2  0
  7  8  1  0
  8  9  2  0
  9 10  1  0
 10 11  2  0
  5 12  1  0
 12 13  1  0
 13 14  1  0
 14 15  1  0
 15 16  1  0
 16 17  2  0
 16 18  1  0
 18 19  1  0
 18 20  1  0
 20 21  1  0
 21 22  1  0
 22 23  1  0
 23 24  2  0
 24 25  1  0
 25 26  2  0
 26 27  1  0
 26 28  1  0
 28 29  2  0
 29 30  1  0
 15 31  1  0
 31 32  1  0
 11  6  1  0
 32 12  1  0
 30 20  1  0
 29 23  1  0
  1 33  1  0
  1 34  1  0
  1 35  1  0
  2 36  1  0
  2 37  1  0
  7 38  1  0
  8 39  1  0
  9 40  1  0
 10 41  1  0
 11 42  1  0
 12 43  1  0
 13 44  1  0
 13 45  1  0
 14 46  1  0
 14 47  1  0
 18 48  1  6
 19 49  1  0
 19 50  1  0
 20 51  1  6
 21 52  1  0
 21 53  1  0
 22 54  1  0
 22 55  1  0
 24 56  1  0
 25 57  1  0
 28 58  1  0
 30 59  1  0
 30 60  1  0
 31 61  1  0
 31 62  1  0
 32 63  1  0
 32 64  1  0
M  END
>  <smiles>  (34) 
CCC(=O)N(c1ccccc1)C1CCN(C(=O)[C@@H](N)C2CCc3ccc(Br)cc3C2)CC1

>  <score_type>  (34) 
oracle

>  <origin>  (34) 
autodockgpu

>  <m_score__min__energy>  (34) 
-8.7100000000000009

>  <m_primary>  (34) 
energy

>  <rmsd>  (34) 
3.8625298698671537

>  <m_score__min__rmsd>  (34) 
3.8625298698671537

>  <meeko>  (34) 
{"free_energy": -7.92, "intermolecular_energy": -10.01, "internal_energy": -2.21, "cluster_size": 6, "cluster_id": 4, "rank_in_cluster": 4}

>  <energy>  (34) 
-7.81

>  <cluster_rmsd>  (34) 
0.0

>  <cluster>  (34) 
5

$$$$

     RDKit          3D

 64 67  0  0  0  0  0  0  0  0999 V2000
  138.1110   80.5550  223.8490 C   0  0  0  0  0  0  0  0  0  0  0  0
  137.6120   79.3360  223.0890 C   0  0  0  0  0  0  0  0  0  0  0  0
  138.4260   79.1890  221.8290 C   0  0  0  0  0  0  0  0  0  0  0  0
  137.8990   79.6900  220.7950 O   0  0  0  0  0  0  0  0  0  0  0  0
  139.6730   78.5410  221.8130 N   0  0  0  0  0  0  0  0  0  0  0  0
  140.7870   79.2510  222.3690 C   0  0  0  0  0  0  0  0  0  0  0  0
  141.2170   79.0610  223.6690 C   0  0  0  0  0  0  0  0  0  0  0  0
  142.3000   79.7500  224.2030 C   0  0  0  0  0  0  0  0  0  0  0  0
  142.9490   80.6390  223.4020 C   0  0  0  0  0  0  0  0  0  0  0  0
  142.5710   80.8740  222.1030 C   0  0  0  0  0  0  0  0  0  0  0  0
  141.4900   80.1770  221.5930 C   0  0  0  0  0  0  0  0  0  0  0  0
  139.7780   77.2240  221.2410 C   0  0  0  0  0  0  0  0  0  0  0  0
  141.0140   76.9710  220.4520 C   0  0  0  0  0  0  0  0  0  0  0  0
  141.7620   75.7140  220.8350 C   0  0  0  0  0  0  0  0  0  0  0  0
  140.8580   74.5760  220.9210 N   0  0  0  0  0  0  0  0  0  0  0  0
  141.3320   73.3360  220.4250 C   0  0  0  0  0  0  0  0  0  0  0  0
  142.5410   73.3730  219.9890 O   0  0  0  0  0  0  0  0  0  0  0  0
  140.5850   72.0840  220.3740 C   0  0  1  0  0  0  0  0  0  0  0  0
  140.9700   71.2930  219.2340 N   0  0  0  0  0  0  0  0  0  0  0  0
  140.5170   71.2940  221.6430 C   0  0  2  0  0  0  0  0  0  0  0  0
  139.5910   70.1340  221.5320 C   0  0  0  0  0  0  0  0  0  0  0  0
  138.4510   70.1280  222.5240 C   0  0  0  0  0  0  0  0  0  0  0  0
  139.0700   70.2660  223.8810 C   0  0  0  0  0  0  0  0  0  0  0  0
  138.7030   69.4050  224.8870 C   0  0  0  0  0  0  0  0  0  0  0  0
  139.3280   69.5980  226.1270 C   0  0  0  0  0  0  0  0  0  0  0  0
  140.2550   70.5990  226.3080 C   0  0  0  0  0  0  0  0  0  0  0  0
  141.0370   70.7680  228.0360 Br  0  0  0  0  0  0  0  0  0  0  0  0
  140.5840   71.4380  225.2530 C   0  0  0  0  0  0  0  0  0  0  0  0
  139.9900   71.2770  224.0190 C   0  0  0  0  0  0  0  0  0  0  0  0
  140.2970   72.1510  222.8630 C   0  0  0  0  0  0  0  0  0  0  0  0
  139.5690   74.8080  221.5170 C   0  0  0  0  0  0  0  0  0  0  0  0
  139.6600   76.1320  222.3010 C   0  0  0  0  0  0  0  0  0  0  0  0
  138.0350   80.3692  224.9305 H   0  0  0  0  0  0  0  0  0  0  0  0
  139.1607   80.7485  223.5831 H   0  0  0  0  0  0  0  0  0  0  0  0
  137.4983   81.4290  223.5831 H   0  0  0  0  0  0  0  0  0  0  0  0
  137.7284   78.4372  223.7125 H   0  0  0  0  0  0  0  0  0  0  0  0
  136.5483   79.4594  222.8372 H   0  0  0  0  0  0  0  0  0  0  0  0
  140.6830   78.3386  224.3038 H   0  0  0  0  0  0  0  0  0  0  0  0
  142.6226   79.5819  225.2411 H   0  0  0  0  0  0  0  0  0  0  0  0
  143.8088   81.1900  223.8108 H   0  0  0  0  0  0  0  0  0  0  0  0
  143.1155   81.6002  221.4816 H   0  0  0  0  0  0  0  0  0  0  0  0
  141.1769   80.3556  220.5537 H   0  0  0  0  0  0  0  0  0  0  0  0
  138.9301   77.1874  220.5412 H   0  0  0  0  0  0  0  0  0  0  0  0
  140.7334   76.8929  219.3913 H   0  0  0  0  0  0  0  0  0  0  0  0
  141.6925   77.8116  220.6595 H   0  0  0  0  0  0  0  0  0  0  0  0
  142.5303   75.5068  220.0755 H   0  0  0  0  0  0  0  0  0  0  0  0
  142.2265   75.8684  221.8201 H   0  0  0  0  0  0  0  0  0  0  0  0
  139.5384   72.3963  220.2437 H   0  0  0  0  0  0  0  0  0  0  0  0
  141.8330   71.6390  218.7560 H   0  0  0  0  0  0  0  0  0  0  0  0
  141.0850   70.2660  219.4930 H   0  0  0  0  0  0  0  0  0  0  0  0
  141.5140   70.8563  221.7991 H   0  0  0  0  0  0  0  0  0  0  0  0
  139.1617   70.1361  220.5192 H   0  0  0  0  0  0  0  0  0  0  0  0
  140.1925   69.2393  221.7503 H   0  0  0  0  0  0  0  0  0  0  0  0
  137.7719   70.9709  222.3282 H   0  0  0  0  0  0  0  0  0  0  0  0
  137.8607   69.2030  222.4473 H   0  0  0  0  0  0  0  0  0  0  0  0
  137.9605   68.6090  224.7283 H   0  0  0  0  0  0  0  0  0  0  0  0
  139.0732   68.9382  226.9695 H   0  0  0  0  0  0  0  0  0  0  0  0
  141.3244   72.2378  225.4021 H   0  0  0  0  0  0  0  0  0  0  0  0
  139.4550   72.8362  222.6851 H   0  0  0  0  0  0  0  0  0  0  0  0
  141.2032   72.7383  223.0722 H   0  0  0  0  0  0  0  0  0  0  0  0
  138.8004   74.8859  220.7339 H   0  0  0  0  0  0  0  0  0  0  0  0
  139.2924   73.9780  222.1838 H   0  0  0  0  0  0  0  0  0  0  0  0
  138.7557   76.2821  222.9090 H   0  0  0  0  0  0  0  0  0  0  0  0
  140.5152   76.1396  222.9928 H   0  0  0  0  0  0  0  0  0  0  0  0
  1  2  1  0
  2  3  1  0
  3  4  2  0
  3  5  1  0
  5  6  1  0
  6  7  2  0
  7  8  1  0
  8  9  2  0
  9 10  1  0
 10 11  2  0
  5 12  1  0
 12 13  1  0
 13 14  1  0
 14 15  1  0
 15 16  1  0
 16 17  2  0
 16 18  1  0
 18 19  1  0
 18 20  1  0
 20 21  1  0
 21 22  1  0
 22 23  1  0
 23 24  2  0
 24 25  1  0
 25 26  2  0
 26 27  1  0
 26 28  1  0
 28 29  2  0
 29 30  1  0
 15 31  1  0
 31 32  1  0
 11  6  1  0
 32 12  1  0
 30 20  1  0
 29 23  1  0
  1 33  1  0
  1 34  1  0
  1 35  1  0
  2 36  1  0
  2 37  1  0
  7 38  1  0
  8 39  1  0
  9 40  1  0
 10 41  1  0
 11 42  1  0
 12 43  1  0
 13 44  1  0
 13 45  1  0
 14 46  1  0
 14 47  1  0
 18 48  1  6
 19 49  1  0
 19 50  1  0
 20 51  1  1
 21 52  1  0
 21 53  1  0
 22 54  1  0
 22 55  1  0
 24 56  1  0
 25 57  1  0
 28 58  1  0
 30 59  1  0
 30 60  1  0
 31 61  1  0
 31 62  1  0
 32 63  1  0
 32 64  1  0
M  END
>  <smiles>  (35) 
CCC(=O)N(c1ccccc1)C1CCN(C(=O)[C@@H](N)C2CCc3ccc(Br)cc3C2)CC1

>  <score_type>  (35) 
oracle

>  <origin>  (35) 
autodockgpu

>  <m_score__min__energy>  (35) 
-8.7100000000000009

>  <m_primary>  (35) 
energy

>  <rmsd>  (35) 
7.61761839544838

>  <m_score__min__rmsd>  (35) 
7.61761839544838

>  <meeko>  (35) 
{"free_energy": -7.61, "intermolecular_energy": -9.7, "internal_energy": -2.27, "cluster_size": 14, "cluster_id": 5, "rank_in_cluster": 8}

>  <energy>  (35) 
-7.81

>  <cluster_rmsd>  (35) 
0.06

>  <cluster>  (35) 
5

$$$$

     RDKit          3D

 64 67  0  0  0  0  0  0  0  0999 V2000
  138.2030   80.4600  223.9930 C   0  0  0  0  0  0  0  0  0  0  0  0
  138.0000   80.0240  222.5500 C   0  0  0  0  0  0  0  0  0  0  0  0
  138.3290   78.5570  222.4420 C   0  0  0  0  0  0  0  0  0  0  0  0
  137.3660   77.7760  222.6910 O   0  0  0  0  0  0  0  0  0  0  0  0
  139.6130   78.1010  222.0940 N   0  0  0  0  0  0  0  0  0  0  0  0
  140.7160   78.9710  222.3760 C   0  0  0  0  0  0  0  0  0  0  0  0
  141.4010   78.9390  223.5770 C   0  0  0  0  0  0  0  0  0  0  0  0
  142.4720   79.7830  223.8450 C   0  0  0  0  0  0  0  0  0  0  0  0
  142.8470   80.6650  222.8780 C   0  0  0  0  0  0  0  0  0  0  0  0
  142.2080   80.7470  221.6660 C   0  0  0  0  0  0  0  0  0  0  0  0
  141.1430   79.8970  221.4210 C   0  0  0  0  0  0  0  0  0  0  0  0
  139.7590   76.8100  221.4720 C   0  0  0  0  0  0  0  0  0  0  0  0
  141.0760   76.5630  220.8270 C   0  0  0  0  0  0  0  0  0  0  0  0
  141.7450   75.2690  221.2330 C   0  0  0  0  0  0  0  0  0  0  0  0
  140.8140   74.1530  221.1510 N   0  0  0  0  0  0  0  0  0  0  0  0
  141.3180   72.9250  220.6530 C   0  0  0  0  0  0  0  0  0  0  0  0
  142.5730   72.9500  220.3690 O   0  0  0  0  0  0  0  0  0  0  0  0
  140.5570   71.6980  220.4470 C   0  0  1  0  0  0  0  0  0  0  0  0
  141.0910   70.9310  219.3520 N   0  0  0  0  0  0  0  0  0  0  0  0
  140.2780   70.8730  221.6640 C   0  0  2  0  0  0  0  0  0  0  0  0
  138.9750   70.1610  221.5710 C   0  0  0  0  0  0  0  0  0  0  0  0
  137.9870   70.4860  222.6670 C   0  0  0  0  0  0  0  0  0  0  0  0
  138.7010   70.2510  223.9630 C   0  0  0  0  0  0  0  0  0  0  0  0
  138.1020   69.4990  224.9440 C   0  0  0  0  0  0  0  0  0  0  0  0
  138.8350   69.3230  226.1260 C   0  0  0  0  0  0  0  0  0  0  0  0
  140.0830   69.8820  226.2790 C   0  0  0  0  0  0  0  0  0  0  0  0
  140.9830   69.5790  227.9280 Br  0  0  0  0  0  0  0  0  0  0  0  0
  140.6360   70.6340  225.2510 C   0  0  0  0  0  0  0  0  0  0  0  0
  139.9440   70.8270  224.0750 C   0  0  0  0  0  0  0  0  0  0  0  0
  140.4830   71.6290  222.9510 C   0  0  0  0  0  0  0  0  0  0  0  0
  139.4670   74.3900  221.5970 C   0  0  0  0  0  0  0  0  0  0  0  0
  139.4890   75.6720  222.4520 C   0  0  0  0  0  0  0  0  0  0  0  0
  137.8366   79.6732  224.6688 H   0  0  0  0  0  0  0  0  0  0  0  0
  139.2738   80.6320  224.1769 H   0  0  0  0  0  0  0  0  0  0  0  0
  137.6454   81.3902  224.1769 H   0  0  0  0  0  0  0  0  0  0  0  0
  136.9536   80.1921  222.2555 H   0  0  0  0  0  0  0  0  0  0  0  0
  138.6544   80.6066  221.8850 H   0  0  0  0  0  0  0  0  0  0  0  0
  141.0868   78.2197  224.3477 H   0  0  0  0  0  0  0  0  0  0  0  0
  143.0005   79.7398  224.8088 H   0  0  0  0  0  0  0  0  0  0  0  0
  143.6946   81.3377  223.0756 H   0  0  0  0  0  0  0  0  0  0  0  0
  142.5349   81.4721  220.9061 H   0  0  0  0  0  0  0  0  0  0  0  0
  140.6219   79.9519  220.4538 H   0  0  0  0  0  0  0  0  0  0  0  0
  139.0022   76.8295  220.6740 H   0  0  0  0  0  0  0  0  0  0  0  0
  140.9259   76.5441  219.7375 H   0  0  0  0  0  0  0  0  0  0  0  0
  141.7413   77.3741  221.1578 H   0  0  0  0  0  0  0  0  0  0  0  0
  142.5957   75.0779  220.5624 H   0  0  0  0  0  0  0  0  0  0  0  0
  142.0886   75.3633  222.2737 H   0  0  0  0  0  0  0  0  0  0  0  0
  139.5501   72.0441  220.1707 H   0  0  0  0  0  0  0  0  0  0  0  0
  140.5110   70.9810  218.4840 H   0  0  0  0  0  0  0  0  0  0  0  0
  142.0960   71.2110  219.1330 H   0  0  0  0  0  0  0  0  0  0  0  0
  141.0408   70.0810  221.6937 H   0  0  0  0  0  0  0  0  0  0  0  0
  138.5126   70.4211  220.6074 H   0  0  0  0  0  0  0  0  0  0  0  0
  139.2035   69.0898  221.6725 H   0  0  0  0  0  0  0  0  0  0  0  0
  137.6685   71.5363  222.5930 H   0  0  0  0  0  0  0  0  0  0  0  0
  137.0852   69.8610  222.5893 H   0  0  0  0  0  0  0  0  0  0  0  0
  137.1027   69.0593  224.8096 H   0  0  0  0  0  0  0  0  0  0  0  0
  138.4051   68.7278  226.9451 H   0  0  0  0  0  0  0  0  0  0  0  0
  141.6341   71.0791  225.3763 H   0  0  0  0  0  0  0  0  0  0  0  0
  139.9557   72.5930  222.9001 H   0  0  0  0  0  0  0  0  0  0  0  0
  141.5565   71.8115  223.1069 H   0  0  0  0  0  0  0  0  0  0  0  0
  138.8018   74.5256  220.7315 H   0  0  0  0  0  0  0  0  0  0  0  0
  139.0936   73.5367  222.1822 H   0  0  0  0  0  0  0  0  0  0  0  0
  138.5203   75.8172  222.9525 H   0  0  0  0  0  0  0  0  0  0  0  0
  140.2531   75.6232  223.2417 H   0  0  0  0  0  0  0  0  0  0  0  0
  1  2  1  0
  2  3  1  0
  3  4  2  0
  3  5  1  0
  5  6  1  0
  6  7  2  0
  7  8  1  0
  8  9  2  0
  9 10  1  0
 10 11  2  0
  5 12  1  0
 12 13  1  0
 13 14  1  0
 14 15  1  0
 15 16  1  0
 16 17  2  0
 16 18  1  0
 18 19  1  0
 18 20  1  0
 20 21  1  0
 21 22  1  0
 22 23  1  0
 23 24  2  0
 24 25  1  0
 25 26  2  0
 26 27  1  0
 26 28  1  0
 28 29  2  0
 29 30  1  0
 15 31  1  0
 31 32  1  0
 11  6  1  0
 32 12  1  0
 30 20  1  0
 29 23  1  0
  1 33  1  0
  1 34  1  0
  1 35  1  0
  2 36  1  0
  2 37  1  0
  7 38  1  0
  8 39  1  0
  9 40  1  0
 10 41  1  0
 11 42  1  0
 12 43  1  0
 13 44  1  0
 13 45  1  0
 14 46  1  0
 14 47  1  0
 18 48  1  6
 19 49  1  0
 19 50  1  0
 20 51  1  1
 21 52  1  0
 21 53  1  0
 22 54  1  0
 22 55  1  0
 24 56  1  0
 25 57  1  0
 28 58  1  0
 30 59  1  0
 30 60  1  0
 31 61  1  0
 31 62  1  0
 32 63  1  0
 32 64  1  0
M  END
>  <smiles>  (36) 
CCC(=O)N(c1ccccc1)C1CCN(C(=O)[C@@H](N)C2CCc3ccc(Br)cc3C2)CC1

>  <score_type>  (36) 
oracle

>  <origin>  (36) 
autodockgpu

>  <m_score__min__energy>  (36) 
-8.7100000000000009

>  <m_primary>  (36) 
energy

>  <rmsd>  (36) 
8.057560556813304

>  <m_score__min__rmsd>  (36) 
8.057560556813304

>  <meeko>  (36) 
{"free_energy": -7.58, "intermolecular_energy": -9.67, "internal_energy": -2.4, "cluster_size": 14, "cluster_id": 5, "rank_in_cluster": 11}

>  <energy>  (36) 
-7.8

>  <cluster_rmsd>  (36) 
0.08

>  <cluster>  (36) 
5

$$$$

     RDKit          3D

 64 67  0  0  0  0  0  0  0  0999 V2000
  145.1560   74.1970  216.1520 C   0  0  0  0  0  0  0  0  0  0  0  0
  145.5930   72.7500  216.3240 C   0  0  0  0  0  0  0  0  0  0  0  0
  145.5140   72.3960  217.7870 C   0  0  0  0  0  0  0  0  0  0  0  0
  146.2980   73.0470  218.5340 O   0  0  0  0  0  0  0  0  0  0  0  0
  144.6340   71.4130  218.2740 N   0  0  0  0  0  0  0  0  0  0  0  0
  145.0580   70.0480  218.1740 C   0  0  0  0  0  0  0  0  0  0  0  0
  145.5500   69.3400  219.2540 C   0  0  0  0  0  0  0  0  0  0  0  0
  145.9570   68.0150  219.1520 C   0  0  0  0  0  0  0  0  0  0  0  0
  145.8590   67.4080  217.9370 C   0  0  0  0  0  0  0  0  0  0  0  0
  145.3790   68.0560  216.8260 C   0  0  0  0  0  0  0  0  0  0  0  0
  144.9810   69.3760  216.9510 C   0  0  0  0  0  0  0  0  0  0  0  0
  143.3680   71.8120  218.8320 C   0  0  0  0  0  0  0  0  0  0  0  0
  143.0200   71.1800  220.1330 C   0  0  0  0  0  0  0  0  0  0  0  0
  142.6060   72.1520  221.2150 C   0  0  0  0  0  0  0  0  0  0  0  0
  141.6140   73.0940  220.7180 N   0  0  0  0  0  0  0  0  0  0  0  0
  140.5550   73.4400  221.5950 C   0  0  0  0  0  0  0  0  0  0  0  0
  140.6350   72.8920  222.7550 O   0  0  0  0  0  0  0  0  0  0  0  0
  139.4370   74.3260  221.2910 C   0  0  1  0  0  0  0  0  0  0  0  0
  138.2900   74.0160  222.1040 N   0  0  0  0  0  0  0  0  0  0  0  0
  139.7420   75.7910  221.2360 C   0  0  2  0  0  0  0  0  0  0  0  0
  139.8670   76.2840  219.8370 C   0  0  0  0  0  0  0  0  0  0  0  0
  141.1990   76.9100  219.4960 C   0  0  0  0  0  0  0  0  0  0  0  0
  141.4430   77.9720  220.5240 C   0  0  0  0  0  0  0  0  0  0  0  0
  141.8160   79.2330  220.1260 C   0  0  0  0  0  0  0  0  0  0  0  0
  142.0230   80.1700  221.1470 C   0  0  0  0  0  0  0  0  0  0  0  0
  141.8600   79.8290  222.4710 C   0  0  0  0  0  0  0  0  0  0  0  0
  142.1720   81.1830  223.7710 Br  0  0  0  0  0  0  0  0  0  0  0  0
  141.4830   78.5370  222.8110 C   0  0  0  0  0  0  0  0  0  0  0  0
  141.2690   77.5900  221.8330 C   0  0  0  0  0  0  0  0  0  0  0  0
  140.8760   76.1950  222.1420 C   0  0  0  0  0  0  0  0  0  0  0  0
  141.8050   73.6030  219.3860 C   0  0  0  0  0  0  0  0  0  0  0  0
  143.2700   73.3260  218.9980 C   0  0  0  0  0  0  0  0  0  0  0  0
  145.0168   74.6580  217.1410 H   0  0  0  0  0  0  0  0  0  0  0  0
  145.9274   74.7493  215.5953 H   0  0  0  0  0  0  0  0  0  0  0  0
  144.2078   74.2300  215.5953 H   0  0  0  0  0  0  0  0  0  0  0  0
  144.9283   72.0907  215.7465 H   0  0  0  0  0  0  0  0  0  0  0  0
  146.6235   72.6223  215.9610 H   0  0  0  0  0  0  0  0  0  0  0  0
  145.6221   69.8432  220.2295 H   0  0  0  0  0  0  0  0  0  0  0  0
  146.3465   67.4730  220.0264 H   0  0  0  0  0  0  0  0  0  0  0  0
  146.1763   66.3590  217.8422 H   0  0  0  0  0  0  0  0  0  0  0  0
  145.3121   67.5379  215.8580 H   0  0  0  0  0  0  0  0  0  0  0  0
  144.5957   69.9076  216.0684 H   0  0  0  0  0  0  0  0  0  0  0  0
  142.6427   71.4500  218.0884 H   0  0  0  0  0  0  0  0  0  0  0  0
  142.1878   70.4811  219.9631 H   0  0  0  0  0  0  0  0  0  0  0  0
  143.9337   70.6842  220.4927 H   0  0  0  0  0  0  0  0  0  0  0  0
  142.1780   71.5905  222.0585 H   0  0  0  0  0  0  0  0  0  0  0  0
  143.4936   72.7157  221.5382 H   0  0  0  0  0  0  0  0  0  0  0  0
  139.1899   74.1044  220.2423 H   0  0  0  0  0  0  0  0  0  0  0  0
  138.4360   73.2000  222.7400 H   0  0  0  0  0  0  0  0  0  0  0  0
  137.9720   74.8640  222.6680 H   0  0  0  0  0  0  0  0  0  0  0  0
  138.8685   76.3141  221.6524 H   0  0  0  0  0  0  0  0  0  0  0  0
  139.7072   75.4321  219.1597 H   0  0  0  0  0  0  0  0  0  0  0  0
  139.1160   77.0797  219.7238 H   0  0  0  0  0  0  0  0  0  0  0  0
  141.9961   76.1530  219.5346 H   0  0  0  0  0  0  0  0  0  0  0  0
  141.1927   77.3322  218.4803 H   0  0  0  0  0  0  0  0  0  0  0  0
  141.9449   79.4925  219.0649 H   0  0  0  0  0  0  0  0  0  0  0  0
  142.3210   81.1962  220.8862 H   0  0  0  0  0  0  0  0  0  0  0  0
  141.3541   78.2670  223.8695 H   0  0  0  0  0  0  0  0  0  0  0  0
  141.7338   75.5259  221.9795 H   0  0  0  0  0  0  0  0  0  0  0  0
  140.5555   76.1238  223.1918 H   0  0  0  0  0  0  0  0  0  0  0  0
  141.1269   73.0922  218.6865 H   0  0  0  0  0  0  0  0  0  0  0  0
  141.5872   74.6804  219.3448 H   0  0  0  0  0  0  0  0  0  0  0  0
  143.5204   73.8333  218.0546 H   0  0  0  0  0  0  0  0  0  0  0  0
  143.9715   73.6996  219.7585 H   0  0  0  0  0  0  0  0  0  0  0  0
  1  2  1  0
  2  3  1  0
  3  4  2  0
  3  5  1  0
  5  6  1  0
  6  7  2  0
  7  8  1  0
  8  9  2  0
  9 10  1  0
 10 11  2  0
  5 12  1  0
 12 13  1  0
 13 14  1  0
 14 15  1  0
 15 16  1  0
 16 17  2  0
 16 18  1  0
 18 19  1  0
 18 20  1  0
 20 21  1  0
 21 22  1  0
 22 23  1  0
 23 24  2  0
 24 25  1  0
 25 26  2  0
 26 27  1  0
 26 28  1  0
 28 29  2  0
 29 30  1  0
 15 31  1  0
 31 32  1  0
 11  6  1  0
 32 12  1  0
 30 20  1  0
 29 23  1  0
  1 33  1  0
  1 34  1  0
  1 35  1  0
  2 36  1  0
  2 37  1  0
  7 38  1  0
  8 39  1  0
  9 40  1  0
 10 41  1  0
 11 42  1  0
 12 43  1  0
 13 44  1  0
 13 45  1  0
 14 46  1  0
 14 47  1  0
 18 48  1  6
 19 49  1  0
 19 50  1  0
 20 51  1  1
 21 52  1  0
 21 53  1  0
 22 54  1  0
 22 55  1  0
 24 56  1  0
 25 57  1  0
 28 58  1  0
 30 59  1  0
 30 60  1  0
 31 61  1  0
 31 62  1  0
 32 63  1  0
 32 64  1  0
M  END
>  <smiles>  (37) 
CCC(=O)N(c1ccccc1)C1CCN(C(=O)[C@@H](N)C2CCc3ccc(Br)cc3C2)CC1

>  <score_type>  (37) 
oracle

>  <origin>  (37) 
autodockgpu

>  <m_score__min__energy>  (37) 
-8.7100000000000009

>  <m_primary>  (37) 
energy

>  <rmsd>  (37) 
5.707219641305763

>  <m_score__min__rmsd>  (37) 
5.707219641305763

>  <meeko>  (37) 
{"free_energy": -7.69, "intermolecular_energy": -9.78, "internal_energy": -2.44, "cluster_size": 15, "cluster_id": 2, "rank_in_cluster": 12}

>  <energy>  (37) 
-7.79

>  <cluster_rmsd>  (37) 
0.28

>  <cluster>  (37) 
5

$$$$

     RDKit          3D

 64 67  0  0  0  0  0  0  0  0999 V2000
  145.9360   74.1240  220.9360 C   0  0  0  0  0  0  0  0  0  0  0  0
  146.3010   72.7150  220.4940 C   0  0  0  0  0  0  0  0  0  0  0  0
  145.5580   72.4040  219.2210 C   0  0  0  0  0  0  0  0  0  0  0  0
  145.9760   73.0190  218.1980 O   0  0  0  0  0  0  0  0  0  0  0  0
  144.4810   71.5020  219.1820 N   0  0  0  0  0  0  0  0  0  0  0  0
  144.7810   70.1390  218.8520 C   0  0  0  0  0  0  0  0  0  0  0  0
  144.4690   69.0850  219.6900 C   0  0  0  0  0  0  0  0  0  0  0  0
  144.7590   67.7650  219.3650 C   0  0  0  0  0  0  0  0  0  0  0  0
  145.3710   67.5210  218.1730 C   0  0  0  0  0  0  0  0  0  0  0  0
  145.7070   68.5230  217.2980 C   0  0  0  0  0  0  0  0  0  0  0  0
  145.4100   69.8300  217.6430 C   0  0  0  0  0  0  0  0  0  0  0  0
  143.1500   71.9760  219.4590 C   0  0  0  0  0  0  0  0  0  0  0  0
  142.4540   71.2950  220.5830 C   0  0  0  0  0  0  0  0  0  0  0  0
  141.8630   72.2270  221.6170 C   0  0  0  0  0  0  0  0  0  0  0  0
  141.0920   73.2860  220.9840 N   0  0  0  0  0  0  0  0  0  0  0  0
  139.8810   73.6690  221.6130 C   0  0  0  0  0  0  0  0  0  0  0  0
  139.6380   73.0400  222.7090 O   0  0  0  0  0  0  0  0  0  0  0  0
  138.9370   74.6710  221.1330 C   0  0  1  0  0  0  0  0  0  0  0  0
  137.6420   74.5010  221.7380 N   0  0  0  0  0  0  0  0  0  0  0  0
  139.4080   76.0920  221.1410 C   0  0  2  0  0  0  0  0  0  0  0  0
  139.5280   76.6500  219.7670 C   0  0  0  0  0  0  0  0  0  0  0  0
  140.9080   77.1390  219.3920 C   0  0  0  0  0  0  0  0  0  0  0  0
  141.3210   78.1010  220.4630 C   0  0  0  0  0  0  0  0  0  0  0  0
  141.8220   79.3330  220.1150 C   0  0  0  0  0  0  0  0  0  0  0  0
  142.1840   80.1770  221.1740 C   0  0  0  0  0  0  0  0  0  0  0  0
  142.0410   79.7780  222.4830 C   0  0  0  0  0  0  0  0  0  0  0  0
  142.5690   81.0070  223.8370 Br  0  0  0  0  0  0  0  0  0  0  0  0
  141.5300   78.5200  222.7720 C   0  0  0  0  0  0  0  0  0  0  0  0
  141.1630   77.6640  221.7560 C   0  0  0  0  0  0  0  0  0  0  0  0
  140.6220   76.3070  222.0080 C   0  0  0  0  0  0  0  0  0  0  0  0
  141.6340   73.8620  219.7820 C   0  0  0  0  0  0  0  0  0  0  0  0
  143.1260   73.4790  219.7260 C   0  0  0  0  0  0  0  0  0  0  0  0
  145.9236   74.1719  222.0349 H   0  0  0  0  0  0  0  0  0  0  0  0
  146.6797   74.8347  220.5464 H   0  0  0  0  0  0  0  0  0  0  0  0
  144.9408   74.3843  220.5464 H   0  0  0  0  0  0  0  0  0  0  0  0
  147.3846   72.6513  220.3158 H   0  0  0  0  0  0  0  0  0  0  0  0
  146.0259   71.9922  221.2763 H   0  0  0  0  0  0  0  0  0  0  0  0
  143.9734   69.2985  220.6485 H   0  0  0  0  0  0  0  0  0  0  0  0
  144.5022   66.9430  220.0493 H   0  0  0  0  0  0  0  0  0  0  0  0
  145.6048   66.4810  217.9014 H   0  0  0  0  0  0  0  0  0  0  0  0
  146.2017   68.2925  216.3430 H   0  0  0  0  0  0  0  0  0  0  0  0
  145.6747   70.6429  216.9508 H   0  0  0  0  0  0  0  0  0  0  0  0
  142.6005   71.7300  218.5384 H   0  0  0  0  0  0  0  0  0  0  0  0
  141.6387   70.6873  220.1635 H   0  0  0  0  0  0  0  0  0  0  0  0
  143.2160   70.6962  221.1034 H   0  0  0  0  0  0  0  0  0  0  0  0
  141.2043   71.6523  222.2847 H   0  0  0  0  0  0  0  0  0  0  0  0
  142.6850   72.6846  222.1871 H   0  0  0  0  0  0  0  0  0  0  0  0
  138.8479   74.4658  220.0560 H   0  0  0  0  0  0  0  0  0  0  0  0
  136.9830   73.9270  221.1640 H   0  0  0  0  0  0  0  0  0  0  0  0
  137.7210   74.0900  222.7190 H   0  0  0  0  0  0  0  0  0  0  0  0
  138.6209   76.6863  221.6280 H   0  0  0  0  0  0  0  0  0  0  0  0
  139.2394   75.8640  219.0536 H   0  0  0  0  0  0  0  0  0  0  0  0
  138.8715   77.5321  219.7361 H   0  0  0  0  0  0  0  0  0  0  0  0
  141.6116   76.2947  219.3470 H   0  0  0  0  0  0  0  0  0  0  0  0
  140.9055   77.6203  218.4029 H   0  0  0  0  0  0  0  0  0  0  0  0
  141.9326   79.6393  219.0643 H   0  0  0  0  0  0  0  0  0  0  0  0
  142.5895   81.1757  220.9547 H   0  0  0  0  0  0  0  0  0  0  0  0
  141.4172   78.2040  223.8196 H   0  0  0  0  0  0  0  0  0  0  0  0
  141.3865   75.5545  221.7647 H   0  0  0  0  0  0  0  0  0  0  0  0
  140.3430   76.2098  223.0676 H   0  0  0  0  0  0  0  0  0  0  0  0
  141.1088   73.4618  218.9022 H   0  0  0  0  0  0  0  0  0  0  0  0
  141.5111   74.9551  219.7828 H   0  0  0  0  0  0  0  0  0  0  0  0
  143.6324   74.0220  218.9144 H   0  0  0  0  0  0  0  0  0  0  0  0
  143.6494   73.7368  220.6585 H   0  0  0  0  0  0  0  0  0  0  0  0
  1  2  1  0
  2  3  1  0
  3  4  2  0
  3  5  1  0
  5  6  1  0
  6  7  2  0
  7  8  1  0
  8  9  2  0
  9 10  1  0
 10 11  2  0
  5 12  1  0
 12 13  1  0
 13 14  1  0
 14 15  1  0
 15 16  1  0
 16 17  2  0
 16 18  1  0
 18 19  1  0
 18 20  1  0
 20 21  1  0
 21 22  1  0
 22 23  1  0
 23 24  2  0
 24 25  1  0
 25 26  2  0
 26 27  1  0
 26 28  1  0
 28 29  2  0
 29 30  1  0
 15 31  1  0
 31 32  1  0
 11  6  1  0
 32 12  1  0
 30 20  1  0
 29 23  1  0
  1 33  1  0
  1 34  1  0
  1 35  1  0
  2 36  1  0
  2 37  1  0
  7 38  1  0
  8 39  1  0
  9 40  1  0
 10 41  1  0
 11 42  1  0
 12 43  1  0
 13 44  1  0
 13 45  1  0
 14 46  1  0
 14 47  1  0
 18 48  1  6
 19 49  1  0
 19 50  1  0
 20 51  1  1
 21 52  1  0
 21 53  1  0
 22 54  1  0
 22 55  1  0
 24 56  1  0
 25 57  1  0
 28 58  1  0
 30 59  1  0
 30 60  1  0
 31 61  1  0
 31 62  1  0
 32 63  1  0
 32 64  1  0
M  END
>  <smiles>  (38) 
CCC(=O)N(c1ccccc1)C1CCN(C(=O)[C@@H](N)C2CCc3ccc(Br)cc3C2)CC1

>  <score_type>  (38) 
oracle

>  <origin>  (38) 
autodockgpu

>  <m_score__min__energy>  (38) 
-8.7100000000000009

>  <m_primary>  (38) 
energy

>  <rmsd>  (38) 
5.529677504483397

>  <m_score__min__rmsd>  (38) 
5.529677504483397

>  <meeko>  (38) 
{"free_energy": -8.15, "intermolecular_energy": -10.23, "internal_energy": -2.46, "cluster_size": 15, "cluster_id": 2, "rank_in_cluster": 3}

>  <energy>  (38) 
-7.79

>  <cluster_rmsd>  (38) 
0.29

>  <cluster>  (38) 
5

$$$$

     RDKit          3D

 64 67  0  0  0  0  0  0  0  0999 V2000
  138.0590   80.5910  224.5750 C   0  0  0  0  0  0  0  0  0  0  0  0
  137.9180   80.4270  223.0690 C   0  0  0  0  0  0  0  0  0  0  0  0
  138.1390   78.9780  222.7220 C   0  0  0  0  0  0  0  0  0  0  0  0
  137.1010   78.2580  222.7610 O   0  0  0  0  0  0  0  0  0  0  0  0
  139.4070   78.4730  222.3840 N   0  0  0  0  0  0  0  0  0  0  0  0
  140.5420   79.2910  222.6940 C   0  0  0  0  0  0  0  0  0  0  0  0
  141.2740   79.1370  223.8570 C   0  0  0  0  0  0  0  0  0  0  0  0
  142.3760   79.9320  224.1520 C   0  0  0  0  0  0  0  0  0  0  0  0
  142.7330   80.8890  223.2530 C   0  0  0  0  0  0  0  0  0  0  0  0
  142.0460   81.0930  222.0810 C   0  0  0  0  0  0  0  0  0  0  0  0
  140.9520   80.2910  221.8080 C   0  0  0  0  0  0  0  0  0  0  0  0
  139.5080   77.1870  221.7440 C   0  0  0  0  0  0  0  0  0  0  0  0
  140.8060   76.9120  221.0730 C   0  0  0  0  0  0  0  0  0  0  0  0
  141.4470   75.5950  221.4530 C   0  0  0  0  0  0  0  0  0  0  0  0
  140.4840   74.5060  221.3730 N   0  0  0  0  0  0  0  0  0  0  0  0
  140.9470   73.2720  220.8510 C   0  0  0  0  0  0  0  0  0  0  0  0
  142.1960   73.2660  220.5460 O   0  0  0  0  0  0  0  0  0  0  0  0
  140.1490   72.0680  220.6440 C   0  0  1  0  0  0  0  0  0  0  0  0
  140.5420   71.3830  219.4400 N   0  0  0  0  0  0  0  0  0  0  0  0
  139.9990   71.1550  221.8200 C   0  0  2  0  0  0  0  0  0  0  0  0
  138.7920   70.2910  221.7080 C   0  0  0  0  0  0  0  0  0  0  0  0
  137.7940   70.4360  222.8330 C   0  0  0  0  0  0  0  0  0  0  0  0
  138.5580   70.2280  224.1050 C   0  0  0  0  0  0  0  0  0  0  0  0
  138.0760   69.3580  225.0540 C   0  0  0  0  0  0  0  0  0  0  0  0
  138.8490   69.2170  226.2150 C   0  0  0  0  0  0  0  0  0  0  0  0
  140.0220   69.9190  226.3800 C   0  0  0  0  0  0  0  0  0  0  0  0
  140.9860   69.6490  227.9980 Br  0  0  0  0  0  0  0  0  0  0  0  0
  140.4560   70.7840  225.3850 C   0  0  0  0  0  0  0  0  0  0  0  0
  139.7220   70.9470  224.2300 C   0  0  0  0  0  0  0  0  0  0  0  0
  140.1350   71.8660  223.1420 C   0  0  0  0  0  0  0  0  0  0  0  0
  139.1520   74.7740  221.8450 C   0  0  0  0  0  0  0  0  0  0  0  0
  139.2230   76.0440  222.7150 C   0  0  0  0  0  0  0  0  0  0  0  0
  137.4237   79.8521  225.0854 H   0  0  0  0  0  0  0  0  0  0  0  0
  139.1087   80.4342  224.8642 H   0  0  0  0  0  0  0  0  0  0  0  0
  137.7466   81.6053  224.8642 H   0  0  0  0  0  0  0  0  0  0  0  0
  136.9092   80.7337  222.7554 H   0  0  0  0  0  0  0  0  0  0  0  0
  138.6578   81.0551  222.5511 H   0  0  0  0  0  0  0  0  0  0  0  0
  140.9740   78.3584  224.5738 H   0  0  0  0  0  0  0  0  0  0  0  0
  142.9424   79.7914  225.0844 H   0  0  0  0  0  0  0  0  0  0  0  0
  143.6045   81.5232  223.4730 H   0  0  0  0  0  0  0  0  0  0  0  0
  142.3587   81.8766  221.3752 H   0  0  0  0  0  0  0  0  0  0  0  0
  140.3928   80.4439  220.8732 H   0  0  0  0  0  0  0  0  0  0  0  0
  138.7392   77.2377  220.9589 H   0  0  0  0  0  0  0  0  0  0  0  0
  140.6363   76.9096  219.9862 H   0  0  0  0  0  0  0  0  0  0  0  0
  141.4988   77.7011  221.4008 H   0  0  0  0  0  0  0  0  0  0  0  0
  142.2813   75.3891  220.7662 H   0  0  0  0  0  0  0  0  0  0  0  0
  141.8106   75.6671  222.4887 H   0  0  0  0  0  0  0  0  0  0  0  0
  139.1221   72.4401  220.5133 H   0  0  0  0  0  0  0  0  0  0  0  0
  139.8460   71.4640  218.6650 H   0  0  0  0  0  0  0  0  0  0  0  0
  141.5010   71.7060  219.1030 H   0  0  0  0  0  0  0  0  0  0  0  0
  140.8543   70.4636  221.7980 H   0  0  0  0  0  0  0  0  0  0  0  0
  138.2817   70.5388  220.7656 H   0  0  0  0  0  0  0  0  0  0  0  0
  139.1531   69.2528  221.7505 H   0  0  0  0  0  0  0  0  0  0  0  0
  137.3467   71.4408  222.8177 H   0  0  0  0  0  0  0  0  0  0  0  0
  136.9749   69.7082  222.7360 H   0  0  0  0  0  0  0  0  0  0  0  0
  137.1367   68.8037  224.9105 H   0  0  0  0  0  0  0  0  0  0  0  0
  138.5124   68.5334  227.0083 H   0  0  0  0  0  0  0  0  0  0  0  0
  141.3933   71.3439  225.5194 H   0  0  0  0  0  0  0  0  0  0  0  0
  139.4914   72.7581  223.1487 H   0  0  0  0  0  0  0  0  0  0  0  0
  141.1804   72.1734  223.2924 H   0  0  0  0  0  0  0  0  0  0  0  0
  138.4762   74.9384  220.9928 H   0  0  0  0  0  0  0  0  0  0  0  0
  138.7656   73.9239  222.4264 H   0  0  0  0  0  0  0  0  0  0  0  0
  138.2669   76.2091  223.2333 H   0  0  0  0  0  0  0  0  0  0  0  0
  139.9984   75.9645  223.4912 H   0  0  0  0  0  0  0  0  0  0  0  0
  1  2  1  0
  2  3  1  0
  3  4  2  0
  3  5  1  0
  5  6  1  0
  6  7  2  0
  7  8  1  0
  8  9  2  0
  9 10  1  0
 10 11  2  0
  5 12  1  0
 12 13  1  0
 13 14  1  0
 14 15  1  0
 15 16  1  0
 16 17  2  0
 16 18  1  0
 18 19  1  0
 18 20  1  0
 20 21  1  0
 21 22  1  0
 22 23  1  0
 23 24  2  0
 24 25  1  0
 25 26  2  0
 26 27  1  0
 26 28  1  0
 28 29  2  0
 29 30  1  0
 15 31  1  0
 31 32  1  0
 11  6  1  0
 32 12  1  0
 30 20  1  0
 29 23  1  0
  1 33  1  0
  1 34  1  0
  1 35  1  0
  2 36  1  0
  2 37  1  0
  7 38  1  0
  8 39  1  0
  9 40  1  0
 10 41  1  0
 11 42  1  0
 12 43  1  0
 13 44  1  0
 13 45  1  0
 14 46  1  0
 14 47  1  0
 18 48  1  6
 19 49  1  0
 19 50  1  0
 20 51  1  6
 21 52  1  0
 21 53  1  0
 22 54  1  0
 22 55  1  0
 24 56  1  0
 25 57  1  0
 28 58  1  0
 30 59  1  0
 30 60  1  0
 31 61  1  0
 31 62  1  0
 32 63  1  0
 32 64  1  0
M  END
>  <smiles>  (39) 
CCC(=O)N(c1ccccc1)C1CCN(C(=O)[C@@H](N)C2CCc3ccc(Br)cc3C2)CC1

>  <score_type>  (39) 
oracle

>  <origin>  (39) 
autodockgpu

>  <m_score__min__energy>  (39) 
-8.7100000000000009

>  <m_primary>  (39) 
energy

>  <rmsd>  (39) 
7.959713434846313

>  <m_score__min__rmsd>  (39) 
7.959713434846313

>  <meeko>  (39) 
{"free_energy": -7.8, "intermolecular_energy": -9.89, "internal_energy": -2.34, "cluster_size": 14, "cluster_id": 5, "rank_in_cluster": 3}

>  <energy>  (39) 
-7.69

>  <cluster_rmsd>  (39) 
0.32

>  <cluster>  (39) 
5

$$$$

     RDKit          3D

 64 67  0  0  0  0  0  0  0  0999 V2000
  146.1670   73.0190  221.8350 C   0  0  0  0  0  0  0  0  0  0  0  0
  146.3380   73.7620  220.5180 C   0  0  0  0  0  0  0  0  0  0  0  0
  145.7470   72.9230  219.4150 C   0  0  0  0  0  0  0  0  0  0  0  0
  146.1710   71.7330  219.3670 O   0  0  0  0  0  0  0  0  0  0  0  0
  144.8000   73.4340  218.5100 N   0  0  0  0  0  0  0  0  0  0  0  0
  145.2630   73.7590  217.1930 C   0  0  0  0  0  0  0  0  0  0  0  0
  146.3330   73.1160  216.6000 C   0  0  0  0  0  0  0  0  0  0  0  0
  146.7770   73.4340  215.3210 C   0  0  0  0  0  0  0  0  0  0  0  0
  146.1200   74.4150  214.6430 C   0  0  0  0  0  0  0  0  0  0  0  0
  145.0510   75.0920  215.1760 C   0  0  0  0  0  0  0  0  0  0  0  0
  144.6280   74.7600  216.4510 C   0  0  0  0  0  0  0  0  0  0  0  0
  143.4380   73.6140  218.9380 C   0  0  0  0  0  0  0  0  0  0  0  0
  142.9170   72.5670  219.8580 C   0  0  0  0  0  0  0  0  0  0  0  0
  142.2730   73.0970  221.1190 C   0  0  0  0  0  0  0  0  0  0  0  0
  141.3230   74.1560  220.8120 N   0  0  0  0  0  0  0  0  0  0  0  0
  140.1140   74.1750  221.5530 C   0  0  0  0  0  0  0  0  0  0  0  0
  140.0330   73.2540  222.4470 O   0  0  0  0  0  0  0  0  0  0  0  0
  139.0110   75.1140  221.3840 C   0  0  1  0  0  0  0  0  0  0  0  0
  137.8690   74.7240  222.1690 N   0  0  0  0  0  0  0  0  0  0  0  0
  139.3460   76.5680  221.5110 C   0  0  2  0  0  0  0  0  0  0  0  0
  139.1180   77.3070  220.2400 C   0  0  0  0  0  0  0  0  0  0  0  0
  140.3360   78.0000  219.6740 C   0  0  0  0  0  0  0  0  0  0  0  0
  140.8820   78.8600  220.7730 C   0  0  0  0  0  0  0  0  0  0  0  0
  141.1840   80.1760  220.5210 C   0  0  0  0  0  0  0  0  0  0  0  0
  141.6880   80.9140  221.6000 C   0  0  0  0  0  0  0  0  0  0  0  0
  141.8660   80.3370  222.8370 C   0  0  0  0  0  0  0  0  0  0  0  0
  142.5600   81.4360  224.2270 Br  0  0  0  0  0  0  0  0  0  0  0  0
  141.5430   79.0010  223.0300 C   0  0  0  0  0  0  0  0  0  0  0  0
  141.0440   78.2440  221.9910 C   0  0  0  0  0  0  0  0  0  0  0  0
  140.6930   76.8120  222.1400 C   0  0  0  0  0  0  0  0  0  0  0  0
  141.7000   75.1000  219.7940 C   0  0  0  0  0  0  0  0  0  0  0  0
  143.2240   74.9740  219.5980 C   0  0  0  0  0  0  0  0  0  0  0  0
  146.3271   73.7147  222.6719 H   0  0  0  0  0  0  0  0  0  0  0  0
  145.1499   72.6041  221.8925 H   0  0  0  0  0  0  0  0  0  0  0  0
  146.9004   72.2012  221.8925 H   0  0  0  0  0  0  0  0  0  0  0  0
  145.8173   74.7297  220.5677 H   0  0  0  0  0  0  0  0  0  0  0  0
  147.4054   73.9426  220.3232 H   0  0  0  0  0  0  0  0  0  0  0  0
  146.8522   72.3241  217.1598 H   0  0  0  0  0  0  0  0  0  0  0  0
  147.6326   72.9091  214.8710 H   0  0  0  0  0  0  0  0  0  0  0  0
  146.4586   74.6752  213.6293 H   0  0  0  0  0  0  0  0  0  0  0  0
  144.5422   75.8807  214.6023 H   0  0  0  0  0  0  0  0  0  0  0  0
  143.7735   75.2952  216.8906 H   0  0  0  0  0  0  0  0  0  0  0  0
  142.8695   73.5367  217.9995 H   0  0  0  0  0  0  0  0  0  0  0  0
  142.1671   71.9747  219.3132 H   0  0  0  0  0  0  0  0  0  0  0  0
  143.7868   71.9749  220.1788 H   0  0  0  0  0  0  0  0  0  0  0  0
  141.7453   72.2759  221.6263 H   0  0  0  0  0  0  0  0  0  0  0  0
  143.0594   73.5082  221.7689 H   0  0  0  0  0  0  0  0  0  0  0  0
  138.7446   75.0338  220.3198 H   0  0  0  0  0  0  0  0  0  0  0  0
  137.1450   74.2030  221.6250 H   0  0  0  0  0  0  0  0  0  0  0  0
  138.1590   74.1570  223.0240 H   0  0  0  0  0  0  0  0  0  0  0  0
  138.6332   76.9984  222.2298 H   0  0  0  0  0  0  0  0  0  0  0  0
  138.7544   76.5898  219.4894 H   0  0  0  0  0  0  0  0  0  0  0  0
  138.3941   78.1017  220.4733 H   0  0  0  0  0  0  0  0  0  0  0  0
  141.0861   77.2578  219.3634 H   0  0  0  0  0  0  0  0  0  0  0  0
  140.0783   78.5999  218.7887 H   0  0  0  0  0  0  0  0  0  0  0  0
  141.0383   80.6254  219.5276 H   0  0  0  0  0  0  0  0  0  0  0  0
  141.9461   81.9736  221.4561 H   0  0  0  0  0  0  0  0  0  0  0  0
  141.6862   78.5424  224.0196 H   0  0  0  0  0  0  0  0  0  0  0  0
  141.4514   76.1925  221.6390 H   0  0  0  0  0  0  0  0  0  0  0  0
  140.6577   76.5476  223.2072 H   0  0  0  0  0  0  0  0  0  0  0  0
  141.1786   74.8685  218.8535 H   0  0  0  0  0  0  0  0  0  0  0  0
  141.4275   76.1237  220.0903 H   0  0  0  0  0  0  0  0  0  0  0  0
  143.5962   75.7797  218.9482 H   0  0  0  0  0  0  0  0  0  0  0  0
  143.7667   75.0555  220.5513 H   0  0  0  0  0  0  0  0  0  0  0  0
  1  2  1  0
  2  3  1  0
  3  4  2  0
  3  5  1  0
  5  6  1  0
  6  7  2  0
  7  8  1  0
  8  9  2  0
  9 10  1  0
 10 11  2  0
  5 12  1  0
 12 13  1  0
 13 14  1  0
 14 15  1  0
 15 16  1  0
 16 17  2  0
 16 18  1  0
 18 19  1  0
 18 20  1  0
 20 21  1  0
 21 22  1  0
 22 23  1  0
 23 24  2  0
 24 25  1  0
 25 26  2  0
 26 27  1  0
 26 28  1  0
 28 29  2  0
 29 30  1  0
 15 31  1  0
 31 32  1  0
 11  6  1  0
 32 12  1  0
 30 20  1  0
 29 23  1  0
  1 33  1  0
  1 34  1  0
  1 35  1  0
  2 36  1  0
  2 37  1  0
  7 38  1  0
  8 39  1  0
  9 40  1  0
 10 41  1  0
 11 42  1  0
 12 43  1  0
 13 44  1  0
 13 45  1  0
 14 46  1  0
 14 47  1  0
 18 48  1  6
 19 49  1  0
 19 50  1  0
 20 51  1  1
 21 52  1  0
 21 53  1  0
 22 54  1  0
 22 55  1  0
 24 56  1  0
 25 57  1  0
 28 58  1  0
 30 59  1  0
 30 60  1  0
 31 61  1  0
 31 62  1  0
 32 63  1  0
 32 64  1  0
M  END
>  <smiles>  (40) 
CCC(=O)N(c1ccccc1)C1CCN(C(=O)[C@@H](N)C2CCc3ccc(Br)cc3C2)CC1

>  <score_type>  (40) 
oracle

>  <origin>  (40) 
autodockgpu

>  <m_score__min__energy>  (40) 
-8.7100000000000009

>  <m_primary>  (40) 
energy

>  <rmsd>  (40) 
4.903949342680854

>  <m_score__min__rmsd>  (40) 
4.903949342680854

>  <meeko>  (40) 
{"free_energy": -7.66, "intermolecular_energy": -9.74, "internal_energy": -2.48, "cluster_size": 15, "cluster_id": 2, "rank_in_cluster": 13}

>  <energy>  (40) 
-7.65

>  <cluster_rmsd>  (40) 
0.49

>  <cluster>  (40) 
5

$$$$

     RDKit          3D

 64 67  0  0  0  0  0  0  0  0999 V2000
  136.6300   69.6630  224.9500 C   0  0  0  0  0  0  0  0  0  0  0  0
  137.1440   68.8360  223.7810 C   0  0  0  0  0  0  0  0  0  0  0  0
  138.5800   68.4680  224.0490 C   0  0  0  0  0  0  0  0  0  0  0  0
  138.8370   67.2330  223.9650 O   0  0  0  0  0  0  0  0  0  0  0  0
  139.5540   69.4300  224.3690 N   0  0  0  0  0  0  0  0  0  0  0  0
  140.0490   69.4370  225.7140 C   0  0  0  0  0  0  0  0  0  0  0  0
  140.1570   70.5940  226.4620 C   0  0  0  0  0  0  0  0  0  0  0  0
  140.6360   70.5960  227.7670 C   0  0  0  0  0  0  0  0  0  0  0  0
  141.0060   69.4040  228.3120 C   0  0  0  0  0  0  0  0  0  0  0  0
  140.9240   68.2200  227.6220 C   0  0  0  0  0  0  0  0  0  0  0  0
  140.4460   68.2430  226.3240 C   0  0  0  0  0  0  0  0  0  0  0  0
  139.9940   70.3550  223.3580 C   0  0  0  0  0  0  0  0  0  0  0  0
  139.3650   70.1810  222.0210 C   0  0  0  0  0  0  0  0  0  0  0  0
  138.7850   71.4450  221.4270 C   0  0  0  0  0  0  0  0  0  0  0  0
  139.7370   72.5430  221.5070 N   0  0  0  0  0  0  0  0  0  0  0  0
  139.8110   73.4170  220.3930 C   0  0  0  0  0  0  0  0  0  0  0  0
  138.9780   73.1390  219.4530 O   0  0  0  0  0  0  0  0  0  0  0  0
  140.7170   74.5500  220.2420 C   0  0  1  0  0  0  0  0  0  0  0  0
  140.6710   75.0800  218.9050 N   0  0  0  0  0  0  0  0  0  0  0  0
  140.6450   75.6080  221.2990 C   0  0  2  0  0  0  0  0  0  0  0  0
  139.3090   75.6580  221.9510 C   0  0  0  0  0  0  0  0  0  0  0  0
  138.5930   76.9850  221.8440 C   0  0  0  0  0  0  0  0  0  0  0  0
  139.5450   78.0210  222.3580 C   0  0  0  0  0  0  0  0  0  0  0  0
  139.1170   78.9380  223.2880 C   0  0  0  0  0  0  0  0  0  0  0  0
  140.0670   79.8730  223.7200 C   0  0  0  0  0  0  0  0  0  0  0  0
  141.3520   79.8610  223.2290 C   0  0  0  0  0  0  0  0  0  0  0  0
  142.5550   81.1820  223.8860 Br  0  0  0  0  0  0  0  0  0  0  0  0
  141.7250   78.9110  222.2890 C   0  0  0  0  0  0  0  0  0  0  0  0
  140.8180   77.9740  221.8420 C   0  0  0  0  0  0  0  0  0  0  0  0
  141.1610   76.9450  220.8320 C   0  0  0  0  0  0  0  0  0  0  0  0
  140.5080   72.6540  222.7160 C   0  0  0  0  0  0  0  0  0  0  0  0
  139.7980   71.8060  223.7890 C   0  0  0  0  0  0  0  0  0  0  0  0
  136.9268   69.1855  225.8955 H   0  0  0  0  0  0  0  0  0  0  0  0
  137.0586   70.6748  224.8999 H   0  0  0  0  0  0  0  0  0  0  0  0
  135.5330   69.7266  224.8999 H   0  0  0  0  0  0  0  0  0  0  0  0
  136.5399   67.9224  223.6791 H   0  0  0  0  0  0  0  0  0  0  0  0
  137.0717   69.4160  222.8491 H   0  0  0  0  0  0  0  0  0  0  0  0
  139.8527   71.5486  226.0080 H   0  0  0  0  0  0  0  0  0  0  0  0
  140.7137   71.5309  228.3414 H   0  0  0  0  0  0  0  0  0  0  0  0
  141.3850   69.3894  229.3445 H   0  0  0  0  0  0  0  0  0  0  0  0
  141.2316   67.2737  228.0910 H   0  0  0  0  0  0  0  0  0  0  0  0
  140.3767   67.3015  225.7594 H   0  0  0  0  0  0  0  0  0  0  0  0
  141.0625   70.1168  223.2505 H   0  0  0  0  0  0  0  0  0  0  0  0
  140.1297   69.7970  221.3298 H   0  0  0  0  0  0  0  0  0  0  0  0
  138.5222   69.4882  222.1616 H   0  0  0  0  0  0  0  0  0  0  0  0
  138.5326   71.2638  220.3718 H   0  0  0  0  0  0  0  0  0  0  0  0
  137.8849   71.7192  221.9967 H   0  0  0  0  0  0  0  0  0  0  0  0
  141.7170   74.1248  220.4127 H   0  0  0  0  0  0  0  0  0  0  0  0
  140.1940   74.4500  218.2200 H   0  0  0  0  0  0  0  0  0  0  0  0
  140.2200   76.0460  218.8840 H   0  0  0  0  0  0  0  0  0  0  0  0
  141.3448   75.3131  222.0948 H   0  0  0  0  0  0  0  0  0  0  0  0
  138.6739   74.8895  221.4861 H   0  0  0  0  0  0  0  0  0  0  0  0
  139.4850   75.4903  223.0238 H   0  0  0  0  0  0  0  0  0  0  0  0
  138.3330   77.1937  220.7957 H   0  0  0  0  0  0  0  0  0  0  0  0
  137.6571   76.9812  222.4220 H   0  0  0  0  0  0  0  0  0  0  0  0
  138.0861   78.9379  223.6718 H   0  0  0  0  0  0  0  0  0  0  0  0
  139.7802   80.6299  224.4649 H   0  0  0  0  0  0  0  0  0  0  0  0
  142.7529   78.9055  221.8973 H   0  0  0  0  0  0  0  0  0  0  0  0
  140.6962   77.2039  219.8692 H   0  0  0  0  0  0  0  0  0  0  0  0
  142.2526   76.8983  220.7049 H   0  0  0  0  0  0  0  0  0  0  0  0
  141.5270   72.2747  222.5493 H   0  0  0  0  0  0  0  0  0  0  0  0
  140.5841   73.7038  223.0355 H   0  0  0  0  0  0  0  0  0  0  0  0
  140.2507   71.9781  224.7766 H   0  0  0  0  0  0  0  0  0  0  0  0
  138.7326   72.0656  223.8751 H   0  0  0  0  0  0  0  0  0  0  0  0
  1  2  1  0
  2  3  1  0
  3  4  2  0
  3  5  1  0
  5  6  1  0
  6  7  2  0
  7  8  1  0
  8  9  2  0
  9 10  1  0
 10 11  2  0
  5 12  1  0
 12 13  1  0
 13 14  1  0
 14 15  1  0
 15 16  1  0
 16 17  2  0
 16 18  1  0
 18 19  1  0
 18 20  1  0
 20 21  1  0
 21 22  1  0
 22 23  1  0
 23 24  2  0
 24 25  1  0
 25 26  2  0
 26 27  1  0
 26 28  1  0
 28 29  2  0
 29 30  1  0
 15 31  1  0
 31 32  1  0
 11  6  1  0
 32 12  1  0
 30 20  1  0
 29 23  1  0
  1 33  1  0
  1 34  1  0
  1 35  1  0
  2 36  1  0
  2 37  1  0
  7 38  1  0
  8 39  1  0
  9 40  1  0
 10 41  1  0
 11 42  1  0
 12 43  1  0
 13 44  1  0
 13 45  1  0
 14 46  1  0
 14 47  1  0
 18 48  1  6
 19 49  1  0
 19 50  1  0
 20 51  1  1
 21 52  1  0
 21 53  1  0
 22 54  1  0
 22 55  1  0
 24 56  1  0
 25 57  1  0
 28 58  1  0
 30 59  1  0
 30 60  1  0
 31 61  1  0
 31 62  1  0
 32 63  1  0
 32 64  1  0
M  END
>  <smiles>  (41) 
CCC(=O)N(c1ccccc1)C1CCN(C(=O)[C@@H](N)C2CCc3ccc(Br)cc3C2)CC1

>  <score_type>  (41) 
oracle

>  <origin>  (41) 
autodockgpu

>  <m_score__min__energy>  (41) 
-8.7100000000000009

>  <m_primary>  (41) 
energy

>  <rmsd>  (41) 
6.094833290449194

>  <m_score__min__rmsd>  (41) 
6.094833290449194

>  <meeko>  (41) 
{"free_energy": -8.09, "intermolecular_energy": -10.18, "internal_energy": -2.12, "cluster_size": 10, "cluster_id": 3, "rank_in_cluster": 6}

>  <energy>  (41) 
-7.61

>  <cluster_rmsd>  (41) 
0.82

>  <cluster>  (41) 
5

$$$$

     RDKit          3D

 64 67  0  0  0  0  0  0  0  0999 V2000
  145.9020   74.1210  220.8710 C   0  0  0  0  0  0  0  0  0  0  0  0
  146.2400   72.7010  220.4440 C   0  0  0  0  0  0  0  0  0  0  0  0
  145.5120   72.4000  219.1590 C   0  0  0  0  0  0  0  0  0  0  0  0
  145.9490   73.0150  218.1440 O   0  0  0  0  0  0  0  0  0  0  0  0
  144.4280   71.5060  219.1030 N   0  0  0  0  0  0  0  0  0  0  0  0
  144.7140   70.1550  218.7210 C   0  0  0  0  0  0  0  0  0  0  0  0
  143.9570   69.4680  217.7900 C   0  0  0  0  0  0  0  0  0  0  0  0
  144.2400   68.1580  217.4210 C   0  0  0  0  0  0  0  0  0  0  0  0
  145.3060   67.5460  218.0070 C   0  0  0  0  0  0  0  0  0  0  0  0
  146.0960   68.1720  218.9380 C   0  0  0  0  0  0  0  0  0  0  0  0
  145.7950   69.4760  219.2910 C   0  0  0  0  0  0  0  0  0  0  0  0
  143.1040   71.9790  219.4130 C   0  0  0  0  0  0  0  0  0  0  0  0
  142.4340   71.2900  220.5480 C   0  0  0  0  0  0  0  0  0  0  0  0
  141.8670   72.2140  221.6020 C   0  0  0  0  0  0  0  0  0  0  0  0
  141.0820   73.2780  220.9950 N   0  0  0  0  0  0  0  0  0  0  0  0
  139.8860   73.6570  221.6550 C   0  0  0  0  0  0  0  0  0  0  0  0
  139.6680   73.0200  222.7510 O   0  0  0  0  0  0  0  0  0  0  0  0
  138.9320   74.6630  221.2040 C   0  0  1  0  0  0  0  0  0  0  0  0
  137.6550   74.4970  221.8470 N   0  0  0  0  0  0  0  0  0  0  0  0
  139.4090   76.0820  221.1990 C   0  0  2  0  0  0  0  0  0  0  0  0
  139.5330   76.6270  219.8200 C   0  0  0  0  0  0  0  0  0  0  0  0
  140.9150   77.1060  219.4430 C   0  0  0  0  0  0  0  0  0  0  0  0
  141.3300   78.0780  220.5050 C   0  0  0  0  0  0  0  0  0  0  0  0
  141.8360   79.3040  220.1460 C   0  0  0  0  0  0  0  0  0  0  0  0
  142.2000   80.1570  221.1970 C   0  0  0  0  0  0  0  0  0  0  0  0
  142.0540   79.7710  222.5100 C   0  0  0  0  0  0  0  0  0  0  0  0
  142.5840   81.0110  223.8530 Br  0  0  0  0  0  0  0  0  0  0  0  0
  141.5370   78.5180  222.8100 C   0  0  0  0  0  0  0  0  0  0  0  0
  141.1680   77.6530  221.8010 C   0  0  0  0  0  0  0  0  0  0  0  0
  140.6220   76.3010  222.0660 C   0  0  0  0  0  0  0  0  0  0  0  0
  141.5970   73.8630  219.7860 C   0  0  0  0  0  0  0  0  0  0  0  0
  143.0870   73.4800  219.6930 C   0  0  0  0  0  0  0  0  0  0  0  0
  145.8879   74.1801  221.9693 H   0  0  0  0  0  0  0  0  0  0  0  0
  146.6605   74.8130  220.4763 H   0  0  0  0  0  0  0  0  0  0  0  0
  144.9131   74.3970  220.4763 H   0  0  0  0  0  0  0  0  0  0  0  0
  147.3247   72.6097  220.2857 H   0  0  0  0  0  0  0  0  0  0  0  0
  145.9334   71.9902  221.2254 H   0  0  0  0  0  0  0  0  0  0  0  0
  143.0998   69.9765  217.3245 H   0  0  0  0  0  0  0  0  0  0  0  0
  143.6219   67.6320  216.6785 H   0  0  0  0  0  0  0  0  0  0  0  0
  145.5429   66.5100  217.7231 H   0  0  0  0  0  0  0  0  0  0  0  0
  146.9497   67.6490  219.3938 H   0  0  0  0  0  0  0  0  0  0  0  0
  146.4201   69.9894  220.0364 H   0  0  0  0  0  0  0  0  0  0  0  0
  142.5339   71.7410  218.5028 H   0  0  0  0  0  0  0  0  0  0  0  0
  141.6093   70.6852  220.1430 H   0  0  0  0  0  0  0  0  0  0  0  0
  143.2079   70.6879  221.0465 H   0  0  0  0  0  0  0  0  0  0  0  0
  141.2235   71.6342  222.2801 H   0  0  0  0  0  0  0  0  0  0  0  0
  142.7019   72.6672  222.1566 H   0  0  0  0  0  0  0  0  0  0  0  0
  138.8096   74.4596  220.1299 H   0  0  0  0  0  0  0  0  0  0  0  0
  137.7020   73.9500  222.7370 H   0  0  0  0  0  0  0  0  0  0  0  0
  137.1810   75.4360  222.0230 H   0  0  0  0  0  0  0  0  0  0  0  0
  138.6233   76.6838  221.6792 H   0  0  0  0  0  0  0  0  0  0  0  0
  139.2418   75.8359  219.1133 H   0  0  0  0  0  0  0  0  0  0  0  0
  138.8803   77.5116  219.7800 H   0  0  0  0  0  0  0  0  0  0  0  0
  141.6152   76.2583  219.4084 H   0  0  0  0  0  0  0  0  0  0  0  0
  140.9165   77.5768  218.4488 H   0  0  0  0  0  0  0  0  0  0  0  0
  141.9491   79.5996  219.0925 H   0  0  0  0  0  0  0  0  0  0  0  0
  142.6094   81.1521  220.9685 H   0  0  0  0  0  0  0  0  0  0  0  0
  141.4208   78.2127  223.8604 H   0  0  0  0  0  0  0  0  0  0  0  0
  141.3842   75.5432  221.8317 H   0  0  0  0  0  0  0  0  0  0  0  0
  140.3409   76.2154  223.1260 H   0  0  0  0  0  0  0  0  0  0  0  0
  141.0518   73.4700  218.9152 H   0  0  0  0  0  0  0  0  0  0  0  0
  141.4749   74.9561  219.7984 H   0  0  0  0  0  0  0  0  0  0  0  0
  143.5751   74.0296  218.8746 H   0  0  0  0  0  0  0  0  0  0  0  0
  143.6316   73.7299  220.6155 H   0  0  0  0  0  0  0  0  0  0  0  0
  1  2  1  0
  2  3  1  0
  3  4  2  0
  3  5  1  0
  5  6  1  0
  6  7  2  0
  7  8  1  0
  8  9  2  0
  9 10  1  0
 10 11  2  0
  5 12  1  0
 12 13  1  0
 13 14  1  0
 14 15  1  0
 15 16  1  0
 16 17  2  0
 16 18  1  0
 18 19  1  0
 18 20  1  0
 20 21  1  0
 21 22  1  0
 22 23  1  0
 23 24  2  0
 24 25  1  0
 25 26  2  0
 26 27  1  0
 26 28  1  0
 28 29  2  0
 29 30  1  0
 15 31  1  0
 31 32  1  0
 11  6  1  0
 32 12  1  0
 30 20  1  0
 29 23  1  0
  1 33  1  0
  1 34  1  0
  1 35  1  0
  2 36  1  0
  2 37  1  0
  7 38  1  0
  8 39  1  0
  9 40  1  0
 10 41  1  0
 11 42  1  0
 12 43  1  0
 13 44  1  0
 13 45  1  0
 14 46  1  0
 14 47  1  0
 18 48  1  6
 19 49  1  0
 19 50  1  0
 20 51  1  1
 21 52  1  0
 21 53  1  0
 22 54  1  0
 22 55  1  0
 24 56  1  0
 25 57  1  0
 28 58  1  0
 30 59  1  0
 30 60  1  0
 31 61  1  0
 31 62  1  0
 32 63  1  0
 32 64  1  0
M  END
>  <smiles>  (42) 
CCC(=O)N(c1ccccc1)C1CCN(C(=O)[C@@H](N)C2CCc3ccc(Br)cc3C2)CC1

>  <score_type>  (42) 
oracle

>  <origin>  (42) 
autodockgpu

>  <m_score__min__energy>  (42) 
-8.7100000000000009

>  <m_primary>  (42) 
energy

>  <rmsd>  (42) 
5.531035793827179

>  <m_score__min__rmsd>  (42) 
5.531035793827179

>  <meeko>  (42) 
{"free_energy": -7.98, "intermolecular_energy": -10.07, "internal_energy": -2.51, "cluster_size": 15, "cluster_id": 2, "rank_in_cluster": 8}

>  <energy>  (42) 
-7.6

>  <cluster_rmsd>  (42) 
0.61

>  <cluster>  (42) 
5

$$$$

     RDKit          3D

 64 67  0  0  0  0  0  0  0  0999 V2000
  145.8620   74.1240  220.8640 C   0  0  0  0  0  0  0  0  0  0  0  0
  146.2190   72.6810  220.5410 C   0  0  0  0  0  0  0  0  0  0  0  0
  145.4830   72.2730  219.2920 C   0  0  0  0  0  0  0  0  0  0  0  0
  145.9080   72.8050  218.2260 O   0  0  0  0  0  0  0  0  0  0  0  0
  144.4040   71.3720  219.3170 N   0  0  0  0  0  0  0  0  0  0  0  0
  144.6970   69.9920  219.0640 C   0  0  0  0  0  0  0  0  0  0  0  0
  143.7100   69.0490  218.8490 C   0  0  0  0  0  0  0  0  0  0  0  0
  143.9990   67.7120  218.6020 C   0  0  0  0  0  0  0  0  0  0  0  0
  145.3080   67.3370  218.5720 C   0  0  0  0  0  0  0  0  0  0  0  0
  146.3340   68.2250  218.7790 C   0  0  0  0  0  0  0  0  0  0  0  0
  146.0220   69.5510  219.0250 C   0  0  0  0  0  0  0  0  0  0  0  0
  143.0770   71.8650  219.5800 C   0  0  0  0  0  0  0  0  0  0  0  0
  142.3840   71.2400  220.7380 C   0  0  0  0  0  0  0  0  0  0  0  0
  141.8040   72.2220  221.7320 C   0  0  0  0  0  0  0  0  0  0  0  0
  141.0340   73.2540  221.0540 N   0  0  0  0  0  0  0  0  0  0  0  0
  139.8280   73.6720  221.6720 C   0  0  0  0  0  0  0  0  0  0  0  0
  139.5890   73.0960  222.7980 O   0  0  0  0  0  0  0  0  0  0  0  0
  138.8850   74.6560  221.1520 C   0  0  1  0  0  0  0  0  0  0  0  0
  137.5800   74.4860  221.7340 N   0  0  0  0  0  0  0  0  0  0  0  0
  139.3450   76.0810  221.1390 C   0  0  2  0  0  0  0  0  0  0  0  0
  139.5930   76.5760  219.7580 C   0  0  0  0  0  0  0  0  0  0  0  0
  140.9990   77.0620  219.4960 C   0  0  0  0  0  0  0  0  0  0  0  0
  141.3010   78.0780  220.5550 C   0  0  0  0  0  0  0  0  0  0  0  0
  141.8250   79.2970  220.2000 C   0  0  0  0  0  0  0  0  0  0  0  0
  142.0770   80.1930  221.2480 C   0  0  0  0  0  0  0  0  0  0  0  0
  141.8120   79.8520  222.5550 C   0  0  0  0  0  0  0  0  0  0  0  0
  142.1980   81.1480  223.8950 Br  0  0  0  0  0  0  0  0  0  0  0  0
  141.2830   78.6040  222.8510 C   0  0  0  0  0  0  0  0  0  0  0  0
  141.0210   77.6980  221.8460 C   0  0  0  0  0  0  0  0  0  0  0  0
  140.4680   76.3480  222.1080 C   0  0  0  0  0  0  0  0  0  0  0  0
  141.5710   73.7720  219.8240 C   0  0  0  0  0  0  0  0  0  0  0  0
  143.0610   73.3790  219.7770 C   0  0  0  0  0  0  0  0  0  0  0  0
  145.8288   74.2581  221.9553 H   0  0  0  0  0  0  0  0  0  0  0  0
  146.6214   74.7944  220.4351 H   0  0  0  0  0  0  0  0  0  0  0  0
  144.8776   74.3630  220.4351 H   0  0  0  0  0  0  0  0  0  0  0  0
  147.3033   72.5951  220.3772 H   0  0  0  0  0  0  0  0  0  0  0  0
  145.9325   72.0263  221.3773 H   0  0  0  0  0  0  0  0  0  0  0  0
  142.6576   69.3680  218.8742 H   0  0  0  0  0  0  0  0  0  0  0  0
  143.1954   66.9795  218.4359 H   0  0  0  0  0  0  0  0  0  0  0  0
  145.5522   66.2828  218.3744 H   0  0  0  0  0  0  0  0  0  0  0  0
  147.3814   67.8902  218.7500 H   0  0  0  0  0  0  0  0  0  0  0  0
  146.8347   70.2729  219.1934 H   0  0  0  0  0  0  0  0  0  0  0  0
  142.5212   71.5792  218.6748 H   0  0  0  0  0  0  0  0  0  0  0  0
  141.5630   70.6184  220.3514 H   0  0  0  0  0  0  0  0  0  0  0  0
  143.1458   70.6613  221.2809 H   0  0  0  0  0  0  0  0  0  0  0  0
  141.1468   71.6823  222.4297 H   0  0  0  0  0  0  0  0  0  0  0  0
  142.6313   72.7013  222.2759 H   0  0  0  0  0  0  0  0  0  0  0  0
  138.8182   74.4291  220.0777 H   0  0  0  0  0  0  0  0  0  0  0  0
  136.9370   73.8980  221.1570 H   0  0  0  0  0  0  0  0  0  0  0  0
  137.6430   74.0930  222.7230 H   0  0  0  0  0  0  0  0  0  0  0  0
  138.5118   76.6897  221.5201 H   0  0  0  0  0  0  0  0  0  0  0  0
  139.3800   75.7547  219.0579 H   0  0  0  0  0  0  0  0  0  0  0  0
  138.9364   77.4479  219.6218 H   0  0  0  0  0  0  0  0  0  0  0  0
  141.7089   76.2241  219.5595 H   0  0  0  0  0  0  0  0  0  0  0  0
  141.0890   77.4969  218.4896 H   0  0  0  0  0  0  0  0  0  0  0  0
  142.0352   79.5556  219.1517 H   0  0  0  0  0  0  0  0  0  0  0  0
  142.4937   81.1857  221.0221 H   0  0  0  0  0  0  0  0  0  0  0  0
  141.0710   78.3354  223.8964 H   0  0  0  0  0  0  0  0  0  0  0  0
  141.2575   75.5938  221.9744 H   0  0  0  0  0  0  0  0  0  0  0  0
  140.0892   76.2954  223.1394 H   0  0  0  0  0  0  0  0  0  0  0  0
  141.0385   73.3349  218.9664 H   0  0  0  0  0  0  0  0  0  0  0  0
  141.4532   74.8646  219.7755 H   0  0  0  0  0  0  0  0  0  0  0  0
  143.5649   73.8813  218.9380 H   0  0  0  0  0  0  0  0  0  0  0  0
  143.5910   73.6771  220.6936 H   0  0  0  0  0  0  0  0  0  0  0  0
  1  2  1  0
  2  3  1  0
  3  4  2  0
  3  5  1  0
  5  6  1  0
  6  7  2  0
  7  8  1  0
  8  9  2  0
  9 10  1  0
 10 11  2  0
  5 12  1  0
 12 13  1  0
 13 14  1  0
 14 15  1  0
 15 16  1  0
 16 17  2  0
 16 18  1  0
 18 19  1  0
 18 20  1  0
 20 21  1  0
 21 22  1  0
 22 23  1  0
 23 24  2  0
 24 25  1  0
 25 26  2  0
 26 27  1  0
 26 28  1  0
 28 29  2  0
 29 30  1  0
 15 31  1  0
 31 32  1  0
 11  6  1  0
 32 12  1  0
 30 20  1  0
 29 23  1  0
  1 33  1  0
  1 34  1  0
  1 35  1  0
  2 36  1  0
  2 37  1  0
  7 38  1  0
  8 39  1  0
  9 40  1  0
 10 41  1  0
 11 42  1  0
 12 43  1  0
 13 44  1  0
 13 45  1  0
 14 46  1  0
 14 47  1  0
 18 48  1  6
 19 49  1  0
 19 50  1  0
 20 51  1  1
 21 52  1  0
 21 53  1  0
 22 54  1  0
 22 55  1  0
 24 56  1  0
 25 57  1  0
 28 58  1  0
 30 59  1  0
 30 60  1  0
 31 61  1  0
 31 62  1  0
 32 63  1  0
 32 64  1  0
M  END
>  <smiles>  (43) 
CCC(=O)N(c1ccccc1)C1CCN(C(=O)[C@@H](N)C2CCc3ccc(Br)cc3C2)CC1

>  <score_type>  (43) 
oracle

>  <origin>  (43) 
autodockgpu

>  <m_score__min__energy>  (43) 
-8.7100000000000009

>  <m_primary>  (43) 
energy

>  <rmsd>  (43) 
5.538902164792695

>  <m_score__min__rmsd>  (43) 
5.538902164792695

>  <meeko>  (43) 
{"free_energy": -8.05, "intermolecular_energy": -10.14, "internal_energy": -2.45, "cluster_size": 15, "cluster_id": 2, "rank_in_cluster": 7}

>  <energy>  (43) 
-7.59

>  <cluster_rmsd>  (43) 
0.38

>  <cluster>  (43) 
5

$$$$

     RDKit          3D

 64 67  0  0  0  0  0  0  0  0999 V2000
  138.0210   80.5600  224.5700 C   0  0  0  0  0  0  0  0  0  0  0  0
  137.8280   80.3830  223.0720 C   0  0  0  0  0  0  0  0  0  0  0  0
  138.0790   78.9400  222.7220 C   0  0  0  0  0  0  0  0  0  0  0  0
  137.0540   78.2000  222.7480 O   0  0  0  0  0  0  0  0  0  0  0  0
  139.3590   78.4580  222.3970 N   0  0  0  0  0  0  0  0  0  0  0  0
  140.4760   79.2980  222.7190 C   0  0  0  0  0  0  0  0  0  0  0  0
  141.2480   79.1080  223.8490 C   0  0  0  0  0  0  0  0  0  0  0  0
  142.3310   79.9240  224.1560 C   0  0  0  0  0  0  0  0  0  0  0  0
  142.6280   80.9400  223.3000 C   0  0  0  0  0  0  0  0  0  0  0  0
  141.9000   81.1820  222.1610 C   0  0  0  0  0  0  0  0  0  0  0  0
  140.8250   80.3580  221.8770 C   0  0  0  0  0  0  0  0  0  0  0  0
  139.4910   77.1750  221.7570 C   0  0  0  0  0  0  0  0  0  0  0  0
  140.8100   76.9150  221.1220 C   0  0  0  0  0  0  0  0  0  0  0  0
  141.4540   75.6040  221.5160 C   0  0  0  0  0  0  0  0  0  0  0  0
  140.5050   74.5050  221.4080 N   0  0  0  0  0  0  0  0  0  0  0  0
  140.9950   73.2770  220.8970 C   0  0  0  0  0  0  0  0  0  0  0  0
  142.2520   73.2850  220.6270 O   0  0  0  0  0  0  0  0  0  0  0  0
  140.2160   72.0650  220.6660 C   0  0  1  0  0  0  0  0  0  0  0  0
  140.6510   71.3840  219.4750 N   0  0  0  0  0  0  0  0  0  0  0  0
  140.0400   71.1500  221.8380 C   0  0  2  0  0  0  0  0  0  0  0  0
  138.7990   70.3350  221.7300 C   0  0  0  0  0  0  0  0  0  0  0  0
  137.8180   70.5100  222.8660 C   0  0  0  0  0  0  0  0  0  0  0  0
  138.5840   70.2630  224.1290 C   0  0  0  0  0  0  0  0  0  0  0  0
  138.0770   69.4070  225.0760 C   0  0  0  0  0  0  0  0  0  0  0  0
  138.8530   69.2270  226.2290 C   0  0  0  0  0  0  0  0  0  0  0  0
  140.0530   69.8820  226.3880 C   0  0  0  0  0  0  0  0  0  0  0  0
  141.0200   69.5620  227.9970 Br  0  0  0  0  0  0  0  0  0  0  0  0
  140.5130   70.7360  225.3960 C   0  0  0  0  0  0  0  0  0  0  0  0
  139.7760   70.9360  224.2480 C   0  0  0  0  0  0  0  0  0  0  0  0
  140.2150   71.8460  223.1630 C   0  0  0  0  0  0  0  0  0  0  0  0
  139.1580   74.7580  221.8450 C   0  0  0  0  0  0  0  0  0  0  0  0
  139.1920   76.0270  222.7190 C   0  0  0  0  0  0  0  0  0  0  0  0
  137.3146   79.9122  225.1098 H   0  0  0  0  0  0  0  0  0  0  0  0
  139.0510   80.2860  224.8419 H   0  0  0  0  0  0  0  0  0  0  0  0
  137.8369   81.6099  224.8419 H   0  0  0  0  0  0  0  0  0  0  0  0
  136.7992   80.6577  222.7960 H   0  0  0  0  0  0  0  0  0  0  0  0
  138.5289   81.0298  222.5240 H   0  0  0  0  0  0  0  0  0  0  0  0
  140.9968   78.2816  224.5301 H   0  0  0  0  0  0  0  0  0  0  0  0
  142.9296   79.7538  225.0630 H   0  0  0  0  0  0  0  0  0  0  0  0
  143.4838   81.5920  223.5294 H   0  0  0  0  0  0  0  0  0  0  0  0
  142.1653   82.0120  221.4896 H   0  0  0  0  0  0  0  0  0  0  0  0
  140.2321   80.5411  220.9687 H   0  0  0  0  0  0  0  0  0  0  0  0
  138.7440   77.2191  220.9508 H   0  0  0  0  0  0  0  0  0  0  0  0
  140.6707   76.9140  220.0309 H   0  0  0  0  0  0  0  0  0  0  0  0
  141.4851   77.7101  221.4714 H   0  0  0  0  0  0  0  0  0  0  0  0
  142.3084   75.4085  220.8513 H   0  0  0  0  0  0  0  0  0  0  0  0
  141.7888   75.6774  222.5612 H   0  0  0  0  0  0  0  0  0  0  0  0
  139.1901   72.4272  220.5039 H   0  0  0  0  0  0  0  0  0  0  0  0
  139.9780   71.4600  218.6790 H   0  0  0  0  0  0  0  0  0  0  0  0
  141.6160   71.7170  219.1670 H   0  0  0  0  0  0  0  0  0  0  0  0
  140.8671   70.4256  221.8049 H   0  0  0  0  0  0  0  0  0  0  0  0
  138.2902   70.6107  220.7945 H   0  0  0  0  0  0  0  0  0  0  0  0
  139.1190   69.2830  221.7601 H   0  0  0  0  0  0  0  0  0  0  0  0
  137.4101   71.5316  222.8622 H   0  0  0  0  0  0  0  0  0  0  0  0
  136.9707   69.8149  222.7714 H   0  0  0  0  0  0  0  0  0  0  0  0
  137.1153   68.8914  224.9371 H   0  0  0  0  0  0  0  0  0  0  0  0
  138.4970   68.5508  227.0203 H   0  0  0  0  0  0  0  0  0  0  0  0
  141.4728   71.2574  225.5263 H   0  0  0  0  0  0  0  0  0  0  0  0
  139.6067   72.7623  223.1814 H   0  0  0  0  0  0  0  0  0  0  0  0
  141.2727   72.1119  223.3062 H   0  0  0  0  0  0  0  0  0  0  0  0
  138.5035   74.9170  220.9754 H   0  0  0  0  0  0  0  0  0  0  0  0
  138.7656   73.9026  222.4145 H   0  0  0  0  0  0  0  0  0  0  0  0
  138.2206   76.1810  223.2117 H   0  0  0  0  0  0  0  0  0  0  0  0
  139.9467   75.9544  223.5159 H   0  0  0  0  0  0  0  0  0  0  0  0
  1  2  1  0
  2  3  1  0
  3  4  2  0
  3  5  1  0
  5  6  1  0
  6  7  2  0
  7  8  1  0
  8  9  2  0
  9 10  1  0
 10 11  2  0
  5 12  1  0
 12 13  1  0
 13 14  1  0
 14 15  1  0
 15 16  1  0
 16 17  2  0
 16 18  1  0
 18 19  1  0
 18 20  1  0
 20 21  1  0
 21 22  1  0
 22 23  1  0
 23 24  2  0
 24 25  1  0
 25 26  2  0
 26 27  1  0
 26 28  1  0
 28 29  2  0
 29 30  1  0
 15 31  1  0
 31 32  1  0
 11  6  1  0
 32 12  1  0
 30 20  1  0
 29 23  1  0
  1 33  1  0
  1 34  1  0
  1 35  1  0
  2 36  1  0
  2 37  1  0
  7 38  1  0
  8 39  1  0
  9 40  1  0
 10 41  1  0
 11 42  1  0
 12 43  1  0
 13 44  1  0
 13 45  1  0
 14 46  1  0
 14 47  1  0
 18 48  1  6
 19 49  1  0
 19 50  1  0
 20 51  1  6
 21 52  1  0
 21 53  1  0
 22 54  1  0
 22 55  1  0
 24 56  1  0
 25 57  1  0
 28 58  1  0
 30 59  1  0
 30 60  1  0
 31 61  1  0
 31 62  1  0
 32 63  1  0
 32 64  1  0
M  END
>  <smiles>  (44) 
CCC(=O)N(c1ccccc1)C1CCN(C(=O)[C@@H](N)C2CCc3ccc(Br)cc3C2)CC1

>  <score_type>  (44) 
oracle

>  <origin>  (44) 
autodockgpu

>  <m_score__min__energy>  (44) 
-8.7100000000000009

>  <m_primary>  (44) 
energy

>  <rmsd>  (44) 
7.987272844047625

>  <m_score__min__rmsd>  (44) 
7.987272844047625

>  <meeko>  (44) 
{"free_energy": -7.81, "intermolecular_energy": -9.9, "internal_energy": -2.34, "cluster_size": 14, "cluster_id": 5, "rank_in_cluster": 1}

>  <energy>  (44) 
-7.58

>  <cluster_rmsd>  (44) 
0.49

>  <cluster>  (44) 
5

$$$$

     RDKit          3D

 64 67  0  0  0  0  0  0  0  0999 V2000
  138.0590   80.5790  224.5610 C   0  0  0  0  0  0  0  0  0  0  0  0
  137.8660   80.3870  223.0650 C   0  0  0  0  0  0  0  0  0  0  0  0
  138.1060   78.9370  222.7320 C   0  0  0  0  0  0  0  0  0  0  0  0
  137.0790   78.2020  222.7850 O   0  0  0  0  0  0  0  0  0  0  0  0
  139.3790   78.4460  222.3930 N   0  0  0  0  0  0  0  0  0  0  0  0
  140.5060   79.2730  222.7110 C   0  0  0  0  0  0  0  0  0  0  0  0
  141.2690   79.0840  223.8480 C   0  0  0  0  0  0  0  0  0  0  0  0
  142.3620   79.8870  224.1520 C   0  0  0  0  0  0  0  0  0  0  0  0
  142.6790   80.8900  223.2860 C   0  0  0  0  0  0  0  0  0  0  0  0
  141.9610   81.1290  222.1410 C   0  0  0  0  0  0  0  0  0  0  0  0
  140.8750   80.3180  221.8600 C   0  0  0  0  0  0  0  0  0  0  0  0
  139.4940   77.1660  221.7430 C   0  0  0  0  0  0  0  0  0  0  0  0
  140.7910   76.9140  221.0610 C   0  0  0  0  0  0  0  0  0  0  0  0
  141.4530   75.6040  221.4270 C   0  0  0  0  0  0  0  0  0  0  0  0
  140.5060   74.5020  221.3470 N   0  0  0  0  0  0  0  0  0  0  0  0
  140.9820   73.2780  220.8130 C   0  0  0  0  0  0  0  0  0  0  0  0
  142.2290   73.2920  220.5000 O   0  0  0  0  0  0  0  0  0  0  0  0
  140.2000   72.0650  220.6040 C   0  0  1  0  0  0  0  0  0  0  0  0
  140.6130   71.3780  219.4080 N   0  0  0  0  0  0  0  0  0  0  0  0
  140.0470   71.1550  221.7840 C   0  0  2  0  0  0  0  0  0  0  0  0
  138.8530   70.2760  221.6620 C   0  0  0  0  0  0  0  0  0  0  0  0
  137.8410   70.4130  222.7740 C   0  0  0  0  0  0  0  0  0  0  0  0
  138.5920   70.2220  224.0560 C   0  0  0  0  0  0  0  0  0  0  0  0
  138.1100   69.3510  225.0040 C   0  0  0  0  0  0  0  0  0  0  0  0
  138.8710   69.2260  226.1750 C   0  0  0  0  0  0  0  0  0  0  0  0
  140.0320   69.9440  226.3490 C   0  0  0  0  0  0  0  0  0  0  0  0
  140.9800   69.6950  227.9810 Br  0  0  0  0  0  0  0  0  0  0  0  0
  140.4670   70.8090  225.3550 C   0  0  0  0  0  0  0  0  0  0  0  0
  139.7450   70.9570  224.1900 C   0  0  0  0  0  0  0  0  0  0  0  0
  140.1580   71.8750  223.1030 C   0  0  0  0  0  0  0  0  0  0  0  0
  139.1730   74.7480  221.8300 C   0  0  0  0  0  0  0  0  0  0  0  0
  139.2330   76.0130  222.7090 C   0  0  0  0  0  0  0  0  0  0  0  0
  137.3822   79.9057  225.1074 H   0  0  0  0  0  0  0  0  0  0  0  0
  139.1007   80.3484  224.8289 H   0  0  0  0  0  0  0  0  0  0  0  0
  137.8338   81.6218  224.8289 H   0  0  0  0  0  0  0  0  0  0  0  0
  136.8397   80.6667  222.7847 H   0  0  0  0  0  0  0  0  0  0  0  0
  138.5723   81.0221  222.5102 H   0  0  0  0  0  0  0  0  0  0  0  0
  141.0016   78.2691  224.5368 H   0  0  0  0  0  0  0  0  0  0  0  0
  142.9532   79.7179  225.0641 H   0  0  0  0  0  0  0  0  0  0  0  0
  143.5427   81.5322  223.5130 H   0  0  0  0  0  0  0  0  0  0  0  0
  142.2424   81.9470  221.4616 H   0  0  0  0  0  0  0  0  0  0  0  0
  140.2896   80.5002  220.9467 H   0  0  0  0  0  0  0  0  0  0  0  0
  138.7193   77.2108  220.9634 H   0  0  0  0  0  0  0  0  0  0  0  0
  140.6136   76.9168  219.9754 H   0  0  0  0  0  0  0  0  0  0  0  0
  141.4749   77.7104  221.3896 H   0  0  0  0  0  0  0  0  0  0  0  0
  142.2849   75.4148  220.7326 H   0  0  0  0  0  0  0  0  0  0  0  0
  141.8229   75.6745  222.4606 H   0  0  0  0  0  0  0  0  0  0  0  0
  139.1708   72.4259  220.4607 H   0  0  0  0  0  0  0  0  0  0  0  0
  141.5330   71.7030  219.0350 H   0  0  0  0  0  0  0  0  0  0  0  0
  140.6330   70.3210  219.5530 H   0  0  0  0  0  0  0  0  0  0  0  0
  140.9106   70.4737  221.7762 H   0  0  0  0  0  0  0  0  0  0  0  0
  138.3505   70.5134  220.7127 H   0  0  0  0  0  0  0  0  0  0  0  0
  139.2266   69.2427  221.7132 H   0  0  0  0  0  0  0  0  0  0  0  0
  137.3804   71.4116  222.7482 H   0  0  0  0  0  0  0  0  0  0  0  0
  137.0334   69.6733  222.6712 H   0  0  0  0  0  0  0  0  0  0  0  0
  137.1797   68.7840  224.8524 H   0  0  0  0  0  0  0  0  0  0  0  0
  138.5342   68.5423  226.9682 H   0  0  0  0  0  0  0  0  0  0  0  0
  141.3955   71.3813  225.4978 H   0  0  0  0  0  0  0  0  0  0  0  0
  139.5025   72.7583  223.0973 H   0  0  0  0  0  0  0  0  0  0  0  0
  141.1972   72.1977  223.2639 H   0  0  0  0  0  0  0  0  0  0  0  0
  138.4892   74.9093  220.9836 H   0  0  0  0  0  0  0  0  0  0  0  0
  138.8020   73.8884  222.4075 H   0  0  0  0  0  0  0  0  0  0  0  0
  138.2789   76.1610  223.2361 H   0  0  0  0  0  0  0  0  0  0  0  0
  140.0152   75.9394  223.4789 H   0  0  0  0  0  0  0  0  0  0  0  0
  1  2  1  0
  2  3  1  0
  3  4  2  0
  3  5  1  0
  5  6  1  0
  6  7  2  0
  7  8  1  0
  8  9  2  0
  9 10  1  0
 10 11  2  0
  5 12  1  0
 12 13  1  0
 13 14  1  0
 14 15  1  0
 15 16  1  0
 16 17  2  0
 16 18  1  0
 18 19  1  0
 18 20  1  0
 20 21  1  0
 21 22  1  0
 22 23  1  0
 23 24  2  0
 24 25  1  0
 25 26  2  0
 26 27  1  0
 26 28  1  0
 28 29  2  0
 29 30  1  0
 15 31  1  0
 31 32  1  0
 11  6  1  0
 32 12  1  0
 30 20  1  0
 29 23  1  0
  1 33  1  0
  1 34  1  0
  1 35  1  0
  2 36  1  0
  2 37  1  0
  7 38  1  0
  8 39  1  0
  9 40  1  0
 10 41  1  0
 11 42  1  0
 12 43  1  0
 13 44  1  0
 13 45  1  0
 14 46  1  0
 14 47  1  0
 18 48  1  6
 19 49  1  0
 19 50  1  0
 20 51  1  1
 21 52  1  0
 21 53  1  0
 22 54  1  0
 22 55  1  0
 24 56  1  0
 25 57  1  0
 28 58  1  0
 30 59  1  0
 30 60  1  0
 31 61  1  0
 31 62  1  0
 32 63  1  0
 32 64  1  0
M  END
>  <smiles>  (45) 
CCC(=O)N(c1ccccc1)C1CCN(C(=O)[C@@H](N)C2CCc3ccc(Br)cc3C2)CC1

>  <score_type>  (45) 
oracle

>  <origin>  (45) 
autodockgpu

>  <m_score__min__energy>  (45) 
-8.7100000000000009

>  <m_primary>  (45) 
energy

>  <rmsd>  (45) 
7.945600910173119

>  <m_score__min__rmsd>  (45) 
7.945600910173119

>  <meeko>  (45) 
{"free_energy": -7.79, "intermolecular_energy": -9.88, "internal_energy": -2.29, "cluster_size": 14, "cluster_id": 5, "rank_in_cluster": 4}

>  <energy>  (45) 
-7.55

>  <cluster_rmsd>  (45) 
0.51

>  <cluster>  (45) 
5

$$$$

     RDKit          3D

 64 67  0  0  0  0  0  0  0  0999 V2000
  146.1790   74.0680  216.2590 C   0  0  0  0  0  0  0  0  0  0  0  0
  144.8720   73.5130  216.8040 C   0  0  0  0  0  0  0  0  0  0  0  0
  145.1620   72.7710  218.0830 C   0  0  0  0  0  0  0  0  0  0  0  0
  146.2580   73.0740  218.6360 O   0  0  0  0  0  0  0  0  0  0  0  0
  144.2780   71.8150  218.6130 N   0  0  0  0  0  0  0  0  0  0  0  0
  144.7170   70.4510  218.6220 C   0  0  0  0  0  0  0  0  0  0  0  0
  144.0360   69.4460  217.9620 C   0  0  0  0  0  0  0  0  0  0  0  0
  144.4670   68.1240  217.9710 C   0  0  0  0  0  0  0  0  0  0  0  0
  145.6050   67.8290  218.6580 C   0  0  0  0  0  0  0  0  0  0  0  0
  146.3270   68.7810  219.3340 C   0  0  0  0  0  0  0  0  0  0  0  0
  145.8770   70.0900  219.3120 C   0  0  0  0  0  0  0  0  0  0  0  0
  142.9910   72.2370  219.1040 C   0  0  0  0  0  0  0  0  0  0  0  0
  142.4770   71.4760  220.2740 C   0  0  0  0  0  0  0  0  0  0  0  0
  142.0240   72.3320  221.4340 C   0  0  0  0  0  0  0  0  0  0  0  0
  141.1490   73.4030  220.9800 N   0  0  0  0  0  0  0  0  0  0  0  0
  140.0330   73.7170  221.7970 C   0  0  0  0  0  0  0  0  0  0  0  0
  139.9630   73.0230  222.8780 O   0  0  0  0  0  0  0  0  0  0  0  0
  139.0110   74.7180  221.5160 C   0  0  1  0  0  0  0  0  0  0  0  0
  137.8400   74.5100  222.3280 N   0  0  0  0  0  0  0  0  0  0  0  0
  139.4620   76.1450  221.4870 C   0  0  2  0  0  0  0  0  0  0  0  0
  139.5630   76.6720  220.0990 C   0  0  0  0  0  0  0  0  0  0  0  0
  140.9320   77.1710  219.7010 C   0  0  0  0  0  0  0  0  0  0  0  0
  141.3410   78.1650  220.7450 C   0  0  0  0  0  0  0  0  0  0  0  0
  141.8210   79.3950  220.3640 C   0  0  0  0  0  0  0  0  0  0  0  0
  142.1790   80.2680  221.4000 C   0  0  0  0  0  0  0  0  0  0  0  0
  142.0520   79.8980  222.7200 C   0  0  0  0  0  0  0  0  0  0  0  0
  142.5730   81.1670  224.0400 Br  0  0  0  0  0  0  0  0  0  0  0  0
  141.5610   78.6410  223.0420 C   0  0  0  0  0  0  0  0  0  0  0  0
  141.1980   77.7560  222.0500 C   0  0  0  0  0  0  0  0  0  0  0  0
  140.6800   76.3980  222.3390 C   0  0  0  0  0  0  0  0  0  0  0  0
  141.5010   74.0590  219.7500 C   0  0  0  0  0  0  0  0  0  0  0  0
  142.9770   73.7210  219.4590 C   0  0  0  0  0  0  0  0  0  0  0  0
  146.8361   74.3470  217.0958 H   0  0  0  0  0  0  0  0  0  0  0  0
  146.6741   73.3025  215.6435 H   0  0  0  0  0  0  0  0  0  0  0  0
  145.9720   74.9559  215.6435 H   0  0  0  0  0  0  0  0  0  0  0  0
  144.1736   74.3388  217.0047 H   0  0  0  0  0  0  0  0  0  0  0  0
  144.4168   72.8326  216.0693 H   0  0  0  0  0  0  0  0  0  0  0  0
  143.1197   69.7010  217.4095 H   0  0  0  0  0  0  0  0  0  0  0  0
  143.9061   67.3410  217.4397 H   0  0  0  0  0  0  0  0  0  0  0  0
  145.9595   66.7878  218.6719 H   0  0  0  0  0  0  0  0  0  0  0  0
  147.2422   68.5099  219.8807 H   0  0  0  0  0  0  0  0  0  0  0  0
  146.4454   70.8631  219.8498 H   0  0  0  0  0  0  0  0  0  0  0  0
  142.3196   72.0276  218.2582 H   0  0  0  0  0  0  0  0  0  0  0  0
  141.6214   70.8707  219.9401 H   0  0  0  0  0  0  0  0  0  0  0  0
  143.3172   70.8702  220.6442 H   0  0  0  0  0  0  0  0  0  0  0  0
  141.4797   71.7034  222.1542 H   0  0  0  0  0  0  0  0  0  0  0  0
  142.9105   72.7797  221.9070 H   0  0  0  0  0  0  0  0  0  0  0  0
  138.7411   74.5435  220.4640 H   0  0  0  0  0  0  0  0  0  0  0  0
  137.8000   73.5650  222.7710 H   0  0  0  0  0  0  0  0  0  0  0  0
  137.7450   75.2660  223.0750 H   0  0  0  0  0  0  0  0  0  0  0  0
  138.6706   76.7394  221.9669 H   0  0  0  0  0  0  0  0  0  0  0  0
  139.2798   75.8654  219.4068 H   0  0  0  0  0  0  0  0  0  0  0  0
  138.8939   77.5439  220.0530 H   0  0  0  0  0  0  0  0  0  0  0  0
  141.6471   76.3357  219.6703 H   0  0  0  0  0  0  0  0  0  0  0  0
  140.9141   77.6284  218.7008 H   0  0  0  0  0  0  0  0  0  0  0  0
  141.9187   79.6782  219.3056 H   0  0  0  0  0  0  0  0  0  0  0  0
  142.5685   81.2669  221.1542 H   0  0  0  0  0  0  0  0  0  0  0  0
  141.4607   78.3484  224.0976 H   0  0  0  0  0  0  0  0  0  0  0  0
  141.4537   75.6512  222.1072 H   0  0  0  0  0  0  0  0  0  0  0  0
  140.4114   76.3216  223.4030 H   0  0  0  0  0  0  0  0  0  0  0  0
  140.8625   73.6939  218.9321 H   0  0  0  0  0  0  0  0  0  0  0  0
  141.3586   75.1466  219.8329 H   0  0  0  0  0  0  0  0  0  0  0  0
  143.3504   74.3217  218.6165 H   0  0  0  0  0  0  0  0  0  0  0  0
  143.6245   73.9415  220.3205 H   0  0  0  0  0  0  0  0  0  0  0  0
  1  2  1  0
  2  3  1  0
  3  4  2  0
  3  5  1  0
  5  6  1  0
  6  7  2  0
  7  8  1  0
  8  9  2  0
  9 10  1  0
 10 11  2  0
  5 12  1  0
 12 13  1  0
 13 14  1  0
 14 15  1  0
 15 16  1  0
 16 17  2  0
 16 18  1  0
 18 19  1  0
 18 20  1  0
 20 21  1  0
 21 22  1  0
 22 23  1  0
 23 24  2  0
 24 25  1  0
 25 26  2  0
 26 27  1  0
 26 28  1  0
 28 29  2  0
 29 30  1  0
 15 31  1  0
 31 32  1  0
 11  6  1  0
 32 12  1  0
 30 20  1  0
 29 23  1  0
  1 33  1  0
  1 34  1  0
  1 35  1  0
  2 36  1  0
  2 37  1  0
  7 38  1  0
  8 39  1  0
  9 40  1  0
 10 41  1  0
 11 42  1  0
 12 43  1  0
 13 44  1  0
 13 45  1  0
 14 46  1  0
 14 47  1  0
 18 48  1  6
 19 49  1  0
 19 50  1  0
 20 51  1  1
 21 52  1  0
 21 53  1  0
 22 54  1  0
 22 55  1  0
 24 56  1  0
 25 57  1  0
 28 58  1  0
 30 59  1  0
 30 60  1  0
 31 61  1  0
 31 62  1  0
 32 63  1  0
 32 64  1  0
M  END
>  <smiles>  (46) 
CCC(=O)N(c1ccccc1)C1CCN(C(=O)[C@@H](N)C2CCc3ccc(Br)cc3C2)CC1

>  <score_type>  (46) 
oracle

>  <origin>  (46) 
autodockgpu

>  <m_score__min__energy>  (46) 
-8.7100000000000009

>  <m_primary>  (46) 
energy

>  <rmsd>  (46) 
5.4238749010322005

>  <m_score__min__rmsd>  (46) 
5.4238749010322005

>  <meeko>  (46) 
{"free_energy": -7.92, "intermolecular_energy": -10.01, "internal_energy": -2.4, "cluster_size": 15, "cluster_id": 2, "rank_in_cluster": 10}

>  <energy>  (46) 
-7.53

>  <cluster_rmsd>  (46) 
0.68

>  <cluster>  (46) 
5

$$$$

     RDKit          3D

 64 67  0  0  0  0  0  0  0  0999 V2000
  145.9670   73.0840  221.6280 C   0  0  0  0  0  0  0  0  0  0  0  0
  146.2500   73.7660  220.2980 C   0  0  0  0  0  0  0  0  0  0  0  0
  145.5140   73.0240  219.2130 C   0  0  0  0  0  0  0  0  0  0  0  0
  145.8940   71.8310  219.0330 O   0  0  0  0  0  0  0  0  0  0  0  0
  144.4870   73.6200  218.4600 N   0  0  0  0  0  0  0  0  0  0  0  0
  144.8380   74.1430  217.1720 C   0  0  0  0  0  0  0  0  0  0  0  0
  144.0790   75.1000  216.5260 C   0  0  0  0  0  0  0  0  0  0  0  0
  144.4250   75.6060  215.2780 C   0  0  0  0  0  0  0  0  0  0  0  0
  145.5560   75.1310  214.6880 C   0  0  0  0  0  0  0  0  0  0  0  0
  146.3520   74.1800  215.2770 C   0  0  0  0  0  0  0  0  0  0  0  0
  145.9870   73.6900  216.5190 C   0  0  0  0  0  0  0  0  0  0  0  0
  143.1570   73.6880  219.0080 C   0  0  0  0  0  0  0  0  0  0  0  0
  142.7670   72.5430  219.8720 C   0  0  0  0  0  0  0  0  0  0  0  0
  142.2030   72.9330  221.2200 C   0  0  0  0  0  0  0  0  0  0  0  0
  141.1790   73.9580  221.0800 N   0  0  0  0  0  0  0  0  0  0  0  0
  140.0370   73.8490  221.9120 C   0  0  0  0  0  0  0  0  0  0  0  0
  140.0750   72.8560  222.7280 O   0  0  0  0  0  0  0  0  0  0  0  0
  138.8790   74.7360  221.9090 C   0  0  1  0  0  0  0  0  0  0  0  0
  137.6900   74.0420  222.3320 N   0  0  0  0  0  0  0  0  0  0  0  0
  139.0530   76.0660  222.5750 C   0  0  2  0  0  0  0  0  0  0  0  0
  137.7640   76.7950  222.7140 C   0  0  0  0  0  0  0  0  0  0  0  0
  137.7170   78.1470  222.0420 C   0  0  0  0  0  0  0  0  0  0  0  0
  138.8940   78.9170  222.5570 C   0  0  0  0  0  0  0  0  0  0  0  0
  138.7190   80.1970  223.0260 C   0  0  0  0  0  0  0  0  0  0  0  0
  139.8680   80.8490  223.4920 C   0  0  0  0  0  0  0  0  0  0  0  0
  141.0970   80.2290  223.4720 C   0  0  0  0  0  0  0  0  0  0  0  0
  142.5880   81.2140  224.1280 Br  0  0  0  0  0  0  0  0  0  0  0  0
  141.2110   78.9340  222.9850 C   0  0  0  0  0  0  0  0  0  0  0  0
  140.1010   78.2610  222.5190 C   0  0  0  0  0  0  0  0  0  0  0  0
  140.1700   76.8830  221.9780 C   0  0  0  0  0  0  0  0  0  0  0  0
  141.4250   75.0010  220.1200 C   0  0  0  0  0  0  0  0  0  0  0  0
  142.9320   74.9760  219.7950 C   0  0  0  0  0  0  0  0  0  0  0  0
  146.2463   73.7571  222.4520 H   0  0  0  0  0  0  0  0  0  0  0  0
  144.8955   72.8451  221.6969 H   0  0  0  0  0  0  0  0  0  0  0  0
  146.5546   72.1566  221.6969 H   0  0  0  0  0  0  0  0  0  0  0  0
  145.9030   74.8092  220.3349 H   0  0  0  0  0  0  0  0  0  0  0  0
  147.3307   73.7578  220.0932 H   0  0  0  0  0  0  0  0  0  0  0  0
  143.1686   75.4749  217.0165 H   0  0  0  0  0  0  0  0  0  0  0  0
  143.8039   76.3668  214.7827 H   0  0  0  0  0  0  0  0  0  0  0  0
  145.8432   75.5241  213.7016 H   0  0  0  0  0  0  0  0  0  0  0  0
  147.2594   73.8157  214.7732 H   0  0  0  0  0  0  0  0  0  0  0  0
  146.6153   72.9274  217.0024 H   0  0  0  0  0  0  0  0  0  0  0  0
  142.5162   73.6550  218.1145 H   0  0  0  0  0  0  0  0  0  0  0  0
  142.0054   71.9551  219.3388 H   0  0  0  0  0  0  0  0  0  0  0  0
  143.6884   71.9765  220.0724 H   0  0  0  0  0  0  0  0  0  0  0  0
  141.7607   72.0451  221.6954 H   0  0  0  0  0  0  0  0  0  0  0  0
  143.0191   73.3349  221.8385 H   0  0  0  0  0  0  0  0  0  0  0  0
  138.7586   75.0236  220.8541 H   0  0  0  0  0  0  0  0  0  0  0  0
  137.8760   73.0900  222.7200 H   0  0  0  0  0  0  0  0  0  0  0  0
  137.1320   74.6180  223.0350 H   0  0  0  0  0  0  0  0  0  0  0  0
  139.3859   75.8675  223.6044 H   0  0  0  0  0  0  0  0  0  0  0  0
  136.9704   76.1701  222.2784 H   0  0  0  0  0  0  0  0  0  0  0  0
  137.6327   76.9828  223.7899 H   0  0  0  0  0  0  0  0  0  0  0  0
  137.7861   78.0317  220.9503 H   0  0  0  0  0  0  0  0  0  0  0  0
  136.7733   78.6681  222.2606 H   0  0  0  0  0  0  0  0  0  0  0  0
  137.7319   80.6823  223.0349 H   0  0  0  0  0  0  0  0  0  0  0  0
  139.7868   81.8748  223.8809 H   0  0  0  0  0  0  0  0  0  0  0  0
  142.1942   78.4409  222.9707 H   0  0  0  0  0  0  0  0  0  0  0  0
  140.0628   76.9105  220.8836 H   0  0  0  0  0  0  0  0  0  0  0  0
  141.1395   76.4309  222.2341 H   0  0  0  0  0  0  0  0  0  0  0  0
  140.8395   74.8183  219.2068 H   0  0  0  0  0  0  0  0  0  0  0  0
  141.1290   75.9806  220.5235 H   0  0  0  0  0  0  0  0  0  0  0  0
  143.2092   75.8508  219.1884 H   0  0  0  0  0  0  0  0  0  0  0  0
  143.5471   75.0106  220.7063 H   0  0  0  0  0  0  0  0  0  0  0  0
  1  2  1  0
  2  3  1  0
  3  4  2  0
  3  5  1  0
  5  6  1  0
  6  7  2  0
  7  8  1  0
  8  9  2  0
  9 10  1  0
 10 11  2  0
  5 12  1  0
 12 13  1  0
 13 14  1  0
 14 15  1  0
 15 16  1  0
 16 17  2  0
 16 18  1  0
 18 19  1  0
 18 20  1  0
 20 21  1  0
 21 22  1  0
 22 23  1  0
 23 24  2  0
 24 25  1  0
 25 26  2  0
 26 27  1  0
 26 28  1  0
 28 29  2  0
 29 30  1  0
 15 31  1  0
 31 32  1  0
 11  6  1  0
 32 12  1  0
 30 20  1  0
 29 23  1  0
  1 33  1  0
  1 34  1  0
  1 35  1  0
  2 36  1  0
  2 37  1  0
  7 38  1  0
  8 39  1  0
  9 40  1  0
 10 41  1  0
 11 42  1  0
 12 43  1  0
 13 44  1  0
 13 45  1  0
 14 46  1  0
 14 47  1  0
 18 48  1  6
 19 49  1  0
 19 50  1  0
 20 51  1  1
 21 52  1  0
 21 53  1  0
 22 54  1  0
 22 55  1  0
 24 56  1  0
 25 57  1  0
 28 58  1  0
 30 59  1  0
 30 60  1  0
 31 61  1  0
 31 62  1  0
 32 63  1  0
 32 64  1  0
M  END
>  <smiles>  (47) 
CCC(=O)N(c1ccccc1)C1CCN(C(=O)[C@@H](N)C2CCc3ccc(Br)cc3C2)CC1

>  <score_type>  (47) 
oracle

>  <origin>  (47) 
autodockgpu

>  <m_score__min__energy>  (47) 
-8.7100000000000009

>  <m_primary>  (47) 
energy

>  <rmsd>  (47) 
4.943890178062207

>  <m_score__min__rmsd>  (47) 
4.943890178062207

>  <meeko>  (47) 
{"free_energy": -8.07, "intermolecular_energy": -10.16, "internal_energy": -2.12, "cluster_size": 6, "cluster_id": 4, "rank_in_cluster": 1}

>  <energy>  (47) 
-7.45

>  <cluster_rmsd>  (47) 
0.71

>  <cluster>  (47) 
5

$$$$

     RDKit          3D

 64 67  0  0  0  0  0  0  0  0999 V2000
  141.0940   67.4050  226.5420 C   0  0  0  0  0  0  0  0  0  0  0  0
  139.5950   67.3680  226.2890 C   0  0  0  0  0  0  0  0  0  0  0  0
  139.3030   68.1330  225.0240 C   0  0  0  0  0  0  0  0  0  0  0  0
  139.1300   67.4160  223.9970 O   0  0  0  0  0  0  0  0  0  0  0  0
  139.2330   69.5370  224.9950 N   0  0  0  0  0  0  0  0  0  0  0  0
  139.8460   70.2450  226.0800 C   0  0  0  0  0  0  0  0  0  0  0  0
  140.8900   71.1320  225.8940 C   0  0  0  0  0  0  0  0  0  0  0  0
  141.4800   71.8180  226.9490 C   0  0  0  0  0  0  0  0  0  0  0  0
  140.9980   71.5980  228.2030 C   0  0  0  0  0  0  0  0  0  0  0  0
  139.9650   70.7300  228.4540 C   0  0  0  0  0  0  0  0  0  0  0  0
  139.3940   70.0560  227.3880 C   0  0  0  0  0  0  0  0  0  0  0  0
  138.5530   70.1890  223.9060 C   0  0  0  0  0  0  0  0  0  0  0  0
  137.0860   70.3560  224.0830 C   0  0  0  0  0  0  0  0  0  0  0  0
  136.5790   71.7620  223.8500 C   0  0  0  0  0  0  0  0  0  0  0  0
  137.1020   72.3050  222.6050 N   0  0  0  0  0  0  0  0  0  0  0  0
  136.2160   73.0810  221.8160 C   0  0  0  0  0  0  0  0  0  0  0  0
  135.0500   73.2380  222.3360 O   0  0  0  0  0  0  0  0  0  0  0  0
  136.5140   73.6830  220.5210 C   0  0  1  0  0  0  0  0  0  0  0  0
  135.3080   74.0570  219.8300 N   0  0  0  0  0  0  0  0  0  0  0  0
  137.5590   74.7550  220.5070 C   0  0  2  0  0  0  0  0  0  0  0  0
  138.7290   74.3860  219.6650 C   0  0  0  0  0  0  0  0  0  0  0  0
  140.0550   74.3550  220.3890 C   0  0  0  0  0  0  0  0  0  0  0  0
  140.2020   75.6870  221.0590 C   0  0  0  0  0  0  0  0  0  0  0  0
  141.3690   76.3960  220.9160 C   0  0  0  0  0  0  0  0  0  0  0  0
  141.4280   77.6340  221.5720 C   0  0  0  0  0  0  0  0  0  0  0  0
  140.3660   78.0960  222.3160 C   0  0  0  0  0  0  0  0  0  0  0  0
  140.5610   79.7890  223.1650 Br  0  0  0  0  0  0  0  0  0  0  0  0
  139.2130   77.3320  222.4250 C   0  0  0  0  0  0  0  0  0  0  0  0
  139.1190   76.1110  221.7920 C   0  0  0  0  0  0  0  0  0  0  0  0
  137.9150   75.2520  221.8850 C   0  0  0  0  0  0  0  0  0  0  0  0
  138.4770   72.0200  222.2930 C   0  0  0  0  0  0  0  0  0  0  0  0
  139.1540   71.5580  223.5990 C   0  0  0  0  0  0  0  0  0  0  0  0
  141.2829   67.4097  227.6256 H   0  0  0  0  0  0  0  0  0  0  0  0
  141.5639   66.5182  226.0917 H   0  0  0  0  0  0  0  0  0  0  0  0
  141.5195   68.3139  226.0917 H   0  0  0  0  0  0  0  0  0  0  0  0
  139.2636   66.3252  226.1765 H   0  0  0  0  0  0  0  0  0  0  0  0
  139.0592   67.8222  227.1355 H   0  0  0  0  0  0  0  0  0  0  0  0
  141.2672   71.3009  224.8746 H   0  0  0  0  0  0  0  0  0  0  0  0
  142.3112   72.5174  226.7760 H   0  0  0  0  0  0  0  0  0  0  0  0
  141.4538   72.1363  229.0471 H   0  0  0  0  0  0  0  0  0  0  0  0
  139.5989   70.5733  229.4794 H   0  0  0  0  0  0  0  0  0  0  0  0
  138.5662   69.3563  227.5752 H   0  0  0  0  0  0  0  0  0  0  0  0
  138.7032   69.4953  223.0656 H   0  0  0  0  0  0  0  0  0  0  0  0
  136.5766   69.6860  223.3748 H   0  0  0  0  0  0  0  0  0  0  0  0
  136.8700   70.1173  225.1348 H   0  0  0  0  0  0  0  0  0  0  0  0
  135.4802   71.7448  223.8016 H   0  0  0  0  0  0  0  0  0  0  0  0
  136.9180   72.3991  224.6802 H   0  0  0  0  0  0  0  0  0  0  0  0
  137.0051   72.8793  219.9527 H   0  0  0  0  0  0  0  0  0  0  0  0
  135.0030   73.3610  219.1120 H   0  0  0  0  0  0  0  0  0  0  0  0
  134.5110   74.2480  220.5120 H   0  0  0  0  0  0  0  0  0  0  0  0
  137.1113   75.6303  220.0136 H   0  0  0  0  0  0  0  0  0  0  0  0
  138.5457   73.3854  219.2465 H   0  0  0  0  0  0  0  0  0  0  0  0
  138.8159   75.1715  218.8998 H   0  0  0  0  0  0  0  0  0  0  0  0
  140.0607   73.5496  221.1382 H   0  0  0  0  0  0  0  0  0  0  0  0
  140.8852   74.1648  219.6929 H   0  0  0  0  0  0  0  0  0  0  0  0
  142.2110   76.0141  220.3199 H   0  0  0  0  0  0  0  0  0  0  0  0
  142.3382   78.2462  221.4907 H   0  0  0  0  0  0  0  0  0  0  0  0
  138.3668   77.7037  223.0215 H   0  0  0  0  0  0  0  0  0  0  0  0
  138.1228   74.3958  222.5436 H   0  0  0  0  0  0  0  0  0  0  0  0
  137.0765   75.8310  222.2993 H   0  0  0  0  0  0  0  0  0  0  0  0
  138.5346   71.2236  221.5364 H   0  0  0  0  0  0  0  0  0  0  0  0
  138.9783   72.9110  221.8871 H   0  0  0  0  0  0  0  0  0  0  0  0
  140.2423   71.4781  223.4607 H   0  0  0  0  0  0  0  0  0  0  0  0
  138.9874   72.2709  224.4200 H   0  0  0  0  0  0  0  0  0  0  0  0
  1  2  1  0
  2  3  1  0
  3  4  2  0
  3  5  1  0
  5  6  1  0
  6  7  2  0
  7  8  1  0
  8  9  2  0
  9 10  1  0
 10 11  2  0
  5 12  1  0
 12 13  1  0
 13 14  1  0
 14 15  1  0
 15 16  1  0
 16 17  2  0
 16 18  1  0
 18 19  1  0
 18 20  1  0
 20 21  1  0
 21 22  1  0
 22 23  1  0
 23 24  2  0
 24 25  1  0
 25 26  2  0
 26 27  1  0
 26 28  1  0
 28 29  2  0
 29 30  1  0
 15 31  1  0
 31 32  1  0
 11  6  1  0
 32 12  1  0
 30 20  1  0
 29 23  1  0
  1 33  1  0
  1 34  1  0
  1 35  1  0
  2 36  1  0
  2 37  1  0
  7 38  1  0
  8 39  1  0
  9 40  1  0
 10 41  1  0
 11 42  1  0
 12 43  1  0
 13 44  1  0
 13 45  1  0
 14 46  1  0
 14 47  1  0
 18 48  1  6
 19 49  1  0
 19 50  1  0
 20 51  1  6
 21 52  1  0
 21 53  1  0
 22 54  1  0
 22 55  1  0
 24 56  1  0
 25 57  1  0
 28 58  1  0
 30 59  1  0
 30 60  1  0
 31 61  1  0
 31 62  1  0
 32 63  1  0
 32 64  1  0
M  END
>  <smiles>  (48) 
CCC(=O)N(c1ccccc1)C1CCN(C(=O)[C@@H](N)C2CCc3ccc(Br)cc3C2)CC1

>  <score_type>  (48) 
oracle

>  <origin>  (48) 
autodockgpu

>  <m_score__min__energy>  (48) 
-8.7100000000000009

>  <m_primary>  (48) 
energy

>  <rmsd>  (48) 
7.41960458015872

>  <m_score__min__rmsd>  (48) 
7.41960458015872

>  <meeko>  (48) 
{"free_energy": -7.68, "intermolecular_energy": -9.77, "internal_energy": -2.09, "cluster_size": 2, "cluster_id": 6, "rank_in_cluster": 1}

>  <energy>  (48) 
-7.68

>  <cluster_rmsd>  (48) 
0.0

>  <cluster>  (48) 
6

$$$$

     RDKit          3D

 64 67  0  0  0  0  0  0  0  0999 V2000
  146.3230   73.0200  221.5940 C   0  0  0  0  0  0  0  0  0  0  0  0
  145.8780   73.9700  220.4920 C   0  0  0  0  0  0  0  0  0  0  0  0
  145.5890   73.1640  219.2520 C   0  0  0  0  0  0  0  0  0  0  0  0
  146.3440   73.4110  218.2690 O   0  0  0  0  0  0  0  0  0  0  0  0
  144.5530   72.2140  219.2000 N   0  0  0  0  0  0  0  0  0  0  0  0
  144.9140   70.8720  218.8510 C   0  0  0  0  0  0  0  0  0  0  0  0
  145.5720   70.5600  217.6760 C   0  0  0  0  0  0  0  0  0  0  0  0
  145.9230   69.2560  217.3430 C   0  0  0  0  0  0  0  0  0  0  0  0
  145.5990   68.2650  218.2180 C   0  0  0  0  0  0  0  0  0  0  0  0
  144.9450   68.5090  219.4000 C   0  0  0  0  0  0  0  0  0  0  0  0
  144.6050   69.8140  219.7100 C   0  0  0  0  0  0  0  0  0  0  0  0
  143.2020   72.6240  219.4820 C   0  0  0  0  0  0  0  0  0  0  0  0
  142.4940   71.8140  220.5090 C   0  0  0  0  0  0  0  0  0  0  0  0
  141.8490   72.6210  221.6130 C   0  0  0  0  0  0  0  0  0  0  0  0
  141.0660   73.7190  221.0670 N   0  0  0  0  0  0  0  0  0  0  0  0
  139.8270   74.0050  221.6940 C   0  0  0  0  0  0  0  0  0  0  0  0
  139.5710   73.2620  222.7130 O   0  0  0  0  0  0  0  0  0  0  0  0
  138.8690   75.0270  221.2890 C   0  0  1  0  0  0  0  0  0  0  0  0
  137.5900   74.8220  221.9180 N   0  0  0  0  0  0  0  0  0  0  0  0
  139.3380   76.4480  221.3570 C   0  0  2  0  0  0  0  0  0  0  0  0
  139.4160   77.0760  220.0100 C   0  0  0  0  0  0  0  0  0  0  0  0
  140.7830   77.5880  219.6210 C   0  0  0  0  0  0  0  0  0  0  0  0
  141.2260   78.4960  220.7270 C   0  0  0  0  0  0  0  0  0  0  0  0
  141.7130   79.7450  220.4290 C   0  0  0  0  0  0  0  0  0  0  0  0
  142.1040   80.5350  221.5190 C   0  0  0  0  0  0  0  0  0  0  0  0
  142.0010   80.0690  222.8100 C   0  0  0  0  0  0  0  0  0  0  0  0
  142.5650   81.2280  224.2090 Br  0  0  0  0  0  0  0  0  0  0  0  0
  141.5010   78.7960  223.0480 C   0  0  0  0  0  0  0  0  0  0  0  0
  141.1060   77.9920  222.0000 C   0  0  0  0  0  0  0  0  0  0  0  0
  140.5760   76.6220  222.1980 C   0  0  0  0  0  0  0  0  0  0  0  0
  141.6250   74.4290  219.9470 C   0  0  0  0  0  0  0  0  0  0  0  0
  143.1280   74.0910  219.8990 C   0  0  0  0  0  0  0  0  0  0  0  0
  146.1116   73.4713  222.5746 H   0  0  0  0  0  0  0  0  0  0  0  0
  145.7762   72.0700  221.5020 H   0  0  0  0  0  0  0  0  0  0  0  0
  147.4029   72.8319  221.5020 H   0  0  0  0  0  0  0  0  0  0  0  0
  144.9695   74.5040  220.8073 H   0  0  0  0  0  0  0  0  0  0  0  0
  146.6697   74.7055  220.2868 H   0  0  0  0  0  0  0  0  0  0  0  0
  145.8272   71.3722  216.9794 H   0  0  0  0  0  0  0  0  0  0  0  0
  146.4463   69.0325  216.4016 H   0  0  0  0  0  0  0  0  0  0  0  0
  145.8716   67.2290  217.9684 H   0  0  0  0  0  0  0  0  0  0  0  0
  144.6967   67.6854  220.0855 H   0  0  0  0  0  0  0  0  0  0  0  0
  144.0798   70.0232  220.6536 H   0  0  0  0  0  0  0  0  0  0  0  0
  142.6858   72.4602  218.5245 H   0  0  0  0  0  0  0  0  0  0  0  0
  141.7080   71.2324  220.0052 H   0  0  0  0  0  0  0  0  0  0  0  0
  143.2570   71.1836  220.9889 H   0  0  0  0  0  0  0  0  0  0  0  0
  141.1887   71.9651  222.1994 H   0  0  0  0  0  0  0  0  0  0  0  0
  142.6419   73.0391  222.2506 H   0  0  0  0  0  0  0  0  0  0  0  0
  138.7523   74.8767  220.2056 H   0  0  0  0  0  0  0  0  0  0  0  0
  136.8930   74.3440  221.3030 H   0  0  0  0  0  0  0  0  0  0  0  0
  137.6880   74.2910  222.8370 H   0  0  0  0  0  0  0  0  0  0  0  0
  138.5653   77.0144  221.8974 H   0  0  0  0  0  0  0  0  0  0  0  0
  139.1082   76.3265  219.2660 H   0  0  0  0  0  0  0  0  0  0  0  0
  138.7568   77.9560  220.0431 H   0  0  0  0  0  0  0  0  0  0  0  0
  141.4865   76.7494  219.5127 H   0  0  0  0  0  0  0  0  0  0  0  0
  140.7504   78.1192  218.6583 H   0  0  0  0  0  0  0  0  0  0  0  0
  141.7919   80.1054  219.3927 H   0  0  0  0  0  0  0  0  0  0  0  0
  142.5002   81.5453  221.3394 H   0  0  0  0  0  0  0  0  0  0  0  0
  141.4194   78.4260  224.0807 H   0  0  0  0  0  0  0  0  0  0  0  0
  141.3346   75.8857  221.8941 H   0  0  0  0  0  0  0  0  0  0  0  0
  140.3288   76.4692  223.2589 H   0  0  0  0  0  0  0  0  0  0  0  0
  141.1364   74.1081  219.0152 H   0  0  0  0  0  0  0  0  0  0  0  0
  141.4712   75.5128  220.0549 H   0  0  0  0  0  0  0  0  0  0  0  0
  143.6418   74.7265  219.1627 H   0  0  0  0  0  0  0  0  0  0  0  0
  143.6171   74.2652  220.8688 H   0  0  0  0  0  0  0  0  0  0  0  0
  1  2  1  0
  2  3  1  0
  3  4  2  0
  3  5  1  0
  5  6  1  0
  6  7  2  0
  7  8  1  0
  8  9  2  0
  9 10  1  0
 10 11  2  0
  5 12  1  0
 12 13  1  0
 13 14  1  0
 14 15  1  0
 15 16  1  0
 16 17  2  0
 16 18  1  0
 18 19  1  0
 18 20  1  0
 20 21  1  0
 21 22  1  0
 22 23  1  0
 23 24  2  0
 24 25  1  0
 25 26  2  0
 26 27  1  0
 26 28  1  0
 28 29  2  0
 29 30  1  0
 15 31  1  0
 31 32  1  0
 11  6  1  0
 32 12  1  0
 30 20  1  0
 29 23  1  0
  1 33  1  0
  1 34  1  0
  1 35  1  0
  2 36  1  0
  2 37  1  0
  7 38  1  0
  8 39  1  0
  9 40  1  0
 10 41  1  0
 11 42  1  0
 12 43  1  0
 13 44  1  0
 13 45  1  0
 14 46  1  0
 14 47  1  0
 18 48  1  6
 19 49  1  0
 19 50  1  0
 20 51  1  1
 21 52  1  0
 21 53  1  0
 22 54  1  0
 22 55  1  0
 24 56  1  0
 25 57  1  0
 28 58  1  0
 30 59  1  0
 30 60  1  0
 31 61  1  0
 31 62  1  0
 32 63  1  0
 32 64  1  0
M  END
>  <smiles>  (49) 
CCC(=O)N(c1ccccc1)C1CCN(C(=O)[C@@H](N)C2CCc3ccc(Br)cc3C2)CC1

>  <score_type>  (49) 
oracle

>  <origin>  (49) 
autodockgpu

>  <m_score__min__energy>  (49) 
-8.7100000000000009

>  <m_primary>  (49) 
energy

>  <rmsd>  (49) 
5.216272986006353

>  <m_score__min__rmsd>  (49) 
5.216272986006353

>  <meeko>  (49) 
{"free_energy": -8.35, "intermolecular_energy": -10.43, "internal_energy": -2.13, "cluster_size": 15, "cluster_id": 2, "rank_in_cluster": 1}

>  <energy>  (49) 
-7.18

>  <cluster_rmsd>  (49) 
1.02

>  <cluster>  (49) 
6

$$$$

     RDKit          3D

 64 67  0  0  0  0  0  0  0  0999 V2000
  145.7560   73.0830  221.5970 C   0  0  0  0  0  0  0  0  0  0  0  0
  146.3220   73.7290  220.3420 C   0  0  0  0  0  0  0  0  0  0  0  0
  145.6550   73.1090  219.1410 C   0  0  0  0  0  0  0  0  0  0  0  0
  145.9390   71.8930  218.9430 O   0  0  0  0  0  0  0  0  0  0  0  0
  144.7860   73.8360  218.3080 N   0  0  0  0  0  0  0  0  0  0  0  0
  145.2510   74.1420  216.9870 C   0  0  0  0  0  0  0  0  0  0  0  0
  144.4860   74.8430  216.0730 C   0  0  0  0  0  0  0  0  0  0  0  0
  144.9420   75.1390  214.7940 C   0  0  0  0  0  0  0  0  0  0  0  0
  146.1890   74.7190  214.4460 C   0  0  0  0  0  0  0  0  0  0  0  0
  146.9970   74.0190  215.3070 C   0  0  0  0  0  0  0  0  0  0  0  0
  146.5220   73.7330  216.5760 C   0  0  0  0  0  0  0  0  0  0  0  0
  143.5000   74.2420  218.8100 C   0  0  0  0  0  0  0  0  0  0  0  0
  142.7430   73.1920  219.5420 C   0  0  0  0  0  0  0  0  0  0  0  0
  142.2300   73.6150  220.9010 C   0  0  0  0  0  0  0  0  0  0  0  0
  141.5540   74.9020  220.8240 N   0  0  0  0  0  0  0  0  0  0  0  0
  140.3770   75.0620  221.5980 C   0  0  0  0  0  0  0  0  0  0  0  0
  140.0770   74.0360  222.3140 O   0  0  0  0  0  0  0  0  0  0  0  0
  139.5240   76.2440  221.6400 C   0  0  1  0  0  0  0  0  0  0  0  0
  138.5450   76.1430  222.6910 N   0  0  0  0  0  0  0  0  0  0  0  0
  140.2170   77.5700  221.6050 C   0  0  2  0  0  0  0  0  0  0  0  0
  141.3200   77.6520  222.6010 C   0  0  0  0  0  0  0  0  0  0  0  0
  141.1840   78.7610  223.6180 C   0  0  0  0  0  0  0  0  0  0  0  0
  140.9910   80.0270  222.8400 C   0  0  0  0  0  0  0  0  0  0  0  0
  141.7530   81.1310  223.1360 C   0  0  0  0  0  0  0  0  0  0  0  0
  141.5140   82.2750  222.3620 C   0  0  0  0  0  0  0  0  0  0  0  0
  140.5640   82.2750  221.3660 C   0  0  0  0  0  0  0  0  0  0  0  0
  140.3250   83.8870  220.3820 Br  0  0  0  0  0  0  0  0  0  0  0  0
  139.8250   81.1280  221.1140 C   0  0  0  0  0  0  0  0  0  0  0  0
  140.0330   79.9840  221.8550 C   0  0  0  0  0  0  0  0  0  0  0  0
  139.2640   78.7370  221.6350 C   0  0  0  0  0  0  0  0  0  0  0  0
  142.1490   75.9050  219.9800 C   0  0  0  0  0  0  0  0  0  0  0  0
  143.6030   75.4700  219.7110 C   0  0  0  0  0  0  0  0  0  0  0  0
  146.1835   73.5710  222.4853 H   0  0  0  0  0  0  0  0  0  0  0  0
  144.6620   73.1973  221.6067 H   0  0  0  0  0  0  0  0  0  0  0  0
  146.0130   72.0135  221.6067 H   0  0  0  0  0  0  0  0  0  0  0  0
  146.1228   74.8107  220.3596 H   0  0  0  0  0  0  0  0  0  0  0  0
  147.4091   73.5683  220.2935 H   0  0  0  0  0  0  0  0  0  0  0  0
  143.4809   75.1782  216.3687 H   0  0  0  0  0  0  0  0  0  0  0  0
  144.3136   75.6964  214.0838 H   0  0  0  0  0  0  0  0  0  0  0  0
  146.5631   74.9490  213.4375 H   0  0  0  0  0  0  0  0  0  0  0  0
  148.0002   73.6923  214.9957 H   0  0  0  0  0  0  0  0  0  0  0  0
  147.1591   73.1718  217.2754 H   0  0  0  0  0  0  0  0  0  0  0  0
  142.9356   74.4715  217.8942 H   0  0  0  0  0  0  0  0  0  0  0  0
  141.8801   72.8991  218.9259 H   0  0  0  0  0  0  0  0  0  0  0  0
  143.4481   72.3665  219.7189 H   0  0  0  0  0  0  0  0  0  0  0  0
  141.5224   72.8581  221.2703 H   0  0  0  0  0  0  0  0  0  0  0  0
  143.0856   73.7080  221.5861 H   0  0  0  0  0  0  0  0  0  0  0  0
  138.9990   76.2364  220.6734 H   0  0  0  0  0  0  0  0  0  0  0  0
  138.4750   75.1880  223.1080 H   0  0  0  0  0  0  0  0  0  0  0  0
  138.7210   76.8630  223.4580 H   0  0  0  0  0  0  0  0  0  0  0  0
  140.7056   77.6479  220.6226 H   0  0  0  0  0  0  0  0  0  0  0  0
  141.3615   76.6957  223.1431 H   0  0  0  0  0  0  0  0  0  0  0  0
  142.2336   77.8713  222.0290 H   0  0  0  0  0  0  0  0  0  0  0  0
  140.3153   78.5773  224.2673 H   0  0  0  0  0  0  0  0  0  0  0  0
  142.0725   78.8212  224.2637 H   0  0  0  0  0  0  0  0  0  0  0  0
  142.5084   81.1180  223.9356 H   0  0  0  0  0  0  0  0  0  0  0  0
  142.0958   83.1886  222.5539 H   0  0  0  0  0  0  0  0  0  0  0  0
  139.0672   81.1314  220.3167 H   0  0  0  0  0  0  0  0  0  0  0  0
  138.5406   78.6011  222.4524 H   0  0  0  0  0  0  0  0  0  0  0  0
  138.7227   78.7986  220.6794 H   0  0  0  0  0  0  0  0  0  0  0  0
  141.5955   75.9766  219.0321 H   0  0  0  0  0  0  0  0  0  0  0  0
  142.1200   76.8915  220.4658 H   0  0  0  0  0  0  0  0  0  0  0  0
  144.1574   76.2736  219.2041 H   0  0  0  0  0  0  0  0  0  0  0  0
  144.1423   75.2483  220.6437 H   0  0  0  0  0  0  0  0  0  0  0  0
  1  2  1  0
  2  3  1  0
  3  4  2  0
  3  5  1  0
  5  6  1  0
  6  7  2  0
  7  8  1  0
  8  9  2  0
  9 10  1  0
 10 11  2  0
  5 12  1  0
 12 13  1  0
 13 14  1  0
 14 15  1  0
 15 16  1  0
 16 17  2  0
 16 18  1  0
 18 19  1  0
 18 20  1  0
 20 21  1  0
 21 22  1  0
 22 23  1  0
 23 24  2  0
 24 25  1  0
 25 26  2  0
 26 27  1  0
 26 28  1  0
 28 29  2  0
 29 30  1  0
 15 31  1  0
 31 32  1  0
 11  6  1  0
 32 12  1  0
 30 20  1  0
 29 23  1  0
  1 33  1  0
  1 34  1  0
  1 35  1  0
  2 36  1  0
  2 37  1  0
  7 38  1  0
  8 39  1  0
  9 40  1  0
 10 41  1  0
 11 42  1  0
 12 43  1  0
 13 44  1  0
 13 45  1  0
 14 46  1  0
 14 47  1  0
 18 48  1  6
 19 49  1  0
 19 50  1  0
 20 51  1  6
 21 52  1  0
 21 53  1  0
 22 54  1  0
 22 55  1  0
 24 56  1  0
 25 57  1  0
 28 58  1  0
 30 59  1  0
 30 60  1  0
 31 61  1  0
 31 62  1  0
 32 63  1  0
 32 64  1  0
M  END
>  <smiles>  (50) 
CCC(=O)N(c1ccccc1)C1CCN(C(=O)[C@@H](N)C2CCc3ccc(Br)cc3C2)CC1

>  <score_type>  (50) 
oracle

>  <origin>  (50) 
autodockgpu

>  <m_score__min__energy>  (50) 
-8.7100000000000009

>  <m_primary>  (50) 
energy

>  <rmsd>  (50) 
3.8476130089504603

>  <m_score__min__rmsd>  (50) 
3.8476130089504603

>  <meeko>  (50) 
{"free_energy": -7.91, "intermolecular_energy": -10.0, "internal_energy": -2.23, "cluster_size": 6, "cluster_id": 4, "rank_in_cluster": 5}

>  <energy>  (50) 
-7.1

>  <cluster_rmsd>  (50) 
0.0

>  <cluster>  (50) 
7

$$$$

     RDKit          3D

 64 67  0  0  0  0  0  0  0  0999 V2000
  146.6890   73.0970  221.6240 C   0  0  0  0  0  0  0  0  0  0  0  0
  145.7580   74.1470  221.0540 C   0  0  0  0  0  0  0  0  0  0  0  0
  145.2380   73.6430  219.7630 C   0  0  0  0  0  0  0  0  0  0  0  0
  146.0610   73.0160  219.0290 O   0  0  0  0  0  0  0  0  0  0  0  0
  143.8880   73.8680  219.4010 N   0  0  0  0  0  0  0  0  0  0  0  0
  143.5450   75.0760  218.6870 C   0  0  0  0  0  0  0  0  0  0  0  0
  143.5850   74.9640  217.3020 C   0  0  0  0  0  0  0  0  0  0  0  0
  143.2750   76.0580  216.5170 C   0  0  0  0  0  0  0  0  0  0  0  0
  142.9280   77.2510  217.1580 C   0  0  0  0  0  0  0  0  0  0  0  0
  142.8930   77.3430  218.5350 C   0  0  0  0  0  0  0  0  0  0  0  0
  143.2060   76.2380  219.3340 C   0  0  0  0  0  0  0  0  0  0  0  0
  142.8150   72.9470  219.7090 C   0  0  0  0  0  0  0  0  0  0  0  0
  143.4660   71.6000  220.0280 C   0  0  0  0  0  0  0  0  0  0  0  0
  142.4100   70.5370  220.0910 C   0  0  0  0  0  0  0  0  0  0  0  0
  141.1570   71.1380  220.5080 N   0  0  0  0  0  0  0  0  0  0  0  0
  139.9810   70.4420  220.0500 C   0  0  0  0  0  0  0  0  0  0  0  0
  140.2110   69.4310  219.3110 O   0  0  0  0  0  0  0  0  0  0  0  0
  138.6030   70.8340  220.3830 C   0  0  1  0  0  0  0  0  0  0  0  0
  137.6500   70.2870  219.4170 N   0  0  0  0  0  0  0  0  0  0  0  0
  138.2930   70.3120  221.7690 C   0  0  1  0  0  0  0  0  0  0  0  0
  138.9670   68.9470  221.8620 C   0  0  0  0  0  0  0  0  0  0  0  0
  138.3980   68.3180  223.1440 C   0  0  0  0  0  0  0  0  0  0  0  0
  139.0470   69.1330  224.2230 C   0  0  0  0  0  0  0  0  0  0  0  0
  139.5110   68.4980  225.3810 C   0  0  0  0  0  0  0  0  0  0  0  0
  140.1150   69.2550  226.3840 C   0  0  0  0  0  0  0  0  0  0  0  0
  140.2420   70.6270  226.2130 C   0  0  0  0  0  0  0  0  0  0  0  0
  141.0720   71.6300  227.6080 Br  0  0  0  0  0  0  0  0  0  0  0  0
  139.7700   71.2210  225.0540 C   0  0  0  0  0  0  0  0  0  0  0  0
  139.1660   70.4890  224.0410 C   0  0  0  0  0  0  0  0  0  0  0  0
  138.7040   71.2330  222.8550 C   0  0  0  0  0  0  0  0  0  0  0  0
  141.0590   72.3390  221.3090 C   0  0  0  0  0  0  0  0  0  0  0  0
  142.0180   73.4260  220.9100 C   0  0  0  0  0  0  0  0  0  0  0  0
  146.6554   73.1348  222.7228 H   0  0  0  0  0  0  0  0  0  0  0  0
  146.3718   72.1009  221.2816 H   0  0  0  0  0  0  0  0  0  0  0  0
  147.7159   73.2927  221.2816 H   0  0  0  0  0  0  0  0  0  0  0  0
  144.9240   74.3238  221.7492 H   0  0  0  0  0  0  0  0  0  0  0  0
  146.2954   75.0953  220.9061 H   0  0  0  0  0  0  0  0  0  0  0  0
  143.8623   74.0084  216.8329 H   0  0  0  0  0  0  0  0  0  0  0  0
  143.3005   75.9922  215.4193 H   0  0  0  0  0  0  0  0  0  0  0  0
  142.6777   78.1347  216.5526 H   0  0  0  0  0  0  0  0  0  0  0  0
  142.6159   78.2960  219.0094 H   0  0  0  0  0  0  0  0  0  0  0  0
  143.1815   76.2978  220.4321 H   0  0  0  0  0  0  0  0  0  0  0  0
  142.1209   72.8701  218.8591 H   0  0  0  0  0  0  0  0  0  0  0  0
  144.1929   71.3486  219.2416 H   0  0  0  0  0  0  0  0  0  0  0  0
  143.9818   71.6624  220.9976 H   0  0  0  0  0  0  0  0  0  0  0  0
  142.2872   70.0803  219.0979 H   0  0  0  0  0  0  0  0  0  0  0  0
  142.7073   69.7610  220.8118 H   0  0  0  0  0  0  0  0  0  0  0  0
  138.5133   71.9299  220.3504 H   0  0  0  0  0  0  0  0  0  0  0  0
  137.4080   71.0890  218.7860 H   0  0  0  0  0  0  0  0  0  0  0  0
  138.0620   69.5600  218.8270 H   0  0  0  0  0  0  0  0  0  0  0  0
  137.2057   70.2280  221.9128 H   0  0  0  0  0  0  0  0  0  0  0  0
  138.7192   68.3314  220.9847 H   0  0  0  0  0  0  0  0  0  0  0  0
  140.0639   69.0251  221.8879 H   0  0  0  0  0  0  0  0  0  0  0  0
  137.3026   68.4115  223.1800 H   0  0  0  0  0  0  0  0  0  0  0  0
  138.5985   67.2398  223.2291 H   0  0  0  0  0  0  0  0  0  0  0  0
  139.3999   67.4100  225.4987 H   0  0  0  0  0  0  0  0  0  0  0  0
  140.4863   68.7713  227.2995 H   0  0  0  0  0  0  0  0  0  0  0  0
  139.8774   72.3090  224.9324 H   0  0  0  0  0  0  0  0  0  0  0  0
  137.8455   71.8602  223.1372 H   0  0  0  0  0  0  0  0  0  0  0  0
  139.5350   71.8536  222.4885 H   0  0  0  0  0  0  0  0  0  0  0  0
  140.0355   72.7316  221.2183 H   0  0  0  0  0  0  0  0  0  0  0  0
  141.3162   72.0533  222.3397 H   0  0  0  0  0  0  0  0  0  0  0  0
  141.4589   74.3357  220.6457 H   0  0  0  0  0  0  0  0  0  0  0  0
  142.6958   73.6565  221.7451 H   0  0  0  0  0  0  0  0  0  0  0  0
  1  2  1  0
  2  3  1  0
  3  4  2  0
  3  5  1  0
  5  6  1  0
  6  7  2  0
  7  8  1  0
  8  9  2  0
  9 10  1  0
 10 11  2  0
  5 12  1  0
 12 13  1  0
 13 14  1  0
 14 15  1  0
 15 16  1  0
 16 17  2  0
 16 18  1  0
 18 19  1  0
 18 20  1  0
 20 21  1  0
 21 22  1  0
 22 23  1  0
 23 24  2  0
 24 25  1  0
 25 26  2  0
 26 27  1  0
 26 28  1  0
 28 29  2  0
 29 30  1  0
 15 31  1  0
 31 32  1  0
 11  6  1  0
 32 12  1  0
 30 20  1  0
 29 23  1  0
  1 33  1  0
  1 34  1  0
  1 35  1  0
  2 36  1  0
  2 37  1  0
  7 38  1  0
  8 39  1  0
  9 40  1  0
 10 41  1  0
 11 42  1  0
 12 43  1  0
 13 44  1  0
 13 45  1  0
 14 46  1  0
 14 47  1  0
 18 48  1  1
 19 49  1  0
 19 50  1  0
 20 51  1  6
 21 52  1  0
 21 53  1  0
 22 54  1  0
 22 55  1  0
 24 56  1  0
 25 57  1  0
 28 58  1  0
 30 59  1  0
 30 60  1  0
 31 61  1  0
 31 62  1  0
 32 63  1  0
 32 64  1  0
M  END
>  <smiles>  (51) 
CCC(=O)N(c1ccccc1)C1CCN(C(=O)[C@@H](N)C2CCc3ccc(Br)cc3C2)CC1

>  <score_type>  (51) 
oracle

>  <origin>  (51) 
autodockgpu

>  <m_score__min__energy>  (51) 
-9.2699999999999996

>  <m_primary>  (51) 
energy

>  <rmsd>  (51) 
8.767546846937234

>  <m_score__min__rmsd>  (51) 
8.767546846937234

>  <meeko>  (51) 
{"free_energy": -7.6, "intermolecular_energy": -9.69, "internal_energy": -2.44, "cluster_size": 8, "cluster_id": 4, "rank_in_cluster": 6}

>  <energy>  (51) 
-9.27

>  <cluster_rmsd>  (51) 
0.0

>  <cluster>  (51) 
1

$$$$

     RDKit          3D

 64 67  0  0  0  0  0  0  0  0999 V2000
  146.7300   73.4360  221.6260 C   0  0  0  0  0  0  0  0  0  0  0  0
  145.3020   73.0090  221.3560 C   0  0  0  0  0  0  0  0  0  0  0  0
  145.0440   73.1680  219.9070 C   0  0  0  0  0  0  0  0  0  0  0  0
  146.0390   73.0110  219.1360 O   0  0  0  0  0  0  0  0  0  0  0  0
  143.7430   73.4770  219.4430 N   0  0  0  0  0  0  0  0  0  0  0  0
  143.5540   74.6390  218.6060 C   0  0  0  0  0  0  0  0  0  0  0  0
  143.2070   75.7980  219.2890 C   0  0  0  0  0  0  0  0  0  0  0  0
  143.0020   76.9710  218.5880 C   0  0  0  0  0  0  0  0  0  0  0  0
  143.1550   76.9430  217.1990 C   0  0  0  0  0  0  0  0  0  0  0  0
  143.5010   75.7820  216.5370 C   0  0  0  0  0  0  0  0  0  0  0  0
  143.7090   74.5920  217.2430 C   0  0  0  0  0  0  0  0  0  0  0  0
  142.5730   72.6880  219.7630 C   0  0  0  0  0  0  0  0  0  0  0  0
  142.9730   71.2200  219.6020 C   0  0  0  0  0  0  0  0  0  0  0  0
  141.7450   70.3590  219.6530 C   0  0  0  0  0  0  0  0  0  0  0  0
  140.7410   71.0130  220.4720 N   0  0  0  0  0  0  0  0  0  0  0  0
  139.3820   70.6630  220.1420 C   0  0  0  0  0  0  0  0  0  0  0  0
  139.2590   69.8670  219.1550 O   0  0  0  0  0  0  0  0  0  0  0  0
  138.1990   71.1610  220.8600 C   0  0  1  0  0  0  0  0  0  0  0  0
  136.9790   70.9370  220.0860 N   0  0  0  0  0  0  0  0  0  0  0  0
  138.1160   70.4300  222.1820 C   0  0  1  0  0  0  0  0  0  0  0  0
  139.0460   69.2270  222.0540 C   0  0  0  0  0  0  0  0  0  0  0  0
  138.7210   68.3520  223.2750 C   0  0  0  0  0  0  0  0  0  0  0  0
  139.2910   69.1500  224.4100 C   0  0  0  0  0  0  0  0  0  0  0  0
  139.9660   68.4920  225.4440 C   0  0  0  0  0  0  0  0  0  0  0  0
  140.4970   69.2330  226.4990 C   0  0  0  0  0  0  0  0  0  0  0  0
  140.3420   70.6130  226.5020 C   0  0  0  0  0  0  0  0  0  0  0  0
  141.0800   71.5930  227.9630 Br  0  0  0  0  0  0  0  0  0  0  0  0
  139.6670   71.2300  225.4620 C   0  0  0  0  0  0  0  0  0  0  0  0
  139.1310   70.5140  224.4010 C   0  0  0  0  0  0  0  0  0  0  0  0
  138.4340   71.2820  223.3520 C   0  0  0  0  0  0  0  0  0  0  0  0
  141.0420   71.9520  221.5310 C   0  0  0  0  0  0  0  0  0  0  0  0
  142.1210   72.9410  221.1900 C   0  0  0  0  0  0  0  0  0  0  0  0
  146.8985   73.4864  222.7118 H   0  0  0  0  0  0  0  0  0  0  0  0
  147.4215   72.7053  221.1811 H   0  0  0  0  0  0  0  0  0  0  0  0
  146.9069   74.4263  221.1811 H   0  0  0  0  0  0  0  0  0  0  0  0
  145.1656   71.9568  221.6463 H   0  0  0  0  0  0  0  0  0  0  0  0
  144.6018   73.6253  221.9390 H   0  0  0  0  0  0  0  0  0  0  0  0
  143.0959   75.7819  220.3833 H   0  0  0  0  0  0  0  0  0  0  0  0
  142.7263   77.9002  219.1082 H   0  0  0  0  0  0  0  0  0  0  0  0
  142.9964   77.8655  216.6211 H   0  0  0  0  0  0  0  0  0  0  0  0
  143.6144   75.7926  215.4429 H   0  0  0  0  0  0  0  0  0  0  0  0
  143.9846   73.6597  216.7283 H   0  0  0  0  0  0  0  0  0  0  0  0
  141.7377   72.9558  219.0993 H   0  0  0  0  0  0  0  0  0  0  0  0
  143.4782   71.0815  218.6347 H   0  0  0  0  0  0  0  0  0  0  0  0
  143.6555   70.9343  220.4160 H   0  0  0  0  0  0  0  0  0  0  0  0
  141.3535   70.2149  218.6352 H   0  0  0  0  0  0  0  0  0  0  0  0
  141.9964   69.3796  220.0860 H   0  0  0  0  0  0  0  0  0  0  0  0
  138.2934   72.2452  221.0199 H   0  0  0  0  0  0  0  0  0  0  0  0
  137.3040   70.7660  219.1040 H   0  0  0  0  0  0  0  0  0  0  0  0
  136.4740   70.0980  220.3810 H   0  0  0  0  0  0  0  0  0  0  0  0
  137.0816   70.1125  222.3799 H   0  0  0  0  0  0  0  0  0  0  0  0
  138.8468   68.6801  221.1206 H   0  0  0  0  0  0  0  0  0  0  0  0
  140.1055   69.5211  222.0225 H   0  0  0  0  0  0  0  0  0  0  0  0
  137.6353   68.2178  223.3897 H   0  0  0  0  0  0  0  0  0  0  0  0
  139.1321   67.3341  223.2058 H   0  0  0  0  0  0  0  0  0  0  0  0
  140.0770   67.3978  225.4247 H   0  0  0  0  0  0  0  0  0  0  0  0
  141.0319   68.7308  227.3186 H   0  0  0  0  0  0  0  0  0  0  0  0
  139.5519   72.3239  225.4775 H   0  0  0  0  0  0  0  0  0  0  0  0
  137.4984   71.6862  223.7658 H   0  0  0  0  0  0  0  0  0  0  0  0
  139.0959   72.0952  223.0195 H   0  0  0  0  0  0  0  0  0  0  0  0
  140.1244   72.5106  221.7677 H   0  0  0  0  0  0  0  0  0  0  0  0
  141.4127   71.3608  222.3813 H   0  0  0  0  0  0  0  0  0  0  0  0
  141.7277   73.9645  221.2787 H   0  0  0  0  0  0  0  0  0  0  0  0
  142.9697   72.8257  221.8802 H   0  0  0  0  0  0  0  0  0  0  0  0
  1  2  1  0
  2  3  1  0
  3  4  2  0
  3  5  1  0
  5  6  1  0
  6  7  2  0
  7  8  1  0
  8  9  2  0
  9 10  1  0
 10 11  2  0
  5 12  1  0
 12 13  1  0
 13 14  1  0
 14 15  1  0
 15 16  1  0
 16 17  2  0
 16 18  1  0
 18 19  1  0
 18 20  1  0
 20 21  1  0
 21 22  1  0
 22 23  1  0
 23 24  2  0
 24 25  1  0
 25 26  2  0
 26 27  1  0
 26 28  1  0
 28 29  2  0
 29 30  1  0
 15 31  1  0
 31 32  1  0
 11  6  1  0
 32 12  1  0
 30 20  1  0
 29 23  1  0
  1 33  1  0
  1 34  1  0
  1 35  1  0
  2 36  1  0
  2 37  1  0
  7 38  1  0
  8 39  1  0
  9 40  1  0
 10 41  1  0
 11 42  1  0
 12 43  1  0
 13 44  1  0
 13 45  1  0
 14 46  1  0
 14 47  1  0
 18 48  1  1
 19 49  1  0
 19 50  1  0
 20 51  1  1
 21 52  1  0
 21 53  1  0
 22 54  1  0
 22 55  1  0
 24 56  1  0
 25 57  1  0
 28 58  1  0
 30 59  1  0
 30 60  1  0
 31 61  1  0
 31 62  1  0
 32 63  1  0
 32 64  1  0
M  END
>  <smiles>  (52) 
CCC(=O)N(c1ccccc1)C1CCN(C(=O)[C@@H](N)C2CCc3ccc(Br)cc3C2)CC1

>  <score_type>  (52) 
oracle

>  <origin>  (52) 
autodockgpu

>  <m_score__min__energy>  (52) 
-9.2699999999999996

>  <m_primary>  (52) 
energy

>  <rmsd>  (52) 
8.801264179591824

>  <m_score__min__rmsd>  (52) 
8.801264179591824

>  <meeko>  (52) 
{"free_energy": -7.33, "intermolecular_energy": -9.42, "internal_energy": -2.51, "cluster_size": 8, "cluster_id": 4, "rank_in_cluster": 8}

>  <energy>  (52) 
-9.24

>  <cluster_rmsd>  (52) 
0.33

>  <cluster>  (52) 
1

$$$$

     RDKit          3D

 64 67  0  0  0  0  0  0  0  0999 V2000
  136.3570   69.2180  224.5810 C   0  0  0  0  0  0  0  0  0  0  0  0
  137.3330   68.5540  223.6320 C   0  0  0  0  0  0  0  0  0  0  0  0
  138.6750   68.5930  224.2550 C   0  0  0  0  0  0  0  0  0  0  0  0
  139.2040   67.4720  224.5260 O   0  0  0  0  0  0  0  0  0  0  0  0
  139.3050   69.8330  224.5190 N   0  0  0  0  0  0  0  0  0  0  0  0
  139.8910   70.0590  225.8200 C   0  0  0  0  0  0  0  0  0  0  0  0
  139.6190   69.0730  226.7600 C   0  0  0  0  0  0  0  0  0  0  0  0
  140.1290   69.1860  228.0390 C   0  0  0  0  0  0  0  0  0  0  0  0
  140.9110   70.3060  228.3390 C   0  0  0  0  0  0  0  0  0  0  0  0
  141.1710   71.2760  227.3920 C   0  0  0  0  0  0  0  0  0  0  0  0
  140.6550   71.1660  226.0960 C   0  0  0  0  0  0  0  0  0  0  0  0
  139.3970   70.9040  223.5500 C   0  0  0  0  0  0  0  0  0  0  0  0
  139.8500   70.2700  222.2340 C   0  0  0  0  0  0  0  0  0  0  0  0
  140.2260   71.3510  221.2630 C   0  0  0  0  0  0  0  0  0  0  0  0
  139.4530   72.5420  221.5570 N   0  0  0  0  0  0  0  0  0  0  0  0
  140.0850   73.7760  221.1630 C   0  0  0  0  0  0  0  0  0  0  0  0
  141.2470   73.6440  220.6560 O   0  0  0  0  0  0  0  0  0  0  0  0
  139.4770   75.1060  221.3150 C   0  0  1  0  0  0  0  0  0  0  0  0
  138.9840   75.3090  222.6770 N   0  0  0  0  0  0  0  0  0  0  0  0
  140.5330   76.1400  220.9860 C   0  0  1  0  0  0  0  0  0  0  0  0
  139.8890   77.0890  219.9810 C   0  0  0  0  0  0  0  0  0  0  0  0
  141.0530   77.9370  219.4430 C   0  0  0  0  0  0  0  0  0  0  0  0
  141.3930   78.8060  220.6180 C   0  0  0  0  0  0  0  0  0  0  0  0
  141.7060   80.1530  220.4100 C   0  0  0  0  0  0  0  0  0  0  0  0
  142.0220   80.9620  221.5010 C   0  0  0  0  0  0  0  0  0  0  0  0
  142.0200   80.4100  222.7750 C   0  0  0  0  0  0  0  0  0  0  0  0
  142.4580   81.5470  224.2430 Br  0  0  0  0  0  0  0  0  0  0  0  0
  141.7050   79.0720  222.9430 C   0  0  0  0  0  0  0  0  0  0  0  0
  141.3870   78.2470  221.8730 C   0  0  0  0  0  0  0  0  0  0  0  0
  141.0700   76.8400  222.1770 C   0  0  0  0  0  0  0  0  0  0  0  0
  138.1560   72.5310  222.2000 C   0  0  0  0  0  0  0  0  0  0  0  0
  138.0500   71.5770  223.3560 C   0  0  0  0  0  0  0  0  0  0  0  0
  136.6580   69.0132  225.6190 H   0  0  0  0  0  0  0  0  0  0  0  0
  136.3573   70.3041  224.4066 H   0  0  0  0  0  0  0  0  0  0  0  0
  135.3469   68.8189  224.4066 H   0  0  0  0  0  0  0  0  0  0  0  0
  137.0326   67.5103  223.4575 H   0  0  0  0  0  0  0  0  0  0  0  0
  137.3447   69.0801  222.6660 H   0  0  0  0  0  0  0  0  0  0  0  0
  139.0000   68.2056  226.4870 H   0  0  0  0  0  0  0  0  0  0  0  0
  139.9259   68.4174  228.7993 H   0  0  0  0  0  0  0  0  0  0  0  0
  141.3277   70.4162  229.3510 H   0  0  0  0  0  0  0  0  0  0  0  0
  141.7905   72.1448  227.6590 H   0  0  0  0  0  0  0  0  0  0  0  0
  140.8527   71.9324  225.3321 H   0  0  0  0  0  0  0  0  0  0  0  0
  140.1044   71.6727  223.8944 H   0  0  0  0  0  0  0  0  0  0  0  0
  140.7206   69.6236  222.4187 H   0  0  0  0  0  0  0  0  0  0  0  0
  139.0300   69.6685  221.8146 H   0  0  0  0  0  0  0  0  0  0  0  0
  141.2987   71.5751  221.3584 H   0  0  0  0  0  0  0  0  0  0  0  0
  140.0160   71.0167  220.2363 H   0  0  0  0  0  0  0  0  0  0  0  0
  138.6164   75.1982  220.6361 H   0  0  0  0  0  0  0  0  0  0  0  0
  138.0620   74.8110  222.7120 H   0  0  0  0  0  0  0  0  0  0  0  0
  139.5840   74.8730  223.3810 H   0  0  0  0  0  0  0  0  0  0  0  0
  141.4242   75.6556  220.5603 H   0  0  0  0  0  0  0  0  0  0  0  0
  139.4110   76.5251  219.1664 H   0  0  0  0  0  0  0  0  0  0  0  0
  139.1010   77.7060  220.4374 H   0  0  0  0  0  0  0  0  0  0  0  0
  141.9061   77.3045  219.1564 H   0  0  0  0  0  0  0  0  0  0  0  0
  140.7984   78.5057  218.5365 H   0  0  0  0  0  0  0  0  0  0  0  0
  141.7029   80.5715  219.3927 H   0  0  0  0  0  0  0  0  0  0  0  0
  142.2696   82.0237  221.3542 H   0  0  0  0  0  0  0  0  0  0  0  0
  141.7069   78.6488  223.9583 H   0  0  0  0  0  0  0  0  0  0  0  0
  141.9861   76.3300  222.5097 H   0  0  0  0  0  0  0  0  0  0  0  0
  140.3046   76.8191  222.9667 H   0  0  0  0  0  0  0  0  0  0  0  0
  137.9455   73.5455  222.5694 H   0  0  0  0  0  0  0  0  0  0  0  0
  137.4313   72.1938  221.4443 H   0  0  0  0  0  0  0  0  0  0  0  0
  137.7756   72.1278  224.2678 H   0  0  0  0  0  0  0  0  0  0  0  0
  137.2771   70.8215  223.1516 H   0  0  0  0  0  0  0  0  0  0  0  0
  1  2  1  0
  2  3  1  0
  3  4  2  0
  3  5  1  0
  5  6  1  0
  6  7  2  0
  7  8  1  0
  8  9  2  0
  9 10  1  0
 10 11  2  0
  5 12  1  0
 12 13  1  0
 13 14  1  0
 14 15  1  0
 15 16  1  0
 16 17  2  0
 16 18  1  0
 18 19  1  0
 18 20  1  0
 20 21  1  0
 21 22  1  0
 22 23  1  0
 23 24  2  0
 24 25  1  0
 25 26  2  0
 26 27  1  0
 26 28  1  0
 28 29  2  0
 29 30  1  0
 15 31  1  0
 31 32  1  0
 11  6  1  0
 32 12  1  0
 30 20  1  0
 29 23  1  0
  1 33  1  0
  1 34  1  0
  1 35  1  0
  2 36  1  0
  2 37  1  0
  7 38  1  0
  8 39  1  0
  9 40  1  0
 10 41  1  0
 11 42  1  0
 12 43  1  0
 13 44  1  0
 13 45  1  0
 14 46  1  0
 14 47  1  0
 18 48  1  6
 19 49  1  0
 19 50  1  0
 20 51  1  6
 21 52  1  0
 21 53  1  0
 22 54  1  0
 22 55  1  0
 24 56  1  0
 25 57  1  0
 28 58  1  0
 30 59  1  0
 30 60  1  0
 31 61  1  0
 31 62  1  0
 32 63  1  0
 32 64  1  0
M  END
>  <smiles>  (53) 
CCC(=O)N(c1ccccc1)C1CCN(C(=O)[C@@H](N)C2CCc3ccc(Br)cc3C2)CC1

>  <score_type>  (53) 
oracle

>  <origin>  (53) 
autodockgpu

>  <m_score__min__energy>  (53) 
-9.2699999999999996

>  <m_primary>  (53) 
energy

>  <rmsd>  (53) 
6.1530217990683465

>  <m_score__min__rmsd>  (53) 
6.1530217990683465

>  <meeko>  (53) 
{"free_energy": -9.24, "intermolecular_energy": -11.33, "internal_energy": -1.38, "cluster_size": 21, "cluster_id": 1, "rank_in_cluster": 2}

>  <energy>  (53) 
-9.22

>  <cluster_rmsd>  (53) 
0.36

>  <cluster>  (53) 
1

$$$$

     RDKit          3D

 64 67  0  0  0  0  0  0  0  0999 V2000
  146.3380   73.0640  221.8850 C   0  0  0  0  0  0  0  0  0  0  0  0
  145.9450   74.1120  220.8650 C   0  0  0  0  0  0  0  0  0  0  0  0
  145.2240   73.4330  219.7650 C   0  0  0  0  0  0  0  0  0  0  0  0
  145.8890   72.5870  219.0930 O   0  0  0  0  0  0  0  0  0  0  0  0
  143.8650   73.7350  219.5080 N   0  0  0  0  0  0  0  0  0  0  0  0
  143.5310   75.0000  218.8970 C   0  0  0  0  0  0  0  0  0  0  0  0
  143.6110   75.0150  217.5090 C   0  0  0  0  0  0  0  0  0  0  0  0
  143.3130   76.1740  216.8180 C   0  0  0  0  0  0  0  0  0  0  0  0
  142.9380   77.3010  217.5550 C   0  0  0  0  0  0  0  0  0  0  0  0
  142.8640   77.2680  218.9330 C   0  0  0  0  0  0  0  0  0  0  0  0
  143.1650   76.0970  219.6370 C   0  0  0  0  0  0  0  0  0  0  0  0
  142.7740   72.8390  219.8260 C   0  0  0  0  0  0  0  0  0  0  0  0
  143.3680   71.4320  219.9120 C   0  0  0  0  0  0  0  0  0  0  0  0
  142.2580   70.4230  219.9710 C   0  0  0  0  0  0  0  0  0  0  0  0
  141.0970   71.0320  220.5920 N   0  0  0  0  0  0  0  0  0  0  0  0
  139.8370   70.4580  220.1910 C   0  0  0  0  0  0  0  0  0  0  0  0
  139.9240   69.5330  219.3190 O   0  0  0  0  0  0  0  0  0  0  0  0
  138.5300   70.8760  220.7190 C   0  0  1  0  0  0  0  0  0  0  0  0
  137.4460   70.4810  219.8190 N   0  0  0  0  0  0  0  0  0  0  0  0
  138.3450   70.2240  222.0720 C   0  0  1  0  0  0  0  0  0  0  0  0
  139.2230   68.9770  222.0590 C   0  0  0  0  0  0  0  0  0  0  0  0
  138.7960   68.1860  223.3050 C   0  0  0  0  0  0  0  0  0  0  0  0
  139.3420   69.0200  224.4250 C   0  0  0  0  0  0  0  0  0  0  0  0
  139.9320   68.3920  225.5280 C   0  0  0  0  0  0  0  0  0  0  0  0
  140.4400   69.1670  226.5690 C   0  0  0  0  0  0  0  0  0  0  0  0
  140.3490   70.5510  226.4900 C   0  0  0  0  0  0  0  0  0  0  0  0
  141.0550   71.5780  227.9340 Br  0  0  0  0  0  0  0  0  0  0  0  0
  139.7580   71.1370  225.3840 C   0  0  0  0  0  0  0  0  0  0  0  0
  139.2450   70.3880  224.3340 C   0  0  0  0  0  0  0  0  0  0  0  0
  138.6400   71.1250  223.2100 C   0  0  0  0  0  0  0  0  0  0  0  0
  141.1610   72.1310  221.5320 C   0  0  0  0  0  0  0  0  0  0  0  0
  142.1400   73.2080  221.1550 C   0  0  0  0  0  0  0  0  0  0  0  0
  146.1879   73.4643  222.8985 H   0  0  0  0  0  0  0  0  0  0  0  0
  145.7148   72.1679  221.7487 H   0  0  0  0  0  0  0  0  0  0  0  0
  147.3968   72.7986  221.7487 H   0  0  0  0  0  0  0  0  0  0  0  0
  145.2904   74.8617  221.3335 H   0  0  0  0  0  0  0  0  0  0  0  0
  146.8393   74.6221  220.4777 H   0  0  0  0  0  0  0  0  0  0  0  0
  143.9102   74.1080  216.9632 H   0  0  0  0  0  0  0  0  0  0  0  0
  143.3693   76.2087  215.7200 H   0  0  0  0  0  0  0  0  0  0  0  0
  142.6966   78.2344  217.0254 H   0  0  0  0  0  0  0  0  0  0  0  0
  142.5651   78.1722  219.4836 H   0  0  0  0  0  0  0  0  0  0  0  0
  143.1108   76.0570  220.7349 H   0  0  0  0  0  0  0  0  0  0  0  0
  141.9906   72.9012  219.0563 H   0  0  0  0  0  0  0  0  0  0  0  0
  143.9898   71.2416  219.0248 H   0  0  0  0  0  0  0  0  0  0  0  0
  143.9867   71.3499  220.8178 H   0  0  0  0  0  0  0  0  0  0  0  0
  142.0023   70.0964  218.9522 H   0  0  0  0  0  0  0  0  0  0  0  0
  142.5796   69.5515  220.5601 H   0  0  0  0  0  0  0  0  0  0  0  0
  138.5012   71.9720  220.8081 H   0  0  0  0  0  0  0  0  0  0  0  0
  137.1730   71.3600  219.3170 H   0  0  0  0  0  0  0  0  0  0  0  0
  137.7510   69.8140  219.1060 H   0  0  0  0  0  0  0  0  0  0  0  0
  137.2882   69.9630  222.2302 H   0  0  0  0  0  0  0  0  0  0  0  0
  139.0470   68.3882  221.1467 H   0  0  0  0  0  0  0  0  0  0  0  0
  140.2951   69.2229  222.0695 H   0  0  0  0  0  0  0  0  0  0  0  0
  137.7008   68.1049  223.3678 H   0  0  0  0  0  0  0  0  0  0  0  0
  139.1636   67.1492  223.3122 H   0  0  0  0  0  0  0  0  0  0  0  0
  139.9943   67.2947  225.5729 H   0  0  0  0  0  0  0  0  0  0  0  0
  140.9073   68.6887  227.4424 H   0  0  0  0  0  0  0  0  0  0  0  0
  139.6926   72.2340  225.3355 H   0  0  0  0  0  0  0  0  0  0  0  0
  137.7035   71.5912  223.5500 H   0  0  0  0  0  0  0  0  0  0  0  0
  139.3548   71.8894  222.8713 H   0  0  0  0  0  0  0  0  0  0  0  0
  140.1608   72.5833  221.6026 H   0  0  0  0  0  0  0  0  0  0  0  0
  141.5066   71.7099  222.4876 H   0  0  0  0  0  0  0  0  0  0  0  0
  141.6152   74.1702  221.0613 H   0  0  0  0  0  0  0  0  0  0  0  0
  142.9154   73.3004  221.9297 H   0  0  0  0  0  0  0  0  0  0  0  0
  1  2  1  0
  2  3  1  0
  3  4  2  0
  3  5  1  0
  5  6  1  0
  6  7  2  0
  7  8  1  0
  8  9  2  0
  9 10  1  0
 10 11  2  0
  5 12  1  0
 12 13  1  0
 13 14  1  0
 14 15  1  0
 15 16  1  0
 16 17  2  0
 16 18  1  0
 18 19  1  0
 18 20  1  0
 20 21  1  0
 21 22  1  0
 22 23  1  0
 23 24  2  0
 24 25  1  0
 25 26  2  0
 26 27  1  0
 26 28  1  0
 28 29  2  0
 29 30  1  0
 15 31  1  0
 31 32  1  0
 11  6  1  0
 32 12  1  0
 30 20  1  0
 29 23  1  0
  1 33  1  0
  1 34  1  0
  1 35  1  0
  2 36  1  0
  2 37  1  0
  7 38  1  0
  8 39  1  0
  9 40  1  0
 10 41  1  0
 11 42  1  0
 12 43  1  0
 13 44  1  0
 13 45  1  0
 14 46  1  0
 14 47  1  0
 18 48  1  1
 19 49  1  0
 19 50  1  0
 20 51  1  1
 21 52  1  0
 21 53  1  0
 22 54  1  0
 22 55  1  0
 24 56  1  0
 25 57  1  0
 28 58  1  0
 30 59  1  0
 30 60  1  0
 31 61  1  0
 31 62  1  0
 32 63  1  0
 32 64  1  0
M  END
>  <smiles>  (54) 
CCC(=O)N(c1ccccc1)C1CCN(C(=O)[C@@H](N)C2CCc3ccc(Br)cc3C2)CC1

>  <score_type>  (54) 
oracle

>  <origin>  (54) 
autodockgpu

>  <m_score__min__energy>  (54) 
-9.2699999999999996

>  <m_primary>  (54) 
energy

>  <rmsd>  (54) 
8.882226308319227

>  <m_score__min__rmsd>  (54) 
8.882226308319227

>  <meeko>  (54) 
{"free_energy": -7.85, "intermolecular_energy": -9.94, "internal_energy": -2.49, "cluster_size": 8, "cluster_id": 4, "rank_in_cluster": 3}

>  <energy>  (54) 
-9.18

>  <cluster_rmsd>  (54) 
0.59

>  <cluster>  (54) 
1

$$$$

     RDKit          3D

 64 67  0  0  0  0  0  0  0  0999 V2000
  134.9000   70.8390  224.8890 C   0  0  0  0  0  0  0  0  0  0  0  0
  135.6490   69.6450  225.4410 C   0  0  0  0  0  0  0  0  0  0  0  0
  136.7090   69.2820  224.4730 C   0  0  0  0  0  0  0  0  0  0  0  0
  136.3870   68.4560  223.5670 O   0  0  0  0  0  0  0  0  0  0  0  0
  138.0020   69.8500  224.5840 N   0  0  0  0  0  0  0  0  0  0  0  0
  138.8800   69.3920  225.6350 C   0  0  0  0  0  0  0  0  0  0  0  0
  138.8940   68.0150  225.8240 C   0  0  0  0  0  0  0  0  0  0  0  0
  139.6990   67.4650  226.8030 C   0  0  0  0  0  0  0  0  0  0  0  0
  140.4800   68.3310  227.5750 C   0  0  0  0  0  0  0  0  0  0  0  0
  140.4540   69.6960  227.3730 C   0  0  0  0  0  0  0  0  0  0  0  0
  139.6390   70.2570  226.3830 C   0  0  0  0  0  0  0  0  0  0  0  0
  138.5020   70.8760  223.6950 C   0  0  0  0  0  0  0  0  0  0  0  0
  139.5480   70.2110  222.7980 C   0  0  0  0  0  0  0  0  0  0  0  0
  140.2990   71.2670  222.0400 C   0  0  0  0  0  0  0  0  0  0  0  0
  139.4350   72.4160  221.8460 N   0  0  0  0  0  0  0  0  0  0  0  0
  140.1330   73.6690  221.7050 C   0  0  0  0  0  0  0  0  0  0  0  0
  141.3990   73.5920  221.8150 O   0  0  0  0  0  0  0  0  0  0  0  0
  139.4760   74.9610  221.4530 C   0  0  1  0  0  0  0  0  0  0  0  0
  138.7200   75.4060  222.6230 N   0  0  0  0  0  0  0  0  0  0  0  0
  140.5520   75.9710  221.1160 C   0  0  1  0  0  0  0  0  0  0  0  0
  139.9470   76.8880  220.0580 C   0  0  0  0  0  0  0  0  0  0  0  0
  141.1350   77.7030  219.5230 C   0  0  0  0  0  0  0  0  0  0  0  0
  141.4530   78.6120  220.6740 C   0  0  0  0  0  0  0  0  0  0  0  0
  141.7870   79.9470  220.4260 C   0  0  0  0  0  0  0  0  0  0  0  0
  142.0820   80.7920  221.4940 C   0  0  0  0  0  0  0  0  0  0  0  0
  142.0380   80.2880  222.7880 C   0  0  0  0  0  0  0  0  0  0  0  0
  142.4480   81.4740  224.2250 Br  0  0  0  0  0  0  0  0  0  0  0  0
  141.7030   78.9610  222.9950 C   0  0  0  0  0  0  0  0  0  0  0  0
  141.4060   78.1000  221.9480 C   0  0  0  0  0  0  0  0  0  0  0  0
  141.0640   76.7080  222.2950 C   0  0  0  0  0  0  0  0  0  0  0  0
  137.9900   72.3480  221.8020 C   0  0  0  0  0  0  0  0  0  0  0  0
  137.3840   71.4450  222.8410 C   0  0  0  0  0  0  0  0  0  0  0  0
  134.5176   71.4486  225.7210 H   0  0  0  0  0  0  0  0  0  0  0  0
  135.5799   71.4453  224.2725 H   0  0  0  0  0  0  0  0  0  0  0  0
  134.0582   70.4908  224.2725 H   0  0  0  0  0  0  0  0  0  0  0  0
  136.1010   69.9033  226.4100 H   0  0  0  0  0  0  0  0  0  0  0  0
  134.9621   68.7989  225.5904 H   0  0  0  0  0  0  0  0  0  0  0  0
  138.2663   67.3654  225.1963 H   0  0  0  0  0  0  0  0  0  0  0  0
  139.7249   66.3781  226.9703 H   0  0  0  0  0  0  0  0  0  0  0  0
  141.1289   67.9153  228.3600 H   0  0  0  0  0  0  0  0  0  0  0  0
  141.0807   70.3502  227.9969 H   0  0  0  0  0  0  0  0  0  0  0  0
  139.6082   71.3432  226.2120 H   0  0  0  0  0  0  0  0  0  0  0  0
  138.9329   71.7070  224.2727 H   0  0  0  0  0  0  0  0  0  0  0  0
  140.2505   69.6350  223.4183 H   0  0  0  0  0  0  0  0  0  0  0  0
  139.0475   69.5355  222.0886 H   0  0  0  0  0  0  0  0  0  0  0  0
  141.1894   71.5678  222.6115 H   0  0  0  0  0  0  0  0  0  0  0  0
  140.6130   70.8699  221.0634 H   0  0  0  0  0  0  0  0  0  0  0  0
  138.7642   74.8573  220.6208 H   0  0  0  0  0  0  0  0  0  0  0  0
  138.0490   74.6260  222.8290 H   0  0  0  0  0  0  0  0  0  0  0  0
  139.3080   75.5170  223.4520 H   0  0  0  0  0  0  0  0  0  0  0  0
  141.4495   75.4628  220.7336 H   0  0  0  0  0  0  0  0  0  0  0  0
  139.4862   76.2987  219.2515 H   0  0  0  0  0  0  0  0  0  0  0  0
  139.1530   77.5295  220.4679 H   0  0  0  0  0  0  0  0  0  0  0  0
  141.9883   77.0512  219.2842 H   0  0  0  0  0  0  0  0  0  0  0  0
  140.9119   78.2406  218.5896 H   0  0  0  0  0  0  0  0  0  0  0  0
  141.8167   80.3277  219.3944 H   0  0  0  0  0  0  0  0  0  0  0  0
  142.3463   81.8446  221.3149 H   0  0  0  0  0  0  0  0  0  0  0  0
  141.6711   78.5757  224.0248 H   0  0  0  0  0  0  0  0  0  0  0  0
  141.9644   76.2008  222.6717 H   0  0  0  0  0  0  0  0  0  0  0  0
  140.2772   76.7244  223.0635 H   0  0  0  0  0  0  0  0  0  0  0  0
  137.5921   73.3625  221.9520 H   0  0  0  0  0  0  0  0  0  0  0  0
  137.7228   71.9264  220.8218 H   0  0  0  0  0  0  0  0  0  0  0  0
  136.6901   72.0192  223.4725 H   0  0  0  0  0  0  0  0  0  0  0  0
  136.8289   70.6295  222.3543 H   0  0  0  0  0  0  0  0  0  0  0  0
  1  2  1  0
  2  3  1  0
  3  4  2  0
  3  5  1  0
  5  6  1  0
  6  7  2  0
  7  8  1  0
  8  9  2  0
  9 10  1  0
 10 11  2  0
  5 12  1  0
 12 13  1  0
 13 14  1  0
 14 15  1  0
 15 16  1  0
 16 17  2  0
 16 18  1  0
 18 19  1  0
 18 20  1  0
 20 21  1  0
 21 22  1  0
 22 23  1  0
 23 24  2  0
 24 25  1  0
 25 26  2  0
 26 27  1  0
 26 28  1  0
 28 29  2  0
 29 30  1  0
 15 31  1  0
 31 32  1  0
 11  6  1  0
 32 12  1  0
 30 20  1  0
 29 23  1  0
  1 33  1  0
  1 34  1  0
  1 35  1  0
  2 36  1  0
  2 37  1  0
  7 38  1  0
  8 39  1  0
  9 40  1  0
 10 41  1  0
 11 42  1  0
 12 43  1  0
 13 44  1  0
 13 45  1  0
 14 46  1  0
 14 47  1  0
 18 48  1  6
 19 49  1  0
 19 50  1  0
 20 51  1  6
 21 52  1  0
 21 53  1  0
 22 54  1  0
 22 55  1  0
 24 56  1  0
 25 57  1  0
 28 58  1  0
 30 59  1  0
 30 60  1  0
 31 61  1  0
 31 62  1  0
 32 63  1  0
 32 64  1  0
M  END
>  <smiles>  (55) 
CCC(=O)N(c1ccccc1)C1CCN(C(=O)[C@@H](N)C2CCc3ccc(Br)cc3C2)CC1

>  <score_type>  (55) 
oracle

>  <origin>  (55) 
autodockgpu

>  <m_score__min__energy>  (55) 
-9.2699999999999996

>  <m_primary>  (55) 
energy

>  <rmsd>  (55) 
6.432613178653231

>  <m_score__min__rmsd>  (55) 
6.432613178653231

>  <meeko>  (55) 
{"free_energy": -8.74, "intermolecular_energy": -10.83, "internal_energy": -1.63, "cluster_size": 21, "cluster_id": 1, "rank_in_cluster": 5}

>  <energy>  (55) 
-8.74

>  <cluster_rmsd>  (55) 
1.03

>  <cluster>  (55) 
1

$$$$

     RDKit          3D

 64 67  0  0  0  0  0  0  0  0999 V2000
  142.5650   79.0950  217.6940 C   0  0  0  0  0  0  0  0  0  0  0  0
  141.8990   79.6420  218.9390 C   0  0  0  0  0  0  0  0  0  0  0  0
  141.8390   78.5550  219.9420 C   0  0  0  0  0  0  0  0  0  0  0  0
  142.4410   77.4790  219.6440 O   0  0  0  0  0  0  0  0  0  0  0  0
  141.1370   78.7420  221.1570 N   0  0  0  0  0  0  0  0  0  0  0  0
  141.6490   79.6870  222.1230 C   0  0  0  0  0  0  0  0  0  0  0  0
  141.2450   81.0010  221.9220 C   0  0  0  0  0  0  0  0  0  0  0  0
  141.6740   81.9900  222.7870 C   0  0  0  0  0  0  0  0  0  0  0  0
  142.5100   81.6210  223.8450 C   0  0  0  0  0  0  0  0  0  0  0  0
  142.9010   80.3100  224.0290 C   0  0  0  0  0  0  0  0  0  0  0  0
  142.4690   79.3050  223.1560 C   0  0  0  0  0  0  0  0  0  0  0  0
  139.9220   78.0340  221.4950 C   0  0  0  0  0  0  0  0  0  0  0  0
  140.3360   76.6230  221.9170 C   0  0  0  0  0  0  0  0  0  0  0  0
  139.1160   75.7550  222.0200 C   0  0  0  0  0  0  0  0  0  0  0  0
  137.9740   76.5810  222.3640 N   0  0  0  0  0  0  0  0  0  0  0  0
  136.7060   76.0600  221.9200 C   0  0  0  0  0  0  0  0  0  0  0  0
  136.7760   74.9760  221.2540 O   0  0  0  0  0  0  0  0  0  0  0  0
  135.4070   76.6940  222.1900 C   0  0  1  0  0  0  0  0  0  0  0  0
  134.3460   76.0900  221.3850 N   0  0  0  0  0  0  0  0  0  0  0  0
  135.1030   76.5230  223.6630 C   0  0  1  0  0  0  0  0  0  0  0  0
  133.6440   76.9330  223.8390 C   0  0  0  0  0  0  0  0  0  0  0  0
  133.4490   77.0360  225.3600 C   0  0  0  0  0  0  0  0  0  0  0  0
  133.4920   75.6000  225.7930 C   0  0  0  0  0  0  0  0  0  0  0  0
  132.6020   75.1500  226.7730 C   0  0  0  0  0  0  0  0  0  0  0  0
  132.6400   73.8150  227.1760 C   0  0  0  0  0  0  0  0  0  0  0  0
  133.5660   72.9600  226.5930 C   0  0  0  0  0  0  0  0  0  0  0  0
  133.5900   71.1410  227.1700 Br  0  0  0  0  0  0  0  0  0  0  0  0
  134.4320   73.4410  225.6260 C   0  0  0  0  0  0  0  0  0  0  0  0
  134.4130   74.7640  225.2090 C   0  0  0  0  0  0  0  0  0  0  0  0
  135.3840   75.1590  224.1720 C   0  0  0  0  0  0  0  0  0  0  0  0
  138.0650   77.8340  223.0830 C   0  0  0  0  0  0  0  0  0  0  0  0
  139.1970   78.7180  222.6400 C   0  0  0  0  0  0  0  0  0  0  0  0
  143.3852   78.4213  217.9828 H   0  0  0  0  0  0  0  0  0  0  0  0
  141.8268   78.5391  217.0974 H   0  0  0  0  0  0  0  0  0  0  0  0
  142.9668   79.9272  217.0974 H   0  0  0  0  0  0  0  0  0  0  0  0
  142.4847   80.4842  219.3361 H   0  0  0  0  0  0  0  0  0  0  0  0
  140.8861   80.0007  218.7038 H   0  0  0  0  0  0  0  0  0  0  0  0
  140.5864   81.2532  221.0779 H   0  0  0  0  0  0  0  0  0  0  0  0
  141.3666   83.0369  222.6470 H   0  0  0  0  0  0  0  0  0  0  0  0
  142.8637   82.3917  224.5457 H   0  0  0  0  0  0  0  0  0  0  0  0
  143.5597   80.0522  224.8714 H   0  0  0  0  0  0  0  0  0  0  0  0
  142.7726   78.2564  223.2913 H   0  0  0  0  0  0  0  0  0  0  0  0
  139.2376   78.0148  220.6341 H   0  0  0  0  0  0  0  0  0  0  0  0
  141.0232   76.2027  221.1679 H   0  0  0  0  0  0  0  0  0  0  0  0
  140.8405   76.6649  222.8936 H   0  0  0  0  0  0  0  0  0  0  0  0
  138.9345   75.2586  221.0553 H   0  0  0  0  0  0  0  0  0  0  0  0
  139.2687   74.9914  222.7969 H   0  0  0  0  0  0  0  0  0  0  0  0
  135.4549   77.7602  221.9238 H   0  0  0  0  0  0  0  0  0  0  0  0
  134.8370   75.6480  220.5710 H   0  0  0  0  0  0  0  0  0  0  0  0
  133.8570   75.3390  221.8790 H   0  0  0  0  0  0  0  0  0  0  0  0
  135.7687   77.1561  224.2681 H   0  0  0  0  0  0  0  0  0  0  0  0
  133.4526   77.9029  223.3567 H   0  0  0  0  0  0  0  0  0  0  0  0
  132.9509   76.2139  223.3781 H   0  0  0  0  0  0  0  0  0  0  0  0
  134.2594   77.6158  225.8260 H   0  0  0  0  0  0  0  0  0  0  0  0
  132.5216   77.5525  225.6484 H   0  0  0  0  0  0  0  0  0  0  0  0
  131.8768   75.8439  227.2231 H   0  0  0  0  0  0  0  0  0  0  0  0
  131.9460   73.4447  227.9450 H   0  0  0  0  0  0  0  0  0  0  0  0
  135.1594   72.7512  225.1732 H   0  0  0  0  0  0  0  0  0  0  0  0
  136.3961   75.1385  224.6023 H   0  0  0  0  0  0  0  0  0  0  0  0
  135.3035   74.4518  223.3333 H   0  0  0  0  0  0  0  0  0  0  0  0
  137.1225   78.3829  222.9401 H   0  0  0  0  0  0  0  0  0  0  0  0
  138.2554   77.5808  224.1364 H   0  0  0  0  0  0  0  0  0  0  0  0
  138.8009   79.6871  222.3023 H   0  0  0  0  0  0  0  0  0  0  0  0
  139.8906   78.8901  223.4763 H   0  0  0  0  0  0  0  0  0  0  0  0
  1  2  1  0
  2  3  1  0
  3  4  2  0
  3  5  1  0
  5  6  1  0
  6  7  2  0
  7  8  1  0
  8  9  2  0
  9 10  1  0
 10 11  2  0
  5 12  1  0
 12 13  1  0
 13 14  1  0
 14 15  1  0
 15 16  1  0
 16 17  2  0
 16 18  1  0
 18 19  1  0
 18 20  1  0
 20 21  1  0
 21 22  1  0
 22 23  1  0
 23 24  2  0
 24 25  1  0
 25 26  2  0
 26 27  1  0
 26 28  1  0
 28 29  2  0
 29 30  1  0
 15 31  1  0
 31 32  1  0
 11  6  1  0
 32 12  1  0
 30 20  1  0
 29 23  1  0
  1 33  1  0
  1 34  1  0
  1 35  1  0
  2 36  1  0
  2 37  1  0
  7 38  1  0
  8 39  1  0
  9 40  1  0
 10 41  1  0
 11 42  1  0
 12 43  1  0
 13 44  1  0
 13 45  1  0
 14 46  1  0
 14 47  1  0
 18 48  1  6
 19 49  1  0
 19 50  1  0
 20 51  1  1
 21 52  1  0
 21 53  1  0
 22 54  1  0
 22 55  1  0
 24 56  1  0
 25 57  1  0
 28 58  1  0
 30 59  1  0
 30 60  1  0
 31 61  1  0
 31 62  1  0
 32 63  1  0
 32 64  1  0
M  END
>  <smiles>  (56) 
CCC(=O)N(c1ccccc1)C1CCN(C(=O)[C@@H](N)C2CCc3ccc(Br)cc3C2)CC1

>  <score_type>  (56) 
oracle

>  <origin>  (56) 
autodockgpu

>  <m_score__min__energy>  (56) 
-9.2699999999999996

>  <m_primary>  (56) 
energy

>  <rmsd>  (56) 
6.955099123860963

>  <m_score__min__rmsd>  (56) 
6.955099123860963

>  <meeko>  (56) 
{"free_energy": -6.79, "intermolecular_energy": -8.88, "internal_energy": -2.31, "cluster_size": 1, "cluster_id": 10, "rank_in_cluster": 1}

>  <energy>  (56) 
-8.71

>  <cluster_rmsd>  (56) 
0.64

>  <cluster>  (56) 
1

$$$$

     RDKit          3D

 64 67  0  0  0  0  0  0  0  0999 V2000
  136.2220   69.6310  225.0590 C   0  0  0  0  0  0  0  0  0  0  0  0
  136.8210   69.0280  223.8050 C   0  0  0  0  0  0  0  0  0  0  0  0
  138.2870   68.9460  223.9930 C   0  0  0  0  0  0  0  0  0  0  0  0
  138.8250   67.8250  223.7410 O   0  0  0  0  0  0  0  0  0  0  0  0
  139.0160   70.0780  224.4300 N   0  0  0  0  0  0  0  0  0  0  0  0
  139.6150   70.0610  225.7450 C   0  0  0  0  0  0  0  0  0  0  0  0
  139.4570   68.8690  226.4410 C   0  0  0  0  0  0  0  0  0  0  0  0
  139.9900   68.7410  227.7090 C   0  0  0  0  0  0  0  0  0  0  0  0
  140.6780   69.8330  228.2480 C   0  0  0  0  0  0  0  0  0  0  0  0
  140.8250   71.0100  227.5410 C   0  0  0  0  0  0  0  0  0  0  0  0
  140.2860   71.1440  226.2570 C   0  0  0  0  0  0  0  0  0  0  0  0
  139.1990   71.2680  223.6290 C   0  0  0  0  0  0  0  0  0  0  0  0
  140.3550   70.9800  222.6690 C   0  0  0  0  0  0  0  0  0  0  0  0
  140.7760   72.2550  221.9970 C   0  0  0  0  0  0  0  0  0  0  0  0
  139.6320   73.1440  221.9100 N   0  0  0  0  0  0  0  0  0  0  0  0
  139.9690   74.5450  221.8700 C   0  0  0  0  0  0  0  0  0  0  0  0
  141.2140   74.7990  221.9620 O   0  0  0  0  0  0  0  0  0  0  0  0
  138.9860   75.6310  221.7360 C   0  0  1  0  0  0  0  0  0  0  0  0
  137.7420   75.3070  222.4320 N   0  0  0  0  0  0  0  0  0  0  0  0
  139.5980   76.8860  222.3210 C   0  0  1  0  0  0  0  0  0  0  0  0
  140.5730   77.4050  221.2710 C   0  0  0  0  0  0  0  0  0  0  0  0
  141.3870   78.4890  221.9950 C   0  0  0  0  0  0  0  0  0  0  0  0
  140.3860   79.5940  222.1600 C   0  0  0  0  0  0  0  0  0  0  0  0
  140.7850   80.9200  221.9620 C   0  0  0  0  0  0  0  0  0  0  0  0
  139.8550   81.9480  222.1130 C   0  0  0  0  0  0  0  0  0  0  0  0
  138.5480   81.6320  222.4600 C   0  0  0  0  0  0  0  0  0  0  0  0
  137.3040   83.0640  222.6600 Br  0  0  0  0  0  0  0  0  0  0  0  0
  138.1890   80.3080  222.6480 C   0  0  0  0  0  0  0  0  0  0  0  0
  139.0960   79.2680  222.5030 C   0  0  0  0  0  0  0  0  0  0  0  0
  138.5960   77.8990  222.7290 C   0  0  0  0  0  0  0  0  0  0  0  0
  138.2560   72.6970  221.8730 C   0  0  0  0  0  0  0  0  0  0  0  0
  137.9440   71.5860  222.8360 C   0  0  0  0  0  0  0  0  0  0  0  0
  136.6820   69.1679  225.9444 H   0  0  0  0  0  0  0  0  0  0  0  0
  136.4117   70.7144  225.0716 H   0  0  0  0  0  0  0  0  0  0  0  0
  135.1373   69.4485  225.0716 H   0  0  0  0  0  0  0  0  0  0  0  0
  136.4087   68.0215  223.6409 H   0  0  0  0  0  0  0  0  0  0  0  0
  136.5819   69.6499  222.9297 H   0  0  0  0  0  0  0  0  0  0  0  0
  138.9100   68.0310  225.9844 H   0  0  0  0  0  0  0  0  0  0  0  0
  139.8766   67.8068  228.2786 H   0  0  0  0  0  0  0  0  0  0  0  0
  141.1109   69.7525  229.2560 H   0  0  0  0  0  0  0  0  0  0  0  0
  141.3717   71.8512  227.9922 H   0  0  0  0  0  0  0  0  0  0  0  0
  140.3949   72.0759  225.6829 H   0  0  0  0  0  0  0  0  0  0  0  0
  139.4125   72.1341  224.2727 H   0  0  0  0  0  0  0  0  0  0  0  0
  141.2040   70.5642  223.2315 H   0  0  0  0  0  0  0  0  0  0  0  0
  140.0288   70.2549  221.9089 H   0  0  0  0  0  0  0  0  0  0  0  0
  141.5726   72.7355  222.5840 H   0  0  0  0  0  0  0  0  0  0  0  0
  141.1535   72.0356  220.9874 H   0  0  0  0  0  0  0  0  0  0  0  0
  138.7393   75.7768  220.6740 H   0  0  0  0  0  0  0  0  0  0  0  0
  137.0810   74.9930  221.6810 H   0  0  0  0  0  0  0  0  0  0  0  0
  137.8470   74.5230  223.0810 H   0  0  0  0  0  0  0  0  0  0  0  0
  140.1169   76.6563  223.2633 H   0  0  0  0  0  0  0  0  0  0  0  0
  141.2306   76.5964  220.9192 H   0  0  0  0  0  0  0  0  0  0  0  0
  140.0570   77.7967  220.3820 H   0  0  0  0  0  0  0  0  0  0  0  0
  141.7469   78.1302  222.9706 H   0  0  0  0  0  0  0  0  0  0  0  0
  142.2911   78.7955  221.4485 H   0  0  0  0  0  0  0  0  0  0  0  0
  141.8254   81.1503  221.6890 H   0  0  0  0  0  0  0  0  0  0  0  0
  140.1528   82.9957  221.9592 H   0  0  0  0  0  0  0  0  0  0  0  0
  137.1498   80.0727  222.9215 H   0  0  0  0  0  0  0  0  0  0  0  0
  138.3721   77.7712  223.7984 H   0  0  0  0  0  0  0  0  0  0  0  0
  137.6899   77.7555  222.1220 H   0  0  0  0  0  0  0  0  0  0  0  0
  137.6084   73.5533  222.1124 H   0  0  0  0  0  0  0  0  0  0  0  0
  138.0795   72.2991  220.8628 H   0  0  0  0  0  0  0  0  0  0  0  0
  137.1430   71.9024  223.5204 H   0  0  0  0  0  0  0  0  0  0  0  0
  137.6099   70.6938  222.2861 H   0  0  0  0  0  0  0  0  0  0  0  0
  1  2  1  0
  2  3  1  0
  3  4  2  0
  3  5  1  0
  5  6  1  0
  6  7  2  0
  7  8  1  0
  8  9  2  0
  9 10  1  0
 10 11  2  0
  5 12  1  0
 12 13  1  0
 13 14  1  0
 14 15  1  0
 15 16  1  0
 16 17  2  0
 16 18  1  0
 18 19  1  0
 18 20  1  0
 20 21  1  0
 21 22  1  0
 22 23  1  0
 23 24  2  0
 24 25  1  0
 25 26  2  0
 26 27  1  0
 26 28  1  0
 28 29  2  0
 29 30  1  0
 15 31  1  0
 31 32  1  0
 11  6  1  0
 32 12  1  0
 30 20  1  0
 29 23  1  0
  1 33  1  0
  1 34  1  0
  1 35  1  0
  2 36  1  0
  2 37  1  0
  7 38  1  0
  8 39  1  0
  9 40  1  0
 10 41  1  0
 11 42  1  0
 12 43  1  0
 13 44  1  0
 13 45  1  0
 14 46  1  0
 14 47  1  0
 18 48  1  6
 19 49  1  0
 19 50  1  0
 20 51  1  1
 21 52  1  0
 21 53  1  0
 22 54  1  0
 22 55  1  0
 24 56  1  0
 25 57  1  0
 28 58  1  0
 30 59  1  0
 30 60  1  0
 31 61  1  0
 31 62  1  0
 32 63  1  0
 32 64  1  0
M  END
>  <smiles>  (57) 
CCC(=O)N(c1ccccc1)C1CCN(C(=O)[C@@H](N)C2CCc3ccc(Br)cc3C2)CC1

>  <score_type>  (57) 
oracle

>  <origin>  (57) 
autodockgpu

>  <m_score__min__energy>  (57) 
-9.2699999999999996

>  <m_primary>  (57) 
energy

>  <rmsd>  (57) 
5.754897284025061

>  <m_score__min__rmsd>  (57) 
5.754897284025061

>  <meeko>  (57) 
{"free_energy": -8.35, "intermolecular_energy": -10.44, "internal_energy": -1.13, "cluster_size": 21, "cluster_id": 1, "rank_in_cluster": 18}

>  <energy>  (57) 
-8.7

>  <cluster_rmsd>  (57) 
1.05

>  <cluster>  (57) 
1

$$$$

     RDKit          3D

 64 67  0  0  0  0  0  0  0  0999 V2000
  142.5850   77.4870  218.6300 C   0  0  0  0  0  0  0  0  0  0  0  0
  141.1520   77.6570  218.1730 C   0  0  0  0  0  0  0  0  0  0  0  0
  140.3550   78.1240  219.3310 C   0  0  0  0  0  0  0  0  0  0  0  0
  139.5790   79.1050  219.1220 O   0  0  0  0  0  0  0  0  0  0  0  0
  140.4790   77.4840  220.5870 N   0  0  0  0  0  0  0  0  0  0  0  0
  140.8640   78.2680  221.7380 C   0  0  0  0  0  0  0  0  0  0  0  0
  142.1640   78.7560  221.7020 C   0  0  0  0  0  0  0  0  0  0  0  0
  142.6400   79.5190  222.7510 C   0  0  0  0  0  0  0  0  0  0  0  0
  141.7780   79.7730  223.8230 C   0  0  0  0  0  0  0  0  0  0  0  0
  140.4890   79.2800  223.8420 C   0  0  0  0  0  0  0  0  0  0  0  0
  140.0040   78.5060  222.7810 C   0  0  0  0  0  0  0  0  0  0  0  0
  140.2410   76.0720  220.7910 C   0  0  0  0  0  0  0  0  0  0  0  0
  141.4430   75.5290  221.5670 C   0  0  0  0  0  0  0  0  0  0  0  0
  141.3940   74.0290  221.5780 C   0  0  0  0  0  0  0  0  0  0  0  0
  140.0100   73.5990  221.4950 N   0  0  0  0  0  0  0  0  0  0  0  0
  139.8250   72.2990  220.9030 C   0  0  0  0  0  0  0  0  0  0  0  0
  140.8940   71.7370  220.4990 O   0  0  0  0  0  0  0  0  0  0  0  0
  138.5220   71.6330  220.7540 C   0  0  1  0  0  0  0  0  0  0  0  0
  138.5040   70.7640  219.5780 N   0  0  0  0  0  0  0  0  0  0  0  0
  138.2710   70.8180  222.0050 C   0  0  1  0  0  0  0  0  0  0  0  0
  139.0330   69.5110  221.8120 C   0  0  0  0  0  0  0  0  0  0  0  0
  138.5290   68.5950  222.9380 C   0  0  0  0  0  0  0  0  0  0  0  0
  139.1420   69.2130  224.1600 C   0  0  0  0  0  0  0  0  0  0  0  0
  139.6660   68.3870  225.1600 C   0  0  0  0  0  0  0  0  0  0  0  0
  140.2370   68.9590  226.2960 C   0  0  0  0  0  0  0  0  0  0  0  0
  140.2720   70.3430  226.4110 C   0  0  0  0  0  0  0  0  0  0  0  0
  141.0600   71.0910  227.9790 Br  0  0  0  0  0  0  0  0  0  0  0  0
  139.7430   71.1290  225.4010 C   0  0  0  0  0  0  0  0  0  0  0  0
  139.1700   70.5830  224.2610 C   0  0  0  0  0  0  0  0  0  0  0  0
  138.6400   71.5210  223.2550 C   0  0  0  0  0  0  0  0  0  0  0  0
  138.8860   74.3890  221.9500 C   0  0  0  0  0  0  0  0  0  0  0  0
  138.9720   75.8460  221.5920 C   0  0  0  0  0  0  0  0  0  0  0  0
  142.6212   77.4827  219.7294 H   0  0  0  0  0  0  0  0  0  0  0  0
  142.9818   76.5355  218.2464 H   0  0  0  0  0  0  0  0  0  0  0  0
  143.1934   78.3193  218.2464 H   0  0  0  0  0  0  0  0  0  0  0  0
  141.1040   78.3996  217.3629 H   0  0  0  0  0  0  0  0  0  0  0  0
  140.7553   76.7029  217.7957 H   0  0  0  0  0  0  0  0  0  0  0  0
  142.8124   78.5357  220.8412 H   0  0  0  0  0  0  0  0  0  0  0  0
  143.6663   79.9149  222.7434 H   0  0  0  0  0  0  0  0  0  0  0  0
  142.1351   80.3786  224.6690 H   0  0  0  0  0  0  0  0  0  0  0  0
  139.8358   79.4975  224.6999 H   0  0  0  0  0  0  0  0  0  0  0  0
  138.9792   78.1063  222.7831 H   0  0  0  0  0  0  0  0  0  0  0  0
  140.1179   75.5612  219.8246 H   0  0  0  0  0  0  0  0  0  0  0  0
  142.3730   75.8621  221.0830 H   0  0  0  0  0  0  0  0  0  0  0  0
  141.4130   75.9048  222.6004 H   0  0  0  0  0  0  0  0  0  0  0  0
  141.9543   73.6357  220.7170 H   0  0  0  0  0  0  0  0  0  0  0  0
  141.8450   73.6500  222.5069 H   0  0  0  0  0  0  0  0  0  0  0  0
  137.7349   72.3890  220.6168 H   0  0  0  0  0  0  0  0  0  0  0  0
  139.5080   70.5160  219.4040 H   0  0  0  0  0  0  0  0  0  0  0  0
  138.0070   69.8860  219.7450 H   0  0  0  0  0  0  0  0  0  0  0  0
  137.1940   70.6342  222.1330 H   0  0  0  0  0  0  0  0  0  0  0  0
  138.8101   69.0739  220.8275 H   0  0  0  0  0  0  0  0  0  0  0  0
  140.1228   69.6554  221.8497 H   0  0  0  0  0  0  0  0  0  0  0  0
  137.4306   68.6046  222.9963 H   0  0  0  0  0  0  0  0  0  0  0  0
  138.8012   67.5384  222.7980 H   0  0  0  0  0  0  0  0  0  0  0  0
  139.6278   67.2931  225.0507 H   0  0  0  0  0  0  0  0  0  0  0  0
  140.6542   68.3230  227.0906 H   0  0  0  0  0  0  0  0  0  0  0  0
  139.7782   72.2234  225.5059 H   0  0  0  0  0  0  0  0  0  0  0  0
  137.7476   72.0178  223.6634 H   0  0  0  0  0  0  0  0  0  0  0  0
  139.4228   72.2575  223.0208 H   0  0  0  0  0  0  0  0  0  0  0  0
  137.9703   73.9769  221.5009 H   0  0  0  0  0  0  0  0  0  0  0  0
  138.8843   74.3330  223.0486 H   0  0  0  0  0  0  0  0  0  0  0  0
  138.0973   76.1321  220.9895 H   0  0  0  0  0  0  0  0  0  0  0  0
  138.9897   76.4578  222.5060 H   0  0  0  0  0  0  0  0  0  0  0  0
  1  2  1  0
  2  3  1  0
  3  4  2  0
  3  5  1  0
  5  6  1  0
  6  7  2  0
  7  8  1  0
  8  9  2  0
  9 10  1  0
 10 11  2  0
  5 12  1  0
 12 13  1  0
 13 14  1  0
 14 15  1  0
 15 16  1  0
 16 17  2  0
 16 18  1  0
 18 19  1  0
 18 20  1  0
 20 21  1  0
 21 22  1  0
 22 23  1  0
 23 24  2  0
 24 25  1  0
 25 26  2  0
 26 27  1  0
 26 28  1  0
 28 29  2  0
 29 30  1  0
 15 31  1  0
 31 32  1  0
 11  6  1  0
 32 12  1  0
 30 20  1  0
 29 23  1  0
  1 33  1  0
  1 34  1  0
  1 35  1  0
  2 36  1  0
  2 37  1  0
  7 38  1  0
  8 39  1  0
  9 40  1  0
 10 41  1  0
 11 42  1  0
 12 43  1  0
 13 44  1  0
 13 45  1  0
 14 46  1  0
 14 47  1  0
 18 48  1  6
 19 49  1  0
 19 50  1  0
 20 51  1  1
 21 52  1  0
 21 53  1  0
 22 54  1  0
 22 55  1  0
 24 56  1  0
 25 57  1  0
 28 58  1  0
 30 59  1  0
 30 60  1  0
 31 61  1  0
 31 62  1  0
 32 63  1  0
 32 64  1  0
M  END
>  <smiles>  (58) 
CCC(=O)N(c1ccccc1)C1CCN(C(=O)[C@@H](N)C2CCc3ccc(Br)cc3C2)CC1

>  <score_type>  (58) 
oracle

>  <origin>  (58) 
autodockgpu

>  <m_score__min__energy>  (58) 
-9.2699999999999996

>  <m_primary>  (58) 
energy

>  <rmsd>  (58) 
8.153033507073024

>  <m_score__min__rmsd>  (58) 
8.153033507073024

>  <meeko>  (58) 
{"free_energy": -6.97, "intermolecular_energy": -9.05, "internal_energy": -2.46, "cluster_size": 4, "cluster_id": 8, "rank_in_cluster": 4}

>  <energy>  (58) 
-8.63

>  <cluster_rmsd>  (58) 
1.01

>  <cluster>  (58) 
1

$$$$

     RDKit          3D

 64 67  0  0  0  0  0  0  0  0999 V2000
  146.2900   73.0820  221.8690 C   0  0  0  0  0  0  0  0  0  0  0  0
  145.9990   74.1220  220.8070 C   0  0  0  0  0  0  0  0  0  0  0  0
  145.2240   73.4690  219.7270 C   0  0  0  0  0  0  0  0  0  0  0  0
  145.8560   72.6450  218.9980 O   0  0  0  0  0  0  0  0  0  0  0  0
  143.8530   73.7720  219.5500 N   0  0  0  0  0  0  0  0  0  0  0  0
  143.4830   75.0620  219.0140 C   0  0  0  0  0  0  0  0  0  0  0  0
  143.6860   75.2040  217.6470 C   0  0  0  0  0  0  0  0  0  0  0  0
  143.3670   76.3970  217.0280 C   0  0  0  0  0  0  0  0  0  0  0  0
  142.8450   77.4280  217.8150 C   0  0  0  0  0  0  0  0  0  0  0  0
  142.6500   77.2690  219.1720 C   0  0  0  0  0  0  0  0  0  0  0  0
  142.9730   76.0620  219.8030 C   0  0  0  0  0  0  0  0  0  0  0  0
  142.7840   72.8540  219.8770 C   0  0  0  0  0  0  0  0  0  0  0  0
  143.4230   71.4740  220.0480 C   0  0  0  0  0  0  0  0  0  0  0  0
  142.3460   70.4310  220.1210 C   0  0  0  0  0  0  0  0  0  0  0  0
  141.1460   71.0260  220.6780 N   0  0  0  0  0  0  0  0  0  0  0  0
  139.9200   70.3900  220.2670 C   0  0  0  0  0  0  0  0  0  0  0  0
  140.0650   69.4300  219.4430 O   0  0  0  0  0  0  0  0  0  0  0  0
  138.5830   70.7850  220.7350 C   0  0  1  0  0  0  0  0  0  0  0  0
  137.5430   70.3240  219.8150 N   0  0  0  0  0  0  0  0  0  0  0  0
  138.3710   70.1770  222.1040 C   0  0  1  0  0  0  0  0  0  0  0  0
  139.2180   68.9090  222.1340 C   0  0  0  0  0  0  0  0  0  0  0  0
  138.7620   68.1640  223.3980 C   0  0  0  0  0  0  0  0  0  0  0  0
  139.3190   69.0170  224.4990 C   0  0  0  0  0  0  0  0  0  0  0  0
  139.8850   68.4060  225.6240 C   0  0  0  0  0  0  0  0  0  0  0  0
  140.4040   69.1970  226.6470 C   0  0  0  0  0  0  0  0  0  0  0  0
  140.3480   70.5800  226.5280 C   0  0  0  0  0  0  0  0  0  0  0  0
  141.0680   71.6300  227.9490 Br  0  0  0  0  0  0  0  0  0  0  0  0
  139.7810   71.1490  225.4000 C   0  0  0  0  0  0  0  0  0  0  0  0
  139.2580   70.3830  224.3690 C   0  0  0  0  0  0  0  0  0  0  0  0
  138.6800   71.1030  223.2190 C   0  0  0  0  0  0  0  0  0  0  0  0
  141.1430   72.1690  221.5660 C   0  0  0  0  0  0  0  0  0  0  0  0
  142.0960   73.2610  221.1680 C   0  0  0  0  0  0  0  0  0  0  0  0
  146.1645   73.5305  222.8655 H   0  0  0  0  0  0  0  0  0  0  0  0
  145.5935   72.2381  221.7564 H   0  0  0  0  0  0  0  0  0  0  0  0
  147.3233   72.7221  221.7564 H   0  0  0  0  0  0  0  0  0  0  0  0
  145.4131   74.9454  221.2415 H   0  0  0  0  0  0  0  0  0  0  0  0
  146.9378   74.5339  220.4082 H   0  0  0  0  0  0  0  0  0  0  0  0
  144.0989   74.3702  217.0602 H   0  0  0  0  0  0  0  0  0  0  0  0
  143.5193   76.5320  215.9470 H   0  0  0  0  0  0  0  0  0  0  0  0
  142.5841   78.3865  217.3425 H   0  0  0  0  0  0  0  0  0  0  0  0
  142.2366   78.0991  219.7636 H   0  0  0  0  0  0  0  0  0  0  0  0
  142.8245   75.9214  220.8838 H   0  0  0  0  0  0  0  0  0  0  0  0
  142.0239   72.8530  219.0819 H   0  0  0  0  0  0  0  0  0  0  0  0
  144.0790   71.2646  219.1902 H   0  0  0  0  0  0  0  0  0  0  0  0
  144.0153   71.4558  220.9748 H   0  0  0  0  0  0  0  0  0  0  0  0
  142.1335   70.0496  219.1113 H   0  0  0  0  0  0  0  0  0  0  0  0
  142.6781   69.5994  220.7598 H   0  0  0  0  0  0  0  0  0  0  0  0
  138.5182   71.8821  220.7819 H   0  0  0  0  0  0  0  0  0  0  0  0
  138.0550   70.0300  218.9480 H   0  0  0  0  0  0  0  0  0  0  0  0
  137.0490   69.4990  220.1620 H   0  0  0  0  0  0  0  0  0  0  0  0
  137.3067   69.9470  222.2604 H   0  0  0  0  0  0  0  0  0  0  0  0
  139.0349   68.2991  221.2371 H   0  0  0  0  0  0  0  0  0  0  0  0
  140.2957   69.1290  222.1471 H   0  0  0  0  0  0  0  0  0  0  0  0
  137.6647   68.1106  223.4534 H   0  0  0  0  0  0  0  0  0  0  0  0
  139.1044   67.1194  223.4378 H   0  0  0  0  0  0  0  0  0  0  0  0
  139.9198   67.3092  225.6999 H   0  0  0  0  0  0  0  0  0  0  0  0
  140.8524   68.7323  227.5375 H   0  0  0  0  0  0  0  0  0  0  0  0
  139.7442   72.2454  225.3190 H   0  0  0  0  0  0  0  0  0  0  0  0
  137.7529   71.6019  223.5378 H   0  0  0  0  0  0  0  0  0  0  0  0
  139.4163   71.8395  222.8648 H   0  0  0  0  0  0  0  0  0  0  0  0
  140.1263   72.5884  221.5850 H   0  0  0  0  0  0  0  0  0  0  0  0
  141.4725   71.8053  222.5504 H   0  0  0  0  0  0  0  0  0  0  0  0
  141.5420   74.1987  221.0135 H   0  0  0  0  0  0  0  0  0  0  0  0
  142.8431   73.4161  221.9603 H   0  0  0  0  0  0  0  0  0  0  0  0
  1  2  1  0
  2  3  1  0
  3  4  2  0
  3  5  1  0
  5  6  1  0
  6  7  2  0
  7  8  1  0
  8  9  2  0
  9 10  1  0
 10 11  2  0
  5 12  1  0
 12 13  1  0
 13 14  1  0
 14 15  1  0
 15 16  1  0
 16 17  2  0
 16 18  1  0
 18 19  1  0
 18 20  1  0
 20 21  1  0
 21 22  1  0
 22 23  1  0
 23 24  2  0
 24 25  1  0
 25 26  2  0
 26 27  1  0
 26 28  1  0
 28 29  2  0
 29 30  1  0
 15 31  1  0
 31 32  1  0
 11  6  1  0
 32 12  1  0
 30 20  1  0
 29 23  1  0
  1 33  1  0
  1 34  1  0
  1 35  1  0
  2 36  1  0
  2 37  1  0
  7 38  1  0
  8 39  1  0
  9 40  1  0
 10 41  1  0
 11 42  1  0
 12 43  1  0
 13 44  1  0
 13 45  1  0
 14 46  1  0
 14 47  1  0
 18 48  1  1
 19 49  1  0
 19 50  1  0
 20 51  1  6
 21 52  1  0
 21 53  1  0
 22 54  1  0
 22 55  1  0
 24 56  1  0
 25 57  1  0
 28 58  1  0
 30 59  1  0
 30 60  1  0
 31 61  1  0
 31 62  1  0
 32 63  1  0
 32 64  1  0
M  END
>  <smiles>  (59) 
CCC(=O)N(c1ccccc1)C1CCN(C(=O)[C@@H](N)C2CCc3ccc(Br)cc3C2)CC1

>  <score_type>  (59) 
oracle

>  <origin>  (59) 
autodockgpu

>  <m_score__min__energy>  (59) 
-9.2699999999999996

>  <m_primary>  (59) 
energy

>  <rmsd>  (59) 
8.903967226768687

>  <m_score__min__rmsd>  (59) 
8.903967226768687

>  <meeko>  (59) 
{"free_energy": -7.89, "intermolecular_energy": -9.98, "internal_energy": -2.52, "cluster_size": 8, "cluster_id": 4, "rank_in_cluster": 2}

>  <energy>  (59) 
-8.62

>  <cluster_rmsd>  (59) 
0.59

>  <cluster>  (59) 
1

$$$$

     RDKit          3D

 64 67  0  0  0  0  0  0  0  0999 V2000
  134.5700   69.9780  226.0400 C   0  0  0  0  0  0  0  0  0  0  0  0
  135.4610   70.6600  225.0230 C   0  0  0  0  0  0  0  0  0  0  0  0
  136.5090   69.6970  224.6150 C   0  0  0  0  0  0  0  0  0  0  0  0
  136.1150   68.5310  224.3060 O   0  0  0  0  0  0  0  0  0  0  0  0
  137.8680   70.0920  224.5820 N   0  0  0  0  0  0  0  0  0  0  0  0
  138.7880   69.5190  225.5360 C   0  0  0  0  0  0  0  0  0  0  0  0
  138.7740   68.1310  225.5970 C   0  0  0  0  0  0  0  0  0  0  0  0
  139.6150   67.4750  226.4760 C   0  0  0  0  0  0  0  0  0  0  0  0
  140.4590   68.2470  227.2800 C   0  0  0  0  0  0  0  0  0  0  0  0
  140.4590   69.6260  227.2060 C   0  0  0  0  0  0  0  0  0  0  0  0
  139.6090   70.2940  226.3180 C   0  0  0  0  0  0  0  0  0  0  0  0
  138.3980   71.0500  223.6360 C   0  0  0  0  0  0  0  0  0  0  0  0
  139.4770   70.3230  222.8290 C   0  0  0  0  0  0  0  0  0  0  0  0
  140.2520   71.3210  222.0200 C   0  0  0  0  0  0  0  0  0  0  0  0
  139.3940   72.4490  221.7080 N   0  0  0  0  0  0  0  0  0  0  0  0
  140.0940   73.6900  221.4970 C   0  0  0  0  0  0  0  0  0  0  0  0
  141.3560   73.6270  221.6570 O   0  0  0  0  0  0  0  0  0  0  0  0
  139.4450   74.9570  221.1250 C   0  0  1  0  0  0  0  0  0  0  0  0
  138.5870   75.4480  222.2030 N   0  0  0  0  0  0  0  0  0  0  0  0
  140.5320   75.9660  220.8260 C   0  0  1  0  0  0  0  0  0  0  0  0
  139.9300   76.9450  219.8230 C   0  0  0  0  0  0  0  0  0  0  0  0
  141.1250   77.7680  219.3160 C   0  0  0  0  0  0  0  0  0  0  0  0
  141.4690   78.6120  220.5080 C   0  0  0  0  0  0  0  0  0  0  0  0
  141.8210   79.9540  220.3220 C   0  0  0  0  0  0  0  0  0  0  0  0
  142.1400   80.7400  221.4290 C   0  0  0  0  0  0  0  0  0  0  0  0
  142.1020   80.1720  222.6950 C   0  0  0  0  0  0  0  0  0  0  0  0
  142.5460   81.2780  224.1850 Br  0  0  0  0  0  0  0  0  0  0  0  0
  141.7490   78.8410  222.8400 C   0  0  0  0  0  0  0  0  0  0  0  0
  141.4270   78.0380  221.7550 C   0  0  0  0  0  0  0  0  0  0  0  0
  141.0680   76.6360  222.0350 C   0  0  0  0  0  0  0  0  0  0  0  0
  137.9510   72.3710  221.6190 C   0  0  0  0  0  0  0  0  0  0  0  0
  137.3100   71.5480  222.7020 C   0  0  0  0  0  0  0  0  0  0  0  0
  134.9073   70.2362  227.0547 H   0  0  0  0  0  0  0  0  0  0  0  0
  133.5318   70.3144  225.9020 H   0  0  0  0  0  0  0  0  0  0  0  0
  134.6237   68.8880  225.9020 H   0  0  0  0  0  0  0  0  0  0  0  0
  134.8669   70.9587  224.1468 H   0  0  0  0  0  0  0  0  0  0  0  0
  135.9181   71.5609  225.4582 H   0  0  0  0  0  0  0  0  0  0  0  0
  138.0963   67.5565  224.9483 H   0  0  0  0  0  0  0  0  0  0  0  0
  139.6202   66.3769  226.5411 H   0  0  0  0  0  0  0  0  0  0  0  0
  141.1371   67.7456  227.9862 H   0  0  0  0  0  0  0  0  0  0  0  0
  141.1347   70.2055  227.8523 H   0  0  0  0  0  0  0  0  0  0  0  0
  139.5987   71.3918  226.2491 H   0  0  0  0  0  0  0  0  0  0  0  0
  138.8068   71.9241  224.1640 H   0  0  0  0  0  0  0  0  0  0  0  0
  140.1582   69.7990  223.5156 H   0  0  0  0  0  0  0  0  0  0  0  0
  139.0031   69.5933  222.1560 H   0  0  0  0  0  0  0  0  0  0  0  0
  141.1211   71.6682  222.5980 H   0  0  0  0  0  0  0  0  0  0  0  0
  140.6004   70.8518  221.0881 H   0  0  0  0  0  0  0  0  0  0  0  0
  138.8070   74.7995  220.2429 H   0  0  0  0  0  0  0  0  0  0  0  0
  138.6440   74.7170  222.9530 H   0  0  0  0  0  0  0  0  0  0  0  0
  138.9310   76.3200  222.6120 H   0  0  0  0  0  0  0  0  0  0  0  0
  141.4166   75.4636  220.4075 H   0  0  0  0  0  0  0  0  0  0  0  0
  139.4510   76.4047  218.9931 H   0  0  0  0  0  0  0  0  0  0  0  0
  139.1509   77.5769  220.2743 H   0  0  0  0  0  0  0  0  0  0  0  0
  141.9654   77.1164  219.0347 H   0  0  0  0  0  0  0  0  0  0  0  0
  140.9008   78.3555  218.4134 H   0  0  0  0  0  0  0  0  0  0  0  0
  141.8458   80.3853  219.3104 H   0  0  0  0  0  0  0  0  0  0  0  0
  142.4181   81.7965  221.3005 H   0  0  0  0  0  0  0  0  0  0  0  0
  141.7229   78.4053  223.8497 H   0  0  0  0  0  0  0  0  0  0  0  0
  141.9647   76.0975  222.3754 H   0  0  0  0  0  0  0  0  0  0  0  0
  140.2895   76.6253  222.8121 H   0  0  0  0  0  0  0  0  0  0  0  0
  137.5462   73.3922  221.6765 H   0  0  0  0  0  0  0  0  0  0  0  0
  137.7196   71.8738  220.6655 H   0  0  0  0  0  0  0  0  0  0  0  0
  136.5936   72.1661  223.2630 H   0  0  0  0  0  0  0  0  0  0  0  0
  136.7733   70.6956  222.2600 H   0  0  0  0  0  0  0  0  0  0  0  0
  1  2  1  0
  2  3  1  0
  3  4  2  0
  3  5  1  0
  5  6  1  0
  6  7  2  0
  7  8  1  0
  8  9  2  0
  9 10  1  0
 10 11  2  0
  5 12  1  0
 12 13  1  0
 13 14  1  0
 14 15  1  0
 15 16  1  0
 16 17  2  0
 16 18  1  0
 18 19  1  0
 18 20  1  0
 20 21  1  0
 21 22  1  0
 22 23  1  0
 23 24  2  0
 24 25  1  0
 25 26  2  0
 26 27  1  0
 26 28  1  0
 28 29  2  0
 29 30  1  0
 15 31  1  0
 31 32  1  0
 11  6  1  0
 32 12  1  0
 30 20  1  0
 29 23  1  0
  1 33  1  0
  1 34  1  0
  1 35  1  0
  2 36  1  0
  2 37  1  0
  7 38  1  0
  8 39  1  0
  9 40  1  0
 10 41  1  0
 11 42  1  0
 12 43  1  0
 13 44  1  0
 13 45  1  0
 14 46  1  0
 14 47  1  0
 18 48  1  6
 19 49  1  0
 19 50  1  0
 20 51  1  6
 21 52  1  0
 21 53  1  0
 22 54  1  0
 22 55  1  0
 24 56  1  0
 25 57  1  0
 28 58  1  0
 30 59  1  0
 30 60  1  0
 31 61  1  0
 31 62  1  0
 32 63  1  0
 32 64  1  0
M  END
>  <smiles>  (60) 
CCC(=O)N(c1ccccc1)C1CCN(C(=O)[C@@H](N)C2CCc3ccc(Br)cc3C2)CC1

>  <score_type>  (60) 
oracle

>  <origin>  (60) 
autodockgpu

>  <m_score__min__energy>  (60) 
-9.2699999999999996

>  <m_primary>  (60) 
energy

>  <rmsd>  (60) 
6.39308116158192

>  <m_score__min__rmsd>  (60) 
6.39308116158192

>  <meeko>  (60) 
{"free_energy": -8.42, "intermolecular_energy": -10.51, "internal_energy": -1.51, "cluster_size": 21, "cluster_id": 1, "rank_in_cluster": 16}

>  <energy>  (60) 
-8.61

>  <cluster_rmsd>  (60) 
0.87

>  <cluster>  (60) 
1

$$$$

     RDKit          3D

 64 67  0  0  0  0  0  0  0  0999 V2000
  134.6650   70.8330  225.2580 C   0  0  0  0  0  0  0  0  0  0  0  0
  135.8200   70.8010  224.2790 C   0  0  0  0  0  0  0  0  0  0  0  0
  136.6890   69.6560  224.6330 C   0  0  0  0  0  0  0  0  0  0  0  0
  136.1000   68.5800  224.9550 O   0  0  0  0  0  0  0  0  0  0  0  0
  138.0970   69.7920  224.6030 N   0  0  0  0  0  0  0  0  0  0  0  0
  138.8940   69.0500  225.5510 C   0  0  0  0  0  0  0  0  0  0  0  0
  138.9790   69.6230  226.8140 C   0  0  0  0  0  0  0  0  0  0  0  0
  139.7170   68.9980  227.8020 C   0  0  0  0  0  0  0  0  0  0  0  0
  140.3560   67.7960  227.4850 C   0  0  0  0  0  0  0  0  0  0  0  0
  140.2600   67.2410  226.2240 C   0  0  0  0  0  0  0  0  0  0  0  0
  139.5150   67.8710  225.2210 C   0  0  0  0  0  0  0  0  0  0  0  0
  138.7970   70.6430  223.6650 C   0  0  0  0  0  0  0  0  0  0  0  0
  140.0660   71.1280  224.3690 C   0  0  0  0  0  0  0  0  0  0  0  0
  140.6990   72.2220  223.5610 C   0  0  0  0  0  0  0  0  0  0  0  0
  140.3750   72.0250  222.1610 N   0  0  0  0  0  0  0  0  0  0  0  0
  140.3690   73.2340  221.3750 C   0  0  0  0  0  0  0  0  0  0  0  0
  140.6040   74.3000  222.0310 O   0  0  0  0  0  0  0  0  0  0  0  0
  140.1150   73.2810  219.9270 C   0  0  1  0  0  0  0  0  0  0  0  0
  139.5510   74.5710  219.5320 N   0  0  0  0  0  0  0  0  0  0  0  0
  141.4310   73.0510  219.2170 C   0  0  1  0  0  0  0  0  0  0  0  0
  142.4810   73.8040  220.0270 C   0  0  0  0  0  0  0  0  0  0  0  0
  143.7340   73.8050  219.1370 C   0  0  0  0  0  0  0  0  0  0  0  0
  144.1740   72.3720  219.1900 C   0  0  0  0  0  0  0  0  0  0  0  0
  145.5370   72.0720  219.2900 C   0  0  0  0  0  0  0  0  0  0  0  0
  145.9460   70.7410  219.3410 C   0  0  0  0  0  0  0  0  0  0  0  0
  144.9890   69.7360  219.2900 C   0  0  0  0  0  0  0  0  0  0  0  0
  145.5860   67.9260  219.3600 Br  0  0  0  0  0  0  0  0  0  0  0  0
  143.6490   70.0700  219.1910 C   0  0  0  0  0  0  0  0  0  0  0  0
  143.2160   71.3880  219.1390 C   0  0  0  0  0  0  0  0  0  0  0  0
  141.7640   71.6180  219.0330 C   0  0  0  0  0  0  0  0  0  0  0  0
  140.0690   70.7400  221.5700 C   0  0  0  0  0  0  0  0  0  0  0  0
  139.1710   69.8750  222.4100 C   0  0  0  0  0  0  0  0  0  0  0  0
  135.0555   70.8222  226.2863 H   0  0  0  0  0  0  0  0  0  0  0  0
  134.0751   71.7478  225.0994 H   0  0  0  0  0  0  0  0  0  0  0  0
  134.0254   69.9522  225.0994 H   0  0  0  0  0  0  0  0  0  0  0  0
  135.4379   70.6769  223.2550 H   0  0  0  0  0  0  0  0  0  0  0  0
  136.3885   71.7414  224.3283 H   0  0  0  0  0  0  0  0  0  0  0  0
  138.4613   70.5699  227.0269 H   0  0  0  0  0  0  0  0  0  0  0  0
  139.7989   69.4341  228.8085 H   0  0  0  0  0  0  0  0  0  0  0  0
  140.9479   67.2812  228.2562 H   0  0  0  0  0  0  0  0  0  0  0  0
  140.7747   66.2936  226.0058 H   0  0  0  0  0  0  0  0  0  0  0  0
  139.4306   67.4404  224.2123 H   0  0  0  0  0  0  0  0  0  0  0  0
  138.1564   71.4837  223.3603 H   0  0  0  0  0  0  0  0  0  0  0  0
  139.8078   71.5117  225.3670 H   0  0  0  0  0  0  0  0  0  0  0  0
  140.7723   70.2908  224.4696 H   0  0  0  0  0  0  0  0  0  0  0  0
  140.3138   73.1968  223.8948 H   0  0  0  0  0  0  0  0  0  0  0  0
  141.7904   72.1989  223.6960 H   0  0  0  0  0  0  0  0  0  0  0  0
  139.3848   72.5048  219.6546 H   0  0  0  0  0  0  0  0  0  0  0  0
  138.5200   74.4020  219.4390 H   0  0  0  0  0  0  0  0  0  0  0  0
  139.6700   75.2890  220.2500 H   0  0  0  0  0  0  0  0  0  0  0  0
  141.3800   73.4286  218.1851 H   0  0  0  0  0  0  0  0  0  0  0  0
  142.1493   74.8328  220.2309 H   0  0  0  0  0  0  0  0  0  0  0  0
  142.6659   73.3363  221.0053 H   0  0  0  0  0  0  0  0  0  0  0  0
  143.4899   74.1077  218.1080 H   0  0  0  0  0  0  0  0  0  0  0  0
  144.5071   74.5127  219.4707 H   0  0  0  0  0  0  0  0  0  0  0  0
  146.2807   72.8816  219.3281 H   0  0  0  0  0  0  0  0  0  0  0  0
  147.0139   70.4894  219.4207 H   0  0  0  0  0  0  0  0  0  0  0  0
  142.9020   69.2635  219.1522 H   0  0  0  0  0  0  0  0  0  0  0  0
  141.4217   71.2953  218.0387 H   0  0  0  0  0  0  0  0  0  0  0  0
  141.2623   71.0406  219.8235 H   0  0  0  0  0  0  0  0  0  0  0  0
  139.5748   70.9138  220.6028 H   0  0  0  0  0  0  0  0  0  0  0  0
  141.0233   70.2022  221.4697 H   0  0  0  0  0  0  0  0  0  0  0  0
  138.2618   69.6244  221.8438 H   0  0  0  0  0  0  0  0  0  0  0  0
  139.6901   68.9434  222.6794 H   0  0  0  0  0  0  0  0  0  0  0  0
  1  2  1  0
  2  3  1  0
  3  4  2  0
  3  5  1  0
  5  6  1  0
  6  7  2  0
  7  8  1  0
  8  9  2  0
  9 10  1  0
 10 11  2  0
  5 12  1  0
 12 13  1  0
 13 14  1  0
 14 15  1  0
 15 16  1  0
 16 17  2  0
 16 18  1  0
 18 19  1  0
 18 20  1  0
 20 21  1  0
 21 22  1  0
 22 23  1  0
 23 24  2  0
 24 25  1  0
 25 26  2  0
 26 27  1  0
 26 28  1  0
 28 29  2  0
 29 30  1  0
 15 31  1  0
 31 32  1  0
 11  6  1  0
 32 12  1  0
 30 20  1  0
 29 23  1  0
  1 33  1  0
  1 34  1  0
  1 35  1  0
  2 36  1  0
  2 37  1  0
  7 38  1  0
  8 39  1  0
  9 40  1  0
 10 41  1  0
 11 42  1  0
 12 43  1  0
 13 44  1  0
 13 45  1  0
 14 46  1  0
 14 47  1  0
 18 48  1  6
 19 49  1  0
 19 50  1  0
 20 51  1  6
 21 52  1  0
 21 53  1  0
 22 54  1  0
 22 55  1  0
 24 56  1  0
 25 57  1  0
 28 58  1  0
 30 59  1  0
 30 60  1  0
 31 61  1  0
 31 62  1  0
 32 63  1  0
 32 64  1  0
M  END
>  <smiles>  (61) 
CCC(=O)N(c1ccccc1)C1CCN(C(=O)[C@@H](N)C2CCc3ccc(Br)cc3C2)CC1

>  <score_type>  (61) 
oracle

>  <origin>  (61) 
autodockgpu

>  <m_score__min__energy>  (61) 
-9.2699999999999996

>  <m_primary>  (61) 
energy

>  <rmsd>  (61) 
9.301631445951145

>  <m_score__min__rmsd>  (61) 
9.301631445951145

>  <meeko>  (61) 
{"free_energy": -6.82, "intermolecular_energy": -8.91, "internal_energy": -2.36, "cluster_size": 1, "cluster_id": 9, "rank_in_cluster": 1}

>  <energy>  (61) 
-8.53

>  <cluster_rmsd>  (61) 
1.07

>  <cluster>  (61) 
1

$$$$

     RDKit          3D

 64 67  0  0  0  0  0  0  0  0999 V2000
  141.8270   78.4390  223.8220 C   0  0  0  0  0  0  0  0  0  0  0  0
  142.6210   79.4840  223.0660 C   0  0  0  0  0  0  0  0  0  0  0  0
  141.7600   80.6760  222.8940 C   0  0  0  0  0  0  0  0  0  0  0  0
  142.1060   81.7180  223.5290 O   0  0  0  0  0  0  0  0  0  0  0  0
  140.6210   80.6200  222.0550 N   0  0  0  0  0  0  0  0  0  0  0  0
  139.3220   80.4100  222.6500 C   0  0  0  0  0  0  0  0  0  0  0  0
  139.1930   80.8870  223.9490 C   0  0  0  0  0  0  0  0  0  0  0  0
  137.9920   80.7410  224.6160 C   0  0  0  0  0  0  0  0  0  0  0  0
  136.9400   80.1090  223.9470 C   0  0  0  0  0  0  0  0  0  0  0  0
  137.0860   79.6420  222.6560 C   0  0  0  0  0  0  0  0  0  0  0  0
  138.3010   79.7870  221.9760 C   0  0  0  0  0  0  0  0  0  0  0  0
  140.6820   80.7600  220.6160 C   0  0  0  0  0  0  0  0  0  0  0  0
  140.0950   82.1340  220.2820 C   0  0  0  0  0  0  0  0  0  0  0  0
  139.8780   82.2370  218.8010 C   0  0  0  0  0  0  0  0  0  0  0  0
  140.8440   81.3960  218.1200 N   0  0  0  0  0  0  0  0  0  0  0  0
  140.4140   80.9160  216.8310 C   0  0  0  0  0  0  0  0  0  0  0  0
  139.2340   81.2620  216.4980 O   0  0  0  0  0  0  0  0  0  0  0  0
  141.2360   80.0890  215.9360 C   0  0  1  0  0  0  0  0  0  0  0  0
  142.5700   80.6630  215.7630 N   0  0  0  0  0  0  0  0  0  0  0  0
  141.3410   78.7080  216.5450 C   0  0  1  0  0  0  0  0  0  0  0  0
  142.7500   78.6110  217.1210 C   0  0  0  0  0  0  0  0  0  0  0  0
  142.9310   77.1230  217.4620 C   0  0  0  0  0  0  0  0  0  0  0  0
  142.0260   76.9460  218.6450 C   0  0  0  0  0  0  0  0  0  0  0  0
  142.4450   76.1550  219.7200 C   0  0  0  0  0  0  0  0  0  0  0  0
  141.6050   75.9900  220.8210 C   0  0  0  0  0  0  0  0  0  0  0  0
  140.3660   76.6170  220.8260 C   0  0  0  0  0  0  0  0  0  0  0  0
  139.2440   76.3690  222.3490 Br  0  0  0  0  0  0  0  0  0  0  0  0
  139.9850   77.3930  219.7440 C   0  0  0  0  0  0  0  0  0  0  0  0
  140.8030   77.5720  218.6370 C   0  0  0  0  0  0  0  0  0  0  0  0
  140.2870   78.4200  217.5470 C   0  0  0  0  0  0  0  0  0  0  0  0
  142.1380   81.0410  218.6630 C   0  0  0  0  0  0  0  0  0  0  0  0
  142.1150   80.6840  220.1230 C   0  0  0  0  0  0  0  0  0  0  0  0
  141.9480   78.5982  224.9037 H   0  0  0  0  0  0  0  0  0  0  0  0
  140.7631   78.5233  223.5557 H   0  0  0  0  0  0  0  0  0  0  0  0
  142.1933   77.4366  223.5557 H   0  0  0  0  0  0  0  0  0  0  0  0
  143.5220   79.7534  223.6366 H   0  0  0  0  0  0  0  0  0  0  0  0
  142.9325   79.0927  222.0863 H   0  0  0  0  0  0  0  0  0  0  0  0
  140.0435   81.3787  224.4439 H   0  0  0  0  0  0  0  0  0  0  0  0
  137.8672   81.1115  225.6442 H   0  0  0  0  0  0  0  0  0  0  0  0
  135.9754   79.9810  224.4600 H   0  0  0  0  0  0  0  0  0  0  0  0
  136.2382   79.1505  222.1562 H   0  0  0  0  0  0  0  0  0  0  0  0
  138.4318   79.4184  220.9479 H   0  0  0  0  0  0  0  0  0  0  0  0
  140.1214   79.9489  220.1283 H   0  0  0  0  0  0  0  0  0  0  0  0
  139.1344   82.2592  220.8032 H   0  0  0  0  0  0  0  0  0  0  0  0
  140.7926   82.9202  220.6065 H   0  0  0  0  0  0  0  0  0  0  0  0
  138.8596   81.9027  218.5538 H   0  0  0  0  0  0  0  0  0  0  0  0
  140.0044   83.2814  218.4797 H   0  0  0  0  0  0  0  0  0  0  0  0
  140.7662   80.0419  214.9425 H   0  0  0  0  0  0  0  0  0  0  0  0
  143.0070   80.6330  216.7150 H   0  0  0  0  0  0  0  0  0  0  0  0
  143.1630   80.1020  215.1470 H   0  0  0  0  0  0  0  0  0  0  0  0
  141.1722   77.9371  215.7787 H   0  0  0  0  0  0  0  0  0  0  0  0
  143.4955   78.9322  216.3786 H   0  0  0  0  0  0  0  0  0  0  0  0
  142.8858   79.2587  217.9997 H   0  0  0  0  0  0  0  0  0  0  0  0
  142.6187   76.4827  216.6238 H   0  0  0  0  0  0  0  0  0  0  0  0
  143.9757   76.8446  217.6648 H   0  0  0  0  0  0  0  0  0  0  0  0
  143.4303   75.6665  219.6971 H   0  0  0  0  0  0  0  0  0  0  0  0
  141.9198   75.3713  221.6743 H   0  0  0  0  0  0  0  0  0  0  0  0
  139.0009   77.8841  219.7625 H   0  0  0  0  0  0  0  0  0  0  0  0
  139.4540   77.8997  217.0517 H   0  0  0  0  0  0  0  0  0  0  0  0
  139.9480   79.3732  217.9788 H   0  0  0  0  0  0  0  0  0  0  0  0
  142.5223   80.1763  218.1021 H   0  0  0  0  0  0  0  0  0  0  0  0
  142.7777   81.9304  218.5644 H   0  0  0  0  0  0  0  0  0  0  0  0
  142.5011   79.6633  220.2613 H   0  0  0  0  0  0  0  0  0  0  0  0
  142.7461   81.3830  220.6914 H   0  0  0  0  0  0  0  0  0  0  0  0
  1  2  1  0
  2  3  1  0
  3  4  2  0
  3  5  1  0
  5  6  1  0
  6  7  2  0
  7  8  1  0
  8  9  2  0
  9 10  1  0
 10 11  2  0
  5 12  1  0
 12 13  1  0
 13 14  1  0
 14 15  1  0
 15 16  1  0
 16 17  2  0
 16 18  1  0
 18 19  1  0
 18 20  1  0
 20 21  1  0
 21 22  1  0
 22 23  1  0
 23 24  2  0
 24 25  1  0
 25 26  2  0
 26 27  1  0
 26 28  1  0
 28 29  2  0
 29 30  1  0
 15 31  1  0
 31 32  1  0
 11  6  1  0
 32 12  1  0
 30 20  1  0
 29 23  1  0
  1 33  1  0
  1 34  1  0
  1 35  1  0
  2 36  1  0
  2 37  1  0
  7 38  1  0
  8 39  1  0
  9 40  1  0
 10 41  1  0
 11 42  1  0
 12 43  1  0
 13 44  1  0
 13 45  1  0
 14 46  1  0
 14 47  1  0
 18 48  1  6
 19 49  1  0
 19 50  1  0
 20 51  1  6
 21 52  1  0
 21 53  1  0
 22 54  1  0
 22 55  1  0
 24 56  1  0
 25 57  1  0
 28 58  1  0
 30 59  1  0
 30 60  1  0
 31 61  1  0
 31 62  1  0
 32 63  1  0
 32 64  1  0
M  END
>  <smiles>  (62) 
CCC(=O)N(c1ccccc1)C1CCN(C(=O)[C@@H](N)C2CCc3ccc(Br)cc3C2)CC1

>  <score_type>  (62) 
oracle

>  <origin>  (62) 
autodockgpu

>  <m_score__min__energy>  (62) 
-9.2699999999999996

>  <m_primary>  (62) 
energy

>  <rmsd>  (62) 
5.649984909652822

>  <m_score__min__rmsd>  (62) 
5.649984909652822

>  <meeko>  (62) 
{"free_energy": -5.92, "intermolecular_energy": -8.01, "internal_energy": -3.26, "cluster_size": 2, "cluster_id": 12, "rank_in_cluster": 2}

>  <energy>  (62) 
-8.51

>  <cluster_rmsd>  (62) 
0.65

>  <cluster>  (62) 
1

$$$$

     RDKit          3D

 64 67  0  0  0  0  0  0  0  0999 V2000
  142.2200   80.5460  216.9920 C   0  0  0  0  0  0  0  0  0  0  0  0
  142.1110   79.5030  218.0840 C   0  0  0  0  0  0  0  0  0  0  0  0
  142.0360   80.2080  219.3840 C   0  0  0  0  0  0  0  0  0  0  0  0
  142.1770   81.4680  219.3500 O   0  0  0  0  0  0  0  0  0  0  0  0
  141.8180   79.4820  220.5790 N   0  0  0  0  0  0  0  0  0  0  0  0
  142.0700   80.1260  221.8470 C   0  0  0  0  0  0  0  0  0  0  0  0
  141.0520   80.9620  222.2880 C   0  0  0  0  0  0  0  0  0  0  0  0
  141.1870   81.6300  223.4900 C   0  0  0  0  0  0  0  0  0  0  0  0
  142.3600   81.4340  224.2240 C   0  0  0  0  0  0  0  0  0  0  0  0
  143.3610   80.5990  223.7700 C   0  0  0  0  0  0  0  0  0  0  0  0
  143.2290   79.9210  222.5530 C   0  0  0  0  0  0  0  0  0  0  0  0
  141.3500   78.1130  220.6070 C   0  0  0  0  0  0  0  0  0  0  0  0
  142.4820   77.2480  220.0490 C   0  0  0  0  0  0  0  0  0  0  0  0
  141.9720   75.8590  219.7980 C   0  0  0  0  0  0  0  0  0  0  0  0
  140.8920   75.5750  220.7250 N   0  0  0  0  0  0  0  0  0  0  0  0
  139.9380   74.6050  220.2500 C   0  0  0  0  0  0  0  0  0  0  0  0
  140.1560   74.1730  219.0720 O   0  0  0  0  0  0  0  0  0  0  0  0
  138.7870   74.1230  221.0290 C   0  0  1  0  0  0  0  0  0  0  0  0
  139.2020   73.6550  222.3500 N   0  0  0  0  0  0  0  0  0  0  0  0
  137.8070   75.2680  221.1680 C   0  0  1  0  0  0  0  0  0  0  0  0
  137.8030   75.6370  222.6480 C   0  0  0  0  0  0  0  0  0  0  0  0
  136.6020   76.5820  222.8110 C   0  0  0  0  0  0  0  0  0  0  0  0
  137.0680   77.8260  222.1130 C   0  0  0  0  0  0  0  0  0  0  0  0
  136.7800   79.0770  222.6690 C   0  0  0  0  0  0  0  0  0  0  0  0
  137.2130   80.2330  222.0220 C   0  0  0  0  0  0  0  0  0  0  0  0
  137.9220   80.1180  220.8340 C   0  0  0  0  0  0  0  0  0  0  0  0
  138.4970   81.7220  219.9760 Br  0  0  0  0  0  0  0  0  0  0  0  0
  138.1890   78.8630  220.3130 C   0  0  0  0  0  0  0  0  0  0  0  0
  137.7690   77.6980  220.9380 C   0  0  0  0  0  0  0  0  0  0  0  0
  138.1120   76.4200  220.2870 C   0  0  0  0  0  0  0  0  0  0  0  0
  140.7490   76.2020  222.0220 C   0  0  0  0  0  0  0  0  0  0  0  0
  141.0270   77.6800  222.0260 C   0  0  0  0  0  0  0  0  0  0  0  0
  142.3242   81.5426  217.4459 H   0  0  0  0  0  0  0  0  0  0  0  0
  143.1008   80.3333  216.3684 H   0  0  0  0  0  0  0  0  0  0  0  0
  141.3142   80.5200  216.3684 H   0  0  0  0  0  0  0  0  0  0  0  0
  141.2040   78.8989  217.9341 H   0  0  0  0  0  0  0  0  0  0  0  0
  142.9837   78.8338  218.0619 H   0  0  0  0  0  0  0  0  0  0  0  0
  140.1425   81.0916  221.6830 H   0  0  0  0  0  0  0  0  0  0  0  0
  140.3938   82.2970  223.8587 H   0  0  0  0  0  0  0  0  0  0  0  0
  142.4883   81.9561  225.1837 H   0  0  0  0  0  0  0  0  0  0  0  0
  144.2723   80.4651  224.3714 H   0  0  0  0  0  0  0  0  0  0  0  0
  144.0191   79.2534  222.1788 H   0  0  0  0  0  0  0  0  0  0  0  0
  140.4306   78.0097  220.0119 H   0  0  0  0  0  0  0  0  0  0  0  0
  142.8442   77.6819  219.1053 H   0  0  0  0  0  0  0  0  0  0  0  0
  143.3073   77.2103  220.7753 H   0  0  0  0  0  0  0  0  0  0  0  0
  141.6004   75.7840  218.7654 H   0  0  0  0  0  0  0  0  0  0  0  0
  142.7858   75.1334  219.9436 H   0  0  0  0  0  0  0  0  0  0  0  0
  138.3207   73.2725  220.5101 H   0  0  0  0  0  0  0  0  0  0  0  0
  139.5700   74.5060  222.8400 H   0  0  0  0  0  0  0  0  0  0  0  0
  138.4180   73.3070  222.9080 H   0  0  0  0  0  0  0  0  0  0  0  0
  136.8057   74.9587  220.8337 H   0  0  0  0  0  0  0  0  0  0  0  0
  137.6777   74.7393  223.2713 H   0  0  0  0  0  0  0  0  0  0  0  0
  138.7471   76.1056  222.9627 H   0  0  0  0  0  0  0  0  0  0  0  0
  135.7035   76.1691  222.3292 H   0  0  0  0  0  0  0  0  0  0  0  0
  136.3161   76.7496  223.8599 H   0  0  0  0  0  0  0  0  0  0  0  0
  136.2156   79.1478  223.6105 H   0  0  0  0  0  0  0  0  0  0  0  0
  136.9957   81.2239  222.4473 H   0  0  0  0  0  0  0  0  0  0  0  0
  138.7532   78.7874  219.3717 H   0  0  0  0  0  0  0  0  0  0  0  0
  137.5313   76.3240  219.3577 H   0  0  0  0  0  0  0  0  0  0  0  0
  139.1911   76.4177  220.0736 H   0  0  0  0  0  0  0  0  0  0  0  0
  139.7174   76.0440  222.3697 H   0  0  0  0  0  0  0  0  0  0  0  0
  141.4968   75.7378  222.6818 H   0  0  0  0  0  0  0  0  0  0  0  0
  140.1413   78.2232  222.3872 H   0  0  0  0  0  0  0  0  0  0  0  0
  141.8751   77.9023  222.6903 H   0  0  0  0  0  0  0  0  0  0  0  0
  1  2  1  0
  2  3  1  0
  3  4  2  0
  3  5  1  0
  5  6  1  0
  6  7  2  0
  7  8  1  0
  8  9  2  0
  9 10  1  0
 10 11  2  0
  5 12  1  0
 12 13  1  0
 13 14  1  0
 14 15  1  0
 15 16  1  0
 16 17  2  0
 16 18  1  0
 18 19  1  0
 18 20  1  0
 20 21  1  0
 21 22  1  0
 22 23  1  0
 23 24  2  0
 24 25  1  0
 25 26  2  0
 26 27  1  0
 26 28  1  0
 28 29  2  0
 29 30  1  0
 15 31  1  0
 31 32  1  0
 11  6  1  0
 32 12  1  0
 30 20  1  0
 29 23  1  0
  1 33  1  0
  1 34  1  0
  1 35  1  0
  2 36  1  0
  2 37  1  0
  7 38  1  0
  8 39  1  0
  9 40  1  0
 10 41  1  0
 11 42  1  0
 12 43  1  0
 13 44  1  0
 13 45  1  0
 14 46  1  0
 14 47  1  0
 18 48  1  6
 19 49  1  0
 19 50  1  0
 20 51  1  6
 21 52  1  0
 21 53  1  0
 22 54  1  0
 22 55  1  0
 24 56  1  0
 25 57  1  0
 28 58  1  0
 30 59  1  0
 30 60  1  0
 31 61  1  0
 31 62  1  0
 32 63  1  0
 32 64  1  0
M  END
>  <smiles>  (63) 
CCC(=O)N(c1ccccc1)C1CCN(C(=O)[C@@H](N)C2CCc3ccc(Br)cc3C2)CC1

>  <score_type>  (63) 
oracle

>  <origin>  (63) 
autodockgpu

>  <m_score__min__energy>  (63) 
-9.2699999999999996

>  <m_primary>  (63) 
energy

>  <rmsd>  (63) 
4.623258147847815

>  <m_score__min__rmsd>  (63) 
4.623258147847815

>  <meeko>  (63) 
{"free_energy": -6.13, "intermolecular_energy": -8.22, "internal_energy": -3.02, "cluster_size": 1, "cluster_id": 13, "rank_in_cluster": 1}

>  <energy>  (63) 
-8.49

>  <cluster_rmsd>  (63) 
1.05

>  <cluster>  (63) 
1

$$$$

     RDKit          3D

 64 67  0  0  0  0  0  0  0  0999 V2000
  136.0010   68.9910  223.3130 C   0  0  0  0  0  0  0  0  0  0  0  0
  136.7190   69.3420  224.5990 C   0  0  0  0  0  0  0  0  0  0  0  0
  138.1700   69.1470  224.3810 C   0  0  0  0  0  0  0  0  0  0  0  0
  138.5270   68.0100  223.9480 O   0  0  0  0  0  0  0  0  0  0  0  0
  139.0800   70.1980  224.6490 N   0  0  0  0  0  0  0  0  0  0  0  0
  139.7490   70.2360  225.9290 C   0  0  0  0  0  0  0  0  0  0  0  0
  140.3980   71.4320  226.2110 C   0  0  0  0  0  0  0  0  0  0  0  0
  141.0720   71.5800  227.4090 C   0  0  0  0  0  0  0  0  0  0  0  0
  141.0710   70.5040  228.3010 C   0  0  0  0  0  0  0  0  0  0  0  0
  140.4210   69.3230  228.0040 C   0  0  0  0  0  0  0  0  0  0  0  0
  139.7380   69.1690  226.7930 C   0  0  0  0  0  0  0  0  0  0  0  0
  139.3850   71.2510  223.7060 C   0  0  0  0  0  0  0  0  0  0  0  0
  140.2150   70.6170  222.5880 C   0  0  0  0  0  0  0  0  0  0  0  0
  140.7910   71.6960  221.7200 C   0  0  0  0  0  0  0  0  0  0  0  0
  139.9100   72.8480  221.7470 N   0  0  0  0  0  0  0  0  0  0  0  0
  140.5670   74.1070  221.4980 C   0  0  0  0  0  0  0  0  0  0  0  0
  141.8280   74.0300  221.3350 O   0  0  0  0  0  0  0  0  0  0  0  0
  139.8760   75.4040  221.4300 C   0  0  1  0  0  0  0  0  0  0  0  0
  139.1720   75.6940  222.6780 N   0  0  0  0  0  0  0  0  0  0  0  0
  140.9170   76.4700  221.1620 C   0  0  1  0  0  0  0  0  0  0  0  0
  141.0190   76.5820  219.6440 C   0  0  0  0  0  0  0  0  0  0  0  0
  142.2710   77.4380  219.3990 C   0  0  0  0  0  0  0  0  0  0  0  0
  141.8290   78.7990  219.8480 C   0  0  0  0  0  0  0  0  0  0  0  0
  142.2060   79.9250  219.1090 C   0  0  0  0  0  0  0  0  0  0  0  0
  141.7950   81.1910  219.5250 C   0  0  0  0  0  0  0  0  0  0  0  0
  141.0180   81.3070  220.6690 C   0  0  0  0  0  0  0  0  0  0  0  0
  140.4750   83.0540  221.2090 Br  0  0  0  0  0  0  0  0  0  0  0  0
  140.6630   80.1700  221.3760 C   0  0  0  0  0  0  0  0  0  0  0  0
  141.0600   78.9000  220.9820 C   0  0  0  0  0  0  0  0  0  0  0  0
  140.6200   77.7660  221.8160 C   0  0  0  0  0  0  0  0  0  0  0  0
  138.4880   72.7780  222.0090 C   0  0  0  0  0  0  0  0  0  0  0  0
  138.1130   71.8430  223.1250 C   0  0  0  0  0  0  0  0  0  0  0  0
  135.0358   68.5191  223.5490 H   0  0  0  0  0  0  0  0  0  0  0  0
  135.8283   69.9063  222.7279 H   0  0  0  0  0  0  0  0  0  0  0  0
  136.6173   68.2925  222.7279 H   0  0  0  0  0  0  0  0  0  0  0  0
  136.5190   70.3907  224.8639 H   0  0  0  0  0  0  0  0  0  0  0  0
  136.3666   68.7009  225.4205 H   0  0  0  0  0  0  0  0  0  0  0  0
  140.3755   72.2574  225.4842 H   0  0  0  0  0  0  0  0  0  0  0  0
  141.5938   72.5171  227.6530 H   0  0  0  0  0  0  0  0  0  0  0  0
  141.5998   70.6004  229.2607 H   0  0  0  0  0  0  0  0  0  0  0  0
  140.4403   68.4943  228.7272 H   0  0  0  0  0  0  0  0  0  0  0  0
  139.2150   68.2339  226.5438 H   0  0  0  0  0  0  0  0  0  0  0  0
  139.9321   72.0647  224.2046 H   0  0  0  0  0  0  0  0  0  0  0  0
  141.0313   70.0252  223.0278 H   0  0  0  0  0  0  0  0  0  0  0  0
  139.5730   69.9616  221.9811 H   0  0  0  0  0  0  0  0  0  0  0  0
  141.7835   71.9824  222.0982 H   0  0  0  0  0  0  0  0  0  0  0  0
  140.8888   71.3285  220.6878 H   0  0  0  0  0  0  0  0  0  0  0  0
  139.1250   75.3808  220.6266 H   0  0  0  0  0  0  0  0  0  0  0  0
  138.2030   75.3160  222.5410 H   0  0  0  0  0  0  0  0  0  0  0  0
  139.5710   75.1990  223.4790 H   0  0  0  0  0  0  0  0  0  0  0  0
  141.8823   76.1833  221.6047 H   0  0  0  0  0  0  0  0  0  0  0  0
  141.1340   75.5873  219.1886 H   0  0  0  0  0  0  0  0  0  0  0  0
  140.1171   77.0268  219.1981 H   0  0  0  0  0  0  0  0  0  0  0  0
  143.1211   77.0789  219.9977 H   0  0  0  0  0  0  0  0  0  0  0  0
  142.6211   77.4132  218.3565 H   0  0  0  0  0  0  0  0  0  0  0  0
  142.8229   79.8127  218.2052 H   0  0  0  0  0  0  0  0  0  0  0  0
  142.0829   82.0859  218.9538 H   0  0  0  0  0  0  0  0  0  0  0  0
  140.0457   80.2774  222.2801 H   0  0  0  0  0  0  0  0  0  0  0  0
  141.1432   77.8078  222.7827 H   0  0  0  0  0  0  0  0  0  0  0  0
  139.5320   77.8416  221.9590 H   0  0  0  0  0  0  0  0  0  0  0  0
  138.1352   73.7865  222.2705 H   0  0  0  0  0  0  0  0  0  0  0  0
  138.0169   72.3856  221.0957 H   0  0  0  0  0  0  0  0  0  0  0  0
  137.5708   72.3962  223.9060 H   0  0  0  0  0  0  0  0  0  0  0  0
  137.4646   71.0409  222.7427 H   0  0  0  0  0  0  0  0  0  0  0  0
  1  2  1  0
  2  3  1  0
  3  4  2  0
  3  5  1  0
  5  6  1  0
  6  7  2  0
  7  8  1  0
  8  9  2  0
  9 10  1  0
 10 11  2  0
  5 12  1  0
 12 13  1  0
 13 14  1  0
 14 15  1  0
 15 16  1  0
 16 17  2  0
 16 18  1  0
 18 19  1  0
 18 20  1  0
 20 21  1  0
 21 22  1  0
 22 23  1  0
 23 24  2  0
 24 25  1  0
 25 26  2  0
 26 27  1  0
 26 28  1  0
 28 29  2  0
 29 30  1  0
 15 31  1  0
 31 32  1  0
 11  6  1  0
 32 12  1  0
 30 20  1  0
 29 23  1  0
  1 33  1  0
  1 34  1  0
  1 35  1  0
  2 36  1  0
  2 37  1  0
  7 38  1  0
  8 39  1  0
  9 40  1  0
 10 41  1  0
 11 42  1  0
 12 43  1  0
 13 44  1  0
 13 45  1  0
 14 46  1  0
 14 47  1  0
 18 48  1  6
 19 49  1  0
 19 50  1  0
 20 51  1  1
 21 52  1  0
 21 53  1  0
 22 54  1  0
 22 55  1  0
 24 56  1  0
 25 57  1  0
 28 58  1  0
 30 59  1  0
 30 60  1  0
 31 61  1  0
 31 62  1  0
 32 63  1  0
 32 64  1  0
M  END
>  <smiles>  (64) 
CCC(=O)N(c1ccccc1)C1CCN(C(=O)[C@@H](N)C2CCc3ccc(Br)cc3C2)CC1

>  <score_type>  (64) 
oracle

>  <origin>  (64) 
autodockgpu

>  <m_score__min__energy>  (64) 
-9.2699999999999996

>  <m_primary>  (64) 
energy

>  <rmsd>  (64) 
5.752536855961518

>  <m_score__min__rmsd>  (64) 
5.752536855961518

>  <meeko>  (64) 
{"free_energy": -8.4, "intermolecular_energy": -10.49, "internal_energy": -1.6, "cluster_size": 21, "cluster_id": 1, "rank_in_cluster": 17}

>  <energy>  (64) 
-8.46

>  <cluster_rmsd>  (64) 
1.05

>  <cluster>  (64) 
1

$$$$

     RDKit          3D

 64 67  0  0  0  0  0  0  0  0999 V2000
  137.7710   68.4020  222.7370 C   0  0  0  0  0  0  0  0  0  0  0  0
  137.2840   69.4660  223.6970 C   0  0  0  0  0  0  0  0  0  0  0  0
  138.0610   70.7010  223.4430 C   0  0  0  0  0  0  0  0  0  0  0  0
  137.4170   71.6850  222.9680 O   0  0  0  0  0  0  0  0  0  0  0  0
  139.4460   70.7440  223.7300 N   0  0  0  0  0  0  0  0  0  0  0  0
  139.9000   70.3790  225.0520 C   0  0  0  0  0  0  0  0  0  0  0  0
  140.3280   71.4450  225.8350 C   0  0  0  0  0  0  0  0  0  0  0  0
  140.7840   71.2120  227.1190 C   0  0  0  0  0  0  0  0  0  0  0  0
  140.7950   69.8940  227.5840 C   0  0  0  0  0  0  0  0  0  0  0  0
  140.3660   68.8480  226.7920 C   0  0  0  0  0  0  0  0  0  0  0  0
  139.9050   69.0790  225.4920 C   0  0  0  0  0  0  0  0  0  0  0  0
  140.4500   71.1380  222.7650 C   0  0  0  0  0  0  0  0  0  0  0  0
  139.9860   70.6100  221.4060 C   0  0  0  0  0  0  0  0  0  0  0  0
  141.1020   70.7450  220.4110 C   0  0  0  0  0  0  0  0  0  0  0  0
  141.9400   71.8670  220.7880 N   0  0  0  0  0  0  0  0  0  0  0  0
  143.3070   71.7660  220.3440 C   0  0  0  0  0  0  0  0  0  0  0  0
  143.5900   70.6890  219.7260 O   0  0  0  0  0  0  0  0  0  0  0  0
  144.3310   72.7980  220.5650 C   0  0  1  0  0  0  0  0  0  0  0  0
  145.6770   72.2360  220.4750 N   0  0  0  0  0  0  0  0  0  0  0  0
  144.1450   73.8700  219.5120 C   0  0  1  0  0  0  0  0  0  0  0  0
  142.9760   73.4080  218.6470 C   0  0  0  0  0  0  0  0  0  0  0  0
  142.9990   74.3430  217.4280 C   0  0  0  0  0  0  0  0  0  0  0  0
  142.5450   75.6490  218.0110 C   0  0  0  0  0  0  0  0  0  0  0  0
  141.6610   76.4560  217.2860 C   0  0  0  0  0  0  0  0  0  0  0  0
  141.2380   77.6700  217.8260 C   0  0  0  0  0  0  0  0  0  0  0  0
  141.7050   78.0530  219.0760 C   0  0  0  0  0  0  0  0  0  0  0  0
  141.1040   79.7210  219.7830 Br  0  0  0  0  0  0  0  0  0  0  0  0
  142.5790   77.2290  219.7640 C   0  0  0  0  0  0  0  0  0  0  0  0
  143.0140   76.0170  219.2480 C   0  0  0  0  0  0  0  0  0  0  0  0
  143.9450   75.2260  220.0740 C   0  0  0  0  0  0  0  0  0  0  0  0
  141.4780   73.0050  221.5540 C   0  0  0  0  0  0  0  0  0  0  0  0
  140.5830   72.6490  222.7080 C   0  0  0  0  0  0  0  0  0  0  0  0
  138.1627   67.5461  223.3062 H   0  0  0  0  0  0  0  0  0  0  0  0
  136.9354   68.0695  222.1035 H   0  0  0  0  0  0  0  0  0  0  0  0
  138.5688   68.8171  222.1035 H   0  0  0  0  0  0  0  0  0  0  0  0
  136.2136   69.6574  223.5306 H   0  0  0  0  0  0  0  0  0  0  0  0
  137.4216   69.1347  224.7369 H   0  0  0  0  0  0  0  0  0  0  0  0
  140.3039   72.4693  225.4346 H   0  0  0  0  0  0  0  0  0  0  0  0
  141.1282   72.0399  227.7563 H   0  0  0  0  0  0  0  0  0  0  0  0
  141.1532   69.6858  228.6030 H   0  0  0  0  0  0  0  0  0  0  0  0
  140.3869   67.8218  227.1876 H   0  0  0  0  0  0  0  0  0  0  0  0
  139.5613   68.2545  224.8500 H   0  0  0  0  0  0  0  0  0  0  0  0
  141.4323   70.7296  223.0448 H   0  0  0  0  0  0  0  0  0  0  0  0
  139.7047   69.5508  221.5004 H   0  0  0  0  0  0  0  0  0  0  0  0
  139.1165   71.1904  221.0638 H   0  0  0  0  0  0  0  0  0  0  0  0
  141.7021   69.8232  220.4031 H   0  0  0  0  0  0  0  0  0  0  0  0
  140.6853   70.9142  219.4071 H   0  0  0  0  0  0  0  0  0  0  0  0
  144.2176   73.2191  221.5749 H   0  0  0  0  0  0  0  0  0  0  0  0
  146.0440   72.2430  221.4570 H   0  0  0  0  0  0  0  0  0  0  0  0
  145.6760   71.2600  220.1670 H   0  0  0  0  0  0  0  0  0  0  0  0
  145.0614   73.9824  218.9140 H   0  0  0  0  0  0  0  0  0  0  0  0
  143.1133   72.3618  218.3360 H   0  0  0  0  0  0  0  0  0  0  0  0
  142.0178   73.4500  219.1856 H   0  0  0  0  0  0  0  0  0  0  0  0
  144.0130   74.4256  217.0096 H   0  0  0  0  0  0  0  0  0  0  0  0
  142.3712   73.9930  216.5953 H   0  0  0  0  0  0  0  0  0  0  0  0
  141.3023   76.1349  216.2970 H   0  0  0  0  0  0  0  0  0  0  0  0
  140.5434   78.3158  217.2688 H   0  0  0  0  0  0  0  0  0  0  0  0
  142.9408   77.5459  220.7533 H   0  0  0  0  0  0  0  0  0  0  0  0
  144.9150   75.7432  220.1156 H   0  0  0  0  0  0  0  0  0  0  0  0
  143.5145   75.1241  221.0811 H   0  0  0  0  0  0  0  0  0  0  0  0
  142.3573   73.5342  221.9500 H   0  0  0  0  0  0  0  0  0  0  0  0
  140.8799   73.6247  220.8697 H   0  0  0  0  0  0  0  0  0  0  0  0
  141.0223   73.0186  223.6463 H   0  0  0  0  0  0  0  0  0  0  0  0
  139.5933   73.1100  222.5740 H   0  0  0  0  0  0  0  0  0  0  0  0
  1  2  1  0
  2  3  1  0
  3  4  2  0
  3  5  1  0
  5  6  1  0
  6  7  2  0
  7  8  1  0
  8  9  2  0
  9 10  1  0
 10 11  2  0
  5 12  1  0
 12 13  1  0
 13 14  1  0
 14 15  1  0
 15 16  1  0
 16 17  2  0
 16 18  1  0
 18 19  1  0
 18 20  1  0
 20 21  1  0
 21 22  1  0
 22 23  1  0
 23 24  2  0
 24 25  1  0
 25 26  2  0
 26 27  1  0
 26 28  1  0
 28 29  2  0
 29 30  1  0
 15 31  1  0
 31 32  1  0
 11  6  1  0
 32 12  1  0
 30 20  1  0
 29 23  1  0
  1 33  1  0
  1 34  1  0
  1 35  1  0
  2 36  1  0
  2 37  1  0
  7 38  1  0
  8 39  1  0
  9 40  1  0
 10 41  1  0
 11 42  1  0
 12 43  1  0
 13 44  1  0
 13 45  1  0
 14 46  1  0
 14 47  1  0
 18 48  1  1
 19 49  1  0
 19 50  1  0
 20 51  1  6
 21 52  1  0
 21 53  1  0
 22 54  1  0
 22 55  1  0
 24 56  1  0
 25 57  1  0
 28 58  1  0
 30 59  1  0
 30 60  1  0
 31 61  1  0
 31 62  1  0
 32 63  1  0
 32 64  1  0
M  END
>  <smiles>  (65) 
CCC(=O)N(c1ccccc1)C1CCN(C(=O)[C@@H](N)C2CCc3ccc(Br)cc3C2)CC1

>  <score_type>  (65) 
oracle

>  <origin>  (65) 
autodockgpu

>  <m_score__min__energy>  (65) 
-9.2699999999999996

>  <m_primary>  (65) 
energy

>  <rmsd>  (65) 
6.968518671951323

>  <m_score__min__rmsd>  (65) 
6.968518671951323

>  <meeko>  (65) 
{"free_energy": -7.16, "intermolecular_energy": -9.25, "internal_energy": -2.36, "cluster_size": 5, "cluster_id": 7, "rank_in_cluster": 2}

>  <energy>  (65) 
-8.42

>  <cluster_rmsd>  (65) 
1.14

>  <cluster>  (65) 
1

$$$$

     RDKit          3D

 64 67  0  0  0  0  0  0  0  0999 V2000
  139.6370   67.3470  226.4540 C   0  0  0  0  0  0  0  0  0  0  0  0
  139.5370   67.7420  224.9950 C   0  0  0  0  0  0  0  0  0  0  0  0
  138.7150   68.9700  224.9090 C   0  0  0  0  0  0  0  0  0  0  0  0
  137.4590   68.8040  224.8370 O   0  0  0  0  0  0  0  0  0  0  0  0
  139.3320   70.2440  224.9120 N   0  0  0  0  0  0  0  0  0  0  0  0
  139.9550   70.7180  226.1260 C   0  0  0  0  0  0  0  0  0  0  0  0
  140.8720   71.7470  225.9460 C   0  0  0  0  0  0  0  0  0  0  0  0
  141.5290   72.2780  227.0400 C   0  0  0  0  0  0  0  0  0  0  0  0
  141.2390   71.7510  228.3020 C   0  0  0  0  0  0  0  0  0  0  0  0
  140.3260   70.7280  228.4610 C   0  0  0  0  0  0  0  0  0  0  0  0
  139.6590   70.1870  227.3570 C   0  0  0  0  0  0  0  0  0  0  0  0
  139.3770   71.1120  223.7560 C   0  0  0  0  0  0  0  0  0  0  0  0
  139.8610   70.2590  222.5820 C   0  0  0  0  0  0  0  0  0  0  0  0
  140.1880   71.1500  221.4190 C   0  0  0  0  0  0  0  0  0  0  0  0
  139.3610   72.3400  221.4860 N   0  0  0  0  0  0  0  0  0  0  0  0
  139.9370   73.5020  220.8590 C   0  0  0  0  0  0  0  0  0  0  0  0
  141.1040   73.3280  220.3780 O   0  0  0  0  0  0  0  0  0  0  0  0
  139.2690   74.8090  220.7580 C   0  0  1  0  0  0  0  0  0  0  0  0
  138.6020   75.1590  222.0120 N   0  0  0  0  0  0  0  0  0  0  0  0
  140.3210   75.8440  220.4230 C   0  0  1  0  0  0  0  0  0  0  0  0
  139.6320   76.8620  219.5190 C   0  0  0  0  0  0  0  0  0  0  0  0
  140.7750   77.7220  218.9580 C   0  0  0  0  0  0  0  0  0  0  0  0
  141.2070   78.5140  220.1570 C   0  0  0  0  0  0  0  0  0  0  0  0
  141.5310   79.8660  220.0090 C   0  0  0  0  0  0  0  0  0  0  0  0
  141.9320   80.6030  221.1230 C   0  0  0  0  0  0  0  0  0  0  0  0
  142.0000   79.9760  222.3600 C   0  0  0  0  0  0  0  0  0  0  0  0
  142.5520   81.0160  223.8610 Br  0  0  0  0  0  0  0  0  0  0  0  0
  141.6710   78.6350  222.4690 C   0  0  0  0  0  0  0  0  0  0  0  0
  141.2700   77.8810  221.3750 C   0  0  0  0  0  0  0  0  0  0  0  0
  140.9460   76.4630  221.6150 C   0  0  0  0  0  0  0  0  0  0  0  0
  138.0650   72.3940  222.1290 C   0  0  0  0  0  0  0  0  0  0  0  0
  138.0010   71.6740  223.4470 C   0  0  0  0  0  0  0  0  0  0  0  0
  139.4161   68.2197  227.0861 H   0  0  0  0  0  0  0  0  0  0  0  0
  138.9131   66.5468  226.6677 H   0  0  0  0  0  0  0  0  0  0  0  0
  140.6544   66.9876  226.6677 H   0  0  0  0  0  0  0  0  0  0  0  0
  140.5416   67.9362  224.5911 H   0  0  0  0  0  0  0  0  0  0  0  0
  139.0763   66.9320  224.4105 H   0  0  0  0  0  0  0  0  0  0  0  0
  141.0739   72.1370  224.9375 H   0  0  0  0  0  0  0  0  0  0  0  0
  142.2592   73.0920  226.9211 H   0  0  0  0  0  0  0  0  0  0  0  0
  141.7490   72.1601  229.1866 H   0  0  0  0  0  0  0  0  0  0  0  0
  140.1207   70.3338  229.4672 H   0  0  0  0  0  0  0  0  0  0  0  0
  138.9292   69.3718  227.4701 H   0  0  0  0  0  0  0  0  0  0  0  0
  140.0484   71.9633  223.9416 H   0  0  0  0  0  0  0  0  0  0  0  0
  140.7604   69.7005  222.8805 H   0  0  0  0  0  0  0  0  0  0  0  0
  139.0703   69.5515  222.2916 H   0  0  0  0  0  0  0  0  0  0  0  0
  141.2493   71.4361  221.4611 H   0  0  0  0  0  0  0  0  0  0  0  0
  139.9940   70.6162  220.4770 H   0  0  0  0  0  0  0  0  0  0  0  0
  138.4980   74.7702  219.9744 H   0  0  0  0  0  0  0  0  0  0  0  0
  138.9850   74.4900  222.7220 H   0  0  0  0  0  0  0  0  0  0  0  0
  138.8400   76.1010  222.3330 H   0  0  0  0  0  0  0  0  0  0  0  0
  141.1738   75.3721  219.9129 H   0  0  0  0  0  0  0  0  0  0  0  0
  139.0922   76.3555  218.7053 H   0  0  0  0  0  0  0  0  0  0  0  0
  138.8866   77.4626  220.0609 H   0  0  0  0  0  0  0  0  0  0  0  0
  141.5955   77.0944  218.5799 H   0  0  0  0  0  0  0  0  0  0  0  0
  140.4737   78.3481  218.1052 H   0  0  0  0  0  0  0  0  0  0  0  0
  141.4701   80.3451  219.0207 H   0  0  0  0  0  0  0  0  0  0  0  0
  142.1911   81.6674  221.0230 H   0  0  0  0  0  0  0  0  0  0  0  0
  141.7295   78.1516  223.4553 H   0  0  0  0  0  0  0  0  0  0  0  0
  141.8716   75.9200  221.8569 H   0  0  0  0  0  0  0  0  0  0  0  0
  140.2320   76.4067  222.4499 H   0  0  0  0  0  0  0  0  0  0  0  0
  137.8083   73.4499  222.2998 H   0  0  0  0  0  0  0  0  0  0  0  0
  137.3571   71.8869  221.4569 H   0  0  0  0  0  0  0  0  0  0  0  0
  137.7004   72.3757  224.2390 H   0  0  0  0  0  0  0  0  0  0  0  0
  137.2638   70.8592  223.3960 H   0  0  0  0  0  0  0  0  0  0  0  0
  1  2  1  0
  2  3  1  0
  3  4  2  0
  3  5  1  0
  5  6  1  0
  6  7  2  0
  7  8  1  0
  8  9  2  0
  9 10  1  0
 10 11  2  0
  5 12  1  0
 12 13  1  0
 13 14  1  0
 14 15  1  0
 15 16  1  0
 16 17  2  0
 16 18  1  0
 18 19  1  0
 18 20  1  0
 20 21  1  0
 21 22  1  0
 22 23  1  0
 23 24  2  0
 24 25  1  0
 25 26  2  0
 26 27  1  0
 26 28  1  0
 28 29  2  0
 29 30  1  0
 15 31  1  0
 31 32  1  0
 11  6  1  0
 32 12  1  0
 30 20  1  0
 29 23  1  0
  1 33  1  0
  1 34  1  0
  1 35  1  0
  2 36  1  0
  2 37  1  0
  7 38  1  0
  8 39  1  0
  9 40  1  0
 10 41  1  0
 11 42  1  0
 12 43  1  0
 13 44  1  0
 13 45  1  0
 14 46  1  0
 14 47  1  0
 18 48  1  6
 19 49  1  0
 19 50  1  0
 20 51  1  6
 21 52  1  0
 21 53  1  0
 22 54  1  0
 22 55  1  0
 24 56  1  0
 25 57  1  0
 28 58  1  0
 30 59  1  0
 30 60  1  0
 31 61  1  0
 31 62  1  0
 32 63  1  0
 32 64  1  0
M  END
>  <smiles>  (66) 
CCC(=O)N(c1ccccc1)C1CCN(C(=O)[C@@H](N)C2CCc3ccc(Br)cc3C2)CC1

>  <score_type>  (66) 
oracle

>  <origin>  (66) 
autodockgpu

>  <m_score__min__energy>  (66) 
-9.2699999999999996

>  <m_primary>  (66) 
energy

>  <rmsd>  (66) 
6.307396403815571

>  <m_score__min__rmsd>  (66) 
6.307396403815571

>  <meeko>  (66) 
{"free_energy": -8.61, "intermolecular_energy": -10.69, "internal_energy": -1.37, "cluster_size": 21, "cluster_id": 1, "rank_in_cluster": 10}

>  <energy>  (66) 
-8.42

>  <cluster_rmsd>  (66) 
1.12

>  <cluster>  (66) 
1

$$$$

     RDKit          3D

 64 67  0  0  0  0  0  0  0  0999 V2000
  138.8420   67.4940  222.8990 C   0  0  0  0  0  0  0  0  0  0  0  0
  137.9290   68.6280  223.3160 C   0  0  0  0  0  0  0  0  0  0  0  0
  138.3320   69.0640  224.6720 C   0  0  0  0  0  0  0  0  0  0  0  0
  137.8520   68.4040  225.6430 O   0  0  0  0  0  0  0  0  0  0  0  0
  139.2100   70.1630  224.8370 N   0  0  0  0  0  0  0  0  0  0  0  0
  139.9710   70.2740  226.0600 C   0  0  0  0  0  0  0  0  0  0  0  0
  140.3060   71.5740  226.4200 C   0  0  0  0  0  0  0  0  0  0  0  0
  141.0350   71.8000  227.5720 C   0  0  0  0  0  0  0  0  0  0  0  0
  141.4090   70.6940  228.3410 C   0  0  0  0  0  0  0  0  0  0  0  0
  141.0660   69.4090  227.9680 C   0  0  0  0  0  0  0  0  0  0  0  0
  140.3300   69.1760  226.8010 C   0  0  0  0  0  0  0  0  0  0  0  0
  139.3930   71.1950  223.8410 C   0  0  0  0  0  0  0  0  0  0  0  0
  140.2870   70.6030  222.7500 C   0  0  0  0  0  0  0  0  0  0  0  0
  140.7380   71.6950  221.8250 C   0  0  0  0  0  0  0  0  0  0  0  0
  139.7330   72.7410  221.8020 N   0  0  0  0  0  0  0  0  0  0  0  0
  140.2430   74.0520  221.4870 C   0  0  0  0  0  0  0  0  0  0  0  0
  141.5050   74.1080  221.3180 O   0  0  0  0  0  0  0  0  0  0  0  0
  139.4120   75.2580  221.3590 C   0  0  1  0  0  0  0  0  0  0  0  0
  138.7660   75.5910  222.6280 N   0  0  0  0  0  0  0  0  0  0  0  0
  140.3080   76.3960  220.9190 C   0  0  1  0  0  0  0  0  0  0  0  0
  139.4080   77.3700  220.1670 C   0  0  0  0  0  0  0  0  0  0  0  0
  140.3770   78.3490  219.4850 C   0  0  0  0  0  0  0  0  0  0  0  0
  140.9090   79.1420  220.6410 C   0  0  0  0  0  0  0  0  0  0  0  0
  141.0890   80.5230  220.5050 C   0  0  0  0  0  0  0  0  0  0  0  0
  141.5820   81.2610  221.5790 C   0  0  0  0  0  0  0  0  0  0  0  0
  141.8870   80.6080  222.7660 C   0  0  0  0  0  0  0  0  0  0  0  0
  142.5610   81.6510  224.2140 Br  0  0  0  0  0  0  0  0  0  0  0  0
  141.6960   79.2400  222.8650 C   0  0  0  0  0  0  0  0  0  0  0  0
  141.2060   78.4840  221.8100 C   0  0  0  0  0  0  0  0  0  0  0  0
  141.0460   77.0350  222.0350 C   0  0  0  0  0  0  0  0  0  0  0  0
  138.3280   72.5250  222.0770 C   0  0  0  0  0  0  0  0  0  0  0  0
  138.0620   71.6110  223.2400 C   0  0  0  0  0  0  0  0  0  0  0  0
  139.2421   66.9970  223.7950 H   0  0  0  0  0  0  0  0  0  0  0  0
  138.2739   66.7674  222.2995 H   0  0  0  0  0  0  0  0  0  0  0  0
  139.6731   67.8939  222.2995 H   0  0  0  0  0  0  0  0  0  0  0  0
  138.0275   69.4656  222.6098 H   0  0  0  0  0  0  0  0  0  0  0  0
  136.8809   68.2942  223.3174 H   0  0  0  0  0  0  0  0  0  0  0  0
  139.9921   72.4196  225.7904 H   0  0  0  0  0  0  0  0  0  0  0  0
  141.3129   72.8203  227.8751 H   0  0  0  0  0  0  0  0  0  0  0  0
  141.9887   70.8504  229.2627 H   0  0  0  0  0  0  0  0  0  0  0  0
  141.3748   68.5597  228.5952 H   0  0  0  0  0  0  0  0  0  0  0  0
  140.0515   68.1579  226.4912 H   0  0  0  0  0  0  0  0  0  0  0  0
  139.8456   72.0888  224.2952 H   0  0  0  0  0  0  0  0  0  0  0  0
  141.1650   70.1287  223.2128 H   0  0  0  0  0  0  0  0  0  0  0  0
  139.7212   69.8509  222.1806 H   0  0  0  0  0  0  0  0  0  0  0  0
  141.6928   72.1090  222.1813 H   0  0  0  0  0  0  0  0  0  0  0  0
  140.8754   71.2899  220.8116 H   0  0  0  0  0  0  0  0  0  0  0  0
  138.6164   75.0810  220.6203 H   0  0  0  0  0  0  0  0  0  0  0  0
  138.1210   74.7880  222.8260 H   0  0  0  0  0  0  0  0  0  0  0  0
  139.4280   75.6380  223.4060 H   0  0  0  0  0  0  0  0  0  0  0  0
  141.1142   76.0214  220.2712 H   0  0  0  0  0  0  0  0  0  0  0  0
  138.8019   76.8391  219.4181 H   0  0  0  0  0  0  0  0  0  0  0  0
  138.6997   77.8825  220.8345 H   0  0  0  0  0  0  0  0  0  0  0  0
  141.1849   77.8117  218.9668 H   0  0  0  0  0  0  0  0  0  0  0  0
  139.8999   78.9692  218.7119 H   0  0  0  0  0  0  0  0  0  0  0  0
  140.8429   81.0226  219.5564 H   0  0  0  0  0  0  0  0  0  0  0  0
  141.7278   82.3475  221.4878 H   0  0  0  0  0  0  0  0  0  0  0  0
  141.9409   78.7360  223.8116 H   0  0  0  0  0  0  0  0  0  0  0  0
  142.0408   76.5730  222.1180 H   0  0  0  0  0  0  0  0  0  0  0  0
  140.4710   76.8883  222.9612 H   0  0  0  0  0  0  0  0  0  0  0  0
  137.8644   73.4994  222.2908 H   0  0  0  0  0  0  0  0  0  0  0  0
  137.9028   72.0371  221.1875 H   0  0  0  0  0  0  0  0  0  0  0  0
  137.4620   72.1382  223.9964 H   0  0  0  0  0  0  0  0  0  0  0  0
  137.5074   70.7232  222.9021 H   0  0  0  0  0  0  0  0  0  0  0  0
  1  2  1  0
  2  3  1  0
  3  4  2  0
  3  5  1  0
  5  6  1  0
  6  7  2  0
  7  8  1  0
  8  9  2  0
  9 10  1  0
 10 11  2  0
  5 12  1  0
 12 13  1  0
 13 14  1  0
 14 15  1  0
 15 16  1  0
 16 17  2  0
 16 18  1  0
 18 19  1  0
 18 20  1  0
 20 21  1  0
 21 22  1  0
 22 23  1  0
 23 24  2  0
 24 25  1  0
 25 26  2  0
 26 27  1  0
 26 28  1  0
 28 29  2  0
 29 30  1  0
 15 31  1  0
 31 32  1  0
 11  6  1  0
 32 12  1  0
 30 20  1  0
 29 23  1  0
  1 33  1  0
  1 34  1  0
  1 35  1  0
  2 36  1  0
  2 37  1  0
  7 38  1  0
  8 39  1  0
  9 40  1  0
 10 41  1  0
 11 42  1  0
 12 43  1  0
 13 44  1  0
 13 45  1  0
 14 46  1  0
 14 47  1  0
 18 48  1  6
 19 49  1  0
 19 50  1  0
 20 51  1  6
 21 52  1  0
 21 53  1  0
 22 54  1  0
 22 55  1  0
 24 56  1  0
 25 57  1  0
 28 58  1  0
 30 59  1  0
 30 60  1  0
 31 61  1  0
 31 62  1  0
 32 63  1  0
 32 64  1  0
M  END
>  <smiles>  (67) 
CCC(=O)N(c1ccccc1)C1CCN(C(=O)[C@@H](N)C2CCc3ccc(Br)cc3C2)CC1

>  <score_type>  (67) 
oracle

>  <origin>  (67) 
autodockgpu

>  <m_score__min__energy>  (67) 
-9.2699999999999996

>  <m_primary>  (67) 
energy

>  <rmsd>  (67) 
6.099598801227233

>  <m_score__min__rmsd>  (67) 
6.099598801227233

>  <meeko>  (67) 
{"free_energy": -8.62, "intermolecular_energy": -10.71, "internal_energy": -1.38, "cluster_size": 21, "cluster_id": 1, "rank_in_cluster": 9}

>  <energy>  (67) 
-8.4

>  <cluster_rmsd>  (67) 
1.06

>  <cluster>  (67) 
1

$$$$

     RDKit          3D

 64 67  0  0  0  0  0  0  0  0999 V2000
  143.0670   80.5110  223.8560 C   0  0  0  0  0  0  0  0  0  0  0  0
  142.0070   81.5910  223.7970 C   0  0  0  0  0  0  0  0  0  0  0  0
  141.1390   81.3150  222.6300 C   0  0  0  0  0  0  0  0  0  0  0  0
  141.4760   81.8600  221.5350 O   0  0  0  0  0  0  0  0  0  0  0  0
  140.0030   80.4820  222.7670 N   0  0  0  0  0  0  0  0  0  0  0  0
  138.8010   81.0250  223.3570 C   0  0  0  0  0  0  0  0  0  0  0  0
  138.4640   80.4840  224.5920 C   0  0  0  0  0  0  0  0  0  0  0  0
  137.3330   80.9290  225.2490 C   0  0  0  0  0  0  0  0  0  0  0  0
  136.5630   81.9220  224.6350 C   0  0  0  0  0  0  0  0  0  0  0  0
  136.9140   82.4480  223.4080 C   0  0  0  0  0  0  0  0  0  0  0  0
  138.0580   81.9990  222.7390 C   0  0  0  0  0  0  0  0  0  0  0  0
  139.9720   79.0980  222.3440 C   0  0  0  0  0  0  0  0  0  0  0  0
  139.0610   79.0310  221.1170 C   0  0  0  0  0  0  0  0  0  0  0  0
  138.7680   77.5960  220.7900 C   0  0  0  0  0  0  0  0  0  0  0  0
  139.8820   76.7740  221.2250 N   0  0  0  0  0  0  0  0  0  0  0  0
  139.5290   75.4130  221.5410 C   0  0  0  0  0  0  0  0  0  0  0  0
  138.2890   75.1420  221.4350 O   0  0  0  0  0  0  0  0  0  0  0  0
  140.4920   74.3820  221.9580 C   0  0  1  0  0  0  0  0  0  0  0  0
  139.8110   73.2340  222.5560 N   0  0  0  0  0  0  0  0  0  0  0  0
  141.2660   73.9450  220.7330 C   0  0  1  0  0  0  0  0  0  0  0  0
  142.6170   74.6470  220.8200 C   0  0  0  0  0  0  0  0  0  0  0  0
  143.2590   74.4310  219.4410 C   0  0  0  0  0  0  0  0  0  0  0  0
  143.5910   72.9680  219.4610 C   0  0  0  0  0  0  0  0  0  0  0  0
  144.8050   72.5300  218.9210 C   0  0  0  0  0  0  0  0  0  0  0  0
  145.1150   71.1700  218.9400 C   0  0  0  0  0  0  0  0  0  0  0  0
  144.2080   70.2780  219.4950 C   0  0  0  0  0  0  0  0  0  0  0  0
  144.6660   68.4250  219.5020 Br  0  0  0  0  0  0  0  0  0  0  0  0
  143.0160   70.7470  220.0200 C   0  0  0  0  0  0  0  0  0  0  0  0
  142.6850   72.0950  220.0130 C   0  0  0  0  0  0  0  0  0  0  0  0
  141.3870   72.4740  220.6000 C   0  0  0  0  0  0  0  0  0  0  0  0
  141.2430   77.2500  221.3520 C   0  0  0  0  0  0  0  0  0  0  0  0
  141.3620   78.6130  221.9760 C   0  0  0  0  0  0  0  0  0  0  0  0
  143.2953   80.2784  224.9066 H   0  0  0  0  0  0  0  0  0  0  0  0
  142.6968   79.6060  223.3521 H   0  0  0  0  0  0  0  0  0  0  0  0
  143.9788   80.8642  223.3521 H   0  0  0  0  0  0  0  0  0  0  0  0
  141.4081   81.5773  224.7195 H   0  0  0  0  0  0  0  0  0  0  0  0
  142.4751   82.5817  223.7000 H   0  0  0  0  0  0  0  0  0  0  0  0
  139.0950   79.7049  225.0445 H   0  0  0  0  0  0  0  0  0  0  0  0
  137.0464   80.5143  226.2267 H   0  0  0  0  0  0  0  0  0  0  0  0
  135.6586   82.2916  225.1405 H   0  0  0  0  0  0  0  0  0  0  0  0
  136.2877   83.2285  222.9513 H   0  0  0  0  0  0  0  0  0  0  0  0
  138.3489   82.4089  221.7606 H   0  0  0  0  0  0  0  0  0  0  0  0
  139.6022   78.4569  223.1578 H   0  0  0  0  0  0  0  0  0  0  0  0
  138.1194   79.5583  221.3301 H   0  0  0  0  0  0  0  0  0  0  0  0
  139.5622   79.5073  220.2615 H   0  0  0  0  0  0  0  0  0  0  0  0
  137.8515   77.2794  221.3093 H   0  0  0  0  0  0  0  0  0  0  0  0
  138.6258   77.4842  219.7050 H   0  0  0  0  0  0  0  0  0  0  0  0
  141.1694   74.7968  222.7190 H   0  0  0  0  0  0  0  0  0  0  0  0
  140.2390   73.1260  223.5070 H   0  0  0  0  0  0  0  0  0  0  0  0
  138.8120   73.4000  222.6980 H   0  0  0  0  0  0  0  0  0  0  0  0
  140.7283   74.2321  219.8174 H   0  0  0  0  0  0  0  0  0  0  0  0
  142.4841   75.7201  221.0221 H   0  0  0  0  0  0  0  0  0  0  0  0
  143.2399   74.2507  221.6355 H   0  0  0  0  0  0  0  0  0  0  0  0
  142.5517   74.6668  218.6322 H   0  0  0  0  0  0  0  0  0  0  0  0
  144.1315   75.0755  219.2585 H   0  0  0  0  0  0  0  0  0  0  0  0
  145.5100   73.2528  218.4846 H   0  0  0  0  0  0  0  0  0  0  0  0
  146.0658   70.8093  218.5206 H   0  0  0  0  0  0  0  0  0  0  0  0
  142.3078   70.0277  220.4571 H   0  0  0  0  0  0  0  0  0  0  0  0
  140.5788   72.1050  219.9514 H   0  0  0  0  0  0  0  0  0  0  0  0
  141.3153   72.0273  221.6027 H   0  0  0  0  0  0  0  0  0  0  0  0
  141.8020   76.5355  221.9741 H   0  0  0  0  0  0  0  0  0  0  0  0
  141.6463   77.3323  220.3319 H   0  0  0  0  0  0  0  0  0  0  0  0
  141.9857   78.5538  222.8802 H   0  0  0  0  0  0  0  0  0  0  0  0
  141.8294   79.3122  221.2670 H   0  0  0  0  0  0  0  0  0  0  0  0
  1  2  1  0
  2  3  1  0
  3  4  2  0
  3  5  1  0
  5  6  1  0
  6  7  2  0
  7  8  1  0
  8  9  2  0
  9 10  1  0
 10 11  2  0
  5 12  1  0
 12 13  1  0
 13 14  1  0
 14 15  1  0
 15 16  1  0
 16 17  2  0
 16 18  1  0
 18 19  1  0
 18 20  1  0
 20 21  1  0
 21 22  1  0
 22 23  1  0
 23 24  2  0
 24 25  1  0
 25 26  2  0
 26 27  1  0
 26 28  1  0
 28 29  2  0
 29 30  1  0
 15 31  1  0
 31 32  1  0
 11  6  1  0
 32 12  1  0
 30 20  1  0
 29 23  1  0
  1 33  1  0
  1 34  1  0
  1 35  1  0
  2 36  1  0
  2 37  1  0
  7 38  1  0
  8 39  1  0
  9 40  1  0
 10 41  1  0
 11 42  1  0
 12 43  1  0
 13 44  1  0
 13 45  1  0
 14 46  1  0
 14 47  1  0
 18 48  1  1
 19 49  1  0
 19 50  1  0
 20 51  1  6
 21 52  1  0
 21 53  1  0
 22 54  1  0
 22 55  1  0
 24 56  1  0
 25 57  1  0
 28 58  1  0
 30 59  1  0
 30 60  1  0
 31 61  1  0
 31 62  1  0
 32 63  1  0
 32 64  1  0
M  END
>  <smiles>  (68) 
CCC(=O)N(c1ccccc1)C1CCN(C(=O)[C@@H](N)C2CCc3ccc(Br)cc3C2)CC1

>  <score_type>  (68) 
oracle

>  <origin>  (68) 
autodockgpu

>  <m_score__min__energy>  (68) 
-9.2699999999999996

>  <m_primary>  (68) 
energy

>  <rmsd>  (68) 
7.4426075474771896

>  <m_score__min__rmsd>  (68) 
7.4426075474771896

>  <meeko>  (68) 
{"free_energy": -7.22, "intermolecular_energy": -9.31, "internal_energy": -2.14, "cluster_size": 1, "cluster_id": 6, "rank_in_cluster": 1}

>  <energy>  (68) 
-8.35

>  <cluster_rmsd>  (68) 
1.73

>  <cluster>  (68) 
1

$$$$

     RDKit          3D

 64 67  0  0  0  0  0  0  0  0999 V2000
  142.5250   77.5880  218.6010 C   0  0  0  0  0  0  0  0  0  0  0  0
  141.4090   78.6080  218.5170 C   0  0  0  0  0  0  0  0  0  0  0  0
  140.2330   78.0590  219.2290 C   0  0  0  0  0  0  0  0  0  0  0  0
  139.1140   78.1760  218.6440 O   0  0  0  0  0  0  0  0  0  0  0  0
  140.3890   77.4410  220.4930 N   0  0  0  0  0  0  0  0  0  0  0  0
  140.7390   78.2560  221.6330 C   0  0  0  0  0  0  0  0  0  0  0  0
  139.6790   78.5640  222.4760 C   0  0  0  0  0  0  0  0  0  0  0  0
  139.8990   79.3390  223.5990 C   0  0  0  0  0  0  0  0  0  0  0  0
  141.2010   79.7870  223.8450 C   0  0  0  0  0  0  0  0  0  0  0  0
  142.2420   79.4700  222.9960 C   0  0  0  0  0  0  0  0  0  0  0  0
  142.0240   78.6860  221.8570 C   0  0  0  0  0  0  0  0  0  0  0  0
  140.2150   76.0220  220.7150 C   0  0  0  0  0  0  0  0  0  0  0  0
  141.4220   75.5520  221.5300 C   0  0  0  0  0  0  0  0  0  0  0  0
  141.4470   74.0520  221.5660 C   0  0  0  0  0  0  0  0  0  0  0  0
  140.0890   73.5520  221.4560 N   0  0  0  0  0  0  0  0  0  0  0  0
  139.9830   72.2350  220.8820 C   0  0  0  0  0  0  0  0  0  0  0  0
  141.0900   71.7200  220.5150 O   0  0  0  0  0  0  0  0  0  0  0  0
  138.7190   71.5020  220.7110 C   0  0  1  0  0  0  0  0  0  0  0  0
  138.8020   70.5570  219.5990 N   0  0  0  0  0  0  0  0  0  0  0  0
  138.4330   70.7630  222.0010 C   0  0  1  0  0  0  0  0  0  0  0  0
  139.1930   69.4440  221.9040 C   0  0  0  0  0  0  0  0  0  0  0  0
  138.6570   68.5980  223.0690 C   0  0  0  0  0  0  0  0  0  0  0  0
  139.2420   69.2840  224.2680 C   0  0  0  0  0  0  0  0  0  0  0  0
  139.7380   68.5160  225.3270 C   0  0  0  0  0  0  0  0  0  0  0  0
  140.2830   69.1520  226.4410 C   0  0  0  0  0  0  0  0  0  0  0  0
  140.3220   70.5400  226.4760 C   0  0  0  0  0  0  0  0  0  0  0  0
  141.0750   71.3750  228.0170 Br  0  0  0  0  0  0  0  0  0  0  0  0
  139.8220   71.2670  225.4090 C   0  0  0  0  0  0  0  0  0  0  0  0
  139.2750   70.6570  224.2890 C   0  0  0  0  0  0  0  0  0  0  0  0
  138.7750   71.5370  223.2170 C   0  0  0  0  0  0  0  0  0  0  0  0
  138.9150   74.2920  221.8690 C   0  0  0  0  0  0  0  0  0  0  0  0
  138.9380   75.7460  221.4880 C   0  0  0  0  0  0  0  0  0  0  0  0
  142.7528   77.3798  219.6568 H   0  0  0  0  0  0  0  0  0  0  0  0
  142.2105   76.6586  218.1036 H   0  0  0  0  0  0  0  0  0  0  0  0
  143.4224   77.9846  218.1036 H   0  0  0  0  0  0  0  0  0  0  0  0
  141.7266   79.5486  218.9907 H   0  0  0  0  0  0  0  0  0  0  0  0
  141.1577   78.8138  217.4661 H   0  0  0  0  0  0  0  0  0  0  0  0
  138.6684   78.1926  222.2507 H   0  0  0  0  0  0  0  0  0  0  0  0
  139.0740   79.5961  224.2797 H   0  0  0  0  0  0  0  0  0  0  0  0
  141.3994   80.4047  224.7333 H   0  0  0  0  0  0  0  0  0  0  0  0
  143.2549   79.8378  223.2170 H   0  0  0  0  0  0  0  0  0  0  0  0
  142.8448   78.4261  221.1723 H   0  0  0  0  0  0  0  0  0  0  0  0
  140.1417   75.4903  219.7548 H   0  0  0  0  0  0  0  0  0  0  0  0
  142.3465   75.9232  221.0636 H   0  0  0  0  0  0  0  0  0  0  0  0
  141.3468   75.9425  222.5556 H   0  0  0  0  0  0  0  0  0  0  0  0
  142.0482   73.6733  220.7263 H   0  0  0  0  0  0  0  0  0  0  0  0
  141.8920   73.7112  222.5125 H   0  0  0  0  0  0  0  0  0  0  0  0
  137.9097   72.2103  220.4800 H   0  0  0  0  0  0  0  0  0  0  0  0
  138.3270   71.0360  218.7960 H   0  0  0  0  0  0  0  0  0  0  0  0
  139.7660   70.3760  219.3070 H   0  0  0  0  0  0  0  0  0  0  0  0
  137.3522   70.5912  222.1127 H   0  0  0  0  0  0  0  0  0  0  0  0
  138.9920   68.9505  220.9417 H   0  0  0  0  0  0  0  0  0  0  0  0
  140.2823   69.5864  221.9600 H   0  0  0  0  0  0  0  0  0  0  0  0
  137.5575   68.6148  223.0990 H   0  0  0  0  0  0  0  0  0  0  0  0
  138.9280   67.5343  222.9981 H   0  0  0  0  0  0  0  0  0  0  0  0
  139.6981   67.4177  225.2807 H   0  0  0  0  0  0  0  0  0  0  0  0
  140.6772   68.5623  227.2817 H   0  0  0  0  0  0  0  0  0  0  0  0
  139.8597   72.3656  225.4505 H   0  0  0  0  0  0  0  0  0  0  0  0
  137.8755   72.0604  223.5734 H   0  0  0  0  0  0  0  0  0  0  0  0
  139.5671   72.2556  222.9599 H   0  0  0  0  0  0  0  0  0  0  0  0
  138.0330   73.8274  221.4040 H   0  0  0  0  0  0  0  0  0  0  0  0
  138.8872   74.2534  222.9680 H   0  0  0  0  0  0  0  0  0  0  0  0
  138.0661   75.9785  220.8590 H   0  0  0  0  0  0  0  0  0  0  0  0
  138.9017   76.3726  222.3914 H   0  0  0  0  0  0  0  0  0  0  0  0
  1  2  1  0
  2  3  1  0
  3  4  2  0
  3  5  1  0
  5  6  1  0
  6  7  2  0
  7  8  1  0
  8  9  2  0
  9 10  1  0
 10 11  2  0
  5 12  1  0
 12 13  1  0
 13 14  1  0
 14 15  1  0
 15 16  1  0
 16 17  2  0
 16 18  1  0
 18 19  1  0
 18 20  1  0
 20 21  1  0
 21 22  1  0
 22 23  1  0
 23 24  2  0
 24 25  1  0
 25 26  2  0
 26 27  1  0
 26 28  1  0
 28 29  2  0
 29 30  1  0
 15 31  1  0
 31 32  1  0
 11  6  1  0
 32 12  1  0
 30 20  1  0
 29 23  1  0
  1 33  1  0
  1 34  1  0
  1 35  1  0
  2 36  1  0
  2 37  1  0
  7 38  1  0
  8 39  1  0
  9 40  1  0
 10 41  1  0
 11 42  1  0
 12 43  1  0
 13 44  1  0
 13 45  1  0
 14 46  1  0
 14 47  1  0
 18 48  1  6
 19 49  1  0
 19 50  1  0
 20 51  1  1
 21 52  1  0
 21 53  1  0
 22 54  1  0
 22 55  1  0
 24 56  1  0
 25 57  1  0
 28 58  1  0
 30 59  1  0
 30 60  1  0
 31 61  1  0
 31 62  1  0
 32 63  1  0
 32 64  1  0
M  END
>  <smiles>  (69) 
CCC(=O)N(c1ccccc1)C1CCN(C(=O)[C@@H](N)C2CCc3ccc(Br)cc3C2)CC1

>  <score_type>  (69) 
oracle

>  <origin>  (69) 
autodockgpu

>  <m_score__min__energy>  (69) 
-9.2699999999999996

>  <m_primary>  (69) 
energy

>  <rmsd>  (69) 
8.118845747227185

>  <m_score__min__rmsd>  (69) 
8.118845747227185

>  <meeko>  (69) 
{"free_energy": -7.01, "intermolecular_energy": -9.1, "internal_energy": -2.35, "cluster_size": 4, "cluster_id": 8, "rank_in_cluster": 3}

>  <energy>  (69) 
-8.27

>  <cluster_rmsd>  (69) 
0.78

>  <cluster>  (69) 
1

$$$$

     RDKit          3D

 64 67  0  0  0  0  0  0  0  0999 V2000
  138.8430   67.2580  223.0780 C   0  0  0  0  0  0  0  0  0  0  0  0
  138.0050   68.5150  222.9710 C   0  0  0  0  0  0  0  0  0  0  0  0
  138.0310   69.1950  224.2850 C   0  0  0  0  0  0  0  0  0  0  0  0
  137.2140   68.7690  225.1570 O   0  0  0  0  0  0  0  0  0  0  0  0
  138.9330   70.2600  224.5210 N   0  0  0  0  0  0  0  0  0  0  0  0
  139.6420   70.3140  225.7780 C   0  0  0  0  0  0  0  0  0  0  0  0
  140.3670   71.4800  225.9880 C   0  0  0  0  0  0  0  0  0  0  0  0
  141.0850   71.6400  227.1580 C   0  0  0  0  0  0  0  0  0  0  0  0
  141.0510   70.6050  228.0970 C   0  0  0  0  0  0  0  0  0  0  0  0
  140.3240   69.4530  227.8710 C   0  0  0  0  0  0  0  0  0  0  0  0
  139.5970   69.2870  226.6880 C   0  0  0  0  0  0  0  0  0  0  0  0
  139.1910   71.3150  223.5640 C   0  0  0  0  0  0  0  0  0  0  0  0
  140.3000   70.8100  222.6380 C   0  0  0  0  0  0  0  0  0  0  0  0
  140.8040   71.9450  221.7970 C   0  0  0  0  0  0  0  0  0  0  0  0
  139.7320   72.9040  221.6030 N   0  0  0  0  0  0  0  0  0  0  0  0
  140.1760   74.2550  221.3720 C   0  0  0  0  0  0  0  0  0  0  0  0
  141.4390   74.4190  221.4150 O   0  0  0  0  0  0  0  0  0  0  0  0
  139.2790   75.3890  221.1040 C   0  0  1  0  0  0  0  0  0  0  0  0
  138.4900   75.7310  222.2870 N   0  0  0  0  0  0  0  0  0  0  0  0
  140.1320   76.5690  220.6910 C   0  0  1  0  0  0  0  0  0  0  0  0
  139.1750   77.5790  220.0670 C   0  0  0  0  0  0  0  0  0  0  0  0
  140.0870   78.6190  219.3960 C   0  0  0  0  0  0  0  0  0  0  0  0
  140.6810   79.3380  220.5710 C   0  0  0  0  0  0  0  0  0  0  0  0
  140.8360   80.7280  220.5210 C   0  0  0  0  0  0  0  0  0  0  0  0
  141.3880   81.3970  221.6130 C   0  0  0  0  0  0  0  0  0  0  0  0
  141.7740   80.6670  222.7290 C   0  0  0  0  0  0  0  0  0  0  0  0
  142.5260   81.6180  224.2030 Br  0  0  0  0  0  0  0  0  0  0  0  0
  141.6060   79.2930  222.7420 C   0  0  0  0  0  0  0  0  0  0  0  0
  141.0590   78.6040  221.6690 C   0  0  0  0  0  0  0  0  0  0  0  0
  140.9310   77.1410  221.8000 C   0  0  0  0  0  0  0  0  0  0  0  0
  138.3250   72.5680  221.6430 C   0  0  0  0  0  0  0  0  0  0  0  0
  137.9480   71.6240  222.7500 C   0  0  0  0  0  0  0  0  0  0  0  0
  139.0052   67.0147  224.1384 H   0  0  0  0  0  0  0  0  0  0  0  0
  138.3189   66.4250  222.5867 H   0  0  0  0  0  0  0  0  0  0  0  0
  139.8135   67.4214  222.5867 H   0  0  0  0  0  0  0  0  0  0  0  0
  138.4233   69.1779  222.1992 H   0  0  0  0  0  0  0  0  0  0  0  0
  136.9714   68.2626  222.6917 H   0  0  0  0  0  0  0  0  0  0  0  0
  140.3697   72.2732  225.2259 H   0  0  0  0  0  0  0  0  0  0  0  0
  141.6662   72.5550  227.3449 H   0  0  0  0  0  0  0  0  0  0  0  0
  141.6151   70.7105  229.0354 H   0  0  0  0  0  0  0  0  0  0  0  0
  140.3167   68.6569  228.6301 H   0  0  0  0  0  0  0  0  0  0  0  0
  139.0148   68.3739  226.4951 H   0  0  0  0  0  0  0  0  0  0  0  0
  139.4856   72.2390  224.0830 H   0  0  0  0  0  0  0  0  0  0  0  0
  141.1260   70.4058  223.2416 H   0  0  0  0  0  0  0  0  0  0  0  0
  139.9015   70.0189  221.9858 H   0  0  0  0  0  0  0  0  0  0  0  0
  141.6481   72.4338  222.3054 H   0  0  0  0  0  0  0  0  0  0  0  0
  141.1409   71.5630  220.8220 H   0  0  0  0  0  0  0  0  0  0  0  0
  138.5732   75.1193  220.3046 H   0  0  0  0  0  0  0  0  0  0  0  0
  137.5030   75.4800  222.0390 H   0  0  0  0  0  0  0  0  0  0  0  0
  138.7430   75.1680  223.1030 H   0  0  0  0  0  0  0  0  0  0  0  0
  140.9000   76.2525  219.9699 H   0  0  0  0  0  0  0  0  0  0  0  0
  138.5287   77.0918  219.3220 H   0  0  0  0  0  0  0  0  0  0  0  0
  138.5051   78.0326  220.8123 H   0  0  0  0  0  0  0  0  0  0  0  0
  140.8671   78.1326  218.7920 H   0  0  0  0  0  0  0  0  0  0  0  0
  139.5551   79.2834  218.6991 H   0  0  0  0  0  0  0  0  0  0  0  0
  140.5248   81.2885  219.6272 H   0  0  0  0  0  0  0  0  0  0  0  0
  141.5159   82.4893  221.5904 H   0  0  0  0  0  0  0  0  0  0  0  0
  141.9167   78.7282  223.6333 H   0  0  0  0  0  0  0  0  0  0  0  0
  141.9347   76.6910  221.7878 H   0  0  0  0  0  0  0  0  0  0  0  0
  140.4173   76.9209  222.7475 H   0  0  0  0  0  0  0  0  0  0  0  0
  137.7519   73.4979  221.7725 H   0  0  0  0  0  0  0  0  0  0  0  0
  138.0959   72.0541  220.6978 H   0  0  0  0  0  0  0  0  0  0  0  0
  137.1894   72.0921  223.3945 H   0  0  0  0  0  0  0  0  0  0  0  0
  137.5330   70.6963  222.3291 H   0  0  0  0  0  0  0  0  0  0  0  0
  1  2  1  0
  2  3  1  0
  3  4  2  0
  3  5  1  0
  5  6  1  0
  6  7  2  0
  7  8  1  0
  8  9  2  0
  9 10  1  0
 10 11  2  0
  5 12  1  0
 12 13  1  0
 13 14  1  0
 14 15  1  0
 15 16  1  0
 16 17  2  0
 16 18  1  0
 18 19  1  0
 18 20  1  0
 20 21  1  0
 21 22  1  0
 22 23  1  0
 23 24  2  0
 24 25  1  0
 25 26  2  0
 26 27  1  0
 26 28  1  0
 28 29  2  0
 29 30  1  0
 15 31  1  0
 31 32  1  0
 11  6  1  0
 32 12  1  0
 30 20  1  0
 29 23  1  0
  1 33  1  0
  1 34  1  0
  1 35  1  0
  2 36  1  0
  2 37  1  0
  7 38  1  0
  8 39  1  0
  9 40  1  0
 10 41  1  0
 11 42  1  0
 12 43  1  0
 13 44  1  0
 13 45  1  0
 14 46  1  0
 14 47  1  0
 18 48  1  6
 19 49  1  0
 19 50  1  0
 20 51  1  6
 21 52  1  0
 21 53  1  0
 22 54  1  0
 22 55  1  0
 24 56  1  0
 25 57  1  0
 28 58  1  0
 30 59  1  0
 30 60  1  0
 31 61  1  0
 31 62  1  0
 32 63  1  0
 32 64  1  0
M  END
>  <smiles>  (70) 
CCC(=O)N(c1ccccc1)C1CCN(C(=O)[C@@H](N)C2CCc3ccc(Br)cc3C2)CC1

>  <score_type>  (70) 
oracle

>  <origin>  (70) 
autodockgpu

>  <m_score__min__energy>  (70) 
-9.2699999999999996

>  <m_primary>  (70) 
energy

>  <rmsd>  (70) 
5.940664608216084

>  <m_score__min__rmsd>  (70) 
5.940664608216084

>  <meeko>  (70) 
{"free_energy": -8.27, "intermolecular_energy": -10.36, "internal_energy": -1.48, "cluster_size": 21, "cluster_id": 1, "rank_in_cluster": 19}

>  <energy>  (70) 
-8.22

>  <cluster_rmsd>  (70) 
0.77

>  <cluster>  (70) 
1

$$$$

     RDKit          3D

 64 67  0  0  0  0  0  0  0  0999 V2000
  146.2100   73.0170  221.8110 C   0  0  0  0  0  0  0  0  0  0  0  0
  146.0410   74.1550  220.8260 C   0  0  0  0  0  0  0  0  0  0  0  0
  145.2990   73.6380  219.6540 C   0  0  0  0  0  0  0  0  0  0  0  0
  145.9600   72.9270  218.8370 O   0  0  0  0  0  0  0  0  0  0  0  0
  143.9260   73.9400  219.4870 N   0  0  0  0  0  0  0  0  0  0  0  0
  143.5530   75.2220  218.9350 C   0  0  0  0  0  0  0  0  0  0  0  0
  143.6730   75.3180  217.5540 C   0  0  0  0  0  0  0  0  0  0  0  0
  143.3430   76.5000  216.9180 C   0  0  0  0  0  0  0  0  0  0  0  0
  142.8930   77.5660  217.7030 C   0  0  0  0  0  0  0  0  0  0  0  0
  142.7800   77.4520  219.0740 C   0  0  0  0  0  0  0  0  0  0  0  0
  143.1140   76.2570  219.7220 C   0  0  0  0  0  0  0  0  0  0  0  0
  142.8590   73.0300  219.8420 C   0  0  0  0  0  0  0  0  0  0  0  0
  143.5220   71.7260  220.2910 C   0  0  0  0  0  0  0  0  0  0  0  0
  142.4810   70.6530  220.4150 C   0  0  0  0  0  0  0  0  0  0  0  0
  141.2070   71.2640  220.7440 N   0  0  0  0  0  0  0  0  0  0  0  0
  140.0560   70.5120  220.3140 C   0  0  0  0  0  0  0  0  0  0  0  0
  140.3230   69.4460  219.6690 O   0  0  0  0  0  0  0  0  0  0  0  0
  138.6630   70.9050  220.5740 C   0  0  1  0  0  0  0  0  0  0  0  0
  137.7590   70.3440  219.5700 N   0  0  0  0  0  0  0  0  0  0  0  0
  138.2860   70.4010  221.9500 C   0  0  1  0  0  0  0  0  0  0  0  0
  138.8520   68.9880  222.0470 C   0  0  0  0  0  0  0  0  0  0  0  0
  138.2110   68.3970  223.3120 C   0  0  0  0  0  0  0  0  0  0  0  0
  138.8990   69.1540  224.4100 C   0  0  0  0  0  0  0  0  0  0  0  0
  139.2900   68.4790  225.5720 C   0  0  0  0  0  0  0  0  0  0  0  0
  139.9290   69.1810  226.5920 C   0  0  0  0  0  0  0  0  0  0  0  0
  140.1640   70.5410  226.4330 C   0  0  0  0  0  0  0  0  0  0  0  0
  141.0410   71.4690  227.8510 Br  0  0  0  0  0  0  0  0  0  0  0  0
  139.7630   71.1750  225.2700 C   0  0  0  0  0  0  0  0  0  0  0  0
  139.1250   70.4980  224.2400 C   0  0  0  0  0  0  0  0  0  0  0  0
  138.7450   71.2810  223.0500 C   0  0  0  0  0  0  0  0  0  0  0  0
  141.0670   72.5270  221.4380 C   0  0  0  0  0  0  0  0  0  0  0  0
  142.0210   73.5930  220.9750 C   0  0  0  0  0  0  0  0  0  0  0  0
  146.1518   73.4087  222.8373 H   0  0  0  0  0  0  0  0  0  0  0  0
  145.4121   72.2760  221.6556 H   0  0  0  0  0  0  0  0  0  0  0  0
  147.1889   72.5398  221.6556 H   0  0  0  0  0  0  0  0  0  0  0  0
  145.4753   74.9737  221.2947 H   0  0  0  0  0  0  0  0  0  0  0  0
  147.0230   74.5421  220.5166 H   0  0  0  0  0  0  0  0  0  0  0  0
  144.0291   74.4570  216.9694 H   0  0  0  0  0  0  0  0  0  0  0  0
  143.4318   76.5992  215.8261 H   0  0  0  0  0  0  0  0  0  0  0  0
  142.6233   78.5156  217.2177 H   0  0  0  0  0  0  0  0  0  0  0  0
  142.4236   78.3095  219.6637 H   0  0  0  0  0  0  0  0  0  0  0  0
  143.0284   76.1522  220.8136 H   0  0  0  0  0  0  0  0  0  0  0  0
  142.1904   72.8702  218.9832 H   0  0  0  0  0  0  0  0  0  0  0  0
  144.2747   71.4227  219.5484 H   0  0  0  0  0  0  0  0  0  0  0  0
  144.0092   71.8787  221.2653 H   0  0  0  0  0  0  0  0  0  0  0  0
  142.3946   70.1115  219.4614 H   0  0  0  0  0  0  0  0  0  0  0  0
  142.7691   69.9467  221.2075 H   0  0  0  0  0  0  0  0  0  0  0  0
  138.5738   72.0002  220.5225 H   0  0  0  0  0  0  0  0  0  0  0  0
  137.5460   71.1380  218.9180 H   0  0  0  0  0  0  0  0  0  0  0  0
  138.2010   69.6110  219.0090 H   0  0  0  0  0  0  0  0  0  0  0  0
  137.1927   70.4003  222.0715 H   0  0  0  0  0  0  0  0  0  0  0  0
  138.5763   68.3980  221.1605 H   0  0  0  0  0  0  0  0  0  0  0  0
  139.9509   68.9823  222.0958 H   0  0  0  0  0  0  0  0  0  0  0  0
  137.1254   68.5739  223.3272 H   0  0  0  0  0  0  0  0  0  0  0  0
  138.3265   67.3061  223.3930 H   0  0  0  0  0  0  0  0  0  0  0  0
  139.0942   67.4019  225.6793 H   0  0  0  0  0  0  0  0  0  0  0  0
  140.2433   68.6650  227.5112 H   0  0  0  0  0  0  0  0  0  0  0  0
  139.9565   72.2521  225.1582 H   0  0  0  0  0  0  0  0  0  0  0  0
  137.9319   71.9710  223.3198 H   0  0  0  0  0  0  0  0  0  0  0  0
  139.6287   71.8370  222.7038 H   0  0  0  0  0  0  0  0  0  0  0  0
  140.0407   72.8925  221.2857 H   0  0  0  0  0  0  0  0  0  0  0  0
  141.2977   72.3339  222.4961 H   0  0  0  0  0  0  0  0  0  0  0  0
  141.4562   74.4675  220.6197 H   0  0  0  0  0  0  0  0  0  0  0  0
  142.6710   73.9039  221.8061 H   0  0  0  0  0  0  0  0  0  0  0  0
  1  2  1  0
  2  3  1  0
  3  4  2  0
  3  5  1  0
  5  6  1  0
  6  7  2  0
  7  8  1  0
  8  9  2  0
  9 10  1  0
 10 11  2  0
  5 12  1  0
 12 13  1  0
 13 14  1  0
 14 15  1  0
 15 16  1  0
 16 17  2  0
 16 18  1  0
 18 19  1  0
 18 20  1  0
 20 21  1  0
 21 22  1  0
 22 23  1  0
 23 24  2  0
 24 25  1  0
 25 26  2  0
 26 27  1  0
 26 28  1  0
 28 29  2  0
 29 30  1  0
 15 31  1  0
 31 32  1  0
 11  6  1  0
 32 12  1  0
 30 20  1  0
 29 23  1  0
  1 33  1  0
  1 34  1  0
  1 35  1  0
  2 36  1  0
  2 37  1  0
  7 38  1  0
  8 39  1  0
  9 40  1  0
 10 41  1  0
 11 42  1  0
 12 43  1  0
 13 44  1  0
 13 45  1  0
 14 46  1  0
 14 47  1  0
 18 48  1  1
 19 49  1  0
 19 50  1  0
 20 51  1  6
 21 52  1  0
 21 53  1  0
 22 54  1  0
 22 55  1  0
 24 56  1  0
 25 57  1  0
 28 58  1  0
 30 59  1  0
 30 60  1  0
 31 61  1  0
 31 62  1  0
 32 63  1  0
 32 64  1  0
M  END
>  <smiles>  (71) 
CCC(=O)N(c1ccccc1)C1CCN(C(=O)[C@@H](N)C2CCc3ccc(Br)cc3C2)CC1

>  <score_type>  (71) 
oracle

>  <origin>  (71) 
autodockgpu

>  <m_score__min__energy>  (71) 
-9.2699999999999996

>  <m_primary>  (71) 
energy

>  <rmsd>  (71) 
8.764642578025448

>  <m_score__min__rmsd>  (71) 
8.764642578025448

>  <meeko>  (71) 
{"free_energy": -7.65, "intermolecular_energy": -9.74, "internal_energy": -2.38, "cluster_size": 8, "cluster_id": 4, "rank_in_cluster": 5}

>  <energy>  (71) 
-8.16

>  <cluster_rmsd>  (71) 
1.2

>  <cluster>  (71) 
1

$$$$

     RDKit          3D

 64 67  0  0  0  0  0  0  0  0999 V2000
  134.3670   69.2920  225.6760 C   0  0  0  0  0  0  0  0  0  0  0  0
  135.4750   70.2720  225.3530 C   0  0  0  0  0  0  0  0  0  0  0  0
  136.5310   69.5420  224.6160 C   0  0  0  0  0  0  0  0  0  0  0  0
  136.1630   68.5070  223.9800 O   0  0  0  0  0  0  0  0  0  0  0  0
  137.8690   70.0030  224.6410 N   0  0  0  0  0  0  0  0  0  0  0  0
  138.7780   69.4630  225.6250 C   0  0  0  0  0  0  0  0  0  0  0  0
  138.7770   68.0770  225.7190 C   0  0  0  0  0  0  0  0  0  0  0  0
  139.6090   67.4510  226.6280 C   0  0  0  0  0  0  0  0  0  0  0  0
  140.4310   68.2520  227.4270 C   0  0  0  0  0  0  0  0  0  0  0  0
  140.4190   69.6280  227.3190 C   0  0  0  0  0  0  0  0  0  0  0  0
  139.5780   70.2660  226.4010 C   0  0  0  0  0  0  0  0  0  0  0  0
  138.3880   70.9990  223.7280 C   0  0  0  0  0  0  0  0  0  0  0  0
  139.5560   70.3490  222.9840 C   0  0  0  0  0  0  0  0  0  0  0  0
  140.3090   71.4000  222.2210 C   0  0  0  0  0  0  0  0  0  0  0  0
  139.3970   72.4690  221.8620 N   0  0  0  0  0  0  0  0  0  0  0  0
  140.0240   73.7550  221.6920 C   0  0  0  0  0  0  0  0  0  0  0  0
  141.2760   73.7750  221.9250 O   0  0  0  0  0  0  0  0  0  0  0  0
  139.3150   74.9780  221.2850 C   0  0  1  0  0  0  0  0  0  0  0  0
  138.4620   75.4780  222.3620 N   0  0  0  0  0  0  0  0  0  0  0  0
  140.3530   76.0170  220.9190 C   0  0  1  0  0  0  0  0  0  0  0  0
  139.6470   77.0060  219.9960 C   0  0  0  0  0  0  0  0  0  0  0  0
  140.7770   77.8660  219.4100 C   0  0  0  0  0  0  0  0  0  0  0  0
  141.2060   78.6900  220.5880 C   0  0  0  0  0  0  0  0  0  0  0  0
  141.5140   80.0430  220.4070 C   0  0  0  0  0  0  0  0  0  0  0  0
  141.9120   80.8090  221.5010 C   0  0  0  0  0  0  0  0  0  0  0  0
  141.9950   80.2110  222.7520 C   0  0  0  0  0  0  0  0  0  0  0  0
  142.5430   81.2920  224.2260 Br  0  0  0  0  0  0  0  0  0  0  0  0
  141.6820   78.8700  222.8930 C   0  0  0  0  0  0  0  0  0  0  0  0
  141.2840   78.0860  221.8190 C   0  0  0  0  0  0  0  0  0  0  0  0
  140.9770   76.6700  222.0940 C   0  0  0  0  0  0  0  0  0  0  0  0
  137.9700   72.2970  221.6900 C   0  0  0  0  0  0  0  0  0  0  0  0
  137.3240   71.4280  222.7340 C   0  0  0  0  0  0  0  0  0  0  0  0
  134.2644   69.2012  226.7674 H   0  0  0  0  0  0  0  0  0  0  0  0
  133.4208   69.6541  225.2476 H   0  0  0  0  0  0  0  0  0  0  0  0
  134.6108   68.3086  225.2476 H   0  0  0  0  0  0  0  0  0  0  0  0
  135.0813   71.0885  224.7298 H   0  0  0  0  0  0  0  0  0  0  0  0
  135.8840   70.7047  226.2779 H   0  0  0  0  0  0  0  0  0  0  0  0
  138.1167   67.4801  225.0726 H   0  0  0  0  0  0  0  0  0  0  0  0
  139.6241   66.3550  226.7203 H   0  0  0  0  0  0  0  0  0  0  0  0
  141.1015   67.7753  228.1572 H   0  0  0  0  0  0  0  0  0  0  0  0
  141.0782   70.2297  227.9620 H   0  0  0  0  0  0  0  0  0  0  0  0
  139.5582   71.3616  226.3049 H   0  0  0  0  0  0  0  0  0  0  0  0
  138.7076   71.8957  224.2791 H   0  0  0  0  0  0  0  0  0  0  0  0
  140.2299   69.8678  223.7081 H   0  0  0  0  0  0  0  0  0  0  0  0
  139.1703   69.5930  222.2842 H   0  0  0  0  0  0  0  0  0  0  0  0
  141.1188   71.8014  222.8479 H   0  0  0  0  0  0  0  0  0  0  0  0
  140.7411   70.9594  221.3104 H   0  0  0  0  0  0  0  0  0  0  0  0
  138.6642   74.7585  220.4258 H   0  0  0  0  0  0  0  0  0  0  0  0
  137.5220   75.0450  222.1910 H   0  0  0  0  0  0  0  0  0  0  0  0
  138.7690   75.1630  223.2850 H   0  0  0  0  0  0  0  0  0  0  0  0
  141.2081   75.5441  220.4138 H   0  0  0  0  0  0  0  0  0  0  0  0
  139.1092   76.4749  219.1968 H   0  0  0  0  0  0  0  0  0  0  0  0
  138.8971   77.6098  220.5280 H   0  0  0  0  0  0  0  0  0  0  0  0
  141.6028   77.2394  219.0419 H   0  0  0  0  0  0  0  0  0  0  0  0
  140.4640   78.4692  218.5450 H   0  0  0  0  0  0  0  0  0  0  0  0
  141.4425   80.4986  219.4084 H   0  0  0  0  0  0  0  0  0  0  0  0
  142.1574   81.8739  221.3755 H   0  0  0  0  0  0  0  0  0  0  0  0
  141.7510   78.4102  223.8899 H   0  0  0  0  0  0  0  0  0  0  0  0
  141.9097   76.1430  222.3437 H   0  0  0  0  0  0  0  0  0  0  0  0
  140.2681   76.6249  222.9339 H   0  0  0  0  0  0  0  0  0  0  0  0
  137.4961   73.2891  221.7254 H   0  0  0  0  0  0  0  0  0  0  0  0
  137.8266   71.7907  220.7240 H   0  0  0  0  0  0  0  0  0  0  0  0
  136.5374   71.9947  223.2537 H   0  0  0  0  0  0  0  0  0  0  0  0
  136.8709   70.5441  222.2614 H   0  0  0  0  0  0  0  0  0  0  0  0
  1  2  1  0
  2  3  1  0
  3  4  2  0
  3  5  1  0
  5  6  1  0
  6  7  2  0
  7  8  1  0
  8  9  2  0
  9 10  1  0
 10 11  2  0
  5 12  1  0
 12 13  1  0
 13 14  1  0
 14 15  1  0
 15 16  1  0
 16 17  2  0
 16 18  1  0
 18 19  1  0
 18 20  1  0
 20 21  1  0
 21 22  1  0
 22 23  1  0
 23 24  2  0
 24 25  1  0
 25 26  2  0
 26 27  1  0
 26 28  1  0
 28 29  2  0
 29 30  1  0
 15 31  1  0
 31 32  1  0
 11  6  1  0
 32 12  1  0
 30 20  1  0
 29 23  1  0
  1 33  1  0
  1 34  1  0
  1 35  1  0
  2 36  1  0
  2 37  1  0
  7 38  1  0
  8 39  1  0
  9 40  1  0
 10 41  1  0
 11 42  1  0
 12 43  1  0
 13 44  1  0
 13 45  1  0
 14 46  1  0
 14 47  1  0
 18 48  1  6
 19 49  1  0
 19 50  1  0
 20 51  1  6
 21 52  1  0
 21 53  1  0
 22 54  1  0
 22 55  1  0
 24 56  1  0
 25 57  1  0
 28 58  1  0
 30 59  1  0
 30 60  1  0
 31 61  1  0
 31 62  1  0
 32 63  1  0
 32 64  1  0
M  END
>  <smiles>  (72) 
CCC(=O)N(c1ccccc1)C1CCN(C(=O)[C@@H](N)C2CCc3ccc(Br)cc3C2)CC1

>  <score_type>  (72) 
oracle

>  <origin>  (72) 
autodockgpu

>  <m_score__min__energy>  (72) 
-9.2699999999999996

>  <m_primary>  (72) 
energy

>  <rmsd>  (72) 
6.426329116281063

>  <m_score__min__rmsd>  (72) 
6.426329116281063

>  <meeko>  (72) 
{"free_energy": -8.53, "intermolecular_energy": -10.62, "internal_energy": -1.6, "cluster_size": 21, "cluster_id": 1, "rank_in_cluster": 11}

>  <energy>  (72) 
-8.25

>  <cluster_rmsd>  (72) 
0.0

>  <cluster>  (72) 
2

$$$$

     RDKit          3D

 64 67  0  0  0  0  0  0  0  0999 V2000
  135.9290   71.6310  223.9130 C   0  0  0  0  0  0  0  0  0  0  0  0
  137.1830   71.7330  223.0690 C   0  0  0  0  0  0  0  0  0  0  0  0
  138.0310   70.5570  223.3650 C   0  0  0  0  0  0  0  0  0  0  0  0
  137.4630   69.4240  223.3070 O   0  0  0  0  0  0  0  0  0  0  0  0
  139.3980   70.7260  223.6910 N   0  0  0  0  0  0  0  0  0  0  0  0
  139.8300   70.4870  225.0490 C   0  0  0  0  0  0  0  0  0  0  0  0
  139.6820   69.1750  225.4840 C   0  0  0  0  0  0  0  0  0  0  0  0
  140.0630   68.8320  226.7670 C   0  0  0  0  0  0  0  0  0  0  0  0
  140.5900   69.8340  227.5870 C   0  0  0  0  0  0  0  0  0  0  0  0
  140.7290   71.1320  227.1380 C   0  0  0  0  0  0  0  0  0  0  0  0
  140.3440   71.4840  225.8400 C   0  0  0  0  0  0  0  0  0  0  0  0
  140.4030   71.1300  222.7330 C   0  0  0  0  0  0  0  0  0  0  0  0
  139.9350   70.6320  221.3640 C   0  0  0  0  0  0  0  0  0  0  0  0
  141.0500   70.7780  220.3710 C   0  0  0  0  0  0  0  0  0  0  0  0
  141.8970   71.8870  220.7680 N   0  0  0  0  0  0  0  0  0  0  0  0
  143.2630   71.7830  220.3210 C   0  0  0  0  0  0  0  0  0  0  0  0
  143.5380   70.7160  219.6820 O   0  0  0  0  0  0  0  0  0  0  0  0
  144.2940   72.8040  220.5600 C   0  0  1  0  0  0  0  0  0  0  0  0
  145.6360   72.2290  220.4740 N   0  0  0  0  0  0  0  0  0  0  0  0
  144.1260   73.8880  219.5170 C   0  0  1  0  0  0  0  0  0  0  0  0
  142.9770   73.4340  218.6230 C   0  0  0  0  0  0  0  0  0  0  0  0
  143.0210   74.3850  217.4170 C   0  0  0  0  0  0  0  0  0  0  0  0
  142.5500   75.6820  218.0070 C   0  0  0  0  0  0  0  0  0  0  0  0
  141.6790   76.4950  217.2740 C   0  0  0  0  0  0  0  0  0  0  0  0
  141.2400   77.7000  217.8210 C   0  0  0  0  0  0  0  0  0  0  0  0
  141.6800   78.0680  219.0860 C   0  0  0  0  0  0  0  0  0  0  0  0
  141.0590   79.7250  219.8020 Br  0  0  0  0  0  0  0  0  0  0  0  0
  142.5430   77.2380  219.7810 C   0  0  0  0  0  0  0  0  0  0  0  0
  142.9930   76.0340  219.2580 C   0  0  0  0  0  0  0  0  0  0  0  0
  143.9100   75.2360  220.0930 C   0  0  0  0  0  0  0  0  0  0  0  0
  141.4440   73.0130  221.5560 C   0  0  0  0  0  0  0  0  0  0  0  0
  140.5480   72.6410  222.7040 C   0  0  0  0  0  0  0  0  0  0  0  0
  136.2014   71.6532  224.9785 H   0  0  0  0  0  0  0  0  0  0  0  0
  135.2648   72.4781  223.6866 H   0  0  0  0  0  0  0  0  0  0  0  0
  135.4104   70.6877  223.6866 H   0  0  0  0  0  0  0  0  0  0  0  0
  136.9152   71.7409  222.0021 H   0  0  0  0  0  0  0  0  0  0  0  0
  137.7244   72.6622  223.3003 H   0  0  0  0  0  0  0  0  0  0  0  0
  139.2634   68.4133  224.8097 H   0  0  0  0  0  0  0  0  0  0  0  0
  139.9548   67.8002  227.1327 H   0  0  0  0  0  0  0  0  0  0  0  0
  140.9006   69.5828  228.6119 H   0  0  0  0  0  0  0  0  0  0  0  0
  141.1470   71.8977  227.8081 H   0  0  0  0  0  0  0  0  0  0  0  0
  140.4486   72.5145  225.4696 H   0  0  0  0  0  0  0  0  0  0  0  0
  141.3818   70.7079  223.0047 H   0  0  0  0  0  0  0  0  0  0  0  0
  139.6462   69.5732  221.4380 H   0  0  0  0  0  0  0  0  0  0  0  0
  139.0698   71.2257  221.0339 H   0  0  0  0  0  0  0  0  0  0  0  0
  141.6435   69.8522  220.3448 H   0  0  0  0  0  0  0  0  0  0  0  0
  140.6332   70.9694  219.3712 H   0  0  0  0  0  0  0  0  0  0  0  0
  144.1766   73.2170  221.5727 H   0  0  0  0  0  0  0  0  0  0  0  0
  146.0110   72.2600  221.4520 H   0  0  0  0  0  0  0  0  0  0  0  0
  145.6260   71.2470  220.1910 H   0  0  0  0  0  0  0  0  0  0  0  0
  145.0536   74.0105  218.9385 H   0  0  0  0  0  0  0  0  0  0  0  0
  143.1243   72.3925  218.3011 H   0  0  0  0  0  0  0  0  0  0  0  0
  142.0080   73.4659  219.1427 H   0  0  0  0  0  0  0  0  0  0  0  0
  144.0429   74.4768  217.0205 H   0  0  0  0  0  0  0  0  0  0  0  0
  142.4115   74.0434  216.5674 H   0  0  0  0  0  0  0  0  0  0  0  0
  141.3429   76.1858  216.2733 H   0  0  0  0  0  0  0  0  0  0  0  0
  140.5544   78.3505  217.2583 H   0  0  0  0  0  0  0  0  0  0  0  0
  142.8834   77.5432  220.7815 H   0  0  0  0  0  0  0  0  0  0  0  0
  144.8770   75.7559  220.1610 H   0  0  0  0  0  0  0  0  0  0  0  0
  143.4600   75.1199  221.0900 H   0  0  0  0  0  0  0  0  0  0  0  0
  142.3274   73.5284  221.9609 H   0  0  0  0  0  0  0  0  0  0  0  0
  140.8495   73.6499  220.8845 H   0  0  0  0  0  0  0  0  0  0  0  0
  140.9914   72.9893  223.6485 H   0  0  0  0  0  0  0  0  0  0  0  0
  139.5616   73.1116  222.5796 H   0  0  0  0  0  0  0  0  0  0  0  0
  1  2  1  0
  2  3  1  0
  3  4  2  0
  3  5  1  0
  5  6  1  0
  6  7  2  0
  7  8  1  0
  8  9  2  0
  9 10  1  0
 10 11  2  0
  5 12  1  0
 12 13  1  0
 13 14  1  0
 14 15  1  0
 15 16  1  0
 16 17  2  0
 16 18  1  0
 18 19  1  0
 18 20  1  0
 20 21  1  0
 21 22  1  0
 22 23  1  0
 23 24  2  0
 24 25  1  0
 25 26  2  0
 26 27  1  0
 26 28  1  0
 28 29  2  0
 29 30  1  0
 15 31  1  0
 31 32  1  0
 11  6  1  0
 32 12  1  0
 30 20  1  0
 29 23  1  0
  1 33  1  0
  1 34  1  0
  1 35  1  0
  2 36  1  0
  2 37  1  0
  7 38  1  0
  8 39  1  0
  9 40  1  0
 10 41  1  0
 11 42  1  0
 12 43  1  0
 13 44  1  0
 13 45  1  0
 14 46  1  0
 14 47  1  0
 18 48  1  1
 19 49  1  0
 19 50  1  0
 20 51  1  6
 21 52  1  0
 21 53  1  0
 22 54  1  0
 22 55  1  0
 24 56  1  0
 25 57  1  0
 28 58  1  0
 30 59  1  0
 30 60  1  0
 31 61  1  0
 31 62  1  0
 32 63  1  0
 32 64  1  0
M  END
>  <smiles>  (73) 
CCC(=O)N(c1ccccc1)C1CCN(C(=O)[C@@H](N)C2CCc3ccc(Br)cc3C2)CC1

>  <score_type>  (73) 
oracle

>  <origin>  (73) 
autodockgpu

>  <m_score__min__energy>  (73) 
-9.2699999999999996

>  <m_primary>  (73) 
energy

>  <rmsd>  (73) 
6.940449121100818

>  <m_score__min__rmsd>  (73) 
6.940449121100818

>  <meeko>  (73) 
{"free_energy": -7.15, "intermolecular_energy": -9.23, "internal_energy": -2.36, "cluster_size": 5, "cluster_id": 7, "rank_in_cluster": 3}

>  <energy>  (73) 
-8.09

>  <cluster_rmsd>  (73) 
0.0

>  <cluster>  (73) 
3

$$$$

     RDKit          3D

 64 67  0  0  0  0  0  0  0  0999 V2000
  136.3380   69.2850  224.9330 C   0  0  0  0  0  0  0  0  0  0  0  0
  137.3250   68.7300  223.9270 C   0  0  0  0  0  0  0  0  0  0  0  0
  138.6720   68.7690  224.5390 C   0  0  0  0  0  0  0  0  0  0  0  0
  139.1870   67.6500  224.8430 O   0  0  0  0  0  0  0  0  0  0  0  0
  139.3210   70.0080  224.7580 N   0  0  0  0  0  0  0  0  0  0  0  0
  139.9010   70.2770  226.0530 C   0  0  0  0  0  0  0  0  0  0  0  0
  140.6200   71.4640  226.1340 C   0  0  0  0  0  0  0  0  0  0  0  0
  141.2190   71.8220  227.3260 C   0  0  0  0  0  0  0  0  0  0  0  0
  141.0750   70.9620  228.4200 C   0  0  0  0  0  0  0  0  0  0  0  0
  140.3570   69.7870  228.3210 C   0  0  0  0  0  0  0  0  0  0  0  0
  139.7490   69.4200  227.1150 C   0  0  0  0  0  0  0  0  0  0  0  0
  139.4380   71.0370  223.7480 C   0  0  0  0  0  0  0  0  0  0  0  0
  140.1020   70.3880  222.5320 C   0  0  0  0  0  0  0  0  0  0  0  0
  140.4990   71.4530  221.5520 C   0  0  0  0  0  0  0  0  0  0  0  0
  139.5960   72.5810  221.6850 N   0  0  0  0  0  0  0  0  0  0  0  0
  140.1640   73.8480  221.2990 C   0  0  0  0  0  0  0  0  0  0  0  0
  141.3850   73.8000  220.9410 O   0  0  0  0  0  0  0  0  0  0  0  0
  139.4300   75.1220  221.3030 C   0  0  1  0  0  0  0  0  0  0  0  0
  138.8730   75.4070  222.6250 N   0  0  0  0  0  0  0  0  0  0  0  0
  140.3950   76.2160  220.9000 C   0  0  1  0  0  0  0  0  0  0  0  0
  139.5900   77.1900  220.0450 C   0  0  0  0  0  0  0  0  0  0  0  0
  140.6420   78.1130  219.4110 C   0  0  0  0  0  0  0  0  0  0  0  0
  141.1050   78.9320  220.5800 C   0  0  0  0  0  0  0  0  0  0  0  0
  141.3410   80.3010  220.4120 C   0  0  0  0  0  0  0  0  0  0  0  0
  141.7710   81.0620  221.4980 C   0  0  0  0  0  0  0  0  0  0  0  0
  141.9570   80.4430  222.7270 C   0  0  0  0  0  0  0  0  0  0  0  0
  142.5470   81.5170  224.1890 Br  0  0  0  0  0  0  0  0  0  0  0  0
  141.7150   79.0860  222.8550 C   0  0  0  0  0  0  0  0  0  0  0  0
  141.2860   78.3070  221.7900 C   0  0  0  0  0  0  0  0  0  0  0  0
  141.0610   76.8730  222.0490 C   0  0  0  0  0  0  0  0  0  0  0  0
  138.2360   72.4800  222.1710 C   0  0  0  0  0  0  0  0  0  0  0  0
  138.0720   71.5740  223.3590 C   0  0  0  0  0  0  0  0  0  0  0  0
  136.6995   69.0817  225.9518 H   0  0  0  0  0  0  0  0  0  0  0  0
  136.2391   70.3710  224.7889 H   0  0  0  0  0  0  0  0  0  0  0  0
  135.3587   68.8053  224.7889 H   0  0  0  0  0  0  0  0  0  0  0  0
  137.0588   67.6926  223.6760 H   0  0  0  0  0  0  0  0  0  0  0  0
  137.3070   69.3280  223.0039 H   0  0  0  0  0  0  0  0  0  0  0  0
  140.7115   72.1155  225.2524 H   0  0  0  0  0  0  0  0  0  0  0  0
  141.7928   72.7565  227.4126 H   0  0  0  0  0  0  0  0  0  0  0  0
  141.5436   71.2275  229.3791 H   0  0  0  0  0  0  0  0  0  0  0  0
  140.2617   69.1321  229.1996 H   0  0  0  0  0  0  0  0  0  0  0  0
  139.1748   68.4864  227.0220 H   0  0  0  0  0  0  0  0  0  0  0  0
  140.0291   71.8826  224.1296 H   0  0  0  0  0  0  0  0  0  0  0  0
  140.9962   69.8343  222.8543 H   0  0  0  0  0  0  0  0  0  0  0  0
  139.3944   69.6946  222.0539 H   0  0  0  0  0  0  0  0  0  0  0  0
  141.5288   71.7791  221.7595 H   0  0  0  0  0  0  0  0  0  0  0  0
  140.4448   71.0536  220.5285 H   0  0  0  0  0  0  0  0  0  0  0  0
  138.5888   75.0650  220.5965 H   0  0  0  0  0  0  0  0  0  0  0  0
  138.0290   74.7900  222.7060 H   0  0  0  0  0  0  0  0  0  0  0  0
  139.5060   75.1430  223.3830 H   0  0  0  0  0  0  0  0  0  0  0  0
  141.2377   75.7934  220.3333 H   0  0  0  0  0  0  0  0  0  0  0  0
  139.0279   76.6512  219.2681 H   0  0  0  0  0  0  0  0  0  0  0  0
  138.8484   77.7478  220.6356 H   0  0  0  0  0  0  0  0  0  0  0  0
  141.4709   77.5329  218.9793 H   0  0  0  0  0  0  0  0  0  0  0  0
  140.2498   78.7182  218.5804 H   0  0  0  0  0  0  0  0  0  0  0  0
  141.1884   80.7732  219.4303 H   0  0  0  0  0  0  0  0  0  0  0  0
  141.9606   82.1394  221.3828 H   0  0  0  0  0  0  0  0  0  0  0  0
  141.8680   78.6091  223.8344 H   0  0  0  0  0  0  0  0  0  0  0  0
  142.0304   76.3849  222.2282 H   0  0  0  0  0  0  0  0  0  0  0  0
  140.4084   76.7776  222.9293 H   0  0  0  0  0  0  0  0  0  0  0  0
  137.8956   73.4866  222.4553 H   0  0  0  0  0  0  0  0  0  0  0  0
  137.6406   72.0432  221.3557 H   0  0  0  0  0  0  0  0  0  0  0  0
  137.6422   72.1385  224.1996 H   0  0  0  0  0  0  0  0  0  0  0  0
  137.3976   70.7420  223.1081 H   0  0  0  0  0  0  0  0  0  0  0  0
  1  2  1  0
  2  3  1  0
  3  4  2  0
  3  5  1  0
  5  6  1  0
  6  7  2  0
  7  8  1  0
  8  9  2  0
  9 10  1  0
 10 11  2  0
  5 12  1  0
 12 13  1  0
 13 14  1  0
 14 15  1  0
 15 16  1  0
 16 17  2  0
 16 18  1  0
 18 19  1  0
 18 20  1  0
 20 21  1  0
 21 22  1  0
 22 23  1  0
 23 24  2  0
 24 25  1  0
 25 26  2  0
 26 27  1  0
 26 28  1  0
 28 29  2  0
 29 30  1  0
 15 31  1  0
 31 32  1  0
 11  6  1  0
 32 12  1  0
 30 20  1  0
 29 23  1  0
  1 33  1  0
  1 34  1  0
  1 35  1  0
  2 36  1  0
  2 37  1  0
  7 38  1  0
  8 39  1  0
  9 40  1  0
 10 41  1  0
 11 42  1  0
 12 43  1  0
 13 44  1  0
 13 45  1  0
 14 46  1  0
 14 47  1  0
 18 48  1  6
 19 49  1  0
 19 50  1  0
 20 51  1  6
 21 52  1  0
 21 53  1  0
 22 54  1  0
 22 55  1  0
 24 56  1  0
 25 57  1  0
 28 58  1  0
 30 59  1  0
 30 60  1  0
 31 61  1  0
 31 62  1  0
 32 63  1  0
 32 64  1  0
M  END
>  <smiles>  (74) 
CCC(=O)N(c1ccccc1)C1CCN(C(=O)[C@@H](N)C2CCc3ccc(Br)cc3C2)CC1

>  <score_type>  (74) 
oracle

>  <origin>  (74) 
autodockgpu

>  <m_score__min__energy>  (74) 
-9.2699999999999996

>  <m_primary>  (74) 
energy

>  <rmsd>  (74) 
6.165571483067472

>  <m_score__min__rmsd>  (74) 
6.165571483067472

>  <meeko>  (74) 
{"free_energy": -9.27, "intermolecular_energy": -11.36, "internal_energy": -1.45, "cluster_size": 21, "cluster_id": 1, "rank_in_cluster": 1}

>  <energy>  (74) 
-7.93

>  <cluster_rmsd>  (74) 
0.0

>  <cluster>  (74) 
4

$$$$

     RDKit          3D

 64 67  0  0  0  0  0  0  0  0999 V2000
  142.8610   76.8020  218.1230 C   0  0  0  0  0  0  0  0  0  0  0  0
  142.9640   76.6830  219.6290 C   0  0  0  0  0  0  0  0  0  0  0  0
  142.0250   75.6270  220.0690 C   0  0  0  0  0  0  0  0  0  0  0  0
  140.8610   76.0090  220.3980 O   0  0  0  0  0  0  0  0  0  0  0  0
  142.4380   74.2740  220.1070 N   0  0  0  0  0  0  0  0  0  0  0  0
  143.8310   73.9600  219.8900 C   0  0  0  0  0  0  0  0  0  0  0  0
  144.6130   73.9580  221.0380 C   0  0  0  0  0  0  0  0  0  0  0  0
  145.9620   73.6710  220.9490 C   0  0  0  0  0  0  0  0  0  0  0  0
  146.4920   73.3890  219.6860 C   0  0  0  0  0  0  0  0  0  0  0  0
  145.7000   73.3950  218.5560 C   0  0  0  0  0  0  0  0  0  0  0  0
  144.3340   73.6860  218.6420 C   0  0  0  0  0  0  0  0  0  0  0  0
  141.5360   73.1690  220.3520 C   0  0  0  0  0  0  0  0  0  0  0  0
  142.3520   71.8860  220.1840 C   0  0  0  0  0  0  0  0  0  0  0  0
  141.4260   70.7050  220.1570 C   0  0  0  0  0  0  0  0  0  0  0  0
  140.2420   71.0140  220.9370 N   0  0  0  0  0  0  0  0  0  0  0  0
  139.0600   70.2960  220.5340 C   0  0  0  0  0  0  0  0  0  0  0  0
  139.2150   69.5310  219.5270 O   0  0  0  0  0  0  0  0  0  0  0  0
  137.7540   70.4060  221.2020 C   0  0  1  0  0  0  0  0  0  0  0  0
  136.7020   69.7610  220.4160 N   0  0  0  0  0  0  0  0  0  0  0  0
  137.8680   69.7440  222.5580 C   0  0  1  0  0  0  0  0  0  0  0  0
  138.9370   68.6670  222.4090 C   0  0  0  0  0  0  0  0  0  0  0  0
  138.8240   67.8250  223.6900 C   0  0  0  0  0  0  0  0  0  0  0  0
  139.3660   68.7520  224.7380 C   0  0  0  0  0  0  0  0  0  0  0  0
  140.1980   68.2450  225.7420 C   0  0  0  0  0  0  0  0  0  0  0  0
  140.7020   69.1050  226.7160 C   0  0  0  0  0  0  0  0  0  0  0  0
  140.3650   70.4510  226.6700 C   0  0  0  0  0  0  0  0  0  0  0  0
  141.0740   71.5980  228.0200 Br  0  0  0  0  0  0  0  0  0  0  0  0
  139.5390   70.9180  225.6610 C   0  0  0  0  0  0  0  0  0  0  0  0
  139.0250   70.0810  224.6810 C   0  0  0  0  0  0  0  0  0  0  0  0
  138.1550   70.6940  223.6590 C   0  0  0  0  0  0  0  0  0  0  0  0
  140.2130   71.9640  222.0290 C   0  0  0  0  0  0  0  0  0  0  0  0
  140.9710   73.2340  221.7600 C   0  0  0  0  0  0  0  0  0  0  0  0
  142.1610   77.6107  217.8661 H   0  0  0  0  0  0  0  0  0  0  0  0
  143.8527   77.0287  217.7044 H   0  0  0  0  0  0  0  0  0  0  0  0
  142.4945   75.8531  217.7044 H   0  0  0  0  0  0  0  0  0  0  0  0
  143.9914   76.4110  219.9127 H   0  0  0  0  0  0  0  0  0  0  0  0
  142.7125   77.6415  220.1064 H   0  0  0  0  0  0  0  0  0  0  0  0
  144.1601   74.1841  222.0146 H   0  0  0  0  0  0  0  0  0  0  0  0
  146.5999   73.6646  221.8451 H   0  0  0  0  0  0  0  0  0  0  0  0
  147.5632   73.1574  219.5913 H   0  0  0  0  0  0  0  0  0  0  0  0
  146.1474   73.1685  217.5769 H   0  0  0  0  0  0  0  0  0  0  0  0
  143.6914   73.6949  217.7492 H   0  0  0  0  0  0  0  0  0  0  0  0
  140.6884   73.2040  219.6518 H   0  0  0  0  0  0  0  0  0  0  0  0
  142.9165   71.9312  219.2410 H   0  0  0  0  0  0  0  0  0  0  0  0
  143.0527   71.7838  221.0258 H   0  0  0  0  0  0  0  0  0  0  0  0
  141.1367   70.4871  219.1183 H   0  0  0  0  0  0  0  0  0  0  0  0
  141.9324   69.8263  220.5831 H   0  0  0  0  0  0  0  0  0  0  0  0
  137.4824   71.4666  221.3080 H   0  0  0  0  0  0  0  0  0  0  0  0
  137.0640   69.7480  219.4320 H   0  0  0  0  0  0  0  0  0  0  0  0
  136.5500   68.7870  220.6880 H   0  0  0  0  0  0  0  0  0  0  0  0
  136.9032   69.3060  222.8535 H   0  0  0  0  0  0  0  0  0  0  0  0
  138.7434   68.0487  221.5201 H   0  0  0  0  0  0  0  0  0  0  0  0
  139.9424   69.0938  222.2789 H   0  0  0  0  0  0  0  0  0  0  0  0
  137.7776   67.5576  223.8988 H   0  0  0  0  0  0  0  0  0  0  0  0
  139.3607   66.8665  223.6330 H   0  0  0  0  0  0  0  0  0  0  0  0
  140.4526   67.1751  225.7625 H   0  0  0  0  0  0  0  0  0  0  0  0
  141.3585   68.7221  227.5112 H   0  0  0  0  0  0  0  0  0  0  0  0
  139.2821   71.9873  225.6358 H   0  0  0  0  0  0  0  0  0  0  0  0
  137.2071   70.9953  224.1289 H   0  0  0  0  0  0  0  0  0  0  0  0
  138.6748   71.5674  223.2382 H   0  0  0  0  0  0  0  0  0  0  0  0
  139.1638   72.2247  222.2319 H   0  0  0  0  0  0  0  0  0  0  0  0
  140.7040   71.4776  222.8848 H   0  0  0  0  0  0  0  0  0  0  0  0
  140.2937   74.0962  221.8485 H   0  0  0  0  0  0  0  0  0  0  0  0
  141.7872   73.3473  222.4887 H   0  0  0  0  0  0  0  0  0  0  0  0
  1  2  1  0
  2  3  1  0
  3  4  2  0
  3  5  1  0
  5  6  1  0
  6  7  2  0
  7  8  1  0
  8  9  2  0
  9 10  1  0
 10 11  2  0
  5 12  1  0
 12 13  1  0
 13 14  1  0
 14 15  1  0
 15 16  1  0
 16 17  2  0
 16 18  1  0
 18 19  1  0
 18 20  1  0
 20 21  1  0
 21 22  1  0
 22 23  1  0
 23 24  2  0
 24 25  1  0
 25 26  2  0
 26 27  1  0
 26 28  1  0
 28 29  2  0
 29 30  1  0
 15 31  1  0
 31 32  1  0
 11  6  1  0
 32 12  1  0
 30 20  1  0
 29 23  1  0
  1 33  1  0
  1 34  1  0
  1 35  1  0
  2 36  1  0
  2 37  1  0
  7 38  1  0
  8 39  1  0
  9 40  1  0
 10 41  1  0
 11 42  1  0
 12 43  1  0
 13 44  1  0
 13 45  1  0
 14 46  1  0
 14 47  1  0
 18 48  1  1
 19 49  1  0
 19 50  1  0
 20 51  1  1
 21 52  1  0
 21 53  1  0
 22 54  1  0
 22 55  1  0
 24 56  1  0
 25 57  1  0
 28 58  1  0
 30 59  1  0
 30 60  1  0
 31 61  1  0
 31 62  1  0
 32 63  1  0
 32 64  1  0
M  END
>  <smiles>  (75) 
CCC(=O)N(c1ccccc1)C1CCN(C(=O)[C@@H](N)C2CCc3ccc(Br)cc3C2)CC1

>  <score_type>  (75) 
oracle

>  <origin>  (75) 
autodockgpu

>  <m_score__min__energy>  (75) 
-9.2699999999999996

>  <m_primary>  (75) 
energy

>  <rmsd>  (75) 
9.078187021890601

>  <m_score__min__rmsd>  (75) 
9.078187021890601

>  <meeko>  (75) 
{"free_energy": -6.75, "intermolecular_energy": -8.84, "internal_energy": -2.44, "cluster_size": 2, "cluster_id": 11, "rank_in_cluster": 1}

>  <energy>  (75) 
-7.89

>  <cluster_rmsd>  (75) 
0.1

>  <cluster>  (75) 
4

$$$$

     RDKit          3D

 64 67  0  0  0  0  0  0  0  0999 V2000
  138.0900   67.6870  222.4870 C   0  0  0  0  0  0  0  0  0  0  0  0
  138.8130   67.7880  223.8140 C   0  0  0  0  0  0  0  0  0  0  0  0
  138.2900   68.9740  224.5290 C   0  0  0  0  0  0  0  0  0  0  0  0
  137.1130   68.8800  224.9920 O   0  0  0  0  0  0  0  0  0  0  0  0
  139.0910   70.1330  224.6700 N   0  0  0  0  0  0  0  0  0  0  0  0
  139.7840   70.3590  225.9170 C   0  0  0  0  0  0  0  0  0  0  0  0
  139.6990   69.3130  226.8280 C   0  0  0  0  0  0  0  0  0  0  0  0
  140.3260   69.4200  228.0550 C   0  0  0  0  0  0  0  0  0  0  0  0
  141.0300   70.5960  228.3340 C   0  0  0  0  0  0  0  0  0  0  0  0
  141.1030   71.6250  227.4160 C   0  0  0  0  0  0  0  0  0  0  0  0
  140.4700   71.5210  226.1730 C   0  0  0  0  0  0  0  0  0  0  0  0
  139.2580   71.1200  223.6250 C   0  0  0  0  0  0  0  0  0  0  0  0
  139.9590   70.4160  222.4610 C   0  0  0  0  0  0  0  0  0  0  0  0
  140.4050   71.4370  221.4560 C   0  0  0  0  0  0  0  0  0  0  0  0
  139.5110   72.5780  221.5110 N   0  0  0  0  0  0  0  0  0  0  0  0
  140.1090   73.8230  221.0970 C   0  0  0  0  0  0  0  0  0  0  0  0
  141.3420   73.7480  220.7860 O   0  0  0  0  0  0  0  0  0  0  0  0
  139.3910   75.1040  221.0230 C   0  0  1  0  0  0  0  0  0  0  0  0
  138.7270   75.4120  222.2890 N   0  0  0  0  0  0  0  0  0  0  0  0
  140.3980   76.1830  220.6900 C   0  0  1  0  0  0  0  0  0  0  0  0
  139.6490   77.2080  219.8450 C   0  0  0  0  0  0  0  0  0  0  0  0
  140.7460   78.1230  219.2770 C   0  0  0  0  0  0  0  0  0  0  0  0
  141.1930   78.8870  220.4890 C   0  0  0  0  0  0  0  0  0  0  0  0
  141.4710   80.2540  220.3770 C   0  0  0  0  0  0  0  0  0  0  0  0
  141.8860   80.9650  221.5020 C   0  0  0  0  0  0  0  0  0  0  0  0
  142.0150   80.2980  222.7140 C   0  0  0  0  0  0  0  0  0  0  0  0
  142.5860   81.3040  224.2320 Br  0  0  0  0  0  0  0  0  0  0  0  0
  141.7310   78.9450  222.7860 C   0  0  0  0  0  0  0  0  0  0  0  0
  141.3160   78.2160  221.6810 C   0  0  0  0  0  0  0  0  0  0  0  0
  141.0440   76.7810  221.8820 C   0  0  0  0  0  0  0  0  0  0  0  0
  138.1330   72.5110  221.9480 C   0  0  0  0  0  0  0  0  0  0  0  0
  137.9140   71.6550  223.1640 C   0  0  0  0  0  0  0  0  0  0  0  0
  137.0150   67.5368  222.6656 H   0  0  0  0  0  0  0  0  0  0  0  0
  138.2407   68.6149  221.9158 H   0  0  0  0  0  0  0  0  0  0  0  0
  138.4892   66.8359  221.9158 H   0  0  0  0  0  0  0  0  0  0  0  0
  138.6292   66.8816  224.4095 H   0  0  0  0  0  0  0  0  0  0  0  0
  139.8968   67.8852  223.6530 H   0  0  0  0  0  0  0  0  0  0  0  0
  139.1350   68.4036  226.5735 H   0  0  0  0  0  0  0  0  0  0  0  0
  140.2729   68.6040  228.7908 H   0  0  0  0  0  0  0  0  0  0  0  0
  141.5360   70.7034  229.3048 H   0  0  0  0  0  0  0  0  0  0  0  0
  141.6654   72.5369  227.6651 H   0  0  0  0  0  0  0  0  0  0  0  0
  140.5194   72.3337  225.4334 H   0  0  0  0  0  0  0  0  0  0  0  0
  139.8446   71.9738  223.9949 H   0  0  0  0  0  0  0  0  0  0  0  0
  140.8338   69.8660  222.8381 H   0  0  0  0  0  0  0  0  0  0  0  0
  139.2614   69.7118  221.9841 H   0  0  0  0  0  0  0  0  0  0  0  0
  141.4301   71.7605  221.6894 H   0  0  0  0  0  0  0  0  0  0  0  0
  140.3848   70.9982  220.4475 H   0  0  0  0  0  0  0  0  0  0  0  0
  138.6122   75.0455  220.2484 H   0  0  0  0  0  0  0  0  0  0  0  0
  137.7070   75.4820  222.0550 H   0  0  0  0  0  0  0  0  0  0  0  0
  138.8220   74.6590  222.9760 H   0  0  0  0  0  0  0  0  0  0  0  0
  141.2469   75.7560  220.1359 H   0  0  0  0  0  0  0  0  0  0  0  0
  139.0981   76.7123  219.0321 H   0  0  0  0  0  0  0  0  0  0  0  0
  138.9043   77.7661  220.4315 H   0  0  0  0  0  0  0  0  0  0  0  0
  141.5723   77.5352  218.8507 H   0  0  0  0  0  0  0  0  0  0  0  0
  140.3975   78.7677  218.4567 H   0  0  0  0  0  0  0  0  0  0  0  0
  141.3628   80.7638  219.4083 H   0  0  0  0  0  0  0  0  0  0  0  0
  142.1084   82.0399  221.4311 H   0  0  0  0  0  0  0  0  0  0  0  0
  141.8380   78.4304  223.7523 H   0  0  0  0  0  0  0  0  0  0  0  0
  141.9935   76.2599  222.0742 H   0  0  0  0  0  0  0  0  0  0  0  0
  140.3609   76.6737  222.7375 H   0  0  0  0  0  0  0  0  0  0  0  0
  137.7941   73.5317  222.1789 H   0  0  0  0  0  0  0  0  0  0  0  0
  137.5633   72.0484  221.1286 H   0  0  0  0  0  0  0  0  0  0  0  0
  137.4599   72.2572  223.9647 H   0  0  0  0  0  0  0  0  0  0  0  0
  137.2395   70.8207  222.9211 H   0  0  0  0  0  0  0  0  0  0  0  0
  1  2  1  0
  2  3  1  0
  3  4  2  0
  3  5  1  0
  5  6  1  0
  6  7  2  0
  7  8  1  0
  8  9  2  0
  9 10  1  0
 10 11  2  0
  5 12  1  0
 12 13  1  0
 13 14  1  0
 14 15  1  0
 15 16  1  0
 16 17  2  0
 16 18  1  0
 18 19  1  0
 18 20  1  0
 20 21  1  0
 21 22  1  0
 22 23  1  0
 23 24  2  0
 24 25  1  0
 25 26  2  0
 26 27  1  0
 26 28  1  0
 28 29  2  0
 29 30  1  0
 15 31  1  0
 31 32  1  0
 11  6  1  0
 32 12  1  0
 30 20  1  0
 29 23  1  0
  1 33  1  0
  1 34  1  0
  1 35  1  0
  2 36  1  0
  2 37  1  0
  7 38  1  0
  8 39  1  0
  9 40  1  0
 10 41  1  0
 11 42  1  0
 12 43  1  0
 13 44  1  0
 13 45  1  0
 14 46  1  0
 14 47  1  0
 18 48  1  6
 19 49  1  0
 19 50  1  0
 20 51  1  6
 21 52  1  0
 21 53  1  0
 22 54  1  0
 22 55  1  0
 24 56  1  0
 25 57  1  0
 28 58  1  0
 30 59  1  0
 30 60  1  0
 31 61  1  0
 31 62  1  0
 32 63  1  0
 32 64  1  0
M  END
>  <smiles>  (76) 
CCC(=O)N(c1ccccc1)C1CCN(C(=O)[C@@H](N)C2CCc3ccc(Br)cc3C2)CC1

>  <score_type>  (76) 
oracle

>  <origin>  (76) 
autodockgpu

>  <m_score__min__energy>  (76) 
-9.2699999999999996

>  <m_primary>  (76) 
energy

>  <rmsd>  (76) 
6.148205555445464

>  <m_score__min__rmsd>  (76) 
6.148205555445464

>  <meeko>  (76) 
{"free_energy": -8.51, "intermolecular_energy": -10.6, "internal_energy": -1.55, "cluster_size": 21, "cluster_id": 1, "rank_in_cluster": 12}

>  <energy>  (76) 
-7.85

>  <cluster_rmsd>  (76) 
0.3

>  <cluster>  (76) 
4

$$$$

     RDKit          3D

 64 67  0  0  0  0  0  0  0  0999 V2000
  146.3260   73.0250  221.9030 C   0  0  0  0  0  0  0  0  0  0  0  0
  146.0120   74.0910  220.8740 C   0  0  0  0  0  0  0  0  0  0  0  0
  145.2820   73.4490  219.7580 C   0  0  0  0  0  0  0  0  0  0  0  0
  145.9440   72.6370  219.0430 O   0  0  0  0  0  0  0  0  0  0  0  0
  143.9160   73.7480  219.5320 N   0  0  0  0  0  0  0  0  0  0  0  0
  143.5660   75.0200  218.9450 C   0  0  0  0  0  0  0  0  0  0  0  0
  143.6580   75.0670  217.5590 C   0  0  0  0  0  0  0  0  0  0  0  0
  143.3460   76.2350  216.8910 C   0  0  0  0  0  0  0  0  0  0  0  0
  142.9430   77.3390  217.6480 C   0  0  0  0  0  0  0  0  0  0  0  0
  142.8560   77.2740  219.0240 C   0  0  0  0  0  0  0  0  0  0  0  0
  143.1720   76.0930  219.7050 C   0  0  0  0  0  0  0  0  0  0  0  0
  142.8360   72.8440  219.8600 C   0  0  0  0  0  0  0  0  0  0  0  0
  143.4570   71.4560  220.0280 C   0  0  0  0  0  0  0  0  0  0  0  0
  142.3680   70.4260  220.1010 C   0  0  0  0  0  0  0  0  0  0  0  0
  141.1760   71.0360  220.6590 N   0  0  0  0  0  0  0  0  0  0  0  0
  139.9410   70.4160  220.2490 C   0  0  0  0  0  0  0  0  0  0  0  0
  140.0730   69.4550  219.4240 O   0  0  0  0  0  0  0  0  0  0  0  0
  138.6100   70.8270  220.7190 C   0  0  1  0  0  0  0  0  0  0  0  0
  137.5650   70.3980  219.7900 N   0  0  0  0  0  0  0  0  0  0  0  0
  138.3830   70.2030  222.0790 C   0  0  1  0  0  0  0  0  0  0  0  0
  139.2140   68.9240  222.0960 C   0  0  0  0  0  0  0  0  0  0  0  0
  138.7420   68.1680  223.3470 C   0  0  0  0  0  0  0  0  0  0  0  0
  139.3050   68.9990  224.4620 C   0  0  0  0  0  0  0  0  0  0  0  0
  139.8570   68.3660  225.5810 C   0  0  0  0  0  0  0  0  0  0  0  0
  140.3810   69.1360  226.6180 C   0  0  0  0  0  0  0  0  0  0  0  0
  140.3440   70.5210  226.5170 C   0  0  0  0  0  0  0  0  0  0  0  0
  141.0700   71.5420  227.9560 Br  0  0  0  0  0  0  0  0  0  0  0  0
  139.7900   71.1120  225.3950 C   0  0  0  0  0  0  0  0  0  0  0  0
  139.2620   70.3670  224.3500 C   0  0  0  0  0  0  0  0  0  0  0  0
  138.6980   71.1100  223.2080 C   0  0  0  0  0  0  0  0  0  0  0  0
  141.1880   72.1780  221.5490 C   0  0  0  0  0  0  0  0  0  0  0  0
  142.1550   73.2580  221.1510 C   0  0  0  0  0  0  0  0  0  0  0  0
  146.2029   73.4428  222.9131 H   0  0  0  0  0  0  0  0  0  0  0  0
  145.6400   72.1752  221.7716 H   0  0  0  0  0  0  0  0  0  0  0  0
  147.3631   72.6828  221.7716 H   0  0  0  0  0  0  0  0  0  0  0  0
  145.3869   74.8745  221.3271 H   0  0  0  0  0  0  0  0  0  0  0  0
  146.9404   74.5533  220.5074 H   0  0  0  0  0  0  0  0  0  0  0  0
  143.9780   74.1776  216.9963 H   0  0  0  0  0  0  0  0  0  0  0  0
  143.4127   76.2948  215.7947 H   0  0  0  0  0  0  0  0  0  0  0  0
  142.6899   78.2793  217.1363 H   0  0  0  0  0  0  0  0  0  0  0  0
  142.5349   78.1600  219.5914 H   0  0  0  0  0  0  0  0  0  0  0  0
  143.1075   76.0274  220.8011 H   0  0  0  0  0  0  0  0  0  0  0  0
  142.0746   72.8540  219.0662 H   0  0  0  0  0  0  0  0  0  0  0  0
  144.1092   71.2397  219.1690 H   0  0  0  0  0  0  0  0  0  0  0  0
  144.0496   71.4292  220.9544 H   0  0  0  0  0  0  0  0  0  0  0  0
  142.1503   70.0476  219.0913 H   0  0  0  0  0  0  0  0  0  0  0  0
  142.6903   69.5898  220.7388 H   0  0  0  0  0  0  0  0  0  0  0  0
  138.5645   71.9243  220.7817 H   0  0  0  0  0  0  0  0  0  0  0  0
  138.0750   70.1000  218.9230 H   0  0  0  0  0  0  0  0  0  0  0  0
  137.0510   69.5800  220.1270 H   0  0  0  0  0  0  0  0  0  0  0  0
  137.3151   69.9843  222.2269 H   0  0  0  0  0  0  0  0  0  0  0  0
  139.0280   68.3287  221.1899 H   0  0  0  0  0  0  0  0  0  0  0  0
  140.2943   69.1302  222.1176 H   0  0  0  0  0  0  0  0  0  0  0  0
  137.6438   68.1284  223.3965 H   0  0  0  0  0  0  0  0  0  0  0  0
  139.0701   67.1184  223.3743 H   0  0  0  0  0  0  0  0  0  0  0  0
  139.8773   67.2679  225.6420 H   0  0  0  0  0  0  0  0  0  0  0  0
  140.8180   68.6534  227.5046 H   0  0  0  0  0  0  0  0  0  0  0  0
  139.7674   72.2098  225.3292 H   0  0  0  0  0  0  0  0  0  0  0  0
  137.7756   71.6156  223.5297 H   0  0  0  0  0  0  0  0  0  0  0  0
  139.4445   71.8426  222.8673 H   0  0  0  0  0  0  0  0  0  0  0  0
  140.1768   72.6104  221.5693 H   0  0  0  0  0  0  0  0  0  0  0  0
  141.5130   71.8090  222.5330 H   0  0  0  0  0  0  0  0  0  0  0  0
  141.6132   74.2030  220.9980 H   0  0  0  0  0  0  0  0  0  0  0  0
  142.9049   73.4023  221.9427 H   0  0  0  0  0  0  0  0  0  0  0  0
  1  2  1  0
  2  3  1  0
  3  4  2  0
  3  5  1  0
  5  6  1  0
  6  7  2  0
  7  8  1  0
  8  9  2  0
  9 10  1  0
 10 11  2  0
  5 12  1  0
 12 13  1  0
 13 14  1  0
 14 15  1  0
 15 16  1  0
 16 17  2  0
 16 18  1  0
 18 19  1  0
 18 20  1  0
 20 21  1  0
 21 22  1  0
 22 23  1  0
 23 24  2  0
 24 25  1  0
 25 26  2  0
 26 27  1  0
 26 28  1  0
 28 29  2  0
 29 30  1  0
 15 31  1  0
 31 32  1  0
 11  6  1  0
 32 12  1  0
 30 20  1  0
 29 23  1  0
  1 33  1  0
  1 34  1  0
  1 35  1  0
  2 36  1  0
  2 37  1  0
  7 38  1  0
  8 39  1  0
  9 40  1  0
 10 41  1  0
 11 42  1  0
 12 43  1  0
 13 44  1  0
 13 45  1  0
 14 46  1  0
 14 47  1  0
 18 48  1  1
 19 49  1  0
 19 50  1  0
 20 51  1  6
 21 52  1  0
 21 53  1  0
 22 54  1  0
 22 55  1  0
 24 56  1  0
 25 57  1  0
 28 58  1  0
 30 59  1  0
 30 60  1  0
 31 61  1  0
 31 62  1  0
 32 63  1  0
 32 64  1  0
M  END
>  <smiles>  (77) 
CCC(=O)N(c1ccccc1)C1CCN(C(=O)[C@@H](N)C2CCc3ccc(Br)cc3C2)CC1

>  <score_type>  (77) 
oracle

>  <origin>  (77) 
autodockgpu

>  <m_score__min__energy>  (77) 
-9.2699999999999996

>  <m_primary>  (77) 
energy

>  <rmsd>  (77) 
8.905328304699593

>  <m_score__min__rmsd>  (77) 
8.905328304699593

>  <meeko>  (77) 
{"free_energy": -7.93, "intermolecular_energy": -10.02, "internal_energy": -2.54, "cluster_size": 8, "cluster_id": 4, "rank_in_cluster": 1}

>  <energy>  (77) 
-7.72

>  <cluster_rmsd>  (77) 
0.22

>  <cluster>  (77) 
4

$$$$

     RDKit          3D

 64 67  0  0  0  0  0  0  0  0999 V2000
  136.3590   69.3900  224.6540 C   0  0  0  0  0  0  0  0  0  0  0  0
  137.3290   68.9490  223.5770 C   0  0  0  0  0  0  0  0  0  0  0  0
  138.6850   68.9170  224.1680 C   0  0  0  0  0  0  0  0  0  0  0  0
  139.1960   67.7700  224.3460 O   0  0  0  0  0  0  0  0  0  0  0  0
  139.3460   70.1230  224.5030 N   0  0  0  0  0  0  0  0  0  0  0  0
  139.8260   70.3080  225.8530 C   0  0  0  0  0  0  0  0  0  0  0  0
  140.5310   71.4870  226.0630 C   0  0  0  0  0  0  0  0  0  0  0  0
  141.0370   71.7680  227.3180 C   0  0  0  0  0  0  0  0  0  0  0  0
  140.8140   70.8410  228.3410 C   0  0  0  0  0  0  0  0  0  0  0  0
  140.1100   69.6750  228.1130 C   0  0  0  0  0  0  0  0  0  0  0  0
  139.5970   69.3860  226.8440 C   0  0  0  0  0  0  0  0  0  0  0  0
  139.5740   71.1970  223.5610 C   0  0  0  0  0  0  0  0  0  0  0  0
  140.2490   70.5760  222.3370 C   0  0  0  0  0  0  0  0  0  0  0  0
  140.7560   71.6660  221.4390 C   0  0  0  0  0  0  0  0  0  0  0  0
  139.9200   72.8410  221.6010 N   0  0  0  0  0  0  0  0  0  0  0  0
  140.5830   74.0880  221.3140 C   0  0  0  0  0  0  0  0  0  0  0  0
  141.8140   73.9810  221.0040 O   0  0  0  0  0  0  0  0  0  0  0  0
  139.9310   75.4050  221.3640 C   0  0  1  0  0  0  0  0  0  0  0  0
  139.3800   75.6730  222.6910 N   0  0  0  0  0  0  0  0  0  0  0  0
  140.9670   76.4510  221.0110 C   0  0  1  0  0  0  0  0  0  0  0  0
  140.9240   76.5880  219.4930 C   0  0  0  0  0  0  0  0  0  0  0  0
  142.1680   77.4180  219.1400 C   0  0  0  0  0  0  0  0  0  0  0  0
  141.8080   78.7810  219.6530 C   0  0  0  0  0  0  0  0  0  0  0  0
  142.1410   79.9110  218.8980 C   0  0  0  0  0  0  0  0  0  0  0  0
  141.8060   81.1780  219.3730 C   0  0  0  0  0  0  0  0  0  0  0  0
  141.1470   81.2910  220.5900 C   0  0  0  0  0  0  0  0  0  0  0  0
  140.7050   83.0420  221.2090 Br  0  0  0  0  0  0  0  0  0  0  0  0
  140.8330   80.1510  221.3100 C   0  0  0  0  0  0  0  0  0  0  0  0
  141.1560   78.8790  220.8580 C   0  0  0  0  0  0  0  0  0  0  0  0
  140.7700   77.7410  221.7130 C   0  0  0  0  0  0  0  0  0  0  0  0
  138.5360   72.8020  222.0240 C   0  0  0  0  0  0  0  0  0  0  0  0
  138.2630   71.8430  223.1490 C   0  0  0  0  0  0  0  0  0  0  0  0
  136.7954   69.1916  225.6441 H   0  0  0  0  0  0  0  0  0  0  0  0
  136.1604   70.4669  224.5500 H   0  0  0  0  0  0  0  0  0  0  0  0
  135.4169   68.8317  224.5500 H   0  0  0  0  0  0  0  0  0  0  0  0
  137.0554   67.9466  223.2160 H   0  0  0  0  0  0  0  0  0  0  0  0
  137.2991   69.6465  222.7270 H   0  0  0  0  0  0  0  0  0  0  0  0
  140.6856   72.1934  225.2341 H   0  0  0  0  0  0  0  0  0  0  0  0
  141.5992   72.6945  227.5068 H   0  0  0  0  0  0  0  0  0  0  0  0
  141.2074   71.0447  229.3479 H   0  0  0  0  0  0  0  0  0  0  0  0
  139.9508   68.9656  228.9385 H   0  0  0  0  0  0  0  0  0  0  0  0
  139.0349   68.4608  226.6488 H   0  0  0  0  0  0  0  0  0  0  0  0
  140.2006   71.9785  224.0155 H   0  0  0  0  0  0  0  0  0  0  0  0
  141.0910   69.9473  222.6621 H   0  0  0  0  0  0  0  0  0  0  0  0
  139.5208   69.9591  221.7900 H   0  0  0  0  0  0  0  0  0  0  0  0
  141.7938   71.9122  221.7080 H   0  0  0  0  0  0  0  0  0  0  0  0
  140.7237   71.3293  220.3923 H   0  0  0  0  0  0  0  0  0  0  0  0
  139.0945   75.4288  220.6501 H   0  0  0  0  0  0  0  0  0  0  0  0
  139.1670   74.7290  223.0960 H   0  0  0  0  0  0  0  0  0  0  0  0
  140.0570   76.1170  223.3160 H   0  0  0  0  0  0  0  0  0  0  0  0
  141.9636   76.1333  221.3513 H   0  0  0  0  0  0  0  0  0  0  0  0
  140.9685   75.5992  219.0130 H   0  0  0  0  0  0  0  0  0  0  0  0
  139.9948   77.0625  219.1444 H   0  0  0  0  0  0  0  0  0  0  0  0
  143.0630   77.0269  219.6459 H   0  0  0  0  0  0  0  0  0  0  0  0
  142.4132   77.4047  218.0678 H   0  0  0  0  0  0  0  0  0  0  0  0
  142.6635   79.8003  217.9364 H   0  0  0  0  0  0  0  0  0  0  0  0
  142.0603   82.0764  218.7915 H   0  0  0  0  0  0  0  0  0  0  0  0
  140.3102   80.2567  222.2721 H   0  0  0  0  0  0  0  0  0  0  0  0
  141.3866   77.7514  222.6238 H   0  0  0  0  0  0  0  0  0  0  0  0
  139.7038   77.8409  221.9646 H   0  0  0  0  0  0  0  0  0  0  0  0
  138.2471   73.8111  222.3530 H   0  0  0  0  0  0  0  0  0  0  0  0
  137.9511   72.4518  221.1607 H   0  0  0  0  0  0  0  0  0  0  0  0
  137.8325   72.3861  224.0032 H   0  0  0  0  0  0  0  0  0  0  0  0
  137.5496   71.0721  222.8221 H   0  0  0  0  0  0  0  0  0  0  0  0
  1  2  1  0
  2  3  1  0
  3  4  2  0
  3  5  1  0
  5  6  1  0
  6  7  2  0
  7  8  1  0
  8  9  2  0
  9 10  1  0
 10 11  2  0
  5 12  1  0
 12 13  1  0
 13 14  1  0
 14 15  1  0
 15 16  1  0
 16 17  2  0
 16 18  1  0
 18 19  1  0
 18 20  1  0
 20 21  1  0
 21 22  1  0
 22 23  1  0
 23 24  2  0
 24 25  1  0
 25 26  2  0
 26 27  1  0
 26 28  1  0
 28 29  2  0
 29 30  1  0
 15 31  1  0
 31 32  1  0
 11  6  1  0
 32 12  1  0
 30 20  1  0
 29 23  1  0
  1 33  1  0
  1 34  1  0
  1 35  1  0
  2 36  1  0
  2 37  1  0
  7 38  1  0
  8 39  1  0
  9 40  1  0
 10 41  1  0
 11 42  1  0
 12 43  1  0
 13 44  1  0
 13 45  1  0
 14 46  1  0
 14 47  1  0
 18 48  1  6
 19 49  1  0
 19 50  1  0
 20 51  1  6
 21 52  1  0
 21 53  1  0
 22 54  1  0
 22 55  1  0
 24 56  1  0
 25 57  1  0
 28 58  1  0
 30 59  1  0
 30 60  1  0
 31 61  1  0
 31 62  1  0
 32 63  1  0
 32 64  1  0
M  END
>  <smiles>  (78) 
CCC(=O)N(c1ccccc1)C1CCN(C(=O)[C@@H](N)C2CCc3ccc(Br)cc3C2)CC1

>  <score_type>  (78) 
oracle

>  <origin>  (78) 
autodockgpu

>  <m_score__min__energy>  (78) 
-9.2699999999999996

>  <m_primary>  (78) 
energy

>  <rmsd>  (78) 
5.6998727435585

>  <m_score__min__rmsd>  (78) 
5.6998727435585

>  <meeko>  (78) 
{"free_energy": -8.63, "intermolecular_energy": -10.72, "internal_energy": -1.51, "cluster_size": 21, "cluster_id": 1, "rank_in_cluster": 8}

>  <energy>  (78) 
-7.65

>  <cluster_rmsd>  (78) 
0.37

>  <cluster>  (78) 
4

$$$$

     RDKit          3D

 64 67  0  0  0  0  0  0  0  0999 V2000
  145.9540   73.0610  221.7560 C   0  0  0  0  0  0  0  0  0  0  0  0
  146.1990   73.7470  220.4280 C   0  0  0  0  0  0  0  0  0  0  0  0
  145.2900   73.1440  219.4280 C   0  0  0  0  0  0  0  0  0  0  0  0
  145.7990   72.2790  218.6520 O   0  0  0  0  0  0  0  0  0  0  0  0
  143.9300   73.5350  219.3710 N   0  0  0  0  0  0  0  0  0  0  0  0
  143.6020   74.8690  218.9240 C   0  0  0  0  0  0  0  0  0  0  0  0
  143.6960   75.0620  217.5520 C   0  0  0  0  0  0  0  0  0  0  0  0
  143.4050   76.3010  217.0130 C   0  0  0  0  0  0  0  0  0  0  0  0
  143.0210   77.3240  217.8850 C   0  0  0  0  0  0  0  0  0  0  0  0
  142.9340   77.1130  219.2470 C   0  0  0  0  0  0  0  0  0  0  0  0
  143.2280   75.8610  219.7960 C   0  0  0  0  0  0  0  0  0  0  0  0
  142.8340   72.6660  219.7390 C   0  0  0  0  0  0  0  0  0  0  0  0
  143.4160   71.2590  219.8910 C   0  0  0  0  0  0  0  0  0  0  0  0
  142.2980   70.2650  220.0060 C   0  0  0  0  0  0  0  0  0  0  0  0
  141.1460   70.9140  220.6030 N   0  0  0  0  0  0  0  0  0  0  0  0
  139.8790   70.3330  220.2380 C   0  0  0  0  0  0  0  0  0  0  0  0
  139.9520   69.3650  219.4130 O   0  0  0  0  0  0  0  0  0  0  0  0
  138.5780   70.7870  220.7520 C   0  0  1  0  0  0  0  0  0  0  0  0
  137.4910   70.4030  219.8530 N   0  0  0  0  0  0  0  0  0  0  0  0
  138.3720   70.1600  222.1140 C   0  0  1  0  0  0  0  0  0  0  0  0
  139.2390   68.9060  222.1330 C   0  0  0  0  0  0  0  0  0  0  0  0
  138.7910   68.1400  223.3870 C   0  0  0  0  0  0  0  0  0  0  0  0
  139.3310   68.9890  224.5000 C   0  0  0  0  0  0  0  0  0  0  0  0
  139.9030   68.3750  225.6200 C   0  0  0  0  0  0  0  0  0  0  0  0
  140.4050   69.1640  226.6540 C   0  0  0  0  0  0  0  0  0  0  0  0
  140.3270   70.5460  226.5500 C   0  0  0  0  0  0  0  0  0  0  0  0
  141.0250   71.5920  227.9840 Br  0  0  0  0  0  0  0  0  0  0  0  0
  139.7550   71.1190  225.4260 C   0  0  0  0  0  0  0  0  0  0  0  0
  139.2480   70.3560  224.3840 C   0  0  0  0  0  0  0  0  0  0  0  0
  138.6610   71.0790  223.2410 C   0  0  0  0  0  0  0  0  0  0  0  0
  141.2250   72.0570  221.4870 C   0  0  0  0  0  0  0  0  0  0  0  0
  142.2110   73.1050  221.0520 C   0  0  0  0  0  0  0  0  0  0  0  0
  146.2005   73.7512  222.5762 H   0  0  0  0  0  0  0  0  0  0  0  0
  144.8959   72.7689  221.8281 H   0  0  0  0  0  0  0  0  0  0  0  0
  146.5876   72.1647  221.8281 H   0  0  0  0  0  0  0  0  0  0  0  0
  145.9918   74.8234  220.5199 H   0  0  0  0  0  0  0  0  0  0  0  0
  147.2468   73.6186  220.1188 H   0  0  0  0  0  0  0  0  0  0  0  0
  144.0007   74.2324  216.8971 H   0  0  0  0  0  0  0  0  0  0  0  0
  143.4736   76.4770  215.9293 H   0  0  0  0  0  0  0  0  0  0  0  0
  142.7832   78.3178  217.4777 H   0  0  0  0  0  0  0  0  0  0  0  0
  142.6302   77.9388  219.9071 H   0  0  0  0  0  0  0  0  0  0  0  0
  143.1625   75.6791  220.8789 H   0  0  0  0  0  0  0  0  0  0  0  0
  142.0468   72.6979  218.9713 H   0  0  0  0  0  0  0  0  0  0  0  0
  144.0306   71.0194  219.0108 H   0  0  0  0  0  0  0  0  0  0  0  0
  144.0394   71.2159  220.7962 H   0  0  0  0  0  0  0  0  0  0  0  0
  142.0331   69.8911  219.0060 H   0  0  0  0  0  0  0  0  0  0  0  0
  142.6157   69.4208  220.6356 H   0  0  0  0  0  0  0  0  0  0  0  0
  138.5725   71.8846  220.8238 H   0  0  0  0  0  0  0  0  0  0  0  0
  137.9620   70.0880  218.9720 H   0  0  0  0  0  0  0  0  0  0  0  0
  136.9540   69.6060  220.2040 H   0  0  0  0  0  0  0  0  0  0  0  0
  137.3112   69.9105  222.2641 H   0  0  0  0  0  0  0  0  0  0  0  0
  139.0687   68.3031  221.2288 H   0  0  0  0  0  0  0  0  0  0  0  0
  140.3129   69.1432  222.1522 H   0  0  0  0  0  0  0  0  0  0  0  0
  137.6945   68.0688  223.4381 H   0  0  0  0  0  0  0  0  0  0  0  0
  139.1500   67.1006  223.4161 H   0  0  0  0  0  0  0  0  0  0  0  0
  139.9561   67.2781  225.6840 H   0  0  0  0  0  0  0  0  0  0  0  0
  140.8573   68.6971  227.5414 H   0  0  0  0  0  0  0  0  0  0  0  0
  139.7010   72.2155  225.3573 H   0  0  0  0  0  0  0  0  0  0  0  0
  137.7242   71.5576  223.5625 H   0  0  0  0  0  0  0  0  0  0  0  0
  139.3849   71.8328  222.8978 H   0  0  0  0  0  0  0  0  0  0  0  0
  140.2292   72.5212  221.5406 H   0  0  0  0  0  0  0  0  0  0  0  0
  141.5725   71.6805  222.4604 H   0  0  0  0  0  0  0  0  0  0  0  0
  141.6941   74.0662  220.9142 H   0  0  0  0  0  0  0  0  0  0  0  0
  142.9920   73.2279  221.8169 H   0  0  0  0  0  0  0  0  0  0  0  0
  1  2  1  0
  2  3  1  0
  3  4  2  0
  3  5  1  0
  5  6  1  0
  6  7  2  0
  7  8  1  0
  8  9  2  0
  9 10  1  0
 10 11  2  0
  5 12  1  0
 12 13  1  0
 13 14  1  0
 14 15  1  0
 15 16  1  0
 16 17  2  0
 16 18  1  0
 18 19  1  0
 18 20  1  0
 20 21  1  0
 21 22  1  0
 22 23  1  0
 23 24  2  0
 24 25  1  0
 25 26  2  0
 26 27  1  0
 26 28  1  0
 28 29  2  0
 29 30  1  0
 15 31  1  0
 31 32  1  0
 11  6  1  0
 32 12  1  0
 30 20  1  0
 29 23  1  0
  1 33  1  0
  1 34  1  0
  1 35  1  0
  2 36  1  0
  2 37  1  0
  7 38  1  0
  8 39  1  0
  9 40  1  0
 10 41  1  0
 11 42  1  0
 12 43  1  0
 13 44  1  0
 13 45  1  0
 14 46  1  0
 14 47  1  0
 18 48  1  1
 19 49  1  0
 19 50  1  0
 20 51  1  6
 21 52  1  0
 21 53  1  0
 22 54  1  0
 22 55  1  0
 24 56  1  0
 25 57  1  0
 28 58  1  0
 30 59  1  0
 30 60  1  0
 31 61  1  0
 31 62  1  0
 32 63  1  0
 32 64  1  0
M  END
>  <smiles>  (79) 
CCC(=O)N(c1ccccc1)C1CCN(C(=O)[C@@H](N)C2CCc3ccc(Br)cc3C2)CC1

>  <score_type>  (79) 
oracle

>  <origin>  (79) 
autodockgpu

>  <m_score__min__energy>  (79) 
-9.2699999999999996

>  <m_primary>  (79) 
energy

>  <rmsd>  (79) 
8.956515547762976

>  <m_score__min__rmsd>  (79) 
8.956515547762976

>  <meeko>  (79) 
{"free_energy": -7.72, "intermolecular_energy": -9.81, "internal_energy": -2.53, "cluster_size": 8, "cluster_id": 4, "rank_in_cluster": 4}

>  <energy>  (79) 
-7.6

>  <cluster_rmsd>  (79) 
0.4

>  <cluster>  (79) 
4

$$$$

     RDKit          3D

 64 67  0  0  0  0  0  0  0  0999 V2000
  134.4830   68.9000  225.7060 C   0  0  0  0  0  0  0  0  0  0  0  0
  135.4960   69.9970  225.4500 C   0  0  0  0  0  0  0  0  0  0  0  0
  136.5500   69.4490  224.5670 C   0  0  0  0  0  0  0  0  0  0  0  0
  136.2020   68.5080  223.7910 O   0  0  0  0  0  0  0  0  0  0  0  0
  137.8640   69.9730  224.6130 N   0  0  0  0  0  0  0  0  0  0  0  0
  138.7830   69.4740  225.6090 C   0  0  0  0  0  0  0  0  0  0  0  0
  138.8010   68.0910  225.7430 C   0  0  0  0  0  0  0  0  0  0  0  0
  139.6440   67.5030  226.6670 C   0  0  0  0  0  0  0  0  0  0  0  0
  140.4580   68.3370  227.4390 C   0  0  0  0  0  0  0  0  0  0  0  0
  140.4270   69.7090  227.2920 C   0  0  0  0  0  0  0  0  0  0  0  0
  139.5740   70.3090  226.3580 C   0  0  0  0  0  0  0  0  0  0  0  0
  138.3480   70.9950  223.7100 C   0  0  0  0  0  0  0  0  0  0  0  0
  139.2690   70.2970  222.7070 C   0  0  0  0  0  0  0  0  0  0  0  0
  140.0150   71.3290  221.9120 C   0  0  0  0  0  0  0  0  0  0  0  0
  139.2100   72.5330  221.8250 N   0  0  0  0  0  0  0  0  0  0  0  0
  139.9690   73.7460  221.6550 C   0  0  0  0  0  0  0  0  0  0  0  0
  141.2340   73.5900  221.6500 O   0  0  0  0  0  0  0  0  0  0  0  0
  139.3750   75.0820  221.4960 C   0  0  1  0  0  0  0  0  0  0  0  0
  138.6760   75.4980  222.7110 N   0  0  0  0  0  0  0  0  0  0  0  0
  140.4930   76.0530  221.1820 C   0  0  1  0  0  0  0  0  0  0  0  0
  139.9600   76.9600  220.0770 C   0  0  0  0  0  0  0  0  0  0  0  0
  141.1930   77.7290  219.5750 C   0  0  0  0  0  0  0  0  0  0  0  0
  141.4860   78.6570  220.7170 C   0  0  0  0  0  0  0  0  0  0  0  0
  141.8680   79.9760  220.4510 C   0  0  0  0  0  0  0  0  0  0  0  0
  142.1410   80.8400  221.5110 C   0  0  0  0  0  0  0  0  0  0  0  0
  142.0270   80.3700  222.8120 C   0  0  0  0  0  0  0  0  0  0  0  0
  142.4080   81.5800  224.2370 Br  0  0  0  0  0  0  0  0  0  0  0  0
  141.6460   79.0580  223.0370 C   0  0  0  0  0  0  0  0  0  0  0  0
  141.3700   78.1790  221.9990 C   0  0  0  0  0  0  0  0  0  0  0  0
  140.9740   76.8060  222.3640 C   0  0  0  0  0  0  0  0  0  0  0  0
  137.7650   72.5530  221.9080 C   0  0  0  0  0  0  0  0  0  0  0  0
  137.1970   71.6560  222.9730 C   0  0  0  0  0  0  0  0  0  0  0  0
  134.3567   68.7632  226.7901 H   0  0  0  0  0  0  0  0  0  0  0  0
  133.5185   69.1794  225.2569 H   0  0  0  0  0  0  0  0  0  0  0  0
  134.8382   67.9608  225.2569 H   0  0  0  0  0  0  0  0  0  0  0  0
  135.0056   70.8512  224.9603 H   0  0  0  0  0  0  0  0  0  0  0  0
  135.9333   70.3424  226.3984 H   0  0  0  0  0  0  0  0  0  0  0  0
  138.1470   67.4668  225.1163 H   0  0  0  0  0  0  0  0  0  0  0  0
  139.6735   66.4104  226.7913 H   0  0  0  0  0  0  0  0  0  0  0  0
  141.1378   67.8902  228.1795 H   0  0  0  0  0  0  0  0  0  0  0  0
  141.0796   70.3378  227.9155 H   0  0  0  0  0  0  0  0  0  0  0  0
  139.5393   71.4010  226.2301 H   0  0  0  0  0  0  0  0  0  0  0  0
  138.8782   71.7805  224.2685 H   0  0  0  0  0  0  0  0  0  0  0  0
  139.9859   69.6617  223.2477 H   0  0  0  0  0  0  0  0  0  0  0  0
  138.6677   69.6746  222.0280 H   0  0  0  0  0  0  0  0  0  0  0  0
  140.9689   71.5586  222.4093 H   0  0  0  0  0  0  0  0  0  0  0  0
  140.2173   70.9441  220.9016 H   0  0  0  0  0  0  0  0  0  0  0  0
  138.6356   75.0624  220.6818 H   0  0  0  0  0  0  0  0  0  0  0  0
  137.9280   74.7780  222.8570 H   0  0  0  0  0  0  0  0  0  0  0  0
  139.2770   75.4720  223.5380 H   0  0  0  0  0  0  0  0  0  0  0  0
  141.3910   75.5104  220.8515 H   0  0  0  0  0  0  0  0  0  0  0  0
  139.5177   76.3638  219.2653 H   0  0  0  0  0  0  0  0  0  0  0  0
  139.1677   77.6329  220.4367 H   0  0  0  0  0  0  0  0  0  0  0  0
  142.0371   77.0486  219.3894 H   0  0  0  0  0  0  0  0  0  0  0  0
  141.0260   78.2488  218.6201 H   0  0  0  0  0  0  0  0  0  0  0  0
  141.9525   80.3294  219.4127 H   0  0  0  0  0  0  0  0  0  0  0  0
  142.4427   81.8802  221.3186 H   0  0  0  0  0  0  0  0  0  0  0  0
  141.5591   78.7002  224.0736 H   0  0  0  0  0  0  0  0  0  0  0  0
  141.8426   76.2843  222.7923 H   0  0  0  0  0  0  0  0  0  0  0  0
  140.1551   76.8635  223.0962 H   0  0  0  0  0  0  0  0  0  0  0  0
  137.4457   73.5843  222.1190 H   0  0  0  0  0  0  0  0  0  0  0  0
  137.3875   72.1790  220.9449 H   0  0  0  0  0  0  0  0  0  0  0  0
  136.5975   72.2506  223.6781 H   0  0  0  0  0  0  0  0  0  0  0  0
  136.5523   70.8904  222.5167 H   0  0  0  0  0  0  0  0  0  0  0  0
  1  2  1  0
  2  3  1  0
  3  4  2  0
  3  5  1  0
  5  6  1  0
  6  7  2  0
  7  8  1  0
  8  9  2  0
  9 10  1  0
 10 11  2  0
  5 12  1  0
 12 13  1  0
 13 14  1  0
 14 15  1  0
 15 16  1  0
 16 17  2  0
 16 18  1  0
 18 19  1  0
 18 20  1  0
 20 21  1  0
 21 22  1  0
 22 23  1  0
 23 24  2  0
 24 25  1  0
 25 26  2  0
 26 27  1  0
 26 28  1  0
 28 29  2  0
 29 30  1  0
 15 31  1  0
 31 32  1  0
 11  6  1  0
 32 12  1  0
 30 20  1  0
 29 23  1  0
  1 33  1  0
  1 34  1  0
  1 35  1  0
  2 36  1  0
  2 37  1  0
  7 38  1  0
  8 39  1  0
  9 40  1  0
 10 41  1  0
 11 42  1  0
 12 43  1  0
 13 44  1  0
 13 45  1  0
 14 46  1  0
 14 47  1  0
 18 48  1  6
 19 49  1  0
 19 50  1  0
 20 51  1  6
 21 52  1  0
 21 53  1  0
 22 54  1  0
 22 55  1  0
 24 56  1  0
 25 57  1  0
 28 58  1  0
 30 59  1  0
 30 60  1  0
 31 61  1  0
 31 62  1  0
 32 63  1  0
 32 64  1  0
M  END
>  <smiles>  (80) 
CCC(=O)N(c1ccccc1)C1CCN(C(=O)[C@@H](N)C2CCc3ccc(Br)cc3C2)CC1

>  <score_type>  (80) 
oracle

>  <origin>  (80) 
autodockgpu

>  <m_score__min__energy>  (80) 
-9.2699999999999996

>  <m_primary>  (80) 
energy

>  <rmsd>  (80) 
6.354284160500648

>  <m_score__min__rmsd>  (80) 
6.354284160500648

>  <meeko>  (80) 
{"free_energy": -8.7, "intermolecular_energy": -10.79, "internal_energy": -1.6, "cluster_size": 21, "cluster_id": 1, "rank_in_cluster": 7}

>  <energy>  (80) 
-7.54

>  <cluster_rmsd>  (80) 
0.59

>  <cluster>  (80) 
4

$$$$

     RDKit          3D

 64 67  0  0  0  0  0  0  0  0999 V2000
  137.7830   68.2240  222.1480 C   0  0  0  0  0  0  0  0  0  0  0  0
  138.5850   68.0910  223.4250 C   0  0  0  0  0  0  0  0  0  0  0  0
  138.1930   69.1960  224.3290 C   0  0  0  0  0  0  0  0  0  0  0  0
  137.0220   69.1390  224.8150 O   0  0  0  0  0  0  0  0  0  0  0  0
  139.1020   70.2420  224.6130 N   0  0  0  0  0  0  0  0  0  0  0  0
  139.7570   70.2720  225.9000 C   0  0  0  0  0  0  0  0  0  0  0  0
  140.3860   71.4730  226.2060 C   0  0  0  0  0  0  0  0  0  0  0  0
  141.0440   71.6140  227.4120 C   0  0  0  0  0  0  0  0  0  0  0  0
  141.0510   70.5250  228.2900 C   0  0  0  0  0  0  0  0  0  0  0  0
  140.4210   69.3400  227.9690 C   0  0  0  0  0  0  0  0  0  0  0  0
  139.7530   69.1920  226.7480 C   0  0  0  0  0  0  0  0  0  0  0  0
  139.4200   71.3000  223.6780 C   0  0  0  0  0  0  0  0  0  0  0  0
  140.2590   70.6690  222.5660 C   0  0  0  0  0  0  0  0  0  0  0  0
  140.8480   71.7520  221.7090 C   0  0  0  0  0  0  0  0  0  0  0  0
  139.9700   72.9060  221.7340 N   0  0  0  0  0  0  0  0  0  0  0  0
  140.6330   74.1640  221.4990 C   0  0  0  0  0  0  0  0  0  0  0  0
  141.8960   74.0840  221.3490 O   0  0  0  0  0  0  0  0  0  0  0  0
  139.9480   75.4640  221.4310 C   0  0  1  0  0  0  0  0  0  0  0  0
  139.2910   75.7820  222.6980 N   0  0  0  0  0  0  0  0  0  0  0  0
  140.9830   76.5180  221.1040 C   0  0  1  0  0  0  0  0  0  0  0  0
  140.9950   76.6360  219.5840 C   0  0  0  0  0  0  0  0  0  0  0  0
  142.2400   77.4780  219.2670 C   0  0  0  0  0  0  0  0  0  0  0  0
  141.8430   78.8420  219.7480 C   0  0  0  0  0  0  0  0  0  0  0  0
  142.1890   79.9670  218.9910 C   0  0  0  0  0  0  0  0  0  0  0  0
  141.8200   81.2360  219.4360 C   0  0  0  0  0  0  0  0  0  0  0  0
  141.1150   81.3560  220.6260 C   0  0  0  0  0  0  0  0  0  0  0  0
  140.6280   83.1070  221.2050 Br  0  0  0  0  0  0  0  0  0  0  0  0
  140.7900   80.2200  221.3490 C   0  0  0  0  0  0  0  0  0  0  0  0
  141.1460   78.9470  220.9260 C   0  0  0  0  0  0  0  0  0  0  0  0
  140.7430   77.8150  221.7810 C   0  0  0  0  0  0  0  0  0  0  0  0
  138.5450   72.8390  221.9810 C   0  0  0  0  0  0  0  0  0  0  0  0
  138.1560   71.8990  223.0880 C   0  0  0  0  0  0  0  0  0  0  0  0
  136.7257   68.3993  222.3956 H   0  0  0  0  0  0  0  0  0  0  0  0
  138.1672   69.0707  221.5602 H   0  0  0  0  0  0  0  0  0  0  0  0
  137.8734   67.2986  221.5602 H   0  0  0  0  0  0  0  0  0  0  0  0
  138.3690   67.1238  223.9024 H   0  0  0  0  0  0  0  0  0  0  0  0
  139.6620   68.1400  223.2066 H   0  0  0  0  0  0  0  0  0  0  0  0
  140.3598   72.3080  225.4904 H   0  0  0  0  0  0  0  0  0  0  0  0
  141.5482   72.5557  227.6747 H   0  0  0  0  0  0  0  0  0  0  0  0
  141.5693   70.6151  229.2560 H   0  0  0  0  0  0  0  0  0  0  0  0
  140.4441   68.5019  228.6810 H   0  0  0  0  0  0  0  0  0  0  0  0
  139.2475   68.2526  226.4797 H   0  0  0  0  0  0  0  0  0  0  0  0
  139.9645   72.1097  224.1858 H   0  0  0  0  0  0  0  0  0  0  0  0
  141.0688   70.0722  223.0111 H   0  0  0  0  0  0  0  0  0  0  0  0
  139.6214   70.0187  221.9491 H   0  0  0  0  0  0  0  0  0  0  0  0
  141.8374   72.0332  222.0988 H   0  0  0  0  0  0  0  0  0  0  0  0
  140.9557   71.3901  220.6758 H   0  0  0  0  0  0  0  0  0  0  0  0
  139.1684   75.4302  220.6557 H   0  0  0  0  0  0  0  0  0  0  0  0
  139.0800   74.8540  223.1390 H   0  0  0  0  0  0  0  0  0  0  0  0
  139.9050   76.2840  223.3440 H   0  0  0  0  0  0  0  0  0  0  0  0
  141.9698   76.2171  221.4857 H   0  0  0  0  0  0  0  0  0  0  0  0
  141.0702   75.6422  219.1185 H   0  0  0  0  0  0  0  0  0  0  0  0
  140.0734   77.0938  219.1952 H   0  0  0  0  0  0  0  0  0  0  0  0
  143.1204   77.1056  219.8112 H   0  0  0  0  0  0  0  0  0  0  0  0
  142.5256   77.4543  218.2050 H   0  0  0  0  0  0  0  0  0  0  0  0
  142.7484   79.8510  218.0510 H   0  0  0  0  0  0  0  0  0  0  0  0
  142.0840   82.1300  218.8520 H   0  0  0  0  0  0  0  0  0  0  0  0
  140.2310   80.3306  222.2899 H   0  0  0  0  0  0  0  0  0  0  0  0
  141.3248   77.8455  222.7141 H   0  0  0  0  0  0  0  0  0  0  0  0
  139.6669   77.9037  221.9910 H   0  0  0  0  0  0  0  0  0  0  0  0
  138.1926   73.8472  222.2444 H   0  0  0  0  0  0  0  0  0  0  0  0
  138.0820   72.4532  221.0608 H   0  0  0  0  0  0  0  0  0  0  0  0
  137.6078   72.4495  223.8667 H   0  0  0  0  0  0  0  0  0  0  0  0
  137.5089   71.1011  222.6948 H   0  0  0  0  0  0  0  0  0  0  0  0
  1  2  1  0
  2  3  1  0
  3  4  2  0
  3  5  1  0
  5  6  1  0
  6  7  2  0
  7  8  1  0
  8  9  2  0
  9 10  1  0
 10 11  2  0
  5 12  1  0
 12 13  1  0
 13 14  1  0
 14 15  1  0
 15 16  1  0
 16 17  2  0
 16 18  1  0
 18 19  1  0
 18 20  1  0
 20 21  1  0
 21 22  1  0
 22 23  1  0
 23 24  2  0
 24 25  1  0
 25 26  2  0
 26 27  1  0
 26 28  1  0
 28 29  2  0
 29 30  1  0
 15 31  1  0
 31 32  1  0
 11  6  1  0
 32 12  1  0
 30 20  1  0
 29 23  1  0
  1 33  1  0
  1 34  1  0
  1 35  1  0
  2 36  1  0
  2 37  1  0
  7 38  1  0
  8 39  1  0
  9 40  1  0
 10 41  1  0
 11 42  1  0
 12 43  1  0
 13 44  1  0
 13 45  1  0
 14 46  1  0
 14 47  1  0
 18 48  1  6
 19 49  1  0
 19 50  1  0
 20 51  1  1
 21 52  1  0
 21 53  1  0
 22 54  1  0
 22 55  1  0
 24 56  1  0
 25 57  1  0
 28 58  1  0
 30 59  1  0
 30 60  1  0
 31 61  1  0
 31 62  1  0
 32 63  1  0
 32 64  1  0
M  END
>  <smiles>  (81) 
CCC(=O)N(c1ccccc1)C1CCN(C(=O)[C@@H](N)C2CCc3ccc(Br)cc3C2)CC1

>  <score_type>  (81) 
oracle

>  <origin>  (81) 
autodockgpu

>  <m_score__min__energy>  (81) 
-9.2699999999999996

>  <m_primary>  (81) 
energy

>  <rmsd>  (81) 
5.713853690761462

>  <m_score__min__rmsd>  (81) 
5.713853690761462

>  <meeko>  (81) 
{"free_energy": -8.16, "intermolecular_energy": -10.25, "internal_energy": -1.59, "cluster_size": 21, "cluster_id": 1, "rank_in_cluster": 21}

>  <energy>  (81) 
-7.33

>  <cluster_rmsd>  (81) 
0.55

>  <cluster>  (81) 
4

$$$$

     RDKit          3D

 64 67  0  0  0  0  0  0  0  0999 V2000
  134.4280   69.0570  225.3230 C   0  0  0  0  0  0  0  0  0  0  0  0
  135.6200   69.9900  225.3670 C   0  0  0  0  0  0  0  0  0  0  0  0
  136.6560   69.4520  224.4560 C   0  0  0  0  0  0  0  0  0  0  0  0
  136.2830   68.5450  223.6510 O   0  0  0  0  0  0  0  0  0  0  0  0
  137.9800   69.9490  224.5070 N   0  0  0  0  0  0  0  0  0  0  0  0
  138.8760   69.4530  225.5250 C   0  0  0  0  0  0  0  0  0  0  0  0
  139.6540   70.4260  226.1410 C   0  0  0  0  0  0  0  0  0  0  0  0
  140.5480   70.0640  227.1310 C   0  0  0  0  0  0  0  0  0  0  0  0
  140.6330   68.7120  227.4780 C   0  0  0  0  0  0  0  0  0  0  0  0
  139.8530   67.7590  226.8550 C   0  0  0  0  0  0  0  0  0  0  0  0
  138.9470   68.1210  225.8520 C   0  0  0  0  0  0  0  0  0  0  0  0
  138.4970   70.9400  223.5880 C   0  0  0  0  0  0  0  0  0  0  0  0
  139.5550   70.2400  222.7340 C   0  0  0  0  0  0  0  0  0  0  0  0
  140.3210   71.2640  221.9480 C   0  0  0  0  0  0  0  0  0  0  0  0
  139.4630   72.4070  221.6970 N   0  0  0  0  0  0  0  0  0  0  0  0
  140.1670   73.6520  221.5190 C   0  0  0  0  0  0  0  0  0  0  0  0
  141.4310   73.5760  221.6520 O   0  0  0  0  0  0  0  0  0  0  0  0
  139.5180   74.9350  221.2090 C   0  0  1  0  0  0  0  0  0  0  0  0
  138.6850   75.3890  222.3220 N   0  0  0  0  0  0  0  0  0  0  0  0
  140.6060   75.9490  220.9270 C   0  0  1  0  0  0  0  0  0  0  0  0
  140.0380   76.8870  219.8670 C   0  0  0  0  0  0  0  0  0  0  0  0
  141.2440   77.7100  219.3880 C   0  0  0  0  0  0  0  0  0  0  0  0
  141.5230   78.5970  220.5650 C   0  0  0  0  0  0  0  0  0  0  0  0
  141.8660   79.9360  220.3530 C   0  0  0  0  0  0  0  0  0  0  0  0
  142.1250   80.7610  221.4460 C   0  0  0  0  0  0  0  0  0  0  0  0
  142.0370   80.2330  222.7280 C   0  0  0  0  0  0  0  0  0  0  0  0
  142.3990   81.3920  224.2000 Br  0  0  0  0  0  0  0  0  0  0  0  0
  141.6940   78.9030  222.9000 C   0  0  0  0  0  0  0  0  0  0  0  0
  141.4320   78.0620  221.8270 C   0  0  0  0  0  0  0  0  0  0  0  0
  141.0780   76.6650  222.1360 C   0  0  0  0  0  0  0  0  0  0  0  0
  138.0190   72.3410  221.6330 C   0  0  0  0  0  0  0  0  0  0  0  0
  137.3940   71.4800  222.6960 C   0  0  0  0  0  0  0  0  0  0  0  0
  134.1157   68.8125  226.3490 H   0  0  0  0  0  0  0  0  0  0  0  0
  133.5977   69.5476  224.7940 H   0  0  0  0  0  0  0  0  0  0  0  0
  134.7048   68.1331  224.7940 H   0  0  0  0  0  0  0  0  0  0  0  0
  135.3193   70.9956  225.0379 H   0  0  0  0  0  0  0  0  0  0  0  0
  136.0122   70.0609  226.3923 H   0  0  0  0  0  0  0  0  0  0  0  0
  139.5587   71.4802  225.8418 H   0  0  0  0  0  0  0  0  0  0  0  0
  141.1743   70.8173  227.6313 H   0  0  0  0  0  0  0  0  0  0  0  0
  141.3366   68.4014  228.2644 H   0  0  0  0  0  0  0  0  0  0  0  0
  139.9446   66.7033  227.1502 H   0  0  0  0  0  0  0  0  0  0  0  0
  138.3192   67.3717  225.3476 H   0  0  0  0  0  0  0  0  0  0  0  0
  138.9212   71.7912  224.1408 H   0  0  0  0  0  0  0  0  0  0  0  0
  140.2460   69.6867  223.3869 H   0  0  0  0  0  0  0  0  0  0  0  0
  139.0637   69.5394  222.0428 H   0  0  0  0  0  0  0  0  0  0  0  0
  141.2034   71.5843  222.5213 H   0  0  0  0  0  0  0  0  0  0  0  0
  140.6492   70.8292  220.9924 H   0  0  0  0  0  0  0  0  0  0  0  0
  138.8611   74.8148  220.3349 H   0  0  0  0  0  0  0  0  0  0  0  0
  138.8320   74.6810  223.0810 H   0  0  0  0  0  0  0  0  0  0  0  0
  138.9880   76.2910  222.6970 H   0  0  0  0  0  0  0  0  0  0  0  0
  141.5149   75.4454  220.5660 H   0  0  0  0  0  0  0  0  0  0  0  0
  139.6040   76.3140  219.0343 H   0  0  0  0  0  0  0  0  0  0  0  0
  139.2313   77.5219  220.2622 H   0  0  0  0  0  0  0  0  0  0  0  0
  142.1045   77.0616  219.1666 H   0  0  0  0  0  0  0  0  0  0  0  0
  141.0533   78.2648  218.4575 H   0  0  0  0  0  0  0  0  0  0  0  0
  141.9310   80.3355  219.3302 H   0  0  0  0  0  0  0  0  0  0  0  0
  142.3956   81.8165  221.2956 H   0  0  0  0  0  0  0  0  0  0  0  0
  141.6268   78.4990  223.9209 H   0  0  0  0  0  0  0  0  0  0  0  0
  141.9649   76.1502  222.5339 H   0  0  0  0  0  0  0  0  0  0  0  0
  140.2650   76.6686  222.8770 H   0  0  0  0  0  0  0  0  0  0  0  0
  137.6219   73.3615  221.7379 H   0  0  0  0  0  0  0  0  0  0  0  0
  137.7659   71.8828  220.6655 H   0  0  0  0  0  0  0  0  0  0  0  0
  136.6928   72.0799  223.2947 H   0  0  0  0  0  0  0  0  0  0  0  0
  136.8432   70.6485  222.2321 H   0  0  0  0  0  0  0  0  0  0  0  0
  1  2  1  0
  2  3  1  0
  3  4  2  0
  3  5  1  0
  5  6  1  0
  6  7  2  0
  7  8  1  0
  8  9  2  0
  9 10  1  0
 10 11  2  0
  5 12  1  0
 12 13  1  0
 13 14  1  0
 14 15  1  0
 15 16  1  0
 16 17  2  0
 16 18  1  0
 18 19  1  0
 18 20  1  0
 20 21  1  0
 21 22  1  0
 22 23  1  0
 23 24  2  0
 24 25  1  0
 25 26  2  0
 26 27  1  0
 26 28  1  0
 28 29  2  0
 29 30  1  0
 15 31  1  0
 31 32  1  0
 11  6  1  0
 32 12  1  0
 30 20  1  0
 29 23  1  0
  1 33  1  0
  1 34  1  0
  1 35  1  0
  2 36  1  0
  2 37  1  0
  7 38  1  0
  8 39  1  0
  9 40  1  0
 10 41  1  0
 11 42  1  0
 12 43  1  0
 13 44  1  0
 13 45  1  0
 14 46  1  0
 14 47  1  0
 18 48  1  6
 19 49  1  0
 19 50  1  0
 20 51  1  6
 21 52  1  0
 21 53  1  0
 22 54  1  0
 22 55  1  0
 24 56  1  0
 25 57  1  0
 28 58  1  0
 30 59  1  0
 30 60  1  0
 31 61  1  0
 31 62  1  0
 32 63  1  0
 32 64  1  0
M  END
>  <smiles>  (82) 
CCC(=O)N(c1ccccc1)C1CCN(C(=O)[C@@H](N)C2CCc3ccc(Br)cc3C2)CC1

>  <score_type>  (82) 
oracle

>  <origin>  (82) 
autodockgpu

>  <m_score__min__energy>  (82) 
-9.2699999999999996

>  <m_primary>  (82) 
energy

>  <rmsd>  (82) 
6.392990478966076

>  <m_score__min__rmsd>  (82) 
6.392990478966076

>  <meeko>  (82) 
{"free_energy": -8.49, "intermolecular_energy": -10.58, "internal_energy": -1.59, "cluster_size": 21, "cluster_id": 1, "rank_in_cluster": 13}

>  <energy>  (82) 
-7.84

>  <cluster_rmsd>  (82) 
0.0

>  <cluster>  (82) 
5

$$$$

     RDKit          3D

 64 67  0  0  0  0  0  0  0  0999 V2000
  142.9040   76.8540  218.1660 C   0  0  0  0  0  0  0  0  0  0  0  0
  143.0300   76.6520  219.6620 C   0  0  0  0  0  0  0  0  0  0  0  0
  142.0800   75.5890  220.0610 C   0  0  0  0  0  0  0  0  0  0  0  0
  140.9010   75.9630  220.3410 O   0  0  0  0  0  0  0  0  0  0  0  0
  142.5010   74.2380  220.1140 N   0  0  0  0  0  0  0  0  0  0  0  0
  143.8990   73.9310  219.9220 C   0  0  0  0  0  0  0  0  0  0  0  0
  144.6610   73.9310  221.0840 C   0  0  0  0  0  0  0  0  0  0  0  0
  146.0120   73.6510  221.0190 C   0  0  0  0  0  0  0  0  0  0  0  0
  146.5660   73.3730  219.7650 C   0  0  0  0  0  0  0  0  0  0  0  0
  145.7940   73.3780  218.6210 C   0  0  0  0  0  0  0  0  0  0  0  0
  144.4260   73.6620  218.6830 C   0  0  0  0  0  0  0  0  0  0  0  0
  141.6020   73.1300  220.3530 C   0  0  0  0  0  0  0  0  0  0  0  0
  142.4290   71.8510  220.2100 C   0  0  0  0  0  0  0  0  0  0  0  0
  141.5110   70.6640  220.1770 C   0  0  0  0  0  0  0  0  0  0  0  0
  140.3110   70.9710  220.9330 N   0  0  0  0  0  0  0  0  0  0  0  0
  139.1410   70.2420  220.5140 C   0  0  0  0  0  0  0  0  0  0  0  0
  139.3190   69.4700  219.5160 O   0  0  0  0  0  0  0  0  0  0  0  0
  137.8220   70.3490  221.1560 C   0  0  1  0  0  0  0  0  0  0  0  0
  136.7880   69.7020  220.3510 N   0  0  0  0  0  0  0  0  0  0  0  0
  137.9120   69.6880  222.5150 C   0  0  1  0  0  0  0  0  0  0  0  0
  138.9730   68.6000  222.3810 C   0  0  0  0  0  0  0  0  0  0  0  0
  138.8350   67.7610  223.6610 C   0  0  0  0  0  0  0  0  0  0  0  0
  139.3710   68.6840  224.7160 C   0  0  0  0  0  0  0  0  0  0  0  0
  140.1850   68.1700  225.7310 C   0  0  0  0  0  0  0  0  0  0  0  0
  140.6840   69.0260  226.7110 C   0  0  0  0  0  0  0  0  0  0  0  0
  140.3600   70.3750  226.6590 C   0  0  0  0  0  0  0  0  0  0  0  0
  141.0610   71.5170  228.0180 Br  0  0  0  0  0  0  0  0  0  0  0  0
  139.5520   70.8480  225.6390 C   0  0  0  0  0  0  0  0  0  0  0  0
  139.0430   70.0160  224.6520 C   0  0  0  0  0  0  0  0  0  0  0  0
  138.1940   70.6360  223.6190 C   0  0  0  0  0  0  0  0  0  0  0  0
  140.2560   71.9310  222.0150 C   0  0  0  0  0  0  0  0  0  0  0  0
  141.0100   73.2030  221.7490 C   0  0  0  0  0  0  0  0  0  0  0  0
  142.3315   77.7719  217.9669 H   0  0  0  0  0  0  0  0  0  0  0  0
  143.9066   76.9437  217.7224 H   0  0  0  0  0  0  0  0  0  0  0  0
  142.3825   75.9931  217.7224 H   0  0  0  0  0  0  0  0  0  0  0  0
  144.0571   76.3482  219.9126 H   0  0  0  0  0  0  0  0  0  0  0  0
  142.8031   77.5873  220.1946 H   0  0  0  0  0  0  0  0  0  0  0  0
  144.1897   74.1533  222.0527 H   0  0  0  0  0  0  0  0  0  0  0  0
  146.6338   73.6468  221.9264 H   0  0  0  0  0  0  0  0  0  0  0  0
  147.6396   73.1456  219.6891 H   0  0  0  0  0  0  0  0  0  0  0  0
  146.2599   73.1561  217.6496 H   0  0  0  0  0  0  0  0  0  0  0  0
  143.7997   73.6695  217.7788 H   0  0  0  0  0  0  0  0  0  0  0  0
  140.7666   73.1539  219.6378 H   0  0  0  0  0  0  0  0  0  0  0  0
  143.0095   71.8919  219.2765 H   0  0  0  0  0  0  0  0  0  0  0  0
  143.1157   71.7604  221.0645 H   0  0  0  0  0  0  0  0  0  0  0  0
  141.2417   70.4354  219.1353 H   0  0  0  0  0  0  0  0  0  0  0  0
  142.0155   69.7927  220.6201 H   0  0  0  0  0  0  0  0  0  0  0  0
  137.5452   71.4089  221.2558 H   0  0  0  0  0  0  0  0  0  0  0  0
  136.2360   70.4880  219.9290 H   0  0  0  0  0  0  0  0  0  0  0  0
  137.1750   69.1620  219.5730 H   0  0  0  0  0  0  0  0  0  0  0  0
  136.9389   69.2605  222.7985 H   0  0  0  0  0  0  0  0  0  0  0  0
  138.7851   67.9825  221.4903 H   0  0  0  0  0  0  0  0  0  0  0  0
  139.9842   69.0169  222.2635 H   0  0  0  0  0  0  0  0  0  0  0  0
  137.7835   67.5034  223.8556 H   0  0  0  0  0  0  0  0  0  0  0  0
  139.3640   66.7978  223.6122 H   0  0  0  0  0  0  0  0  0  0  0  0
  140.4294   67.0978  225.7554 H   0  0  0  0  0  0  0  0  0  0  0  0
  141.3263   68.6379  227.5153 H   0  0  0  0  0  0  0  0  0  0  0  0
  139.3052   71.9196  225.6101 H   0  0  0  0  0  0  0  0  0  0  0  0
  137.2431   70.9474  224.0759 H   0  0  0  0  0  0  0  0  0  0  0  0
  138.7284   71.5035  223.2044 H   0  0  0  0  0  0  0  0  0  0  0  0
  139.2015   72.1865  222.1961 H   0  0  0  0  0  0  0  0  0  0  0  0
  140.7348   71.4557  222.8838 H   0  0  0  0  0  0  0  0  0  0  0  0
  140.3253   74.0612  221.8171 H   0  0  0  0  0  0  0  0  0  0  0  0
  141.8115   73.3280  222.4919 H   0  0  0  0  0  0  0  0  0  0  0  0
  1  2  1  0
  2  3  1  0
  3  4  2  0
  3  5  1  0
  5  6  1  0
  6  7  2  0
  7  8  1  0
  8  9  2  0
  9 10  1  0
 10 11  2  0
  5 12  1  0
 12 13  1  0
 13 14  1  0
 14 15  1  0
 15 16  1  0
 16 17  2  0
 16 18  1  0
 18 19  1  0
 18 20  1  0
 20 21  1  0
 21 22  1  0
 22 23  1  0
 23 24  2  0
 24 25  1  0
 25 26  2  0
 26 27  1  0
 26 28  1  0
 28 29  2  0
 29 30  1  0
 15 31  1  0
 31 32  1  0
 11  6  1  0
 32 12  1  0
 30 20  1  0
 29 23  1  0
  1 33  1  0
  1 34  1  0
  1 35  1  0
  2 36  1  0
  2 37  1  0
  7 38  1  0
  8 39  1  0
  9 40  1  0
 10 41  1  0
 11 42  1  0
 12 43  1  0
 13 44  1  0
 13 45  1  0
 14 46  1  0
 14 47  1  0
 18 48  1  1
 19 49  1  0
 19 50  1  0
 20 51  1  1
 21 52  1  0
 21 53  1  0
 22 54  1  0
 22 55  1  0
 24 56  1  0
 25 57  1  0
 28 58  1  0
 30 59  1  0
 30 60  1  0
 31 61  1  0
 31 62  1  0
 32 63  1  0
 32 64  1  0
M  END
>  <smiles>  (83) 
CCC(=O)N(c1ccccc1)C1CCN(C(=O)[C@@H](N)C2CCc3ccc(Br)cc3C2)CC1

>  <score_type>  (83) 
oracle

>  <origin>  (83) 
autodockgpu

>  <m_score__min__energy>  (83) 
-9.2699999999999996

>  <m_primary>  (83) 
energy

>  <rmsd>  (83) 
9.120552359786377

>  <m_score__min__rmsd>  (83) 
9.120552359786377

>  <meeko>  (83) 
{"free_energy": -6.75, "intermolecular_energy": -8.84, "internal_energy": -2.4, "cluster_size": 2, "cluster_id": 11, "rank_in_cluster": 2}

>  <energy>  (83) 
-7.72

>  <cluster_rmsd>  (83) 
0.36

>  <cluster>  (83) 
5

$$$$

     RDKit          3D

 64 67  0  0  0  0  0  0  0  0999 V2000
  137.7030   67.5070  221.7520 C   0  0  0  0  0  0  0  0  0  0  0  0
  137.4200   68.3600  222.9710 C   0  0  0  0  0  0  0  0  0  0  0  0
  138.6470   68.3980  223.7980 C   0  0  0  0  0  0  0  0  0  0  0  0
  139.1660   67.2780  224.0890 O   0  0  0  0  0  0  0  0  0  0  0  0
  139.1840   69.6370  224.2210 N   0  0  0  0  0  0  0  0  0  0  0  0
  139.5880   69.7930  225.5990 C   0  0  0  0  0  0  0  0  0  0  0  0
  140.2480   70.9830  225.8820 C   0  0  0  0  0  0  0  0  0  0  0  0
  140.6800   71.2370  227.1690 C   0  0  0  0  0  0  0  0  0  0  0  0
  140.4310   70.2720  228.1500 C   0  0  0  0  0  0  0  0  0  0  0  0
  139.7740   69.0960  227.8510 C   0  0  0  0  0  0  0  0  0  0  0  0
  139.3360   68.8330  226.5480 C   0  0  0  0  0  0  0  0  0  0  0  0
  139.3550   70.7750  223.3440 C   0  0  0  0  0  0  0  0  0  0  0  0
  140.0900   70.2680  222.1010 C   0  0  0  0  0  0  0  0  0  0  0  0
  140.5380   71.4370  221.2740 C   0  0  0  0  0  0  0  0  0  0  0  0
  139.6240   72.5440  221.4830 N   0  0  0  0  0  0  0  0  0  0  0  0
  140.2080   73.8460  221.2780 C   0  0  0  0  0  0  0  0  0  0  0  0
  141.4480   73.8360  220.9870 O   0  0  0  0  0  0  0  0  0  0  0  0
  139.4700   75.1130  221.3860 C   0  0  1  0  0  0  0  0  0  0  0  0
  138.9960   75.3340  222.7520 N   0  0  0  0  0  0  0  0  0  0  0  0
  140.4030   76.2310  220.9730 C   0  0  1  0  0  0  0  0  0  0  0  0
  139.5670   77.1790  220.1190 C   0  0  0  0  0  0  0  0  0  0  0  0
  140.5900   78.1290  219.4760 C   0  0  0  0  0  0  0  0  0  0  0  0
  141.0370   78.9640  220.6390 C   0  0  0  0  0  0  0  0  0  0  0  0
  141.2340   80.3380  220.4650 C   0  0  0  0  0  0  0  0  0  0  0  0
  141.6490   81.1150  221.5460 C   0  0  0  0  0  0  0  0  0  0  0  0
  141.8600   80.5060  222.7760 C   0  0  0  0  0  0  0  0  0  0  0  0
  142.4280   81.6010  224.2310 Br  0  0  0  0  0  0  0  0  0  0  0  0
  141.6550   79.1430  222.9100 C   0  0  0  0  0  0  0  0  0  0  0  0
  141.2420   78.3490  221.8500 C   0  0  0  0  0  0  0  0  0  0  0  0
  141.0570   76.9100  222.1160 C   0  0  0  0  0  0  0  0  0  0  0  0
  138.2400   72.3920  221.8760 C   0  0  0  0  0  0  0  0  0  0  0  0
  138.0120   71.3560  222.9410 C   0  0  0  0  0  0  0  0  0  0  0  0
  138.0344   66.5082  222.0723 H   0  0  0  0  0  0  0  0  0  0  0  0
  136.7876   67.4138  221.1492 H   0  0  0  0  0  0  0  0  0  0  0  0
  138.4925   67.9795  221.1492 H   0  0  0  0  0  0  0  0  0  0  0  0
  137.1488   69.3792  222.6585 H   0  0  0  0  0  0  0  0  0  0  0  0
  136.5839   67.9372  223.5473 H   0  0  0  0  0  0  0  0  0  0  0  0
  140.4255   71.7194  225.0843 H   0  0  0  0  0  0  0  0  0  0  0  0
  141.2050   72.1717  227.4154 H   0  0  0  0  0  0  0  0  0  0  0  0
  140.7660   70.4543  229.1818 H   0  0  0  0  0  0  0  0  0  0  0  0
  139.5925   68.3571  228.6454 H   0  0  0  0  0  0  0  0  0  0  0  0
  138.8131   67.8988  226.2953 H   0  0  0  0  0  0  0  0  0  0  0  0
  139.9200   71.5694  223.8536 H   0  0  0  0  0  0  0  0  0  0  0  0
  140.9665   69.6786  222.4081 H   0  0  0  0  0  0  0  0  0  0  0  0
  139.4134   69.6361  221.5069 H   0  0  0  0  0  0  0  0  0  0  0  0
  141.5528   71.7349  221.5765 H   0  0  0  0  0  0  0  0  0  0  0  0
  140.5447   71.1576  220.2101 H   0  0  0  0  0  0  0  0  0  0  0  0
  138.5860   75.0819  220.7321 H   0  0  0  0  0  0  0  0  0  0  0  0
  138.0290   74.9300  222.7750 H   0  0  0  0  0  0  0  0  0  0  0  0
  139.5470   74.8240  223.4460 H   0  0  0  0  0  0  0  0  0  0  0  0
  141.2538   75.8296  220.4029 H   0  0  0  0  0  0  0  0  0  0  0  0
  139.0161   76.6219  219.3469 H   0  0  0  0  0  0  0  0  0  0  0  0
  138.8133   77.7181  220.7116 H   0  0  0  0  0  0  0  0  0  0  0  0
  141.4320   77.5705  219.0412 H   0  0  0  0  0  0  0  0  0  0  0  0
  140.1763   78.7206  218.6460 H   0  0  0  0  0  0  0  0  0  0  0  0
  141.0628   80.8021  219.4825 H   0  0  0  0  0  0  0  0  0  0  0  0
  141.8073   82.1969  221.4259 H   0  0  0  0  0  0  0  0  0  0  0  0
  141.8254   78.6739  223.8903 H   0  0  0  0  0  0  0  0  0  0  0  0
  142.0401   76.4489  222.2919 H   0  0  0  0  0  0  0  0  0  0  0  0
  140.4119   76.8005  223.0002 H   0  0  0  0  0  0  0  0  0  0  0  0
  137.8805   73.3604  222.2542 H   0  0  0  0  0  0  0  0  0  0  0  0
  137.6934   72.0534  220.9835 H   0  0  0  0  0  0  0  0  0  0  0  0
  137.5320   71.8214  223.8145 H   0  0  0  0  0  0  0  0  0  0  0  0
  137.3569   70.5598  222.5578 H   0  0  0  0  0  0  0  0  0  0  0  0
  1  2  1  0
  2  3  1  0
  3  4  2  0
  3  5  1  0
  5  6  1  0
  6  7  2  0
  7  8  1  0
  8  9  2  0
  9 10  1  0
 10 11  2  0
  5 12  1  0
 12 13  1  0
 13 14  1  0
 14 15  1  0
 15 16  1  0
 16 17  2  0
 16 18  1  0
 18 19  1  0
 18 20  1  0
 20 21  1  0
 21 22  1  0
 22 23  1  0
 23 24  2  0
 24 25  1  0
 25 26  2  0
 26 27  1  0
 26 28  1  0
 28 29  2  0
 29 30  1  0
 15 31  1  0
 31 32  1  0
 11  6  1  0
 32 12  1  0
 30 20  1  0
 29 23  1  0
  1 33  1  0
  1 34  1  0
  1 35  1  0
  2 36  1  0
  2 37  1  0
  7 38  1  0
  8 39  1  0
  9 40  1  0
 10 41  1  0
 11 42  1  0
 12 43  1  0
 13 44  1  0
 13 45  1  0
 14 46  1  0
 14 47  1  0
 18 48  1  6
 19 49  1  0
 19 50  1  0
 20 51  1  6
 21 52  1  0
 21 53  1  0
 22 54  1  0
 22 55  1  0
 24 56  1  0
 25 57  1  0
 28 58  1  0
 30 59  1  0
 30 60  1  0
 31 61  1  0
 31 62  1  0
 32 63  1  0
 32 64  1  0
M  END
>  <smiles>  (84) 
CCC(=O)N(c1ccccc1)C1CCN(C(=O)[C@@H](N)C2CCc3ccc(Br)cc3C2)CC1

>  <score_type>  (84) 
oracle

>  <origin>  (84) 
autodockgpu

>  <m_score__min__energy>  (84) 
-9.2699999999999996

>  <m_primary>  (84) 
energy

>  <rmsd>  (84) 
6.11710115544944

>  <m_score__min__rmsd>  (84) 
6.11710115544944

>  <meeko>  (84) 
{"free_energy": -8.71, "intermolecular_energy": -10.8, "internal_energy": -1.5, "cluster_size": 21, "cluster_id": 1, "rank_in_cluster": 6}

>  <energy>  (84) 
-7.22

>  <cluster_rmsd>  (84) 
0.0

>  <cluster>  (84) 
6

$$$$

     RDKit          3D

 64 67  0  0  0  0  0  0  0  0999 V2000
  136.2840   69.5880  224.9800 C   0  0  0  0  0  0  0  0  0  0  0  0
  137.0340   69.1490  223.7390 C   0  0  0  0  0  0  0  0  0  0  0  0
  138.4590   68.9770  224.1040 C   0  0  0  0  0  0  0  0  0  0  0  0
  138.9050   67.7900  224.0900 O   0  0  0  0  0  0  0  0  0  0  0  0
  139.2500   70.1010  224.4440 N   0  0  0  0  0  0  0  0  0  0  0  0
  139.8180   70.1840  225.7690 C   0  0  0  0  0  0  0  0  0  0  0  0
  139.5940   69.0690  226.5690 C   0  0  0  0  0  0  0  0  0  0  0  0
  140.0930   69.0390  227.8570 C   0  0  0  0  0  0  0  0  0  0  0  0
  140.8140   70.1480  228.3100 C   0  0  0  0  0  0  0  0  0  0  0  0
  141.0260   71.2470  227.5010 C   0  0  0  0  0  0  0  0  0  0  0  0
  140.5230   71.2820  226.1960 C   0  0  0  0  0  0  0  0  0  0  0  0
  139.5270   71.1880  223.5300 C   0  0  0  0  0  0  0  0  0  0  0  0
  140.2860   70.5860  222.3460 C   0  0  0  0  0  0  0  0  0  0  0  0
  140.8400   71.6910  221.4940 C   0  0  0  0  0  0  0  0  0  0  0  0
  139.9840   72.8560  221.6140 N   0  0  0  0  0  0  0  0  0  0  0  0
  140.6510   74.1130  221.3840 C   0  0  0  0  0  0  0  0  0  0  0  0
  141.9010   74.0200  221.1530 O   0  0  0  0  0  0  0  0  0  0  0  0
  139.9850   75.4230  221.4050 C   0  0  1  0  0  0  0  0  0  0  0  0
  139.4100   75.7030  222.7200 N   0  0  0  0  0  0  0  0  0  0  0  0
  141.0150   76.4750  221.0540 C   0  0  1  0  0  0  0  0  0  0  0  0
  140.9660   76.6190  219.5370 C   0  0  0  0  0  0  0  0  0  0  0  0
  142.2060   77.4560  219.1840 C   0  0  0  0  0  0  0  0  0  0  0  0
  141.8410   78.8150  219.7040 C   0  0  0  0  0  0  0  0  0  0  0  0
  142.1660   79.9500  218.9530 C   0  0  0  0  0  0  0  0  0  0  0  0
  141.8270   81.2130  219.4350 C   0  0  0  0  0  0  0  0  0  0  0  0
  141.1720   81.3180  220.6550 C   0  0  0  0  0  0  0  0  0  0  0  0
  140.7240   83.0640  221.2830 Br  0  0  0  0  0  0  0  0  0  0  0  0
  140.8660   80.1730  221.3700 C   0  0  0  0  0  0  0  0  0  0  0  0
  141.1920   78.9050  220.9120 C   0  0  0  0  0  0  0  0  0  0  0  0
  140.8150   77.7610  221.7620 C   0  0  0  0  0  0  0  0  0  0  0  0
  138.5760   72.8000  221.9460 C   0  0  0  0  0  0  0  0  0  0  0  0
  138.2390   71.8260  223.0400 C   0  0  0  0  0  0  0  0  0  0  0  0
  136.8356   69.2651  225.8752 H   0  0  0  0  0  0  0  0  0  0  0  0
  136.1896   70.6839  224.9829 H   0  0  0  0  0  0  0  0  0  0  0  0
  135.2822   69.1337  224.9829 H   0  0  0  0  0  0  0  0  0  0  0  0
  136.6246   68.1960  223.3726 H   0  0  0  0  0  0  0  0  0  0  0  0
  136.9309   69.9015  222.9433 H   0  0  0  0  0  0  0  0  0  0  0  0
  139.0220   68.2146  226.1781 H   0  0  0  0  0  0  0  0  0  0  0  0
  139.9278   68.1675  228.5075 H   0  0  0  0  0  0  0  0  0  0  0  0
  141.2208   70.1451  229.3320 H   0  0  0  0  0  0  0  0  0  0  0  0
  141.5968   72.1045  227.8870 H   0  0  0  0  0  0  0  0  0  0  0  0
  140.6852   72.1508  225.5410 H   0  0  0  0  0  0  0  0  0  0  0  0
  140.1141   71.9709  224.0323 H   0  0  0  0  0  0  0  0  0  0  0  0
  141.1111   69.9612  222.7186 H   0  0  0  0  0  0  0  0  0  0  0  0
  139.6009   69.9685  221.7465 H   0  0  0  0  0  0  0  0  0  0  0  0
  141.8557   71.9435  221.8325 H   0  0  0  0  0  0  0  0  0  0  0  0
  140.8792   71.3659  220.4439 H   0  0  0  0  0  0  0  0  0  0  0  0
  139.1601   75.4283  220.6774 H   0  0  0  0  0  0  0  0  0  0  0  0
  139.0780   74.7750  223.0780 H   0  0  0  0  0  0  0  0  0  0  0  0
  140.1050   76.0460  223.3880 H   0  0  0  0  0  0  0  0  0  0  0  0
  142.0139   76.1599  221.3901 H   0  0  0  0  0  0  0  0  0  0  0  0
  141.0128   75.6328  219.0521 H   0  0  0  0  0  0  0  0  0  0  0  0
  140.0337   77.0913  219.1938 H   0  0  0  0  0  0  0  0  0  0  0  0
  143.1041   77.0667  219.6858 H   0  0  0  0  0  0  0  0  0  0  0  0
  142.4487   77.4483  218.1111 H   0  0  0  0  0  0  0  0  0  0  0  0
  142.6854   79.8462  217.9889 H   0  0  0  0  0  0  0  0  0  0  0  0
  142.0751   82.1151  218.8565 H   0  0  0  0  0  0  0  0  0  0  0  0
  140.3465   80.2720  222.3345 H   0  0  0  0  0  0  0  0  0  0  0  0
  141.4351   77.7700  222.6705 H   0  0  0  0  0  0  0  0  0  0  0  0
  139.7491   77.8546  222.0172 H   0  0  0  0  0  0  0  0  0  0  0  0
  138.2571   73.8027  222.2666 H   0  0  0  0  0  0  0  0  0  0  0  0
  138.0519   72.4544  221.0427 H   0  0  0  0  0  0  0  0  0  0  0  0
  137.7479   72.3553  223.8698 H   0  0  0  0  0  0  0  0  0  0  0  0
  137.5561   71.0524  222.6590 H   0  0  0  0  0  0  0  0  0  0  0  0
  1  2  1  0
  2  3  1  0
  3  4  2  0
  3  5  1  0
  5  6  1  0
  6  7  2  0
  7  8  1  0
  8  9  2  0
  9 10  1  0
 10 11  2  0
  5 12  1  0
 12 13  1  0
 13 14  1  0
 14 15  1  0
 15 16  1  0
 16 17  2  0
 16 18  1  0
 18 19  1  0
 18 20  1  0
 20 21  1  0
 21 22  1  0
 22 23  1  0
 23 24  2  0
 24 25  1  0
 25 26  2  0
 26 27  1  0
 26 28  1  0
 28 29  2  0
 29 30  1  0
 15 31  1  0
 31 32  1  0
 11  6  1  0
 32 12  1  0
 30 20  1  0
 29 23  1  0
  1 33  1  0
  1 34  1  0
  1 35  1  0
  2 36  1  0
  2 37  1  0
  7 38  1  0
  8 39  1  0
  9 40  1  0
 10 41  1  0
 11 42  1  0
 12 43  1  0
 13 44  1  0
 13 45  1  0
 14 46  1  0
 14 47  1  0
 18 48  1  6
 19 49  1  0
 19 50  1  0
 20 51  1  6
 21 52  1  0
 21 53  1  0
 22 54  1  0
 22 55  1  0
 24 56  1  0
 25 57  1  0
 28 58  1  0
 30 59  1  0
 30 60  1  0
 31 61  1  0
 31 62  1  0
 32 63  1  0
 32 64  1  0
M  END
>  <smiles>  (85) 
CCC(=O)N(c1ccccc1)C1CCN(C(=O)[C@@H](N)C2CCc3ccc(Br)cc3C2)CC1

>  <score_type>  (85) 
oracle

>  <origin>  (85) 
autodockgpu

>  <m_score__min__energy>  (85) 
-9.2699999999999996

>  <m_primary>  (85) 
energy

>  <rmsd>  (85) 
5.703304133396584

>  <m_score__min__rmsd>  (85) 
5.703304133396584

>  <meeko>  (85) 
{"free_energy": -8.46, "intermolecular_energy": -10.55, "internal_energy": -1.46, "cluster_size": 21, "cluster_id": 1, "rank_in_cluster": 14}

>  <energy>  (85) 
-7.17

>  <cluster_rmsd>  (85) 
0.0

>  <cluster>  (85) 
7

$$$$

     RDKit          3D

 64 67  0  0  0  0  0  0  0  0999 V2000
  136.3710   68.5370  223.0950 C   0  0  0  0  0  0  0  0  0  0  0  0
  136.8340   68.9130  224.4870 C   0  0  0  0  0  0  0  0  0  0  0  0
  138.3150   68.9040  224.4940 C   0  0  0  0  0  0  0  0  0  0  0  0
  138.8730   67.7990  224.2150 O   0  0  0  0  0  0  0  0  0  0  0  0
  139.0350   70.0840  224.8000 N   0  0  0  0  0  0  0  0  0  0  0  0
  139.7560   70.1610  226.0490 C   0  0  0  0  0  0  0  0  0  0  0  0
  140.3470   71.3930  226.3040 C   0  0  0  0  0  0  0  0  0  0  0  0
  141.0630   71.5810  227.4710 C   0  0  0  0  0  0  0  0  0  0  0  0
  141.1630   70.5080  228.3610 C   0  0  0  0  0  0  0  0  0  0  0  0
  140.5690   69.2910  228.0910 C   0  0  0  0  0  0  0  0  0  0  0  0
  139.8440   69.0960  226.9100 C   0  0  0  0  0  0  0  0  0  0  0  0
  139.0920   71.2330  223.9230 C   0  0  0  0  0  0  0  0  0  0  0  0
  140.2230   70.9720  222.9260 C   0  0  0  0  0  0  0  0  0  0  0  0
  140.5160   72.2310  222.1630 C   0  0  0  0  0  0  0  0  0  0  0  0
  139.3070   73.0290  222.0810 N   0  0  0  0  0  0  0  0  0  0  0  0
  139.5360   74.4450  221.9450 C   0  0  0  0  0  0  0  0  0  0  0  0
  140.7610   74.7930  221.9620 O   0  0  0  0  0  0  0  0  0  0  0  0
  138.4700   75.4480  221.7980 C   0  0  1  0  0  0  0  0  0  0  0  0
  138.1060   76.0260  223.0910 N   0  0  0  0  0  0  0  0  0  0  0  0
  138.9760   76.5300  220.8690 C   0  0  1  0  0  0  0  0  0  0  0  0
  139.9400   77.3740  221.6960 C   0  0  0  0  0  0  0  0  0  0  0  0
  140.2050   78.6200  220.8360 C   0  0  0  0  0  0  0  0  0  0  0  0
  141.0440   78.0740  219.7190 C   0  0  0  0  0  0  0  0  0  0  0  0
  142.1320   78.8170  219.2480 C   0  0  0  0  0  0  0  0  0  0  0  0
  142.9130   78.3100  218.2110 C   0  0  0  0  0  0  0  0  0  0  0  0
  142.5920   77.0740  217.6640 C   0  0  0  0  0  0  0  0  0  0  0  0
  143.6830   76.4130  216.2450 Br  0  0  0  0  0  0  0  0  0  0  0  0
  141.5080   76.3670  218.1560 C   0  0  0  0  0  0  0  0  0  0  0  0
  140.7160   76.8500  219.1880 C   0  0  0  0  0  0  0  0  0  0  0  0
  139.5890   76.0060  219.6260 C   0  0  0  0  0  0  0  0  0  0  0  0
  137.9680   72.4820  222.1380 C   0  0  0  0  0  0  0  0  0  0  0  0
  137.7830   71.4120  223.1770 C   0  0  0  0  0  0  0  0  0  0  0  0
  135.5189   67.8450  223.1664 H   0  0  0  0  0  0  0  0  0  0  0  0
  136.0627   69.4436  222.5537 H   0  0  0  0  0  0  0  0  0  0  0  0
  137.1951   68.0492  222.5537 H   0  0  0  0  0  0  0  0  0  0  0  0
  136.4655   69.9169  224.7447 H   0  0  0  0  0  0  0  0  0  0  0  0
  136.4437   68.1978  225.2260 H   0  0  0  0  0  0  0  0  0  0  0  0
  140.2452   72.2148  225.5800 H   0  0  0  0  0  0  0  0  0  0  0  0
  141.5403   72.5469  227.6929 H   0  0  0  0  0  0  0  0  0  0  0  0
  141.7270   70.6357  229.2967 H   0  0  0  0  0  0  0  0  0  0  0  0
  140.6668   68.4660  228.8120 H   0  0  0  0  0  0  0  0  0  0  0  0
  139.3659   68.1319  226.6820 H   0  0  0  0  0  0  0  0  0  0  0  0
  139.2685   72.1500  224.5044 H   0  0  0  0  0  0  0  0  0  0  0  0
  141.1250   70.6539  223.4694 H   0  0  0  0  0  0  0  0  0  0  0  0
  139.9195   70.1802  222.2254 H   0  0  0  0  0  0  0  0  0  0  0  0
  141.2998   72.8022  222.6820 H   0  0  0  0  0  0  0  0  0  0  0  0
  140.8625   71.9782  221.1500 H   0  0  0  0  0  0  0  0  0  0  0  0
  137.5684   74.9712  221.3860 H   0  0  0  0  0  0  0  0  0  0  0  0
  137.3270   75.4230  223.4510 H   0  0  0  0  0  0  0  0  0  0  0  0
  138.8650   75.9700  223.7740 H   0  0  0  0  0  0  0  0  0  0  0  0
  138.1381   77.1368  220.4953 H   0  0  0  0  0  0  0  0  0  0  0  0
  139.4832   77.6555  222.6563 H   0  0  0  0  0  0  0  0  0  0  0  0
  140.8656   76.8312  221.9381 H   0  0  0  0  0  0  0  0  0  0  0  0
  139.2655   79.0467  220.4550 H   0  0  0  0  0  0  0  0  0  0  0  0
  140.6906   79.4378  221.3885 H   0  0  0  0  0  0  0  0  0  0  0  0
  142.3693   79.7945  219.6931 H   0  0  0  0  0  0  0  0  0  0  0  0
  143.7726   78.8812  217.8305 H   0  0  0  0  0  0  0  0  0  0  0  0
  141.2664   75.3892  217.7138 H   0  0  0  0  0  0  0  0  0  0  0  0
  138.8277   75.9845  218.8323 H   0  0  0  0  0  0  0  0  0  0  0  0
  139.9703   74.9939  219.8266 H   0  0  0  0  0  0  0  0  0  0  0  0
  137.2695   73.3023  222.3595 H   0  0  0  0  0  0  0  0  0  0  0  0
  137.7772   72.0113  221.1623 H   0  0  0  0  0  0  0  0  0  0  0  0
  136.9927   71.7114  223.8811 H   0  0  0  0  0  0  0  0  0  0  0  0
  137.4912   70.4666  222.6963 H   0  0  0  0  0  0  0  0  0  0  0  0
  1  2  1  0
  2  3  1  0
  3  4  2  0
  3  5  1  0
  5  6  1  0
  6  7  2  0
  7  8  1  0
  8  9  2  0
  9 10  1  0
 10 11  2  0
  5 12  1  0
 12 13  1  0
 13 14  1  0
 14 15  1  0
 15 16  1  0
 16 17  2  0
 16 18  1  0
 18 19  1  0
 18 20  1  0
 20 21  1  0
 21 22  1  0
 22 23  1  0
 23 24  2  0
 24 25  1  0
 25 26  2  0
 26 27  1  0
 26 28  1  0
 28 29  2  0
 29 30  1  0
 15 31  1  0
 31 32  1  0
 11  6  1  0
 32 12  1  0
 30 20  1  0
 29 23  1  0
  1 33  1  0
  1 34  1  0
  1 35  1  0
  2 36  1  0
  2 37  1  0
  7 38  1  0
  8 39  1  0
  9 40  1  0
 10 41  1  0
 11 42  1  0
 12 43  1  0
 13 44  1  0
 13 45  1  0
 14 46  1  0
 14 47  1  0
 18 48  1  6
 19 49  1  0
 19 50  1  0
 20 51  1  6
 21 52  1  0
 21 53  1  0
 22 54  1  0
 22 55  1  0
 24 56  1  0
 25 57  1  0
 28 58  1  0
 30 59  1  0
 30 60  1  0
 31 61  1  0
 31 62  1  0
 32 63  1  0
 32 64  1  0
M  END
>  <smiles>  (86) 
CCC(=O)N(c1ccccc1)C1CCN(C(=O)[C@@H](N)C2CCc3ccc(Br)cc3C2)CC1

>  <score_type>  (86) 
oracle

>  <origin>  (86) 
autodockgpu

>  <m_score__min__energy>  (86) 
-9.2699999999999996

>  <m_primary>  (86) 
energy

>  <rmsd>  (86) 
6.687654026941878

>  <m_score__min__rmsd>  (86) 
6.687654026941878

>  <meeko>  (86) 
{"free_energy": -7.84, "intermolecular_energy": -9.93, "internal_energy": -1.52, "cluster_size": 2, "cluster_id": 5, "rank_in_cluster": 1}

>  <energy>  (86) 
-7.16

>  <cluster_rmsd>  (86) 
0.53

>  <cluster>  (86) 
7

$$$$

     RDKit          3D

 64 67  0  0  0  0  0  0  0  0999 V2000
  138.1010   67.3100  222.0460 C   0  0  0  0  0  0  0  0  0  0  0  0
  137.6690   68.3440  223.0650 C   0  0  0  0  0  0  0  0  0  0  0  0
  138.7580   68.4890  224.0580 C   0  0  0  0  0  0  0  0  0  0  0  0
  139.1900   67.4170  224.5810 O   0  0  0  0  0  0  0  0  0  0  0  0
  139.2650   69.7710  224.3790 N   0  0  0  0  0  0  0  0  0  0  0  0
  139.7380   70.0220  225.7210 C   0  0  0  0  0  0  0  0  0  0  0  0
  139.2160   69.1730  226.6900 C   0  0  0  0  0  0  0  0  0  0  0  0
  139.5990   69.3220  228.0090 C   0  0  0  0  0  0  0  0  0  0  0  0
  140.5100   70.3360  228.3200 C   0  0  0  0  0  0  0  0  0  0  0  0
  141.0180   71.1700  227.3440 C   0  0  0  0  0  0  0  0  0  0  0  0
  140.6320   71.0230  226.0060 C   0  0  0  0  0  0  0  0  0  0  0  0
  139.3390   70.8610  223.4310 C   0  0  0  0  0  0  0  0  0  0  0  0
  139.9470   70.2900  222.1480 C   0  0  0  0  0  0  0  0  0  0  0  0
  140.3020   71.4150  221.2200 C   0  0  0  0  0  0  0  0  0  0  0  0
  139.4070   72.5310  221.4640 N   0  0  0  0  0  0  0  0  0  0  0  0
  139.9590   73.8200  221.1330 C   0  0  0  0  0  0  0  0  0  0  0  0
  141.1640   73.7960  220.7180 O   0  0  0  0  0  0  0  0  0  0  0  0
  139.2280   75.0910  221.2490 C   0  0  1  0  0  0  0  0  0  0  0  0
  138.7700   75.3130  222.6200 N   0  0  0  0  0  0  0  0  0  0  0  0
  140.1620   76.2050  220.8270 C   0  0  1  0  0  0  0  0  0  0  0  0
  139.2960   77.2180  220.0870 C   0  0  0  0  0  0  0  0  0  0  0  0
  140.2980   78.1740  219.4200 C   0  0  0  0  0  0  0  0  0  0  0  0
  140.8520   78.9340  220.5890 C   0  0  0  0  0  0  0  0  0  0  0  0
  141.0770   80.3100  220.4720 C   0  0  0  0  0  0  0  0  0  0  0  0
  141.5910   81.0170  221.5570 C   0  0  0  0  0  0  0  0  0  0  0  0
  141.8710   80.3380  222.7360 C   0  0  0  0  0  0  0  0  0  0  0  0
  142.5740   81.3390  224.2000 Br  0  0  0  0  0  0  0  0  0  0  0  0
  141.6350   78.9760  222.8150 C   0  0  0  0  0  0  0  0  0  0  0  0
  141.1240   78.2500  221.7490 C   0  0  0  0  0  0  0  0  0  0  0  0
  140.9170   76.8050  221.9530 C   0  0  0  0  0  0  0  0  0  0  0  0
  138.0700   72.3980  222.0020 C   0  0  0  0  0  0  0  0  0  0  0  0
  137.9580   71.4190  223.1380 C   0  0  0  0  0  0  0  0  0  0  0  0
  138.4745   66.4159  222.5666 H   0  0  0  0  0  0  0  0  0  0  0  0
  137.2424   67.0353  221.4157 H   0  0  0  0  0  0  0  0  0  0  0  0
  138.8998   67.7278  221.4157 H   0  0  0  0  0  0  0  0  0  0  0  0
  137.4880   69.3074  222.5659 H   0  0  0  0  0  0  0  0  0  0  0  0
  136.7391   68.0278  223.5603 H   0  0  0  0  0  0  0  0  0  0  0  0
  138.5011   68.3860  226.4079 H   0  0  0  0  0  0  0  0  0  0  0  0
  139.1986   68.6616  228.7923 H   0  0  0  0  0  0  0  0  0  0  0  0
  140.8286   70.4721  229.3640 H   0  0  0  0  0  0  0  0  0  0  0  0
  141.7336   71.9584  227.6204 H   0  0  0  0  0  0  0  0  0  0  0  0
  141.0280   71.6809  225.2184 H   0  0  0  0  0  0  0  0  0  0  0  0
  139.9483   71.6817  223.8375 H   0  0  0  0  0  0  0  0  0  0  0  0
  140.8536   69.7179  222.3947 H   0  0  0  0  0  0  0  0  0  0  0  0
  139.2175   69.6274  221.6594 H   0  0  0  0  0  0  0  0  0  0  0  0
  141.3405   71.7289  221.4017 H   0  0  0  0  0  0  0  0  0  0  0  0
  140.2024   71.0808  220.1767 H   0  0  0  0  0  0  0  0  0  0  0  0
  138.3373   75.0648  220.6041 H   0  0  0  0  0  0  0  0  0  0  0  0
  138.0040   74.6130  222.7700 H   0  0  0  0  0  0  0  0  0  0  0  0
  139.4940   75.1130  223.3140 H   0  0  0  0  0  0  0  0  0  0  0  0
  140.9574   75.8127  220.1763 H   0  0  0  0  0  0  0  0  0  0  0  0
  138.6745   76.7174  219.3300 H   0  0  0  0  0  0  0  0  0  0  0  0
  138.6034   77.7443  220.7603 H   0  0  0  0  0  0  0  0  0  0  0  0
  141.0897   77.6178  218.8966 H   0  0  0  0  0  0  0  0  0  0  0  0
  139.8438   78.8194  218.6538 H   0  0  0  0  0  0  0  0  0  0  0  0
  140.8496   80.8301  219.5298 H   0  0  0  0  0  0  0  0  0  0  0  0
  141.7728   82.0992  221.4809 H   0  0  0  0  0  0  0  0  0  0  0  0
  141.8604   78.4516  223.7553 H   0  0  0  0  0  0  0  0  0  0  0  0
  141.8963   76.3103  222.0318 H   0  0  0  0  0  0  0  0  0  0  0  0
  140.3348   76.6644  222.8756 H   0  0  0  0  0  0  0  0  0  0  0  0
  137.7436   73.3844  222.3631 H   0  0  0  0  0  0  0  0  0  0  0  0
  137.4384   72.0121  221.1883 H   0  0  0  0  0  0  0  0  0  0  0  0
  137.5670   71.9294  224.0305 H   0  0  0  0  0  0  0  0  0  0  0  0
  137.2718   70.6033  222.8663 H   0  0  0  0  0  0  0  0  0  0  0  0
  1  2  1  0
  2  3  1  0
  3  4  2  0
  3  5  1  0
  5  6  1  0
  6  7  2  0
  7  8  1  0
  8  9  2  0
  9 10  1  0
 10 11  2  0
  5 12  1  0
 12 13  1  0
 13 14  1  0
 14 15  1  0
 15 16  1  0
 16 17  2  0
 16 18  1  0
 18 19  1  0
 18 20  1  0
 20 21  1  0
 21 22  1  0
 22 23  1  0
 23 24  2  0
 24 25  1  0
 25 26  2  0
 26 27  1  0
 26 28  1  0
 28 29  2  0
 29 30  1  0
 15 31  1  0
 31 32  1  0
 11  6  1  0
 32 12  1  0
 30 20  1  0
 29 23  1  0
  1 33  1  0
  1 34  1  0
  1 35  1  0
  2 36  1  0
  2 37  1  0
  7 38  1  0
  8 39  1  0
  9 40  1  0
 10 41  1  0
 11 42  1  0
 12 43  1  0
 13 44  1  0
 13 45  1  0
 14 46  1  0
 14 47  1  0
 18 48  1  6
 19 49  1  0
 19 50  1  0
 20 51  1  6
 21 52  1  0
 21 53  1  0
 22 54  1  0
 22 55  1  0
 24 56  1  0
 25 57  1  0
 28 58  1  0
 30 59  1  0
 30 60  1  0
 31 61  1  0
 31 62  1  0
 32 63  1  0
 32 64  1  0
M  END
>  <smiles>  (87) 
CCC(=O)N(c1ccccc1)C1CCN(C(=O)[C@@H](N)C2CCc3ccc(Br)cc3C2)CC1

>  <score_type>  (87) 
oracle

>  <origin>  (87) 
autodockgpu

>  <m_score__min__energy>  (87) 
-9.2699999999999996

>  <m_primary>  (87) 
energy

>  <rmsd>  (87) 
6.129831504522312

>  <m_score__min__rmsd>  (87) 
6.129831504522312

>  <meeko>  (87) 
{"free_energy": -9.18, "intermolecular_energy": -11.27, "internal_energy": -1.34, "cluster_size": 21, "cluster_id": 1, "rank_in_cluster": 4}

>  <energy>  (87) 
-7.15

>  <cluster_rmsd>  (87) 
0.71

>  <cluster>  (87) 
7

$$$$

     RDKit          3D

 64 67  0  0  0  0  0  0  0  0999 V2000
  138.7550   67.4770  222.8390 C   0  0  0  0  0  0  0  0  0  0  0  0
  139.1870   67.7870  224.2570 C   0  0  0  0  0  0  0  0  0  0  0  0
  138.4980   69.0250  224.6850 C   0  0  0  0  0  0  0  0  0  0  0  0
  137.2670   68.9170  224.9680 O   0  0  0  0  0  0  0  0  0  0  0  0
  139.2090   70.2470  224.7620 N   0  0  0  0  0  0  0  0  0  0  0  0
  139.9290   70.5640  225.9740 C   0  0  0  0  0  0  0  0  0  0  0  0
  139.7810   69.6360  226.9980 C   0  0  0  0  0  0  0  0  0  0  0  0
  140.4250   69.8380  228.2040 C   0  0  0  0  0  0  0  0  0  0  0  0
  141.2120   70.9850  228.3450 C   0  0  0  0  0  0  0  0  0  0  0  0
  141.3480   71.8960  227.3170 C   0  0  0  0  0  0  0  0  0  0  0  0
  140.6970   71.6960  226.0940 C   0  0  0  0  0  0  0  0  0  0  0  0
  139.2580   71.2120  223.6850 C   0  0  0  0  0  0  0  0  0  0  0  0
  139.9930   70.5400  222.5230 C   0  0  0  0  0  0  0  0  0  0  0  0
  140.3170   71.5660  221.4770 C   0  0  0  0  0  0  0  0  0  0  0  0
  139.3220   72.6210  221.5230 N   0  0  0  0  0  0  0  0  0  0  0  0
  139.7910   73.9020  221.0580 C   0  0  0  0  0  0  0  0  0  0  0  0
  141.0170   73.9320  220.7160 O   0  0  0  0  0  0  0  0  0  0  0  0
  138.9540   75.1090  220.9670 C   0  0  1  0  0  0  0  0  0  0  0  0
  138.3270   75.4150  222.2520 N   0  0  0  0  0  0  0  0  0  0  0  0
  139.8410   76.2570  220.5350 C   0  0  1  0  0  0  0  0  0  0  0  0
  138.8970   77.3630  220.0750 C   0  0  0  0  0  0  0  0  0  0  0  0
  139.8050   78.3840  219.3730 C   0  0  0  0  0  0  0  0  0  0  0  0
  140.5650   78.9880  220.5180 C   0  0  0  0  0  0  0  0  0  0  0  0
  140.8090   80.3650  220.5320 C   0  0  0  0  0  0  0  0  0  0  0  0
  141.5140   80.9270  221.5960 C   0  0  0  0  0  0  0  0  0  0  0  0
  141.9610   80.1040  222.6210 C   0  0  0  0  0  0  0  0  0  0  0  0
  142.9220   80.9080  224.0590 Br  0  0  0  0  0  0  0  0  0  0  0  0
  141.7000   78.7450  222.5730 C   0  0  0  0  0  0  0  0  0  0  0  0
  141.0010   78.1620  221.5250 C   0  0  0  0  0  0  0  0  0  0  0  0
  140.7860   76.7050  221.5850 C   0  0  0  0  0  0  0  0  0  0  0  0
  137.9680   72.4400  222.0000 C   0  0  0  0  0  0  0  0  0  0  0  0
  137.8600   71.6060  223.2460 C   0  0  0  0  0  0  0  0  0  0  0  0
  137.8615   66.8358  222.8598 H   0  0  0  0  0  0  0  0  0  0  0  0
  138.5212   68.4147  222.3136 H   0  0  0  0  0  0  0  0  0  0  0  0
  139.5685   66.9553  222.3136 H   0  0  0  0  0  0  0  0  0  0  0  0
  138.9089   66.9561  224.9220 H   0  0  0  0  0  0  0  0  0  0  0  0
  140.2778   67.9214  224.3033 H   0  0  0  0  0  0  0  0  0  0  0  0
  139.1540   68.7446  226.8492 H   0  0  0  0  0  0  0  0  0  0  0  0
  140.3215   69.1175  229.0287 H   0  0  0  0  0  0  0  0  0  0  0  0
  141.7343   71.1654  229.2961 H   0  0  0  0  0  0  0  0  0  0  0  0
  141.9746   72.7887  227.4603 H   0  0  0  0  0  0  0  0  0  0  0  0
  140.7962   72.4135  225.2661 H   0  0  0  0  0  0  0  0  0  0  0  0
  139.7716   72.1274  224.0141 H   0  0  0  0  0  0  0  0  0  0  0  0
  140.9243   70.0854  222.8918 H   0  0  0  0  0  0  0  0  0  0  0  0
  139.3527   69.7597  222.0858 H   0  0  0  0  0  0  0  0  0  0  0  0
  141.3129   71.9901  221.6729 H   0  0  0  0  0  0  0  0  0  0  0  0
  140.3130   71.0957  220.4826 H   0  0  0  0  0  0  0  0  0  0  0  0
  138.1466   74.9449  220.2382 H   0  0  0  0  0  0  0  0  0  0  0  0
  138.6310   74.6450  222.8960 H   0  0  0  0  0  0  0  0  0  0  0  0
  138.6680   76.2910  222.6570 H   0  0  0  0  0  0  0  0  0  0  0  0
  140.5087   75.9403  219.7202 H   0  0  0  0  0  0  0  0  0  0  0  0
  138.1463   76.9662  219.3757 H   0  0  0  0  0  0  0  0  0  0  0  0
  138.3390   77.8085  220.9117 H   0  0  0  0  0  0  0  0  0  0  0  0
  140.4838   77.8894  218.6627 H   0  0  0  0  0  0  0  0  0  0  0  0
  139.2516   79.1241  218.7763 H   0  0  0  0  0  0  0  0  0  0  0  0
  140.4475   81.0001  219.7098 H   0  0  0  0  0  0  0  0  0  0  0  0
  141.7134   82.0084  221.6228 H   0  0  0  0  0  0  0  0  0  0  0  0
  142.0587   78.1057  223.3932 H   0  0  0  0  0  0  0  0  0  0  0  0
  141.7496   76.1943  221.4415 H   0  0  0  0  0  0  0  0  0  0  0  0
  140.3570   76.4573  222.5671 H   0  0  0  0  0  0  0  0  0  0  0  0
  137.5410   73.4316  222.2105 H   0  0  0  0  0  0  0  0  0  0  0  0
  137.4242   71.9007  221.2105 H   0  0  0  0  0  0  0  0  0  0  0  0
  137.3719   72.1886  224.0412 H   0  0  0  0  0  0  0  0  0  0  0  0
  137.2603   70.7058  223.0459 H   0  0  0  0  0  0  0  0  0  0  0  0
  1  2  1  0
  2  3  1  0
  3  4  2  0
  3  5  1  0
  5  6  1  0
  6  7  2  0
  7  8  1  0
  8  9  2  0
  9 10  1  0
 10 11  2  0
  5 12  1  0
 12 13  1  0
 13 14  1  0
 14 15  1  0
 15 16  1  0
 16 17  2  0
 16 18  1  0
 18 19  1  0
 18 20  1  0
 20 21  1  0
 21 22  1  0
 22 23  1  0
 23 24  2  0
 24 25  1  0
 25 26  2  0
 26 27  1  0
 26 28  1  0
 28 29  2  0
 29 30  1  0
 15 31  1  0
 31 32  1  0
 11  6  1  0
 32 12  1  0
 30 20  1  0
 29 23  1  0
  1 33  1  0
  1 34  1  0
  1 35  1  0
  2 36  1  0
  2 37  1  0
  7 38  1  0
  8 39  1  0
  9 40  1  0
 10 41  1  0
 11 42  1  0
 12 43  1  0
 13 44  1  0
 13 45  1  0
 14 46  1  0
 14 47  1  0
 18 48  1  6
 19 49  1  0
 19 50  1  0
 20 51  1  6
 21 52  1  0
 21 53  1  0
 22 54  1  0
 22 55  1  0
 24 56  1  0
 25 57  1  0
 28 58  1  0
 30 59  1  0
 30 60  1  0
 31 61  1  0
 31 62  1  0
 32 63  1  0
 32 64  1  0
M  END
>  <smiles>  (88) 
CCC(=O)N(c1ccccc1)C1CCN(C(=O)[C@@H](N)C2CCc3ccc(Br)cc3C2)CC1

>  <score_type>  (88) 
oracle

>  <origin>  (88) 
autodockgpu

>  <m_score__min__energy>  (88) 
-9.2699999999999996

>  <m_primary>  (88) 
energy

>  <rmsd>  (88) 
6.138548245629054

>  <m_score__min__rmsd>  (88) 
6.138548245629054

>  <meeko>  (88) 
{"free_energy": -8.22, "intermolecular_energy": -10.31, "internal_energy": -1.59, "cluster_size": 21, "cluster_id": 1, "rank_in_cluster": 20}

>  <energy>  (88) 
-7.09

>  <cluster_rmsd>  (88) 
0.65

>  <cluster>  (88) 
7

$$$$

     RDKit          3D

 64 67  0  0  0  0  0  0  0  0999 V2000
  136.1450   69.2980  224.9490 C   0  0  0  0  0  0  0  0  0  0  0  0
  137.1820   68.8280  223.9500 C   0  0  0  0  0  0  0  0  0  0  0  0
  138.5040   68.8530  224.6160 C   0  0  0  0  0  0  0  0  0  0  0  0
  138.9450   67.7410  225.0350 O   0  0  0  0  0  0  0  0  0  0  0  0
  139.2080   70.0730  224.7580 N   0  0  0  0  0  0  0  0  0  0  0  0
  139.8290   70.3800  226.0260 C   0  0  0  0  0  0  0  0  0  0  0  0
  140.6200   71.5220  226.0240 C   0  0  0  0  0  0  0  0  0  0  0  0
  141.2640   71.9120  227.1840 C   0  0  0  0  0  0  0  0  0  0  0  0
  141.0880   71.1290  228.3290 C   0  0  0  0  0  0  0  0  0  0  0  0
  140.2980   69.9970  228.3110 C   0  0  0  0  0  0  0  0  0  0  0  0
  139.6450   69.5990  227.1390 C   0  0  0  0  0  0  0  0  0  0  0  0
  139.3450   71.0450  223.6950 C   0  0  0  0  0  0  0  0  0  0  0  0
  139.9240   70.3020  222.4900 C   0  0  0  0  0  0  0  0  0  0  0  0
  140.3430   71.2940  221.4450 C   0  0  0  0  0  0  0  0  0  0  0  0
  139.5110   72.4780  221.5550 N   0  0  0  0  0  0  0  0  0  0  0  0
  140.1340   73.6900  221.0870 C   0  0  0  0  0  0  0  0  0  0  0  0
  141.3360   73.5540  220.6880 O   0  0  0  0  0  0  0  0  0  0  0  0
  139.4750   75.0040  221.0550 C   0  0  1  0  0  0  0  0  0  0  0  0
  138.8240   75.3000  222.3310 N   0  0  0  0  0  0  0  0  0  0  0  0
  140.5300   76.0470  220.7570 C   0  0  1  0  0  0  0  0  0  0  0  0
  139.8770   77.0410  219.8020 C   0  0  0  0  0  0  0  0  0  0  0  0
  141.0370   77.9070  219.2860 C   0  0  0  0  0  0  0  0  0  0  0  0
  141.3970   78.7230  220.4920 C   0  0  0  0  0  0  0  0  0  0  0  0
  141.7140   80.0770  220.3380 C   0  0  0  0  0  0  0  0  0  0  0  0
  142.0470   80.8370  221.4580 C   0  0  0  0  0  0  0  0  0  0  0  0
  142.0600   80.2300  222.7080 C   0  0  0  0  0  0  0  0  0  0  0  0
  142.5220   81.3010  224.2180 Br  0  0  0  0  0  0  0  0  0  0  0  0
  141.7410   78.8880  222.8220 C   0  0  0  0  0  0  0  0  0  0  0  0
  141.4060   78.1110  221.7220 C   0  0  0  0  0  0  0  0  0  0  0  0
  141.0860   76.6930  221.9690 C   0  0  0  0  0  0  0  0  0  0  0  0
  138.1670   72.4800  222.0930 C   0  0  0  0  0  0  0  0  0  0  0  0
  137.9980   71.6410  223.3300 C   0  0  0  0  0  0  0  0  0  0  0  0
  136.5170   69.1294  225.9704 H   0  0  0  0  0  0  0  0  0  0  0  0
  135.9532   70.3710  224.8011 H   0  0  0  0  0  0  0  0  0  0  0  0
  135.2117   68.7349  224.8011 H   0  0  0  0  0  0  0  0  0  0  0  0
  136.9481   67.8041  223.6231 H   0  0  0  0  0  0  0  0  0  0  0  0
  137.1867   69.4842  223.0671 H   0  0  0  0  0  0  0  0  0  0  0  0
  140.7336   72.1136  225.1036 H   0  0  0  0  0  0  0  0  0  0  0  0
  141.8963   72.8119  227.2053 H   0  0  0  0  0  0  0  0  0  0  0  0
  141.5894   71.4210  229.2635 H   0  0  0  0  0  0  0  0  0  0  0  0
  140.1805   69.4012  229.2282 H   0  0  0  0  0  0  0  0  0  0  0  0
  139.0121   68.6997  227.1113 H   0  0  0  0  0  0  0  0  0  0  0  0
  139.9976   71.8717  224.0125 H   0  0  0  0  0  0  0  0  0  0  0  0
  140.7970   69.7128  222.8073 H   0  0  0  0  0  0  0  0  0  0  0  0
  139.1603   69.6296  222.0721 H   0  0  0  0  0  0  0  0  0  0  0  0
  141.3970   71.5686  221.5991 H   0  0  0  0  0  0  0  0  0  0  0  0
  140.2272   70.8507  220.4450 H   0  0  0  0  0  0  0  0  0  0  0  0
  138.6954   75.0062  220.2789 H   0  0  0  0  0  0  0  0  0  0  0  0
  139.1690   74.5630  222.9920 H   0  0  0  0  0  0  0  0  0  0  0  0
  139.1100   76.2030  222.7180 H   0  0  0  0  0  0  0  0  0  0  0  0
  141.4133   75.5778  220.2991 H   0  0  0  0  0  0  0  0  0  0  0  0
  139.3863   76.5145  218.9702 H   0  0  0  0  0  0  0  0  0  0  0  0
  139.0975   77.6406  220.2948 H   0  0  0  0  0  0  0  0  0  0  0  0
  141.8834   77.2843  218.9607 H   0  0  0  0  0  0  0  0  0  0  0  0
  140.7723   78.5156  218.4088 H   0  0  0  0  0  0  0  0  0  0  0  0
  141.7005   80.5387  219.3397 H   0  0  0  0  0  0  0  0  0  0  0  0
  142.2962   81.9033  221.3538 H   0  0  0  0  0  0  0  0  0  0  0  0
  141.7534   78.4216  223.8181 H   0  0  0  0  0  0  0  0  0  0  0  0
  142.0040   76.1653  222.2671 H   0  0  0  0  0  0  0  0  0  0  0  0
  140.3307   76.6417  222.7670 H   0  0  0  0  0  0  0  0  0  0  0  0
  137.8954   73.5171  222.3395 H   0  0  0  0  0  0  0  0  0  0  0  0
  137.5166   72.0416  221.3218 H   0  0  0  0  0  0  0  0  0  0  0  0
  137.6334   72.2682  224.1568 H   0  0  0  0  0  0  0  0  0  0  0  0
  137.2685   70.8388  223.1447 H   0  0  0  0  0  0  0  0  0  0  0  0
  1  2  1  0
  2  3  1  0
  3  4  2  0
  3  5  1  0
  5  6  1  0
  6  7  2  0
  7  8  1  0
  8  9  2  0
  9 10  1  0
 10 11  2  0
  5 12  1  0
 12 13  1  0
 13 14  1  0
 14 15  1  0
 15 16  1  0
 16 17  2  0
 16 18  1  0
 18 19  1  0
 18 20  1  0
 20 21  1  0
 21 22  1  0
 22 23  1  0
 23 24  2  0
 24 25  1  0
 25 26  2  0
 26 27  1  0
 26 28  1  0
 28 29  2  0
 29 30  1  0
 15 31  1  0
 31 32  1  0
 11  6  1  0
 32 12  1  0
 30 20  1  0
 29 23  1  0
  1 33  1  0
  1 34  1  0
  1 35  1  0
  2 36  1  0
  2 37  1  0
  7 38  1  0
  8 39  1  0
  9 40  1  0
 10 41  1  0
 11 42  1  0
 12 43  1  0
 13 44  1  0
 13 45  1  0
 14 46  1  0
 14 47  1  0
 18 48  1  6
 19 49  1  0
 19 50  1  0
 20 51  1  6
 21 52  1  0
 21 53  1  0
 22 54  1  0
 22 55  1  0
 24 56  1  0
 25 57  1  0
 28 58  1  0
 30 59  1  0
 30 60  1  0
 31 61  1  0
 31 62  1  0
 32 63  1  0
 32 64  1  0
M  END
>  <smiles>  (89) 
CCC(=O)N(c1ccccc1)C1CCN(C(=O)[C@@H](N)C2CCc3ccc(Br)cc3C2)CC1

>  <score_type>  (89) 
oracle

>  <origin>  (89) 
autodockgpu

>  <m_score__min__energy>  (89) 
-9.2699999999999996

>  <m_primary>  (89) 
energy

>  <rmsd>  (89) 
6.229582768272043

>  <m_score__min__rmsd>  (89) 
6.229582768272043

>  <meeko>  (89) 
{"free_energy": -9.22, "intermolecular_energy": -11.3, "internal_energy": -1.37, "cluster_size": 21, "cluster_id": 1, "rank_in_cluster": 3}

>  <energy>  (89) 
-7.06

>  <cluster_rmsd>  (89) 
0.63

>  <cluster>  (89) 
7

$$$$

     RDKit          3D

 64 67  0  0  0  0  0  0  0  0999 V2000
  136.2880   69.6280  225.1900 C   0  0  0  0  0  0  0  0  0  0  0  0
  136.9560   68.9140  224.0340 C   0  0  0  0  0  0  0  0  0  0  0  0
  138.4140   68.9000  224.2860 C   0  0  0  0  0  0  0  0  0  0  0  0
  138.9990   67.7820  224.1530 O   0  0  0  0  0  0  0  0  0  0  0  0
  139.0870   70.0910  224.6530 N   0  0  0  0  0  0  0  0  0  0  0  0
  139.7400   70.1590  225.9390 C   0  0  0  0  0  0  0  0  0  0  0  0
  140.3960   71.3560  226.1960 C   0  0  0  0  0  0  0  0  0  0  0  0
  141.0560   71.5320  227.3970 C   0  0  0  0  0  0  0  0  0  0  0  0
  141.0360   70.4820  228.3190 C   0  0  0  0  0  0  0  0  0  0  0  0
  140.3790   69.2980  228.0470 C   0  0  0  0  0  0  0  0  0  0  0  0
  139.7090   69.1160  226.8320 C   0  0  0  0  0  0  0  0  0  0  0  0
  139.1590   71.2610  223.8050 C   0  0  0  0  0  0  0  0  0  0  0  0
  140.3250   71.0350  222.8400 C   0  0  0  0  0  0  0  0  0  0  0  0
  140.6290   72.3140  222.1160 C   0  0  0  0  0  0  0  0  0  0  0  0
  139.4130   73.1000  222.0120 N   0  0  0  0  0  0  0  0  0  0  0  0
  139.6290   74.5210  221.9150 C   0  0  0  0  0  0  0  0  0  0  0  0
  140.8490   74.8830  221.9800 O   0  0  0  0  0  0  0  0  0  0  0  0
  138.5570   75.5150  221.7550 C   0  0  1  0  0  0  0  0  0  0  0  0
  138.2030   76.1230  223.0370 N   0  0  0  0  0  0  0  0  0  0  0  0
  139.0470   76.5770  220.7940 C   0  0  1  0  0  0  0  0  0  0  0  0
  140.0150   77.4460  221.5910 C   0  0  0  0  0  0  0  0  0  0  0  0
  140.2640   78.6710  220.6980 C   0  0  0  0  0  0  0  0  0  0  0  0
  141.0950   78.1020  219.5860 C   0  0  0  0  0  0  0  0  0  0  0  0
  142.1740   78.8390  219.0860 C   0  0  0  0  0  0  0  0  0  0  0  0
  142.9470   78.3110  218.0530 C   0  0  0  0  0  0  0  0  0  0  0  0
  142.6280   77.0610  217.5410 C   0  0  0  0  0  0  0  0  0  0  0  0
  143.7080   76.3710  216.1270 Br  0  0  0  0  0  0  0  0  0  0  0  0
  141.5530   76.3600  218.0610 C   0  0  0  0  0  0  0  0  0  0  0  0
  140.7680   76.8640  219.0880 C   0  0  0  0  0  0  0  0  0  0  0  0
  139.6500   76.0260  219.5580 C   0  0  0  0  0  0  0  0  0  0  0  0
  138.0790   72.5370  222.0110 C   0  0  0  0  0  0  0  0  0  0  0  0
  137.8730   71.4410  223.0190 C   0  0  0  0  0  0  0  0  0  0  0  0
  136.6672   69.2227  226.1397 H   0  0  0  0  0  0  0  0  0  0  0  0
  136.5116   70.7036  225.1351 H   0  0  0  0  0  0  0  0  0  0  0  0
  135.1999   69.4764  225.1351 H   0  0  0  0  0  0  0  0  0  0  0  0
  136.5793   67.8829  223.9644 H   0  0  0  0  0  0  0  0  0  0  0  0
  136.7368   69.4306  223.0879 H   0  0  0  0  0  0  0  0  0  0  0  0
  140.3901   72.1608  225.4462 H   0  0  0  0  0  0  0  0  0  0  0  0
  141.5821   72.4717  227.6210 H   0  0  0  0  0  0  0  0  0  0  0  0
  141.5545   70.6011  229.2818 H   0  0  0  0  0  0  0  0  0  0  0  0
  140.3824   68.4897  228.7931 H   0  0  0  0  0  0  0  0  0  0  0  0
  139.1808   68.1789  226.6023 H   0  0  0  0  0  0  0  0  0  0  0  0
  139.3049   72.1663  224.4126 H   0  0  0  0  0  0  0  0  0  0  0  0
  141.2122   70.7137  223.4054 H   0  0  0  0  0  0  0  0  0  0  0  0
  140.0532   70.2566  222.1118 H   0  0  0  0  0  0  0  0  0  0  0  0
  141.3883   72.8818  222.6738 H   0  0  0  0  0  0  0  0  0  0  0  0
  141.0126   72.0889  221.1099 H   0  0  0  0  0  0  0  0  0  0  0  0
  137.6539   75.0232  221.3644 H   0  0  0  0  0  0  0  0  0  0  0  0
  138.8400   75.6730  223.7380 H   0  0  0  0  0  0  0  0  0  0  0  0
  138.3960   77.1270  223.0620 H   0  0  0  0  0  0  0  0  0  0  0  0
  138.2021   77.1700  220.4139 H   0  0  0  0  0  0  0  0  0  0  0  0
  139.5663   77.7487  222.5487 H   0  0  0  0  0  0  0  0  0  0  0  0
  140.9458   76.9142  221.8375 H   0  0  0  0  0  0  0  0  0  0  0  0
  139.3182   79.0829  220.3162 H   0  0  0  0  0  0  0  0  0  0  0  0
  140.7505   79.5049  221.2251 H   0  0  0  0  0  0  0  0  0  0  0  0
  142.4107   79.8281  219.5050 H   0  0  0  0  0  0  0  0  0  0  0  0
  143.7988   78.8777  217.6489 H   0  0  0  0  0  0  0  0  0  0  0  0
  141.3133   75.3700  217.6458 H   0  0  0  0  0  0  0  0  0  0  0  0
  138.8807   75.9816  218.7730 H   0  0  0  0  0  0  0  0  0  0  0  0
  140.0385   75.0210  219.7793 H   0  0  0  0  0  0  0  0  0  0  0  0
  137.3636   73.3440  222.2276 H   0  0  0  0  0  0  0  0  0  0  0  0
  137.9259   72.0874  221.0188 H   0  0  0  0  0  0  0  0  0  0  0  0
  137.0557   71.7144  223.7025 H   0  0  0  0  0  0  0  0  0  0  0  0
  137.6097   70.5034  222.5075 H   0  0  0  0  0  0  0  0  0  0  0  0
  1  2  1  0
  2  3  1  0
  3  4  2  0
  3  5  1  0
  5  6  1  0
  6  7  2  0
  7  8  1  0
  8  9  2  0
  9 10  1  0
 10 11  2  0
  5 12  1  0
 12 13  1  0
 13 14  1  0
 14 15  1  0
 15 16  1  0
 16 17  2  0
 16 18  1  0
 18 19  1  0
 18 20  1  0
 20 21  1  0
 21 22  1  0
 22 23  1  0
 23 24  2  0
 24 25  1  0
 25 26  2  0
 26 27  1  0
 26 28  1  0
 28 29  2  0
 29 30  1  0
 15 31  1  0
 31 32  1  0
 11  6  1  0
 32 12  1  0
 30 20  1  0
 29 23  1  0
  1 33  1  0
  1 34  1  0
  1 35  1  0
  2 36  1  0
  2 37  1  0
  7 38  1  0
  8 39  1  0
  9 40  1  0
 10 41  1  0
 11 42  1  0
 12 43  1  0
 13 44  1  0
 13 45  1  0
 14 46  1  0
 14 47  1  0
 18 48  1  6
 19 49  1  0
 19 50  1  0
 20 51  1  6
 21 52  1  0
 21 53  1  0
 22 54  1  0
 22 55  1  0
 24 56  1  0
 25 57  1  0
 28 58  1  0
 30 59  1  0
 30 60  1  0
 31 61  1  0
 31 62  1  0
 32 63  1  0
 32 64  1  0
M  END
>  <smiles>  (90) 
CCC(=O)N(c1ccccc1)C1CCN(C(=O)[C@@H](N)C2CCc3ccc(Br)cc3C2)CC1

>  <score_type>  (90) 
oracle

>  <origin>  (90) 
autodockgpu

>  <m_score__min__energy>  (90) 
-9.2699999999999996

>  <m_primary>  (90) 
energy

>  <rmsd>  (90) 
6.641522393345527

>  <m_score__min__rmsd>  (90) 
6.641522393345527

>  <meeko>  (90) 
{"free_energy": -7.72, "intermolecular_energy": -9.81, "internal_energy": -1.46, "cluster_size": 2, "cluster_id": 5, "rank_in_cluster": 2}

>  <energy>  (90) 
-7.06

>  <cluster_rmsd>  (90) 
0.0

>  <cluster>  (90) 
8

$$$$

     RDKit          3D

 64 67  0  0  0  0  0  0  0  0999 V2000
  146.3670   73.0610  221.8620 C   0  0  0  0  0  0  0  0  0  0  0  0
  145.5680   73.8390  220.8370 C   0  0  0  0  0  0  0  0  0  0  0  0
  145.4010   72.9820  219.6420 C   0  0  0  0  0  0  0  0  0  0  0  0
  146.3230   73.0400  218.7730 O   0  0  0  0  0  0  0  0  0  0  0  0
  144.2600   72.1540  219.5110 N   0  0  0  0  0  0  0  0  0  0  0  0
  144.4400   70.7540  219.2090 C   0  0  0  0  0  0  0  0  0  0  0  0
  144.9970   70.4950  217.9620 C   0  0  0  0  0  0  0  0  0  0  0  0
  145.2150   69.1890  217.5670 C   0  0  0  0  0  0  0  0  0  0  0  0
  144.8620   68.1660  218.4530 C   0  0  0  0  0  0  0  0  0  0  0  0
  144.3100   68.4420  219.6880 C   0  0  0  0  0  0  0  0  0  0  0  0
  144.0870   69.7630  220.0910 C   0  0  0  0  0  0  0  0  0  0  0  0
  142.9030   72.6340  219.6640 C   0  0  0  0  0  0  0  0  0  0  0  0
  142.1950   72.3900  218.3300 C   0  0  0  0  0  0  0  0  0  0  0  0
  140.8750   73.1040  218.3270 C   0  0  0  0  0  0  0  0  0  0  0  0
  140.3850   73.2000  219.6890 N   0  0  0  0  0  0  0  0  0  0  0  0
  139.5100   74.3200  219.9300 C   0  0  0  0  0  0  0  0  0  0  0  0
  139.3310   75.0850  218.9270 O   0  0  0  0  0  0  0  0  0  0  0  0
  138.8540   74.5980  221.2160 C   0  0  1  0  0  0  0  0  0  0  0  0
  139.6590   74.1130  222.3370 N   0  0  0  0  0  0  0  0  0  0  0  0
  138.6620   76.0950  221.3250 C   0  0  1  0  0  0  0  0  0  0  0  0
  137.7850   76.3160  222.5540 C   0  0  0  0  0  0  0  0  0  0  0  0
  137.3630   77.7910  222.4720 C   0  0  0  0  0  0  0  0  0  0  0  0
  138.6400   78.5140  222.7850 C   0  0  0  0  0  0  0  0  0  0  0  0
  138.6070   79.6470  223.6050 C   0  0  0  0  0  0  0  0  0  0  0  0
  139.7930   80.3190  223.8960 C   0  0  0  0  0  0  0  0  0  0  0  0
  140.9860   79.8480  223.3640 C   0  0  0  0  0  0  0  0  0  0  0  0
  142.5890   80.7940  223.7840 Br  0  0  0  0  0  0  0  0  0  0  0  0
  140.9800   78.7240  222.5560 C   0  0  0  0  0  0  0  0  0  0  0  0
  139.8130   78.0380  222.2510 C   0  0  0  0  0  0  0  0  0  0  0  0
  139.9330   76.8540  221.3800 C   0  0  0  0  0  0  0  0  0  0  0  0
  140.7320   72.2720  220.7450 C   0  0  0  0  0  0  0  0  0  0  0  0
  142.1840   71.8830  220.7690 C   0  0  0  0  0  0  0  0  0  0  0  0
  146.0576   73.3623  222.8737 H   0  0  0  0  0  0  0  0  0  0  0  0
  146.1853   71.9844  221.7283 H   0  0  0  0  0  0  0  0  0  0  0  0
  147.4384   73.2714  221.7283 H   0  0  0  0  0  0  0  0  0  0  0  0
  144.5825   74.0990  221.2507 H   0  0  0  0  0  0  0  0  0  0  0  0
  146.0908   74.7693  220.5704 H   0  0  0  0  0  0  0  0  0  0  0  0
  145.2631   71.3263  217.2925 H   0  0  0  0  0  0  0  0  0  0  0  0
  145.6534   68.9605  216.5843 H   0  0  0  0  0  0  0  0  0  0  0  0
  145.0278   67.1189  218.1595 H   0  0  0  0  0  0  0  0  0  0  0  0
  144.0428   67.6148  220.3620 H   0  0  0  0  0  0  0  0  0  0  0  0
  143.6479   69.9974  221.0719 H   0  0  0  0  0  0  0  0  0  0  0  0
  142.9021   73.7004  219.9337 H   0  0  0  0  0  0  0  0  0  0  0  0
  142.8196   72.7704  217.5083 H   0  0  0  0  0  0  0  0  0  0  0  0
  142.0289   71.3111  218.1947 H   0  0  0  0  0  0  0  0  0  0  0  0
  141.0031   74.1136  217.9095 H   0  0  0  0  0  0  0  0  0  0  0  0
  140.1533   72.5468  217.7116 H   0  0  0  0  0  0  0  0  0  0  0  0
  137.8863   74.0765  221.2565 H   0  0  0  0  0  0  0  0  0  0  0  0
  140.1050   74.9700  222.7450 H   0  0  0  0  0  0  0  0  0  0  0  0
  139.0910   73.6940  223.0760 H   0  0  0  0  0  0  0  0  0  0  0  0
  138.1789   76.4862  220.4175 H   0  0  0  0  0  0  0  0  0  0  0  0
  136.9038   75.6582  222.5251 H   0  0  0  0  0  0  0  0  0  0  0  0
  138.3149   76.0862  223.4901 H   0  0  0  0  0  0  0  0  0  0  0  0
  136.9994   78.0447  221.4653 H   0  0  0  0  0  0  0  0  0  0  0  0
  136.5366   78.0483  223.1509 H   0  0  0  0  0  0  0  0  0  0  0  0
  137.6520   80.0050  224.0171 H   0  0  0  0  0  0  0  0  0  0  0  0
  139.7840   81.2114  224.5391 H   0  0  0  0  0  0  0  0  0  0  0  0
  141.9327   78.3624  222.1417 H   0  0  0  0  0  0  0  0  0  0  0  0
  140.1987   77.1819  220.3642 H   0  0  0  0  0  0  0  0  0  0  0  0
  140.7122   76.1967  221.7932 H   0  0  0  0  0  0  0  0  0  0  0  0
  140.4835   72.7382  221.7098 H   0  0  0  0  0  0  0  0  0  0  0  0
  140.1604   71.3510  220.5578 H   0  0  0  0  0  0  0  0  0  0  0  0
  142.6225   72.1467  221.7427 H   0  0  0  0  0  0  0  0  0  0  0  0
  142.2858   70.7986  220.6151 H   0  0  0  0  0  0  0  0  0  0  0  0
  1  2  1  0
  2  3  1  0
  3  4  2  0
  3  5  1  0
  5  6  1  0
  6  7  2  0
  7  8  1  0
  8  9  2  0
  9 10  1  0
 10 11  2  0
  5 12  1  0
 12 13  1  0
 13 14  1  0
 14 15  1  0
 15 16  1  0
 16 17  2  0
 16 18  1  0
 18 19  1  0
 18 20  1  0
 20 21  1  0
 21 22  1  0
 22 23  1  0
 23 24  2  0
 24 25  1  0
 25 26  2  0
 26 27  1  0
 26 28  1  0
 28 29  2  0
 29 30  1  0
 15 31  1  0
 31 32  1  0
 11  6  1  0
 32 12  1  0
 30 20  1  0
 29 23  1  0
  1 33  1  0
  1 34  1  0
  1 35  1  0
  2 36  1  0
  2 37  1  0
  7 38  1  0
  8 39  1  0
  9 40  1  0
 10 41  1  0
 11 42  1  0
 12 43  1  0
 13 44  1  0
 13 45  1  0
 14 46  1  0
 14 47  1  0
 18 48  1  6
 19 49  1  0
 19 50  1  0
 20 51  1  6
 21 52  1  0
 21 53  1  0
 22 54  1  0
 22 55  1  0
 24 56  1  0
 25 57  1  0
 28 58  1  0
 30 59  1  0
 30 60  1  0
 31 61  1  0
 31 62  1  0
 32 63  1  0
 32 64  1  0
M  END
>  <smiles>  (91) 
CCC(=O)N(c1ccccc1)C1CCN(C(=O)[C@@H](N)C2CCc3ccc(Br)cc3C2)CC1

>  <score_type>  (91) 
oracle

>  <origin>  (91) 
autodockgpu

>  <m_score__min__energy>  (91) 
-9.2699999999999996

>  <m_primary>  (91) 
energy

>  <rmsd>  (91) 
4.899293057260617

>  <m_score__min__rmsd>  (91) 
4.899293057260617

>  <meeko>  (91) 
{"free_energy": -8.25, "intermolecular_energy": -10.33, "internal_energy": -1.22, "cluster_size": 1, "cluster_id": 2, "rank_in_cluster": 1}

>  <energy>  (91) 
-7.04

>  <cluster_rmsd>  (91) 
0.26

>  <cluster>  (91) 
8

$$$$

     RDKit          3D

 64 67  0  0  0  0  0  0  0  0999 V2000
  146.4050   73.7610  221.4340 C   0  0  0  0  0  0  0  0  0  0  0  0
  145.5420   72.6370  220.8990 C   0  0  0  0  0  0  0  0  0  0  0  0
  145.0700   73.0250  219.5510 C   0  0  0  0  0  0  0  0  0  0  0  0
  145.9210   72.9590  218.6140 O   0  0  0  0  0  0  0  0  0  0  0  0
  143.7310   73.4420  219.3570 N   0  0  0  0  0  0  0  0  0  0  0  0
  143.4770   74.7460  218.7900 C   0  0  0  0  0  0  0  0  0  0  0  0
  143.1520   75.7300  219.7170 C   0  0  0  0  0  0  0  0  0  0  0  0
  142.8900   77.0160  219.2860 C   0  0  0  0  0  0  0  0  0  0  0  0
  142.9640   77.2790  217.9150 C   0  0  0  0  0  0  0  0  0  0  0  0
  143.2890   76.2890  217.0090 C   0  0  0  0  0  0  0  0  0  0  0  0
  143.5550   74.9850  217.4410 C   0  0  0  0  0  0  0  0  0  0  0  0
  142.5840   72.6280  219.6970 C   0  0  0  0  0  0  0  0  0  0  0  0
  143.0370   71.1690  219.6140 C   0  0  0  0  0  0  0  0  0  0  0  0
  141.8390   70.2680  219.6890 C   0  0  0  0  0  0  0  0  0  0  0  0
  140.8000   70.9250  220.4600 N   0  0  0  0  0  0  0  0  0  0  0  0
  139.4600   70.5110  220.1280 C   0  0  0  0  0  0  0  0  0  0  0  0
  139.3810   69.6650  219.1800 O   0  0  0  0  0  0  0  0  0  0  0  0
  138.2490   71.0010  220.8040 C   0  0  1  0  0  0  0  0  0  0  0  0
  137.0550   70.7470  219.9980 N   0  0  0  0  0  0  0  0  0  0  0  0
  138.1380   70.2880  222.1340 C   0  0  1  0  0  0  0  0  0  0  0  0
  139.0550   69.0730  222.0350 C   0  0  0  0  0  0  0  0  0  0  0  0
  138.7030   68.2170  223.2620 C   0  0  0  0  0  0  0  0  0  0  0  0
  139.2660   69.0230  224.3950 C   0  0  0  0  0  0  0  0  0  0  0  0
  139.9190   68.3710  225.4470 C   0  0  0  0  0  0  0  0  0  0  0  0
  140.4420   69.1190  226.5000 C   0  0  0  0  0  0  0  0  0  0  0  0
  140.3030   70.5010  226.4830 C   0  0  0  0  0  0  0  0  0  0  0  0
  141.0320   71.4910  227.9420 Br  0  0  0  0  0  0  0  0  0  0  0  0
  139.6510   71.1120  225.4260 C   0  0  0  0  0  0  0  0  0  0  0  0
  139.1220   70.3890  224.3660 C   0  0  0  0  0  0  0  0  0  0  0  0
  138.4490   71.1510  223.2980 C   0  0  0  0  0  0  0  0  0  0  0  0
  141.0510   71.9240  221.4780 C   0  0  0  0  0  0  0  0  0  0  0  0
  142.1010   72.9330  221.1040 C   0  0  0  0  0  0  0  0  0  0  0  0
  146.3908   73.7425  222.5338 H   0  0  0  0  0  0  0  0  0  0  0  0
  147.4378   73.6314  221.0784 H   0  0  0  0  0  0  0  0  0  0  0  0
  146.0131   74.7253  221.0784 H   0  0  0  0  0  0  0  0  0  0  0  0
  146.1322   71.7109  220.8357 H   0  0  0  0  0  0  0  0  0  0  0  0
  144.6864   72.4606  221.5675 H   0  0  0  0  0  0  0  0  0  0  0  0
  143.1037   75.4856  220.7884 H   0  0  0  0  0  0  0  0  0  0  0  0
  142.6305   77.8105  220.0012 H   0  0  0  0  0  0  0  0  0  0  0  0
  142.7590   78.2963  217.5502 H   0  0  0  0  0  0  0  0  0  0  0  0
  143.3393   76.5280  215.9365 H   0  0  0  0  0  0  0  0  0  0  0  0
  143.8152   74.1866  216.7305 H   0  0  0  0  0  0  0  0  0  0  0  0
  141.7512   72.8335  219.0084 H   0  0  0  0  0  0  0  0  0  0  0  0
  143.5625   71.0018  218.6622 H   0  0  0  0  0  0  0  0  0  0  0  0
  143.7153   70.9475  220.4512 H   0  0  0  0  0  0  0  0  0  0  0  0
  141.4695   70.0608  218.6738 H   0  0  0  0  0  0  0  0  0  0  0  0
  142.1171   69.3201  220.1729 H   0  0  0  0  0  0  0  0  0  0  0  0
  138.3227   72.0887  220.9504 H   0  0  0  0  0  0  0  0  0  0  0  0
  136.8260   71.6670  219.5500 H   0  0  0  0  0  0  0  0  0  0  0  0
  137.2270   70.0830  219.2400 H   0  0  0  0  0  0  0  0  0  0  0  0
  137.0970   69.9855  222.3205 H   0  0  0  0  0  0  0  0  0  0  0  0
  138.8626   68.5166  221.1058 H   0  0  0  0  0  0  0  0  0  0  0  0
  140.1181   69.3547  222.0154 H   0  0  0  0  0  0  0  0  0  0  0  0
  137.6143   68.0963  223.3630 H   0  0  0  0  0  0  0  0  0  0  0  0
  139.1035   67.1938  223.2113 H   0  0  0  0  0  0  0  0  0  0  0  0
  140.0188   67.2755  225.4428 H   0  0  0  0  0  0  0  0  0  0  0  0
  140.9584   68.6214  227.3341 H   0  0  0  0  0  0  0  0  0  0  0  0
  139.5487   72.2072  225.4261 H   0  0  0  0  0  0  0  0  0  0  0  0
  137.5122   71.5707  223.6932 H   0  0  0  0  0  0  0  0  0  0  0  0
  139.1248   71.9524  222.9650 H   0  0  0  0  0  0  0  0  0  0  0  0
  140.1110   72.4606  221.6743 H   0  0  0  0  0  0  0  0  0  0  0  0
  141.4275   71.3879  222.3617 H   0  0  0  0  0  0  0  0  0  0  0  0
  141.6714   73.9451  221.1375 H   0  0  0  0  0  0  0  0  0  0  0  0
  142.9424   72.8805  221.8106 H   0  0  0  0  0  0  0  0  0  0  0  0
  1  2  1  0
  2  3  1  0
  3  4  2  0
  3  5  1  0
  5  6  1  0
  6  7  2  0
  7  8  1  0
  8  9  2  0
  9 10  1  0
 10 11  2  0
  5 12  1  0
 12 13  1  0
 13 14  1  0
 14 15  1  0
 15 16  1  0
 16 17  2  0
 16 18  1  0
 18 19  1  0
 18 20  1  0
 20 21  1  0
 21 22  1  0
 22 23  1  0
 23 24  2  0
 24 25  1  0
 25 26  2  0
 26 27  1  0
 26 28  1  0
 28 29  2  0
 29 30  1  0
 15 31  1  0
 31 32  1  0
 11  6  1  0
 32 12  1  0
 30 20  1  0
 29 23  1  0
  1 33  1  0
  1 34  1  0
  1 35  1  0
  2 36  1  0
  2 37  1  0
  7 38  1  0
  8 39  1  0
  9 40  1  0
 10 41  1  0
 11 42  1  0
 12 43  1  0
 13 44  1  0
 13 45  1  0
 14 46  1  0
 14 47  1  0
 18 48  1  1
 19 49  1  0
 19 50  1  0
 20 51  1  1
 21 52  1  0
 21 53  1  0
 22 54  1  0
 22 55  1  0
 24 56  1  0
 25 57  1  0
 28 58  1  0
 30 59  1  0
 30 60  1  0
 31 61  1  0
 31 62  1  0
 32 63  1  0
 32 64  1  0
M  END
>  <smiles>  (92) 
CCC(=O)N(c1ccccc1)C1CCN(C(=O)[C@@H](N)C2CCc3ccc(Br)cc3C2)CC1

>  <score_type>  (92) 
oracle

>  <origin>  (92) 
autodockgpu

>  <m_score__min__energy>  (92) 
-9.2699999999999996

>  <m_primary>  (92) 
energy

>  <rmsd>  (92) 
8.892983552729536

>  <m_score__min__rmsd>  (92) 
8.892983552729536

>  <meeko>  (92) 
{"free_energy": -7.54, "intermolecular_energy": -9.62, "internal_energy": -2.48, "cluster_size": 8, "cluster_id": 4, "rank_in_cluster": 7}

>  <energy>  (92) 
-7.01

>  <cluster_rmsd>  (92) 
0.34

>  <cluster>  (92) 
8

$$$$

     RDKit          3D

 64 67  0  0  0  0  0  0  0  0999 V2000
  137.3380   72.8560  221.9640 C   0  0  0  0  0  0  0  0  0  0  0  0
  137.1340   71.8800  223.1050 C   0  0  0  0  0  0  0  0  0  0  0  0
  138.0920   70.7650  222.9290 C   0  0  0  0  0  0  0  0  0  0  0  0
  137.6350   69.7080  222.3970 O   0  0  0  0  0  0  0  0  0  0  0  0
  139.4380   70.9080  223.3430 N   0  0  0  0  0  0  0  0  0  0  0  0
  139.7730   70.6810  224.7300 C   0  0  0  0  0  0  0  0  0  0  0  0
  139.2190   69.5320  225.2810 C   0  0  0  0  0  0  0  0  0  0  0  0
  139.4720   69.2150  226.6020 C   0  0  0  0  0  0  0  0  0  0  0  0
  140.2890   70.0770  227.3400 C   0  0  0  0  0  0  0  0  0  0  0  0
  140.8320   71.2140  226.7750 C   0  0  0  0  0  0  0  0  0  0  0  0
  140.5770   71.5390  225.4380 C   0  0  0  0  0  0  0  0  0  0  0  0
  140.5140   71.2730  222.4480 C   0  0  0  0  0  0  0  0  0  0  0  0
  140.1330   70.7490  221.0620 C   0  0  0  0  0  0  0  0  0  0  0  0
  141.3170   70.8530  220.1450 C   0  0  0  0  0  0  0  0  0  0  0  0
  142.1540   71.9580  220.5750 N   0  0  0  0  0  0  0  0  0  0  0  0
  143.5450   71.8220  220.2260 C   0  0  0  0  0  0  0  0  0  0  0  0
  143.8450   70.7350  219.6330 O   0  0  0  0  0  0  0  0  0  0  0  0
  144.5750   72.8310  220.5130 C   0  0  1  0  0  0  0  0  0  0  0  0
  145.9170   72.2540  220.4390 N   0  0  0  0  0  0  0  0  0  0  0  0
  144.4320   73.9440  219.4970 C   0  0  1  0  0  0  0  0  0  0  0  0
  143.4260   73.4410  218.4670 C   0  0  0  0  0  0  0  0  0  0  0  0
  143.5220   74.4440  217.3060 C   0  0  0  0  0  0  0  0  0  0  0  0
  142.8870   75.6750  217.8850 C   0  0  0  0  0  0  0  0  0  0  0  0
  142.0360   76.4490  217.0890 C   0  0  0  0  0  0  0  0  0  0  0  0
  141.4460   77.5930  217.6260 C   0  0  0  0  0  0  0  0  0  0  0  0
  141.7170   77.9390  218.9430 C   0  0  0  0  0  0  0  0  0  0  0  0
  140.8910   79.5100  219.6430 Br  0  0  0  0  0  0  0  0  0  0  0  0
  142.5640   77.1480  219.7000 C   0  0  0  0  0  0  0  0  0  0  0  0
  143.1640   76.0060  219.1890 C   0  0  0  0  0  0  0  0  0  0  0  0
  144.0480   75.2450  220.0910 C   0  0  0  0  0  0  0  0  0  0  0  0
  141.6670   73.1100  221.3040 C   0  0  0  0  0  0  0  0  0  0  0  0
  140.6870   72.7800  222.3950 C   0  0  0  0  0  0  0  0  0  0  0  0
  137.5471   73.8566  222.3703 H   0  0  0  0  0  0  0  0  0  0  0  0
  138.1866   72.5262  221.3467 H   0  0  0  0  0  0  0  0  0  0  0  0
  136.4283   72.8937  221.3467 H   0  0  0  0  0  0  0  0  0  0  0  0
  137.3196   72.3838  224.0651 H   0  0  0  0  0  0  0  0  0  0  0  0
  136.1014   71.5008  223.1040 H   0  0  0  0  0  0  0  0  0  0  0  0
  138.5817   68.8775  224.6682 H   0  0  0  0  0  0  0  0  0  0  0  0
  139.0433   68.3112  227.0595 H   0  0  0  0  0  0  0  0  0  0  0  0
  140.5038   69.8444  228.3934 H   0  0  0  0  0  0  0  0  0  0  0  0
  141.4718   71.8712  227.3823 H   0  0  0  0  0  0  0  0  0  0  0  0
  141.0019   72.4418  224.9751 H   0  0  0  0  0  0  0  0  0  0  0  0
  141.4645   70.8426  222.7962 H   0  0  0  0  0  0  0  0  0  0  0  0
  139.8214   69.6970  221.1406 H   0  0  0  0  0  0  0  0  0  0  0  0
  139.3032   71.3480  220.6588 H   0  0  0  0  0  0  0  0  0  0  0  0
  141.8945   69.9175  220.1812 H   0  0  0  0  0  0  0  0  0  0  0  0
  140.9739   71.0267  219.1144 H   0  0  0  0  0  0  0  0  0  0  0  0
  144.4386   73.2159  221.5344 H   0  0  0  0  0  0  0  0  0  0  0  0
  146.2740   72.2640  221.4250 H   0  0  0  0  0  0  0  0  0  0  0  0
  145.9080   71.2770  220.1370 H   0  0  0  0  0  0  0  0  0  0  0  0
  145.4032   74.1637  219.0294 H   0  0  0  0  0  0  0  0  0  0  0  0
  143.6911   72.4287  218.1280 H   0  0  0  0  0  0  0  0  0  0  0  0
  142.4075   73.3755  218.8774 H   0  0  0  0  0  0  0  0  0  0  0  0
  144.5698   74.6307  217.0279 H   0  0  0  0  0  0  0  0  0  0  0  0
  143.0367   74.0935  216.3832 H   0  0  0  0  0  0  0  0  0  0  0  0
  141.8337   76.1576  216.0478 H   0  0  0  0  0  0  0  0  0  0  0  0
  140.7746   78.2132  217.0140 H   0  0  0  0  0  0  0  0  0  0  0  0
  142.7684   77.4345  220.7422 H   0  0  0  0  0  0  0  0  0  0  0  0
  144.9572   75.8338  220.2824 H   0  0  0  0  0  0  0  0  0  0  0  0
  143.5048   75.0520  221.0279 H   0  0  0  0  0  0  0  0  0  0  0  0
  142.5291   73.6208  221.7577 H   0  0  0  0  0  0  0  0  0  0  0  0
  141.1317   73.7399  220.5783 H   0  0  0  0  0  0  0  0  0  0  0  0
  141.0698   73.1436  223.3600 H   0  0  0  0  0  0  0  0  0  0  0  0
  139.7200   73.2632  222.1916 H   0  0  0  0  0  0  0  0  0  0  0  0
  1  2  1  0
  2  3  1  0
  3  4  2  0
  3  5  1  0
  5  6  1  0
  6  7  2  0
  7  8  1  0
  8  9  2  0
  9 10  1  0
 10 11  2  0
  5 12  1  0
 12 13  1  0
 13 14  1  0
 14 15  1  0
 15 16  1  0
 16 17  2  0
 16 18  1  0
 18 19  1  0
 18 20  1  0
 20 21  1  0
 21 22  1  0
 22 23  1  0
 23 24  2  0
 24 25  1  0
 25 26  2  0
 26 27  1  0
 26 28  1  0
 28 29  2  0
 29 30  1  0
 15 31  1  0
 31 32  1  0
 11  6  1  0
 32 12  1  0
 30 20  1  0
 29 23  1  0
  1 33  1  0
  1 34  1  0
  1 35  1  0
  2 36  1  0
  2 37  1  0
  7 38  1  0
  8 39  1  0
  9 40  1  0
 10 41  1  0
 11 42  1  0
 12 43  1  0
 13 44  1  0
 13 45  1  0
 14 46  1  0
 14 47  1  0
 18 48  1  1
 19 49  1  0
 19 50  1  0
 20 51  1  6
 21 52  1  0
 21 53  1  0
 22 54  1  0
 22 55  1  0
 24 56  1  0
 25 57  1  0
 28 58  1  0
 30 59  1  0
 30 60  1  0
 31 61  1  0
 31 62  1  0
 32 63  1  0
 32 64  1  0
M  END
>  <smiles>  (93) 
CCC(=O)N(c1ccccc1)C1CCN(C(=O)[C@@H](N)C2CCc3ccc(Br)cc3C2)CC1

>  <score_type>  (93) 
oracle

>  <origin>  (93) 
autodockgpu

>  <m_score__min__energy>  (93) 
-9.2699999999999996

>  <m_primary>  (93) 
energy

>  <rmsd>  (93) 
6.901369038980501

>  <m_score__min__rmsd>  (93) 
6.901369038980501

>  <meeko>  (93) 
{"free_energy": -7.06, "intermolecular_energy": -9.14, "internal_energy": -2.49, "cluster_size": 5, "cluster_id": 7, "rank_in_cluster": 5}

>  <energy>  (93) 
-6.97

>  <cluster_rmsd>  (93) 
0.24

>  <cluster>  (93) 
8

$$$$

     RDKit          3D

 64 67  0  0  0  0  0  0  0  0999 V2000
  138.0360   80.9600  224.5670 C   0  0  0  0  0  0  0  0  0  0  0  0
  137.1560   79.9680  223.8350 C   0  0  0  0  0  0  0  0  0  0  0  0
  137.7920   79.6660  222.5330 C   0  0  0  0  0  0  0  0  0  0  0  0
  137.3270   80.2770  221.5230 O   0  0  0  0  0  0  0  0  0  0  0  0
  138.8600   78.7400  222.4580 N   0  0  0  0  0  0  0  0  0  0  0  0
  140.2120   79.2120  222.6480 C   0  0  0  0  0  0  0  0  0  0  0  0
  140.7570   79.8710  221.5520 C   0  0  0  0  0  0  0  0  0  0  0  0
  142.0460   80.3650  221.6220 C   0  0  0  0  0  0  0  0  0  0  0  0
  142.7580   80.1800  222.8110 C   0  0  0  0  0  0  0  0  0  0  0  0
  142.2000   79.5230  223.8890 C   0  0  0  0  0  0  0  0  0  0  0  0
  140.8960   79.0200  223.8220 C   0  0  0  0  0  0  0  0  0  0  0  0
  138.6770   77.3290  222.1980 C   0  0  0  0  0  0  0  0  0  0  0  0
  137.3220   77.1800  221.5020 C   0  0  0  0  0  0  0  0  0  0  0  0
  136.9460   75.7280  221.4460 C   0  0  0  0  0  0  0  0  0  0  0  0
  138.1540   74.9270  221.4110 N   0  0  0  0  0  0  0  0  0  0  0  0
  138.0050   73.5990  221.9510 C   0  0  0  0  0  0  0  0  0  0  0  0
  136.8490   73.3390  222.4200 O   0  0  0  0  0  0  0  0  0  0  0  0
  139.0740   72.5900  221.9810 C   0  0  1  0  0  0  0  0  0  0  0  0
  140.2840   73.1200  222.6070 N   0  0  0  0  0  0  0  0  0  0  0  0
  138.5650   71.3970  222.7620 C   0  0  1  0  0  0  0  0  0  0  0  0
  139.1150   70.1660  222.0510 C   0  0  0  0  0  0  0  0  0  0  0  0
  138.3540   68.9840  222.6710 C   0  0  0  0  0  0  0  0  0  0  0  0
  138.9340   68.9110  224.0530 C   0  0  0  0  0  0  0  0  0  0  0  0
  139.2100   67.6620  224.6200 C   0  0  0  0  0  0  0  0  0  0  0  0
  139.7490   67.5940  225.9040 C   0  0  0  0  0  0  0  0  0  0  0  0
  140.0020   68.7720  226.5950 C   0  0  0  0  0  0  0  0  0  0  0  0
  140.7400   68.6390  228.3490 Br  0  0  0  0  0  0  0  0  0  0  0  0
  139.7160   69.9900  226.0020 C   0  0  0  0  0  0  0  0  0  0  0  0
  139.1790   70.0840  224.7260 C   0  0  0  0  0  0  0  0  0  0  0  0
  138.9170   71.4370  224.2010 C   0  0  0  0  0  0  0  0  0  0  0  0
  139.4230   75.3920  220.8920 C   0  0  0  0  0  0  0  0  0  0  0  0
  139.7750   76.7970  221.2950 C   0  0  0  0  0  0  0  0  0  0  0  0
  137.9164   80.8252  225.6521 H   0  0  0  0  0  0  0  0  0  0  0  0
  139.0872   80.7916  224.2902 H   0  0  0  0  0  0  0  0  0  0  0  0
  137.7434   81.9836  224.2902 H   0  0  0  0  0  0  0  0  0  0  0  0
  137.0609   79.0457  224.4268 H   0  0  0  0  0  0  0  0  0  0  0  0
  136.1516   80.3892  223.6810 H   0  0  0  0  0  0  0  0  0  0  0  0
  140.1653   79.9987  220.6335 H   0  0  0  0  0  0  0  0  0  0  0  0
  142.4986   80.8885  220.7670 H   0  0  0  0  0  0  0  0  0  0  0  0
  143.7849   80.5664  222.8890 H   0  0  0  0  0  0  0  0  0  0  0  0
  142.7866   79.3935  224.8105 H   0  0  0  0  0  0  0  0  0  0  0  0
  140.4392   78.4937  224.6731 H   0  0  0  0  0  0  0  0  0  0  0  0
  138.7153   76.7588  223.1379 H   0  0  0  0  0  0  0  0  0  0  0  0
  136.5574   77.7354  222.0650 H   0  0  0  0  0  0  0  0  0  0  0  0
  137.3883   77.5815  220.4801 H   0  0  0  0  0  0  0  0  0  0  0  0
  136.3555   75.4656  222.3362 H   0  0  0  0  0  0  0  0  0  0  0  0
  136.3464   75.5346  220.5443 H   0  0  0  0  0  0  0  0  0  0  0  0
  139.3361   72.2996  220.9529 H   0  0  0  0  0  0  0  0  0  0  0  0
  139.9510   73.6240  223.4650 H   0  0  0  0  0  0  0  0  0  0  0  0
  140.9180   72.3830  222.9240 H   0  0  0  0  0  0  0  0  0  0  0  0
  137.4651   71.3884  222.7753 H   0  0  0  0  0  0  0  0  0  0  0  0
  138.9243   70.2254  220.9693 H   0  0  0  0  0  0  0  0  0  0  0  0
  140.2041   70.0683  222.1709 H   0  0  0  0  0  0  0  0  0  0  0  0
  137.2724   69.1814  222.7041 H   0  0  0  0  0  0  0  0  0  0  0  0
  138.4595   68.0485  222.1020 H   0  0  0  0  0  0  0  0  0  0  0  0
  139.0032   66.7401  224.0566 H   0  0  0  0  0  0  0  0  0  0  0  0
  139.9711   66.6198  226.3640 H   0  0  0  0  0  0  0  0  0  0  0  0
  139.9215   70.9146  226.5614 H   0  0  0  0  0  0  0  0  0  0  0  0
  138.0827   71.8837  224.7618 H   0  0  0  0  0  0  0  0  0  0  0  0
  139.8307   72.0381  224.3185 H   0  0  0  0  0  0  0  0  0  0  0  0
  140.2129   74.7197  221.2582 H   0  0  0  0  0  0  0  0  0  0  0  0
  139.3365   75.3895  219.7954 H   0  0  0  0  0  0  0  0  0  0  0  0
  140.7331   76.7989  221.8353 H   0  0  0  0  0  0  0  0  0  0  0  0
  139.8693   77.4325  220.4021 H   0  0  0  0  0  0  0  0  0  0  0  0
  1  2  1  0
  2  3  1  0
  3  4  2  0
  3  5  1  0
  5  6  1  0
  6  7  2  0
  7  8  1  0
  8  9  2  0
  9 10  1  0
 10 11  2  0
  5 12  1  0
 12 13  1  0
 13 14  1  0
 14 15  1  0
 15 16  1  0
 16 17  2  0
 16 18  1  0
 18 19  1  0
 18 20  1  0
 20 21  1  0
 21 22  1  0
 22 23  1  0
 23 24  2  0
 24 25  1  0
 25 26  2  0
 26 27  1  0
 26 28  1  0
 28 29  2  0
 29 30  1  0
 15 31  1  0
 31 32  1  0
 11  6  1  0
 32 12  1  0
 30 20  1  0
 29 23  1  0
  1 33  1  0
  1 34  1  0
  1 35  1  0
  2 36  1  0
  2 37  1  0
  7 38  1  0
  8 39  1  0
  9 40  1  0
 10 41  1  0
 11 42  1  0
 12 43  1  0
 13 44  1  0
 13 45  1  0
 14 46  1  0
 14 47  1  0
 18 48  1  6
 19 49  1  0
 19 50  1  0
 20 51  1  1
 21 52  1  0
 21 53  1  0
 22 54  1  0
 22 55  1  0
 24 56  1  0
 25 57  1  0
 28 58  1  0
 30 59  1  0
 30 60  1  0
 31 61  1  0
 31 62  1  0
 32 63  1  0
 32 64  1  0
M  END
>  <smiles>  (94) 
CCC(=O)N(c1ccccc1)C1CCN(C(=O)[C@@H](N)C2CCc3ccc(Br)cc3C2)CC1

>  <score_type>  (94) 
oracle

>  <origin>  (94) 
autodockgpu

>  <m_score__min__energy>  (94) 
-9.2699999999999996

>  <m_primary>  (94) 
energy

>  <rmsd>  (94) 
8.481654131610414

>  <m_score__min__rmsd>  (94) 
8.481654131610414

>  <meeko>  (94) 
{"free_energy": -8.09, "intermolecular_energy": -10.18, "internal_energy": -1.6, "cluster_size": 1, "cluster_id": 3, "rank_in_cluster": 1}

>  <energy>  (94) 
-6.82

>  <cluster_rmsd>  (94) 
0.0

>  <cluster>  (94) 
9

$$$$

     RDKit          3D

 64 67  0  0  0  0  0  0  0  0999 V2000
  142.1980   79.3300  218.5040 C   0  0  0  0  0  0  0  0  0  0  0  0
  141.3740   78.0710  218.3360 C   0  0  0  0  0  0  0  0  0  0  0  0
  140.2730   78.1090  219.3250 C   0  0  0  0  0  0  0  0  0  0  0  0
  139.2230   78.7290  218.9760 O   0  0  0  0  0  0  0  0  0  0  0  0
  140.4210   77.4760  220.5830 N   0  0  0  0  0  0  0  0  0  0  0  0
  140.7800   78.2740  221.7320 C   0  0  0  0  0  0  0  0  0  0  0  0
  142.1020   78.7040  221.7510 C   0  0  0  0  0  0  0  0  0  0  0  0
  142.5560   79.4750  222.8040 C   0  0  0  0  0  0  0  0  0  0  0  0
  141.6530   79.7960  223.8220 C   0  0  0  0  0  0  0  0  0  0  0  0
  140.3430   79.3610  223.7850 C   0  0  0  0  0  0  0  0  0  0  0  0
  139.8790   78.5800  222.7210 C   0  0  0  0  0  0  0  0  0  0  0  0
  140.2300   76.0570  220.7890 C   0  0  0  0  0  0  0  0  0  0  0  0
  141.4530   75.5550  221.5600 C   0  0  0  0  0  0  0  0  0  0  0  0
  141.4540   74.0540  221.5740 C   0  0  0  0  0  0  0  0  0  0  0  0
  140.0850   73.5790  221.4970 N   0  0  0  0  0  0  0  0  0  0  0  0
  139.9400   72.2720  220.9070 C   0  0  0  0  0  0  0  0  0  0  0  0
  141.0260   71.7450  220.5000 O   0  0  0  0  0  0  0  0  0  0  0  0
  138.6600   71.5630  220.7650 C   0  0  1  0  0  0  0  0  0  0  0  0
  138.6910   70.6380  219.6320 N   0  0  0  0  0  0  0  0  0  0  0  0
  138.4040   70.8030  222.0480 C   0  0  1  0  0  0  0  0  0  0  0  0
  139.1990   69.5070  221.9320 C   0  0  0  0  0  0  0  0  0  0  0  0
  138.6940   68.6340  223.0920 C   0  0  0  0  0  0  0  0  0  0  0  0
  139.2700   69.3240  224.2940 C   0  0  0  0  0  0  0  0  0  0  0  0
  139.7940   68.5590  225.3420 C   0  0  0  0  0  0  0  0  0  0  0  0
  140.3300   69.1990  226.4580 C   0  0  0  0  0  0  0  0  0  0  0  0
  140.3310   70.5860  226.5070 C   0  0  0  0  0  0  0  0  0  0  0  0
  141.0730   71.4270  228.0520 Br  0  0  0  0  0  0  0  0  0  0  0  0
  139.8040   71.3110  225.4510 C   0  0  0  0  0  0  0  0  0  0  0  0
  139.2650   70.6970  224.3300 C   0  0  0  0  0  0  0  0  0  0  0  0
  138.7330   71.5740  223.2700 C   0  0  0  0  0  0  0  0  0  0  0  0
  138.9360   74.3310  221.9560 C   0  0  0  0  0  0  0  0  0  0  0  0
  138.9730   75.7910  221.5960 C   0  0  0  0  0  0  0  0  0  0  0  0
  142.3345   79.5386  219.5754 H   0  0  0  0  0  0  0  0  0  0  0  0
  143.1806   79.1912  218.0293 H   0  0  0  0  0  0  0  0  0  0  0  0
  141.6776   80.1749  218.0293 H   0  0  0  0  0  0  0  0  0  0  0  0
  140.9598   78.0291  217.3178 H   0  0  0  0  0  0  0  0  0  0  0  0
  142.0000   77.1807  218.4954 H   0  0  0  0  0  0  0  0  0  0  0  0
  142.7834   78.4317  220.9315 H   0  0  0  0  0  0  0  0  0  0  0  0
  143.5978   79.8261  222.8403 H   0  0  0  0  0  0  0  0  0  0  0  0
  141.9933   80.4080  224.6703 H   0  0  0  0  0  0  0  0  0  0  0  0
  139.6567   79.6315  224.6010 H   0  0  0  0  0  0  0  0  0  0  0  0
  138.8381   78.2268  222.6790 H   0  0  0  0  0  0  0  0  0  0  0  0
  140.1190   75.5410  219.8239 H   0  0  0  0  0  0  0  0  0  0  0  0
  142.3691   75.9178  221.0709 H   0  0  0  0  0  0  0  0  0  0  0  0
  141.4152   75.9314  222.5929 H   0  0  0  0  0  0  0  0  0  0  0  0
  142.0238   73.6777  220.7116 H   0  0  0  0  0  0  0  0  0  0  0  0
  141.9210   73.6917  222.5017 H   0  0  0  0  0  0  0  0  0  0  0  0
  137.8556   72.2891  220.5757 H   0  0  0  0  0  0  0  0  0  0  0  0
  139.7010   70.3840  219.5140 H   0  0  0  0  0  0  0  0  0  0  0  0
  138.1870   69.7690  219.8210 H   0  0  0  0  0  0  0  0  0  0  0  0
  137.3293   70.5997  222.1651 H   0  0  0  0  0  0  0  0  0  0  0  0
  139.0052   69.0182  220.9658 H   0  0  0  0  0  0  0  0  0  0  0  0
  140.2843   69.6787  221.9824 H   0  0  0  0  0  0  0  0  0  0  0  0
  137.5947   68.6210  223.1301 H   0  0  0  0  0  0  0  0  0  0  0  0
  138.9922   67.5785  223.0080 H   0  0  0  0  0  0  0  0  0  0  0  0
  139.7830   67.4605  225.2854 H   0  0  0  0  0  0  0  0  0  0  0  0
  140.7471   68.6121  227.2896 H   0  0  0  0  0  0  0  0  0  0  0  0
  139.8132   72.4097  225.5030 H   0  0  0  0  0  0  0  0  0  0  0  0
  137.8219   72.0685  223.6378 H   0  0  0  0  0  0  0  0  0  0  0  0
  139.5031   72.3169  223.0150 H   0  0  0  0  0  0  0  0  0  0  0  0
  138.0330   73.8882  221.5103 H   0  0  0  0  0  0  0  0  0  0  0  0
  138.9391   74.2753  223.0546 H   0  0  0  0  0  0  0  0  0  0  0  0
  138.0866   76.0480  220.9974 H   0  0  0  0  0  0  0  0  0  0  0  0
  138.9751   76.4041  222.5093 H   0  0  0  0  0  0  0  0  0  0  0  0
  1  2  1  0
  2  3  1  0
  3  4  2  0
  3  5  1  0
  5  6  1  0
  6  7  2  0
  7  8  1  0
  8  9  2  0
  9 10  1  0
 10 11  2  0
  5 12  1  0
 12 13  1  0
 13 14  1  0
 14 15  1  0
 15 16  1  0
 16 17  2  0
 16 18  1  0
 18 19  1  0
 18 20  1  0
 20 21  1  0
 21 22  1  0
 22 23  1  0
 23 24  2  0
 24 25  1  0
 25 26  2  0
 26 27  1  0
 26 28  1  0
 28 29  2  0
 29 30  1  0
 15 31  1  0
 31 32  1  0
 11  6  1  0
 32 12  1  0
 30 20  1  0
 29 23  1  0
  1 33  1  0
  1 34  1  0
  1 35  1  0
  2 36  1  0
  2 37  1  0
  7 38  1  0
  8 39  1  0
  9 40  1  0
 10 41  1  0
 11 42  1  0
 12 43  1  0
 13 44  1  0
 13 45  1  0
 14 46  1  0
 14 47  1  0
 18 48  1  6
 19 49  1  0
 19 50  1  0
 20 51  1  1
 21 52  1  0
 21 53  1  0
 22 54  1  0
 22 55  1  0
 24 56  1  0
 25 57  1  0
 28 58  1  0
 30 59  1  0
 30 60  1  0
 31 61  1  0
 31 62  1  0
 32 63  1  0
 32 64  1  0
M  END
>  <smiles>  (95) 
CCC(=O)N(c1ccccc1)C1CCN(C(=O)[C@@H](N)C2CCc3ccc(Br)cc3C2)CC1

>  <score_type>  (95) 
oracle

>  <origin>  (95) 
autodockgpu

>  <m_score__min__energy>  (95) 
-9.2699999999999996

>  <m_primary>  (95) 
energy

>  <rmsd>  (95) 
8.108097889111882

>  <m_score__min__rmsd>  (95) 
8.108097889111882

>  <meeko>  (95) 
{"free_energy": -7.04, "intermolecular_energy": -9.13, "internal_energy": -2.38, "cluster_size": 4, "cluster_id": 8, "rank_in_cluster": 2}

>  <energy>  (95) 
-6.79

>  <cluster_rmsd>  (95) 
0.0

>  <cluster>  (95) 
10

$$$$

     RDKit          3D

 64 67  0  0  0  0  0  0  0  0999 V2000
  142.5750   77.3350  218.6500 C   0  0  0  0  0  0  0  0  0  0  0  0
  141.5880   78.4800  218.5580 C   0  0  0  0  0  0  0  0  0  0  0  0
  140.3710   78.0950  219.3080 C   0  0  0  0  0  0  0  0  0  0  0  0
  139.2600   78.3670  218.7580 O   0  0  0  0  0  0  0  0  0  0  0  0
  140.4800   77.4580  220.5670 N   0  0  0  0  0  0  0  0  0  0  0  0
  140.8340   78.2470  221.7240 C   0  0  0  0  0  0  0  0  0  0  0  0
  142.1520   78.6870  221.7470 C   0  0  0  0  0  0  0  0  0  0  0  0
  142.6010   79.4510  222.8070 C   0  0  0  0  0  0  0  0  0  0  0  0
  141.6970   79.7540  223.8290 C   0  0  0  0  0  0  0  0  0  0  0  0
  140.3910   79.3080  223.7900 C   0  0  0  0  0  0  0  0  0  0  0  0
  139.9320   78.5340  222.7180 C   0  0  0  0  0  0  0  0  0  0  0  0
  140.2550   76.0430  220.7680 C   0  0  0  0  0  0  0  0  0  0  0  0
  141.4500   75.5140  221.5640 C   0  0  0  0  0  0  0  0  0  0  0  0
  141.4180   74.0140  221.5760 C   0  0  0  0  0  0  0  0  0  0  0  0
  140.0410   73.5680  221.4700 N   0  0  0  0  0  0  0  0  0  0  0  0
  139.8800   72.2650  220.8760 C   0  0  0  0  0  0  0  0  0  0  0  0
  140.9630   71.7150  220.4910 O   0  0  0  0  0  0  0  0  0  0  0  0
  138.5880   71.5840  220.7060 C   0  0  1  0  0  0  0  0  0  0  0  0
  138.6130   70.6830  219.5540 N   0  0  0  0  0  0  0  0  0  0  0  0
  138.3050   70.8020  221.9700 C   0  0  1  0  0  0  0  0  0  0  0  0
  139.0380   69.4740  221.8130 C   0  0  0  0  0  0  0  0  0  0  0  0
  138.5000   68.5940  222.9530 C   0  0  0  0  0  0  0  0  0  0  0  0
  139.1150   69.2230  224.1690 C   0  0  0  0  0  0  0  0  0  0  0  0
  139.6100   68.4060  225.1910 C   0  0  0  0  0  0  0  0  0  0  0  0
  140.1820   68.9900  226.3210 C   0  0  0  0  0  0  0  0  0  0  0  0
  140.2490   70.3740  226.4070 C   0  0  0  0  0  0  0  0  0  0  0  0
  141.0380   71.1370  227.9680 Br  0  0  0  0  0  0  0  0  0  0  0  0
  139.7490   71.1510  225.3750 C   0  0  0  0  0  0  0  0  0  0  0  0
  139.1750   70.5940  224.2410 C   0  0  0  0  0  0  0  0  0  0  0  0
  138.6780   71.5230  223.2100 C   0  0  0  0  0  0  0  0  0  0  0  0
  138.9000   74.3450  221.9060 C   0  0  0  0  0  0  0  0  0  0  0  0
  138.9750   75.8030  221.5480 C   0  0  0  0  0  0  0  0  0  0  0  0
  142.7728   77.1055  219.7074 H   0  0  0  0  0  0  0  0  0  0  0  0
  142.1542   76.4475  218.1547 H   0  0  0  0  0  0  0  0  0  0  0  0
  143.5148   77.6203  218.1547 H   0  0  0  0  0  0  0  0  0  0  0  0
  142.0267   79.3875  218.9984 H   0  0  0  0  0  0  0  0  0  0  0  0
  141.3398   78.6876  217.5067 H   0  0  0  0  0  0  0  0  0  0  0  0
  142.8350   78.4280  220.9246 H   0  0  0  0  0  0  0  0  0  0  0  0
  143.6399   79.8104  222.8455 H   0  0  0  0  0  0  0  0  0  0  0  0
  142.0333   80.3608  224.6826 H   0  0  0  0  0  0  0  0  0  0  0  0
  139.7039   79.5637  224.6101 H   0  0  0  0  0  0  0  0  0  0  0  0
  138.8943   78.1717  222.6740 H   0  0  0  0  0  0  0  0  0  0  0  0
  140.1542   75.5302  219.8001 H   0  0  0  0  0  0  0  0  0  0  0  0
  142.3839   75.8571  221.0949 H   0  0  0  0  0  0  0  0  0  0  0  0
  141.3986   75.8903  222.5964 H   0  0  0  0  0  0  0  0  0  0  0  0
  141.9974   73.6263  220.7251 H   0  0  0  0  0  0  0  0  0  0  0  0
  141.8574   73.6412  222.5130 H   0  0  0  0  0  0  0  0  0  0  0  0
  137.7994   72.3291  220.5241 H   0  0  0  0  0  0  0  0  0  0  0  0
  139.6150   70.3880  219.4590 H   0  0  0  0  0  0  0  0  0  0  0  0
  138.0670   69.8320  219.7090 H   0  0  0  0  0  0  0  0  0  0  0  0
  137.2227   70.6461  222.0897 H   0  0  0  0  0  0  0  0  0  0  0  0
  138.8155   69.0213  220.8355 H   0  0  0  0  0  0  0  0  0  0  0  0
  140.1305   69.5936  221.8597 H   0  0  0  0  0  0  0  0  0  0  0  0
  137.4016   68.6312  222.9990 H   0  0  0  0  0  0  0  0  0  0  0  0
  138.7482   67.5285  222.8382 H   0  0  0  0  0  0  0  0  0  0  0  0
  139.5485   67.3112  225.1040 H   0  0  0  0  0  0  0  0  0  0  0  0
  140.5752   68.3619  227.1339 H   0  0  0  0  0  0  0  0  0  0  0  0
  139.8089   72.2463  225.4571 H   0  0  0  0  0  0  0  0  0  0  0  0
  137.7935   72.0493  223.5983 H   0  0  0  0  0  0  0  0  0  0  0  0
  139.4804   72.2358  222.9691 H   0  0  0  0  0  0  0  0  0  0  0  0
  137.9968   73.9218  221.4422 H   0  0  0  0  0  0  0  0  0  0  0  0
  138.8806   74.2896  223.0044 H   0  0  0  0  0  0  0  0  0  0  0  0
  138.1073   76.0785  220.9306 H   0  0  0  0  0  0  0  0  0  0  0  0
  138.9702   76.4158  222.4615 H   0  0  0  0  0  0  0  0  0  0  0  0
  1  2  1  0
  2  3  1  0
  3  4  2  0
  3  5  1  0
  5  6  1  0
  6  7  2  0
  7  8  1  0
  8  9  2  0
  9 10  1  0
 10 11  2  0
  5 12  1  0
 12 13  1  0
 13 14  1  0
 14 15  1  0
 15 16  1  0
 16 17  2  0
 16 18  1  0
 18 19  1  0
 18 20  1  0
 20 21  1  0
 21 22  1  0
 22 23  1  0
 23 24  2  0
 24 25  1  0
 25 26  2  0
 26 27  1  0
 26 28  1  0
 28 29  2  0
 29 30  1  0
 15 31  1  0
 31 32  1  0
 11  6  1  0
 32 12  1  0
 30 20  1  0
 29 23  1  0
  1 33  1  0
  1 34  1  0
  1 35  1  0
  2 36  1  0
  2 37  1  0
  7 38  1  0
  8 39  1  0
  9 40  1  0
 10 41  1  0
 11 42  1  0
 12 43  1  0
 13 44  1  0
 13 45  1  0
 14 46  1  0
 14 47  1  0
 18 48  1  6
 19 49  1  0
 19 50  1  0
 20 51  1  1
 21 52  1  0
 21 53  1  0
 22 54  1  0
 22 55  1  0
 24 56  1  0
 25 57  1  0
 28 58  1  0
 30 59  1  0
 30 60  1  0
 31 61  1  0
 31 62  1  0
 32 63  1  0
 32 64  1  0
M  END
>  <smiles>  (96) 
CCC(=O)N(c1ccccc1)C1CCN(C(=O)[C@@H](N)C2CCc3ccc(Br)cc3C2)CC1

>  <score_type>  (96) 
oracle

>  <origin>  (96) 
autodockgpu

>  <m_score__min__energy>  (96) 
-9.2699999999999996

>  <m_primary>  (96) 
energy

>  <rmsd>  (96) 
8.143825816362845

>  <m_score__min__rmsd>  (96) 
8.143825816362845

>  <meeko>  (96) 
{"free_energy": -7.06, "intermolecular_energy": -9.15, "internal_energy": -2.41, "cluster_size": 4, "cluster_id": 8, "rank_in_cluster": 1}

>  <energy>  (96) 
-6.75

>  <cluster_rmsd>  (96) 
0.0

>  <cluster>  (96) 
11

$$$$

     RDKit          3D

 64 67  0  0  0  0  0  0  0  0999 V2000
  142.3210   81.6230  224.2000 C   0  0  0  0  0  0  0  0  0  0  0  0
  142.8460   80.4160  223.4510 C   0  0  0  0  0  0  0  0  0  0  0  0
  141.7030   79.5140  223.1800 C   0  0  0  0  0  0  0  0  0  0  0  0
  141.7810   78.3440  223.6640 O   0  0  0  0  0  0  0  0  0  0  0  0
  140.6000   79.9690  222.4180 N   0  0  0  0  0  0  0  0  0  0  0  0
  139.3070   80.0740  223.0510 C   0  0  0  0  0  0  0  0  0  0  0  0
  138.3020   79.3240  222.4520 C   0  0  0  0  0  0  0  0  0  0  0  0
  137.0230   79.3490  222.9750 C   0  0  0  0  0  0  0  0  0  0  0  0
  136.7890   80.1410  224.1030 C   0  0  0  0  0  0  0  0  0  0  0  0
  137.7990   80.8800  224.6850 C   0  0  0  0  0  0  0  0  0  0  0  0
  139.0960   80.8580  224.1590 C   0  0  0  0  0  0  0  0  0  0  0  0
  140.6920   80.3400  221.0220 C   0  0  0  0  0  0  0  0  0  0  0  0
  140.2820   81.8110  220.9280 C   0  0  0  0  0  0  0  0  0  0  0  0
  140.0940   82.1850  219.4870 C   0  0  0  0  0  0  0  0  0  0  0  0
  140.9580   81.3580  218.6660 N   0  0  0  0  0  0  0  0  0  0  0  0
  140.4850   81.1560  217.3190 C   0  0  0  0  0  0  0  0  0  0  0  0
  139.3600   81.6950  217.0610 O   0  0  0  0  0  0  0  0  0  0  0  0
  141.2090   80.3950  216.2900 C   0  0  1  0  0  0  0  0  0  0  0  0
  142.5770   80.8880  216.1330 N   0  0  0  0  0  0  0  0  0  0  0  0
  141.2270   78.9420  216.7130 C   0  0  1  0  0  0  0  0  0  0  0  0
  142.6580   78.6530  217.1560 C   0  0  0  0  0  0  0  0  0  0  0  0
  142.7220   77.1240  217.2930 C   0  0  0  0  0  0  0  0  0  0  0  0
  141.8900   76.8700  218.5150 C   0  0  0  0  0  0  0  0  0  0  0  0
  142.3080   75.9130  219.4460 C   0  0  0  0  0  0  0  0  0  0  0  0
  141.5370   75.6770  220.5830 C   0  0  0  0  0  0  0  0  0  0  0  0
  140.3650   76.3990  220.7670 C   0  0  0  0  0  0  0  0  0  0  0  0
  139.3350   76.0490  222.3340 Br  0  0  0  0  0  0  0  0  0  0  0  0
  139.9830   77.3390  219.8250 C   0  0  0  0  0  0  0  0  0  0  0  0
  140.7340   77.5910  218.6850 C   0  0  0  0  0  0  0  0  0  0  0  0
  140.2240   78.6150  217.7540 C   0  0  0  0  0  0  0  0  0  0  0  0
  142.1920   80.7610  219.1290 C   0  0  0  0  0  0  0  0  0  0  0  0
  142.1110   80.1710  220.5090 C   0  0  0  0  0  0  0  0  0  0  0  0
  142.3985   81.4449  225.2827 H   0  0  0  0  0  0  0  0  0  0  0  0
  142.9152   82.5086  223.9307 H   0  0  0  0  0  0  0  0  0  0  0  0
  141.2680   81.7922  223.9307 H   0  0  0  0  0  0  0  0  0  0  0  0
  143.3032   80.7348  222.5027 H   0  0  0  0  0  0  0  0  0  0  0  0
  143.6095   79.8970  224.0491 H   0  0  0  0  0  0  0  0  0  0  0  0
  138.5237   78.7127  221.5648 H   0  0  0  0  0  0  0  0  0  0  0  0
  136.2127   78.7628  222.5171 H   0  0  0  0  0  0  0  0  0  0  0  0
  135.7784   80.1759  224.5359 H   0  0  0  0  0  0  0  0  0  0  0  0
  137.5823   81.4931  225.5722 H   0  0  0  0  0  0  0  0  0  0  0  0
  139.9100   81.4425  224.6127 H   0  0  0  0  0  0  0  0  0  0  0  0
  140.0402   79.6981  220.4111 H   0  0  0  0  0  0  0  0  0  0  0  0
  139.3390   81.9647  221.4731 H   0  0  0  0  0  0  0  0  0  0  0  0
  141.0676   82.4404  221.3714 H   0  0  0  0  0  0  0  0  0  0  0  0
  139.0452   82.0225  219.1980 H   0  0  0  0  0  0  0  0  0  0  0  0
  140.3490   83.2452  219.3427 H   0  0  0  0  0  0  0  0  0  0  0  0
  140.7031   80.5123  215.3203 H   0  0  0  0  0  0  0  0  0  0  0  0
  143.0520   80.6740  217.0430 H   0  0  0  0  0  0  0  0  0  0  0  0
  143.0930   80.3900  215.4050 H   0  0  0  0  0  0  0  0  0  0  0  0
  140.9335   78.2946  215.8735 H   0  0  0  0  0  0  0  0  0  0  0  0
  143.3765   79.0054  216.4013 H   0  0  0  0  0  0  0  0  0  0  0  0
  142.9151   79.1663  218.0943 H   0  0  0  0  0  0  0  0  0  0  0  0
  142.2926   76.6279  216.4101 H   0  0  0  0  0  0  0  0  0  0  0  0
  143.7476   76.7344  217.3732 H   0  0  0  0  0  0  0  0  0  0  0  0
  143.2389   75.3505  219.2818 H   0  0  0  0  0  0  0  0  0  0  0  0
  141.8527   74.9287  221.3248 H   0  0  0  0  0  0  0  0  0  0  0  0
  139.0535   77.9050  219.9852 H   0  0  0  0  0  0  0  0  0  0  0  0
  139.3132   78.2357  217.2677 H   0  0  0  0  0  0  0  0  0  0  0  0
  140.0069   79.5286  218.3269 H   0  0  0  0  0  0  0  0  0  0  0  0
  142.4727   79.9613  218.4278 H   0  0  0  0  0  0  0  0  0  0  0  0
  142.9369   81.5692  219.1739 H   0  0  0  0  0  0  0  0  0  0  0  0
  142.3671   79.1019  220.4712 H   0  0  0  0  0  0  0  0  0  0  0  0
  142.8178   80.6817  221.1796 H   0  0  0  0  0  0  0  0  0  0  0  0
  1  2  1  0
  2  3  1  0
  3  4  2  0
  3  5  1  0
  5  6  1  0
  6  7  2  0
  7  8  1  0
  8  9  2  0
  9 10  1  0
 10 11  2  0
  5 12  1  0
 12 13  1  0
 13 14  1  0
 14 15  1  0
 15 16  1  0
 16 17  2  0
 16 18  1  0
 18 19  1  0
 18 20  1  0
 20 21  1  0
 21 22  1  0
 22 23  1  0
 23 24  2  0
 24 25  1  0
 25 26  2  0
 26 27  1  0
 26 28  1  0
 28 29  2  0
 29 30  1  0
 15 31  1  0
 31 32  1  0
 11  6  1  0
 32 12  1  0
 30 20  1  0
 29 23  1  0
  1 33  1  0
  1 34  1  0
  1 35  1  0
  2 36  1  0
  2 37  1  0
  7 38  1  0
  8 39  1  0
  9 40  1  0
 10 41  1  0
 11 42  1  0
 12 43  1  0
 13 44  1  0
 13 45  1  0
 14 46  1  0
 14 47  1  0
 18 48  1  6
 19 49  1  0
 19 50  1  0
 20 51  1  6
 21 52  1  0
 21 53  1  0
 22 54  1  0
 22 55  1  0
 24 56  1  0
 25 57  1  0
 28 58  1  0
 30 59  1  0
 30 60  1  0
 31 61  1  0
 31 62  1  0
 32 63  1  0
 32 64  1  0
M  END
>  <smiles>  (97) 
CCC(=O)N(c1ccccc1)C1CCN(C(=O)[C@@H](N)C2CCc3ccc(Br)cc3C2)CC1

>  <score_type>  (97) 
oracle

>  <origin>  (97) 
autodockgpu

>  <m_score__min__energy>  (97) 
-9.2699999999999996

>  <m_primary>  (97) 
energy

>  <rmsd>  (97) 
5.529130628496356

>  <m_score__min__rmsd>  (97) 
5.529130628496356

>  <meeko>  (97) 
{"free_energy": -6.23, "intermolecular_energy": -8.32, "internal_energy": -2.99, "cluster_size": 2, "cluster_id": 12, "rank_in_cluster": 1}

>  <energy>  (97) 
-6.75

>  <cluster_rmsd>  (97) 
0.25

>  <cluster>  (97) 
11

$$$$

     RDKit          3D

 64 67  0  0  0  0  0  0  0  0999 V2000
  134.2450   69.0410  225.5820 C   0  0  0  0  0  0  0  0  0  0  0  0
  135.4940   69.8920  225.6870 C   0  0  0  0  0  0  0  0  0  0  0  0
  136.4490   69.4330  224.6540 C   0  0  0  0  0  0  0  0  0  0  0  0
  136.0310   68.5370  223.8580 O   0  0  0  0  0  0  0  0  0  0  0  0
  137.7490   69.9880  224.5860 N   0  0  0  0  0  0  0  0  0  0  0  0
  138.7600   69.5190  225.5060 C   0  0  0  0  0  0  0  0  0  0  0  0
  138.7890   68.1420  225.6860 C   0  0  0  0  0  0  0  0  0  0  0  0
  139.7170   67.5830  226.5450 C   0  0  0  0  0  0  0  0  0  0  0  0
  140.6020   68.4400  227.2060 C   0  0  0  0  0  0  0  0  0  0  0  0
  140.5580   69.8070  227.0140 C   0  0  0  0  0  0  0  0  0  0  0  0
  139.6200   70.3770  226.1460 C   0  0  0  0  0  0  0  0  0  0  0  0
  138.1330   71.0110  223.6380 C   0  0  0  0  0  0  0  0  0  0  0  0
  138.7460   70.2910  222.4350 C   0  0  0  0  0  0  0  0  0  0  0  0
  139.4080   71.2940  221.5370 C   0  0  0  0  0  0  0  0  0  0  0  0
  138.7280   72.5690  221.6680 N   0  0  0  0  0  0  0  0  0  0  0  0
  139.5530   73.7160  221.3820 C   0  0  0  0  0  0  0  0  0  0  0  0
  140.7660   73.4470  221.1000 O   0  0  0  0  0  0  0  0  0  0  0  0
  139.0760   75.1070  221.4030 C   0  0  1  0  0  0  0  0  0  0  0  0
  138.5030   75.4500  222.7040 N   0  0  0  0  0  0  0  0  0  0  0  0
  140.2550   76.0070  221.1020 C   0  0  1  0  0  0  0  0  0  0  0  0
  139.7880   76.9550  220.0020 C   0  0  0  0  0  0  0  0  0  0  0  0
  141.0690   77.6470  219.5120 C   0  0  0  0  0  0  0  0  0  0  0  0
  141.4160   78.5450  220.6630 C   0  0  0  0  0  0  0  0  0  0  0  0
  141.8830   79.8400  220.4090 C   0  0  0  0  0  0  0  0  0  0  0  0
  142.2040   80.6760  221.4770 C   0  0  0  0  0  0  0  0  0  0  0  0
  142.0540   80.2040  222.7750 C   0  0  0  0  0  0  0  0  0  0  0  0
  142.5050   81.3760  224.2110 Br  0  0  0  0  0  0  0  0  0  0  0  0
  141.5890   78.9170  222.9870 C   0  0  0  0  0  0  0  0  0  0  0  0
  141.2620   78.0660  221.9410 C   0  0  0  0  0  0  0  0  0  0  0  0
  140.7780   76.7190  222.2930 C   0  0  0  0  0  0  0  0  0  0  0  0
  137.3430   72.7150  222.0610 C   0  0  0  0  0  0  0  0  0  0  0  0
  136.9250   71.8150  223.1900 C   0  0  0  0  0  0  0  0  0  0  0  0
  133.8833   68.7946  226.5912 H   0  0  0  0  0  0  0  0  0  0  0  0
  133.4667   69.5975  225.0393 H   0  0  0  0  0  0  0  0  0  0  0  0
  134.4781   68.1130  225.0393 H   0  0  0  0  0  0  0  0  0  0  0  0
  135.2407   70.9490  225.5178 H   0  0  0  0  0  0  0  0  0  0  0  0
  135.9389   69.7953  226.6883 H   0  0  0  0  0  0  0  0  0  0  0  0
  138.0769   67.4992  225.1476 H   0  0  0  0  0  0  0  0  0  0  0  0
  139.7578   66.4953  226.7038 H   0  0  0  0  0  0  0  0  0  0  0  0
  141.3491   68.0166  227.8934 H   0  0  0  0  0  0  0  0  0  0  0  0
  141.2680   70.4547  227.5492 H   0  0  0  0  0  0  0  0  0  0  0  0
  139.5737   71.4640  225.9836 H   0  0  0  0  0  0  0  0  0  0  0  0
  138.8460   71.7111  224.0979 H   0  0  0  0  0  0  0  0  0  0  0  0
  139.4925   69.5627  222.7847 H   0  0  0  0  0  0  0  0  0  0  0  0
  137.9550   69.7664  221.8791 H   0  0  0  0  0  0  0  0  0  0  0  0
  140.4632   71.4077  221.8263 H   0  0  0  0  0  0  0  0  0  0  0  0
  139.3539   70.9502  220.4935 H   0  0  0  0  0  0  0  0  0  0  0  0
  138.2844   75.2368  220.6503 H   0  0  0  0  0  0  0  0  0  0  0  0
  137.7420   74.7470  222.8630 H   0  0  0  0  0  0  0  0  0  0  0  0
  139.1720   75.3390  223.4700 H   0  0  0  0  0  0  0  0  0  0  0  0
  141.1176   75.4100  220.7712 H   0  0  0  0  0  0  0  0  0  0  0  0
  139.3126   76.3948  219.1834 H   0  0  0  0  0  0  0  0  0  0  0  0
  139.0391   77.6748  220.3639 H   0  0  0  0  0  0  0  0  0  0  0  0
  141.8686   76.9154  219.3239 H   0  0  0  0  0  0  0  0  0  0  0  0
  140.9398   78.1845  218.5610 H   0  0  0  0  0  0  0  0  0  0  0  0
  141.9958   80.1952  219.3741 H   0  0  0  0  0  0  0  0  0  0  0  0
  142.5715   81.6966  221.2945 H   0  0  0  0  0  0  0  0  0  0  0  0
  141.4750   78.5569  224.0201 H   0  0  0  0  0  0  0  0  0  0  0  0
  141.6096   76.1396  222.7205 H   0  0  0  0  0  0  0  0  0  0  0  0
  139.9612   76.8228  223.0224 H   0  0  0  0  0  0  0  0  0  0  0  0
  137.1808   73.7574  222.3726 H   0  0  0  0  0  0  0  0  0  0  0  0
  136.7353   72.4315  221.1890 H   0  0  0  0  0  0  0  0  0  0  0  0
  136.5508   72.4209  224.0284 H   0  0  0  0  0  0  0  0  0  0  0  0
  136.1247   71.1383  222.8560 H   0  0  0  0  0  0  0  0  0  0  0  0
  1  2  1  0
  2  3  1  0
  3  4  2  0
  3  5  1  0
  5  6  1  0
  6  7  2  0
  7  8  1  0
  8  9  2  0
  9 10  1  0
 10 11  2  0
  5 12  1  0
 12 13  1  0
 13 14  1  0
 14 15  1  0
 15 16  1  0
 16 17  2  0
 16 18  1  0
 18 19  1  0
 18 20  1  0
 20 21  1  0
 21 22  1  0
 22 23  1  0
 23 24  2  0
 24 25  1  0
 25 26  2  0
 26 27  1  0
 26 28  1  0
 28 29  2  0
 29 30  1  0
 15 31  1  0
 31 32  1  0
 11  6  1  0
 32 12  1  0
 30 20  1  0
 29 23  1  0
  1 33  1  0
  1 34  1  0
  1 35  1  0
  2 36  1  0
  2 37  1  0
  7 38  1  0
  8 39  1  0
  9 40  1  0
 10 41  1  0
 11 42  1  0
 12 43  1  0
 13 44  1  0
 13 45  1  0
 14 46  1  0
 14 47  1  0
 18 48  1  6
 19 49  1  0
 19 50  1  0
 20 51  1  6
 21 52  1  0
 21 53  1  0
 22 54  1  0
 22 55  1  0
 24 56  1  0
 25 57  1  0
 28 58  1  0
 30 59  1  0
 30 60  1  0
 31 61  1  0
 31 62  1  0
 32 63  1  0
 32 64  1  0
M  END
>  <smiles>  (98) 
CCC(=O)N(c1ccccc1)C1CCN(C(=O)[C@@H](N)C2CCc3ccc(Br)cc3C2)CC1

>  <score_type>  (98) 
oracle

>  <origin>  (98) 
autodockgpu

>  <m_score__min__energy>  (98) 
-9.2699999999999996

>  <m_primary>  (98) 
energy

>  <rmsd>  (98) 
6.336957137415139

>  <m_score__min__rmsd>  (98) 
6.336957137415139

>  <meeko>  (98) 
{"free_energy": -8.42, "intermolecular_energy": -10.51, "internal_energy": -1.53, "cluster_size": 21, "cluster_id": 1, "rank_in_cluster": 15}

>  <energy>  (98) 
-6.23

>  <cluster_rmsd>  (98) 
0.0

>  <cluster>  (98) 
12

$$$$

     RDKit          3D

 64 67  0  0  0  0  0  0  0  0999 V2000
  136.2800   70.0400  224.1800 C   0  0  0  0  0  0  0  0  0  0  0  0
  137.1550   69.9970  222.9450 C   0  0  0  0  0  0  0  0  0  0  0  0
  138.0410   71.1830  222.9710 C   0  0  0  0  0  0  0  0  0  0  0  0
  137.5070   72.2930  222.6690 O   0  0  0  0  0  0  0  0  0  0  0  0
  139.4060   71.0470  223.3210 N   0  0  0  0  0  0  0  0  0  0  0  0
  139.7480   70.5530  224.6350 C   0  0  0  0  0  0  0  0  0  0  0  0
  140.3260   71.4940  225.4780 C   0  0  0  0  0  0  0  0  0  0  0  0
  140.6930   71.1320  226.7600 C   0  0  0  0  0  0  0  0  0  0  0  0
  140.4630   69.8130  227.1620 C   0  0  0  0  0  0  0  0  0  0  0  0
  139.8870   68.8910  226.3110 C   0  0  0  0  0  0  0  0  0  0  0  0
  139.5140   69.2540  225.0120 C   0  0  0  0  0  0  0  0  0  0  0  0
  140.4960   71.3780  222.4290 C   0  0  0  0  0  0  0  0  0  0  0  0
  140.1210   70.8280  221.0510 C   0  0  0  0  0  0  0  0  0  0  0  0
  141.3160   70.8950  220.1450 C   0  0  0  0  0  0  0  0  0  0  0  0
  142.1630   71.9980  220.5580 N   0  0  0  0  0  0  0  0  0  0  0  0
  143.5560   71.8360  220.2260 C   0  0  0  0  0  0  0  0  0  0  0  0
  143.8470   70.7330  219.6600 O   0  0  0  0  0  0  0  0  0  0  0  0
  144.5970   72.8390  220.5010 C   0  0  1  0  0  0  0  0  0  0  0  0
  145.9330   72.2510  220.4100 N   0  0  0  0  0  0  0  0  0  0  0  0
  144.4490   73.9520  219.4860 C   0  0  1  0  0  0  0  0  0  0  0  0
  143.4440   73.4480  218.4560 C   0  0  0  0  0  0  0  0  0  0  0  0
  143.5360   74.4530  217.2970 C   0  0  0  0  0  0  0  0  0  0  0  0
  142.8970   75.6800  217.8780 C   0  0  0  0  0  0  0  0  0  0  0  0
  142.0430   76.4540  217.0850 C   0  0  0  0  0  0  0  0  0  0  0  0
  141.4490   77.5940  217.6240 C   0  0  0  0  0  0  0  0  0  0  0  0
  141.7190   77.9390  218.9410 C   0  0  0  0  0  0  0  0  0  0  0  0
  140.8880   79.5060  219.6450 Br  0  0  0  0  0  0  0  0  0  0  0  0
  142.5700   77.1490  219.6970 C   0  0  0  0  0  0  0  0  0  0  0  0
  143.1730   76.0100  219.1830 C   0  0  0  0  0  0  0  0  0  0  0  0
  144.0600   75.2510  220.0840 C   0  0  0  0  0  0  0  0  0  0  0  0
  141.6850   73.1730  221.2560 C   0  0  0  0  0  0  0  0  0  0  0  0
  140.6900   72.8810  222.3440 C   0  0  0  0  0  0  0  0  0  0  0  0
  136.9130   70.0089  225.0791 H   0  0  0  0  0  0  0  0  0  0  0  0
  135.6898   70.9682  224.1790 H   0  0  0  0  0  0  0  0  0  0  0  0
  135.6016   69.1741  224.1790 H   0  0  0  0  0  0  0  0  0  0  0  0
  137.7604   69.0786  222.9481 H   0  0  0  0  0  0  0  0  0  0  0  0
  136.5347   70.0030  222.0366 H   0  0  0  0  0  0  0  0  0  0  0  0
  140.4908   72.5231  225.1263 H   0  0  0  0  0  0  0  0  0  0  0  0
  141.1527   71.8604  227.4442 H   0  0  0  0  0  0  0  0  0  0  0  0
  140.7471   69.5030  228.1785 H   0  0  0  0  0  0  0  0  0  0  0  0
  139.7195   67.8605  226.6576 H   0  0  0  0  0  0  0  0  0  0  0  0
  139.0536   68.5303  224.3233 H   0  0  0  0  0  0  0  0  0  0  0  0
  141.4373   70.9433  222.7965 H   0  0  0  0  0  0  0  0  0  0  0  0
  139.7936   69.7825  221.1499 H   0  0  0  0  0  0  0  0  0  0  0  0
  139.3035   71.4288  220.6258 H   0  0  0  0  0  0  0  0  0  0  0  0
  141.8803   69.9530  220.2093 H   0  0  0  0  0  0  0  0  0  0  0  0
  140.9862   71.0493  219.1070 H   0  0  0  0  0  0  0  0  0  0  0  0
  144.4766   73.2262  221.5235 H   0  0  0  0  0  0  0  0  0  0  0  0
  146.3000   72.2530  221.3930 H   0  0  0  0  0  0  0  0  0  0  0  0
  145.9140   71.2760  220.1030 H   0  0  0  0  0  0  0  0  0  0  0  0
  145.4186   74.1749  219.0168 H   0  0  0  0  0  0  0  0  0  0  0  0
  143.7119   72.4371  218.1150 H   0  0  0  0  0  0  0  0  0  0  0  0
  142.4260   73.3787  218.8670 H   0  0  0  0  0  0  0  0  0  0  0  0
  144.5830   74.6441  217.0189 H   0  0  0  0  0  0  0  0  0  0  0  0
  143.0517   74.1024  216.3737 H   0  0  0  0  0  0  0  0  0  0  0  0
  141.8416   76.1648  216.0430 H   0  0  0  0  0  0  0  0  0  0  0  0
  140.7748   78.2124  217.0133 H   0  0  0  0  0  0  0  0  0  0  0  0
  142.7744   77.4344  220.7395 H   0  0  0  0  0  0  0  0  0  0  0  0
  144.9669   75.8429  220.2767 H   0  0  0  0  0  0  0  0  0  0  0  0
  143.5181   75.0542  221.0208 H   0  0  0  0  0  0  0  0  0  0  0  0
  142.5497   73.6820  221.7068 H   0  0  0  0  0  0  0  0  0  0  0  0
  141.1657   73.7938  220.5110 H   0  0  0  0  0  0  0  0  0  0  0  0
  141.0682   73.2611  223.3044 H   0  0  0  0  0  0  0  0  0  0  0  0
  139.7317   73.3725  222.1200 H   0  0  0  0  0  0  0  0  0  0  0  0
  1  2  1  0
  2  3  1  0
  3  4  2  0
  3  5  1  0
  5  6  1  0
  6  7  2  0
  7  8  1  0
  8  9  2  0
  9 10  1  0
 10 11  2  0
  5 12  1  0
 12 13  1  0
 13 14  1  0
 14 15  1  0
 15 16  1  0
 16 17  2  0
 16 18  1  0
 18 19  1  0
 18 20  1  0
 20 21  1  0
 21 22  1  0
 22 23  1  0
 23 24  2  0
 24 25  1  0
 25 26  2  0
 26 27  1  0
 26 28  1  0
 28 29  2  0
 29 30  1  0
 15 31  1  0
 31 32  1  0
 11  6  1  0
 32 12  1  0
 30 20  1  0
 29 23  1  0
  1 33  1  0
  1 34  1  0
  1 35  1  0
  2 36  1  0
  2 37  1  0
  7 38  1  0
  8 39  1  0
  9 40  1  0
 10 41  1  0
 11 42  1  0
 12 43  1  0
 13 44  1  0
 13 45  1  0
 14 46  1  0
 14 47  1  0
 18 48  1  1
 19 49  1  0
 19 50  1  0
 20 51  1  6
 21 52  1  0
 21 53  1  0
 22 54  1  0
 22 55  1  0
 24 56  1  0
 25 57  1  0
 28 58  1  0
 30 59  1  0
 30 60  1  0
 31 61  1  0
 31 62  1  0
 32 63  1  0
 32 64  1  0
M  END
>  <smiles>  (99) 
CCC(=O)N(c1ccccc1)C1CCN(C(=O)[C@@H](N)C2CCc3ccc(Br)cc3C2)CC1

>  <score_type>  (99) 
oracle

>  <origin>  (99) 
autodockgpu

>  <m_score__min__energy>  (99) 
-9.2699999999999996

>  <m_primary>  (99) 
energy

>  <rmsd>  (99) 
6.872200936441065

>  <m_score__min__rmsd>  (99) 
6.872200936441065

>  <meeko>  (99) 
{"free_energy": -7.17, "intermolecular_energy": -9.26, "internal_energy": -2.45, "cluster_size": 5, "cluster_id": 7, "rank_in_cluster": 1}

>  <energy>  (99) 
-5.92

>  <cluster_rmsd>  (99) 
0.8

>  <cluster>  (99) 
12

$$$$

     RDKit          3D

 64 67  0  0  0  0  0  0  0  0999 V2000
  137.3110   73.0070  221.9620 C   0  0  0  0  0  0  0  0  0  0  0  0
  137.1150   71.9930  223.0690 C   0  0  0  0  0  0  0  0  0  0  0  0
  138.0530   70.8720  222.8340 C   0  0  0  0  0  0  0  0  0  0  0  0
  137.5810   69.8580  222.2350 O   0  0  0  0  0  0  0  0  0  0  0  0
  139.3980   70.9640  223.2660 N   0  0  0  0  0  0  0  0  0  0  0  0
  139.7100   70.6940  224.6500 C   0  0  0  0  0  0  0  0  0  0  0  0
  140.6180   71.5740  225.2240 C   0  0  0  0  0  0  0  0  0  0  0  0
  140.9890   71.4110  226.5450 C   0  0  0  0  0  0  0  0  0  0  0  0
  140.4260   70.3500  227.2610 C   0  0  0  0  0  0  0  0  0  0  0  0
  139.5250   69.4850  226.6740 C   0  0  0  0  0  0  0  0  0  0  0  0
  139.1460   69.6460  225.3360 C   0  0  0  0  0  0  0  0  0  0  0  0
  140.4950   71.3170  222.3910 C   0  0  0  0  0  0  0  0  0  0  0  0
  140.1410   70.7850  221.0010 C   0  0  0  0  0  0  0  0  0  0  0  0
  141.3450   70.8770  220.1100 C   0  0  0  0  0  0  0  0  0  0  0  0
  142.1780   71.9800  220.5500 N   0  0  0  0  0  0  0  0  0  0  0  0
  143.5760   71.8350  220.2320 C   0  0  0  0  0  0  0  0  0  0  0  0
  143.8830   70.7430  219.6530 O   0  0  0  0  0  0  0  0  0  0  0  0
  144.6050   72.8420  220.5340 C   0  0  1  0  0  0  0  0  0  0  0  0
  145.9460   72.2630  220.4690 N   0  0  0  0  0  0  0  0  0  0  0  0
  144.4730   73.9600  219.5220 C   0  0  1  0  0  0  0  0  0  0  0  0
  143.4920   73.4560  218.4690 C   0  0  0  0  0  0  0  0  0  0  0  0
  143.6030   74.4670  217.3170 C   0  0  0  0  0  0  0  0  0  0  0  0
  142.9460   75.6880  217.8910 C   0  0  0  0  0  0  0  0  0  0  0  0
  142.1040   76.4610  217.0840 C   0  0  0  0  0  0  0  0  0  0  0  0
  141.4930   77.5960  217.6160 C   0  0  0  0  0  0  0  0  0  0  0  0
  141.7340   77.9350  218.9410 C   0  0  0  0  0  0  0  0  0  0  0  0
  140.8810   79.4950  219.6340 Br  0  0  0  0  0  0  0  0  0  0  0  0
  142.5730   77.1470  219.7100 C   0  0  0  0  0  0  0  0  0  0  0  0
  143.1930   76.0130  219.2030 C   0  0  0  0  0  0  0  0  0  0  0  0
  144.0650   75.2540  220.1180 C   0  0  0  0  0  0  0  0  0  0  0  0
  141.6820   73.1400  221.2600 C   0  0  0  0  0  0  0  0  0  0  0  0
  140.6770   72.8230  222.3310 C   0  0  0  0  0  0  0  0  0  0  0  0
  137.5024   73.9971  222.4014 H   0  0  0  0  0  0  0  0  0  0  0  0
  138.1683   72.7099  221.3402 H   0  0  0  0  0  0  0  0  0  0  0  0
  136.4047   73.0508  221.3402 H   0  0  0  0  0  0  0  0  0  0  0  0
  137.3260   72.4583  224.0431 H   0  0  0  0  0  0  0  0  0  0  0  0
  136.0772   71.6283  223.0737 H   0  0  0  0  0  0  0  0  0  0  0  0
  141.0402   72.3975  224.6294 H   0  0  0  0  0  0  0  0  0  0  0  0
  141.7067   72.0962  227.0198 H   0  0  0  0  0  0  0  0  0  0  0  0
  140.7071   70.2017  228.3141 H   0  0  0  0  0  0  0  0  0  0  0  0
  139.0999   68.6597  227.2641 H   0  0  0  0  0  0  0  0  0  0  0  0
  138.4289   68.9641  224.8557 H   0  0  0  0  0  0  0  0  0  0  0  0
  141.4355   70.8841  222.7624 H   0  0  0  0  0  0  0  0  0  0  0  0
  139.8225   69.7351  221.0801 H   0  0  0  0  0  0  0  0  0  0  0  0
  139.3228   71.3847  220.5757 H   0  0  0  0  0  0  0  0  0  0  0  0
  141.9167   69.9388  220.1653 H   0  0  0  0  0  0  0  0  0  0  0  0
  141.0252   71.0456  219.0711 H   0  0  0  0  0  0  0  0  0  0  0  0
  144.4598   73.2225  221.5558 H   0  0  0  0  0  0  0  0  0  0  0  0
  146.2940   72.2640  221.4590 H   0  0  0  0  0  0  0  0  0  0  0  0
  145.9390   71.2880  220.1590 H   0  0  0  0  0  0  0  0  0  0  0  0
  145.4512   74.1905  219.0748 H   0  0  0  0  0  0  0  0  0  0  0  0
  143.7719   72.4481  218.1289 H   0  0  0  0  0  0  0  0  0  0  0  0
  142.4661   73.3798  218.8585 H   0  0  0  0  0  0  0  0  0  0  0  0
  144.6545   74.6645  217.0615 H   0  0  0  0  0  0  0  0  0  0  0  0
  143.1397   74.1187  216.3821 H   0  0  0  0  0  0  0  0  0  0  0  0
  141.9252   76.1753  216.0369 H   0  0  0  0  0  0  0  0  0  0  0  0
  140.8289   78.2146  216.9944 H   0  0  0  0  0  0  0  0  0  0  0  0
  142.7545   77.4287  220.7577 H   0  0  0  0  0  0  0  0  0  0  0  0
  144.9647   75.8495  220.3322 H   0  0  0  0  0  0  0  0  0  0  0  0
  143.5049   75.0497  221.0424 H   0  0  0  0  0  0  0  0  0  0  0  0
  142.5369   73.6491  221.7289 H   0  0  0  0  0  0  0  0  0  0  0  0
  141.1665   73.7681  220.5185 H   0  0  0  0  0  0  0  0  0  0  0  0
  141.0404   73.1917  223.3016 H   0  0  0  0  0  0  0  0  0  0  0  0
  139.7172   73.3096  222.1028 H   0  0  0  0  0  0  0  0  0  0  0  0
  1  2  1  0
  2  3  1  0
  3  4  2  0
  3  5  1  0
  5  6  1  0
  6  7  2  0
  7  8  1  0
  8  9  2  0
  9 10  1  0
 10 11  2  0
  5 12  1  0
 12 13  1  0
 13 14  1  0
 14 15  1  0
 15 16  1  0
 16 17  2  0
 16 18  1  0
 18 19  1  0
 18 20  1  0
 20 21  1  0
 21 22  1  0
 22 23  1  0
 23 24  2  0
 24 25  1  0
 25 26  2  0
 26 27  1  0
 26 28  1  0
 28 29  2  0
 29 30  1  0
 15 31  1  0
 31 32  1  0
 11  6  1  0
 32 12  1  0
 30 20  1  0
 29 23  1  0
  1 33  1  0
  1 34  1  0
  1 35  1  0
  2 36  1  0
  2 37  1  0
  7 38  1  0
  8 39  1  0
  9 40  1  0
 10 41  1  0
 11 42  1  0
 12 43  1  0
 13 44  1  0
 13 45  1  0
 14 46  1  0
 14 47  1  0
 18 48  1  1
 19 49  1  0
 19 50  1  0
 20 51  1  6
 21 52  1  0
 21 53  1  0
 22 54  1  0
 22 55  1  0
 24 56  1  0
 25 57  1  0
 28 58  1  0
 30 59  1  0
 30 60  1  0
 31 61  1  0
 31 62  1  0
 32 63  1  0
 32 64  1  0
M  END
>  <smiles>  (100) 
CCC(=O)N(c1ccccc1)C1CCN(C(=O)[C@@H](N)C2CCc3ccc(Br)cc3C2)CC1

>  <score_type>  (100) 
oracle

>  <origin>  (100) 
autodockgpu

>  <m_score__min__energy>  (100) 
-9.2699999999999996

>  <m_primary>  (100) 
energy

>  <rmsd>  (100) 
6.881628911160669

>  <m_score__min__rmsd>  (100) 
6.881628911160669

>  <meeko>  (100) 
{"free_energy": -7.09, "intermolecular_energy": -9.18, "internal_energy": -2.47, "cluster_size": 5, "cluster_id": 7, "rank_in_cluster": 4}

>  <energy>  (100) 
-6.13

>  <cluster_rmsd>  (100) 
0.0

>  <cluster>  (100) 
13

$$$$
