
     RDKit          3D

 45 48  0  0  0  0  0  0  0  0999 V2000
  139.9640   74.0880  222.2650 O   0  0  0  0  0  0  0  0  0  0  0  0
  139.8540   72.8350  222.0780 C   0  0  0  0  0  0  0  0  0  0  0  0
  139.6240   72.3500  220.7490 N   0  0  0  0  0  0  0  0  0  0  0  0
  139.5330   73.3360  219.6900 C   0  0  0  0  0  0  0  0  0  0  0  0
  140.8700   73.9340  219.4360 C   0  0  0  0  0  0  0  0  0  0  0  0
  141.0420   75.1470  219.1490 O   0  0  0  0  0  0  0  0  0  0  0  0
  142.0240   73.1040  219.5160 N   0  0  0  0  0  0  0  0  0  0  0  0
  142.7600   72.4960  218.4230 C   0  0  0  0  0  0  0  0  0  0  0  0
  143.0650   71.1260  218.9890 C   0  0  0  0  0  0  0  0  0  0  0  0
  142.7940   71.1980  220.4860 C   0  0  0  0  0  0  0  0  0  0  0  0
  142.7170   72.6880  220.7450 C   0  0  1  0  0  0  0  0  0  0  0  0
  144.0840   73.2270  220.7900 C   0  0  0  0  0  0  0  0  0  0  0  0
  144.5810   74.4660  220.4480 C   0  0  0  0  0  0  0  0  0  0  0  0
  145.9090   74.5100  220.6570 N   0  0  0  0  0  0  0  0  0  0  0  0
  146.2680   73.2880  221.1380 C   0  0  0  0  0  0  0  0  0  0  0  0
  145.1500   72.5230  221.2110 N   0  0  0  0  0  0  0  0  0  0  0  0
  139.9540   71.8830  223.1890 C   0  0  0  0  0  0  0  0  0  0  0  0
  139.5180   70.5950  222.9960 C   0  0  0  0  0  0  0  0  0  0  0  0
  139.5650   69.6210  223.9660 C   0  0  0  0  0  0  0  0  0  0  0  0
  140.0820   69.9860  225.1950 C   0  0  0  0  0  0  0  0  0  0  0  0
  140.1320   69.0230  226.1650 C   0  0  0  0  0  0  0  0  0  0  0  0
  140.6550   69.3900  227.4060 C   0  0  0  0  0  0  0  0  0  0  0  0
  140.7350   68.1800  228.6770 Cl  0  0  0  0  0  0  0  0  0  0  0  0
  141.0950   70.6850  227.6070 C   0  0  0  0  0  0  0  0  0  0  0  0
  141.0290   71.6330  226.6030 C   0  0  0  0  0  0  0  0  0  0  0  0
  140.5110   71.2790  225.3640 C   0  0  0  0  0  0  0  0  0  0  0  0
  140.4490   72.2030  224.3870 N   0  0  0  0  0  0  0  0  0  0  0  0
  139.5280   71.3170  220.5670 H   0  0  0  0  0  0  0  0  0  0  0  0
  139.1701   72.8516  218.7715 H   0  0  0  0  0  0  0  0  0  0  0  0
  138.8345   74.1294  219.9943 H   0  0  0  0  0  0  0  0  0  0  0  0
  142.1448   72.4271  217.5137 H   0  0  0  0  0  0  0  0  0  0  0  0
  143.6512   73.0616  218.1133 H   0  0  0  0  0  0  0  0  0  0  0  0
  142.4157   70.3704  218.5225 H   0  0  0  0  0  0  0  0  0  0  0  0
  144.1084   70.8401  218.7901 H   0  0  0  0  0  0  0  0  0  0  0  0
  141.8455   70.7026  220.7407 H   0  0  0  0  0  0  0  0  0  0  0  0
  143.5603   70.6911  221.0909 H   0  0  0  0  0  0  0  0  0  0  0  0
  142.2298   73.0078  221.6780 H   0  0  0  0  0  0  0  0  0  0  0  0
  143.9778   75.2999  220.0596 H   0  0  0  0  0  0  0  0  0  0  0  0
  147.2850   72.9760  221.4180 H   0  0  0  0  0  0  0  0  0  0  0  0
  145.1510   71.5200  221.5560 H   0  0  0  0  0  0  0  0  0  0  0  0
  139.1084   70.3275  222.0108 H   0  0  0  0  0  0  0  0  0  0  0  0
  139.2077   68.5988  223.7727 H   0  0  0  0  0  0  0  0  0  0  0  0
  139.7744   68.0003  225.9747 H   0  0  0  0  0  0  0  0  0  0  0  0
  141.5066   70.9673  228.5872 H   0  0  0  0  0  0  0  0  0  0  0  0
  141.3836   72.6585  226.7838 H   0  0  0  0  0  0  0  0  0  0  0  0
  1  2  2  0
  2  3  1  0
  3  4  1  0
  4  5  1  0
  5  6  2  0
  5  7  1  0
  7  8  1  0
  8  9  1  0
  9 10  1  0
 10 11  1  0
 11 12  1  0
 12 13  2  0
 13 14  1  0
 14 15  2  0
 15 16  1  0
  2 17  1  0
 17 18  2  0
 18 19  1  0
 19 20  2  0
 20 21  1  0
 21 22  2  0
 22 23  1  0
 22 24  1  0
 24 25  2  0
 25 26  1  0
 26 27  2  0
 11  7  1  0
 16 12  1  0
 27 17  1  0
 26 20  1  0
  3 28  1  0
  4 29  1  0
  4 30  1  0
  8 31  1  0
  8 32  1  0
  9 33  1  0
  9 34  1  0
 10 35  1  0
 10 36  1  0
 11 37  1  1
 13 38  1  0
 15 39  1  0
 16 40  1  0
 18 41  1  0
 19 42  1  0
 21 43  1  0
 24 44  1  0
 25 45  1  0
M  END
>  <smiles>  (1) 
O=C(NCC(=O)N1CCC[C@H]1c1cnc[nH]1)c1ccc2cc(Cl)ccc2n1

>  <score_type>  (1) 
oracle

>  <origin>  (1) 
autodockgpu

>  <m_score__min__energy>  (1) 
-8.2200000000000006

>  <m_primary>  (1) 
energy

>  <rmsd>  (1) 
4.148430917994379

>  <m_score__min__rmsd>  (1) 
4.148430917994379

>  <meeko>  (1) 
{"free_energy": -7.25, "intermolecular_energy": -8.74, "internal_energy": -1.52, "cluster_size": 2, "cluster_id": 5, "rank_in_cluster": 1}

>  <energy>  (1) 
-8.22

>  <cluster_rmsd>  (1) 
0.0

>  <cluster>  (1) 
1

$$$$

     RDKit          3D

 45 48  0  0  0  0  0  0  0  0999 V2000
  139.7470   72.3590  220.8460 O   0  0  0  0  0  0  0  0  0  0  0  0
  139.6750   72.7640  222.0500 C   0  0  0  0  0  0  0  0  0  0  0  0
  139.4370   74.1540  222.3010 N   0  0  0  0  0  0  0  0  0  0  0  0
  139.2920   75.0210  221.1470 C   0  0  0  0  0  0  0  0  0  0  0  0
  139.1070   76.4280  221.5890 C   0  0  0  0  0  0  0  0  0  0  0  0
  138.1700   76.8010  222.3420 O   0  0  0  0  0  0  0  0  0  0  0  0
  140.0290   77.4180  221.1440 N   0  0  0  0  0  0  0  0  0  0  0  0
  139.8210   78.4350  220.1290 C   0  0  0  0  0  0  0  0  0  0  0  0
  141.1530   78.4220  219.4100 C   0  0  0  0  0  0  0  0  0  0  0  0
  142.1260   77.6600  220.3010 C   0  0  0  0  0  0  0  0  0  0  0  0
  141.4030   77.6140  221.6300 C   0  0  1  0  0  0  0  0  0  0  0  0
  141.5500   78.9200  222.2900 C   0  0  0  0  0  0  0  0  0  0  0  0
  142.6260   79.7770  222.3740 C   0  0  0  0  0  0  0  0  0  0  0  0
  142.2980   80.8700  223.0850 N   0  0  0  0  0  0  0  0  0  0  0  0
  140.9990   80.7130  223.4620 C   0  0  0  0  0  0  0  0  0  0  0  0
  140.5620   79.5260  222.9720 N   0  0  0  0  0  0  0  0  0  0  0  0
  139.8300   71.8400  223.1790 C   0  0  0  0  0  0  0  0  0  0  0  0
  139.4470   70.5310  223.0180 C   0  0  0  0  0  0  0  0  0  0  0  0
  139.5480   69.5810  224.0080 C   0  0  0  0  0  0  0  0  0  0  0  0
  140.0640   69.9940  225.2220 C   0  0  0  0  0  0  0  0  0  0  0  0
  140.1670   69.0540  226.2110 C   0  0  0  0  0  0  0  0  0  0  0  0
  140.6890   69.4700  227.4370 C   0  0  0  0  0  0  0  0  0  0  0  0
  140.8370   68.2920  228.7320 Cl  0  0  0  0  0  0  0  0  0  0  0  0
  141.0750   70.7870  227.6050 C   0  0  0  0  0  0  0  0  0  0  0  0
  140.9570   71.7090  226.5820 C   0  0  0  0  0  0  0  0  0  0  0  0
  140.4390   71.3070  225.3580 C   0  0  0  0  0  0  0  0  0  0  0  0
  140.3250   72.2070  224.3630 N   0  0  0  0  0  0  0  0  0  0  0  0
  139.3730   74.5160  223.2880 H   0  0  0  0  0  0  0  0  0  0  0  0
  140.1951   74.9509  220.5228 H   0  0  0  0  0  0  0  0  0  0  0  0
  138.4123   74.7060  220.5666 H   0  0  0  0  0  0  0  0  0  0  0  0
  138.9968   78.1647  219.4526 H   0  0  0  0  0  0  0  0  0  0  0  0
  139.5387   79.4189  220.5317 H   0  0  0  0  0  0  0  0  0  0  0  0
  141.0539   77.9164  218.4381 H   0  0  0  0  0  0  0  0  0  0  0  0
  141.5095   79.4452  219.2204 H   0  0  0  0  0  0  0  0  0  0  0  0
  142.3067   76.6465  219.9135 H   0  0  0  0  0  0  0  0  0  0  0  0
  143.1183   78.1307  220.3625 H   0  0  0  0  0  0  0  0  0  0  0  0
  141.7444   76.8625  222.3571 H   0  0  0  0  0  0  0  0  0  0  0  0
  143.6125   79.5930  221.9236 H   0  0  0  0  0  0  0  0  0  0  0  0
  140.4081   81.4235  224.0587 H   0  0  0  0  0  0  0  0  0  0  0  0
  139.5780   79.1590  223.1220 H   0  0  0  0  0  0  0  0  0  0  0  0
  139.0370   70.2253  222.0441 H   0  0  0  0  0  0  0  0  0  0  0  0
  139.2326   68.5405  223.8411 H   0  0  0  0  0  0  0  0  0  0  0  0
  139.8514   68.0131  226.0467 H   0  0  0  0  0  0  0  0  0  0  0  0
  141.4850   71.1080  228.5739 H   0  0  0  0  0  0  0  0  0  0  0  0
  141.2707   72.7520  226.7362 H   0  0  0  0  0  0  0  0  0  0  0  0
  1  2  2  0
  2  3  1  0
  3  4  1  0
  4  5  1  0
  5  6  2  0
  5  7  1  0
  7  8  1  0
  8  9  1  0
  9 10  1  0
 10 11  1  0
 11 12  1  0
 12 13  2  0
 13 14  1  0
 14 15  2  0
 15 16  1  0
  2 17  1  0
 17 18  2  0
 18 19  1  0
 19 20  2  0
 20 21  1  0
 21 22  2  0
 22 23  1  0
 22 24  1  0
 24 25  2  0
 25 26  1  0
 26 27  2  0
 11  7  1  0
 16 12  1  0
 27 17  1  0
 26 20  1  0
  3 28  1  0
  4 29  1  0
  4 30  1  0
  8 31  1  0
  8 32  1  0
  9 33  1  0
  9 34  1  0
 10 35  1  0
 10 36  1  0
 11 37  1  1
 13 38  1  0
 15 39  1  0
 16 40  1  0
 18 41  1  0
 19 42  1  0
 21 43  1  0
 24 44  1  0
 25 45  1  0
M  END
>  <smiles>  (2) 
O=C(NCC(=O)N1CCC[C@H]1c1cnc[nH]1)c1ccc2cc(Cl)ccc2n1

>  <score_type>  (2) 
oracle

>  <origin>  (2) 
autodockgpu

>  <m_score__min__energy>  (2) 
-8.2200000000000006

>  <m_primary>  (2) 
energy

>  <rmsd>  (2) 
2.204874430164312

>  <m_score__min__rmsd>  (2) 
2.204874430164312

>  <meeko>  (2) 
{"free_energy": -7.46, "intermolecular_energy": -8.95, "internal_energy": -1.45, "cluster_size": 27, "cluster_id": 1, "rank_in_cluster": 21}

>  <energy>  (2) 
-8.22

>  <cluster_rmsd>  (2) 
0.28

>  <cluster>  (2) 
1

$$$$

     RDKit          3D

 45 48  0  0  0  0  0  0  0  0999 V2000
  138.8050   73.0820  221.1950 O   0  0  0  0  0  0  0  0  0  0  0  0
  139.8790   72.8020  221.8150 C   0  0  0  0  0  0  0  0  0  0  0  0
  141.1150   73.3550  221.3460 N   0  0  0  0  0  0  0  0  0  0  0  0
  141.0580   74.2110  220.1770 C   0  0  0  0  0  0  0  0  0  0  0  0
  141.7960   75.4750  220.4360 C   0  0  0  0  0  0  0  0  0  0  0  0
  143.0130   75.6370  220.1580 O   0  0  0  0  0  0  0  0  0  0  0  0
  141.1040   76.5690  221.0300 N   0  0  0  0  0  0  0  0  0  0  0  0
  140.6630   77.7950  220.3900 C   0  0  0  0  0  0  0  0  0  0  0  0
  140.9830   78.8230  221.4540 C   0  0  0  0  0  0  0  0  0  0  0  0
  141.2410   78.0550  222.7440 C   0  0  0  0  0  0  0  0  0  0  0  0
  140.6880   76.6800  222.4360 C   0  0  1  0  0  0  0  0  0  0  0  0
  139.2230   76.7270  222.5530 C   0  0  0  0  0  0  0  0  0  0  0  0
  138.3480   77.7910  222.5580 C   0  0  0  0  0  0  0  0  0  0  0  0
  137.0830   77.3540  222.6880 N   0  0  0  0  0  0  0  0  0  0  0  0
  137.1470   75.9970  222.7670 C   0  0  0  0  0  0  0  0  0  0  0  0
  138.4510   75.6330  222.6840 N   0  0  0  0  0  0  0  0  0  0  0  0
  139.8780   71.9280  222.9930 C   0  0  0  0  0  0  0  0  0  0  0  0
  139.1880   70.7420  222.9330 C   0  0  0  0  0  0  0  0  0  0  0  0
  139.1190   69.8480  223.9760 C   0  0  0  0  0  0  0  0  0  0  0  0
  139.7890   70.1860  225.1370 C   0  0  0  0  0  0  0  0  0  0  0  0
  139.7250   69.3020  226.1780 C   0  0  0  0  0  0  0  0  0  0  0  0
  140.4020   69.6430  227.3500 C   0  0  0  0  0  0  0  0  0  0  0  0
  140.3430   68.5320  228.7100 Cl  0  0  0  0  0  0  0  0  0  0  0  0
  141.0980   70.8350  227.4160 C   0  0  0  0  0  0  0  0  0  0  0  0
  141.1410   71.7050  226.3430 C   0  0  0  0  0  0  0  0  0  0  0  0
  140.4720   71.3770  225.1720 C   0  0  0  0  0  0  0  0  0  0  0  0
  140.5150   72.2250  224.1270 N   0  0  0  0  0  0  0  0  0  0  0  0
  142.0200   73.1380  221.8410 H   0  0  0  0  0  0  0  0  0  0  0  0
  141.5149   73.6910  219.3221 H   0  0  0  0  0  0  0  0  0  0  0  0
  140.0071   74.4460  219.9524 H   0  0  0  0  0  0  0  0  0  0  0  0
  141.2230   77.9883  219.4632 H   0  0  0  0  0  0  0  0  0  0  0  0
  139.6077   77.7844  220.0797 H   0  0  0  0  0  0  0  0  0  0  0  0
  141.8773   79.3968  221.1695 H   0  0  0  0  0  0  0  0  0  0  0  0
  140.1535   79.5349  221.5774 H   0  0  0  0  0  0  0  0  0  0  0  0
  142.3169   78.0077  222.9679 H   0  0  0  0  0  0  0  0  0  0  0  0
  140.7788   78.5211  223.6267 H   0  0  0  0  0  0  0  0  0  0  0  0
  141.0210   75.8527  223.0799 H   0  0  0  0  0  0  0  0  0  0  0  0
  138.6421   78.8472  222.4684 H   0  0  0  0  0  0  0  0  0  0  0  0
  136.2913   75.3149  222.8786 H   0  0  0  0  0  0  0  0  0  0  0  0
  138.7790   74.6260  222.7200 H   0  0  0  0  0  0  0  0  0  0  0  0
  138.6617   70.4934  221.9996 H   0  0  0  0  0  0  0  0  0  0  0  0
  138.5562   68.9068  223.8902 H   0  0  0  0  0  0  0  0  0  0  0  0
  139.1628   68.3602  226.0952 H   0  0  0  0  0  0  0  0  0  0  0  0
  141.6294   71.0971  228.3428 H   0  0  0  0  0  0  0  0  0  0  0  0
  141.7006   72.6492  226.4164 H   0  0  0  0  0  0  0  0  0  0  0  0
  1  2  2  0
  2  3  1  0
  3  4  1  0
  4  5  1  0
  5  6  2  0
  5  7  1  0
  7  8  1  0
  8  9  1  0
  9 10  1  0
 10 11  1  0
 11 12  1  0
 12 13  2  0
 13 14  1  0
 14 15  2  0
 15 16  1  0
  2 17  1  0
 17 18  2  0
 18 19  1  0
 19 20  2  0
 20 21  1  0
 21 22  2  0
 22 23  1  0
 22 24  1  0
 24 25  2  0
 25 26  1  0
 26 27  2  0
 11  7  1  0
 16 12  1  0
 27 17  1  0
 26 20  1  0
  3 28  1  0
  4 29  1  0
  4 30  1  0
  8 31  1  0
  8 32  1  0
  9 33  1  0
  9 34  1  0
 10 35  1  0
 10 36  1  0
 11 37  1  1
 13 38  1  0
 15 39  1  0
 16 40  1  0
 18 41  1  0
 19 42  1  0
 21 43  1  0
 24 44  1  0
 25 45  1  0
M  END
>  <smiles>  (3) 
O=C(NCC(=O)N1CCC[C@H]1c1cnc[nH]1)c1ccc2cc(Cl)ccc2n1

>  <score_type>  (3) 
oracle

>  <origin>  (3) 
autodockgpu

>  <m_score__min__energy>  (3) 
-8.2200000000000006

>  <m_primary>  (3) 
energy

>  <rmsd>  (3) 
3.1945508874080915

>  <m_score__min__rmsd>  (3) 
3.1945508874080915

>  <meeko>  (3) 
{"free_energy": -7.08, "intermolecular_energy": -8.57, "internal_energy": -2.05, "cluster_size": 1, "cluster_id": 6, "rank_in_cluster": 1}

>  <energy>  (3) 
-8.22

>  <cluster_rmsd>  (3) 
0.31

>  <cluster>  (3) 
1

$$$$

     RDKit          3D

 45 48  0  0  0  0  0  0  0  0999 V2000
  140.6290   72.4830  220.7990 O   0  0  0  0  0  0  0  0  0  0  0  0
  140.0350   72.7750  221.8840 C   0  0  0  0  0  0  0  0  0  0  0  0
  139.3320   74.0200  221.9770 N   0  0  0  0  0  0  0  0  0  0  0  0
  139.3450   74.8780  220.8080 C   0  0  0  0  0  0  0  0  0  0  0  0
  140.3640   75.9470  220.9720 C   0  0  0  0  0  0  0  0  0  0  0  0
  140.2360   76.9090  221.7730 O   0  0  0  0  0  0  0  0  0  0  0  0
  141.5520   75.8940  220.1890 N   0  0  0  0  0  0  0  0  0  0  0  0
  142.5870   76.9060  220.0750 C   0  0  0  0  0  0  0  0  0  0  0  0
  142.9010   76.8510  218.5950 C   0  0  0  0  0  0  0  0  0  0  0  0
  142.2800   75.5660  218.0610 C   0  0  0  0  0  0  0  0  0  0  0  0
  141.9790   74.7850  219.3230 C   0  0  1  0  0  0  0  0  0  0  0  0
  143.2290   74.1840  219.8110 C   0  0  0  0  0  0  0  0  0  0  0  0
  143.4680   73.3040  220.8440 C   0  0  0  0  0  0  0  0  0  0  0  0
  144.7800   73.0230  220.9240 N   0  0  0  0  0  0  0  0  0  0  0  0
  145.3900   73.7290  219.9330 C   0  0  0  0  0  0  0  0  0  0  0  0
  144.4350   74.4270  219.2680 N   0  0  0  0  0  0  0  0  0  0  0  0
  140.0560   71.8680  223.0370 C   0  0  0  0  0  0  0  0  0  0  0  0
  139.5380   70.6040  222.8920 C   0  0  0  0  0  0  0  0  0  0  0  0
  139.5060   69.6740  223.9040 C   0  0  0  0  0  0  0  0  0  0  0  0
  140.0290   70.0570  225.1250 C   0  0  0  0  0  0  0  0  0  0  0  0
  140.0000   69.1360  226.1360 C   0  0  0  0  0  0  0  0  0  0  0  0
  140.5290   69.5230  227.3690 C   0  0  0  0  0  0  0  0  0  0  0  0
  140.5100   68.3680  228.6920 Cl  0  0  0  0  0  0  0  0  0  0  0  0
  141.0520   70.7930  227.5210 C   0  0  0  0  0  0  0  0  0  0  0  0
  141.0640   71.6980  226.4760 C   0  0  0  0  0  0  0  0  0  0  0  0
  140.5410   71.3250  225.2450 C   0  0  0  0  0  0  0  0  0  0  0  0
  140.5540   72.2070  224.2280 N   0  0  0  0  0  0  0  0  0  0  0  0
  138.8320   74.2870  222.8650 H   0  0  0  0  0  0  0  0  0  0  0  0
  139.5870   74.2778  219.9185 H   0  0  0  0  0  0  0  0  0  0  0  0
  138.3538   75.3399  220.6887 H   0  0  0  0  0  0  0  0  0  0  0  0
  142.2136   77.8977  220.3700 H   0  0  0  0  0  0  0  0  0  0  0  0
  143.4574   76.7326  220.7249 H   0  0  0  0  0  0  0  0  0  0  0  0
  142.4670   77.7226  218.0831 H   0  0  0  0  0  0  0  0  0  0  0  0
  143.9870   76.8667  218.4209 H   0  0  0  0  0  0  0  0  0  0  0  0
  141.3594   75.7762  217.4968 H   0  0  0  0  0  0  0  0  0  0  0  0
  142.9347   75.0254  217.3617 H   0  0  0  0  0  0  0  0  0  0  0  0
  141.2540   73.9619  219.2394 H   0  0  0  0  0  0  0  0  0  0  0  0
  142.6952   72.8904  221.5085 H   0  0  0  0  0  0  0  0  0  0  0  0
  146.4672   73.7330  219.7104 H   0  0  0  0  0  0  0  0  0  0  0  0
  144.6440   75.0630  218.4450 H   0  0  0  0  0  0  0  0  0  0  0  0
  139.1261   70.3203  221.9122 H   0  0  0  0  0  0  0  0  0  0  0  0
  139.0833   68.6704  223.7491 H   0  0  0  0  0  0  0  0  0  0  0  0
  139.5774   68.1319  225.9840 H   0  0  0  0  0  0  0  0  0  0  0  0
  141.4679   71.0904  228.4949 H   0  0  0  0  0  0  0  0  0  0  0  0
  141.4841   72.7046  226.6184 H   0  0  0  0  0  0  0  0  0  0  0  0
  1  2  2  0
  2  3  1  0
  3  4  1  0
  4  5  1  0
  5  6  2  0
  5  7  1  0
  7  8  1  0
  8  9  1  0
  9 10  1  0
 10 11  1  0
 11 12  1  0
 12 13  2  0
 13 14  1  0
 14 15  2  0
 15 16  1  0
  2 17  1  0
 17 18  2  0
 18 19  1  0
 19 20  2  0
 20 21  1  0
 21 22  2  0
 22 23  1  0
 22 24  1  0
 24 25  2  0
 25 26  1  0
 26 27  2  0
 11  7  1  0
 16 12  1  0
 27 17  1  0
 26 20  1  0
  3 28  1  0
  4 29  1  0
  4 30  1  0
  8 31  1  0
  8 32  1  0
  9 33  1  0
  9 34  1  0
 10 35  1  0
 10 36  1  0
 11 37  1  6
 13 38  1  0
 15 39  1  0
 16 40  1  0
 18 41  1  0
 19 42  1  0
 21 43  1  0
 24 44  1  0
 25 45  1  0
M  END
>  <smiles>  (4) 
O=C(NCC(=O)N1CCC[C@H]1c1cnc[nH]1)c1ccc2cc(Cl)ccc2n1

>  <score_type>  (4) 
oracle

>  <origin>  (4) 
autodockgpu

>  <m_score__min__energy>  (4) 
-8.2200000000000006

>  <m_primary>  (4) 
energy

>  <rmsd>  (4) 
3.068118352868083

>  <m_score__min__rmsd>  (4) 
3.068118352868083

>  <meeko>  (4) 
{"free_energy": -7.53, "intermolecular_energy": -9.02, "internal_energy": -1.43, "cluster_size": 13, "cluster_id": 2, "rank_in_cluster": 2}

>  <energy>  (4) 
-8.21

>  <cluster_rmsd>  (4) 
0.08

>  <cluster>  (4) 
1

$$$$

     RDKit          3D

 45 48  0  0  0  0  0  0  0  0999 V2000
  139.7580   72.2330  220.7340 O   0  0  0  0  0  0  0  0  0  0  0  0
  139.7330   72.6670  221.9290 C   0  0  0  0  0  0  0  0  0  0  0  0
  139.5650   74.0720  222.1530 N   0  0  0  0  0  0  0  0  0  0  0  0
  139.4310   74.9190  220.9830 C   0  0  0  0  0  0  0  0  0  0  0  0
  140.6970   75.6600  220.7450 C   0  0  0  0  0  0  0  0  0  0  0  0
  141.8050   75.0960  220.5520 O   0  0  0  0  0  0  0  0  0  0  0  0
  140.6700   77.0840  220.7300 N   0  0  0  0  0  0  0  0  0  0  0  0
  139.5070   77.9510  220.6680 C   0  0  0  0  0  0  0  0  0  0  0  0
  139.9820   79.0290  219.7180 C   0  0  0  0  0  0  0  0  0  0  0  0
  141.4940   78.8790  219.6050 C   0  0  0  0  0  0  0  0  0  0  0  0
  141.8340   77.9810  220.7760 C   0  0  1  0  0  0  0  0  0  0  0  0
  141.8310   78.7900  222.0040 C   0  0  0  0  0  0  0  0  0  0  0  0
  141.8350   80.1560  222.1890 C   0  0  0  0  0  0  0  0  0  0  0  0
  141.8290   80.4480  223.5020 N   0  0  0  0  0  0  0  0  0  0  0  0
  141.8210   79.2600  224.1650 C   0  0  0  0  0  0  0  0  0  0  0  0
  141.8220   78.2650  223.2420 N   0  0  0  0  0  0  0  0  0  0  0  0
  139.8740   71.7630  223.0750 C   0  0  0  0  0  0  0  0  0  0  0  0
  139.4870   70.4530  222.9340 C   0  0  0  0  0  0  0  0  0  0  0  0
  139.5740   69.5200  223.9410 C   0  0  0  0  0  0  0  0  0  0  0  0
  140.0820   69.9520  225.1530 C   0  0  0  0  0  0  0  0  0  0  0  0
  140.1720   69.0290  226.1590 C   0  0  0  0  0  0  0  0  0  0  0  0
  140.6850   69.4640  227.3820 C   0  0  0  0  0  0  0  0  0  0  0  0
  140.8160   68.3090  228.6980 Cl  0  0  0  0  0  0  0  0  0  0  0  0
  141.0760   70.7820  227.5300 C   0  0  0  0  0  0  0  0  0  0  0  0
  140.9710   71.6860  226.4900 C   0  0  0  0  0  0  0  0  0  0  0  0
  140.4620   71.2660  225.2690 C   0  0  0  0  0  0  0  0  0  0  0  0
  140.3610   72.1480  224.2570 N   0  0  0  0  0  0  0  0  0  0  0  0
  139.5410   74.4580  223.1330 H   0  0  0  0  0  0  0  0  0  0  0  0
  139.2034   74.2954  220.1059 H   0  0  0  0  0  0  0  0  0  0  0  0
  138.6166   75.6393  221.1498 H   0  0  0  0  0  0  0  0  0  0  0  0
  138.6312   77.4198  220.2669 H   0  0  0  0  0  0  0  0  0  0  0  0
  139.1785   78.3300  221.6470 H   0  0  0  0  0  0  0  0  0  0  0  0
  139.5134   78.8981  218.7315 H   0  0  0  0  0  0  0  0  0  0  0  0
  139.7104   80.0290  220.0872 H   0  0  0  0  0  0  0  0  0  0  0  0
  141.7747   78.4086  218.6511 H   0  0  0  0  0  0  0  0  0  0  0  0
  142.0284   79.8403  219.6256 H   0  0  0  0  0  0  0  0  0  0  0  0
  142.8082   77.4710  220.7468 H   0  0  0  0  0  0  0  0  0  0  0  0
  141.8421   80.9004  221.3791 H   0  0  0  0  0  0  0  0  0  0  0  0
  141.8148   79.1290  225.2571 H   0  0  0  0  0  0  0  0  0  0  0  0
  141.8170   77.2350  223.4940 H   0  0  0  0  0  0  0  0  0  0  0  0
  139.0851   70.1319  221.9617 H   0  0  0  0  0  0  0  0  0  0  0  0
  139.2544   68.4784  223.7895 H   0  0  0  0  0  0  0  0  0  0  0  0
  139.8531   67.9868  226.0100 H   0  0  0  0  0  0  0  0  0  0  0  0
  141.4794   71.1183  228.4965 H   0  0  0  0  0  0  0  0  0  0  0  0
  141.2883   72.7301  226.6288 H   0  0  0  0  0  0  0  0  0  0  0  0
  1  2  2  0
  2  3  1  0
  3  4  1  0
  4  5  1  0
  5  6  2  0
  5  7  1  0
  7  8  1  0
  8  9  1  0
  9 10  1  0
 10 11  1  0
 11 12  1  0
 12 13  2  0
 13 14  1  0
 14 15  2  0
 15 16  1  0
  2 17  1  0
 17 18  2  0
 18 19  1  0
 19 20  2  0
 20 21  1  0
 21 22  2  0
 22 23  1  0
 22 24  1  0
 24 25  2  0
 25 26  1  0
 26 27  2  0
 11  7  1  0
 16 12  1  0
 27 17  1  0
 26 20  1  0
  3 28  1  0
  4 29  1  0
  4 30  1  0
  8 31  1  0
  8 32  1  0
  9 33  1  0
  9 34  1  0
 10 35  1  0
 10 36  1  0
 11 37  1  6
 13 38  1  0
 15 39  1  0
 16 40  1  0
 18 41  1  0
 19 42  1  0
 21 43  1  0
 24 44  1  0
 25 45  1  0
M  END
>  <smiles>  (5) 
O=C(NCC(=O)N1CCC[C@H]1c1cnc[nH]1)c1ccc2cc(Cl)ccc2n1

>  <score_type>  (5) 
oracle

>  <origin>  (5) 
autodockgpu

>  <m_score__min__energy>  (5) 
-8.2200000000000006

>  <m_primary>  (5) 
energy

>  <rmsd>  (5) 
2.0608919471440266

>  <m_score__min__rmsd>  (5) 
2.0608919471440266

>  <meeko>  (5) 
{"free_energy": -7.72, "intermolecular_energy": -9.21, "internal_energy": -1.25, "cluster_size": 27, "cluster_id": 1, "rank_in_cluster": 15}

>  <energy>  (5) 
-8.17

>  <cluster_rmsd>  (5) 
0.08

>  <cluster>  (5) 
1

$$$$

     RDKit          3D

 45 48  0  0  0  0  0  0  0  0999 V2000
  140.5110   72.5320  220.8010 O   0  0  0  0  0  0  0  0  0  0  0  0
  140.0710   72.8630  221.9470 C   0  0  0  0  0  0  0  0  0  0  0  0
  139.5350   74.1790  222.1310 N   0  0  0  0  0  0  0  0  0  0  0  0
  139.5290   75.0600  220.9800 C   0  0  0  0  0  0  0  0  0  0  0  0
  140.5580   76.1190  221.1440 C   0  0  0  0  0  0  0  0  0  0  0  0
  141.7810   75.9410  220.9080 O   0  0  0  0  0  0  0  0  0  0  0  0
  140.1540   77.4090  221.5930 N   0  0  0  0  0  0  0  0  0  0  0  0
  139.3120   77.7320  222.7310 C   0  0  0  0  0  0  0  0  0  0  0  0
  138.4610   78.8500  222.1700 C   0  0  0  0  0  0  0  0  0  0  0  0
  139.1340   79.3130  220.8840 C   0  0  0  0  0  0  0  0  0  0  0  0
  140.5140   78.6990  220.9840 C   0  0  1  0  0  0  0  0  0  0  0  0
  141.3230   79.5110  221.9050 C   0  0  0  0  0  0  0  0  0  0  0  0
  141.0650   80.7230  222.5100 C   0  0  0  0  0  0  0  0  0  0  0  0
  142.1040   81.0900  223.2810 N   0  0  0  0  0  0  0  0  0  0  0  0
  143.0380   80.1050  223.1700 C   0  0  0  0  0  0  0  0  0  0  0  0
  142.5480   79.1560  222.3330 N   0  0  0  0  0  0  0  0  0  0  0  0
  140.1020   71.9290  223.0790 C   0  0  0  0  0  0  0  0  0  0  0  0
  139.6120   70.6590  222.8990 C   0  0  0  0  0  0  0  0  0  0  0  0
  139.5920   69.7040  223.8890 C   0  0  0  0  0  0  0  0  0  0  0  0
  140.0980   70.0690  225.1230 C   0  0  0  0  0  0  0  0  0  0  0  0
  140.0820   69.1240  226.1120 C   0  0  0  0  0  0  0  0  0  0  0  0
  140.5930   69.4930  227.3570 C   0  0  0  0  0  0  0  0  0  0  0  0
  140.5890   68.3060  228.6530 Cl  0  0  0  0  0  0  0  0  0  0  0  0
  141.0880   70.7700  227.5440 C   0  0  0  0  0  0  0  0  0  0  0  0
  141.0890   71.6990  226.5200 C   0  0  0  0  0  0  0  0  0  0  0  0
  140.5820   71.3450  225.2770 C   0  0  0  0  0  0  0  0  0  0  0  0
  140.5850   72.2510  224.2810 N   0  0  0  0  0  0  0  0  0  0  0  0
  139.1640   74.4790  223.0710 H   0  0  0  0  0  0  0  0  0  0  0  0
  139.7484   74.4765  220.0737 H   0  0  0  0  0  0  0  0  0  0  0  0
  138.5386   75.5302  220.8910 H   0  0  0  0  0  0  0  0  0  0  0  0
  138.6968   76.8715  223.0326 H   0  0  0  0  0  0  0  0  0  0  0  0
  139.8704   78.0059  223.6383 H   0  0  0  0  0  0  0  0  0  0  0  0
  137.4466   78.4826  221.9554 H   0  0  0  0  0  0  0  0  0  0  0  0
  138.3727   79.6776  222.8892 H   0  0  0  0  0  0  0  0  0  0  0  0
  138.5975   78.9386  219.9997 H   0  0  0  0  0  0  0  0  0  0  0  0
  139.1526   80.4073  220.7733 H   0  0  0  0  0  0  0  0  0  0  0  0
  141.0937   78.6215  220.0523 H   0  0  0  0  0  0  0  0  0  0  0  0
  140.1414   81.3063  222.3805 H   0  0  0  0  0  0  0  0  0  0  0  0
  144.0172   80.0827  223.6707 H   0  0  0  0  0  0  0  0  0  0  0  0
  143.0790   78.2750  222.0740 H   0  0  0  0  0  0  0  0  0  0  0  0
  139.2138   70.3906  221.9094 H   0  0  0  0  0  0  0  0  0  0  0  0
  139.1916   68.6957  223.7072 H   0  0  0  0  0  0  0  0  0  0  0  0
  139.6827   68.1147  225.9332 H   0  0  0  0  0  0  0  0  0  0  0  0
  141.4895   71.0531  228.5282 H   0  0  0  0  0  0  0  0  0  0  0  0
  141.4881   72.7100  226.6888 H   0  0  0  0  0  0  0  0  0  0  0  0
  1  2  2  0
  2  3  1  0
  3  4  1  0
  4  5  1  0
  5  6  2  0
  5  7  1  0
  7  8  1  0
  8  9  1  0
  9 10  1  0
 10 11  1  0
 11 12  1  0
 12 13  2  0
 13 14  1  0
 14 15  2  0
 15 16  1  0
  2 17  1  0
 17 18  2  0
 18 19  1  0
 19 20  2  0
 20 21  1  0
 21 22  2  0
 22 23  1  0
 22 24  1  0
 24 25  2  0
 25 26  1  0
 26 27  2  0
 11  7  1  0
 16 12  1  0
 27 17  1  0
 26 20  1  0
  3 28  1  0
  4 29  1  0
  4 30  1  0
  8 31  1  0
  8 32  1  0
  9 33  1  0
  9 34  1  0
 10 35  1  0
 10 36  1  0
 11 37  1  6
 13 38  1  0
 15 39  1  0
 16 40  1  0
 18 41  1  0
 19 42  1  0
 21 43  1  0
 24 44  1  0
 25 45  1  0
M  END
>  <smiles>  (6) 
O=C(NCC(=O)N1CCC[C@H]1c1cnc[nH]1)c1ccc2cc(Cl)ccc2n1

>  <score_type>  (6) 
oracle

>  <origin>  (6) 
autodockgpu

>  <m_score__min__energy>  (6) 
-8.2200000000000006

>  <m_primary>  (6) 
energy

>  <rmsd>  (6) 
2.760519268719608

>  <m_score__min__rmsd>  (6) 
2.760519268719608

>  <meeko>  (6) 
{"free_energy": -8.07, "intermolecular_energy": -9.57, "internal_energy": -1.23, "cluster_size": 27, "cluster_id": 1, "rank_in_cluster": 10}

>  <energy>  (6) 
-8.15

>  <cluster_rmsd>  (6) 
0.18

>  <cluster>  (6) 
1

$$$$

     RDKit          3D

 45 48  0  0  0  0  0  0  0  0999 V2000
  139.8450   72.4450  220.8380 O   0  0  0  0  0  0  0  0  0  0  0  0
  139.6940   72.8100  222.0470 C   0  0  0  0  0  0  0  0  0  0  0  0
  139.3950   74.1840  222.3230 N   0  0  0  0  0  0  0  0  0  0  0  0
  139.2810   75.0800  221.1880 C   0  0  0  0  0  0  0  0  0  0  0  0
  139.0420   76.4690  221.6590 C   0  0  0  0  0  0  0  0  0  0  0  0
  138.0660   76.7970  222.3830 O   0  0  0  0  0  0  0  0  0  0  0  0
  139.9550   77.4930  221.2780 N   0  0  0  0  0  0  0  0  0  0  0  0
  139.7270   78.5890  220.3530 C   0  0  0  0  0  0  0  0  0  0  0  0
  141.0440   78.6360  219.6100 C   0  0  0  0  0  0  0  0  0  0  0  0
  142.0350   77.8070  220.4170 C   0  0  0  0  0  0  0  0  0  0  0  0
  141.3380   77.6520  221.7520 C   0  0  1  0  0  0  0  0  0  0  0  0
  141.4960   78.9010  222.5120 C   0  0  0  0  0  0  0  0  0  0  0  0
  140.6150   79.5900  223.3170 C   0  0  0  0  0  0  0  0  0  0  0  0
  141.2010   80.6940  223.8130 N   0  0  0  0  0  0  0  0  0  0  0  0
  142.4710   80.7140  223.3210 C   0  0  0  0  0  0  0  0  0  0  0  0
  142.6330   79.6210  222.5350 N   0  0  0  0  0  0  0  0  0  0  0  0
  139.8220   71.8600  223.1560 C   0  0  0  0  0  0  0  0  0  0  0  0
  139.4150   70.5620  222.9630 C   0  0  0  0  0  0  0  0  0  0  0  0
  139.4880   69.5890  223.9330 C   0  0  0  0  0  0  0  0  0  0  0  0
  140.0030   69.9640  225.1600 C   0  0  0  0  0  0  0  0  0  0  0  0
  140.0790   69.0020  226.1290 C   0  0  0  0  0  0  0  0  0  0  0  0
  140.5980   69.3800  227.3680 C   0  0  0  0  0  0  0  0  0  0  0  0
  140.7120   68.1710  228.6370 Cl  0  0  0  0  0  0  0  0  0  0  0  0
  141.0090   70.6840  227.5680 C   0  0  0  0  0  0  0  0  0  0  0  0
  140.9180   71.6310  226.5650 C   0  0  0  0  0  0  0  0  0  0  0  0
  140.4020   71.2670  225.3280 C   0  0  0  0  0  0  0  0  0  0  0  0
  140.3140   72.1910  224.3520 N   0  0  0  0  0  0  0  0  0  0  0  0
  139.2660   74.5140  223.3160 H   0  0  0  0  0  0  0  0  0  0  0  0
  140.2127   75.0486  220.6041 H   0  0  0  0  0  0  0  0  0  0  0  0
  138.4361   74.7613  220.5598 H   0  0  0  0  0  0  0  0  0  0  0  0
  138.8896   78.3733  219.6731 H   0  0  0  0  0  0  0  0  0  0  0  0
  139.4526   79.5366  220.8396 H   0  0  0  0  0  0  0  0  0  0  0  0
  140.9259   78.2100  218.6028 H   0  0  0  0  0  0  0  0  0  0  0  0
  141.3963   79.6719  219.4968 H   0  0  0  0  0  0  0  0  0  0  0  0
  142.2089   76.8286  219.9454 H   0  0  0  0  0  0  0  0  0  0  0  0
  143.0280   78.2735  220.4969 H   0  0  0  0  0  0  0  0  0  0  0  0
  141.6943   76.8452  222.4093 H   0  0  0  0  0  0  0  0  0  0  0  0
  139.5799   79.2809  223.5243 H   0  0  0  0  0  0  0  0  0  0  0  0
  143.2316   81.4819  223.5254 H   0  0  0  0  0  0  0  0  0  0  0  0
  143.5360   79.3950  222.0270 H   0  0  0  0  0  0  0  0  0  0  0  0
  139.0085   70.2856  221.9790 H   0  0  0  0  0  0  0  0  0  0  0  0
  139.1519   68.5594  223.7410 H   0  0  0  0  0  0  0  0  0  0  0  0
  139.7444   67.9714  225.9394 H   0  0  0  0  0  0  0  0  0  0  0  0
  141.4176   70.9750  228.5469 H   0  0  0  0  0  0  0  0  0  0  0  0
  141.2513   72.6637  226.7451 H   0  0  0  0  0  0  0  0  0  0  0  0
  1  2  2  0
  2  3  1  0
  3  4  1  0
  4  5  1  0
  5  6  2  0
  5  7  1  0
  7  8  1  0
  8  9  1  0
  9 10  1  0
 10 11  1  0
 11 12  1  0
 12 13  2  0
 13 14  1  0
 14 15  2  0
 15 16  1  0
  2 17  1  0
 17 18  2  0
 18 19  1  0
 19 20  2  0
 20 21  1  0
 21 22  2  0
 22 23  1  0
 22 24  1  0
 24 25  2  0
 25 26  1  0
 26 27  2  0
 11  7  1  0
 16 12  1  0
 27 17  1  0
 26 20  1  0
  3 28  1  0
  4 29  1  0
  4 30  1  0
  8 31  1  0
  8 32  1  0
  9 33  1  0
  9 34  1  0
 10 35  1  0
 10 36  1  0
 11 37  1  1
 13 38  1  0
 15 39  1  0
 16 40  1  0
 18 41  1  0
 19 42  1  0
 21 43  1  0
 24 44  1  0
 25 45  1  0
M  END
>  <smiles>  (7) 
O=C(NCC(=O)N1CCC[C@H]1c1cnc[nH]1)c1ccc2cc(Cl)ccc2n1

>  <score_type>  (7) 
oracle

>  <origin>  (7) 
autodockgpu

>  <m_score__min__energy>  (7) 
-8.2200000000000006

>  <m_primary>  (7) 
energy

>  <rmsd>  (7) 
2.2775817463109753

>  <m_score__min__rmsd>  (7) 
2.2775817463109753

>  <meeko>  (7) 
{"free_energy": -8.17, "intermolecular_energy": -9.66, "internal_energy": -1.25, "cluster_size": 27, "cluster_id": 1, "rank_in_cluster": 5}

>  <energy>  (7) 
-8.09

>  <cluster_rmsd>  (7) 
0.81

>  <cluster>  (7) 
1

$$$$

     RDKit          3D

 45 48  0  0  0  0  0  0  0  0999 V2000
  140.6190   72.8350  221.3190 O   0  0  0  0  0  0  0  0  0  0  0  0
  139.7570   72.7820  222.2520 C   0  0  0  0  0  0  0  0  0  0  0  0
  138.6340   73.6710  222.2110 N   0  0  0  0  0  0  0  0  0  0  0  0
  138.5540   74.5860  221.0890 C   0  0  0  0  0  0  0  0  0  0  0  0
  138.7150   75.9860  221.5620 C   0  0  0  0  0  0  0  0  0  0  0  0
  137.7710   76.6710  222.0350 O   0  0  0  0  0  0  0  0  0  0  0  0
  139.9980   76.5980  221.4820 N   0  0  0  0  0  0  0  0  0  0  0  0
  140.8400   77.0450  222.5770 C   0  0  0  0  0  0  0  0  0  0  0  0
  141.3810   78.3490  222.0300 C   0  0  0  0  0  0  0  0  0  0  0  0
  141.0890   78.3520  220.5340 C   0  0  0  0  0  0  0  0  0  0  0  0
  140.7450   76.9050  220.2530 C   0  0  1  0  0  0  0  0  0  0  0  0
  141.9930   76.1310  220.1840 C   0  0  0  0  0  0  0  0  0  0  0  0
  143.2240   76.4420  219.6480 C   0  0  0  0  0  0  0  0  0  0  0  0
  144.0790   75.4180  219.8180 N   0  0  0  0  0  0  0  0  0  0  0  0
  143.3910   74.4400  220.4690 C   0  0  0  0  0  0  0  0  0  0  0  0
  142.1290   74.8890  220.6830 N   0  0  0  0  0  0  0  0  0  0  0  0
  139.8900   71.8350  223.3640 C   0  0  0  0  0  0  0  0  0  0  0  0
  139.4940   70.5340  223.1730 C   0  0  0  0  0  0  0  0  0  0  0  0
  139.5730   69.5630  224.1450 C   0  0  0  0  0  0  0  0  0  0  0  0
  140.0820   69.9450  225.3720 C   0  0  0  0  0  0  0  0  0  0  0  0
  140.1640   68.9850  226.3430 C   0  0  0  0  0  0  0  0  0  0  0  0
  140.6780   69.3710  227.5820 C   0  0  0  0  0  0  0  0  0  0  0  0
  140.7990   68.1650  228.8550 Cl  0  0  0  0  0  0  0  0  0  0  0  0
  141.0790   70.6780  227.7800 C   0  0  0  0  0  0  0  0  0  0  0  0
  140.9820   71.6220  226.7750 C   0  0  0  0  0  0  0  0  0  0  0  0
  140.4710   71.2510  225.5380 C   0  0  0  0  0  0  0  0  0  0  0  0
  140.3780   72.1720  224.5600 N   0  0  0  0  0  0  0  0  0  0  0  0
  137.9060   73.6480  222.9710 H   0  0  0  0  0  0  0  0  0  0  0  0
  139.3520   74.3506  220.3694 H   0  0  0  0  0  0  0  0  0  0  0  0
  137.5719   74.4791  220.6053 H   0  0  0  0  0  0  0  0  0  0  0  0
  140.2544   77.2063  223.4941 H   0  0  0  0  0  0  0  0  0  0  0  0
  141.6180   76.3237  222.8674 H   0  0  0  0  0  0  0  0  0  0  0  0
  140.8810   79.2001  222.5154 H   0  0  0  0  0  0  0  0  0  0  0  0
  142.4601   78.4410  222.2224 H   0  0  0  0  0  0  0  0  0  0  0  0
  140.2422   79.0131  220.2975 H   0  0  0  0  0  0  0  0  0  0  0  0
  141.9286   78.7241  219.9285 H   0  0  0  0  0  0  0  0  0  0  0  0
  140.2012   76.6937  219.3205 H   0  0  0  0  0  0  0  0  0  0  0  0
  143.4718   77.3921  219.1520 H   0  0  0  0  0  0  0  0  0  0  0  0
  143.7884   73.4590  220.7685 H   0  0  0  0  0  0  0  0  0  0  0  0
  141.3820   74.3190  221.1750 H   0  0  0  0  0  0  0  0  0  0  0  0
  139.0915   70.2525  222.1888 H   0  0  0  0  0  0  0  0  0  0  0  0
  139.2460   68.5302  223.9542 H   0  0  0  0  0  0  0  0  0  0  0  0
  139.8383   67.9513  226.1551 H   0  0  0  0  0  0  0  0  0  0  0  0
  141.4844   70.9740  228.7588 H   0  0  0  0  0  0  0  0  0  0  0  0
  141.3066   72.6578  226.9533 H   0  0  0  0  0  0  0  0  0  0  0  0
  1  2  2  0
  2  3  1  0
  3  4  1  0
  4  5  1  0
  5  6  2  0
  5  7  1  0
  7  8  1  0
  8  9  1  0
  9 10  1  0
 10 11  1  0
 11 12  1  0
 12 13  2  0
 13 14  1  0
 14 15  2  0
 15 16  1  0
  2 17  1  0
 17 18  2  0
 18 19  1  0
 19 20  2  0
 20 21  1  0
 21 22  2  0
 22 23  1  0
 22 24  1  0
 24 25  2  0
 25 26  1  0
 26 27  2  0
 11  7  1  0
 16 12  1  0
 27 17  1  0
 26 20  1  0
  3 28  1  0
  4 29  1  0
  4 30  1  0
  8 31  1  0
  8 32  1  0
  9 33  1  0
  9 34  1  0
 10 35  1  0
 10 36  1  0
 11 37  1  6
 13 38  1  0
 15 39  1  0
 16 40  1  0
 18 41  1  0
 19 42  1  0
 21 43  1  0
 24 44  1  0
 25 45  1  0
M  END
>  <smiles>  (8) 
O=C(NCC(=O)N1CCC[C@H]1c1cnc[nH]1)c1ccc2cc(Cl)ccc2n1

>  <score_type>  (8) 
oracle

>  <origin>  (8) 
autodockgpu

>  <m_score__min__energy>  (8) 
-8.2200000000000006

>  <m_primary>  (8) 
energy

>  <rmsd>  (8) 
2.9244192001558202

>  <m_score__min__rmsd>  (8) 
2.9244192001558202

>  <meeko>  (8) 
{"free_energy": -7.22, "intermolecular_energy": -8.71, "internal_energy": -2.1, "cluster_size": 13, "cluster_id": 2, "rank_in_cluster": 6}

>  <energy>  (8) 
-8.09

>  <cluster_rmsd>  (8) 
0.87

>  <cluster>  (8) 
1

$$$$

     RDKit          3D

 45 48  0  0  0  0  0  0  0  0999 V2000
  140.3820   72.4460  220.8170 O   0  0  0  0  0  0  0  0  0  0  0  0
  139.9280   72.7730  221.9590 C   0  0  0  0  0  0  0  0  0  0  0  0
  139.3300   74.0650  222.1230 N   0  0  0  0  0  0  0  0  0  0  0  0
  139.2810   74.9270  220.9580 C   0  0  0  0  0  0  0  0  0  0  0  0
  140.5790   75.6330  220.7940 C   0  0  0  0  0  0  0  0  0  0  0  0
  141.6750   75.0390  220.6290 O   0  0  0  0  0  0  0  0  0  0  0  0
  140.5970   77.0570  220.8230 N   0  0  0  0  0  0  0  0  0  0  0  0
  139.4610   77.9610  220.8230 C   0  0  0  0  0  0  0  0  0  0  0  0
  139.9430   79.0520  219.8910 C   0  0  0  0  0  0  0  0  0  0  0  0
  141.4450   78.8590  219.7280 C   0  0  0  0  0  0  0  0  0  0  0  0
  141.7910   77.9150  220.8600 C   0  0  1  0  0  0  0  0  0  0  0  0
  141.8510   78.6850  222.1110 C   0  0  0  0  0  0  0  0  0  0  0  0
  141.1760   78.5310  223.3030 C   0  0  0  0  0  0  0  0  0  0  0  0
  141.5550   79.4780  224.1790 N   0  0  0  0  0  0  0  0  0  0  0  0
  142.4810   80.2480  223.5440 C   0  0  0  0  0  0  0  0  0  0  0  0
  142.6480   79.7540  222.2920 N   0  0  0  0  0  0  0  0  0  0  0  0
  140.0040   71.8600  223.1040 C   0  0  0  0  0  0  0  0  0  0  0  0
  139.5540   70.5720  222.9510 C   0  0  0  0  0  0  0  0  0  0  0  0
  139.5780   69.6320  223.9560 C   0  0  0  0  0  0  0  0  0  0  0  0
  140.0870   70.0340  225.1770 C   0  0  0  0  0  0  0  0  0  0  0  0
  140.1140   69.1050  226.1810 C   0  0  0  0  0  0  0  0  0  0  0  0
  140.6280   69.5100  227.4140 C   0  0  0  0  0  0  0  0  0  0  0  0
  140.6790   68.3450  228.7280 Cl  0  0  0  0  0  0  0  0  0  0  0  0
  141.0830   70.8060  227.5740 C   0  0  0  0  0  0  0  0  0  0  0  0
  141.0400   71.7180  226.5360 C   0  0  0  0  0  0  0  0  0  0  0  0
  140.5300   71.3270  225.3050 C   0  0  0  0  0  0  0  0  0  0  0  0
  140.4900   72.2170  224.2950 N   0  0  0  0  0  0  0  0  0  0  0  0
  138.9460   74.3610  223.0590 H   0  0  0  0  0  0  0  0  0  0  0  0
  139.0811   74.3193  220.0632 H   0  0  0  0  0  0  0  0  0  0  0  0
  138.4801   75.6692  221.0909 H   0  0  0  0  0  0  0  0  0  0  0  0
  138.5570   77.4702  220.4334 H   0  0  0  0  0  0  0  0  0  0  0  0
  139.1735   78.3197  221.8223 H   0  0  0  0  0  0  0  0  0  0  0  0
  139.4419   78.9656  218.9156 H   0  0  0  0  0  0  0  0  0  0  0  0
  139.7147   80.0482  220.2977 H   0  0  0  0  0  0  0  0  0  0  0  0
  141.6825   78.4102  218.7522 H   0  0  0  0  0  0  0  0  0  0  0  0
  142.0098   79.8023  219.7618 H   0  0  0  0  0  0  0  0  0  0  0  0
  142.7469   77.3758  220.7853 H   0  0  0  0  0  0  0  0  0  0  0  0
  140.4335   77.7457  223.5082 H   0  0  0  0  0  0  0  0  0  0  0  0
  143.0019   81.1176  223.9712 H   0  0  0  0  0  0  0  0  0  0  0  0
  143.3180   80.1720  221.5830 H   0  0  0  0  0  0  0  0  0  0  0  0
  139.1521   70.2749  221.9711 H   0  0  0  0  0  0  0  0  0  0  0  0
  139.2093   68.6082  223.7952 H   0  0  0  0  0  0  0  0  0  0  0  0
  139.7456   68.0806  226.0230 H   0  0  0  0  0  0  0  0  0  0  0  0
  141.4878   71.1179  228.5481 H   0  0  0  0  0  0  0  0  0  0  0  0
  141.4066   72.7445  226.6839 H   0  0  0  0  0  0  0  0  0  0  0  0
  1  2  2  0
  2  3  1  0
  3  4  1  0
  4  5  1  0
  5  6  2  0
  5  7  1  0
  7  8  1  0
  8  9  1  0
  9 10  1  0
 10 11  1  0
 11 12  1  0
 12 13  2  0
 13 14  1  0
 14 15  2  0
 15 16  1  0
  2 17  1  0
 17 18  2  0
 18 19  1  0
 19 20  2  0
 20 21  1  0
 21 22  2  0
 22 23  1  0
 22 24  1  0
 24 25  2  0
 25 26  1  0
 26 27  2  0
 11  7  1  0
 16 12  1  0
 27 17  1  0
 26 20  1  0
  3 28  1  0
  4 29  1  0
  4 30  1  0
  8 31  1  0
  8 32  1  0
  9 33  1  0
  9 34  1  0
 10 35  1  0
 10 36  1  0
 11 37  1  6
 13 38  1  0
 15 39  1  0
 16 40  1  0
 18 41  1  0
 19 42  1  0
 21 43  1  0
 24 44  1  0
 25 45  1  0
M  END
>  <smiles>  (9) 
O=C(NCC(=O)N1CCC[C@H]1c1cnc[nH]1)c1ccc2cc(Cl)ccc2n1

>  <score_type>  (9) 
oracle

>  <origin>  (9) 
autodockgpu

>  <m_score__min__energy>  (9) 
-8.2200000000000006

>  <m_primary>  (9) 
energy

>  <rmsd>  (9) 
2.127883126125823

>  <m_score__min__rmsd>  (9) 
2.127883126125823

>  <meeko>  (9) 
{"free_energy": -8.09, "intermolecular_energy": -9.58, "internal_energy": -1.04, "cluster_size": 27, "cluster_id": 1, "rank_in_cluster": 7}

>  <energy>  (9) 
-8.08

>  <cluster_rmsd>  (9) 
0.35

>  <cluster>  (9) 
1

$$$$

     RDKit          3D

 45 48  0  0  0  0  0  0  0  0999 V2000
  140.5610   77.3140  218.2530 O   0  0  0  0  0  0  0  0  0  0  0  0
  141.7330   77.2070  218.7350 C   0  0  0  0  0  0  0  0  0  0  0  0
  142.3550   78.3630  219.3100 N   0  0  0  0  0  0  0  0  0  0  0  0
  141.5930   79.5970  219.3060 C   0  0  0  0  0  0  0  0  0  0  0  0
  141.0320   79.8540  220.6580 C   0  0  0  0  0  0  0  0  0  0  0  0
  141.3360   80.8550  221.3560 O   0  0  0  0  0  0  0  0  0  0  0  0
  140.1010   78.9260  221.2050 N   0  0  0  0  0  0  0  0  0  0  0  0
  138.8080   78.5410  220.6670 C   0  0  0  0  0  0  0  0  0  0  0  0
  137.9660   78.4730  221.9230 C   0  0  0  0  0  0  0  0  0  0  0  0
  138.9320   78.4700  223.1000 C   0  0  0  0  0  0  0  0  0  0  0  0
  140.2610   78.1560  222.4480 C   0  0  1  0  0  0  0  0  0  0  0  0
  140.3190   76.7120  222.1720 C   0  0  0  0  0  0  0  0  0  0  0  0
  139.4090   75.7060  222.4150 C   0  0  0  0  0  0  0  0  0  0  0  0
  139.8930   74.5260  221.9890 N   0  0  0  0  0  0  0  0  0  0  0  0
  141.1250   74.7770  221.4670 C   0  0  0  0  0  0  0  0  0  0  0  0
  141.3670   76.1070  221.5860 N   0  0  0  0  0  0  0  0  0  0  0  0
  142.4560   75.9310  218.7120 C   0  0  0  0  0  0  0  0  0  0  0  0
  142.1820   75.0350  217.7080 C   0  0  0  0  0  0  0  0  0  0  0  0
  142.7990   73.8120  217.5900 C   0  0  0  0  0  0  0  0  0  0  0  0
  143.7440   73.4910  218.5470 C   0  0  0  0  0  0  0  0  0  0  0  0
  144.3620   72.2760  218.4360 C   0  0  0  0  0  0  0  0  0  0  0  0
  145.3150   71.9520  219.4020 C   0  0  0  0  0  0  0  0  0  0  0  0
  146.1310   70.4000  219.2920 Cl  0  0  0  0  0  0  0  0  0  0  0  0
  145.5960   72.8500  220.4150 C   0  0  0  0  0  0  0  0  0  0  0  0
  144.9510   74.0700  220.4960 C   0  0  0  0  0  0  0  0  0  0  0  0
  144.0000   74.4030  219.5410 C   0  0  0  0  0  0  0  0  0  0  0  0
  143.3730   75.5920  219.6210 N   0  0  0  0  0  0  0  0  0  0  0  0
  143.3250   78.3010  219.7160 H   0  0  0  0  0  0  0  0  0  0  0  0
  142.2516   80.4306  219.0207 H   0  0  0  0  0  0  0  0  0  0  0  0
  140.7677   79.5087  218.5841 H   0  0  0  0  0  0  0  0  0  0  0  0
  138.4235   79.2965  219.9660 H   0  0  0  0  0  0  0  0  0  0  0  0
  138.8241   77.6065  220.0870 H   0  0  0  0  0  0  0  0  0  0  0  0
  137.3010   79.3473  221.9810 H   0  0  0  0  0  0  0  0  0  0  0  0
  137.3354   77.5717  221.9274 H   0  0  0  0  0  0  0  0  0  0  0  0
  138.9563   79.4524  223.5942 H   0  0  0  0  0  0  0  0  0  0  0  0
  138.6548   77.7530  223.8868 H   0  0  0  0  0  0  0  0  0  0  0  0
  141.1673   78.3955  223.0236 H   0  0  0  0  0  0  0  0  0  0  0  0
  138.4269   75.8480  222.8897 H   0  0  0  0  0  0  0  0  0  0  0  0
  141.8047   74.0328  221.0263 H   0  0  0  0  0  0  0  0  0  0  0  0
  142.2630   76.5690  221.2560 H   0  0  0  0  0  0  0  0  0  0  0  0
  141.4273   75.3110  216.9568 H   0  0  0  0  0  0  0  0  0  0  0  0
  142.5520   73.1201  216.7713 H   0  0  0  0  0  0  0  0  0  0  0  0
  144.1175   71.5823  217.6181 H   0  0  0  0  0  0  0  0  0  0  0  0
  146.3490   72.5880  221.1728 H   0  0  0  0  0  0  0  0  0  0  0  0
  145.1892   74.7707  221.3099 H   0  0  0  0  0  0  0  0  0  0  0  0
  1  2  2  0
  2  3  1  0
  3  4  1  0
  4  5  1  0
  5  6  2  0
  5  7  1  0
  7  8  1  0
  8  9  1  0
  9 10  1  0
 10 11  1  0
 11 12  1  0
 12 13  2  0
 13 14  1  0
 14 15  2  0
 15 16  1  0
  2 17  1  0
 17 18  2  0
 18 19  1  0
 19 20  2  0
 20 21  1  0
 21 22  2  0
 22 23  1  0
 22 24  1  0
 24 25  2  0
 25 26  1  0
 26 27  2  0
 11  7  1  0
 16 12  1  0
 27 17  1  0
 26 20  1  0
  3 28  1  0
  4 29  1  0
  4 30  1  0
  8 31  1  0
  8 32  1  0
  9 33  1  0
  9 34  1  0
 10 35  1  0
 10 36  1  0
 11 37  1  1
 13 38  1  0
 15 39  1  0
 16 40  1  0
 18 41  1  0
 19 42  1  0
 21 43  1  0
 24 44  1  0
 25 45  1  0
M  END
>  <smiles>  (10) 
O=C(NCC(=O)N1CCC[C@H]1c1cnc[nH]1)c1ccc2cc(Cl)ccc2n1

>  <score_type>  (10) 
oracle

>  <origin>  (10) 
autodockgpu

>  <m_score__min__energy>  (10) 
-8.2200000000000006

>  <m_primary>  (10) 
energy

>  <rmsd>  (10) 
7.058672652520552

>  <m_score__min__rmsd>  (10) 
7.058672652520552

>  <meeko>  (10) 
{"free_energy": -5.78, "intermolecular_energy": -7.27, "internal_energy": -2.63, "cluster_size": 3, "cluster_id": 7, "rank_in_cluster": 3}

>  <energy>  (10) 
-8.07

>  <cluster_rmsd>  (10) 
1.1

>  <cluster>  (10) 
1

$$$$

     RDKit          3D

 45 48  0  0  0  0  0  0  0  0999 V2000
  139.9120   72.4820  220.8330 O   0  0  0  0  0  0  0  0  0  0  0  0
  139.7310   72.8350  222.0410 C   0  0  0  0  0  0  0  0  0  0  0  0
  139.3880   74.1980  222.3210 N   0  0  0  0  0  0  0  0  0  0  0  0
  139.2670   75.0980  221.1910 C   0  0  0  0  0  0  0  0  0  0  0  0
  139.0620   76.4900  221.6680 C   0  0  0  0  0  0  0  0  0  0  0  0
  138.1030   76.8360  222.4050 O   0  0  0  0  0  0  0  0  0  0  0  0
  139.9920   77.4960  221.2790 N   0  0  0  0  0  0  0  0  0  0  0  0
  139.7740   78.6020  220.3630 C   0  0  0  0  0  0  0  0  0  0  0  0
  141.0810   78.6250  219.6000 C   0  0  0  0  0  0  0  0  0  0  0  0
  142.0650   77.7700  220.3890 C   0  0  0  0  0  0  0  0  0  0  0  0
  141.3850   77.6230  221.7330 C   0  0  1  0  0  0  0  0  0  0  0  0
  141.5810   78.8640  222.4970 C   0  0  0  0  0  0  0  0  0  0  0  0
  140.7280   79.5650  223.3220 C   0  0  0  0  0  0  0  0  0  0  0  0
  141.3450   80.6550  223.8130 N   0  0  0  0  0  0  0  0  0  0  0  0
  142.6050   80.6530  223.2980 C   0  0  0  0  0  0  0  0  0  0  0  0
  142.7320   79.5610  222.5030 N   0  0  0  0  0  0  0  0  0  0  0  0
  139.8670   71.8810  223.1470 C   0  0  0  0  0  0  0  0  0  0  0  0
  139.4690   70.5820  222.9500 C   0  0  0  0  0  0  0  0  0  0  0  0
  139.5510   69.6050  223.9150 C   0  0  0  0  0  0  0  0  0  0  0  0
  140.0640   69.9790  225.1430 C   0  0  0  0  0  0  0  0  0  0  0  0
  140.1490   69.0130  226.1080 C   0  0  0  0  0  0  0  0  0  0  0  0
  140.6670   69.3910  227.3470 C   0  0  0  0  0  0  0  0  0  0  0  0
  140.7920   68.1780  228.6120 Cl  0  0  0  0  0  0  0  0  0  0  0  0
  141.0690   70.6970  227.5520 C   0  0  0  0  0  0  0  0  0  0  0  0
  140.9690   71.6470  226.5530 C   0  0  0  0  0  0  0  0  0  0  0  0
  140.4550   71.2840  225.3160 C   0  0  0  0  0  0  0  0  0  0  0  0
  140.3590   72.2110  224.3440 N   0  0  0  0  0  0  0  0  0  0  0  0
  139.2320   74.5170  223.3140 H   0  0  0  0  0  0  0  0  0  0  0  0
  140.1861   75.0513  220.5884 H   0  0  0  0  0  0  0  0  0  0  0  0
  138.4037   74.7955  220.5800 H   0  0  0  0  0  0  0  0  0  0  0  0
  138.9221   78.4081  219.6947 H   0  0  0  0  0  0  0  0  0  0  0  0
  139.5276   79.5526  220.8587 H   0  0  0  0  0  0  0  0  0  0  0  0
  140.9390   78.2070  218.5925 H   0  0  0  0  0  0  0  0  0  0  0  0
  141.4540   79.6535  219.4860 H   0  0  0  0  0  0  0  0  0  0  0  0
  142.2104   76.7905  219.9101 H   0  0  0  0  0  0  0  0  0  0  0  0
  143.0688   78.2146  220.4569 H   0  0  0  0  0  0  0  0  0  0  0  0
  141.7338   76.8053  222.3809 H   0  0  0  0  0  0  0  0  0  0  0  0
  139.6911   79.2748  223.5468 H   0  0  0  0  0  0  0  0  0  0  0  0
  143.3839   81.4051  223.4924 H   0  0  0  0  0  0  0  0  0  0  0  0
  143.6210   79.3210  221.9780 H   0  0  0  0  0  0  0  0  0  0  0  0
  139.0619   70.3071  221.9658 H   0  0  0  0  0  0  0  0  0  0  0  0
  139.2234   68.5735  223.7185 H   0  0  0  0  0  0  0  0  0  0  0  0
  139.8223   67.9805  225.9149 H   0  0  0  0  0  0  0  0  0  0  0  0
  141.4774   70.9869  228.5314 H   0  0  0  0  0  0  0  0  0  0  0  0
  141.2940   72.6817  226.7368 H   0  0  0  0  0  0  0  0  0  0  0  0
  1  2  2  0
  2  3  1  0
  3  4  1  0
  4  5  1  0
  5  6  2  0
  5  7  1  0
  7  8  1  0
  8  9  1  0
  9 10  1  0
 10 11  1  0
 11 12  1  0
 12 13  2  0
 13 14  1  0
 14 15  2  0
 15 16  1  0
  2 17  1  0
 17 18  2  0
 18 19  1  0
 19 20  2  0
 20 21  1  0
 21 22  2  0
 22 23  1  0
 22 24  1  0
 24 25  2  0
 25 26  1  0
 26 27  2  0
 11  7  1  0
 16 12  1  0
 27 17  1  0
 26 20  1  0
  3 28  1  0
  4 29  1  0
  4 30  1  0
  8 31  1  0
  8 32  1  0
  9 33  1  0
  9 34  1  0
 10 35  1  0
 10 36  1  0
 11 37  1  1
 13 38  1  0
 15 39  1  0
 16 40  1  0
 18 41  1  0
 19 42  1  0
 21 43  1  0
 24 44  1  0
 25 45  1  0
M  END
>  <smiles>  (11) 
O=C(NCC(=O)N1CCC[C@H]1c1cnc[nH]1)c1ccc2cc(Cl)ccc2n1

>  <score_type>  (11) 
oracle

>  <origin>  (11) 
autodockgpu

>  <m_score__min__energy>  (11) 
-8.2200000000000006

>  <m_primary>  (11) 
energy

>  <rmsd>  (11) 
2.290005162711044

>  <m_score__min__rmsd>  (11) 
2.290005162711044

>  <meeko>  (11) 
{"free_energy": -8.22, "intermolecular_energy": -9.72, "internal_energy": -1.25, "cluster_size": 27, "cluster_id": 1, "rank_in_cluster": 1}

>  <energy>  (11) 
-8.01

>  <cluster_rmsd>  (11) 
0.5

>  <cluster>  (11) 
1

$$$$

     RDKit          3D

 45 48  0  0  0  0  0  0  0  0999 V2000
  139.7240   74.0750  222.3260 O   0  0  0  0  0  0  0  0  0  0  0  0
  139.7720   72.8220  222.1170 C   0  0  0  0  0  0  0  0  0  0  0  0
  139.7010   72.3400  220.7690 N   0  0  0  0  0  0  0  0  0  0  0  0
  139.5760   73.3290  219.7170 C   0  0  0  0  0  0  0  0  0  0  0  0
  140.9040   73.9310  219.4250 C   0  0  0  0  0  0  0  0  0  0  0  0
  141.0630   75.1390  219.1100 O   0  0  0  0  0  0  0  0  0  0  0  0
  142.0650   73.1100  219.5020 N   0  0  0  0  0  0  0  0  0  0  0  0
  142.8080   72.5160  218.4060 C   0  0  0  0  0  0  0  0  0  0  0  0
  143.1240   71.1450  218.9630 C   0  0  0  0  0  0  0  0  0  0  0  0
  142.8500   71.2040  220.4600 C   0  0  0  0  0  0  0  0  0  0  0  0
  142.7590   72.6920  220.7290 C   0  0  1  0  0  0  0  0  0  0  0  0
  144.1220   73.2420  220.7810 C   0  0  0  0  0  0  0  0  0  0  0  0
  144.6160   74.4740  220.4090 C   0  0  0  0  0  0  0  0  0  0  0  0
  145.9390   74.5350  220.6390 N   0  0  0  0  0  0  0  0  0  0  0  0
  146.2980   73.3310  221.1630 C   0  0  0  0  0  0  0  0  0  0  0  0
  145.1850   72.5600  221.2420 N   0  0  0  0  0  0  0  0  0  0  0  0
  139.8980   71.8660  223.2220 C   0  0  0  0  0  0  0  0  0  0  0  0
  139.4950   70.5680  223.0210 C   0  0  0  0  0  0  0  0  0  0  0  0
  139.5680   69.5900  223.9850 C   0  0  0  0  0  0  0  0  0  0  0  0
  140.0770   69.9600  225.2160 C   0  0  0  0  0  0  0  0  0  0  0  0
  140.1510   68.9920  226.1800 C   0  0  0  0  0  0  0  0  0  0  0  0
  140.6650   69.3660  227.4230 C   0  0  0  0  0  0  0  0  0  0  0  0
  140.7780   68.1500  228.6870 Cl  0  0  0  0  0  0  0  0  0  0  0  0
  141.0720   70.6700  227.6320 C   0  0  0  0  0  0  0  0  0  0  0  0
  140.9820   71.6220  226.6330 C   0  0  0  0  0  0  0  0  0  0  0  0
  140.4720   71.2630  225.3930 C   0  0  0  0  0  0  0  0  0  0  0  0
  140.3850   72.1910  224.4210 N   0  0  0  0  0  0  0  0  0  0  0  0
  139.7380   71.3060  220.5690 H   0  0  0  0  0  0  0  0  0  0  0  0
  139.1867   72.8469  218.8081 H   0  0  0  0  0  0  0  0  0  0  0  0
  138.8851   74.1197  220.0448 H   0  0  0  0  0  0  0  0  0  0  0  0
  142.1949   72.4481  217.4953 H   0  0  0  0  0  0  0  0  0  0  0  0
  143.6947   73.0915  218.1017 H   0  0  0  0  0  0  0  0  0  0  0  0
  142.4821   70.3871  218.4902 H   0  0  0  0  0  0  0  0  0  0  0  0
  144.1702   70.8698  218.7639 H   0  0  0  0  0  0  0  0  0  0  0  0
  141.9056   70.6982  220.7097 H   0  0  0  0  0  0  0  0  0  0  0  0
  143.6198   70.6999  221.0627 H   0  0  0  0  0  0  0  0  0  0  0  0
  142.2668   73.0018  221.6627 H   0  0  0  0  0  0  0  0  0  0  0  0
  144.0136   75.2906  219.9845 H   0  0  0  0  0  0  0  0  0  0  0  0
  147.3125   73.0354  221.4686 H   0  0  0  0  0  0  0  0  0  0  0  0
  145.1870   71.5680  221.6170 H   0  0  0  0  0  0  0  0  0  0  0  0
  139.0916   70.2960  222.0344 H   0  0  0  0  0  0  0  0  0  0  0  0
  139.2365   68.5602  223.7857 H   0  0  0  0  0  0  0  0  0  0  0  0
  139.8193   67.9617  225.9838 H   0  0  0  0  0  0  0  0  0  0  0  0
  141.4762   70.9568  228.6140 H   0  0  0  0  0  0  0  0  0  0  0  0
  141.3117   72.6547  226.8194 H   0  0  0  0  0  0  0  0  0  0  0  0
  1  2  2  0
  2  3  1  0
  3  4  1  0
  4  5  1  0
  5  6  2  0
  5  7  1  0
  7  8  1  0
  8  9  1  0
  9 10  1  0
 10 11  1  0
 11 12  1  0
 12 13  2  0
 13 14  1  0
 14 15  2  0
 15 16  1  0
  2 17  1  0
 17 18  2  0
 18 19  1  0
 19 20  2  0
 20 21  1  0
 21 22  2  0
 22 23  1  0
 22 24  1  0
 24 25  2  0
 25 26  1  0
 26 27  2  0
 11  7  1  0
 16 12  1  0
 27 17  1  0
 26 20  1  0
  3 28  1  0
  4 29  1  0
  4 30  1  0
  8 31  1  0
  8 32  1  0
  9 33  1  0
  9 34  1  0
 10 35  1  0
 10 36  1  0
 11 37  1  1
 13 38  1  0
 15 39  1  0
 16 40  1  0
 18 41  1  0
 19 42  1  0
 21 43  1  0
 24 44  1  0
 25 45  1  0
M  END
>  <smiles>  (12) 
O=C(NCC(=O)N1CCC[C@H]1c1cnc[nH]1)c1ccc2cc(Cl)ccc2n1

>  <score_type>  (12) 
oracle

>  <origin>  (12) 
autodockgpu

>  <m_score__min__energy>  (12) 
-8.2200000000000006

>  <m_primary>  (12) 
energy

>  <rmsd>  (12) 
4.1476073634722646

>  <m_score__min__rmsd>  (12) 
4.1476073634722646

>  <meeko>  (12) 
{"free_energy": -7.22, "intermolecular_energy": -8.71, "internal_energy": -1.52, "cluster_size": 2, "cluster_id": 5, "rank_in_cluster": 2}

>  <energy>  (12) 
-7.95

>  <cluster_rmsd>  (12) 
0.81

>  <cluster>  (12) 
1

$$$$

     RDKit          3D

 45 48  0  0  0  0  0  0  0  0999 V2000
  140.3090   72.4790  220.7840 O   0  0  0  0  0  0  0  0  0  0  0  0
  140.0680   72.8690  221.9700 C   0  0  0  0  0  0  0  0  0  0  0  0
  139.7600   74.2500  222.1980 N   0  0  0  0  0  0  0  0  0  0  0  0
  139.7430   75.1250  221.0420 C   0  0  0  0  0  0  0  0  0  0  0  0
  140.9710   75.9600  221.0180 C   0  0  0  0  0  0  0  0  0  0  0  0
  142.1110   75.5090  220.7360 O   0  0  0  0  0  0  0  0  0  0  0  0
  140.8690   77.3460  221.3280 N   0  0  0  0  0  0  0  0  0  0  0  0
  140.7050   78.4550  220.4050 C   0  0  0  0  0  0  0  0  0  0  0  0
  141.6220   79.4940  221.0140 C   0  0  0  0  0  0  0  0  0  0  0  0
  141.9470   79.0200  222.4250 C   0  0  0  0  0  0  0  0  0  0  0  0
  140.9080   77.9470  222.6700 C   0  0  1  0  0  0  0  0  0  0  0  0
  139.6300   78.5980  222.9970 C   0  0  0  0  0  0  0  0  0  0  0  0
  139.3530   79.7370  223.7200 C   0  0  0  0  0  0  0  0  0  0  0  0
  138.0260   79.9540  223.7580 N   0  0  0  0  0  0  0  0  0  0  0  0
  137.4470   78.9450  223.0520 C   0  0  0  0  0  0  0  0  0  0  0  0
  138.4330   78.1320  222.5980 N   0  0  0  0  0  0  0  0  0  0  0  0
  140.1000   71.9380  223.1040 C   0  0  0  0  0  0  0  0  0  0  0  0
  139.6090   70.6680  222.9280 C   0  0  0  0  0  0  0  0  0  0  0  0
  139.5900   69.7150  223.9200 C   0  0  0  0  0  0  0  0  0  0  0  0
  140.0970   70.0830  225.1530 C   0  0  0  0  0  0  0  0  0  0  0  0
  140.0810   69.1410  226.1440 C   0  0  0  0  0  0  0  0  0  0  0  0
  140.5930   69.5120  227.3880 C   0  0  0  0  0  0  0  0  0  0  0  0
  140.5890   68.3280  228.6870 Cl  0  0  0  0  0  0  0  0  0  0  0  0
  141.0880   70.7890  227.5710 C   0  0  0  0  0  0  0  0  0  0  0  0
  141.0880   71.7160  226.5450 C   0  0  0  0  0  0  0  0  0  0  0  0
  140.5810   71.3590  225.3030 C   0  0  0  0  0  0  0  0  0  0  0  0
  140.5830   72.2630  224.3050 N   0  0  0  0  0  0  0  0  0  0  0  0
  139.5560   74.5990  223.1710 H   0  0  0  0  0  0  0  0  0  0  0  0
  139.6978   74.5175  220.1261 H   0  0  0  0  0  0  0  0  0  0  0  0
  138.8618   75.7809  221.0989 H   0  0  0  0  0  0  0  0  0  0  0  0
  141.0257   78.1825  219.3887 H   0  0  0  0  0  0  0  0  0  0  0  0
  139.6639   78.7900  220.2875 H   0  0  0  0  0  0  0  0  0  0  0  0
  142.5446   79.5793  220.4211 H   0  0  0  0  0  0  0  0  0  0  0  0
  141.1420   80.4836  221.0304 H   0  0  0  0  0  0  0  0  0  0  0  0
  142.9644   78.6051  222.4784 H   0  0  0  0  0  0  0  0  0  0  0  0
  141.9209   79.8279  223.1711 H   0  0  0  0  0  0  0  0  0  0  0  0
  141.1078   77.2361  223.4853 H   0  0  0  0  0  0  0  0  0  0  0  0
  140.1087   80.3776  224.1980 H   0  0  0  0  0  0  0  0  0  0  0  0
  136.3687   78.8121  222.8798 H   0  0  0  0  0  0  0  0  0  0  0  0
  138.2530   77.2640  222.0150 H   0  0  0  0  0  0  0  0  0  0  0  0
  139.2089   70.3977  221.9397 H   0  0  0  0  0  0  0  0  0  0  0  0
  139.1898   68.7062  223.7407 H   0  0  0  0  0  0  0  0  0  0  0  0
  139.6807   68.1317  225.9678 H   0  0  0  0  0  0  0  0  0  0  0  0
  141.4907   71.0743  228.5541 H   0  0  0  0  0  0  0  0  0  0  0  0
  141.4864   72.7277  226.7115 H   0  0  0  0  0  0  0  0  0  0  0  0
  1  2  2  0
  2  3  1  0
  3  4  1  0
  4  5  1  0
  5  6  2  0
  5  7  1  0
  7  8  1  0
  8  9  1  0
  9 10  1  0
 10 11  1  0
 11 12  1  0
 12 13  2  0
 13 14  1  0
 14 15  2  0
 15 16  1  0
  2 17  1  0
 17 18  2  0
 18 19  1  0
 19 20  2  0
 20 21  1  0
 21 22  2  0
 22 23  1  0
 22 24  1  0
 24 25  2  0
 25 26  1  0
 26 27  2  0
 11  7  1  0
 16 12  1  0
 27 17  1  0
 26 20  1  0
  3 28  1  0
  4 29  1  0
  4 30  1  0
  8 31  1  0
  8 32  1  0
  9 33  1  0
  9 34  1  0
 10 35  1  0
 10 36  1  0
 11 37  1  1
 13 38  1  0
 15 39  1  0
 16 40  1  0
 18 41  1  0
 19 42  1  0
 21 43  1  0
 24 44  1  0
 25 45  1  0
M  END
>  <smiles>  (13) 
O=C(NCC(=O)N1CCC[C@H]1c1cnc[nH]1)c1ccc2cc(Cl)ccc2n1

>  <score_type>  (13) 
oracle

>  <origin>  (13) 
autodockgpu

>  <m_score__min__energy>  (13) 
-8.2200000000000006

>  <m_primary>  (13) 
energy

>  <rmsd>  (13) 
2.952404533074339

>  <m_score__min__rmsd>  (13) 
2.952404533074339

>  <meeko>  (13) 
{"free_energy": -7.4, "intermolecular_energy": -8.89, "internal_energy": -1.29, "cluster_size": 27, "cluster_id": 1, "rank_in_cluster": 26}

>  <energy>  (13) 
-7.91

>  <cluster_rmsd>  (13) 
0.85

>  <cluster>  (13) 
1

$$$$

     RDKit          3D

 45 48  0  0  0  0  0  0  0  0999 V2000
  138.4810   71.8830  220.9690 O   0  0  0  0  0  0  0  0  0  0  0  0
  138.9280   72.3460  222.0650 C   0  0  0  0  0  0  0  0  0  0  0  0
  139.1000   73.7620  222.2020 N   0  0  0  0  0  0  0  0  0  0  0  0
  138.7470   74.5860  221.0620 C   0  0  0  0  0  0  0  0  0  0  0  0
  138.6080   76.0040  221.4830 C   0  0  0  0  0  0  0  0  0  0  0  0
  137.6280   76.4390  222.1420 O   0  0  0  0  0  0  0  0  0  0  0  0
  139.6290   76.9320  221.1300 N   0  0  0  0  0  0  0  0  0  0  0  0
  139.5670   77.9850  220.1330 C   0  0  0  0  0  0  0  0  0  0  0  0
  140.9410   77.8890  219.5050 C   0  0  0  0  0  0  0  0  0  0  0  0
  141.7910   77.0360  220.4380 C   0  0  0  0  0  0  0  0  0  0  0  0
  140.9770   77.0130  221.7130 C   0  0  1  0  0  0  0  0  0  0  0  0
  141.1730   78.2880  222.4180 C   0  0  0  0  0  0  0  0  0  0  0  0
  140.3360   79.0020  223.2490 C   0  0  0  0  0  0  0  0  0  0  0  0
  140.9440   80.1260  223.6700 N   0  0  0  0  0  0  0  0  0  0  0  0
  142.1820   80.1330  223.1040 C   0  0  0  0  0  0  0  0  0  0  0  0
  142.3040   79.0120  222.3480 N   0  0  0  0  0  0  0  0  0  0  0  0
  139.2700   71.4640  223.1860 C   0  0  0  0  0  0  0  0  0  0  0  0
  138.9980   70.1220  223.0770 C   0  0  0  0  0  0  0  0  0  0  0  0
  139.2750   69.2060  224.0640 C   0  0  0  0  0  0  0  0  0  0  0  0
  139.8600   69.6880  225.2210 C   0  0  0  0  0  0  0  0  0  0  0  0
  140.1380   68.7830  226.2070 C   0  0  0  0  0  0  0  0  0  0  0  0
  140.7280   69.2690  227.3750 C   0  0  0  0  0  0  0  0  0  0  0  0
  141.1020   68.1360  228.6650 Cl  0  0  0  0  0  0  0  0  0  0  0  0
  141.0040   70.6190  227.4910 C   0  0  0  0  0  0  0  0  0  0  0  0
  140.7080   71.5050  226.4720 C   0  0  0  0  0  0  0  0  0  0  0  0
  140.1210   71.0330  225.3060 C   0  0  0  0  0  0  0  0  0  0  0  0
  139.8340   71.8980  224.3150 N   0  0  0  0  0  0  0  0  0  0  0  0
  139.4690   74.1710  223.0990 H   0  0  0  0  0  0  0  0  0  0  0  0
  139.5351   74.5083  220.2985 H   0  0  0  0  0  0  0  0  0  0  0  0
  137.7898   74.2372  220.6472 H   0  0  0  0  0  0  0  0  0  0  0  0
  138.7739   77.7933  219.3952 H   0  0  0  0  0  0  0  0  0  0  0  0
  139.3306   78.9776  220.5439 H   0  0  0  0  0  0  0  0  0  0  0  0
  140.8728   77.4148  218.5148 H   0  0  0  0  0  0  0  0  0  0  0  0
  141.3837   78.8866  219.3683 H   0  0  0  0  0  0  0  0  0  0  0  0
  141.9236   76.0211  220.0351 H   0  0  0  0  0  0  0  0  0  0  0  0
  142.8082   77.4300  220.5798 H   0  0  0  0  0  0  0  0  0  0  0  0
  141.2115   76.2213  222.4398 H   0  0  0  0  0  0  0  0  0  0  0  0
  139.3168   78.6964  223.5279 H   0  0  0  0  0  0  0  0  0  0  0  0
  142.9489   80.9105  223.2360 H   0  0  0  0  0  0  0  0  0  0  0  0
  143.1770   78.7720  221.7970 H   0  0  0  0  0  0  0  0  0  0  0  0
  138.5327   69.7601  222.1483 H   0  0  0  0  0  0  0  0  0  0  0  0
  139.0420   68.1382  223.9393 H   0  0  0  0  0  0  0  0  0  0  0  0
  139.9061   67.7147  226.0849 H   0  0  0  0  0  0  0  0  0  0  0  0
  141.4690   70.9960  228.4138 H   0  0  0  0  0  0  0  0  0  0  0  0
  140.9357   72.5753  226.5842 H   0  0  0  0  0  0  0  0  0  0  0  0
  1  2  2  0
  2  3  1  0
  3  4  1  0
  4  5  1  0
  5  6  2  0
  5  7  1  0
  7  8  1  0
  8  9  1  0
  9 10  1  0
 10 11  1  0
 11 12  1  0
 12 13  2  0
 13 14  1  0
 14 15  2  0
 15 16  1  0
  2 17  1  0
 17 18  2  0
 18 19  1  0
 19 20  2  0
 20 21  1  0
 21 22  2  0
 22 23  1  0
 22 24  1  0
 24 25  2  0
 25 26  1  0
 26 27  2  0
 11  7  1  0
 16 12  1  0
 27 17  1  0
 26 20  1  0
  3 28  1  0
  4 29  1  0
  4 30  1  0
  8 31  1  0
  8 32  1  0
  9 33  1  0
  9 34  1  0
 10 35  1  0
 10 36  1  0
 11 37  1  1
 13 38  1  0
 15 39  1  0
 16 40  1  0
 18 41  1  0
 19 42  1  0
 21 43  1  0
 24 44  1  0
 25 45  1  0
M  END
>  <smiles>  (14) 
O=C(NCC(=O)N1CCC[C@H]1c1cnc[nH]1)c1ccc2cc(Cl)ccc2n1

>  <score_type>  (14) 
oracle

>  <origin>  (14) 
autodockgpu

>  <m_score__min__energy>  (14) 
-8.2200000000000006

>  <m_primary>  (14) 
energy

>  <rmsd>  (14) 
1.9085129419143658

>  <m_score__min__rmsd>  (14) 
1.9085129419143658

>  <meeko>  (14) 
{"free_energy": -7.85, "intermolecular_energy": -9.34, "internal_energy": -1.29, "cluster_size": 27, "cluster_id": 1, "rank_in_cluster": 14}

>  <energy>  (14) 
-7.85

>  <cluster_rmsd>  (14) 
0.67

>  <cluster>  (14) 
1

$$$$

     RDKit          3D

 45 48  0  0  0  0  0  0  0  0999 V2000
  136.2380   71.4050  222.2560 O   0  0  0  0  0  0  0  0  0  0  0  0
  137.3210   71.7910  222.7980 C   0  0  0  0  0  0  0  0  0  0  0  0
  137.9250   73.0120  222.3510 N   0  0  0  0  0  0  0  0  0  0  0  0
  137.2490   73.7360  221.2920 C   0  0  0  0  0  0  0  0  0  0  0  0
  137.0410   75.1510  221.6970 C   0  0  0  0  0  0  0  0  0  0  0  0
  137.8150   76.0870  221.3670 O   0  0  0  0  0  0  0  0  0  0  0  0
  135.9130   75.4810  222.5010 N   0  0  0  0  0  0  0  0  0  0  0  0
  134.5210   75.5480  222.0940 C   0  0  0  0  0  0  0  0  0  0  0  0
  134.0480   76.7800  222.8350 C   0  0  0  0  0  0  0  0  0  0  0  0
  135.1090   77.0970  223.8820 C   0  0  0  0  0  0  0  0  0  0  0  0
  135.9280   75.8250  223.9300 C   0  0  1  0  0  0  0  0  0  0  0  0
  135.1960   74.8260  224.7230 C   0  0  0  0  0  0  0  0  0  0  0  0
  134.4460   74.9540  225.8730 C   0  0  0  0  0  0  0  0  0  0  0  0
  133.9580   73.7580  226.2460 N   0  0  0  0  0  0  0  0  0  0  0  0
  134.3980   72.8540  225.3280 C   0  0  0  0  0  0  0  0  0  0  0  0
  135.1470   73.5180  224.4130 N   0  0  0  0  0  0  0  0  0  0  0  0
  137.9620   71.0160  223.8660 C   0  0  0  0  0  0  0  0  0  0  0  0
  137.4730   69.7660  224.1580 C   0  0  0  0  0  0  0  0  0  0  0  0
  137.9960   68.9540  225.1380 C   0  0  0  0  0  0  0  0  0  0  0  0
  139.0710   69.4480  225.8540 C   0  0  0  0  0  0  0  0  0  0  0  0
  139.5960   68.6450  226.8290 C   0  0  0  0  0  0  0  0  0  0  0  0
  140.6820   69.1430  227.5520 C   0  0  0  0  0  0  0  0  0  0  0  0
  141.3840   68.1420  228.8130 Cl  0  0  0  0  0  0  0  0  0  0  0  0
  141.1780   70.4000  227.2620 C   0  0  0  0  0  0  0  0  0  0  0  0
  140.6210   71.1840  226.2680 C   0  0  0  0  0  0  0  0  0  0  0  0
  139.5410   70.7000  225.5430 C   0  0  0  0  0  0  0  0  0  0  0  0
  139.0010   71.4640  224.5750 N   0  0  0  0  0  0  0  0  0  0  0  0
  138.8220   73.3540  222.7830 H   0  0  0  0  0  0  0  0  0  0  0  0
  137.8628   73.7045  220.3797 H   0  0  0  0  0  0  0  0  0  0  0  0
  136.2723   73.2676  221.1005 H   0  0  0  0  0  0  0  0  0  0  0  0
  134.4264   75.6731  221.0052 H   0  0  0  0  0  0  0  0  0  0  0  0
  133.9436   74.6395  222.3205 H   0  0  0  0  0  0  0  0  0  0  0  0
  133.9401   77.6236  222.1374 H   0  0  0  0  0  0  0  0  0  0  0  0
  133.0685   76.6069  223.3048 H   0  0  0  0  0  0  0  0  0  0  0  0
  135.7262   77.9536  223.5731 H   0  0  0  0  0  0  0  0  0  0  0  0
  134.6859   77.3781  224.8577 H   0  0  0  0  0  0  0  0  0  0  0  0
  136.9317   75.8948  224.3746 H   0  0  0  0  0  0  0  0  0  0  0  0
  134.2719   75.8990  226.4084 H   0  0  0  0  0  0  0  0  0  0  0  0
  134.1837   71.7751  225.3284 H   0  0  0  0  0  0  0  0  0  0  0  0
  135.6120   73.0450  223.5850 H   0  0  0  0  0  0  0  0  0  0  0  0
  136.6166   69.3938  223.5766 H   0  0  0  0  0  0  0  0  0  0  0  0
  137.5780   67.9573  225.3426 H   0  0  0  0  0  0  0  0  0  0  0  0
  139.1798   67.6478  227.0351 H   0  0  0  0  0  0  0  0  0  0  0  0
  142.0346   70.7854  227.8344 H   0  0  0  0  0  0  0  0  0  0  0  0
  141.0304   72.1823  226.0540 H   0  0  0  0  0  0  0  0  0  0  0  0
  1  2  2  0
  2  3  1  0
  3  4  1  0
  4  5  1  0
  5  6  2  0
  5  7  1  0
  7  8  1  0
  8  9  1  0
  9 10  1  0
 10 11  1  0
 11 12  1  0
 12 13  2  0
 13 14  1  0
 14 15  2  0
 15 16  1  0
  2 17  1  0
 17 18  2  0
 18 19  1  0
 19 20  2  0
 20 21  1  0
 21 22  2  0
 22 23  1  0
 22 24  1  0
 24 25  2  0
 25 26  1  0
 26 27  2  0
 11  7  1  0
 16 12  1  0
 27 17  1  0
 26 20  1  0
  3 28  1  0
  4 29  1  0
  4 30  1  0
  8 31  1  0
  8 32  1  0
  9 33  1  0
  9 34  1  0
 10 35  1  0
 10 36  1  0
 11 37  1  1
 13 38  1  0
 15 39  1  0
 16 40  1  0
 18 41  1  0
 19 42  1  0
 21 43  1  0
 24 44  1  0
 25 45  1  0
M  END
>  <smiles>  (15) 
O=C(NCC(=O)N1CCC[C@H]1c1cnc[nH]1)c1ccc2cc(Cl)ccc2n1

>  <score_type>  (15) 
oracle

>  <origin>  (15) 
autodockgpu

>  <m_score__min__energy>  (15) 
-8.2200000000000006

>  <m_primary>  (15) 
energy

>  <rmsd>  (15) 
4.995780857393841

>  <m_score__min__rmsd>  (15) 
4.995780857393841

>  <meeko>  (15) 
{"free_energy": -6.23, "intermolecular_energy": -7.73, "internal_energy": -2.41, "cluster_size": 1, "cluster_id": 8, "rank_in_cluster": 1}

>  <energy>  (15) 
-7.72

>  <cluster_rmsd>  (15) 
1.08

>  <cluster>  (15) 
1

$$$$

     RDKit          3D

 45 48  0  0  0  0  0  0  0  0999 V2000
  139.2410   72.8670  220.6130 O   0  0  0  0  0  0  0  0  0  0  0  0
  140.1880   72.8310  221.4620 C   0  0  0  0  0  0  0  0  0  0  0  0
  141.3320   73.6710  221.2610 N   0  0  0  0  0  0  0  0  0  0  0  0
  141.3330   74.5200  220.0860 C   0  0  0  0  0  0  0  0  0  0  0  0
  141.8350   75.8740  220.4380 C   0  0  0  0  0  0  0  0  0  0  0  0
  142.9610   76.3100  220.0830 O   0  0  0  0  0  0  0  0  0  0  0  0
  141.0100   76.7350  221.2170 N   0  0  0  0  0  0  0  0  0  0  0  0
  140.2660   76.4050  222.4190 C   0  0  0  0  0  0  0  0  0  0  0  0
  138.9720   77.1560  222.1900 C   0  0  0  0  0  0  0  0  0  0  0  0
  139.2290   78.1380  221.0540 C   0  0  0  0  0  0  0  0  0  0  0  0
  140.7400   78.1570  220.9580 C   0  0  1  0  0  0  0  0  0  0  0  0
  141.2670   79.0020  222.0400 C   0  0  0  0  0  0  0  0  0  0  0  0
  140.6320   79.8570  222.9130 C   0  0  0  0  0  0  0  0  0  0  0  0
  141.5250   80.4240  223.7430 N   0  0  0  0  0  0  0  0  0  0  0  0
  142.7450   79.9280  223.3990 C   0  0  0  0  0  0  0  0  0  0  0  0
  142.5710   79.0680  222.3650 N   0  0  0  0  0  0  0  0  0  0  0  0
  140.1330   71.9500  222.6340 C   0  0  0  0  0  0  0  0  0  0  0  0
  139.4950   70.7400  222.5200 C   0  0  0  0  0  0  0  0  0  0  0  0
  139.3830   69.8370  223.5520 C   0  0  0  0  0  0  0  0  0  0  0  0
  139.9540   70.1940  224.7600 C   0  0  0  0  0  0  0  0  0  0  0  0
  139.8470   69.3010  225.7910 C   0  0  0  0  0  0  0  0  0  0  0  0
  140.4230   69.6610  227.0110 C   0  0  0  0  0  0  0  0  0  0  0  0
  140.3060   68.5400  228.3590 Cl  0  0  0  0  0  0  0  0  0  0  0  0
  141.0670   70.8770  227.1310 C   0  0  0  0  0  0  0  0  0  0  0  0
  141.1550   71.7550  226.0670 C   0  0  0  0  0  0  0  0  0  0  0  0
  140.5860   71.4090  224.8490 C   0  0  0  0  0  0  0  0  0  0  0  0
  140.6740   72.2650  223.8130 N   0  0  0  0  0  0  0  0  0  0  0  0
  142.1300   73.6600  221.9490 H   0  0  0  0  0  0  0  0  0  0  0  0
  141.9846   74.0782  219.3178 H   0  0  0  0  0  0  0  0  0  0  0  0
  140.3062   74.6044  219.7005 H   0  0  0  0  0  0  0  0  0  0  0  0
  140.0928   75.3217  222.4995 H   0  0  0  0  0  0  0  0  0  0  0  0
  140.7811   76.6743  223.3529 H   0  0  0  0  0  0  0  0  0  0  0  0
  138.1715   76.4551  221.9110 H   0  0  0  0  0  0  0  0  0  0  0  0
  138.6537   77.6818  223.1023 H   0  0  0  0  0  0  0  0  0  0  0  0
  138.7773   77.7843  220.1155 H   0  0  0  0  0  0  0  0  0  0  0  0
  138.7927   79.1319  221.2322 H   0  0  0  0  0  0  0  0  0  0  0  0
  141.1760   78.5443  220.0253 H   0  0  0  0  0  0  0  0  0  0  0  0
  139.5490   80.0487  222.9290 H   0  0  0  0  0  0  0  0  0  0  0  0
  143.7036   80.1804  223.8759 H   0  0  0  0  0  0  0  0  0  0  0  0
  143.3670   78.5400  221.9040 H   0  0  0  0  0  0  0  0  0  0  0  0
  139.0484   70.4777  221.5496 H   0  0  0  0  0  0  0  0  0  0  0  0
  138.8636   68.8761  223.4224 H   0  0  0  0  0  0  0  0  0  0  0  0
  139.3286   68.3391  225.6641 H   0  0  0  0  0  0  0  0  0  0  0  0
  141.5199   71.1529  228.0947 H   0  0  0  0  0  0  0  0  0  0  0  0
  141.6713   72.7192  226.1844 H   0  0  0  0  0  0  0  0  0  0  0  0
  1  2  2  0
  2  3  1  0
  3  4  1  0
  4  5  1  0
  5  6  2  0
  5  7  1  0
  7  8  1  0
  8  9  1  0
  9 10  1  0
 10 11  1  0
 11 12  1  0
 12 13  2  0
 13 14  1  0
 14 15  2  0
 15 16  1  0
  2 17  1  0
 17 18  2  0
 18 19  1  0
 19 20  2  0
 20 21  1  0
 21 22  2  0
 22 23  1  0
 22 24  1  0
 24 25  2  0
 25 26  1  0
 26 27  2  0
 11  7  1  0
 16 12  1  0
 27 17  1  0
 26 20  1  0
  3 28  1  0
  4 29  1  0
  4 30  1  0
  8 31  1  0
  8 32  1  0
  9 33  1  0
  9 34  1  0
 10 35  1  0
 10 36  1  0
 11 37  1  6
 13 38  1  0
 15 39  1  0
 16 40  1  0
 18 41  1  0
 19 42  1  0
 21 43  1  0
 24 44  1  0
 25 45  1  0
M  END
>  <smiles>  (16) 
O=C(NCC(=O)N1CCC[C@H]1c1cnc[nH]1)c1ccc2cc(Cl)ccc2n1

>  <score_type>  (16) 
oracle

>  <origin>  (16) 
autodockgpu

>  <m_score__min__energy>  (16) 
-8.2200000000000006

>  <m_primary>  (16) 
energy

>  <rmsd>  (16) 
2.791417507289892

>  <m_score__min__rmsd>  (16) 
2.791417507289892

>  <meeko>  (16) 
{"free_energy": -7.49, "intermolecular_energy": -8.98, "internal_energy": -1.48, "cluster_size": 27, "cluster_id": 1, "rank_in_cluster": 18}

>  <energy>  (16) 
-7.59

>  <cluster_rmsd>  (16) 
1.24

>  <cluster>  (16) 
1

$$$$

     RDKit          3D

 45 48  0  0  0  0  0  0  0  0999 V2000
  139.7740   72.4240  220.8340 O   0  0  0  0  0  0  0  0  0  0  0  0
  139.6550   72.8020  222.0420 C   0  0  0  0  0  0  0  0  0  0  0  0
  139.3500   74.1760  222.3130 N   0  0  0  0  0  0  0  0  0  0  0  0
  139.1950   75.0580  221.1720 C   0  0  0  0  0  0  0  0  0  0  0  0
  139.0040   76.4580  221.6340 C   0  0  0  0  0  0  0  0  0  0  0  0
  138.0350   76.8260  222.3470 O   0  0  0  0  0  0  0  0  0  0  0  0
  139.9590   77.4450  221.2570 N   0  0  0  0  0  0  0  0  0  0  0  0
  139.7730   78.5600  220.3470 C   0  0  0  0  0  0  0  0  0  0  0  0
  141.0860   78.5580  219.5930 C   0  0  0  0  0  0  0  0  0  0  0  0
  142.0450   77.6760  220.3830 C   0  0  0  0  0  0  0  0  0  0  0  0
  141.3520   77.5360  221.7220 C   0  0  1  0  0  0  0  0  0  0  0  0
  141.5720   78.7680  222.4950 C   0  0  0  0  0  0  0  0  0  0  0  0
  140.7340   79.4760  223.3290 C   0  0  0  0  0  0  0  0  0  0  0  0
  141.3700   80.5520  223.8250 N   0  0  0  0  0  0  0  0  0  0  0  0
  142.6280   80.5340  223.3050 C   0  0  0  0  0  0  0  0  0  0  0  0
  142.7330   79.4460  222.5010 N   0  0  0  0  0  0  0  0  0  0  0  0
  139.8220   71.8640  223.1580 C   0  0  0  0  0  0  0  0  0  0  0  0
  139.4560   70.5530  222.9790 C   0  0  0  0  0  0  0  0  0  0  0  0
  139.5690   69.5910  223.9550 C   0  0  0  0  0  0  0  0  0  0  0  0
  140.0820   69.9920  225.1740 C   0  0  0  0  0  0  0  0  0  0  0  0
  140.1980   69.0400  226.1490 C   0  0  0  0  0  0  0  0  0  0  0  0
  140.7160   69.4440  227.3800 C   0  0  0  0  0  0  0  0  0  0  0  0
  140.8810   68.2500  228.6580 Cl  0  0  0  0  0  0  0  0  0  0  0  0
  141.0870   70.7630  227.5670 C   0  0  0  0  0  0  0  0  0  0  0  0
  140.9560   71.6980  226.5570 C   0  0  0  0  0  0  0  0  0  0  0  0
  140.4410   71.3080  225.3290 C   0  0  0  0  0  0  0  0  0  0  0  0
  140.3150   72.2200  224.3460 N   0  0  0  0  0  0  0  0  0  0  0  0
  139.2460   74.5150  223.3050 H   0  0  0  0  0  0  0  0  0  0  0  0
  140.0956   75.0016  220.5430 H   0  0  0  0  0  0  0  0  0  0  0  0
  138.3144   74.7460  220.5914 H   0  0  0  0  0  0  0  0  0  0  0  0
  138.9217   78.3895  219.6716 H   0  0  0  0  0  0  0  0  0  0  0  0
  139.5448   79.5130  220.8468 H   0  0  0  0  0  0  0  0  0  0  0  0
  140.9416   78.1497  218.5818 H   0  0  0  0  0  0  0  0  0  0  0  0
  141.4830   79.5785  219.4884 H   0  0  0  0  0  0  0  0  0  0  0  0
  142.1716   76.6965  219.8987 H   0  0  0  0  0  0  0  0  0  0  0  0
  143.0582   78.0972  220.4605 H   0  0  0  0  0  0  0  0  0  0  0  0
  141.6765   76.7062  222.3670 H   0  0  0  0  0  0  0  0  0  0  0  0
  139.6937   79.2004  223.5564 H   0  0  0  0  0  0  0  0  0  0  0  0
  143.4199   81.2716  223.5019 H   0  0  0  0  0  0  0  0  0  0  0  0
  143.6160   79.1960  221.9700 H   0  0  0  0  0  0  0  0  0  0  0  0
  139.0499   70.2557  222.0009 H   0  0  0  0  0  0  0  0  0  0  0  0
  139.2649   68.5495  223.7737 H   0  0  0  0  0  0  0  0  0  0  0  0
  139.8951   67.9978  225.9700 H   0  0  0  0  0  0  0  0  0  0  0  0
  141.4949   71.0748  228.5398 H   0  0  0  0  0  0  0  0  0  0  0  0
  141.2575   72.7424  226.7255 H   0  0  0  0  0  0  0  0  0  0  0  0
  1  2  2  0
  2  3  1  0
  3  4  1  0
  4  5  1  0
  5  6  2  0
  5  7  1  0
  7  8  1  0
  8  9  1  0
  9 10  1  0
 10 11  1  0
 11 12  1  0
 12 13  2  0
 13 14  1  0
 14 15  2  0
 15 16  1  0
  2 17  1  0
 17 18  2  0
 18 19  1  0
 19 20  2  0
 20 21  1  0
 21 22  2  0
 22 23  1  0
 22 24  1  0
 24 25  2  0
 25 26  1  0
 26 27  2  0
 11  7  1  0
 16 12  1  0
 27 17  1  0
 26 20  1  0
  3 28  1  0
  4 29  1  0
  4 30  1  0
  8 31  1  0
  8 32  1  0
  9 33  1  0
  9 34  1  0
 10 35  1  0
 10 36  1  0
 11 37  1  1
 13 38  1  0
 15 39  1  0
 16 40  1  0
 18 41  1  0
 19 42  1  0
 21 43  1  0
 24 44  1  0
 25 45  1  0
M  END
>  <smiles>  (17) 
O=C(NCC(=O)N1CCC[C@H]1c1cnc[nH]1)c1ccc2cc(Cl)ccc2n1

>  <score_type>  (17) 
oracle

>  <origin>  (17) 
autodockgpu

>  <m_score__min__energy>  (17) 
-8.2200000000000006

>  <m_primary>  (17) 
energy

>  <rmsd>  (17) 
2.2560649197867755

>  <m_score__min__rmsd>  (17) 
2.2560649197867755

>  <meeko>  (17) 
{"free_energy": -8.21, "intermolecular_energy": -9.7, "internal_energy": -1.24, "cluster_size": 27, "cluster_id": 1, "rank_in_cluster": 4}

>  <energy>  (17) 
-7.57

>  <cluster_rmsd>  (17) 
1.33

>  <cluster>  (17) 
1

$$$$

     RDKit          3D

 45 48  0  0  0  0  0  0  0  0999 V2000
  140.5140   72.6160  220.9220 O   0  0  0  0  0  0  0  0  0  0  0  0
  139.9110   72.8320  222.0200 C   0  0  0  0  0  0  0  0  0  0  0  0
  139.1240   74.0220  222.1570 N   0  0  0  0  0  0  0  0  0  0  0  0
  139.0690   74.9160  221.0170 C   0  0  0  0  0  0  0  0  0  0  0  0
  138.8640   76.3140  221.4760 C   0  0  0  0  0  0  0  0  0  0  0  0
  137.8740   76.6810  222.1610 O   0  0  0  0  0  0  0  0  0  0  0  0
  139.8290   77.3020  221.1290 N   0  0  0  0  0  0  0  0  0  0  0  0
  139.6650   78.4280  220.2270 C   0  0  0  0  0  0  0  0  0  0  0  0
  140.9930   78.4300  219.5010 C   0  0  0  0  0  0  0  0  0  0  0  0
  141.9320   77.5370  220.3010 C   0  0  0  0  0  0  0  0  0  0  0  0
  141.2120   77.3850  221.6240 C   0  0  1  0  0  0  0  0  0  0  0  0
  141.4190   78.6070  222.4140 C   0  0  0  0  0  0  0  0  0  0  0  0
  140.6380   79.2050  223.3800 C   0  0  0  0  0  0  0  0  0  0  0  0
  141.2340   80.3210  223.8360 N   0  0  0  0  0  0  0  0  0  0  0  0
  142.4080   80.4410  223.1570 C   0  0  0  0  0  0  0  0  0  0  0  0
  142.5040   79.3940  222.2990 N   0  0  0  0  0  0  0  0  0  0  0  0
  140.0030   71.8920  223.1420 C   0  0  0  0  0  0  0  0  0  0  0  0
  139.5730   70.6000  222.9580 C   0  0  0  0  0  0  0  0  0  0  0  0
  139.6140   69.6370  223.9390 C   0  0  0  0  0  0  0  0  0  0  0  0
  140.1180   70.0170  225.1700 C   0  0  0  0  0  0  0  0  0  0  0  0
  140.1600   69.0640  226.1500 C   0  0  0  0  0  0  0  0  0  0  0  0
  140.6690   69.4470  227.3920 C   0  0  0  0  0  0  0  0  0  0  0  0
  140.7410   68.2510  228.6770 Cl  0  0  0  0  0  0  0  0  0  0  0  0
  141.1030   70.7450  227.5840 C   0  0  0  0  0  0  0  0  0  0  0  0
  141.0450   71.6820  226.5680 C   0  0  0  0  0  0  0  0  0  0  0  0
  140.5400   71.3130  225.3290 C   0  0  0  0  0  0  0  0  0  0  0  0
  140.4840   72.2270  224.3410 N   0  0  0  0  0  0  0  0  0  0  0  0
  138.6140   74.2250  223.0560 H   0  0  0  0  0  0  0  0  0  0  0  0
  140.0139   74.8513  220.4576 H   0  0  0  0  0  0  0  0  0  0  0  0
  138.2303   74.6226  220.3686 H   0  0  0  0  0  0  0  0  0  0  0  0
  138.8275   78.2674  219.5321 H   0  0  0  0  0  0  0  0  0  0  0  0
  139.4289   79.3762  220.7321 H   0  0  0  0  0  0  0  0  0  0  0  0
  140.8687   78.0331  218.4827 H   0  0  0  0  0  0  0  0  0  0  0  0
  141.3951   79.4503  219.4158 H   0  0  0  0  0  0  0  0  0  0  0  0
  142.0653   76.5622  219.8091 H   0  0  0  0  0  0  0  0  0  0  0  0
  142.9446   77.9543  220.4038 H   0  0  0  0  0  0  0  0  0  0  0  0
  141.5214   76.5481  222.2673 H   0  0  0  0  0  0  0  0  0  0  0  0
  139.6666   78.8239  223.7279 H   0  0  0  0  0  0  0  0  0  0  0  0
  143.1483   81.2450  223.2819 H   0  0  0  0  0  0  0  0  0  0  0  0
  143.3280   79.2470  221.6480 H   0  0  0  0  0  0  0  0  0  0  0  0
  139.1740   70.3205  221.9717 H   0  0  0  0  0  0  0  0  0  0  0  0
  139.2621   68.6115  223.7533 H   0  0  0  0  0  0  0  0  0  0  0  0
  139.8073   68.0383  225.9670 H   0  0  0  0  0  0  0  0  0  0  0  0
  141.5030   71.0393  228.5655 H   0  0  0  0  0  0  0  0  0  0  0  0
  141.3959   72.7102  226.7405 H   0  0  0  0  0  0  0  0  0  0  0  0
  1  2  2  0
  2  3  1  0
  3  4  1  0
  4  5  1  0
  5  6  2  0
  5  7  1  0
  7  8  1  0
  8  9  1  0
  9 10  1  0
 10 11  1  0
 11 12  1  0
 12 13  2  0
 13 14  1  0
 14 15  2  0
 15 16  1  0
  2 17  1  0
 17 18  2  0
 18 19  1  0
 19 20  2  0
 20 21  1  0
 21 22  2  0
 22 23  1  0
 22 24  1  0
 24 25  2  0
 25 26  1  0
 26 27  2  0
 11  7  1  0
 16 12  1  0
 27 17  1  0
 26 20  1  0
  3 28  1  0
  4 29  1  0
  4 30  1  0
  8 31  1  0
  8 32  1  0
  9 33  1  0
  9 34  1  0
 10 35  1  0
 10 36  1  0
 11 37  1  1
 13 38  1  0
 15 39  1  0
 16 40  1  0
 18 41  1  0
 19 42  1  0
 21 43  1  0
 24 44  1  0
 25 45  1  0
M  END
>  <smiles>  (18) 
O=C(NCC(=O)N1CCC[C@H]1c1cnc[nH]1)c1ccc2cc(Cl)ccc2n1

>  <score_type>  (18) 
oracle

>  <origin>  (18) 
autodockgpu

>  <m_score__min__energy>  (18) 
-8.2200000000000006

>  <m_primary>  (18) 
energy

>  <rmsd>  (18) 
2.1663450363896524

>  <m_score__min__rmsd>  (18) 
2.1663450363896524

>  <meeko>  (18) 
{"free_energy": -8.22, "intermolecular_energy": -9.71, "internal_energy": -1.24, "cluster_size": 27, "cluster_id": 1, "rank_in_cluster": 3}

>  <energy>  (18) 
-7.49

>  <cluster_rmsd>  (18) 
1.48

>  <cluster>  (18) 
1

$$$$

     RDKit          3D

 45 48  0  0  0  0  0  0  0  0999 V2000
  139.4910   71.8430  220.5820 O   0  0  0  0  0  0  0  0  0  0  0  0
  139.0750   72.2020  221.7290 C   0  0  0  0  0  0  0  0  0  0  0  0
  138.3080   73.4070  221.8420 N   0  0  0  0  0  0  0  0  0  0  0  0
  138.0530   74.1490  220.6230 C   0  0  0  0  0  0  0  0  0  0  0  0
  138.3340   75.5930  220.8370 C   0  0  0  0  0  0  0  0  0  0  0  0
  137.4470   76.4840  220.7950 O   0  0  0  0  0  0  0  0  0  0  0  0
  139.6710   76.0030  221.1040 N   0  0  0  0  0  0  0  0  0  0  0  0
  140.2730   76.2870  222.3940 C   0  0  0  0  0  0  0  0  0  0  0  0
  141.1110   77.5070  222.0740 C   0  0  0  0  0  0  0  0  0  0  0  0
  141.1980   77.5950  220.5560 C   0  0  0  0  0  0  0  0  0  0  0  0
  140.7320   76.2250  220.1100 C   0  0  1  0  0  0  0  0  0  0  0  0
  141.8370   75.2720  220.2930 C   0  0  0  0  0  0  0  0  0  0  0  0
  143.1930   75.4060  220.0890 C   0  0  0  0  0  0  0  0  0  0  0  0
  143.8260   74.2590  220.3910 N   0  0  0  0  0  0  0  0  0  0  0  0
  142.8670   73.3800  220.7930 C   0  0  0  0  0  0  0  0  0  0  0  0
  141.6680   74.0100  220.7270 N   0  0  0  0  0  0  0  0  0  0  0  0
  139.3640   71.4120  222.9310 C   0  0  0  0  0  0  0  0  0  0  0  0
  138.9900   70.0910  222.9570 C   0  0  0  0  0  0  0  0  0  0  0  0
  139.2100   69.2580  224.0290 C   0  0  0  0  0  0  0  0  0  0  0  0
  139.8440   69.8070  225.1290 C   0  0  0  0  0  0  0  0  0  0  0  0
  140.0660   68.9850  226.1990 C   0  0  0  0  0  0  0  0  0  0  0  0
  140.7060   69.5380  227.3090 C   0  0  0  0  0  0  0  0  0  0  0  0
  141.0090   68.5140  228.7040 Cl  0  0  0  0  0  0  0  0  0  0  0  0
  141.0840   70.8670  227.2890 C   0  0  0  0  0  0  0  0  0  0  0  0
  140.8430   71.6690  226.1890 C   0  0  0  0  0  0  0  0  0  0  0  0
  140.2070   71.1300  225.0790 C   0  0  0  0  0  0  0  0  0  0  0  0
  139.9740   71.9120  224.0070 N   0  0  0  0  0  0  0  0  0  0  0  0
  137.9510   73.7270  222.7810 H   0  0  0  0  0  0  0  0  0  0  0  0
  138.7022   73.7667  219.8215 H   0  0  0  0  0  0  0  0  0  0  0  0
  136.9973   74.0253  220.3398 H   0  0  0  0  0  0  0  0  0  0  0  0
  139.5093   76.5119  223.1530 H   0  0  0  0  0  0  0  0  0  0  0  0
  140.8454   75.4479  222.8163 H   0  0  0  0  0  0  0  0  0  0  0  0
  140.6334   78.4114  222.4790 H   0  0  0  0  0  0  0  0  0  0  0  0
  142.1121   77.4271  222.5228 H   0  0  0  0  0  0  0  0  0  0  0  0
  140.5373   78.3837  220.1669 H   0  0  0  0  0  0  0  0  0  0  0  0
  142.2043   77.8509  220.1929 H   0  0  0  0  0  0  0  0  0  0  0  0
  140.4091   76.1239  219.0633 H   0  0  0  0  0  0  0  0  0  0  0  0
  143.6872   76.3209  219.7302 H   0  0  0  0  0  0  0  0  0  0  0  0
  143.0352   72.3416  221.1147 H   0  0  0  0  0  0  0  0  0  0  0  0
  140.7500   73.5460  220.9870 H   0  0  0  0  0  0  0  0  0  0  0  0
  138.4866   69.6761  222.0714 H   0  0  0  0  0  0  0  0  0  0  0  0
  138.8963   68.2038  224.0124 H   0  0  0  0  0  0  0  0  0  0  0  0
  139.7528   67.9306  226.1854 H   0  0  0  0  0  0  0  0  0  0  0  0
  141.5877   71.2962  228.1676 H   0  0  0  0  0  0  0  0  0  0  0  0
  141.1524   72.7246  226.1933 H   0  0  0  0  0  0  0  0  0  0  0  0
  1  2  2  0
  2  3  1  0
  3  4  1  0
  4  5  1  0
  5  6  2  0
  5  7  1  0
  7  8  1  0
  8  9  1  0
  9 10  1  0
 10 11  1  0
 11 12  1  0
 12 13  2  0
 13 14  1  0
 14 15  2  0
 15 16  1  0
  2 17  1  0
 17 18  2  0
 18 19  1  0
 19 20  2  0
 20 21  1  0
 21 22  2  0
 22 23  1  0
 22 24  1  0
 24 25  2  0
 25 26  1  0
 26 27  2  0
 11  7  1  0
 16 12  1  0
 27 17  1  0
 26 20  1  0
  3 28  1  0
  4 29  1  0
  4 30  1  0
  8 31  1  0
  8 32  1  0
  9 33  1  0
  9 34  1  0
 10 35  1  0
 10 36  1  0
 11 37  1  6
 13 38  1  0
 15 39  1  0
 16 40  1  0
 18 41  1  0
 19 42  1  0
 21 43  1  0
 24 44  1  0
 25 45  1  0
M  END
>  <smiles>  (19) 
O=C(NCC(=O)N1CCC[C@H]1c1cnc[nH]1)c1ccc2cc(Cl)ccc2n1

>  <score_type>  (19) 
oracle

>  <origin>  (19) 
autodockgpu

>  <m_score__min__energy>  (19) 
-8.2200000000000006

>  <m_primary>  (19) 
energy

>  <rmsd>  (19) 
2.8709076437259395

>  <m_score__min__rmsd>  (19) 
2.8709076437259395

>  <meeko>  (19) 
{"free_energy": -6.62, "intermolecular_energy": -8.12, "internal_energy": -2.25, "cluster_size": 13, "cluster_id": 2, "rank_in_cluster": 10}

>  <energy>  (19) 
-7.47

>  <cluster_rmsd>  (19) 
1.07

>  <cluster>  (19) 
1

$$$$

     RDKit          3D

 45 48  0  0  0  0  0  0  0  0999 V2000
  140.4430   72.4650  220.7570 O   0  0  0  0  0  0  0  0  0  0  0  0
  140.1280   72.8550  221.9250 C   0  0  0  0  0  0  0  0  0  0  0  0
  139.7530   74.2240  222.1220 N   0  0  0  0  0  0  0  0  0  0  0  0
  139.7590   75.0870  220.9570 C   0  0  0  0  0  0  0  0  0  0  0  0
  140.9870   75.9240  220.9500 C   0  0  0  0  0  0  0  0  0  0  0  0
  142.1160   75.4960  220.5940 O   0  0  0  0  0  0  0  0  0  0  0  0
  140.8980   77.2830  221.3660 N   0  0  0  0  0  0  0  0  0  0  0  0
  140.9610   78.4730  220.5360 C   0  0  0  0  0  0  0  0  0  0  0  0
  141.8010   79.3950  221.3930 C   0  0  0  0  0  0  0  0  0  0  0  0
  141.8400   78.7850  222.7880 C   0  0  0  0  0  0  0  0  0  0  0  0
  140.7210   77.7660  222.7440 C   0  0  1  0  0  0  0  0  0  0  0  0
  139.4390   78.4690  222.8970 C   0  0  0  0  0  0  0  0  0  0  0  0
  139.1330   79.6750  223.4890 C   0  0  0  0  0  0  0  0  0  0  0  0
  137.8140   79.9220  223.3910 N   0  0  0  0  0  0  0  0  0  0  0  0
  137.2690   78.8640  222.7300 C   0  0  0  0  0  0  0  0  0  0  0  0
  138.2680   77.9930  222.4380 N   0  0  0  0  0  0  0  0  0  0  0  0
  140.1400   71.9370  223.0690 C   0  0  0  0  0  0  0  0  0  0  0  0
  139.6270   70.6730  222.9060 C   0  0  0  0  0  0  0  0  0  0  0  0
  139.5880   69.7320  223.9090 C   0  0  0  0  0  0  0  0  0  0  0  0
  140.0980   70.1050  225.1390 C   0  0  0  0  0  0  0  0  0  0  0  0
  140.0620   69.1740  226.1400 C   0  0  0  0  0  0  0  0  0  0  0  0
  140.5770   69.5500  227.3820 C   0  0  0  0  0  0  0  0  0  0  0  0
  140.5490   68.3820  228.6940 Cl  0  0  0  0  0  0  0  0  0  0  0  0
  141.0950   70.8200  227.5520 C   0  0  0  0  0  0  0  0  0  0  0  0
  141.1150   71.7350  226.5160 C   0  0  0  0  0  0  0  0  0  0  0  0
  140.6050   71.3730  225.2770 C   0  0  0  0  0  0  0  0  0  0  0  0
  140.6250   72.2660  224.2680 N   0  0  0  0  0  0  0  0  0  0  0  0
  139.4880   74.5740  223.0800 H   0  0  0  0  0  0  0  0  0  0  0  0
  139.7336   74.4700  220.0467 H   0  0  0  0  0  0  0  0  0  0  0  0
  138.8760   75.7422  220.9888 H   0  0  0  0  0  0  0  0  0  0  0  0
  141.4487   78.2652  219.5721 H   0  0  0  0  0  0  0  0  0  0  0  0
  139.9770   78.8842  220.2664 H   0  0  0  0  0  0  0  0  0  0  0  0
  142.8193   79.4694  220.9836 H   0  0  0  0  0  0  0  0  0  0  0  0
  141.3747   80.4087  221.4173 H   0  0  0  0  0  0  0  0  0  0  0  0
  142.8086   78.3008  222.9811 H   0  0  0  0  0  0  0  0  0  0  0  0
  141.7192   79.5280  223.5901 H   0  0  0  0  0  0  0  0  0  0  0  0
  140.7331   76.9791  223.5126 H   0  0  0  0  0  0  0  0  0  0  0  0
  139.8629   80.3408  223.9727 H   0  0  0  0  0  0  0  0  0  0  0  0
  136.2060   78.7374  222.4771 H   0  0  0  0  0  0  0  0  0  0  0  0
  138.1140   77.0800  221.9220 H   0  0  0  0  0  0  0  0  0  0  0  0
  139.2254   70.3982  221.9195 H   0  0  0  0  0  0  0  0  0  0  0  0
  139.1701   68.7286  223.7401 H   0  0  0  0  0  0  0  0  0  0  0  0
  139.6444   68.1701  225.9735 H   0  0  0  0  0  0  0  0  0  0  0  0
  141.5002   71.1090  228.5330 H   0  0  0  0  0  0  0  0  0  0  0  0
  141.5314   72.7411  226.6722 H   0  0  0  0  0  0  0  0  0  0  0  0
  1  2  2  0
  2  3  1  0
  3  4  1  0
  4  5  1  0
  5  6  2  0
  5  7  1  0
  7  8  1  0
  8  9  1  0
  9 10  1  0
 10 11  1  0
 11 12  1  0
 12 13  2  0
 13 14  1  0
 14 15  2  0
 15 16  1  0
  2 17  1  0
 17 18  2  0
 18 19  1  0
 19 20  2  0
 20 21  1  0
 21 22  2  0
 22 23  1  0
 22 24  1  0
 24 25  2  0
 25 26  1  0
 26 27  2  0
 11  7  1  0
 16 12  1  0
 27 17  1  0
 26 20  1  0
  3 28  1  0
  4 29  1  0
  4 30  1  0
  8 31  1  0
  8 32  1  0
  9 33  1  0
  9 34  1  0
 10 35  1  0
 10 36  1  0
 11 37  1  1
 13 38  1  0
 15 39  1  0
 16 40  1  0
 18 41  1  0
 19 42  1  0
 21 43  1  0
 24 44  1  0
 25 45  1  0
M  END
>  <smiles>  (20) 
O=C(NCC(=O)N1CCC[C@H]1c1cnc[nH]1)c1ccc2cc(Cl)ccc2n1

>  <score_type>  (20) 
oracle

>  <origin>  (20) 
autodockgpu

>  <m_score__min__energy>  (20) 
-8.2200000000000006

>  <m_primary>  (20) 
energy

>  <rmsd>  (20) 
3.0658103657236735

>  <m_score__min__rmsd>  (20) 
3.0658103657236735

>  <meeko>  (20) 
{"free_energy": -7.4, "intermolecular_energy": -8.89, "internal_energy": -1.29, "cluster_size": 27, "cluster_id": 1, "rank_in_cluster": 25}

>  <energy>  (20) 
-7.47

>  <cluster_rmsd>  (20) 
1.01

>  <cluster>  (20) 
1

$$$$

     RDKit          3D

 45 48  0  0  0  0  0  0  0  0999 V2000
  140.0640   72.4780  220.8770 O   0  0  0  0  0  0  0  0  0  0  0  0
  139.8250   72.8310  222.0740 C   0  0  0  0  0  0  0  0  0  0  0  0
  139.4370   74.1870  222.3330 N   0  0  0  0  0  0  0  0  0  0  0  0
  139.3410   75.0780  221.1940 C   0  0  0  0  0  0  0  0  0  0  0  0
  139.1020   76.4700  221.6570 C   0  0  0  0  0  0  0  0  0  0  0  0
  138.1330   76.8010  222.3880 O   0  0  0  0  0  0  0  0  0  0  0  0
  140.0080   77.4950  221.2590 N   0  0  0  0  0  0  0  0  0  0  0  0
  139.7710   78.5750  220.3180 C   0  0  0  0  0  0  0  0  0  0  0  0
  141.0870   78.6200  219.5710 C   0  0  0  0  0  0  0  0  0  0  0  0
  142.0840   77.8100  220.3900 C   0  0  0  0  0  0  0  0  0  0  0  0
  141.3900   77.6700  221.7280 C   0  0  1  0  0  0  0  0  0  0  0  0
  141.5420   78.9310  222.4690 C   0  0  0  0  0  0  0  0  0  0  0  0
  140.7880   79.4830  223.4820 C   0  0  0  0  0  0  0  0  0  0  0  0
  141.3080   80.6640  223.8600 N   0  0  0  0  0  0  0  0  0  0  0  0
  142.4060   80.8720  223.0820 C   0  0  0  0  0  0  0  0  0  0  0  0
  142.5330   79.8120  222.2450 N   0  0  0  0  0  0  0  0  0  0  0  0
  139.9380   71.8850  223.1890 C   0  0  0  0  0  0  0  0  0  0  0  0
  139.5270   70.5890  222.9990 C   0  0  0  0  0  0  0  0  0  0  0  0
  139.5880   69.6200  223.9730 C   0  0  0  0  0  0  0  0  0  0  0  0
  140.0930   69.9980  225.2030 C   0  0  0  0  0  0  0  0  0  0  0  0
  140.1560   69.0400  226.1770 C   0  0  0  0  0  0  0  0  0  0  0  0
  140.6670   69.4210  227.4180 C   0  0  0  0  0  0  0  0  0  0  0  0
  140.7640   68.2180  228.6940 Cl  0  0  0  0  0  0  0  0  0  0  0  0
  141.0820   70.7250  227.6160 C   0  0  0  0  0  0  0  0  0  0  0  0
  141.0030   71.6680  226.6080 C   0  0  0  0  0  0  0  0  0  0  0  0
  140.4970   71.3000  225.3690 C   0  0  0  0  0  0  0  0  0  0  0  0
  140.4210   72.2190  224.3880 N   0  0  0  0  0  0  0  0  0  0  0  0
  139.2330   74.5050  223.3170 H   0  0  0  0  0  0  0  0  0  0  0  0
  140.2797   75.0404  220.6218 H   0  0  0  0  0  0  0  0  0  0  0  0
  138.5028   74.7604  220.5564 H   0  0  0  0  0  0  0  0  0  0  0  0
  138.9338   78.3433  219.6432 H   0  0  0  0  0  0  0  0  0  0  0  0
  139.4913   79.5280  220.7908 H   0  0  0  0  0  0  0  0  0  0  0  0
  140.9703   78.1776  218.5707 H   0  0  0  0  0  0  0  0  0  0  0  0
  141.4322   79.6562  219.4402 H   0  0  0  0  0  0  0  0  0  0  0  0
  142.2641   76.8258  219.9330 H   0  0  0  0  0  0  0  0  0  0  0  0
  143.0736   78.2849  220.4621 H   0  0  0  0  0  0  0  0  0  0  0  0
  141.7520   76.8751  222.3967 H   0  0  0  0  0  0  0  0  0  0  0  0
  139.8893   79.0232  223.9188 H   0  0  0  0  0  0  0  0  0  0  0  0
  143.0728   81.7459  223.1247 H   0  0  0  0  0  0  0  0  0  0  0  0
  143.3120   79.7230  221.5300 H   0  0  0  0  0  0  0  0  0  0  0  0
  139.1267   70.3102  222.0131 H   0  0  0  0  0  0  0  0  0  0  0  0
  139.2502   68.5907  223.7819 H   0  0  0  0  0  0  0  0  0  0  0  0
  139.8174   68.0104  225.9894 H   0  0  0  0  0  0  0  0  0  0  0  0
  141.4838   71.0186  228.5970 H   0  0  0  0  0  0  0  0  0  0  0  0
  141.3381   72.7004  226.7863 H   0  0  0  0  0  0  0  0  0  0  0  0
  1  2  2  0
  2  3  1  0
  3  4  1  0
  4  5  1  0
  5  6  2  0
  5  7  1  0
  7  8  1  0
  8  9  1  0
  9 10  1  0
 10 11  1  0
 11 12  1  0
 12 13  2  0
 13 14  1  0
 14 15  2  0
 15 16  1  0
  2 17  1  0
 17 18  2  0
 18 19  1  0
 19 20  2  0
 20 21  1  0
 21 22  2  0
 22 23  1  0
 22 24  1  0
 24 25  2  0
 25 26  1  0
 26 27  2  0
 11  7  1  0
 16 12  1  0
 27 17  1  0
 26 20  1  0
  3 28  1  0
  4 29  1  0
  4 30  1  0
  8 31  1  0
  8 32  1  0
  9 33  1  0
  9 34  1  0
 10 35  1  0
 10 36  1  0
 11 37  1  1
 13 38  1  0
 15 39  1  0
 16 40  1  0
 18 41  1  0
 19 42  1  0
 21 43  1  0
 24 44  1  0
 25 45  1  0
M  END
>  <smiles>  (21) 
O=C(NCC(=O)N1CCC[C@H]1c1cnc[nH]1)c1ccc2cc(Cl)ccc2n1

>  <score_type>  (21) 
oracle

>  <origin>  (21) 
autodockgpu

>  <m_score__min__energy>  (21) 
-8.2200000000000006

>  <m_primary>  (21) 
energy

>  <rmsd>  (21) 
2.2837148287321387

>  <m_score__min__rmsd>  (21) 
2.2837148287321387

>  <meeko>  (21) 
{"free_energy": -8.15, "intermolecular_energy": -9.65, "internal_energy": -1.27, "cluster_size": 27, "cluster_id": 1, "rank_in_cluster": 6}

>  <energy>  (21) 
-7.46

>  <cluster_rmsd>  (21) 
0.98

>  <cluster>  (21) 
1

$$$$

     RDKit          3D

 45 48  0  0  0  0  0  0  0  0999 V2000
  138.1820   71.1430  220.8440 O   0  0  0  0  0  0  0  0  0  0  0  0
  138.4360   71.7100  221.9530 C   0  0  0  0  0  0  0  0  0  0  0  0
  138.2950   73.1320  222.0540 N   0  0  0  0  0  0  0  0  0  0  0  0
  137.8650   73.8420  220.8650 C   0  0  0  0  0  0  0  0  0  0  0  0
  139.0270   74.0920  219.9730 C   0  0  0  0  0  0  0  0  0  0  0  0
  139.0530   73.7600  218.7600 O   0  0  0  0  0  0  0  0  0  0  0  0
  140.1790   74.7380  220.5060 N   0  0  0  0  0  0  0  0  0  0  0  0
  140.4320   75.1080  221.8870 C   0  0  0  0  0  0  0  0  0  0  0  0
  141.0780   76.4670  221.7230 C   0  0  0  0  0  0  0  0  0  0  0  0
  141.4660   76.5950  220.2550 C   0  0  0  0  0  0  0  0  0  0  0  0
  141.3660   75.1700  219.7530 C   0  0  1  0  0  0  0  0  0  0  0  0
  142.5630   74.4350  220.1860 C   0  0  0  0  0  0  0  0  0  0  0  0
  142.7710   73.0900  220.4060 C   0  0  0  0  0  0  0  0  0  0  0  0
  144.0390   72.8720  220.7970 N   0  0  0  0  0  0  0  0  0  0  0  0
  144.6510   74.0870  220.8280 C   0  0  0  0  0  0  0  0  0  0  0  0
  143.7430   75.0230  220.4550 N   0  0  0  0  0  0  0  0  0  0  0  0
  138.8690   70.9410  223.1250 C   0  0  0  0  0  0  0  0  0  0  0  0
  138.5610   69.6040  223.1860 C   0  0  0  0  0  0  0  0  0  0  0  0
  138.9160   68.7880  224.2360 C   0  0  0  0  0  0  0  0  0  0  0  0
  139.6200   69.3720  225.2730 C   0  0  0  0  0  0  0  0  0  0  0  0
  139.9760   68.5660  226.3200 C   0  0  0  0  0  0  0  0  0  0  0  0
  140.6870   69.1550  227.3670 C   0  0  0  0  0  0  0  0  0  0  0  0
  141.1630   68.1530  228.7290 Cl  0  0  0  0  0  0  0  0  0  0  0  0
  140.9990   70.5000  227.3100 C   0  0  0  0  0  0  0  0  0  0  0  0
  140.6230   71.2840  226.2350 C   0  0  0  0  0  0  0  0  0  0  0  0
  139.9150   70.7090  225.1880 C   0  0  0  0  0  0  0  0  0  0  0  0
  139.5490   71.4740  224.1420 N   0  0  0  0  0  0  0  0  0  0  0  0
  138.4990   73.6270  222.9620 H   0  0  0  0  0  0  0  0  0  0  0  0
  137.1186   73.2369  220.3296 H   0  0  0  0  0  0  0  0  0  0  0  0
  137.4231   74.8051  221.1601 H   0  0  0  0  0  0  0  0  0  0  0  0
  139.4971   75.1746  222.4627 H   0  0  0  0  0  0  0  0  0  0  0  0
  141.0477   74.3830  222.4395 H   0  0  0  0  0  0  0  0  0  0  0  0
  140.3668   77.2601  221.9974 H   0  0  0  0  0  0  0  0  0  0  0  0
  141.9587   76.5669  222.3745 H   0  0  0  0  0  0  0  0  0  0  0  0
  140.7683   77.2539  219.7173 H   0  0  0  0  0  0  0  0  0  0  0  0
  142.4612   77.0392  220.1060 H   0  0  0  0  0  0  0  0  0  0  0  0
  141.2959   75.0291  218.6643 H   0  0  0  0  0  0  0  0  0  0  0  0
  142.0087   72.3071  220.2798 H   0  0  0  0  0  0  0  0  0  0  0  0
  145.6981   74.2767  221.1066 H   0  0  0  0  0  0  0  0  0  0  0  0
  143.9630   76.0590  220.3940 H   0  0  0  0  0  0  0  0  0  0  0  0
  137.9999   69.1611  222.3500 H   0  0  0  0  0  0  0  0  0  0  0  0
  138.6518   67.7203  224.2496 H   0  0  0  0  0  0  0  0  0  0  0  0
  139.7128   67.4981  226.3359 H   0  0  0  0  0  0  0  0  0  0  0  0
  141.5593   70.9573  228.1388 H   0  0  0  0  0  0  0  0  0  0  0  0
  140.8822   72.3527  226.2094 H   0  0  0  0  0  0  0  0  0  0  0  0
  1  2  2  0
  2  3  1  0
  3  4  1  0
  4  5  1  0
  5  6  2  0
  5  7  1  0
  7  8  1  0
  8  9  1  0
  9 10  1  0
 10 11  1  0
 11 12  1  0
 12 13  2  0
 13 14  1  0
 14 15  2  0
 15 16  1  0
  2 17  1  0
 17 18  2  0
 18 19  1  0
 19 20  2  0
 20 21  1  0
 21 22  2  0
 22 23  1  0
 22 24  1  0
 24 25  2  0
 25 26  1  0
 26 27  2  0
 11  7  1  0
 16 12  1  0
 27 17  1  0
 26 20  1  0
  3 28  1  0
  4 29  1  0
  4 30  1  0
  8 31  1  0
  8 32  1  0
  9 33  1  0
  9 34  1  0
 10 35  1  0
 10 36  1  0
 11 37  1  6
 13 38  1  0
 15 39  1  0
 16 40  1  0
 18 41  1  0
 19 42  1  0
 21 43  1  0
 24 44  1  0
 25 45  1  0
M  END
>  <smiles>  (22) 
O=C(NCC(=O)N1CCC[C@H]1c1cnc[nH]1)c1ccc2cc(Cl)ccc2n1

>  <score_type>  (22) 
oracle

>  <origin>  (22) 
autodockgpu

>  <m_score__min__energy>  (22) 
-8.2200000000000006

>  <m_primary>  (22) 
energy

>  <rmsd>  (22) 
2.639392556653611

>  <m_score__min__rmsd>  (22) 
2.639392556653611

>  <meeko>  (22) 
{"free_energy": -6.61, "intermolecular_energy": -8.1, "internal_energy": -1.46, "cluster_size": 13, "cluster_id": 2, "rank_in_cluster": 11}

>  <energy>  (22) 
-7.42

>  <cluster_rmsd>  (22) 
1.46

>  <cluster>  (22) 
1

$$$$

     RDKit          3D

 45 48  0  0  0  0  0  0  0  0999 V2000
  141.7780   78.4480  217.2830 O   0  0  0  0  0  0  0  0  0  0  0  0
  142.2700   77.9640  218.3510 C   0  0  0  0  0  0  0  0  0  0  0  0
  142.2070   78.7370  219.5560 N   0  0  0  0  0  0  0  0  0  0  0  0
  141.5760   80.0400  219.4760 C   0  0  0  0  0  0  0  0  0  0  0  0
  141.4170   80.6130  220.8380 C   0  0  0  0  0  0  0  0  0  0  0  0
  141.7950   81.7720  221.1510 O   0  0  0  0  0  0  0  0  0  0  0  0
  140.8080   79.8210  221.8530 N   0  0  0  0  0  0  0  0  0  0  0  0
  139.4380   79.8890  222.3310 C   0  0  0  0  0  0  0  0  0  0  0  0
  139.6300   79.7130  223.8220 C   0  0  0  0  0  0  0  0  0  0  0  0
  141.0500   79.1990  224.0250 C   0  0  0  0  0  0  0  0  0  0  0  0
  141.4520   78.7550  222.6350 C   0  0  1  0  0  0  0  0  0  0  0  0
  140.8320   77.4500  222.3610 C   0  0  0  0  0  0  0  0  0  0  0  0
  139.6060   76.9360  222.7240 C   0  0  0  0  0  0  0  0  0  0  0  0
  139.4640   75.6870  222.2450 N   0  0  0  0  0  0  0  0  0  0  0  0
  140.6090   75.3970  221.5690 C   0  0  0  0  0  0  0  0  0  0  0  0
  141.4270   76.4760  221.6500 N   0  0  0  0  0  0  0  0  0  0  0  0
  142.8990   76.6390  218.3730 C   0  0  0  0  0  0  0  0  0  0  0  0
  142.9410   75.9100  217.2110 C   0  0  0  0  0  0  0  0  0  0  0  0
  143.5050   74.6580  217.1170 C   0  0  0  0  0  0  0  0  0  0  0  0
  144.0500   74.1280  218.2720 C   0  0  0  0  0  0  0  0  0  0  0  0
  144.6120   72.8850  218.1860 C   0  0  0  0  0  0  0  0  0  0  0  0
  145.1630   72.3490  219.3510 C   0  0  0  0  0  0  0  0  0  0  0  0
  145.8950   70.7540  219.2810 Cl  0  0  0  0  0  0  0  0  0  0  0  0
  145.1230   73.0790  220.5240 C   0  0  0  0  0  0  0  0  0  0  0  0
  144.5470   74.3340  220.5740 C   0  0  0  0  0  0  0  0  0  0  0  0
  143.9950   74.8770  219.4210 C   0  0  0  0  0  0  0  0  0  0  0  0
  143.4340   76.1000  219.4710 N   0  0  0  0  0  0  0  0  0  0  0  0
  142.6080   78.3600  220.4550 H   0  0  0  0  0  0  0  0  0  0  0  0
  142.2019   80.7111  218.8694 H   0  0  0  0  0  0  0  0  0  0  0  0
  140.5846   79.9329  219.0117 H   0  0  0  0  0  0  0  0  0  0  0  0
  138.9784   80.8606  222.0969 H   0  0  0  0  0  0  0  0  0  0  0  0
  138.7662   79.1472  221.8745 H   0  0  0  0  0  0  0  0  0  0  0  0
  139.4985   80.6760  224.3371 H   0  0  0  0  0  0  0  0  0  0  0  0
  138.8925   79.0089  224.2347 H   0  0  0  0  0  0  0  0  0  0  0  0
  141.7112   79.9979  224.3917 H   0  0  0  0  0  0  0  0  0  0  0  0
  141.1180   78.3960  224.7737 H   0  0  0  0  0  0  0  0  0  0  0  0
  142.5279   78.6299  222.4435 H   0  0  0  0  0  0  0  0  0  0  0  0
  138.8516   77.4704  223.3200 H   0  0  0  0  0  0  0  0  0  0  0  0
  140.8318   74.4538  221.0486 H   0  0  0  0  0  0  0  0  0  0  0  0
  142.3890   76.5140  221.2050 H   0  0  0  0  0  0  0  0  0  0  0  0
  142.4996   76.3505  216.3049 H   0  0  0  0  0  0  0  0  0  0  0  0
  143.5214   74.1044  216.1666 H   0  0  0  0  0  0  0  0  0  0  0  0
  144.6293   72.3294  217.2368 H   0  0  0  0  0  0  0  0  0  0  0  0
  145.5596   72.6512  221.4385 H   0  0  0  0  0  0  0  0  0  0  0  0
  144.5258   74.8978  221.5183 H   0  0  0  0  0  0  0  0  0  0  0  0
  1  2  2  0
  2  3  1  0
  3  4  1  0
  4  5  1  0
  5  6  2  0
  5  7  1  0
  7  8  1  0
  8  9  1  0
  9 10  1  0
 10 11  1  0
 11 12  1  0
 12 13  2  0
 13 14  1  0
 14 15  2  0
 15 16  1  0
  2 17  1  0
 17 18  2  0
 18 19  1  0
 19 20  2  0
 20 21  1  0
 21 22  2  0
 22 23  1  0
 22 24  1  0
 24 25  2  0
 25 26  1  0
 26 27  2  0
 11  7  1  0
 16 12  1  0
 27 17  1  0
 26 20  1  0
  3 28  1  0
  4 29  1  0
  4 30  1  0
  8 31  1  0
  8 32  1  0
  9 33  1  0
  9 34  1  0
 10 35  1  0
 10 36  1  0
 11 37  1  1
 13 38  1  0
 15 39  1  0
 16 40  1  0
 18 41  1  0
 19 42  1  0
 21 43  1  0
 24 44  1  0
 25 45  1  0
M  END
>  <smiles>  (23) 
O=C(NCC(=O)N1CCC[C@H]1c1cnc[nH]1)c1ccc2cc(Cl)ccc2n1

>  <score_type>  (23) 
oracle

>  <origin>  (23) 
autodockgpu

>  <m_score__min__energy>  (23) 
-8.2200000000000006

>  <m_primary>  (23) 
energy

>  <rmsd>  (23) 
7.681146465460085

>  <m_score__min__rmsd>  (23) 
7.681146465460085

>  <meeko>  (23) 
{"free_energy": -6.46, "intermolecular_energy": -7.95, "internal_energy": -2.23, "cluster_size": 3, "cluster_id": 7, "rank_in_cluster": 1}

>  <energy>  (23) 
-7.41

>  <cluster_rmsd>  (23) 
1.6

>  <cluster>  (23) 
1

$$$$

     RDKit          3D

 45 48  0  0  0  0  0  0  0  0999 V2000
  139.1570   72.8800  220.6530 O   0  0  0  0  0  0  0  0  0  0  0  0
  140.1070   72.8540  221.4980 C   0  0  0  0  0  0  0  0  0  0  0  0
  141.2360   73.7140  221.2990 N   0  0  0  0  0  0  0  0  0  0  0  0
  141.2200   74.5700  220.1290 C   0  0  0  0  0  0  0  0  0  0  0  0
  141.7940   75.9000  220.4640 C   0  0  0  0  0  0  0  0  0  0  0  0
  142.9320   76.2780  220.0840 O   0  0  0  0  0  0  0  0  0  0  0  0
  141.0270   76.8020  221.2550 N   0  0  0  0  0  0  0  0  0  0  0  0
  140.4110   76.5510  222.5450 C   0  0  0  0  0  0  0  0  0  0  0  0
  139.0830   77.2600  222.3900 C   0  0  0  0  0  0  0  0  0  0  0  0
  139.2050   78.1580  221.1650 C   0  0  0  0  0  0  0  0  0  0  0  0
  140.6980   78.1960  220.9190 C   0  0  1  0  0  0  0  0  0  0  0  0
  141.3070   79.1290  221.8790 C   0  0  0  0  0  0  0  0  0  0  0  0
  140.7880   80.2280  222.5280 C   0  0  0  0  0  0  0  0  0  0  0  0
  141.7200   80.7840  223.3220 N   0  0  0  0  0  0  0  0  0  0  0  0
  142.8480   80.0350  223.1810 C   0  0  0  0  0  0  0  0  0  0  0  0
  142.5810   79.0360  222.3030 N   0  0  0  0  0  0  0  0  0  0  0  0
  140.0700   71.9660  222.6650 C   0  0  0  0  0  0  0  0  0  0  0  0
  139.4240   70.7590  222.5540 C   0  0  0  0  0  0  0  0  0  0  0  0
  139.3280   69.8500  223.5830 C   0  0  0  0  0  0  0  0  0  0  0  0
  139.9220   70.1960  224.7820 C   0  0  0  0  0  0  0  0  0  0  0  0
  139.8300   69.2970  225.8090 C   0  0  0  0  0  0  0  0  0  0  0  0
  140.4300   69.6450  227.0200 C   0  0  0  0  0  0  0  0  0  0  0  0
  140.3340   68.5160  228.3630 Cl  0  0  0  0  0  0  0  0  0  0  0  0
  141.0810   70.8590  227.1370 C   0  0  0  0  0  0  0  0  0  0  0  0
  141.1540   71.7430  226.0770 C   0  0  0  0  0  0  0  0  0  0  0  0
  140.5610   71.4080  224.8670 C   0  0  0  0  0  0  0  0  0  0  0  0
  140.6330   72.2700  223.8360 N   0  0  0  0  0  0  0  0  0  0  0  0
  142.0370   73.7120  221.9840 H   0  0  0  0  0  0  0  0  0  0  0  0
  141.8173   74.1062  219.3302 H   0  0  0  0  0  0  0  0  0  0  0  0
  140.1814   74.6998  219.7908 H   0  0  0  0  0  0  0  0  0  0  0  0
  140.2731   75.4740  222.7214 H   0  0  0  0  0  0  0  0  0  0  0  0
  141.0073   76.8990  223.4014 H   0  0  0  0  0  0  0  0  0  0  0  0
  138.2767   76.5263  222.2432 H   0  0  0  0  0  0  0  0  0  0  0  0
  138.8415   77.8474  223.2881 H   0  0  0  0  0  0  0  0  0  0  0  0
  138.6732   77.7268  220.3040 H   0  0  0  0  0  0  0  0  0  0  0  0
  138.7641   79.1550  221.3123 H   0  0  0  0  0  0  0  0  0  0  0  0
  141.0312   78.5192  219.9217 H   0  0  0  0  0  0  0  0  0  0  0  0
  139.7584   80.5977  222.4131 H   0  0  0  0  0  0  0  0  0  0  0  0
  143.8076   80.2093  223.6898 H   0  0  0  0  0  0  0  0  0  0  0  0
  143.2930   78.3060  222.0150 H   0  0  0  0  0  0  0  0  0  0  0  0
  138.9581   70.5051  221.5905 H   0  0  0  0  0  0  0  0  0  0  0  0
  138.8025   68.8919  223.4569 H   0  0  0  0  0  0  0  0  0  0  0  0
  139.3044   68.3386  225.6853 H   0  0  0  0  0  0  0  0  0  0  0  0
  141.5511   71.1273  228.0946 H   0  0  0  0  0  0  0  0  0  0  0  0
  141.6774   72.7037  226.1910 H   0  0  0  0  0  0  0  0  0  0  0  0
  1  2  2  0
  2  3  1  0
  3  4  1  0
  4  5  1  0
  5  6  2  0
  5  7  1  0
  7  8  1  0
  8  9  1  0
  9 10  1  0
 10 11  1  0
 11 12  1  0
 12 13  2  0
 13 14  1  0
 14 15  2  0
 15 16  1  0
  2 17  1  0
 17 18  2  0
 18 19  1  0
 19 20  2  0
 20 21  1  0
 21 22  2  0
 22 23  1  0
 22 24  1  0
 24 25  2  0
 25 26  1  0
 26 27  2  0
 11  7  1  0
 16 12  1  0
 27 17  1  0
 26 20  1  0
  3 28  1  0
  4 29  1  0
  4 30  1  0
  8 31  1  0
  8 32  1  0
  9 33  1  0
  9 34  1  0
 10 35  1  0
 10 36  1  0
 11 37  1  6
 13 38  1  0
 15 39  1  0
 16 40  1  0
 18 41  1  0
 19 42  1  0
 21 43  1  0
 24 44  1  0
 25 45  1  0
M  END
>  <smiles>  (24) 
O=C(NCC(=O)N1CCC[C@H]1c1cnc[nH]1)c1ccc2cc(Cl)ccc2n1

>  <score_type>  (24) 
oracle

>  <origin>  (24) 
autodockgpu

>  <m_score__min__energy>  (24) 
-8.2200000000000006

>  <m_primary>  (24) 
energy

>  <rmsd>  (24) 
2.8363968903195715

>  <m_score__min__rmsd>  (24) 
2.8363968903195715

>  <meeko>  (24) 
{"free_energy": -7.41, "intermolecular_energy": -8.9, "internal_energy": -1.55, "cluster_size": 27, "cluster_id": 1, "rank_in_cluster": 24}

>  <energy>  (24) 
-7.41

>  <cluster_rmsd>  (24) 
1.48

>  <cluster>  (24) 
1

$$$$

     RDKit          3D

 45 48  0  0  0  0  0  0  0  0999 V2000
  139.3050   71.9620  220.8500 O   0  0  0  0  0  0  0  0  0  0  0  0
  139.4440   72.4160  222.0290 C   0  0  0  0  0  0  0  0  0  0  0  0
  139.3770   73.8320  222.2400 N   0  0  0  0  0  0  0  0  0  0  0  0
  139.1520   74.6660  221.0750 C   0  0  0  0  0  0  0  0  0  0  0  0
  138.8180   76.0510  221.4980 C   0  0  0  0  0  0  0  0  0  0  0  0
  137.7660   76.3510  222.1200 O   0  0  0  0  0  0  0  0  0  0  0  0
  139.7260   77.1040  221.1900 N   0  0  0  0  0  0  0  0  0  0  0  0
  139.5230   78.2140  220.2760 C   0  0  0  0  0  0  0  0  0  0  0  0
  140.8790   78.3080  219.6100 C   0  0  0  0  0  0  0  0  0  0  0  0
  141.8420   77.4850  220.4550 C   0  0  0  0  0  0  0  0  0  0  0  0
  141.0760   77.2850  221.7450 C   0  0  1  0  0  0  0  0  0  0  0  0
  141.1610   78.5200  222.5380 C   0  0  0  0  0  0  0  0  0  0  0  0
  142.2270   79.3510  222.8090 C   0  0  0  0  0  0  0  0  0  0  0  0
  141.8340   80.3750  223.5860 N   0  0  0  0  0  0  0  0  0  0  0  0
  140.5030   80.2000  223.8170 C   0  0  0  0  0  0  0  0  0  0  0  0
  140.1120   79.0710  223.1740 N   0  0  0  0  0  0  0  0  0  0  0  0
  139.6700   71.5240  223.1720 C   0  0  0  0  0  0  0  0  0  0  0  0
  139.3440   70.1960  223.0470 C   0  0  0  0  0  0  0  0  0  0  0  0
  139.5130   69.2720  224.0520 C   0  0  0  0  0  0  0  0  0  0  0  0
  140.0420   69.7330  225.2440 C   0  0  0  0  0  0  0  0  0  0  0  0
  140.2130   68.8200  226.2470 C   0  0  0  0  0  0  0  0  0  0  0  0
  140.7470   69.2840  227.4510 C   0  0  0  0  0  0  0  0  0  0  0  0
  140.9820   68.1410  228.7640 Cl  0  0  0  0  0  0  0  0  0  0  0  0
  141.0770   70.6200  227.5830 C   0  0  0  0  0  0  0  0  0  0  0  0
  140.8900   71.5140  226.5450 C   0  0  0  0  0  0  0  0  0  0  0  0
  140.3600   71.0640  225.3440 C   0  0  0  0  0  0  0  0  0  0  0  0
  140.1790   71.9380  224.3350 N   0  0  0  0  0  0  0  0  0  0  0  0
  139.4890   74.2340  223.2070 H   0  0  0  0  0  0  0  0  0  0  0  0
  140.0625   74.6832  220.4580 H   0  0  0  0  0  0  0  0  0  0  0  0
  138.3144   74.2545  220.4927 H   0  0  0  0  0  0  0  0  0  0  0  0
  138.7309   77.9933  219.5454 H   0  0  0  0  0  0  0  0  0  0  0  0
  139.1980   79.1441  220.7651 H   0  0  0  0  0  0  0  0  0  0  0  0
  140.8285   77.9015  218.5891 H   0  0  0  0  0  0  0  0  0  0  0  0
  141.2118   79.3540  219.5381 H   0  0  0  0  0  0  0  0  0  0  0  0
  142.0655   76.5212  219.9743 H   0  0  0  0  0  0  0  0  0  0  0  0
  142.8171   77.9728  220.6006 H   0  0  0  0  0  0  0  0  0  0  0  0
  141.4145   76.4729  222.4052 H   0  0  0  0  0  0  0  0  0  0  0  0
  143.2526   79.1980  222.4419 H   0  0  0  0  0  0  0  0  0  0  0  0
  139.8588   80.8580  224.4187 H   0  0  0  0  0  0  0  0  0  0  0  0
  139.1170   78.7050  223.1910 H   0  0  0  0  0  0  0  0  0  0  0  0
  138.9244   69.8519  222.0901 H   0  0  0  0  0  0  0  0  0  0  0  0
  139.2401   68.2154  223.9141 H   0  0  0  0  0  0  0  0  0  0  0  0
  139.9410   67.7628  226.1112 H   0  0  0  0  0  0  0  0  0  0  0  0
  141.4972   70.9794  228.5339 H   0  0  0  0  0  0  0  0  0  0  0  0
  141.1591   72.5732  226.6701 H   0  0  0  0  0  0  0  0  0  0  0  0
  1  2  2  0
  2  3  1  0
  3  4  1  0
  4  5  1  0
  5  6  2  0
  5  7  1  0
  7  8  1  0
  8  9  1  0
  9 10  1  0
 10 11  1  0
 11 12  1  0
 12 13  2  0
 13 14  1  0
 14 15  2  0
 15 16  1  0
  2 17  1  0
 17 18  2  0
 18 19  1  0
 19 20  2  0
 20 21  1  0
 21 22  2  0
 22 23  1  0
 22 24  1  0
 24 25  2  0
 25 26  1  0
 26 27  2  0
 11  7  1  0
 16 12  1  0
 27 17  1  0
 26 20  1  0
  3 28  1  0
  4 29  1  0
  4 30  1  0
  8 31  1  0
  8 32  1  0
  9 33  1  0
  9 34  1  0
 10 35  1  0
 10 36  1  0
 11 37  1  1
 13 38  1  0
 15 39  1  0
 16 40  1  0
 18 41  1  0
 19 42  1  0
 21 43  1  0
 24 44  1  0
 25 45  1  0
M  END
>  <smiles>  (25) 
O=C(NCC(=O)N1CCC[C@H]1c1cnc[nH]1)c1ccc2cc(Cl)ccc2n1

>  <score_type>  (25) 
oracle

>  <origin>  (25) 
autodockgpu

>  <m_score__min__energy>  (25) 
-8.2200000000000006

>  <m_primary>  (25) 
energy

>  <rmsd>  (25) 
2.0950046408137912

>  <m_score__min__rmsd>  (25) 
2.0950046408137912

>  <meeko>  (25) 
{"free_energy": -7.47, "intermolecular_energy": -8.96, "internal_energy": -1.41, "cluster_size": 27, "cluster_id": 1, "rank_in_cluster": 20}

>  <energy>  (25) 
-7.4

>  <cluster_rmsd>  (25) 
1.6

>  <cluster>  (25) 
1

$$$$

     RDKit          3D

 45 48  0  0  0  0  0  0  0  0999 V2000
  140.3250   72.5040  220.9490 O   0  0  0  0  0  0  0  0  0  0  0  0
  139.6620   72.6570  222.0230 C   0  0  0  0  0  0  0  0  0  0  0  0
  138.7520   73.7590  222.1250 N   0  0  0  0  0  0  0  0  0  0  0  0
  138.6460   74.6410  220.9780 C   0  0  0  0  0  0  0  0  0  0  0  0
  138.9090   76.0440  221.3900 C   0  0  0  0  0  0  0  0  0  0  0  0
  138.0280   76.8010  221.8740 O   0  0  0  0  0  0  0  0  0  0  0  0
  140.2210   76.5750  221.2320 N   0  0  0  0  0  0  0  0  0  0  0  0
  141.0490   77.2110  222.2400 C   0  0  0  0  0  0  0  0  0  0  0  0
  141.6660   78.3470  221.4520 C   0  0  0  0  0  0  0  0  0  0  0  0
  141.4190   78.0450  219.9800 C   0  0  0  0  0  0  0  0  0  0  0  0
  141.0170   76.5850  219.9960 C   0  0  1  0  0  0  0  0  0  0  0  0
  142.2300   75.7660  220.1400 C   0  0  0  0  0  0  0  0  0  0  0  0
  143.5210   75.9760  219.7070 C   0  0  0  0  0  0  0  0  0  0  0  0
  144.3080   74.9480  220.0720 N   0  0  0  0  0  0  0  0  0  0  0  0
  143.5140   74.0700  220.7450 C   0  0  0  0  0  0  0  0  0  0  0  0
  142.2580   74.5820  220.7770 N   0  0  0  0  0  0  0  0  0  0  0  0
  139.8100   71.7340  223.1530 C   0  0  0  0  0  0  0  0  0  0  0  0
  139.4030   70.4310  222.9980 C   0  0  0  0  0  0  0  0  0  0  0  0
  139.4950   69.4820  223.9890 C   0  0  0  0  0  0  0  0  0  0  0  0
  140.0290   69.8870  225.1980 C   0  0  0  0  0  0  0  0  0  0  0  0
  140.1230   68.9480  226.1880 C   0  0  0  0  0  0  0  0  0  0  0  0
  140.6620   69.3580  227.4090 C   0  0  0  0  0  0  0  0  0  0  0  0
  140.8000   68.1800  228.7050 Cl  0  0  0  0  0  0  0  0  0  0  0  0
  141.0730   70.6670  227.5710 C   0  0  0  0  0  0  0  0  0  0  0  0
  140.9630   71.5900  226.5470 C   0  0  0  0  0  0  0  0  0  0  0  0
  140.4280   71.1940  225.3280 C   0  0  0  0  0  0  0  0  0  0  0  0
  140.3210   72.0940  224.3320 N   0  0  0  0  0  0  0  0  0  0  0  0
  138.1900   73.9090  223.0040 H   0  0  0  0  0  0  0  0  0  0  0  0
  139.3822   74.3404  220.2180 H   0  0  0  0  0  0  0  0  0  0  0  0
  137.6303   74.5713  220.5615 H   0  0  0  0  0  0  0  0  0  0  0  0
  140.4440   77.5860  223.0787 H   0  0  0  0  0  0  0  0  0  0  0  0
  141.7837   76.5381  222.7064 H   0  0  0  0  0  0  0  0  0  0  0  0
  141.1922   79.3006  221.7278 H   0  0  0  0  0  0  0  0  0  0  0  0
  142.7422   78.4349  221.6622 H   0  0  0  0  0  0  0  0  0  0  0  0
  140.6109   78.6734  219.5774 H   0  0  0  0  0  0  0  0  0  0  0  0
  142.2925   78.2477  219.3428 H   0  0  0  0  0  0  0  0  0  0  0  0
  140.4921   76.2021  219.1084 H   0  0  0  0  0  0  0  0  0  0  0  0
  143.8596   76.8580  219.1435 H   0  0  0  0  0  0  0  0  0  0  0  0
  143.8344   73.1142  221.1851 H   0  0  0  0  0  0  0  0  0  0  0  0
  141.4410   74.0940  221.2450 H   0  0  0  0  0  0  0  0  0  0  0  0
  138.9803   70.1303  222.0280 H   0  0  0  0  0  0  0  0  0  0  0  0
  139.1588   68.4473  223.8269 H   0  0  0  0  0  0  0  0  0  0  0  0
  139.7878   67.9125  226.0288 H   0  0  0  0  0  0  0  0  0  0  0  0
  141.4971   70.9821  228.5358 H   0  0  0  0  0  0  0  0  0  0  0  0
  141.2960   72.6277  226.6965 H   0  0  0  0  0  0  0  0  0  0  0  0
  1  2  2  0
  2  3  1  0
  3  4  1  0
  4  5  1  0
  5  6  2  0
  5  7  1  0
  7  8  1  0
  8  9  1  0
  9 10  1  0
 10 11  1  0
 11 12  1  0
 12 13  2  0
 13 14  1  0
 14 15  2  0
 15 16  1  0
  2 17  1  0
 17 18  2  0
 18 19  1  0
 19 20  2  0
 20 21  1  0
 21 22  2  0
 22 23  1  0
 22 24  1  0
 24 25  2  0
 25 26  1  0
 26 27  2  0
 11  7  1  0
 16 12  1  0
 27 17  1  0
 26 20  1  0
  3 28  1  0
  4 29  1  0
  4 30  1  0
  8 31  1  0
  8 32  1  0
  9 33  1  0
  9 34  1  0
 10 35  1  0
 10 36  1  0
 11 37  1  6
 13 38  1  0
 15 39  1  0
 16 40  1  0
 18 41  1  0
 19 42  1  0
 21 43  1  0
 24 44  1  0
 25 45  1  0
M  END
>  <smiles>  (26) 
O=C(NCC(=O)N1CCC[C@H]1c1cnc[nH]1)c1ccc2cc(Cl)ccc2n1

>  <score_type>  (26) 
oracle

>  <origin>  (26) 
autodockgpu

>  <m_score__min__energy>  (26) 
-8.2200000000000006

>  <m_primary>  (26) 
energy

>  <rmsd>  (26) 
2.8568333743736667

>  <m_score__min__rmsd>  (26) 
2.8568333743736667

>  <meeko>  (26) 
{"free_energy": -7.22, "intermolecular_energy": -8.71, "internal_energy": -2.14, "cluster_size": 13, "cluster_id": 2, "rank_in_cluster": 7}

>  <energy>  (26) 
-7.4

>  <cluster_rmsd>  (26) 
1.54

>  <cluster>  (26) 
1

$$$$

     RDKit          3D

 45 48  0  0  0  0  0  0  0  0999 V2000
  139.0560   71.9870  220.8650 O   0  0  0  0  0  0  0  0  0  0  0  0
  139.2340   72.4440  222.0370 C   0  0  0  0  0  0  0  0  0  0  0  0
  139.1630   73.8600  222.2470 N   0  0  0  0  0  0  0  0  0  0  0  0
  138.8900   74.6900  221.0900 C   0  0  0  0  0  0  0  0  0  0  0  0
  138.7360   76.1080  221.5050 C   0  0  0  0  0  0  0  0  0  0  0  0
  137.7470   76.5370  222.1540 O   0  0  0  0  0  0  0  0  0  0  0  0
  139.7530   77.0430  221.1580 N   0  0  0  0  0  0  0  0  0  0  0  0
  139.6690   78.1350  220.2050 C   0  0  0  0  0  0  0  0  0  0  0  0
  141.0230   78.0550  219.5330 C   0  0  0  0  0  0  0  0  0  0  0  0
  141.8940   77.1610  220.4050 C   0  0  0  0  0  0  0  0  0  0  0  0
  141.1180   77.0920  221.7030 C   0  0  1  0  0  0  0  0  0  0  0  0
  141.3440   78.3380  222.4510 C   0  0  0  0  0  0  0  0  0  0  0  0
  140.5560   79.0010  223.3660 C   0  0  0  0  0  0  0  0  0  0  0  0
  141.1770   80.1140  223.7970 N   0  0  0  0  0  0  0  0  0  0  0  0
  142.3740   80.1650  223.1530 C   0  0  0  0  0  0  0  0  0  0  0  0
  142.4600   79.0820  222.3410 N   0  0  0  0  0  0  0  0  0  0  0  0
  139.5080   71.5570  223.1730 C   0  0  0  0  0  0  0  0  0  0  0  0
  139.1870   70.2260  223.0630 C   0  0  0  0  0  0  0  0  0  0  0  0
  139.4000   69.3060  224.0630 C   0  0  0  0  0  0  0  0  0  0  0  0
  139.9690   69.7740  225.2330 C   0  0  0  0  0  0  0  0  0  0  0  0
  140.1840   68.8640  226.2320 C   0  0  0  0  0  0  0  0  0  0  0  0
  140.7580   69.3350  227.4140 C   0  0  0  0  0  0  0  0  0  0  0  0
  141.0500   68.1970  228.7200 Cl  0  0  0  0  0  0  0  0  0  0  0  0
  141.0840   70.6730  227.5300 C   0  0  0  0  0  0  0  0  0  0  0  0
  140.8520   71.5640  226.4990 C   0  0  0  0  0  0  0  0  0  0  0  0
  140.2810   71.1080  225.3190 C   0  0  0  0  0  0  0  0  0  0  0  0
  140.0570   71.9770  224.3150 N   0  0  0  0  0  0  0  0  0  0  0  0
  139.3070   74.2660  223.2090 H   0  0  0  0  0  0  0  0  0  0  0  0
  139.7244   74.6077  220.3780 H   0  0  0  0  0  0  0  0  0  0  0  0
  137.9580   74.3503  220.6146 H   0  0  0  0  0  0  0  0  0  0  0  0
  138.8530   77.9774  219.4844 H   0  0  0  0  0  0  0  0  0  0  0  0
  139.4521   79.1122  220.6611 H   0  0  0  0  0  0  0  0  0  0  0  0
  140.9218   77.6207  218.5275 H   0  0  0  0  0  0  0  0  0  0  0  0
  141.4689   79.0545  219.4227 H   0  0  0  0  0  0  0  0  0  0  0  0
  142.0072   76.1622  219.9584 H   0  0  0  0  0  0  0  0  0  0  0  0
  142.9177   77.5431  220.5315 H   0  0  0  0  0  0  0  0  0  0  0  0
  141.3683   76.2706  222.3905 H   0  0  0  0  0  0  0  0  0  0  0  0
  139.5612   78.6680  223.6970 H   0  0  0  0  0  0  0  0  0  0  0  0
  143.1383   80.9474  223.2702 H   0  0  0  0  0  0  0  0  0  0  0  0
  143.2970   78.8800  221.7220 H   0  0  0  0  0  0  0  0  0  0  0  0
  138.7346   69.8766  222.1232 H   0  0  0  0  0  0  0  0  0  0  0  0
  139.1302   68.2470  223.9377 H   0  0  0  0  0  0  0  0  0  0  0  0
  139.9155   67.8044  226.1086 H   0  0  0  0  0  0  0  0  0  0  0  0
  141.5381   71.0370  228.4634 H   0  0  0  0  0  0  0  0  0  0  0  0
  141.1177   72.6254  226.6128 H   0  0  0  0  0  0  0  0  0  0  0  0
  1  2  2  0
  2  3  1  0
  3  4  1  0
  4  5  1  0
  5  6  2  0
  5  7  1  0
  7  8  1  0
  8  9  1  0
  9 10  1  0
 10 11  1  0
 11 12  1  0
 12 13  2  0
 13 14  1  0
 14 15  2  0
 15 16  1  0
  2 17  1  0
 17 18  2  0
 18 19  1  0
 19 20  2  0
 20 21  1  0
 21 22  2  0
 22 23  1  0
 22 24  1  0
 24 25  2  0
 25 26  1  0
 26 27  2  0
 11  7  1  0
 16 12  1  0
 27 17  1  0
 26 20  1  0
  3 28  1  0
  4 29  1  0
  4 30  1  0
  8 31  1  0
  8 32  1  0
  9 33  1  0
  9 34  1  0
 10 35  1  0
 10 36  1  0
 11 37  1  1
 13 38  1  0
 15 39  1  0
 16 40  1  0
 18 41  1  0
 19 42  1  0
 21 43  1  0
 24 44  1  0
 25 45  1  0
M  END
>  <smiles>  (27) 
O=C(NCC(=O)N1CCC[C@H]1c1cnc[nH]1)c1ccc2cc(Cl)ccc2n1

>  <score_type>  (27) 
oracle

>  <origin>  (27) 
autodockgpu

>  <m_score__min__energy>  (27) 
-8.2200000000000006

>  <m_primary>  (27) 
energy

>  <rmsd>  (27) 
1.9861739787803425

>  <m_score__min__rmsd>  (27) 
1.9861739787803425

>  <meeko>  (27) 
{"free_energy": -8.01, "intermolecular_energy": -9.51, "internal_energy": -1.28, "cluster_size": 27, "cluster_id": 1, "rank_in_cluster": 11}

>  <energy>  (27) 
-7.24

>  <cluster_rmsd>  (27) 
1.66

>  <cluster>  (27) 
1

$$$$

     RDKit          3D

 45 48  0  0  0  0  0  0  0  0999 V2000
  141.0090   72.5010  220.8750 O   0  0  0  0  0  0  0  0  0  0  0  0
  140.3550   72.7950  221.9250 C   0  0  0  0  0  0  0  0  0  0  0  0
  139.6640   74.0490  221.9830 N   0  0  0  0  0  0  0  0  0  0  0  0
  139.7580   74.9130  220.8220 C   0  0  0  0  0  0  0  0  0  0  0  0
  140.9590   75.7810  220.9300 C   0  0  0  0  0  0  0  0  0  0  0  0
  141.0950   76.6690  221.8120 O   0  0  0  0  0  0  0  0  0  0  0  0
  142.0180   75.6130  219.9940 N   0  0  0  0  0  0  0  0  0  0  0  0
  143.0730   76.5550  219.6670 C   0  0  0  0  0  0  0  0  0  0  0  0
  143.1690   76.3920  218.1650 C   0  0  0  0  0  0  0  0  0  0  0  0
  142.4170   75.1150  217.8130 C   0  0  0  0  0  0  0  0  0  0  0  0
  142.2640   74.4310  219.1550 C   0  0  1  0  0  0  0  0  0  0  0  0
  143.5400   73.7900  219.5030 C   0  0  0  0  0  0  0  0  0  0  0  0
  144.7320   73.7110  218.8150 C   0  0  0  0  0  0  0  0  0  0  0  0
  145.6370   73.0180  219.5290 N   0  0  0  0  0  0  0  0  0  0  0  0
  145.0210   72.6490  220.6850 C   0  0  0  0  0  0  0  0  0  0  0  0
  143.7510   73.1250  220.6530 N   0  0  0  0  0  0  0  0  0  0  0  0
  140.2950   71.8810  223.0710 C   0  0  0  0  0  0  0  0  0  0  0  0
  139.8140   70.6100  222.8770 C   0  0  0  0  0  0  0  0  0  0  0  0
  139.7130   69.6720  223.8780 C   0  0  0  0  0  0  0  0  0  0  0  0
  140.1250   70.0570  225.1410 C   0  0  0  0  0  0  0  0  0  0  0  0
  140.0270   69.1300  226.1420 C   0  0  0  0  0  0  0  0  0  0  0  0
  140.4430   69.5190  227.4160 C   0  0  0  0  0  0  0  0  0  0  0  0
  140.3330   68.3550  228.7280 Cl  0  0  0  0  0  0  0  0  0  0  0  0
  140.9270   70.7970  227.6180 C   0  0  0  0  0  0  0  0  0  0  0  0
  141.0110   71.7080  226.5820 C   0  0  0  0  0  0  0  0  0  0  0  0
  140.6010   71.3340  225.3100 C   0  0  0  0  0  0  0  0  0  0  0  0
  140.6840   72.2230  224.3010 N   0  0  0  0  0  0  0  0  0  0  0  0
  139.1150   74.3170  222.8420 H   0  0  0  0  0  0  0  0  0  0  0  0
  139.8347   74.2963  219.9144 H   0  0  0  0  0  0  0  0  0  0  0  0
  138.8594   75.5452  220.7689 H   0  0  0  0  0  0  0  0  0  0  0  0
  142.7936   77.5826  219.9425 H   0  0  0  0  0  0  0  0  0  0  0  0
  144.0182   76.3720  220.1991 H   0  0  0  0  0  0  0  0  0  0  0  0
  142.7087   77.2541  217.6602 H   0  0  0  0  0  0  0  0  0  0  0  0
  144.2184   76.3349  217.8400 H   0  0  0  0  0  0  0  0  0  0  0  0
  141.4359   75.3427  217.3709 H   0  0  0  0  0  0  0  0  0  0  0  0
  142.9375   74.4962  217.0672 H   0  0  0  0  0  0  0  0  0  0  0  0
  141.4965   73.6466  219.2306 H   0  0  0  0  0  0  0  0  0  0  0  0
  144.9165   74.1516  217.8241 H   0  0  0  0  0  0  0  0  0  0  0  0
  145.4732   72.0672  221.5017 H   0  0  0  0  0  0  0  0  0  0  0  0
  143.0520   72.9770  221.4370 H   0  0  0  0  0  0  0  0  0  0  0  0
  139.4913   70.3258  221.8645 H   0  0  0  0  0  0  0  0  0  0  0  0
  139.3226   68.6623  223.6831 H   0  0  0  0  0  0  0  0  0  0  0  0
  139.6364   68.1196  225.9507 H   0  0  0  0  0  0  0  0  0  0  0  0
  141.2526   71.0961  228.6252 H   0  0  0  0  0  0  0  0  0  0  0  0
  141.3995   72.7209  226.7641 H   0  0  0  0  0  0  0  0  0  0  0  0
  1  2  2  0
  2  3  1  0
  3  4  1  0
  4  5  1  0
  5  6  2  0
  5  7  1  0
  7  8  1  0
  8  9  1  0
  9 10  1  0
 10 11  1  0
 11 12  1  0
 12 13  2  0
 13 14  1  0
 14 15  2  0
 15 16  1  0
  2 17  1  0
 17 18  2  0
 18 19  1  0
 19 20  2  0
 20 21  1  0
 21 22  2  0
 22 23  1  0
 22 24  1  0
 24 25  2  0
 25 26  1  0
 26 27  2  0
 11  7  1  0
 16 12  1  0
 27 17  1  0
 26 20  1  0
  3 28  1  0
  4 29  1  0
  4 30  1  0
  8 31  1  0
  8 32  1  0
  9 33  1  0
  9 34  1  0
 10 35  1  0
 10 36  1  0
 11 37  1  6
 13 38  1  0
 15 39  1  0
 16 40  1  0
 18 41  1  0
 19 42  1  0
 21 43  1  0
 24 44  1  0
 25 45  1  0
M  END
>  <smiles>  (28) 
O=C(NCC(=O)N1CCC[C@H]1c1cnc[nH]1)c1ccc2cc(Cl)ccc2n1

>  <score_type>  (28) 
oracle

>  <origin>  (28) 
autodockgpu

>  <m_score__min__energy>  (28) 
-8.2200000000000006

>  <m_primary>  (28) 
energy

>  <rmsd>  (28) 
3.2574411283750218

>  <m_score__min__rmsd>  (28) 
3.2574411283750218

>  <meeko>  (28) 
{"free_energy": -7.23, "intermolecular_energy": -8.72, "internal_energy": -2.04, "cluster_size": 13, "cluster_id": 2, "rank_in_cluster": 4}

>  <energy>  (28) 
-7.58

>  <cluster_rmsd>  (28) 
0.0

>  <cluster>  (28) 
2

$$$$

     RDKit          3D

 45 48  0  0  0  0  0  0  0  0999 V2000
  140.3330   72.3380  220.7400 O   0  0  0  0  0  0  0  0  0  0  0  0
  140.0740   72.7510  221.9140 C   0  0  0  0  0  0  0  0  0  0  0  0
  139.7520   74.1340  222.1080 N   0  0  0  0  0  0  0  0  0  0  0  0
  139.7420   74.9840  220.9330 C   0  0  0  0  0  0  0  0  0  0  0  0
  140.8880   75.9290  220.9790 C   0  0  0  0  0  0  0  0  0  0  0  0
  140.9440   76.9130  221.7630 O   0  0  0  0  0  0  0  0  0  0  0  0
  141.9870   75.7260  220.0970 N   0  0  0  0  0  0  0  0  0  0  0  0
  143.0350   76.6680  219.7500 C   0  0  0  0  0  0  0  0  0  0  0  0
  143.1940   76.4120  218.2670 C   0  0  0  0  0  0  0  0  0  0  0  0
  142.4810   75.0990  217.9690 C   0  0  0  0  0  0  0  0  0  0  0  0
  142.2880   74.4980  219.3450 C   0  0  1  0  0  0  0  0  0  0  0  0
  143.5620   73.9090  219.7820 C   0  0  0  0  0  0  0  0  0  0  0  0
  143.8720   73.1300  220.8760 C   0  0  0  0  0  0  0  0  0  0  0  0
  145.1800   72.8160  220.8710 N   0  0  0  0  0  0  0  0  0  0  0  0
  145.7140   73.4000  219.7630 C   0  0  0  0  0  0  0  0  0  0  0  0
  144.7200   74.0580  219.1150 N   0  0  0  0  0  0  0  0  0  0  0  0
  140.1000   71.8450  223.0680 C   0  0  0  0  0  0  0  0  0  0  0  0
  139.6010   70.5750  222.9200 C   0  0  0  0  0  0  0  0  0  0  0  0
  139.5750   69.6440  223.9330 C   0  0  0  0  0  0  0  0  0  0  0  0
  140.0840   70.0360  225.1570 C   0  0  0  0  0  0  0  0  0  0  0  0
  140.0610   69.1150  226.1690 C   0  0  0  0  0  0  0  0  0  0  0  0
  140.5760   69.5110  227.4050 C   0  0  0  0  0  0  0  0  0  0  0  0
  140.5640   68.3560  228.7290 Cl  0  0  0  0  0  0  0  0  0  0  0  0
  141.0790   70.7880  227.5600 C   0  0  0  0  0  0  0  0  0  0  0  0
  141.0860   71.6920  226.5140 C   0  0  0  0  0  0  0  0  0  0  0  0
  140.5770   71.3110  225.2800 C   0  0  0  0  0  0  0  0  0  0  0  0
  140.5850   72.1930  224.2620 N   0  0  0  0  0  0  0  0  0  0  0  0
  139.5350   74.5020  223.0710 H   0  0  0  0  0  0  0  0  0  0  0  0
  139.8210   74.3594  220.0310 H   0  0  0  0  0  0  0  0  0  0  0  0
  138.8030   75.5564  220.9096 H   0  0  0  0  0  0  0  0  0  0  0  0
  142.7247   77.7047  219.9476 H   0  0  0  0  0  0  0  0  0  0  0  0
  143.9618   76.5400  220.3285 H   0  0  0  0  0  0  0  0  0  0  0  0
  142.7379   77.2302  217.6903 H   0  0  0  0  0  0  0  0  0  0  0  0
  144.2564   76.3570  217.9872 H   0  0  0  0  0  0  0  0  0  0  0  0
  141.5140   75.2770  217.4759 H   0  0  0  0  0  0  0  0  0  0  0  0
  143.0425   74.4457  217.2849 H   0  0  0  0  0  0  0  0  0  0  0  0
  141.5333   73.7036  219.4410 H   0  0  0  0  0  0  0  0  0  0  0  0
  143.1522   72.8105  221.6440 H   0  0  0  0  0  0  0  0  0  0  0  0
  146.7667   73.3475  219.4484 H   0  0  0  0  0  0  0  0  0  0  0  0
  144.8690   74.6000  218.2160 H   0  0  0  0  0  0  0  0  0  0  0  0
  139.1998   70.2854  221.9376 H   0  0  0  0  0  0  0  0  0  0  0  0
  139.1679   68.6342  223.7760 H   0  0  0  0  0  0  0  0  0  0  0  0
  139.6538   68.1048  226.0151 H   0  0  0  0  0  0  0  0  0  0  0  0
  141.4828   71.0923  228.5369 H   0  0  0  0  0  0  0  0  0  0  0  0
  141.4914   72.7043  226.6583 H   0  0  0  0  0  0  0  0  0  0  0  0
  1  2  2  0
  2  3  1  0
  3  4  1  0
  4  5  1  0
  5  6  2  0
  5  7  1  0
  7  8  1  0
  8  9  1  0
  9 10  1  0
 10 11  1  0
 11 12  1  0
 12 13  2  0
 13 14  1  0
 14 15  2  0
 15 16  1  0
  2 17  1  0
 17 18  2  0
 18 19  1  0
 19 20  2  0
 20 21  1  0
 21 22  2  0
 22 23  1  0
 22 24  1  0
 24 25  2  0
 25 26  1  0
 26 27  2  0
 11  7  1  0
 16 12  1  0
 27 17  1  0
 26 20  1  0
  3 28  1  0
  4 29  1  0
  4 30  1  0
  8 31  1  0
  8 32  1  0
  9 33  1  0
  9 34  1  0
 10 35  1  0
 10 36  1  0
 11 37  1  6
 13 38  1  0
 15 39  1  0
 16 40  1  0
 18 41  1  0
 19 42  1  0
 21 43  1  0
 24 44  1  0
 25 45  1  0
M  END
>  <smiles>  (29) 
O=C(NCC(=O)N1CCC[C@H]1c1cnc[nH]1)c1ccc2cc(Cl)ccc2n1

>  <score_type>  (29) 
oracle

>  <origin>  (29) 
autodockgpu

>  <m_score__min__energy>  (29) 
-8.2200000000000006

>  <m_primary>  (29) 
energy

>  <rmsd>  (29) 
3.283517421065661

>  <m_score__min__rmsd>  (29) 
3.283517421065661

>  <meeko>  (29) 
{"free_energy": -7.58, "intermolecular_energy": -9.07, "internal_energy": -1.46, "cluster_size": 13, "cluster_id": 2, "rank_in_cluster": 1}

>  <energy>  (29) 
-7.53

>  <cluster_rmsd>  (29) 
0.4

>  <cluster>  (29) 
2

$$$$

     RDKit          3D

 45 48  0  0  0  0  0  0  0  0999 V2000
  140.8400   72.6530  221.0250 O   0  0  0  0  0  0  0  0  0  0  0  0
  140.1930   72.8960  222.0920 C   0  0  0  0  0  0  0  0  0  0  0  0
  139.4600   74.1230  222.1950 N   0  0  0  0  0  0  0  0  0  0  0  0
  139.5060   75.0210  221.0570 C   0  0  0  0  0  0  0  0  0  0  0  0
  140.5340   76.0720  221.2790 C   0  0  0  0  0  0  0  0  0  0  0  0
  141.7670   75.8800  221.1190 O   0  0  0  0  0  0  0  0  0  0  0  0
  140.1150   77.3680  221.6950 N   0  0  0  0  0  0  0  0  0  0  0  0
  139.1370   77.7010  222.7150 C   0  0  0  0  0  0  0  0  0  0  0  0
  138.4070   78.8580  222.0670 C   0  0  0  0  0  0  0  0  0  0  0  0
  139.2640   79.3170  220.8940 C   0  0  0  0  0  0  0  0  0  0  0  0
  140.5970   78.6530  221.1680 C   0  0  1  0  0  0  0  0  0  0  0  0
  141.2990   79.4210  222.2070 C   0  0  0  0  0  0  0  0  0  0  0  0
  142.2090   79.0290  223.1640 C   0  0  0  0  0  0  0  0  0  0  0  0
  142.5910   80.0840  223.9060 N   0  0  0  0  0  0  0  0  0  0  0  0
  141.9200   81.1640  223.4190 C   0  0  0  0  0  0  0  0  0  0  0  0
  141.1420   80.7440  222.3900 N   0  0  0  0  0  0  0  0  0  0  0  0
  140.1820   71.9510  223.2140 C   0  0  0  0  0  0  0  0  0  0  0  0
  139.6560   70.6980  223.0150 C   0  0  0  0  0  0  0  0  0  0  0  0
  139.5950   69.7340  223.9950 C   0  0  0  0  0  0  0  0  0  0  0  0
  140.0960   70.0710  225.2380 C   0  0  0  0  0  0  0  0  0  0  0  0
  140.0390   69.1170  226.2170 C   0  0  0  0  0  0  0  0  0  0  0  0
  140.5460   69.4570  227.4720 C   0  0  0  0  0  0  0  0  0  0  0  0
  140.4890   68.2580  228.7550 Cl  0  0  0  0  0  0  0  0  0  0  0  0
  141.0760   70.7160  227.6780 C   0  0  0  0  0  0  0  0  0  0  0  0
  141.1180   71.6550  226.6650 C   0  0  0  0  0  0  0  0  0  0  0  0
  140.6170   71.3290  225.4120 C   0  0  0  0  0  0  0  0  0  0  0  0
  140.6590   72.2450  224.4250 N   0  0  0  0  0  0  0  0  0  0  0  0
  138.9160   74.3490  223.0680 H   0  0  0  0  0  0  0  0  0  0  0  0
  139.7592   74.4493  220.1520 H   0  0  0  0  0  0  0  0  0  0  0  0
  138.5226   75.4984  220.9341 H   0  0  0  0  0  0  0  0  0  0  0  0
  138.4588   76.8577  222.9119 H   0  0  0  0  0  0  0  0  0  0  0  0
  139.5750   77.9397  223.6954 H   0  0  0  0  0  0  0  0  0  0  0  0
  137.4197   78.5304  221.7094 H   0  0  0  0  0  0  0  0  0  0  0  0
  138.2486   79.6766  222.7845 H   0  0  0  0  0  0  0  0  0  0  0  0
  138.8411   78.9757  219.9376 H   0  0  0  0  0  0  0  0  0  0  0  0
  139.3335   80.4115  220.8091 H   0  0  0  0  0  0  0  0  0  0  0  0
  141.2958   78.5701  220.3225 H   0  0  0  0  0  0  0  0  0  0  0  0
  142.5717   77.9997  223.3018 H   0  0  0  0  0  0  0  0  0  0  0  0
  141.9954   82.1954  223.7939 H   0  0  0  0  0  0  0  0  0  0  0  0
  140.5130   81.3910  221.8320 H   0  0  0  0  0  0  0  0  0  0  0  0
  139.2621   70.4517  222.0179 H   0  0  0  0  0  0  0  0  0  0  0  0
  139.1668   68.7401  223.7979 H   0  0  0  0  0  0  0  0  0  0  0  0
  139.6110   68.1225  226.0228 H   0  0  0  0  0  0  0  0  0  0  0  0
  141.4733   70.9768  228.6701 H   0  0  0  0  0  0  0  0  0  0  0  0
  141.5446   72.6519  226.8498 H   0  0  0  0  0  0  0  0  0  0  0  0
  1  2  2  0
  2  3  1  0
  3  4  1  0
  4  5  1  0
  5  6  2  0
  5  7  1  0
  7  8  1  0
  8  9  1  0
  9 10  1  0
 10 11  1  0
 11 12  1  0
 12 13  2  0
 13 14  1  0
 14 15  2  0
 15 16  1  0
  2 17  1  0
 17 18  2  0
 18 19  1  0
 19 20  2  0
 20 21  1  0
 21 22  2  0
 22 23  1  0
 22 24  1  0
 24 25  2  0
 25 26  1  0
 26 27  2  0
 11  7  1  0
 16 12  1  0
 27 17  1  0
 26 20  1  0
  3 28  1  0
  4 29  1  0
  4 30  1  0
  8 31  1  0
  8 32  1  0
  9 33  1  0
  9 34  1  0
 10 35  1  0
 10 36  1  0
 11 37  1  6
 13 38  1  0
 15 39  1  0
 16 40  1  0
 18 41  1  0
 19 42  1  0
 21 43  1  0
 24 44  1  0
 25 45  1  0
M  END
>  <smiles>  (30) 
O=C(NCC(=O)N1CCC[C@H]1c1cnc[nH]1)c1ccc2cc(Cl)ccc2n1

>  <score_type>  (30) 
oracle

>  <origin>  (30) 
autodockgpu

>  <m_score__min__energy>  (30) 
-8.2200000000000006

>  <m_primary>  (30) 
energy

>  <rmsd>  (30) 
2.8060388545306063

>  <m_score__min__rmsd>  (30) 
2.8060388545306063

>  <meeko>  (30) 
{"free_energy": -7.57, "intermolecular_energy": -9.06, "internal_energy": -1.11, "cluster_size": 27, "cluster_id": 1, "rank_in_cluster": 17}

>  <energy>  (30) 
-7.24

>  <cluster_rmsd>  (30) 
1.47

>  <cluster>  (30) 
2

$$$$

     RDKit          3D

 45 48  0  0  0  0  0  0  0  0999 V2000
  138.6420   70.9440  220.8380 O   0  0  0  0  0  0  0  0  0  0  0  0
  138.6570   71.6470  221.8980 C   0  0  0  0  0  0  0  0  0  0  0  0
  138.0850   72.9610  221.8670 N   0  0  0  0  0  0  0  0  0  0  0  0
  137.5180   73.4080  220.6100 C   0  0  0  0  0  0  0  0  0  0  0  0
  138.2820   74.5740  220.0930 C   0  0  0  0  0  0  0  0  0  0  0  0
  137.8340   75.3660  219.2250 O   0  0  0  0  0  0  0  0  0  0  0  0
  139.5910   74.8190  220.5980 N   0  0  0  0  0  0  0  0  0  0  0  0
  139.9790   75.0860  221.9710 C   0  0  0  0  0  0  0  0  0  0  0  0
  141.0200   76.1690  221.7860 C   0  0  0  0  0  0  0  0  0  0  0  0
  141.3970   76.1680  220.3100 C   0  0  0  0  0  0  0  0  0  0  0  0
  140.8370   74.8510  219.8170 C   0  0  1  0  0  0  0  0  0  0  0  0
  141.7470   73.7720  220.2290 C   0  0  0  0  0  0  0  0  0  0  0  0
  143.1010   73.7760  220.4840 C   0  0  0  0  0  0  0  0  0  0  0  0
  143.5140   72.5460  220.8350 N   0  0  0  0  0  0  0  0  0  0  0  0
  142.4150   71.7430  220.8050 C   0  0  0  0  0  0  0  0  0  0  0  0
  141.3530   72.5020  220.4360 N   0  0  0  0  0  0  0  0  0  0  0  0
  139.2460   71.1420  223.1430 C   0  0  0  0  0  0  0  0  0  0  0  0
  140.2380   71.8750  223.7470 C   0  0  0  0  0  0  0  0  0  0  0  0
  140.8590   71.4970  224.9150 C   0  0  0  0  0  0  0  0  0  0  0  0
  140.4450   70.3100  225.4900 C   0  0  0  0  0  0  0  0  0  0  0  0
  141.0590   69.9290  226.6510 C   0  0  0  0  0  0  0  0  0  0  0  0
  140.6400   68.7310  227.2330 C   0  0  0  0  0  0  0  0  0  0  0  0
  141.4040   68.2070  228.7250 Cl  0  0  0  0  0  0  0  0  0  0  0  0
  139.6420   67.9890  226.6290 C   0  0  0  0  0  0  0  0  0  0  0  0
  139.0440   68.4060  225.4540 C   0  0  0  0  0  0  0  0  0  0  0  0
  139.4520   69.5960  224.8670 C   0  0  0  0  0  0  0  0  0  0  0  0
  138.8680   70.0010  223.7230 N   0  0  0  0  0  0  0  0  0  0  0  0
  138.0850   73.5640  222.7310 H   0  0  0  0  0  0  0  0  0  0  0  0
  137.5644   72.5885  219.8777 H   0  0  0  0  0  0  0  0  0  0  0  0
  136.4714   73.7053  220.7717 H   0  0  0  0  0  0  0  0  0  0  0  0
  139.1269   75.4454  222.5666 H   0  0  0  0  0  0  0  0  0  0  0  0
  140.3439   74.2015  222.5137 H   0  0  0  0  0  0  0  0  0  0  0  0
  140.6040   77.1469  222.0701 H   0  0  0  0  0  0  0  0  0  0  0  0
  141.9003   75.9832  222.4188 H   0  0  0  0  0  0  0  0  0  0  0  0
  140.9351   77.0161  219.7833 H   0  0  0  0  0  0  0  0  0  0  0  0
  142.4787   76.2707  220.1386 H   0  0  0  0  0  0  0  0  0  0  0  0
  140.7016   74.7416  218.7309 H   0  0  0  0  0  0  0  0  0  0  0  0
  143.7515   74.6600  220.4107 H   0  0  0  0  0  0  0  0  0  0  0  0
  142.3922   70.6684  221.0387 H   0  0  0  0  0  0  0  0  0  0  0  0
  140.3690   72.1200  220.3350 H   0  0  0  0  0  0  0  0  0  0  0  0
  140.5531   72.8153  223.2711 H   0  0  0  0  0  0  0  0  0  0  0  0
  141.6493   72.1116  225.3708 H   0  0  0  0  0  0  0  0  0  0  0  0
  141.8506   70.5413  227.1077 H   0  0  0  0  0  0  0  0  0  0  0  0
  139.3166   67.0464  227.0933 H   0  0  0  0  0  0  0  0  0  0  0  0
  138.2523   67.8004  224.9887 H   0  0  0  0  0  0  0  0  0  0  0  0
  1  2  2  0
  2  3  1  0
  3  4  1  0
  4  5  1  0
  5  6  2  0
  5  7  1  0
  7  8  1  0
  8  9  1  0
  9 10  1  0
 10 11  1  0
 11 12  1  0
 12 13  2  0
 13 14  1  0
 14 15  2  0
 15 16  1  0
  2 17  1  0
 17 18  2  0
 18 19  1  0
 19 20  2  0
 20 21  1  0
 21 22  2  0
 22 23  1  0
 22 24  1  0
 24 25  2  0
 25 26  1  0
 26 27  2  0
 11  7  1  0
 16 12  1  0
 27 17  1  0
 26 20  1  0
  3 28  1  0
  4 29  1  0
  4 30  1  0
  8 31  1  0
  8 32  1  0
  9 33  1  0
  9 34  1  0
 10 35  1  0
 10 36  1  0
 11 37  1  6
 13 38  1  0
 15 39  1  0
 16 40  1  0
 18 41  1  0
 19 42  1  0
 21 43  1  0
 24 44  1  0
 25 45  1  0
M  END
>  <smiles>  (31) 
O=C(NCC(=O)N1CCC[C@H]1c1cnc[nH]1)c1ccc2cc(Cl)ccc2n1

>  <score_type>  (31) 
oracle

>  <origin>  (31) 
autodockgpu

>  <m_score__min__energy>  (31) 
-8.2200000000000006

>  <m_primary>  (31) 
energy

>  <rmsd>  (31) 
3.7035175495294967

>  <m_score__min__rmsd>  (31) 
3.7035175495294967

>  <meeko>  (31) 
{"free_energy": -6.02, "intermolecular_energy": -7.52, "internal_energy": -2.42, "cluster_size": 13, "cluster_id": 2, "rank_in_cluster": 13}

>  <energy>  (31) 
-7.23

>  <cluster_rmsd>  (31) 
0.97

>  <cluster>  (31) 
2

$$$$

     RDKit          3D

 45 48  0  0  0  0  0  0  0  0999 V2000
  139.2480   75.2240  221.8540 O   0  0  0  0  0  0  0  0  0  0  0  0
  140.5100   75.3670  221.7990 C   0  0  0  0  0  0  0  0  0  0  0  0
  141.0880   76.6020  222.2410 N   0  0  0  0  0  0  0  0  0  0  0  0
  140.1800   77.6220  222.7290 C   0  0  0  0  0  0  0  0  0  0  0  0
  140.7520   78.9720  222.4820 C   0  0  0  0  0  0  0  0  0  0  0  0
  140.8720   79.8470  223.3780 O   0  0  0  0  0  0  0  0  0  0  0  0
  141.1920   79.3050  221.1700 N   0  0  0  0  0  0  0  0  0  0  0  0
  142.1790   80.2990  220.7890 C   0  0  0  0  0  0  0  0  0  0  0  0
  141.5380   80.9060  219.5590 C   0  0  0  0  0  0  0  0  0  0  0  0
  140.4180   79.9640  219.1370 C   0  0  0  0  0  0  0  0  0  0  0  0
  140.7270   78.7010  219.9120 C   0  0  1  0  0  0  0  0  0  0  0  0
  141.8190   77.9880  219.2320 C   0  0  0  0  0  0  0  0  0  0  0  0
  142.3010   78.0850  217.9450 C   0  0  0  0  0  0  0  0  0  0  0  0
  143.3230   77.2300  217.7640 N   0  0  0  0  0  0  0  0  0  0  0  0
  143.4980   76.5780  218.9460 C   0  0  0  0  0  0  0  0  0  0  0  0
  142.5790   77.0500  219.8240 N   0  0  0  0  0  0  0  0  0  0  0  0
  141.3810   74.3000  221.2950 C   0  0  0  0  0  0  0  0  0  0  0  0
  140.8630   73.0350  221.1590 C   0  0  0  0  0  0  0  0  0  0  0  0
  141.5880   71.9610  220.6970 C   0  0  0  0  0  0  0  0  0  0  0  0
  142.9090   72.1950  220.3600 C   0  0  0  0  0  0  0  0  0  0  0  0
  143.6360   71.1310  219.9000 C   0  0  0  0  0  0  0  0  0  0  0  0
  144.9680   71.3670  219.5580 C   0  0  0  0  0  0  0  0  0  0  0  0
  145.9340   70.0250  218.9630 Cl  0  0  0  0  0  0  0  0  0  0  0  0
  145.4950   72.6370  219.6930 C   0  0  0  0  0  0  0  0  0  0  0  0
  144.7300   73.6890  220.1620 C   0  0  0  0  0  0  0  0  0  0  0  0
  143.4030   73.4670  220.5050 C   0  0  0  0  0  0  0  0  0  0  0  0
  142.6590   74.4930  220.9610 N   0  0  0  0  0  0  0  0  0  0  0  0
  142.1310   76.7470  222.2060 H   0  0  0  0  0  0  0  0  0  0  0  0
  139.2168   77.5331  222.2053 H   0  0  0  0  0  0  0  0  0  0  0  0
  140.0307   77.4853  223.8102 H   0  0  0  0  0  0  0  0  0  0  0  0
  142.3194   81.0497  221.5807 H   0  0  0  0  0  0  0  0  0  0  0  0
  143.1843   79.8883  220.6141 H   0  0  0  0  0  0  0  0  0  0  0  0
  141.1286   81.8990  219.7962 H   0  0  0  0  0  0  0  0  0  0  0  0
  142.2740   81.0315  218.7512 H   0  0  0  0  0  0  0  0  0  0  0  0
  139.4342   80.3689  219.4165 H   0  0  0  0  0  0  0  0  0  0  0  0
  140.3710   79.8053  218.0495 H   0  0  0  0  0  0  0  0  0  0  0  0
  139.9096   77.9737  220.0259 H   0  0  0  0  0  0  0  0  0  0  0  0
  141.9062   78.7647  217.1755 H   0  0  0  0  0  0  0  0  0  0  0  0
  144.2522   75.8044  219.1525 H   0  0  0  0  0  0  0  0  0  0  0  0
  142.4980   76.7070  220.8250 H   0  0  0  0  0  0  0  0  0  0  0  0
  139.8107   72.8718  221.4346 H   0  0  0  0  0  0  0  0  0  0  0  0
  141.1379   70.9620  220.6000 H   0  0  0  0  0  0  0  0  0  0  0  0
  143.1887   70.1307  219.8038 H   0  0  0  0  0  0  0  0  0  0  0  0
  146.5460   72.8151  219.4215 H   0  0  0  0  0  0  0  0  0  0  0  0
  145.1687   74.6927  220.2625 H   0  0  0  0  0  0  0  0  0  0  0  0
  1  2  2  0
  2  3  1  0
  3  4  1  0
  4  5  1  0
  5  6  2  0
  5  7  1  0
  7  8  1  0
  8  9  1  0
  9 10  1  0
 10 11  1  0
 11 12  1  0
 12 13  2  0
 13 14  1  0
 14 15  2  0
 15 16  1  0
  2 17  1  0
 17 18  2  0
 18 19  1  0
 19 20  2  0
 20 21  1  0
 21 22  2  0
 22 23  1  0
 22 24  1  0
 24 25  2  0
 25 26  1  0
 26 27  2  0
 11  7  1  0
 16 12  1  0
 27 17  1  0
 26 20  1  0
  3 28  1  0
  4 29  1  0
  4 30  1  0
  8 31  1  0
  8 32  1  0
  9 33  1  0
  9 34  1  0
 10 35  1  0
 10 36  1  0
 11 37  1  1
 13 38  1  0
 15 39  1  0
 16 40  1  0
 18 41  1  0
 19 42  1  0
 21 43  1  0
 24 44  1  0
 25 45  1  0
M  END
>  <smiles>  (32) 
O=C(NCC(=O)N1CCC[C@H]1c1cnc[nH]1)c1ccc2cc(Cl)ccc2n1

>  <score_type>  (32) 
oracle

>  <origin>  (32) 
autodockgpu

>  <m_score__min__energy>  (32) 
-8.2200000000000006

>  <m_primary>  (32) 
energy

>  <rmsd>  (32) 
5.8648336007329895

>  <m_score__min__rmsd>  (32) 
5.8648336007329895

>  <meeko>  (32) 
{"free_energy": -6.0, "intermolecular_energy": -7.5, "internal_energy": -2.45, "cluster_size": 1, "cluster_id": 9, "rank_in_cluster": 1}

>  <energy>  (32) 
-7.22

>  <cluster_rmsd>  (32) 
1.46

>  <cluster>  (32) 
2

$$$$

     RDKit          3D

 45 48  0  0  0  0  0  0  0  0999 V2000
  140.4960   72.7420  221.0990 O   0  0  0  0  0  0  0  0  0  0  0  0
  139.6830   72.7530  222.0760 C   0  0  0  0  0  0  0  0  0  0  0  0
  138.6120   73.7060  222.0780 N   0  0  0  0  0  0  0  0  0  0  0  0
  138.5270   74.6090  220.9470 C   0  0  0  0  0  0  0  0  0  0  0  0
  138.6950   76.0140  221.4040 C   0  0  0  0  0  0  0  0  0  0  0  0
  137.7370   76.7440  221.7660 O   0  0  0  0  0  0  0  0  0  0  0  0
  140.0030   76.5760  221.4380 N   0  0  0  0  0  0  0  0  0  0  0  0
  140.7940   76.9170  222.6070 C   0  0  0  0  0  0  0  0  0  0  0  0
  141.4140   78.2300  222.1800 C   0  0  0  0  0  0  0  0  0  0  0  0
  141.2120   78.3430  220.6740 C   0  0  0  0  0  0  0  0  0  0  0  0
  140.8320   76.9320  220.2770 C   0  0  1  0  0  0  0  0  0  0  0  0
  142.0530   76.1140  220.2270 C   0  0  0  0  0  0  0  0  0  0  0  0
  143.3030   76.3820  219.7140 C   0  0  0  0  0  0  0  0  0  0  0  0
  144.1180   75.3270  219.8940 N   0  0  0  0  0  0  0  0  0  0  0  0
  143.3830   74.3730  220.5300 C   0  0  0  0  0  0  0  0  0  0  0  0
  142.1350   74.8660  220.7240 N   0  0  0  0  0  0  0  0  0  0  0  0
  139.8170   71.8140  223.1960 C   0  0  0  0  0  0  0  0  0  0  0  0
  139.3870   70.5210  223.0270 C   0  0  0  0  0  0  0  0  0  0  0  0
  139.4650   69.5590  224.0080 C   0  0  0  0  0  0  0  0  0  0  0  0
  140.0090   69.9420  225.2200 C   0  0  0  0  0  0  0  0  0  0  0  0
  140.0900   68.9900  226.1990 C   0  0  0  0  0  0  0  0  0  0  0  0
  140.6390   69.3760  227.4230 C   0  0  0  0  0  0  0  0  0  0  0  0
  140.7600   68.1820  228.7050 Cl  0  0  0  0  0  0  0  0  0  0  0  0
  141.0740   70.6770  227.5980 C   0  0  0  0  0  0  0  0  0  0  0  0
  140.9770   71.6120  226.5850 C   0  0  0  0  0  0  0  0  0  0  0  0
  140.4320   71.2400  225.3630 C   0  0  0  0  0  0  0  0  0  0  0  0
  140.3380   72.1530  224.3770 N   0  0  0  0  0  0  0  0  0  0  0  0
  137.9250   73.7360  222.8750 H   0  0  0  0  0  0  0  0  0  0  0  0
  139.3195   74.3637  220.2247 H   0  0  0  0  0  0  0  0  0  0  0  0
  137.5414   74.4996  220.4710 H   0  0  0  0  0  0  0  0  0  0  0  0
  140.1609   77.0425  223.4978 H   0  0  0  0  0  0  0  0  0  0  0  0
  141.5262   76.1475  222.8928 H   0  0  0  0  0  0  0  0  0  0  0  0
  140.9180   79.0674  222.6925 H   0  0  0  0  0  0  0  0  0  0  0  0
  142.4826   78.2645  222.4386 H   0  0  0  0  0  0  0  0  0  0  0  0
  140.4058   79.0521  220.4349 H   0  0  0  0  0  0  0  0  0  0  0  0
  142.0991   78.7195  220.1437 H   0  0  0  0  0  0  0  0  0  0  0  0
  140.3369   76.8043  219.3031 H   0  0  0  0  0  0  0  0  0  0  0  0
  143.5934   77.3244  219.2266 H   0  0  0  0  0  0  0  0  0  0  0  0
  143.7393   73.3774  220.8330 H   0  0  0  0  0  0  0  0  0  0  0  0
  141.3600   74.3220  221.2010 H   0  0  0  0  0  0  0  0  0  0  0  0
  138.9568   70.2388  222.0547 H   0  0  0  0  0  0  0  0  0  0  0  0
  139.1106   68.5320  223.8357 H   0  0  0  0  0  0  0  0  0  0  0  0
  139.7369   67.9622  226.0287 H   0  0  0  0  0  0  0  0  0  0  0  0
  141.5067   70.9741  228.5647 H   0  0  0  0  0  0  0  0  0  0  0  0
  141.3284   72.6420  226.7452 H   0  0  0  0  0  0  0  0  0  0  0  0
  1  2  2  0
  2  3  1  0
  3  4  1  0
  4  5  1  0
  5  6  2  0
  5  7  1  0
  7  8  1  0
  8  9  1  0
  9 10  1  0
 10 11  1  0
 11 12  1  0
 12 13  2  0
 13 14  1  0
 14 15  2  0
 15 16  1  0
  2 17  1  0
 17 18  2  0
 18 19  1  0
 19 20  2  0
 20 21  1  0
 21 22  2  0
 22 23  1  0
 22 24  1  0
 24 25  2  0
 25 26  1  0
 26 27  2  0
 11  7  1  0
 16 12  1  0
 27 17  1  0
 26 20  1  0
  3 28  1  0
  4 29  1  0
  4 30  1  0
  8 31  1  0
  8 32  1  0
  9 33  1  0
  9 34  1  0
 10 35  1  0
 10 36  1  0
 11 37  1  6
 13 38  1  0
 15 39  1  0
 16 40  1  0
 18 41  1  0
 19 42  1  0
 21 43  1  0
 24 44  1  0
 25 45  1  0
M  END
>  <smiles>  (33) 
O=C(NCC(=O)N1CCC[C@H]1c1cnc[nH]1)c1ccc2cc(Cl)ccc2n1

>  <score_type>  (33) 
oracle

>  <origin>  (33) 
autodockgpu

>  <m_score__min__energy>  (33) 
-8.2200000000000006

>  <m_primary>  (33) 
energy

>  <rmsd>  (33) 
2.93382480154973

>  <m_score__min__rmsd>  (33) 
2.93382480154973

>  <meeko>  (33) 
{"free_energy": -7.21, "intermolecular_energy": -8.71, "internal_energy": -2.12, "cluster_size": 13, "cluster_id": 2, "rank_in_cluster": 8}

>  <energy>  (33) 
-7.22

>  <cluster_rmsd>  (33) 
1.64

>  <cluster>  (33) 
2

$$$$

     RDKit          3D

 45 48  0  0  0  0  0  0  0  0999 V2000
  140.3260   72.3200  220.9710 O   0  0  0  0  0  0  0  0  0  0  0  0
  139.6860   72.5120  222.0520 C   0  0  0  0  0  0  0  0  0  0  0  0
  138.8050   73.6390  222.1470 N   0  0  0  0  0  0  0  0  0  0  0  0
  138.7000   74.4980  220.9830 C   0  0  0  0  0  0  0  0  0  0  0  0
  138.9350   75.9130  221.3720 C   0  0  0  0  0  0  0  0  0  0  0  0
  138.0460   76.6510  221.8700 O   0  0  0  0  0  0  0  0  0  0  0  0
  140.2280   76.4760  221.1770 N   0  0  0  0  0  0  0  0  0  0  0  0
  141.0470   77.1810  222.1470 C   0  0  0  0  0  0  0  0  0  0  0  0
  141.6180   78.3010  221.3040 C   0  0  0  0  0  0  0  0  0  0  0  0
  141.3660   77.9280  219.8490 C   0  0  0  0  0  0  0  0  0  0  0  0
  141.0100   76.4590  219.9320 C   0  0  1  0  0  0  0  0  0  0  0  0
  142.2500   75.6850  220.0970 C   0  0  0  0  0  0  0  0  0  0  0  0
  143.5480   75.9640  219.7290 C   0  0  0  0  0  0  0  0  0  0  0  0
  144.3620   74.9550  220.0860 N   0  0  0  0  0  0  0  0  0  0  0  0
  143.5790   74.0190  220.6890 C   0  0  0  0  0  0  0  0  0  0  0  0
  142.3020   74.4770  220.6870 N   0  0  0  0  0  0  0  0  0  0  0  0
  139.8320   71.6100  223.2000 C   0  0  0  0  0  0  0  0  0  0  0  0
  139.4350   70.3020  223.0640 C   0  0  0  0  0  0  0  0  0  0  0  0
  139.5260   69.3710  224.0730 C   0  0  0  0  0  0  0  0  0  0  0  0
  140.0490   69.8010  225.2780 C   0  0  0  0  0  0  0  0  0  0  0  0
  140.1420   68.8800  226.2850 C   0  0  0  0  0  0  0  0  0  0  0  0
  140.6690   69.3140  227.5030 C   0  0  0  0  0  0  0  0  0  0  0  0
  140.8050   68.1600  228.8200 Cl  0  0  0  0  0  0  0  0  0  0  0  0
  141.0700   70.6300  227.6450 C   0  0  0  0  0  0  0  0  0  0  0  0
  140.9610   71.5330  226.6040 C   0  0  0  0  0  0  0  0  0  0  0  0
  140.4380   71.1130  225.3890 C   0  0  0  0  0  0  0  0  0  0  0  0
  140.3330   71.9940  224.3760 N   0  0  0  0  0  0  0  0  0  0  0  0
  138.2640   73.8210  223.0320 H   0  0  0  0  0  0  0  0  0  0  0  0
  139.4509   74.1955  220.2383 H   0  0  0  0  0  0  0  0  0  0  0  0
  137.6910   74.4042  220.5551 H   0  0  0  0  0  0  0  0  0  0  0  0
  140.4398   77.5722  222.9767 H   0  0  0  0  0  0  0  0  0  0  0  0
  141.8083   76.5523  222.6320 H   0  0  0  0  0  0  0  0  0  0  0  0
  141.1159   79.2498  221.5443 H   0  0  0  0  0  0  0  0  0  0  0  0
  142.6928   78.4326  221.4976 H   0  0  0  0  0  0  0  0  0  0  0  0
  140.5348   78.5133  219.4289 H   0  0  0  0  0  0  0  0  0  0  0  0
  142.2265   78.1296  219.1941 H   0  0  0  0  0  0  0  0  0  0  0  0
  140.4877   76.0232  219.0676 H   0  0  0  0  0  0  0  0  0  0  0  0
  143.8723   76.8815  219.2162 H   0  0  0  0  0  0  0  0  0  0  0  0
  143.9214   73.0599  221.1048 H   0  0  0  0  0  0  0  0  0  0  0  0
  141.4870   73.9380  221.0990 H   0  0  0  0  0  0  0  0  0  0  0  0
  139.0220   69.9816  222.0961 H   0  0  0  0  0  0  0  0  0  0  0  0
  139.1974   68.3314  223.9273 H   0  0  0  0  0  0  0  0  0  0  0  0
  139.8149   67.8397  226.1411 H   0  0  0  0  0  0  0  0  0  0  0  0
  141.4846   70.9654  228.6071 H   0  0  0  0  0  0  0  0  0  0  0  0
  141.2860   72.5754  226.7375 H   0  0  0  0  0  0  0  0  0  0  0  0
  1  2  2  0
  2  3  1  0
  3  4  1  0
  4  5  1  0
  5  6  2  0
  5  7  1  0
  7  8  1  0
  8  9  1  0
  9 10  1  0
 10 11  1  0
 11 12  1  0
 12 13  2  0
 13 14  1  0
 14 15  2  0
 15 16  1  0
  2 17  1  0
 17 18  2  0
 18 19  1  0
 19 20  2  0
 20 21  1  0
 21 22  2  0
 22 23  1  0
 22 24  1  0
 24 25  2  0
 25 26  1  0
 26 27  2  0
 11  7  1  0
 16 12  1  0
 27 17  1  0
 26 20  1  0
  3 28  1  0
  4 29  1  0
  4 30  1  0
  8 31  1  0
  8 32  1  0
  9 33  1  0
  9 34  1  0
 10 35  1  0
 10 36  1  0
 11 37  1  6
 13 38  1  0
 15 39  1  0
 16 40  1  0
 18 41  1  0
 19 42  1  0
 21 43  1  0
 24 44  1  0
 25 45  1  0
M  END
>  <smiles>  (34) 
O=C(NCC(=O)N1CCC[C@H]1c1cnc[nH]1)c1ccc2cc(Cl)ccc2n1

>  <score_type>  (34) 
oracle

>  <origin>  (34) 
autodockgpu

>  <m_score__min__energy>  (34) 
-8.2200000000000006

>  <m_primary>  (34) 
energy

>  <rmsd>  (34) 
2.8205992760845517

>  <m_score__min__rmsd>  (34) 
2.8205992760845517

>  <meeko>  (34) 
{"free_energy": -7.22, "intermolecular_energy": -8.72, "internal_energy": -2.13, "cluster_size": 13, "cluster_id": 2, "rank_in_cluster": 5}

>  <energy>  (34) 
-7.22

>  <cluster_rmsd>  (34) 
1.47

>  <cluster>  (34) 
2

$$$$

     RDKit          3D

 45 48  0  0  0  0  0  0  0  0999 V2000
  138.8530   70.9590  220.8230 O   0  0  0  0  0  0  0  0  0  0  0  0
  138.8060   71.6490  221.8900 C   0  0  0  0  0  0  0  0  0  0  0  0
  138.2020   72.9480  221.8500 N   0  0  0  0  0  0  0  0  0  0  0  0
  137.6760   73.3960  220.5750 C   0  0  0  0  0  0  0  0  0  0  0  0
  138.3180   74.6780  220.1830 C   0  0  0  0  0  0  0  0  0  0  0  0
  137.7600   75.5370  219.4520 O   0  0  0  0  0  0  0  0  0  0  0  0
  139.6320   74.9630  220.6510 N   0  0  0  0  0  0  0  0  0  0  0  0
  140.0470   75.2600  222.0100 C   0  0  0  0  0  0  0  0  0  0  0  0
  141.0560   76.3660  221.7840 C   0  0  0  0  0  0  0  0  0  0  0  0
  141.3950   76.3540  220.2990 C   0  0  0  0  0  0  0  0  0  0  0  0
  140.8570   75.0150  219.8390 C   0  0  1  0  0  0  0  0  0  0  0  0
  141.8040   73.9650  220.2420 C   0  0  0  0  0  0  0  0  0  0  0  0
  143.1600   74.0130  220.4830 C   0  0  0  0  0  0  0  0  0  0  0  0
  143.6150   72.7960  220.8310 N   0  0  0  0  0  0  0  0  0  0  0  0
  142.5400   71.9600  220.8140 C   0  0  0  0  0  0  0  0  0  0  0  0
  141.4520   72.6850  220.4550 N   0  0  0  0  0  0  0  0  0  0  0  0
  139.3550   71.1440  223.1540 C   0  0  0  0  0  0  0  0  0  0  0  0
  140.3010   71.8950  223.8080 C   0  0  0  0  0  0  0  0  0  0  0  0
  140.8820   71.5190  224.9960 C   0  0  0  0  0  0  0  0  0  0  0  0
  140.4750   70.3150  225.5400 C   0  0  0  0  0  0  0  0  0  0  0  0
  141.0490   69.9350  226.7220 C   0  0  0  0  0  0  0  0  0  0  0  0
  140.6380   68.7200  227.2720 C   0  0  0  0  0  0  0  0  0  0  0  0
  141.3530   68.1980  228.7900 Cl  0  0  0  0  0  0  0  0  0  0  0  0
  139.6870   67.9600  226.6180 C   0  0  0  0  0  0  0  0  0  0  0  0
  139.1280   68.3760  225.4240 C   0  0  0  0  0  0  0  0  0  0  0  0
  139.5290   69.5830  224.8680 C   0  0  0  0  0  0  0  0  0  0  0  0
  138.9830   69.9870  223.7050 N   0  0  0  0  0  0  0  0  0  0  0  0
  138.1500   73.5400  222.7200 H   0  0  0  0  0  0  0  0  0  0  0  0
  137.8830   72.6353  219.8079 H   0  0  0  0  0  0  0  0  0  0  0  0
  136.5904   73.5484  220.6655 H   0  0  0  0  0  0  0  0  0  0  0  0
  139.2010   75.6070  222.6215 H   0  0  0  0  0  0  0  0  0  0  0  0
  140.4474   74.3929  222.5557 H   0  0  0  0  0  0  0  0  0  0  0  0
  140.6232   77.3372  222.0660 H   0  0  0  0  0  0  0  0  0  0  0  0
  141.9566   76.2106  222.3962 H   0  0  0  0  0  0  0  0  0  0  0  0
  140.8975   77.1821  219.7729 H   0  0  0  0  0  0  0  0  0  0  0  0
  142.4688   76.4826  220.0979 H   0  0  0  0  0  0  0  0  0  0  0  0
  140.6979   74.8863  218.7582 H   0  0  0  0  0  0  0  0  0  0  0  0
  143.7813   74.9171  220.4023 H   0  0  0  0  0  0  0  0  0  0  0  0
  142.5523   70.8857  221.0500 H   0  0  0  0  0  0  0  0  0  0  0  0
  140.4790   72.2720  220.3640 H   0  0  0  0  0  0  0  0  0  0  0  0
  140.6106   72.8492  223.3567 H   0  0  0  0  0  0  0  0  0  0  0  0
  141.6366   72.1478  225.4913 H   0  0  0  0  0  0  0  0  0  0  0  0
  141.8041   70.5618  227.2190 H   0  0  0  0  0  0  0  0  0  0  0  0
  139.3679   67.0032  227.0570 H   0  0  0  0  0  0  0  0  0  0  0  0
  138.3724   67.7562  224.9192 H   0  0  0  0  0  0  0  0  0  0  0  0
  1  2  2  0
  2  3  1  0
  3  4  1  0
  4  5  1  0
  5  6  2  0
  5  7  1  0
  7  8  1  0
  8  9  1  0
  9 10  1  0
 10 11  1  0
 11 12  1  0
 12 13  2  0
 13 14  1  0
 14 15  2  0
 15 16  1  0
  2 17  1  0
 17 18  2  0
 18 19  1  0
 19 20  2  0
 20 21  1  0
 21 22  2  0
 22 23  1  0
 22 24  1  0
 24 25  2  0
 25 26  1  0
 26 27  2  0
 11  7  1  0
 16 12  1  0
 27 17  1  0
 26 20  1  0
  3 28  1  0
  4 29  1  0
  4 30  1  0
  8 31  1  0
  8 32  1  0
  9 33  1  0
  9 34  1  0
 10 35  1  0
 10 36  1  0
 11 37  1  6
 13 38  1  0
 15 39  1  0
 16 40  1  0
 18 41  1  0
 19 42  1  0
 21 43  1  0
 24 44  1  0
 25 45  1  0
M  END
>  <smiles>  (35) 
O=C(NCC(=O)N1CCC[C@H]1c1cnc[nH]1)c1ccc2cc(Cl)ccc2n1

>  <score_type>  (35) 
oracle

>  <origin>  (35) 
autodockgpu

>  <m_score__min__energy>  (35) 
-8.2200000000000006

>  <m_primary>  (35) 
energy

>  <rmsd>  (35) 
3.6636047588484915

>  <m_score__min__rmsd>  (35) 
3.6636047588484915

>  <meeko>  (35) 
{"free_energy": -6.12, "intermolecular_energy": -7.61, "internal_energy": -2.41, "cluster_size": 13, "cluster_id": 2, "rank_in_cluster": 12}

>  <energy>  (35) 
-7.21

>  <cluster_rmsd>  (35) 
1.61

>  <cluster>  (35) 
2

$$$$

     RDKit          3D

 45 48  0  0  0  0  0  0  0  0999 V2000
  139.3040   71.8220  220.8220 O   0  0  0  0  0  0  0  0  0  0  0  0
  139.4880   72.3070  221.9830 C   0  0  0  0  0  0  0  0  0  0  0  0
  139.5260   73.7310  222.1420 N   0  0  0  0  0  0  0  0  0  0  0  0
  139.3500   74.5360  220.9490 C   0  0  0  0  0  0  0  0  0  0  0  0
  140.6700   75.0090  220.4550 C   0  0  0  0  0  0  0  0  0  0  0  0
  140.9920   76.2230  220.3930 O   0  0  0  0  0  0  0  0  0  0  0  0
  141.6290   74.0480  220.0240 N   0  0  0  0  0  0  0  0  0  0  0  0
  142.0660   73.7750  218.6670 C   0  0  0  0  0  0  0  0  0  0  0  0
  142.1580   72.2640  218.6770 C   0  0  0  0  0  0  0  0  0  0  0  0
  142.1170   71.8310  220.1370 C   0  0  0  0  0  0  0  0  0  0  0  0
  142.3850   73.1220  220.8810 C   0  0  1  0  0  0  0  0  0  0  0  0
  143.8260   73.4060  220.8240 C   0  0  0  0  0  0  0  0  0  0  0  0
  144.5120   74.5460  220.4630 C   0  0  0  0  0  0  0  0  0  0  0  0
  145.8380   74.3450  220.5660 N   0  0  0  0  0  0  0  0  0  0  0  0
  146.0050   73.0650  220.9970 C   0  0  0  0  0  0  0  0  0  0  0  0
  144.7760   72.5110  221.1490 N   0  0  0  0  0  0  0  0  0  0  0  0
  139.6610   71.4430  223.1560 C   0  0  0  0  0  0  0  0  0  0  0  0
  139.2230   70.1430  223.0880 C   0  0  0  0  0  0  0  0  0  0  0  0
  139.3350   69.2470  224.1250 C   0  0  0  0  0  0  0  0  0  0  0  0
  139.9220   69.7060  225.2900 C   0  0  0  0  0  0  0  0  0  0  0  0
  140.0360   68.8200  226.3250 C   0  0  0  0  0  0  0  0  0  0  0  0
  140.6290   69.2820  227.5010 C   0  0  0  0  0  0  0  0  0  0  0  0
  140.7940   68.1740  228.8540 Cl  0  0  0  0  0  0  0  0  0  0  0  0
  141.0720   70.5900  227.5760 C   0  0  0  0  0  0  0  0  0  0  0  0
  140.9400   71.4580  226.5080 C   0  0  0  0  0  0  0  0  0  0  0  0
  140.3510   71.0090  225.3330 C   0  0  0  0  0  0  0  0  0  0  0  0
  140.2240   71.8560  224.2940 N   0  0  0  0  0  0  0  0  0  0  0  0
  139.6780   74.1590  223.0930 H   0  0  0  0  0  0  0  0  0  0  0  0
  138.8650   73.9304  220.1693 H   0  0  0  0  0  0  0  0  0  0  0  0
  138.7220   75.4063  221.1903 H   0  0  0  0  0  0  0  0  0  0  0  0
  141.3301   74.1278  217.9294 H   0  0  0  0  0  0  0  0  0  0  0  0
  143.0029   74.2793  218.3878 H   0  0  0  0  0  0  0  0  0  0  0  0
  141.3092   71.8292  218.1289 H   0  0  0  0  0  0  0  0  0  0  0  0
  143.0824   71.9213  218.1891 H   0  0  0  0  0  0  0  0  0  0  0  0
  141.1312   71.4200  220.4002 H   0  0  0  0  0  0  0  0  0  0  0  0
  142.8386   71.0354  220.3743 H   0  0  0  0  0  0  0  0  0  0  0  0
  142.1082   73.1507  221.9452 H   0  0  0  0  0  0  0  0  0  0  0  0
  144.0421   75.4857  220.1373 H   0  0  0  0  0  0  0  0  0  0  0  0
  146.9671   72.5672  221.1884 H   0  0  0  0  0  0  0  0  0  0  0  0
  144.6210   71.5140  221.4770 H   0  0  0  0  0  0  0  0  0  0  0  0
  138.7570   69.7998  222.1526 H   0  0  0  0  0  0  0  0  0  0  0  0
  138.9741   68.2121  224.0321 H   0  0  0  0  0  0  0  0  0  0  0  0
  139.6750   67.7849  226.2346 H   0  0  0  0  0  0  0  0  0  0  0  0
  141.5394   70.9474  228.5054 H   0  0  0  0  0  0  0  0  0  0  0  0
  141.2983   72.4949  226.5881 H   0  0  0  0  0  0  0  0  0  0  0  0
  1  2  2  0
  2  3  1  0
  3  4  1  0
  4  5  1  0
  5  6  2  0
  5  7  1  0
  7  8  1  0
  8  9  1  0
  9 10  1  0
 10 11  1  0
 11 12  1  0
 12 13  2  0
 13 14  1  0
 14 15  2  0
 15 16  1  0
  2 17  1  0
 17 18  2  0
 18 19  1  0
 19 20  2  0
 20 21  1  0
 21 22  2  0
 22 23  1  0
 22 24  1  0
 24 25  2  0
 25 26  1  0
 26 27  2  0
 11  7  1  0
 16 12  1  0
 27 17  1  0
 26 20  1  0
  3 28  1  0
  4 29  1  0
  4 30  1  0
  8 31  1  0
  8 32  1  0
  9 33  1  0
  9 34  1  0
 10 35  1  0
 10 36  1  0
 11 37  1  1
 13 38  1  0
 15 39  1  0
 16 40  1  0
 18 41  1  0
 19 42  1  0
 21 43  1  0
 24 44  1  0
 25 45  1  0
M  END
>  <smiles>  (36) 
O=C(NCC(=O)N1CCC[C@H]1c1cnc[nH]1)c1ccc2cc(Cl)ccc2n1

>  <score_type>  (36) 
oracle

>  <origin>  (36) 
autodockgpu

>  <m_score__min__energy>  (36) 
-8.2200000000000006

>  <m_primary>  (36) 
energy

>  <rmsd>  (36) 
3.658056069826843

>  <m_score__min__rmsd>  (36) 
3.658056069826843

>  <meeko>  (36) 
{"free_energy": -7.24, "intermolecular_energy": -8.73, "internal_energy": -1.56, "cluster_size": 13, "cluster_id": 2, "rank_in_cluster": 3}

>  <energy>  (36) 
-7.13

>  <cluster_rmsd>  (36) 
1.66

>  <cluster>  (36) 
2

$$$$

     RDKit          3D

 45 48  0  0  0  0  0  0  0  0999 V2000
  140.4370   72.3640  220.6770 O   0  0  0  0  0  0  0  0  0  0  0  0
  140.0810   72.7750  221.8270 C   0  0  0  0  0  0  0  0  0  0  0  0
  139.6530   74.1350  221.9750 N   0  0  0  0  0  0  0  0  0  0  0  0
  139.6540   74.9640  220.7850 C   0  0  0  0  0  0  0  0  0  0  0  0
  140.6870   76.0260  220.9060 C   0  0  0  0  0  0  0  0  0  0  0  0
  141.0640   76.5040  222.0070 O   0  0  0  0  0  0  0  0  0  0  0  0
  141.2890   76.5390  219.7220 N   0  0  0  0  0  0  0  0  0  0  0  0
  140.8400   76.3720  218.3510 C   0  0  0  0  0  0  0  0  0  0  0  0
  142.1520   76.1550  217.6280 C   0  0  0  0  0  0  0  0  0  0  0  0
  143.2570   76.5780  218.5870 C   0  0  0  0  0  0  0  0  0  0  0  0
  142.5080   77.3590  219.6450 C   0  0  1  0  0  0  0  0  0  0  0  0
  142.2120   78.6990  219.1190 C   0  0  0  0  0  0  0  0  0  0  0  0
  141.2830   79.6400  219.5060 C   0  0  0  0  0  0  0  0  0  0  0  0
  141.3750   80.7340  218.7290 N   0  0  0  0  0  0  0  0  0  0  0  0
  142.3720   80.4930  217.8340 C   0  0  0  0  0  0  0  0  0  0  0  0
  142.8690   79.2550  218.0850 N   0  0  0  0  0  0  0  0  0  0  0  0
  140.1020   71.8910  222.9970 C   0  0  0  0  0  0  0  0  0  0  0  0
  139.5860   70.6240  222.8750 C   0  0  0  0  0  0  0  0  0  0  0  0
  139.5540   69.7130  223.9050 C   0  0  0  0  0  0  0  0  0  0  0  0
  140.0740   70.1210  225.1200 C   0  0  0  0  0  0  0  0  0  0  0  0
  140.0450   69.2200  226.1480 C   0  0  0  0  0  0  0  0  0  0  0  0
  140.5710   69.6320  227.3740 C   0  0  0  0  0  0  0  0  0  0  0  0
  140.5520   68.5020  228.7200 Cl  0  0  0  0  0  0  0  0  0  0  0  0
  141.0910   70.9060  227.5030 C   0  0  0  0  0  0  0  0  0  0  0  0
  141.1040   71.7900  226.4400 C   0  0  0  0  0  0  0  0  0  0  0  0
  140.5830   71.3920  225.2160 C   0  0  0  0  0  0  0  0  0  0  0  0
  140.5970   72.2550  224.1820 N   0  0  0  0  0  0  0  0  0  0  0  0
  139.3540   74.5010  222.9160 H   0  0  0  0  0  0  0  0  0  0  0  0
  139.8744   74.3398  219.9065 H   0  0  0  0  0  0  0  0  0  0  0  0
  138.6656   75.4331  220.6709 H   0  0  0  0  0  0  0  0  0  0  0  0
  140.1761   75.5009  218.2489 H   0  0  0  0  0  0  0  0  0  0  0  0
  140.2503   77.2171  217.9661 H   0  0  0  0  0  0  0  0  0  0  0  0
  142.2669   75.0939  217.3619 H   0  0  0  0  0  0  0  0  0  0  0  0
  142.1915   76.7397  216.6971 H   0  0  0  0  0  0  0  0  0  0  0  0
  143.7588   75.7018  219.0234 H   0  0  0  0  0  0  0  0  0  0  0  0
  144.0539   77.1601  218.1010 H   0  0  0  0  0  0  0  0  0  0  0  0
  143.0199   77.5137  220.6062 H   0  0  0  0  0  0  0  0  0  0  0  0
  140.5681   79.5145  220.3325 H   0  0  0  0  0  0  0  0  0  0  0  0
  142.7145   81.1802  217.0463 H   0  0  0  0  0  0  0  0  0  0  0  0
  143.6590   78.8200  217.5280 H   0  0  0  0  0  0  0  0  0  0  0  0
  139.1759   70.3213  221.9002 H   0  0  0  0  0  0  0  0  0  0  0  0
  139.1339   68.7056  223.7686 H   0  0  0  0  0  0  0  0  0  0  0  0
  139.6247   68.2123  226.0147 H   0  0  0  0  0  0  0  0  0  0  0  0
  141.5033   71.2235  228.4721 H   0  0  0  0  0  0  0  0  0  0  0  0
  141.5233   72.7995  226.5628 H   0  0  0  0  0  0  0  0  0  0  0  0
  1  2  2  0
  2  3  1  0
  3  4  1  0
  4  5  1  0
  5  6  2  0
  5  7  1  0
  7  8  1  0
  8  9  1  0
  9 10  1  0
 10 11  1  0
 11 12  1  0
 12 13  2  0
 13 14  1  0
 14 15  2  0
 15 16  1  0
  2 17  1  0
 17 18  2  0
 18 19  1  0
 19 20  2  0
 20 21  1  0
 21 22  2  0
 22 23  1  0
 22 24  1  0
 24 25  2  0
 25 26  1  0
 26 27  2  0
 11  7  1  0
 16 12  1  0
 27 17  1  0
 26 20  1  0
  3 28  1  0
  4 29  1  0
  4 30  1  0
  8 31  1  0
  8 32  1  0
  9 33  1  0
  9 34  1  0
 10 35  1  0
 10 36  1  0
 11 37  1  1
 13 38  1  0
 15 39  1  0
 16 40  1  0
 18 41  1  0
 19 42  1  0
 21 43  1  0
 24 44  1  0
 25 45  1  0
M  END
>  <smiles>  (37) 
O=C(NCC(=O)N1CCC[C@H]1c1cnc[nH]1)c1ccc2cc(Cl)ccc2n1

>  <score_type>  (37) 
oracle

>  <origin>  (37) 
autodockgpu

>  <m_score__min__energy>  (37) 
-8.2200000000000006

>  <m_primary>  (37) 
energy

>  <rmsd>  (37) 
2.362539928490806

>  <m_score__min__rmsd>  (37) 
2.362539928490806

>  <meeko>  (37) 
{"free_energy": -7.25, "intermolecular_energy": -8.74, "internal_energy": -1.27, "cluster_size": 1, "cluster_id": 4, "rank_in_cluster": 1}

>  <energy>  (37) 
-6.62

>  <cluster_rmsd>  (37) 
1.53

>  <cluster>  (37) 
2

$$$$

     RDKit          3D

 45 48  0  0  0  0  0  0  0  0999 V2000
  139.6380   72.2050  220.8100 O   0  0  0  0  0  0  0  0  0  0  0  0
  139.6540   72.6300  222.0080 C   0  0  0  0  0  0  0  0  0  0  0  0
  139.5080   74.0350  222.2480 N   0  0  0  0  0  0  0  0  0  0  0  0
  139.3490   74.8930  221.0900 C   0  0  0  0  0  0  0  0  0  0  0  0
  140.6280   75.5880  220.7920 C   0  0  0  0  0  0  0  0  0  0  0  0
  141.7010   74.9840  220.5340 O   0  0  0  0  0  0  0  0  0  0  0  0
  140.6570   77.0120  220.7960 N   0  0  0  0  0  0  0  0  0  0  0  0
  139.5290   77.9240  220.7300 C   0  0  0  0  0  0  0  0  0  0  0  0
  140.0600   78.9940  219.8000 C   0  0  0  0  0  0  0  0  0  0  0  0
  141.5660   78.7870  219.7060 C   0  0  0  0  0  0  0  0  0  0  0  0
  141.8540   77.8620  220.8700 C   0  0  1  0  0  0  0  0  0  0  0  0
  141.8650   78.6550  222.1080 C   0  0  0  0  0  0  0  0  0  0  0  0
  141.1480   78.5200  223.2770 C   0  0  0  0  0  0  0  0  0  0  0  0
  141.4910   79.4850  224.1490 N   0  0  0  0  0  0  0  0  0  0  0  0
  142.4370   80.2460  223.5340 C   0  0  0  0  0  0  0  0  0  0  0  0
  142.6520   79.7300  222.2980 N   0  0  0  0  0  0  0  0  0  0  0  0
  139.8190   71.7150  223.1430 C   0  0  0  0  0  0  0  0  0  0  0  0
  139.4430   70.4030  222.9920 C   0  0  0  0  0  0  0  0  0  0  0  0
  139.5530   69.4600  223.9870 C   0  0  0  0  0  0  0  0  0  0  0  0
  140.0720   69.8830  225.1970 C   0  0  0  0  0  0  0  0  0  0  0  0
  140.1840   68.9500  226.1910 C   0  0  0  0  0  0  0  0  0  0  0  0
  140.7090   69.3770  227.4120 C   0  0  0  0  0  0  0  0  0  0  0  0
  140.8690   68.2080  228.7140 Cl  0  0  0  0  0  0  0  0  0  0  0  0
  141.0890   70.6960  227.5700 C   0  0  0  0  0  0  0  0  0  0  0  0
  140.9610   71.6120  226.5420 C   0  0  0  0  0  0  0  0  0  0  0  0
  140.4400   71.1990  225.3230 C   0  0  0  0  0  0  0  0  0  0  0  0
  140.3170   72.0920  224.3220 N   0  0  0  0  0  0  0  0  0  0  0  0
  139.5180   74.4130  223.2320 H   0  0  0  0  0  0  0  0  0  0  0  0
  139.0552   74.2834  220.2228 H   0  0  0  0  0  0  0  0  0  0  0  0
  138.5717   75.6424  221.3003 H   0  0  0  0  0  0  0  0  0  0  0  0
  138.6389   77.4325  220.3103 H   0  0  0  0  0  0  0  0  0  0  0  0
  139.2010   78.3032  221.7091 H   0  0  0  0  0  0  0  0  0  0  0  0
  139.6010   78.8932  218.8054 H   0  0  0  0  0  0  0  0  0  0  0  0
  139.8225   79.9992  220.1782 H   0  0  0  0  0  0  0  0  0  0  0  0
  141.8420   78.3179  218.7501 H   0  0  0  0  0  0  0  0  0  0  0  0
  142.1368   79.7264  219.7463 H   0  0  0  0  0  0  0  0  0  0  0  0
  142.8080   77.3148  220.8479 H   0  0  0  0  0  0  0  0  0  0  0  0
  140.4017   77.7351  223.4695 H   0  0  0  0  0  0  0  0  0  0  0  0
  142.9392   81.1253  223.9638 H   0  0  0  0  0  0  0  0  0  0  0  0
  143.3460   80.1370  221.6070 H   0  0  0  0  0  0  0  0  0  0  0  0
  139.0311   70.0889  222.0216 H   0  0  0  0  0  0  0  0  0  0  0  0
  139.2423   68.4169  223.8276 H   0  0  0  0  0  0  0  0  0  0  0  0
  139.8733   67.9064  226.0347 H   0  0  0  0  0  0  0  0  0  0  0  0
  141.5025   71.0247  228.5349 H   0  0  0  0  0  0  0  0  0  0  0  0
  141.2690   72.6578  226.6886 H   0  0  0  0  0  0  0  0  0  0  0  0
  1  2  2  0
  2  3  1  0
  3  4  1  0
  4  5  1  0
  5  6  2  0
  5  7  1  0
  7  8  1  0
  8  9  1  0
  9 10  1  0
 10 11  1  0
 11 12  1  0
 12 13  2  0
 13 14  1  0
 14 15  2  0
 15 16  1  0
  2 17  1  0
 17 18  2  0
 18 19  1  0
 19 20  2  0
 20 21  1  0
 21 22  2  0
 22 23  1  0
 22 24  1  0
 24 25  2  0
 25 26  1  0
 26 27  2  0
 11  7  1  0
 16 12  1  0
 27 17  1  0
 26 20  1  0
  3 28  1  0
  4 29  1  0
  4 30  1  0
  8 31  1  0
  8 32  1  0
  9 33  1  0
  9 34  1  0
 10 35  1  0
 10 36  1  0
 11 37  1  6
 13 38  1  0
 15 39  1  0
 16 40  1  0
 18 41  1  0
 19 42  1  0
 21 43  1  0
 24 44  1  0
 25 45  1  0
M  END
>  <smiles>  (38) 
O=C(NCC(=O)N1CCC[C@H]1c1cnc[nH]1)c1ccc2cc(Cl)ccc2n1

>  <score_type>  (38) 
oracle

>  <origin>  (38) 
autodockgpu

>  <m_score__min__energy>  (38) 
-8.2200000000000006

>  <m_primary>  (38) 
energy

>  <rmsd>  (38) 
2.0654127632557664

>  <m_score__min__rmsd>  (38) 
2.0654127632557664

>  <meeko>  (38) 
{"free_energy": -7.95, "intermolecular_energy": -9.44, "internal_energy": -1.12, "cluster_size": 27, "cluster_id": 1, "rank_in_cluster": 12}

>  <energy>  (38) 
-6.61

>  <cluster_rmsd>  (38) 
1.47

>  <cluster>  (38) 
2

$$$$

     RDKit          3D

 45 48  0  0  0  0  0  0  0  0999 V2000
  140.4440   72.4620  220.7740 O   0  0  0  0  0  0  0  0  0  0  0  0
  140.1370   72.8560  221.9430 C   0  0  0  0  0  0  0  0  0  0  0  0
  139.7810   74.2310  222.1400 N   0  0  0  0  0  0  0  0  0  0  0  0
  139.7950   75.0930  220.9750 C   0  0  0  0  0  0  0  0  0  0  0  0
  141.0200   75.9350  220.9790 C   0  0  0  0  0  0  0  0  0  0  0  0
  142.1530   75.5100  220.6350 O   0  0  0  0  0  0  0  0  0  0  0  0
  140.9210   77.2940  221.3920 N   0  0  0  0  0  0  0  0  0  0  0  0
  140.9740   78.4820  220.5600 C   0  0  0  0  0  0  0  0  0  0  0  0
  141.8090   79.4130  221.4130 C   0  0  0  0  0  0  0  0  0  0  0  0
  141.8540   78.8060  222.8100 C   0  0  0  0  0  0  0  0  0  0  0  0
  140.7430   77.7780  222.7690 C   0  0  1  0  0  0  0  0  0  0  0  0
  139.4560   78.4730  222.9230 C   0  0  0  0  0  0  0  0  0  0  0  0
  139.1430   79.6830  223.5040 C   0  0  0  0  0  0  0  0  0  0  0  0
  137.8220   79.9170  223.4110 N   0  0  0  0  0  0  0  0  0  0  0  0
  137.2820   78.8480  222.7650 C   0  0  0  0  0  0  0  0  0  0  0  0
  138.2860   77.9820  222.4770 N   0  0  0  0  0  0  0  0  0  0  0  0
  140.1410   71.9380  223.0870 C   0  0  0  0  0  0  0  0  0  0  0  0
  139.6180   70.6790  222.9240 C   0  0  0  0  0  0  0  0  0  0  0  0
  139.5700   69.7380  223.9260 C   0  0  0  0  0  0  0  0  0  0  0  0
  140.0820   70.1070  225.1570 C   0  0  0  0  0  0  0  0  0  0  0  0
  140.0370   69.1770  226.1590 C   0  0  0  0  0  0  0  0  0  0  0  0
  140.5540   69.5490  227.4010 C   0  0  0  0  0  0  0  0  0  0  0  0
  140.5150   68.3810  228.7130 Cl  0  0  0  0  0  0  0  0  0  0  0  0
  141.0800   70.8160  227.5710 C   0  0  0  0  0  0  0  0  0  0  0  0
  141.1090   71.7300  226.5350 C   0  0  0  0  0  0  0  0  0  0  0  0
  140.5980   71.3720  225.2950 C   0  0  0  0  0  0  0  0  0  0  0  0
  140.6270   72.2640  224.2870 N   0  0  0  0  0  0  0  0  0  0  0  0
  139.5220   74.5830  223.0990 H   0  0  0  0  0  0  0  0  0  0  0  0
  139.7807   74.4754  220.0649 H   0  0  0  0  0  0  0  0  0  0  0  0
  138.9093   75.7449  220.9980 H   0  0  0  0  0  0  0  0  0  0  0  0
  141.4614   78.2755  219.5957 H   0  0  0  0  0  0  0  0  0  0  0  0
  139.9864   78.8853  220.2919 H   0  0  0  0  0  0  0  0  0  0  0  0
  142.8261   79.4936  221.0019 H   0  0  0  0  0  0  0  0  0  0  0  0
  141.3761   80.4240  221.4350 H   0  0  0  0  0  0  0  0  0  0  0  0
  142.8266   78.3299  223.0033 H   0  0  0  0  0  0  0  0  0  0  0  0
  141.7280   79.5497  223.6107 H   0  0  0  0  0  0  0  0  0  0  0  0
  140.7624   76.9919  223.5382 H   0  0  0  0  0  0  0  0  0  0  0  0
  139.8698   80.3604  223.9762 H   0  0  0  0  0  0  0  0  0  0  0  0
  136.2186   78.7102  222.5195 H   0  0  0  0  0  0  0  0  0  0  0  0
  138.1360   77.0620  221.9720 H   0  0  0  0  0  0  0  0  0  0  0  0
  139.2149   70.4078  221.9371 H   0  0  0  0  0  0  0  0  0  0  0  0
  139.1441   68.7381  223.7563 H   0  0  0  0  0  0  0  0  0  0  0  0
  139.6107   68.1767  225.9928 H   0  0  0  0  0  0  0  0  0  0  0  0
  141.4845   71.1030  228.5528 H   0  0  0  0  0  0  0  0  0  0  0  0
  141.5334   72.7327  226.6916 H   0  0  0  0  0  0  0  0  0  0  0  0
  1  2  2  0
  2  3  1  0
  3  4  1  0
  4  5  1  0
  5  6  2  0
  5  7  1  0
  7  8  1  0
  8  9  1  0
  9 10  1  0
 10 11  1  0
 11 12  1  0
 12 13  2  0
 13 14  1  0
 14 15  2  0
 15 16  1  0
  2 17  1  0
 17 18  2  0
 18 19  1  0
 19 20  2  0
 20 21  1  0
 21 22  2  0
 22 23  1  0
 22 24  1  0
 24 25  2  0
 25 26  1  0
 26 27  2  0
 11  7  1  0
 16 12  1  0
 27 17  1  0
 26 20  1  0
  3 28  1  0
  4 29  1  0
  4 30  1  0
  8 31  1  0
  8 32  1  0
  9 33  1  0
  9 34  1  0
 10 35  1  0
 10 36  1  0
 11 37  1  1
 13 38  1  0
 15 39  1  0
 16 40  1  0
 18 41  1  0
 19 42  1  0
 21 43  1  0
 24 44  1  0
 25 45  1  0
M  END
>  <smiles>  (39) 
O=C(NCC(=O)N1CCC[C@H]1c1cnc[nH]1)c1ccc2cc(Cl)ccc2n1

>  <score_type>  (39) 
oracle

>  <origin>  (39) 
autodockgpu

>  <m_score__min__energy>  (39) 
-8.2200000000000006

>  <m_primary>  (39) 
energy

>  <rmsd>  (39) 
3.0777958905818052

>  <m_score__min__rmsd>  (39) 
3.0777958905818052

>  <meeko>  (39) 
{"free_energy": -7.41, "intermolecular_energy": -8.91, "internal_energy": -1.29, "cluster_size": 27, "cluster_id": 1, "rank_in_cluster": 23}

>  <energy>  (39) 
-6.12

>  <cluster_rmsd>  (39) 
1.81

>  <cluster>  (39) 
2

$$$$

     RDKit          3D

 45 48  0  0  0  0  0  0  0  0999 V2000
  140.3300   72.4900  220.8520 O   0  0  0  0  0  0  0  0  0  0  0  0
  139.8470   72.7840  221.9910 C   0  0  0  0  0  0  0  0  0  0  0  0
  139.1890   74.0460  222.1620 N   0  0  0  0  0  0  0  0  0  0  0  0
  139.1150   74.9170  221.0050 C   0  0  0  0  0  0  0  0  0  0  0  0
  138.8510   76.3140  221.4360 C   0  0  0  0  0  0  0  0  0  0  0  0
  137.8290   76.6580  222.0840 O   0  0  0  0  0  0  0  0  0  0  0  0
  139.7950   77.3280  221.1060 N   0  0  0  0  0  0  0  0  0  0  0  0
  139.6050   78.4680  220.2270 C   0  0  0  0  0  0  0  0  0  0  0  0
  140.9290   78.5110  219.4960 C   0  0  0  0  0  0  0  0  0  0  0  0
  141.8900   77.6210  220.2740 C   0  0  0  0  0  0  0  0  0  0  0  0
  141.1780   77.4280  221.5960 C   0  0  1  0  0  0  0  0  0  0  0  0
  141.3650   78.6380  222.4100 C   0  0  0  0  0  0  0  0  0  0  0  0
  140.5590   79.2230  223.3620 C   0  0  0  0  0  0  0  0  0  0  0  0
  141.1430   80.3310  223.8520 N   0  0  0  0  0  0  0  0  0  0  0  0
  142.3350   80.4590  223.2070 C   0  0  0  0  0  0  0  0  0  0  0  0
  142.4540   79.4250  222.3370 N   0  0  0  0  0  0  0  0  0  0  0  0
  139.9520   71.8630  223.1280 C   0  0  0  0  0  0  0  0  0  0  0  0
  139.5330   70.5650  222.9660 C   0  0  0  0  0  0  0  0  0  0  0  0
  139.5850   69.6180  223.9630 C   0  0  0  0  0  0  0  0  0  0  0  0
  140.0900   70.0220  225.1850 C   0  0  0  0  0  0  0  0  0  0  0  0
  140.1440   69.0860  226.1810 C   0  0  0  0  0  0  0  0  0  0  0  0
  140.6540   69.4930  227.4150 C   0  0  0  0  0  0  0  0  0  0  0  0
  140.7400   68.3180  228.7180 Cl  0  0  0  0  0  0  0  0  0  0  0  0
  141.0770   70.7970  227.5840 C   0  0  0  0  0  0  0  0  0  0  0  0
  141.0070   71.7170  226.5540 C   0  0  0  0  0  0  0  0  0  0  0  0
  140.5010   71.3240  225.3220 C   0  0  0  0  0  0  0  0  0  0  0  0
  140.4340   72.2220  224.3200 N   0  0  0  0  0  0  0  0  0  0  0  0
  138.7810   74.3140  223.0950 H   0  0  0  0  0  0  0  0  0  0  0  0
  140.0690   74.8786  220.4587 H   0  0  0  0  0  0  0  0  0  0  0  0
  138.2967   74.5802  220.3516 H   0  0  0  0  0  0  0  0  0  0  0  0
  138.7679   78.3044  219.5324 H   0  0  0  0  0  0  0  0  0  0  0  0
  139.3526   79.4012  220.7519 H   0  0  0  0  0  0  0  0  0  0  0  0
  140.8079   78.1321  218.4705 H   0  0  0  0  0  0  0  0  0  0  0  0
  141.3102   79.5407  219.4298 H   0  0  0  0  0  0  0  0  0  0  0  0
  142.0411   76.6593  219.7619 H   0  0  0  0  0  0  0  0  0  0  0  0
  142.8945   78.0563  220.3813 H   0  0  0  0  0  0  0  0  0  0  0  0
  141.5060   76.5839  222.2204 H   0  0  0  0  0  0  0  0  0  0  0  0
  139.5775   78.8386  223.6765 H   0  0  0  0  0  0  0  0  0  0  0  0
  143.0722   81.2602  223.3638 H   0  0  0  0  0  0  0  0  0  0  0  0
  143.2950   79.2860  221.7060 H   0  0  0  0  0  0  0  0  0  0  0  0
  139.1340   70.2661  221.9855 H   0  0  0  0  0  0  0  0  0  0  0  0
  139.2406   68.5868  223.7954 H   0  0  0  0  0  0  0  0  0  0  0  0
  139.7995   68.0544  226.0162 H   0  0  0  0  0  0  0  0  0  0  0  0
  141.4782   71.1104  228.5591 H   0  0  0  0  0  0  0  0  0  0  0  0
  141.3491   72.7509  226.7092 H   0  0  0  0  0  0  0  0  0  0  0  0
  1  2  2  0
  2  3  1  0
  3  4  1  0
  4  5  1  0
  5  6  2  0
  5  7  1  0
  7  8  1  0
  8  9  1  0
  9 10  1  0
 10 11  1  0
 11 12  1  0
 12 13  2  0
 13 14  1  0
 14 15  2  0
 15 16  1  0
  2 17  1  0
 17 18  2  0
 18 19  1  0
 19 20  2  0
 20 21  1  0
 21 22  2  0
 22 23  1  0
 22 24  1  0
 24 25  2  0
 25 26  1  0
 26 27  2  0
 11  7  1  0
 16 12  1  0
 27 17  1  0
 26 20  1  0
  3 28  1  0
  4 29  1  0
  4 30  1  0
  8 31  1  0
  8 32  1  0
  9 33  1  0
  9 34  1  0
 10 35  1  0
 10 36  1  0
 11 37  1  1
 13 38  1  0
 15 39  1  0
 16 40  1  0
 18 41  1  0
 19 42  1  0
 21 43  1  0
 24 44  1  0
 25 45  1  0
M  END
>  <smiles>  (40) 
O=C(NCC(=O)N1CCC[C@H]1c1cnc[nH]1)c1ccc2cc(Cl)ccc2n1

>  <score_type>  (40) 
oracle

>  <origin>  (40) 
autodockgpu

>  <m_score__min__energy>  (40) 
-8.2200000000000006

>  <m_primary>  (40) 
energy

>  <rmsd>  (40) 
2.1610333635017915

>  <m_score__min__rmsd>  (40) 
2.1610333635017915

>  <meeko>  (40) 
{"free_energy": -8.22, "intermolecular_energy": -9.71, "internal_energy": -1.24, "cluster_size": 27, "cluster_id": 1, "rank_in_cluster": 2}

>  <energy>  (40) 
-6.02

>  <cluster_rmsd>  (40) 
1.86

>  <cluster>  (40) 
2

$$$$

     RDKit          3D

 45 48  0  0  0  0  0  0  0  0999 V2000
  140.3270   72.4370  220.7610 O   0  0  0  0  0  0  0  0  0  0  0  0
  139.9150   72.7820  221.9140 C   0  0  0  0  0  0  0  0  0  0  0  0
  139.3710   74.0950  222.0930 N   0  0  0  0  0  0  0  0  0  0  0  0
  139.3230   74.9570  220.9280 C   0  0  0  0  0  0  0  0  0  0  0  0
  140.5800   75.7430  220.8250 C   0  0  0  0  0  0  0  0  0  0  0  0
  141.6330   75.3020  220.2950 O   0  0  0  0  0  0  0  0  0  0  0  0
  140.6110   77.0670  221.3500 N   0  0  0  0  0  0  0  0  0  0  0  0
  141.0070   78.2850  220.6670 C   0  0  0  0  0  0  0  0  0  0  0  0
  141.7890   78.9980  221.7480 C   0  0  0  0  0  0  0  0  0  0  0  0
  141.4660   78.2950  223.0610 C   0  0  0  0  0  0  0  0  0  0  0  0
  140.2410   77.4750  222.7130 C   0  0  1  0  0  0  0  0  0  0  0  0
  139.0700   78.3650  222.7000 C   0  0  0  0  0  0  0  0  0  0  0  0
  138.8120   79.5330  223.3840 C   0  0  0  0  0  0  0  0  0  0  0  0
  137.5980   80.0080  223.0540 N   0  0  0  0  0  0  0  0  0  0  0  0
  137.0730   79.1370  222.1490 C   0  0  0  0  0  0  0  0  0  0  0  0
  137.9780   78.1470  221.9460 N   0  0  0  0  0  0  0  0  0  0  0  0
  139.9890   71.8670  223.0590 C   0  0  0  0  0  0  0  0  0  0  0  0
  139.5410   70.5780  222.9020 C   0  0  0  0  0  0  0  0  0  0  0  0
  139.5620   69.6370  223.9060 C   0  0  0  0  0  0  0  0  0  0  0  0
  140.0650   70.0380  225.1300 C   0  0  0  0  0  0  0  0  0  0  0  0
  140.0890   69.1080  226.1320 C   0  0  0  0  0  0  0  0  0  0  0  0
  140.5980   69.5120  227.3680 C   0  0  0  0  0  0  0  0  0  0  0  0
  140.6460   68.3450  228.6800 Cl  0  0  0  0  0  0  0  0  0  0  0  0
  141.0500   70.8080  227.5310 C   0  0  0  0  0  0  0  0  0  0  0  0
  141.0110   71.7210  226.4940 C   0  0  0  0  0  0  0  0  0  0  0  0
  140.5060   71.3310  225.2610 C   0  0  0  0  0  0  0  0  0  0  0  0
  140.4690   72.2230  224.2520 N   0  0  0  0  0  0  0  0  0  0  0  0
  139.0230   74.4060  223.0370 H   0  0  0  0  0  0  0  0  0  0  0  0
  139.2031   74.3416  220.0242 H   0  0  0  0  0  0  0  0  0  0  0  0
  138.4723   75.6476  221.0247 H   0  0  0  0  0  0  0  0  0  0  0  0
  141.6374   78.0680  219.7921 H   0  0  0  0  0  0  0  0  0  0  0  0
  140.1647   78.8674  220.2653 H   0  0  0  0  0  0  0  0  0  0  0  0
  142.8673   78.9347  221.5398 H   0  0  0  0  0  0  0  0  0  0  0  0
  141.5186   80.0633  221.7935 H   0  0  0  0  0  0  0  0  0  0  0  0
  142.2975   77.6489  223.3790 H   0  0  0  0  0  0  0  0  0  0  0  0
  141.3002   78.9905  223.8969 H   0  0  0  0  0  0  0  0  0  0  0  0
  139.9883   76.6442  223.3882 H   0  0  0  0  0  0  0  0  0  0  0  0
  139.5005   80.0088  224.0978 H   0  0  0  0  0  0  0  0  0  0  0  0
  136.0878   79.2212  221.6669 H   0  0  0  0  0  0  0  0  0  0  0  0
  137.8160   77.3360  221.2830 H   0  0  0  0  0  0  0  0  0  0  0  0
  139.1437   70.2817  221.9200 H   0  0  0  0  0  0  0  0  0  0  0  0
  139.1955   68.6129  223.7423 H   0  0  0  0  0  0  0  0  0  0  0  0
  139.7224   68.0835  225.9711 H   0  0  0  0  0  0  0  0  0  0  0  0
  141.4495   71.1196  228.5074 H   0  0  0  0  0  0  0  0  0  0  0  0
  141.3768   72.7474  226.6443 H   0  0  0  0  0  0  0  0  0  0  0  0
  1  2  2  0
  2  3  1  0
  3  4  1  0
  4  5  1  0
  5  6  2  0
  5  7  1  0
  7  8  1  0
  8  9  1  0
  9 10  1  0
 10 11  1  0
 11 12  1  0
 12 13  2  0
 13 14  1  0
 14 15  2  0
 15 16  1  0
  2 17  1  0
 17 18  2  0
 18 19  1  0
 19 20  2  0
 20 21  1  0
 21 22  2  0
 22 23  1  0
 22 24  1  0
 24 25  2  0
 25 26  1  0
 26 27  2  0
 11  7  1  0
 16 12  1  0
 27 17  1  0
 26 20  1  0
  3 28  1  0
  4 29  1  0
  4 30  1  0
  8 31  1  0
  8 32  1  0
  9 33  1  0
  9 34  1  0
 10 35  1  0
 10 36  1  0
 11 37  1  1
 13 38  1  0
 15 39  1  0
 16 40  1  0
 18 41  1  0
 19 42  1  0
 21 43  1  0
 24 44  1  0
 25 45  1  0
M  END
>  <smiles>  (41) 
O=C(NCC(=O)N1CCC[C@H]1c1cnc[nH]1)c1ccc2cc(Cl)ccc2n1

>  <score_type>  (41) 
oracle

>  <origin>  (41) 
autodockgpu

>  <m_score__min__energy>  (41) 
-8.2200000000000006

>  <m_primary>  (41) 
energy

>  <rmsd>  (41) 
3.0572266191752946

>  <m_score__min__rmsd>  (41) 
3.0572266191752946

>  <meeko>  (41) 
{"free_energy": -7.24, "intermolecular_energy": -8.73, "internal_energy": -1.3, "cluster_size": 27, "cluster_id": 1, "rank_in_cluster": 27}

>  <energy>  (41) 
-7.27

>  <cluster_rmsd>  (41) 
0.0

>  <cluster>  (41) 
3

$$$$

     RDKit          3D

 45 48  0  0  0  0  0  0  0  0999 V2000
  135.0730   68.4780  224.9130 O   0  0  0  0  0  0  0  0  0  0  0  0
  135.4850   69.6800  224.8540 C   0  0  0  0  0  0  0  0  0  0  0  0
  136.7210   69.9580  224.1850 N   0  0  0  0  0  0  0  0  0  0  0  0
  137.4310   68.8320  223.6090 C   0  0  0  0  0  0  0  0  0  0  0  0
  138.6680   68.5600  224.3860 C   0  0  0  0  0  0  0  0  0  0  0  0
  139.1100   67.4020  224.6030 O   0  0  0  0  0  0  0  0  0  0  0  0
  139.4030   69.6570  224.9210 N   0  0  0  0  0  0  0  0  0  0  0  0
  139.2750   71.0620  224.5790 C   0  0  0  0  0  0  0  0  0  0  0  0
  140.7240   71.5010  224.5610 C   0  0  0  0  0  0  0  0  0  0  0  0
  141.5250   70.4020  225.2460 C   0  0  0  0  0  0  0  0  0  0  0  0
  140.4560   69.5880  225.9440 C   0  0  1  0  0  0  0  0  0  0  0  0
  140.0530   70.2960  227.1680 C   0  0  0  0  0  0  0  0  0  0  0  0
  139.1880   69.9370  228.1790 C   0  0  0  0  0  0  0  0  0  0  0  0
  139.1270   70.9080  229.1070 N   0  0  0  0  0  0  0  0  0  0  0  0
  139.9600   71.9000  228.6880 C   0  0  0  0  0  0  0  0  0  0  0  0
  140.5120   71.5130  227.5110 N   0  0  0  0  0  0  0  0  0  0  0  0
  134.7250   70.7810  225.4560 C   0  0  0  0  0  0  0  0  0  0  0  0
  133.7310   70.4820  226.3550 C   0  0  0  0  0  0  0  0  0  0  0  0
  132.9560   71.4330  226.9780 C   0  0  0  0  0  0  0  0  0  0  0  0
  133.2130   72.7540  226.6630 C   0  0  0  0  0  0  0  0  0  0  0  0
  132.4460   73.7050  227.2790 C   0  0  0  0  0  0  0  0  0  0  0  0
  132.7050   75.0400  226.9620 C   0  0  0  0  0  0  0  0  0  0  0  0
  131.7420   76.2900  227.7330 Cl  0  0  0  0  0  0  0  0  0  0  0  0
  133.7040   75.3470  226.0570 C   0  0  0  0  0  0  0  0  0  0  0  0
  134.4590   74.3580  225.4540 C   0  0  0  0  0  0  0  0  0  0  0  0
  134.2110   73.0280  225.7610 C   0  0  0  0  0  0  0  0  0  0  0  0
  134.9480   72.0660  225.1730 N   0  0  0  0  0  0  0  0  0  0  0  0
  137.0850   70.9440  224.1220 H   0  0  0  0  0  0  0  0  0  0  0  0
  136.7837   67.9429  223.6317 H   0  0  0  0  0  0  0  0  0  0  0  0
  137.7022   69.0695  222.5698 H   0  0  0  0  0  0  0  0  0  0  0  0
  138.8026   71.1946  223.5945 H   0  0  0  0  0  0  0  0  0  0  0  0
  138.6408   71.6361  225.2705 H   0  0  0  0  0  0  0  0  0  0  0  0
  141.0678   71.6300  223.5241 H   0  0  0  0  0  0  0  0  0  0  0  0
  140.8514   72.4633  225.0784 H   0  0  0  0  0  0  0  0  0  0  0  0
  142.0693   69.7920  224.5101 H   0  0  0  0  0  0  0  0  0  0  0  0
  142.2935   70.7882  225.9318 H   0  0  0  0  0  0  0  0  0  0  0  0
  140.7281   68.5684  226.2544 H   0  0  0  0  0  0  0  0  0  0  0  0
  138.6277   68.9913  228.2208 H   0  0  0  0  0  0  0  0  0  0  0  0
  140.1516   72.8482  229.2117 H   0  0  0  0  0  0  0  0  0  0  0  0
  141.2030   72.1060  226.9670 H   0  0  0  0  0  0  0  0  0  0  0  0
  133.5440   69.4238  226.5901 H   0  0  0  0  0  0  0  0  0  0  0  0
  132.1683   71.1548  227.6937 H   0  0  0  0  0  0  0  0  0  0  0  0
  131.6576   73.4291  227.9947 H   0  0  0  0  0  0  0  0  0  0  0  0
  133.9025   76.4007  225.8114 H   0  0  0  0  0  0  0  0  0  0  0  0
  135.2497   74.6235  224.7368 H   0  0  0  0  0  0  0  0  0  0  0  0
  1  2  2  0
  2  3  1  0
  3  4  1  0
  4  5  1  0
  5  6  2  0
  5  7  1  0
  7  8  1  0
  8  9  1  0
  9 10  1  0
 10 11  1  0
 11 12  1  0
 12 13  2  0
 13 14  1  0
 14 15  2  0
 15 16  1  0
  2 17  1  0
 17 18  2  0
 18 19  1  0
 19 20  2  0
 20 21  1  0
 21 22  2  0
 22 23  1  0
 22 24  1  0
 24 25  2  0
 25 26  1  0
 26 27  2  0
 11  7  1  0
 16 12  1  0
 27 17  1  0
 26 20  1  0
  3 28  1  0
  4 29  1  0
  4 30  1  0
  8 31  1  0
  8 32  1  0
  9 33  1  0
  9 34  1  0
 10 35  1  0
 10 36  1  0
 11 37  1  1
 13 38  1  0
 15 39  1  0
 16 40  1  0
 18 41  1  0
 19 42  1  0
 21 43  1  0
 24 44  1  0
 25 45  1  0
M  END
>  <smiles>  (42) 
O=C(NCC(=O)N1CCC[C@H]1c1cnc[nH]1)c1ccc2cc(Cl)ccc2n1

>  <score_type>  (42) 
oracle

>  <origin>  (42) 
autodockgpu

>  <m_score__min__energy>  (42) 
-8.2200000000000006

>  <m_primary>  (42) 
energy

>  <rmsd>  (42) 
7.812493699688904

>  <m_score__min__rmsd>  (42) 
7.812493699688904

>  <meeko>  (42) 
{"free_energy": -7.27, "intermolecular_energy": -8.76, "internal_energy": -1.31, "cluster_size": 1, "cluster_id": 3, "rank_in_cluster": 1}

>  <energy>  (42) 
-7.25

>  <cluster_rmsd>  (42) 
0.0

>  <cluster>  (42) 
4

$$$$

     RDKit          3D

 45 48  0  0  0  0  0  0  0  0999 V2000
  139.0850   72.9070  220.7360 O   0  0  0  0  0  0  0  0  0  0  0  0
  140.0770   72.8370  221.5300 C   0  0  0  0  0  0  0  0  0  0  0  0
  141.2220   73.6630  221.2830 N   0  0  0  0  0  0  0  0  0  0  0  0
  141.1730   74.5370  220.1270 C   0  0  0  0  0  0  0  0  0  0  0  0
  141.7440   75.8660  220.4690 C   0  0  0  0  0  0  0  0  0  0  0  0
  142.8820   76.2480  220.0940 O   0  0  0  0  0  0  0  0  0  0  0  0
  140.9750   76.7630  221.2630 N   0  0  0  0  0  0  0  0  0  0  0  0
  140.3200   76.4920  222.5300 C   0  0  0  0  0  0  0  0  0  0  0  0
  139.0100   77.2320  222.3580 C   0  0  0  0  0  0  0  0  0  0  0  0
  139.1830   78.1580  221.1600 C   0  0  0  0  0  0  0  0  0  0  0  0
  140.6830   78.1720  220.9550 C   0  0  1  0  0  0  0  0  0  0  0  0
  141.2840   79.0670  221.9550 C   0  0  0  0  0  0  0  0  0  0  0  0
  140.7370   80.0870  222.7030 C   0  0  0  0  0  0  0  0  0  0  0  0
  141.6740   80.6370  223.4970 N   0  0  0  0  0  0  0  0  0  0  0  0
  142.8320   79.9630  223.2560 C   0  0  0  0  0  0  0  0  0  0  0  0
  142.5780   79.0150  222.3190 N   0  0  0  0  0  0  0  0  0  0  0  0
  140.0720   71.9330  222.6850 C   0  0  0  0  0  0  0  0  0  0  0  0
  139.5010   70.6920  222.5480 C   0  0  0  0  0  0  0  0  0  0  0  0
  139.4400   69.7650  223.5630 C   0  0  0  0  0  0  0  0  0  0  0  0
  139.9910   70.1300  224.7780 C   0  0  0  0  0  0  0  0  0  0  0  0
  139.9340   69.2140  225.7920 C   0  0  0  0  0  0  0  0  0  0  0  0
  140.4900   69.5820  227.0190 C   0  0  0  0  0  0  0  0  0  0  0  0
  140.4360   68.4320  228.3460 Cl  0  0  0  0  0  0  0  0  0  0  0  0
  141.0650   70.8300  227.1620 C   0  0  0  0  0  0  0  0  0  0  0  0
  141.1040   71.7310  226.1140 C   0  0  0  0  0  0  0  0  0  0  0  0
  140.5550   71.3770  224.8900 C   0  0  0  0  0  0  0  0  0  0  0  0
  140.5940   72.2550  223.8700 N   0  0  0  0  0  0  0  0  0  0  0  0
  142.0570   73.6240  221.9240 H   0  0  0  0  0  0  0  0  0  0  0  0
  141.7555   74.0903  219.3078 H   0  0  0  0  0  0  0  0  0  0  0  0
  140.1259   74.6638  219.8147 H   0  0  0  0  0  0  0  0  0  0  0  0
  140.1563   75.4140  222.6751 H   0  0  0  0  0  0  0  0  0  0  0  0
  140.8998   76.8060  223.4104 H   0  0  0  0  0  0  0  0  0  0  0  0
  138.1937   76.5188  222.1709 H   0  0  0  0  0  0  0  0  0  0  0  0
  138.7557   77.8013  223.2642 H   0  0  0  0  0  0  0  0  0  0  0  0
  138.6665   77.7595  220.2743 H   0  0  0  0  0  0  0  0  0  0  0  0
  138.7579   79.1597  221.3211 H   0  0  0  0  0  0  0  0  0  0  0  0
  141.0495   78.5141  219.9759 H   0  0  0  0  0  0  0  0  0  0  0  0
  139.6852   80.4059  222.6576 H   0  0  0  0  0  0  0  0  0  0  0  0
  143.8030   80.1535  223.7365 H   0  0  0  0  0  0  0  0  0  0  0  0
  143.3140   78.3480  221.9500 H   0  0  0  0  0  0  0  0  0  0  0  0
  139.0683   70.4239  221.5728 H   0  0  0  0  0  0  0  0  0  0  0  0
  138.9746   68.7793  223.4150 H   0  0  0  0  0  0  0  0  0  0  0  0
  139.4692   68.2276  225.6470 H   0  0  0  0  0  0  0  0  0  0  0  0
  141.5015   71.1132  228.1312 H   0  0  0  0  0  0  0  0  0  0  0  0
  141.5663   72.7199  226.2495 H   0  0  0  0  0  0  0  0  0  0  0  0
  1  2  2  0
  2  3  1  0
  3  4  1  0
  4  5  1  0
  5  6  2  0
  5  7  1  0
  7  8  1  0
  8  9  1  0
  9 10  1  0
 10 11  1  0
 11 12  1  0
 12 13  2  0
 13 14  1  0
 14 15  2  0
 15 16  1  0
  2 17  1  0
 17 18  2  0
 18 19  1  0
 19 20  2  0
 20 21  1  0
 21 22  2  0
 22 23  1  0
 22 24  1  0
 24 25  2  0
 25 26  1  0
 26 27  2  0
 11  7  1  0
 16 12  1  0
 27 17  1  0
 26 20  1  0
  3 28  1  0
  4 29  1  0
  4 30  1  0
  8 31  1  0
  8 32  1  0
  9 33  1  0
  9 34  1  0
 10 35  1  0
 10 36  1  0
 11 37  1  6
 13 38  1  0
 15 39  1  0
 16 40  1  0
 18 41  1  0
 19 42  1  0
 21 43  1  0
 24 44  1  0
 25 45  1  0
M  END
>  <smiles>  (43) 
O=C(NCC(=O)N1CCC[C@H]1c1cnc[nH]1)c1ccc2cc(Cl)ccc2n1

>  <score_type>  (43) 
oracle

>  <origin>  (43) 
autodockgpu

>  <m_score__min__energy>  (43) 
-8.2200000000000006

>  <m_primary>  (43) 
energy

>  <rmsd>  (43) 
2.8060938877399306

>  <m_score__min__rmsd>  (43) 
2.8060938877399306

>  <meeko>  (43) 
{"free_energy": -7.42, "intermolecular_energy": -8.91, "internal_energy": -1.51, "cluster_size": 27, "cluster_id": 1, "rank_in_cluster": 22}

>  <energy>  (43) 
-7.25

>  <cluster_rmsd>  (43) 
0.0

>  <cluster>  (43) 
5

$$$$

     RDKit          3D

 45 48  0  0  0  0  0  0  0  0999 V2000
  140.1500   72.5550  221.4260 O   0  0  0  0  0  0  0  0  0  0  0  0
  139.3190   72.4180  222.3790 C   0  0  0  0  0  0  0  0  0  0  0  0
  138.0920   73.1560  222.3420 N   0  0  0  0  0  0  0  0  0  0  0  0
  137.8750   74.0250  221.2010 C   0  0  0  0  0  0  0  0  0  0  0  0
  138.0340   75.4460  221.6060 C   0  0  0  0  0  0  0  0  0  0  0  0
  137.1520   76.0910  222.2300 O   0  0  0  0  0  0  0  0  0  0  0  0
  139.2410   76.1260  221.2770 N   0  0  0  0  0  0  0  0  0  0  0  0
  139.5650   76.8140  220.0400 C   0  0  0  0  0  0  0  0  0  0  0  0
  141.0100   76.4090  219.8390 C   0  0  0  0  0  0  0  0  0  0  0  0
  141.4910   75.8240  221.1600 C   0  0  0  0  0  0  0  0  0  0  0  0
  140.4240   76.2720  222.1370 C   0  0  1  0  0  0  0  0  0  0  0  0
  140.6610   77.6830  222.4760 C   0  0  0  0  0  0  0  0  0  0  0  0
  139.8540   78.6150  223.0920 C   0  0  0  0  0  0  0  0  0  0  0  0
  140.4960   79.7930  223.1940 N   0  0  0  0  0  0  0  0  0  0  0  0
  141.7260   79.6150  222.6400 C   0  0  0  0  0  0  0  0  0  0  0  0
  141.8100   78.3310  222.2090 N   0  0  0  0  0  0  0  0  0  0  0  0
  139.5920   71.5240  223.5100 C   0  0  0  0  0  0  0  0  0  0  0  0
  139.2990   70.1890  223.3810 C   0  0  0  0  0  0  0  0  0  0  0  0
  139.5130   69.2630  224.3750 C   0  0  0  0  0  0  0  0  0  0  0  0
  140.0520   69.7280  225.5600 C   0  0  0  0  0  0  0  0  0  0  0  0
  140.2680   68.8130  226.5530 C   0  0  0  0  0  0  0  0  0  0  0  0
  140.8130   69.2830  227.7490 C   0  0  0  0  0  0  0  0  0  0  0  0
  141.1050   68.1370  229.0490 Cl  0  0  0  0  0  0  0  0  0  0  0  0
  141.1100   70.6260  227.8850 C   0  0  0  0  0  0  0  0  0  0  0  0
  140.8790   71.5230  226.8590 C   0  0  0  0  0  0  0  0  0  0  0  0
  140.3360   71.0670  225.6650 C   0  0  0  0  0  0  0  0  0  0  0  0
  140.1120   71.9430  224.6660 N   0  0  0  0  0  0  0  0  0  0  0  0
  137.3870   73.0610  223.1190 H   0  0  0  0  0  0  0  0  0  0  0  0
  138.6080   73.7858  220.4165 H   0  0  0  0  0  0  0  0  0  0  0  0
  136.8551   73.8707  220.8188 H   0  0  0  0  0  0  0  0  0  0  0  0
  138.9315   76.4680  219.2099 H   0  0  0  0  0  0  0  0  0  0  0  0
  139.4050   77.9017  220.0765 H   0  0  0  0  0  0  0  0  0  0  0  0
  141.0845   75.6550  219.0415 H   0  0  0  0  0  0  0  0  0  0  0  0
  141.6242   77.2721  219.5428 H   0  0  0  0  0  0  0  0  0  0  0  0
  141.5462   74.7265  221.1101 H   0  0  0  0  0  0  0  0  0  0  0  0
  142.5022   76.1551  221.4391 H   0  0  0  0  0  0  0  0  0  0  0  0
  140.3658   75.7319  223.0935 H   0  0  0  0  0  0  0  0  0  0  0  0
  138.8314   78.4232  223.4491 H   0  0  0  0  0  0  0  0  0  0  0  0
  142.5139   80.3780  222.5562 H   0  0  0  0  0  0  0  0  0  0  0  0
  142.6690   77.9290  221.7360 H   0  0  0  0  0  0  0  0  0  0  0  0
  138.8694   69.8408  222.4301 H   0  0  0  0  0  0  0  0  0  0  0  0
  139.2664   68.2004  224.2335 H   0  0  0  0  0  0  0  0  0  0  0  0
  140.0222   67.7497  226.4149 H   0  0  0  0  0  0  0  0  0  0  0  0
  141.5396   70.9889  228.8304 H   0  0  0  0  0  0  0  0  0  0  0  0
  141.1230   72.5879  226.9871 H   0  0  0  0  0  0  0  0  0  0  0  0
  1  2  2  0
  2  3  1  0
  3  4  1  0
  4  5  1  0
  5  6  2  0
  5  7  1  0
  7  8  1  0
  8  9  1  0
  9 10  1  0
 10 11  1  0
 11 12  1  0
 12 13  2  0
 13 14  1  0
 14 15  2  0
 15 16  1  0
  2 17  1  0
 17 18  2  0
 18 19  1  0
 19 20  2  0
 20 21  1  0
 21 22  2  0
 22 23  1  0
 22 24  1  0
 24 25  2  0
 25 26  1  0
 26 27  2  0
 11  7  1  0
 16 12  1  0
 27 17  1  0
 26 20  1  0
  3 28  1  0
  4 29  1  0
  4 30  1  0
  8 31  1  0
  8 32  1  0
  9 33  1  0
  9 34  1  0
 10 35  1  0
 10 36  1  0
 11 37  1  1
 13 38  1  0
 15 39  1  0
 16 40  1  0
 18 41  1  0
 19 42  1  0
 21 43  1  0
 24 44  1  0
 25 45  1  0
M  END
>  <smiles>  (44) 
O=C(NCC(=O)N1CCC[C@H]1c1cnc[nH]1)c1ccc2cc(Cl)ccc2n1

>  <score_type>  (44) 
oracle

>  <origin>  (44) 
autodockgpu

>  <m_score__min__energy>  (44) 
-8.2200000000000006

>  <m_primary>  (44) 
energy

>  <rmsd>  (44) 
1.8828401774382801

>  <m_score__min__rmsd>  (44) 
1.8828401774382801

>  <meeko>  (44) 
{"free_energy": -7.59, "intermolecular_energy": -9.08, "internal_energy": -1.33, "cluster_size": 27, "cluster_id": 1, "rank_in_cluster": 16}

>  <energy>  (44) 
-7.22

>  <cluster_rmsd>  (44) 
0.08

>  <cluster>  (44) 
5

$$$$

     RDKit          3D

 45 48  0  0  0  0  0  0  0  0999 V2000
  140.9170   73.0690  221.6580 O   0  0  0  0  0  0  0  0  0  0  0  0
  139.9570   72.8620  222.4650 C   0  0  0  0  0  0  0  0  0  0  0  0
  138.7350   73.5900  222.2920 N   0  0  0  0  0  0  0  0  0  0  0  0
  138.6730   74.5300  221.1890 C   0  0  0  0  0  0  0  0  0  0  0  0
  138.8430   75.9170  221.6930 C   0  0  0  0  0  0  0  0  0  0  0  0
  137.9250   76.5670  222.2580 O   0  0  0  0  0  0  0  0  0  0  0  0
  140.1040   76.5590  221.5350 N   0  0  0  0  0  0  0  0  0  0  0  0
  140.9960   77.0350  222.5770 C   0  0  0  0  0  0  0  0  0  0  0  0
  141.4720   78.3470  221.9920 C   0  0  0  0  0  0  0  0  0  0  0  0
  141.0960   78.3320  220.5160 C   0  0  0  0  0  0  0  0  0  0  0  0
  140.7710   76.8750  220.2630 C   0  0  1  0  0  0  0  0  0  0  0  0
  142.0320   76.1310  220.1280 C   0  0  0  0  0  0  0  0  0  0  0  0
  143.1460   76.3690  219.3510 C   0  0  0  0  0  0  0  0  0  0  0  0
  144.0690   75.4130  219.5550 N   0  0  0  0  0  0  0  0  0  0  0  0
  143.5440   74.5530  220.4700 C   0  0  0  0  0  0  0  0  0  0  0  0
  142.3090   75.0030  220.8070 N   0  0  0  0  0  0  0  0  0  0  0  0
  140.0750   71.8980  223.5650 C   0  0  0  0  0  0  0  0  0  0  0  0
  139.7210   70.5910  223.3380 C   0  0  0  0  0  0  0  0  0  0  0  0
  139.7920   69.6060  224.2950 C   0  0  0  0  0  0  0  0  0  0  0  0
  140.2460   69.9790  225.5460 C   0  0  0  0  0  0  0  0  0  0  0  0
  140.3190   69.0040  226.5030 C   0  0  0  0  0  0  0  0  0  0  0  0
  140.7780   69.3800  227.7660 C   0  0  0  0  0  0  0  0  0  0  0  0
  140.8860   68.1550  229.0210 Cl  0  0  0  0  0  0  0  0  0  0  0  0
  141.1360   70.6940  228.0010 C   0  0  0  0  0  0  0  0  0  0  0  0
  141.0500   71.6530  227.0090 C   0  0  0  0  0  0  0  0  0  0  0  0
  140.5940   71.2910  225.7490 C   0  0  0  0  0  0  0  0  0  0  0  0
  140.5110   72.2270  224.7830 N   0  0  0  0  0  0  0  0  0  0  0  0
  137.9240   73.4370  222.9470 H   0  0  0  0  0  0  0  0  0  0  0  0
  139.4748   74.3025  220.4711 H   0  0  0  0  0  0  0  0  0  0  0  0
  137.6940   74.4429  220.6951 H   0  0  0  0  0  0  0  0  0  0  0  0
  140.4600   77.1889  223.5252 H   0  0  0  0  0  0  0  0  0  0  0  0
  141.8071   76.3352  222.8267 H   0  0  0  0  0  0  0  0  0  0  0  0
  140.9793   79.1892  222.4999 H   0  0  0  0  0  0  0  0  0  0  0  0
  142.5577   78.4666  222.1219 H   0  0  0  0  0  0  0  0  0  0  0  0
  140.2217   78.9713  220.3241 H   0  0  0  0  0  0  0  0  0  0  0  0
  141.8911   78.7191  219.8618 H   0  0  0  0  0  0  0  0  0  0  0  0
  140.1798   76.6443  219.3645 H   0  0  0  0  0  0  0  0  0  0  0  0
  143.2627   77.2192  218.6629 H   0  0  0  0  0  0  0  0  0  0  0  0
  144.0345   73.6518  220.8665 H   0  0  0  0  0  0  0  0  0  0  0  0
  141.6800   74.5140  221.5070 H   0  0  0  0  0  0  0  0  0  0  0  0
  139.3608   70.3167  222.3355 H   0  0  0  0  0  0  0  0  0  0  0  0
  139.5007   68.5684  224.0748 H   0  0  0  0  0  0  0  0  0  0  0  0
  140.0277   67.9658  226.2857 H   0  0  0  0  0  0  0  0  0  0  0  0
  141.4972   70.9831  228.9990 H   0  0  0  0  0  0  0  0  0  0  0  0
  141.3403   72.6935  227.2163 H   0  0  0  0  0  0  0  0  0  0  0  0
  1  2  2  0
  2  3  1  0
  3  4  1  0
  4  5  1  0
  5  6  2  0
  5  7  1  0
  7  8  1  0
  8  9  1  0
  9 10  1  0
 10 11  1  0
 11 12  1  0
 12 13  2  0
 13 14  1  0
 14 15  2  0
 15 16  1  0
  2 17  1  0
 17 18  2  0
 18 19  1  0
 19 20  2  0
 20 21  1  0
 21 22  2  0
 22 23  1  0
 22 24  1  0
 24 25  2  0
 25 26  1  0
 26 27  2  0
 11  7  1  0
 16 12  1  0
 27 17  1  0
 26 20  1  0
  3 28  1  0
  4 29  1  0
  4 30  1  0
  8 31  1  0
  8 32  1  0
  9 33  1  0
  9 34  1  0
 10 35  1  0
 10 36  1  0
 11 37  1  6
 13 38  1  0
 15 39  1  0
 16 40  1  0
 18 41  1  0
 19 42  1  0
 21 43  1  0
 24 44  1  0
 25 45  1  0
M  END
>  <smiles>  (45) 
O=C(NCC(=O)N1CCC[C@H]1c1cnc[nH]1)c1ccc2cc(Cl)ccc2n1

>  <score_type>  (45) 
oracle

>  <origin>  (45) 
autodockgpu

>  <m_score__min__energy>  (45) 
-8.2200000000000006

>  <m_primary>  (45) 
energy

>  <rmsd>  (45) 
2.938247016447341

>  <m_score__min__rmsd>  (45) 
2.938247016447341

>  <meeko>  (45) 
{"free_energy": -7.13, "intermolecular_energy": -8.63, "internal_energy": -2.02, "cluster_size": 13, "cluster_id": 2, "rank_in_cluster": 9}

>  <energy>  (45) 
-7.08

>  <cluster_rmsd>  (45) 
0.0

>  <cluster>  (45) 
6

$$$$

     RDKit          3D

 45 48  0  0  0  0  0  0  0  0999 V2000
  141.0360   73.3180  221.9360 O   0  0  0  0  0  0  0  0  0  0  0  0
  140.0360   72.9410  222.6250 C   0  0  0  0  0  0  0  0  0  0  0  0
  138.7470   73.4980  222.3400 N   0  0  0  0  0  0  0  0  0  0  0  0
  138.6680   74.4710  221.2670 C   0  0  0  0  0  0  0  0  0  0  0  0
  138.6920   75.8480  221.8260 C   0  0  0  0  0  0  0  0  0  0  0  0
  137.8920   76.2510  222.7090 O   0  0  0  0  0  0  0  0  0  0  0  0
  139.6650   76.7700  221.3460 N   0  0  0  0  0  0  0  0  0  0  0  0
  139.5210   77.7370  220.2720 C   0  0  0  0  0  0  0  0  0  0  0  0
  140.8640   77.6260  219.5830 C   0  0  0  0  0  0  0  0  0  0  0  0
  141.7860   76.8750  220.5350 C   0  0  0  0  0  0  0  0  0  0  0  0
  141.0370   76.9340  221.8490 C   0  0  1  0  0  0  0  0  0  0  0  0
  141.2290   78.2680  222.4380 C   0  0  0  0  0  0  0  0  0  0  0  0
  140.4280   79.0110  223.2790 C   0  0  0  0  0  0  0  0  0  0  0  0
  141.0150   80.1870  223.5630 N   0  0  0  0  0  0  0  0  0  0  0  0
  142.2030   80.1990  222.8990 C   0  0  0  0  0  0  0  0  0  0  0  0
  142.3170   79.0290  222.2220 N   0  0  0  0  0  0  0  0  0  0  0  0
  140.1760   71.9530  223.7000 C   0  0  0  0  0  0  0  0  0  0  0  0
  139.8410   70.6460  223.4420 C   0  0  0  0  0  0  0  0  0  0  0  0
  139.9320   69.6390  224.3750 C   0  0  0  0  0  0  0  0  0  0  0  0
  140.3870   69.9880  225.6330 C   0  0  0  0  0  0  0  0  0  0  0  0
  140.4800   68.9910  226.5640 C   0  0  0  0  0  0  0  0  0  0  0  0
  140.9400   69.3430  227.8340 C   0  0  0  0  0  0  0  0  0  0  0  0
  141.0740   68.0900  229.0580 Cl  0  0  0  0  0  0  0  0  0  0  0  0
  141.2790   70.6570  228.1000 C   0  0  0  0  0  0  0  0  0  0  0  0
  141.1720   71.6380  227.1320 C   0  0  0  0  0  0  0  0  0  0  0  0
  140.7150   71.3000  225.8650 C   0  0  0  0  0  0  0  0  0  0  0  0
  140.6120   72.2580  224.9240 N   0  0  0  0  0  0  0  0  0  0  0  0
  137.9020   73.2030  222.8950 H   0  0  0  0  0  0  0  0  0  0  0  0
  139.5251   74.3376  220.5906 H   0  0  0  0  0  0  0  0  0  0  0  0
  137.7290   74.3225  220.7136 H   0  0  0  0  0  0  0  0  0  0  0  0
  138.6982   77.4652  219.5944 H   0  0  0  0  0  0  0  0  0  0  0  0
  139.2752   78.7532  220.6138 H   0  0  0  0  0  0  0  0  0  0  0  0
  140.7607   77.0707  218.6391 H   0  0  0  0  0  0  0  0  0  0  0  0
  141.2686   78.6206  219.3440 H   0  0  0  0  0  0  0  0  0  0  0  0
  141.9299   75.8346  220.2080 H   0  0  0  0  0  0  0  0  0  0  0  0
  142.7963   77.3063  220.5914 H   0  0  0  0  0  0  0  0  0  0  0  0
  141.3313   76.2104  222.6235 H   0  0  0  0  0  0  0  0  0  0  0  0
  139.4490   78.6880  223.6627 H   0  0  0  0  0  0  0  0  0  0  0  0
  142.9412   81.0144  222.9095 H   0  0  0  0  0  0  0  0  0  0  0  0
  143.1540   78.7810  221.6210 H   0  0  0  0  0  0  0  0  0  0  0  0
  139.4804   70.3907  222.4347 H   0  0  0  0  0  0  0  0  0  0  0  0
  139.6552   68.6027  224.1310 H   0  0  0  0  0  0  0  0  0  0  0  0
  140.2037   67.9541  226.3221 H   0  0  0  0  0  0  0  0  0  0  0  0
  141.6414   70.9272  229.1028 H   0  0  0  0  0  0  0  0  0  0  0  0
  141.4466   72.6777  227.3634 H   0  0  0  0  0  0  0  0  0  0  0  0
  1  2  2  0
  2  3  1  0
  3  4  1  0
  4  5  1  0
  5  6  2  0
  5  7  1  0
  7  8  1  0
  8  9  1  0
  9 10  1  0
 10 11  1  0
 11 12  1  0
 12 13  2  0
 13 14  1  0
 14 15  2  0
 15 16  1  0
  2 17  1  0
 17 18  2  0
 18 19  1  0
 19 20  2  0
 20 21  1  0
 21 22  2  0
 22 23  1  0
 22 24  1  0
 24 25  2  0
 25 26  1  0
 26 27  2  0
 11  7  1  0
 16 12  1  0
 27 17  1  0
 26 20  1  0
  3 28  1  0
  4 29  1  0
  4 30  1  0
  8 31  1  0
  8 32  1  0
  9 33  1  0
  9 34  1  0
 10 35  1  0
 10 36  1  0
 11 37  1  1
 13 38  1  0
 15 39  1  0
 16 40  1  0
 18 41  1  0
 19 42  1  0
 21 43  1  0
 24 44  1  0
 25 45  1  0
M  END
>  <smiles>  (46) 
O=C(NCC(=O)N1CCC[C@H]1c1cnc[nH]1)c1ccc2cc(Cl)ccc2n1

>  <score_type>  (46) 
oracle

>  <origin>  (46) 
autodockgpu

>  <m_score__min__energy>  (46) 
-8.2200000000000006

>  <m_primary>  (46) 
energy

>  <rmsd>  (46) 
2.0420422300123025

>  <m_score__min__rmsd>  (46) 
2.0420422300123025

>  <meeko>  (46) 
{"free_energy": -7.91, "intermolecular_energy": -9.4, "internal_energy": -1.26, "cluster_size": 27, "cluster_id": 1, "rank_in_cluster": 13}

>  <energy>  (46) 
-6.46

>  <cluster_rmsd>  (46) 
0.0

>  <cluster>  (46) 
7

$$$$

     RDKit          3D

 45 48  0  0  0  0  0  0  0  0999 V2000
  140.0330   72.3960  220.7680 O   0  0  0  0  0  0  0  0  0  0  0  0
  139.8320   72.7870  221.9610 C   0  0  0  0  0  0  0  0  0  0  0  0
  139.4920   74.1590  222.1940 N   0  0  0  0  0  0  0  0  0  0  0  0
  139.4000   75.0250  221.0350 C   0  0  0  0  0  0  0  0  0  0  0  0
  138.9300   76.3750  221.4440 C   0  0  0  0  0  0  0  0  0  0  0  0
  137.8320   76.5800  222.0240 O   0  0  0  0  0  0  0  0  0  0  0  0
  139.7540   77.5040  221.1720 N   0  0  0  0  0  0  0  0  0  0  0  0
  139.3520   78.7840  220.6160 C   0  0  0  0  0  0  0  0  0  0  0  0
  140.5000   79.0790  219.6750 C   0  0  0  0  0  0  0  0  0  0  0  0
  141.6270   78.1220  220.0440 C   0  0  0  0  0  0  0  0  0  0  0  0
  141.2030   77.6050  221.4010 C   0  0  1  0  0  0  0  0  0  0  0  0
  141.5080   78.6290  222.4110 C   0  0  0  0  0  0  0  0  0  0  0  0
  140.8430   78.9960  223.5600 C   0  0  0  0  0  0  0  0  0  0  0  0
  141.4980   79.9930  224.1810 N   0  0  0  0  0  0  0  0  0  0  0  0
  142.5930   80.2700  223.4220 C   0  0  0  0  0  0  0  0  0  0  0  0
  142.5840   79.4350  222.3530 N   0  0  0  0  0  0  0  0  0  0  0  0
  139.9400   71.8650  223.0980 C   0  0  0  0  0  0  0  0  0  0  0  0
  139.5250   70.5660  222.9350 C   0  0  0  0  0  0  0  0  0  0  0  0
  139.5810   69.6190  223.9310 C   0  0  0  0  0  0  0  0  0  0  0  0
  140.0850   70.0230  225.1530 C   0  0  0  0  0  0  0  0  0  0  0  0
  140.1440   69.0860  226.1480 C   0  0  0  0  0  0  0  0  0  0  0  0
  140.6530   69.4940  227.3820 C   0  0  0  0  0  0  0  0  0  0  0  0
  140.7440   68.3190  228.6850 Cl  0  0  0  0  0  0  0  0  0  0  0  0
  141.0730   70.8000  227.5510 C   0  0  0  0  0  0  0  0  0  0  0  0
  140.9990   71.7200  226.5220 C   0  0  0  0  0  0  0  0  0  0  0  0
  140.4930   71.3270  225.2910 C   0  0  0  0  0  0  0  0  0  0  0  0
  140.4230   72.2240  224.2890 N   0  0  0  0  0  0  0  0  0  0  0  0
  139.3210   74.5090  223.1730 H   0  0  0  0  0  0  0  0  0  0  0  0
  140.3909   75.1113  220.5653 H   0  0  0  0  0  0  0  0  0  0  0  0
  138.6837   74.5951  220.3194 H   0  0  0  0  0  0  0  0  0  0  0  0
  138.3983   78.7047  220.0737 H   0  0  0  0  0  0  0  0  0  0  0  0
  139.1785   79.5657  221.3703 H   0  0  0  0  0  0  0  0  0  0  0  0
  140.1881   78.9134  218.6332 H   0  0  0  0  0  0  0  0  0  0  0  0
  140.8253   80.1260  219.7644 H   0  0  0  0  0  0  0  0  0  0  0  0
  141.7041   77.3020  219.3149 H   0  0  0  0  0  0  0  0  0  0  0  0
  142.6173   78.6008  220.0523 H   0  0  0  0  0  0  0  0  0  0  0  0
  141.6792   76.6773  221.7510 H   0  0  0  0  0  0  0  0  0  0  0  0
  139.9091   78.5387  223.9187 H   0  0  0  0  0  0  0  0  0  0  0  0
  143.3521   81.0364  223.6375 H   0  0  0  0  0  0  0  0  0  0  0  0
  143.3320   79.4410  221.6010 H   0  0  0  0  0  0  0  0  0  0  0  0
  139.1261   70.2666  221.9546 H   0  0  0  0  0  0  0  0  0  0  0  0
  139.2401   68.5868  223.7626 H   0  0  0  0  0  0  0  0  0  0  0  0
  139.8041   68.0530  225.9823 H   0  0  0  0  0  0  0  0  0  0  0  0
  141.4749   71.1141  228.5256 H   0  0  0  0  0  0  0  0  0  0  0  0
  141.3383   72.7547  226.6776 H   0  0  0  0  0  0  0  0  0  0  0  0
  1  2  2  0
  2  3  1  0
  3  4  1  0
  4  5  1  0
  5  6  2  0
  5  7  1  0
  7  8  1  0
  8  9  1  0
  9 10  1  0
 10 11  1  0
 11 12  1  0
 12 13  2  0
 13 14  1  0
 14 15  2  0
 15 16  1  0
  2 17  1  0
 17 18  2  0
 18 19  1  0
 19 20  2  0
 20 21  1  0
 21 22  2  0
 22 23  1  0
 22 24  1  0
 24 25  2  0
 25 26  1  0
 26 27  2  0
 11  7  1  0
 16 12  1  0
 27 17  1  0
 26 20  1  0
  3 28  1  0
  4 29  1  0
  4 30  1  0
  8 31  1  0
  8 32  1  0
  9 33  1  0
  9 34  1  0
 10 35  1  0
 10 36  1  0
 11 37  1  1
 13 38  1  0
 15 39  1  0
 16 40  1  0
 18 41  1  0
 19 42  1  0
 21 43  1  0
 24 44  1  0
 25 45  1  0
M  END
>  <smiles>  (47) 
O=C(NCC(=O)N1CCC[C@H]1c1cnc[nH]1)c1ccc2cc(Cl)ccc2n1

>  <score_type>  (47) 
oracle

>  <origin>  (47) 
autodockgpu

>  <m_score__min__energy>  (47) 
-8.2200000000000006

>  <m_primary>  (47) 
energy

>  <rmsd>  (47) 
2.284761610636131

>  <m_score__min__rmsd>  (47) 
2.284761610636131

>  <meeko>  (47) 
{"free_energy": -8.08, "intermolecular_energy": -9.57, "internal_energy": -1.23, "cluster_size": 27, "cluster_id": 1, "rank_in_cluster": 9}

>  <energy>  (47) 
-5.92

>  <cluster_rmsd>  (47) 
0.7

>  <cluster>  (47) 
7

$$$$

     RDKit          3D

 45 48  0  0  0  0  0  0  0  0999 V2000
  140.6860   72.5110  220.8070 O   0  0  0  0  0  0  0  0  0  0  0  0
  140.0760   72.8070  221.8830 C   0  0  0  0  0  0  0  0  0  0  0  0
  139.3700   74.0520  221.9600 N   0  0  0  0  0  0  0  0  0  0  0  0
  139.3990   74.9040  220.7870 C   0  0  0  0  0  0  0  0  0  0  0  0
  140.6780   75.6580  220.7370 C   0  0  0  0  0  0  0  0  0  0  0  0
  141.8040   75.1070  220.6310 O   0  0  0  0  0  0  0  0  0  0  0  0
  140.6440   77.0800  220.8120 N   0  0  0  0  0  0  0  0  0  0  0  0
  139.4750   77.9400  220.8670 C   0  0  0  0  0  0  0  0  0  0  0  0
  139.8940   79.0770  219.9600 C   0  0  0  0  0  0  0  0  0  0  0  0
  141.3980   78.9470  219.7570 C   0  0  0  0  0  0  0  0  0  0  0  0
  141.8050   77.9820  220.8500 C   0  0  1  0  0  0  0  0  0  0  0  0
  141.8650   78.7140  222.1240 C   0  0  0  0  0  0  0  0  0  0  0  0
  141.1830   78.5300  223.3070 C   0  0  0  0  0  0  0  0  0  0  0  0
  141.5660   79.4480  224.2130 N   0  0  0  0  0  0  0  0  0  0  0  0
  142.5020   80.2270  223.6050 C   0  0  0  0  0  0  0  0  0  0  0  0
  142.6710   79.7690  222.3400 N   0  0  0  0  0  0  0  0  0  0  0  0
  140.0820   71.9060  223.0400 C   0  0  0  0  0  0  0  0  0  0  0  0
  139.5510   70.6470  222.8980 C   0  0  0  0  0  0  0  0  0  0  0  0
  139.5050   69.7210  223.9150 C   0  0  0  0  0  0  0  0  0  0  0  0
  140.0260   70.1050  225.1360 C   0  0  0  0  0  0  0  0  0  0  0  0
  139.9830   69.1900  226.1520 C   0  0  0  0  0  0  0  0  0  0  0  0
  140.5100   69.5760  227.3850 C   0  0  0  0  0  0  0  0  0  0  0  0
  140.4720   68.4280  228.7140 Cl  0  0  0  0  0  0  0  0  0  0  0  0
  141.0450   70.8420  227.5340 C   0  0  0  0  0  0  0  0  0  0  0  0
  141.0720   71.7420  226.4840 C   0  0  0  0  0  0  0  0  0  0  0  0
  140.5510   71.3680  225.2530 C   0  0  0  0  0  0  0  0  0  0  0  0
  140.5780   72.2460  224.2320 N   0  0  0  0  0  0  0  0  0  0  0  0
  138.8570   74.3220  222.8400 H   0  0  0  0  0  0  0  0  0  0  0  0
  139.3068   74.2831  219.8837 H   0  0  0  0  0  0  0  0  0  0  0  0
  138.5622   75.6162  220.8378 H   0  0  0  0  0  0  0  0  0  0  0  0
  138.5808   77.4277  220.4823 H   0  0  0  0  0  0  0  0  0  0  0  0
  139.1981   78.2559  221.8836 H   0  0  0  0  0  0  0  0  0  0  0  0
  139.3736   79.0020  218.9938 H   0  0  0  0  0  0  0  0  0  0  0  0
  139.6384   80.0505  220.4038 H   0  0  0  0  0  0  0  0  0  0  0  0
  141.6291   78.5384  218.7622 H   0  0  0  0  0  0  0  0  0  0  0  0
  141.9279   79.9096  219.8081 H   0  0  0  0  0  0  0  0  0  0  0  0
  142.7785   77.4826  220.7367 H   0  0  0  0  0  0  0  0  0  0  0  0
  140.4331   77.7452  223.4852 H   0  0  0  0  0  0  0  0  0  0  0  0
  143.0289   81.0787  224.0600 H   0  0  0  0  0  0  0  0  0  0  0  0
  143.3480   80.2020  221.6480 H   0  0  0  0  0  0  0  0  0  0  0  0
  139.1401   70.3636  221.9178 H   0  0  0  0  0  0  0  0  0  0  0  0
  139.0732   68.7208  223.7629 H   0  0  0  0  0  0  0  0  0  0  0  0
  139.5502   68.1898  226.0029 H   0  0  0  0  0  0  0  0  0  0  0  0
  141.4582   71.1401  228.5089 H   0  0  0  0  0  0  0  0  0  0  0  0
  141.5023   72.7447  226.6232 H   0  0  0  0  0  0  0  0  0  0  0  0
  1  2  2  0
  2  3  1  0
  3  4  1  0
  4  5  1  0
  5  6  2  0
  5  7  1  0
  7  8  1  0
  8  9  1  0
  9 10  1  0
 10 11  1  0
 11 12  1  0
 12 13  2  0
 13 14  1  0
 14 15  2  0
 15 16  1  0
  2 17  1  0
 17 18  2  0
 18 19  1  0
 19 20  2  0
 20 21  1  0
 21 22  2  0
 22 23  1  0
 22 24  1  0
 24 25  2  0
 25 26  1  0
 26 27  2  0
 11  7  1  0
 16 12  1  0
 27 17  1  0
 26 20  1  0
  3 28  1  0
  4 29  1  0
  4 30  1  0
  8 31  1  0
  8 32  1  0
  9 33  1  0
  9 34  1  0
 10 35  1  0
 10 36  1  0
 11 37  1  6
 13 38  1  0
 15 39  1  0
 16 40  1  0
 18 41  1  0
 19 42  1  0
 21 43  1  0
 24 44  1  0
 25 45  1  0
M  END
>  <smiles>  (48) 
O=C(NCC(=O)N1CCC[C@H]1c1cnc[nH]1)c1ccc2cc(Cl)ccc2n1

>  <score_type>  (48) 
oracle

>  <origin>  (48) 
autodockgpu

>  <m_score__min__energy>  (48) 
-8.2200000000000006

>  <m_primary>  (48) 
energy

>  <rmsd>  (48) 
2.1773688953896815

>  <m_score__min__rmsd>  (48) 
2.1773688953896815

>  <meeko>  (48) 
{"free_energy": -8.09, "intermolecular_energy": -9.58, "internal_energy": -0.99, "cluster_size": 27, "cluster_id": 1, "rank_in_cluster": 8}

>  <energy>  (48) 
-5.78

>  <cluster_rmsd>  (48) 
1.09

>  <cluster>  (48) 
7

$$$$

     RDKit          3D

 45 48  0  0  0  0  0  0  0  0999 V2000
  140.9270   72.9750  221.4150 O   0  0  0  0  0  0  0  0  0  0  0  0
  139.9790   72.8670  222.2550 C   0  0  0  0  0  0  0  0  0  0  0  0
  138.8270   73.7080  222.1140 N   0  0  0  0  0  0  0  0  0  0  0  0
  138.8200   74.6420  221.0040 C   0  0  0  0  0  0  0  0  0  0  0  0
  138.6560   76.0300  221.5090 C   0  0  0  0  0  0  0  0  0  0  0  0
  137.6830   76.4000  222.2140 O   0  0  0  0  0  0  0  0  0  0  0  0
  139.6440   77.0030  221.1840 N   0  0  0  0  0  0  0  0  0  0  0  0
  139.5410   78.0900  220.2280 C   0  0  0  0  0  0  0  0  0  0  0  0
  140.9120   78.0620  219.5880 C   0  0  0  0  0  0  0  0  0  0  0  0
  141.7970   77.2030  220.4830 C   0  0  0  0  0  0  0  0  0  0  0  0
  140.9930   77.1060  221.7620 C   0  0  1  0  0  0  0  0  0  0  0  0
  141.1520   78.3600  222.5130 C   0  0  0  0  0  0  0  0  0  0  0  0
  142.2450   79.1840  222.6790 C   0  0  0  0  0  0  0  0  0  0  0  0
  141.9240   80.2330  223.4560 N   0  0  0  0  0  0  0  0  0  0  0  0
  140.6130   80.0810  223.7930 C   0  0  0  0  0  0  0  0  0  0  0  0
  140.1620   78.9410  223.2120 N   0  0  0  0  0  0  0  0  0  0  0  0
  140.0400   71.9040  223.3600 C   0  0  0  0  0  0  0  0  0  0  0  0
  139.5760   70.6280  223.1490 C   0  0  0  0  0  0  0  0  0  0  0  0
  139.5850   69.6460  224.1130 C   0  0  0  0  0  0  0  0  0  0  0  0
  140.0940   69.9890  225.3520 C   0  0  0  0  0  0  0  0  0  0  0  0
  140.1070   69.0170  226.3140 C   0  0  0  0  0  0  0  0  0  0  0  0
  140.6210   69.3620  227.5650 C   0  0  0  0  0  0  0  0  0  0  0  0
  140.6540   68.1410  228.8280 Cl  0  0  0  0  0  0  0  0  0  0  0  0
  141.0900   70.6440  227.7820 C   0  0  0  0  0  0  0  0  0  0  0  0
  141.0620   71.6010  226.7850 C   0  0  0  0  0  0  0  0  0  0  0  0
  140.5520   71.2690  225.5370 C   0  0  0  0  0  0  0  0  0  0  0  0
  140.5260   72.2030  224.5660 N   0  0  0  0  0  0  0  0  0  0  0  0
  138.0280   73.6390  222.7960 H   0  0  0  0  0  0  0  0  0  0  0  0
  139.7705   74.5636  220.4559 H   0  0  0  0  0  0  0  0  0  0  0  0
  137.9820   74.4001  220.3337 H   0  0  0  0  0  0  0  0  0  0  0  0
  138.7488   77.9008  219.4887 H   0  0  0  0  0  0  0  0  0  0  0  0
  139.2764   79.0584  220.6777 H   0  0  0  0  0  0  0  0  0  0  0  0
  140.8513   77.6227  218.5813 H   0  0  0  0  0  0  0  0  0  0  0  0
  141.3212   79.0779  219.4857 H   0  0  0  0  0  0  0  0  0  0  0  0
  141.9596   76.2087  220.0415 H   0  0  0  0  0  0  0  0  0  0  0  0
  142.8019   77.6244  220.6329 H   0  0  0  0  0  0  0  0  0  0  0  0
  141.2586   76.2960  222.4572 H   0  0  0  0  0  0  0  0  0  0  0  0
  143.2376   79.0082  222.2387 H   0  0  0  0  0  0  0  0  0  0  0  0
  140.0240   80.7622  224.4247 H   0  0  0  0  0  0  0  0  0  0  0  0
  139.1670   78.5880  223.3150 H   0  0  0  0  0  0  0  0  0  0  0  0
  139.1756   70.3778  222.1555 H   0  0  0  0  0  0  0  0  0  0  0  0
  139.2047   68.6345  223.9073 H   0  0  0  0  0  0  0  0  0  0  0  0
  139.7279   68.0047  226.1102 H   0  0  0  0  0  0  0  0  0  0  0  0
  141.4945   70.9085  228.7701 H   0  0  0  0  0  0  0  0  0  0  0  0
  141.4401   72.6157  226.9784 H   0  0  0  0  0  0  0  0  0  0  0  0
  1  2  2  0
  2  3  1  0
  3  4  1  0
  4  5  1  0
  5  6  2  0
  5  7  1  0
  7  8  1  0
  8  9  1  0
  9 10  1  0
 10 11  1  0
 11 12  1  0
 12 13  2  0
 13 14  1  0
 14 15  2  0
 15 16  1  0
  2 17  1  0
 17 18  2  0
 18 19  1  0
 19 20  2  0
 20 21  1  0
 21 22  2  0
 22 23  1  0
 22 24  1  0
 24 25  2  0
 25 26  1  0
 26 27  2  0
 11  7  1  0
 16 12  1  0
 27 17  1  0
 26 20  1  0
  3 28  1  0
  4 29  1  0
  4 30  1  0
  8 31  1  0
  8 32  1  0
  9 33  1  0
  9 34  1  0
 10 35  1  0
 10 36  1  0
 11 37  1  1
 13 38  1  0
 15 39  1  0
 16 40  1  0
 18 41  1  0
 19 42  1  0
 21 43  1  0
 24 44  1  0
 25 45  1  0
M  END
>  <smiles>  (49) 
O=C(NCC(=O)N1CCC[C@H]1c1cnc[nH]1)c1ccc2cc(Cl)ccc2n1

>  <score_type>  (49) 
oracle

>  <origin>  (49) 
autodockgpu

>  <m_score__min__energy>  (49) 
-8.2200000000000006

>  <m_primary>  (49) 
energy

>  <rmsd>  (49) 
2.1407162924211187

>  <m_score__min__rmsd>  (49) 
2.1407162924211187

>  <meeko>  (49) 
{"free_energy": -7.47, "intermolecular_energy": -8.97, "internal_energy": -1.41, "cluster_size": 27, "cluster_id": 1, "rank_in_cluster": 19}

>  <energy>  (49) 
-6.23

>  <cluster_rmsd>  (49) 
0.0

>  <cluster>  (49) 
8

$$$$

     RDKit          3D

 45 48  0  0  0  0  0  0  0  0999 V2000
  141.1640   78.2230  217.6520 O   0  0  0  0  0  0  0  0  0  0  0  0
  141.9660   77.8810  218.5770 C   0  0  0  0  0  0  0  0  0  0  0  0
  142.2370   78.8060  219.6380 N   0  0  0  0  0  0  0  0  0  0  0  0
  141.5660   80.0900  219.5860 C   0  0  0  0  0  0  0  0  0  0  0  0
  140.9430   80.3920  220.9010 C   0  0  0  0  0  0  0  0  0  0  0  0
  141.1430   81.4620  221.5330 O   0  0  0  0  0  0  0  0  0  0  0  0
  140.0720   79.4310  221.4890 N   0  0  0  0  0  0  0  0  0  0  0  0
  138.7260   79.0790  221.0730 C   0  0  0  0  0  0  0  0  0  0  0  0
  138.0260   78.9320  222.4070 C   0  0  0  0  0  0  0  0  0  0  0  0
  139.1150   78.8580  223.4690 C   0  0  0  0  0  0  0  0  0  0  0  0
  140.3630   78.5860  222.6570 C   0  0  1  0  0  0  0  0  0  0  0  0
  140.3830   77.1630  222.2880 C   0  0  0  0  0  0  0  0  0  0  0  0
  139.4840   76.1490  222.5400 C   0  0  0  0  0  0  0  0  0  0  0  0
  139.9190   74.9950  222.0040 N   0  0  0  0  0  0  0  0  0  0  0  0
  141.1080   75.2710  221.4020 C   0  0  0  0  0  0  0  0  0  0  0  0
  141.3740   76.5890  221.5830 N   0  0  0  0  0  0  0  0  0  0  0  0
  142.6180   76.5670  218.5790 C   0  0  0  0  0  0  0  0  0  0  0  0
  142.4260   75.7340  217.5030 C   0  0  0  0  0  0  0  0  0  0  0  0
  142.9870   74.4830  217.4000 C   0  0  0  0  0  0  0  0  0  0  0  0
  143.7830   74.0640  218.4500 C   0  0  0  0  0  0  0  0  0  0  0  0
  144.3450   72.8200  218.3530 C   0  0  0  0  0  0  0  0  0  0  0  0
  145.1490   72.3970  219.4130 C   0  0  0  0  0  0  0  0  0  0  0  0
  145.8880   70.8060  219.3260 Cl  0  0  0  0  0  0  0  0  0  0  0  0
  145.3460   73.2310  220.4980 C   0  0  0  0  0  0  0  0  0  0  0  0
  144.7620   74.4820  220.5610 C   0  0  0  0  0  0  0  0  0  0  0  0
  143.9600   74.9140  219.5130 C   0  0  0  0  0  0  0  0  0  0  0  0
  143.3920   76.1340  219.5760 N   0  0  0  0  0  0  0  0  0  0  0  0
  142.8980   78.5470  220.4170 H   0  0  0  0  0  0  0  0  0  0  0  0
  142.2979   80.8738  219.3412 H   0  0  0  0  0  0  0  0  0  0  0  0
  140.7825   80.0568  218.8146 H   0  0  0  0  0  0  0  0  0  0  0  0
  138.2715   79.8763  220.4665 H   0  0  0  0  0  0  0  0  0  0  0  0
  138.6731   78.1825  220.4378 H   0  0  0  0  0  0  0  0  0  0  0  0
  137.3757   79.7999  222.5912 H   0  0  0  0  0  0  0  0  0  0  0  0
  137.3952   78.0310  222.4248 H   0  0  0  0  0  0  0  0  0  0  0  0
  139.1987   79.8083  224.0166 H   0  0  0  0  0  0  0  0  0  0  0  0
  138.9215   78.0940  224.2364 H   0  0  0  0  0  0  0  0  0  0  0  0
  141.3281   78.7904  223.1436 H   0  0  0  0  0  0  0  0  0  0  0  0
  138.5445   76.2670  223.0998 H   0  0  0  0  0  0  0  0  0  0  0  0
  141.7421   74.5516  220.8632 H   0  0  0  0  0  0  0  0  0  0  0  0
  142.2460   77.0650  221.2110 H   0  0  0  0  0  0  0  0  0  0  0  0
  141.7886   76.0874  216.6791 H   0  0  0  0  0  0  0  0  0  0  0  0
  142.8105   73.8444  216.5219 H   0  0  0  0  0  0  0  0  0  0  0  0
  144.1704   72.1796  217.4758 H   0  0  0  0  0  0  0  0  0  0  0  0
  145.9814   72.8914  221.3292 H   0  0  0  0  0  0  0  0  0  0  0  0
  144.9310   75.1298  221.4338 H   0  0  0  0  0  0  0  0  0  0  0  0
  1  2  2  0
  2  3  1  0
  3  4  1  0
  4  5  1  0
  5  6  2  0
  5  7  1  0
  7  8  1  0
  8  9  1  0
  9 10  1  0
 10 11  1  0
 11 12  1  0
 12 13  2  0
 13 14  1  0
 14 15  2  0
 15 16  1  0
  2 17  1  0
 17 18  2  0
 18 19  1  0
 19 20  2  0
 20 21  1  0
 21 22  2  0
 22 23  1  0
 22 24  1  0
 24 25  2  0
 25 26  1  0
 26 27  2  0
 11  7  1  0
 16 12  1  0
 27 17  1  0
 26 20  1  0
  3 28  1  0
  4 29  1  0
  4 30  1  0
  8 31  1  0
  8 32  1  0
  9 33  1  0
  9 34  1  0
 10 35  1  0
 10 36  1  0
 11 37  1  1
 13 38  1  0
 15 39  1  0
 16 40  1  0
 18 41  1  0
 19 42  1  0
 21 43  1  0
 24 44  1  0
 25 45  1  0
M  END
>  <smiles>  (50) 
O=C(NCC(=O)N1CCC[C@H]1c1cnc[nH]1)c1ccc2cc(Cl)ccc2n1

>  <score_type>  (50) 
oracle

>  <origin>  (50) 
autodockgpu

>  <m_score__min__energy>  (50) 
-8.2200000000000006

>  <m_primary>  (50) 
energy

>  <rmsd>  (50) 
7.385540073061248

>  <m_score__min__rmsd>  (50) 
7.385540073061248

>  <meeko>  (50) 
{"free_energy": -5.92, "intermolecular_energy": -7.41, "internal_energy": -2.6, "cluster_size": 3, "cluster_id": 7, "rank_in_cluster": 2}

>  <energy>  (50) 
-6.0

>  <cluster_rmsd>  (50) 
0.0

>  <cluster>  (50) 
9

$$$$
