
     RDKit          3D

 54 58  0  0  0  0  0  0  0  0999 V2000
  141.9310   81.2630  223.8060 O   0  0  0  0  0  0  0  0  0  0  0  0
  141.3180   80.4000  223.0960 C   0  0  0  0  0  0  0  0  0  0  0  0
  142.0890   79.5850  222.1340 C   0  0  0  0  0  0  0  0  0  0  0  0
  141.1660   78.6670  221.4370 C   0  0  0  0  0  0  0  0  0  0  0  0
  141.7540   77.7620  220.4280 C   0  0  0  0  0  0  0  0  0  0  0  0
  142.2820   78.2320  219.2450 C   0  0  0  0  0  0  0  0  0  0  0  0
  142.8390   77.4380  218.2780 C   0  0  0  0  0  0  0  0  0  0  0  0
  142.8710   76.0660  218.5070 C   0  0  0  0  0  0  0  0  0  0  0  0
  142.3510   75.5590  219.6790 C   0  0  0  0  0  0  0  0  0  0  0  0
  142.3600   74.1270  219.9700 C   0  0  0  0  0  0  0  0  0  0  0  0
  141.2350   73.5700  220.0720 O   0  0  0  0  0  0  0  0  0  0  0  0
  143.5910   73.4140  220.1250 N   0  0  0  0  0  0  0  0  0  0  0  0
  144.8300   74.1370  219.9900 C   0  0  0  0  0  0  0  0  0  0  0  0
  145.9040   73.2660  219.3990 C   0  0  0  0  0  0  0  0  0  0  0  0
  145.8720   71.9680  220.0450 N   0  0  0  0  0  0  0  0  0  0  0  0
  144.6410   71.2650  219.7750 C   0  0  0  0  0  0  0  0  0  0  0  0
  143.5060   71.9970  220.4110 C   0  0  0  0  0  0  0  0  0  0  0  0
  141.7940   76.3820  220.6440 C   0  0  0  0  0  0  0  0  0  0  0  0
  139.9030   78.5890  221.6360 N   0  0  0  0  0  0  0  0  0  0  0  0
  139.1890   79.3860  222.5680 C   0  0  0  0  0  0  0  0  0  0  0  0
  137.8410   79.2330  222.7110 C   0  0  0  0  0  0  0  0  0  0  0  0
  137.2040   80.0470  223.6430 C   0  0  0  0  0  0  0  0  0  0  0  0
  137.8620   80.9730  224.4050 C   0  0  0  0  0  0  0  0  0  0  0  0
  137.1180   81.7880  225.3610 C   0  0  0  0  0  0  0  0  0  0  0  0
  136.6060   83.0310  225.0450 C   0  0  0  0  0  0  0  0  0  0  0  0
  135.9100   83.7530  225.9940 C   0  0  0  0  0  0  0  0  0  0  0  0
  135.7030   83.2550  227.2850 C   0  0  0  0  0  0  0  0  0  0  0  0
  135.0150   83.9720  228.2170 F   0  0  0  0  0  0  0  0  0  0  0  0
  136.2330   82.0080  227.5530 C   0  0  0  0  0  0  0  0  0  0  0  0
  136.9320   81.2700  226.6190 C   0  0  0  0  0  0  0  0  0  0  0  0
  139.2320   81.0960  224.2270 C   0  0  0  0  0  0  0  0  0  0  0  0
  139.8840   80.2940  223.3040 C   0  0  0  0  0  0  0  0  0  0  0  0
  142.5783   80.2434  221.4011 H   0  0  0  0  0  0  0  0  0  0  0  0
  142.8576   79.0065  222.6676 H   0  0  0  0  0  0  0  0  0  0  0  0
  142.2542   79.3169  219.0655 H   0  0  0  0  0  0  0  0  0  0  0  0
  143.2470   77.8701  217.3523 H   0  0  0  0  0  0  0  0  0  0  0  0
  143.3085   75.3899  217.7576 H   0  0  0  0  0  0  0  0  0  0  0  0
  144.6697   75.0049  219.3335 H   0  0  0  0  0  0  0  0  0  0  0  0
  145.1550   74.4625  220.9892 H   0  0  0  0  0  0  0  0  0  0  0  0
  145.7276   73.1448  218.3200 H   0  0  0  0  0  0  0  0  0  0  0  0
  146.8875   73.7333  219.5552 H   0  0  0  0  0  0  0  0  0  0  0  0
  146.1020   72.0490  221.0560 H   0  0  0  0  0  0  0  0  0  0  0  0
  144.4800   71.2098  218.6882 H   0  0  0  0  0  0  0  0  0  0  0  0
  144.7000   70.2466  220.1866 H   0  0  0  0  0  0  0  0  0  0  0  0
  142.5567   71.6048  220.0174 H   0  0  0  0  0  0  0  0  0  0  0  0
  143.5549   71.8509  221.5002 H   0  0  0  0  0  0  0  0  0  0  0  0
  141.3870   75.9533  221.5716 H   0  0  0  0  0  0  0  0  0  0  0  0
  137.2812   78.4973  222.1149 H   0  0  0  0  0  0  0  0  0  0  0  0
  136.1170   79.9404  223.7734 H   0  0  0  0  0  0  0  0  0  0  0  0
  136.7527   83.4460  224.0369 H   0  0  0  0  0  0  0  0  0  0  0  0
  135.5090   84.7424  225.7290 H   0  0  0  0  0  0  0  0  0  0  0  0
  136.0915   81.5831  228.5577 H   0  0  0  0  0  0  0  0  0  0  0  0
  137.3347   80.2800  226.8791 H   0  0  0  0  0  0  0  0  0  0  0  0
  139.8003   81.8294  224.8179 H   0  0  0  0  0  0  0  0  0  0  0  0
  1  2  2  0
  2  3  1  0
  3  4  1  0
  4  5  1  0
  5  6  2  0
  6  7  1  0
  7  8  2  0
  8  9  1  0
  9 10  1  0
 10 11  2  0
 10 12  1  0
 12 13  1  0
 13 14  1  0
 14 15  1  0
 15 16  1  0
 16 17  1  0
  9 18  2  0
  4 19  2  0
 19 20  1  0
 20 21  2  0
 21 22  1  0
 22 23  2  0
 23 24  1  0
 24 25  2  0
 25 26  1  0
 26 27  2  0
 27 28  1  0
 27 29  1  0
 29 30  2  0
 23 31  1  0
 31 32  2  0
 32  2  1  0
 18  5  1  0
 32 20  1  0
 17 12  1  0
 30 24  1  0
  3 33  1  0
  3 34  1  0
  6 35  1  0
  7 36  1  0
  8 37  1  0
 13 38  1  0
 13 39  1  0
 14 40  1  0
 14 41  1  0
 15 42  1  0
 16 43  1  0
 16 44  1  0
 17 45  1  0
 17 46  1  0
 18 47  1  0
 21 48  1  0
 22 49  1  0
 25 50  1  0
 26 51  1  0
 29 52  1  0
 30 53  1  0
 31 54  1  0
M  END
>  <smiles>  (1) 
O=C1CC(c2cccc(C(=O)N3CCNCC3)c2)=Nc2ccc(-c3ccc(F)cc3)cc21

>  <score_type>  (1) 
oracle

>  <origin>  (1) 
autodockgpu

>  <m_score__min__energy>  (1) 
-8.5

>  <m_primary>  (1) 
energy

>  <rmsd>  (1) 
8.562976330097701

>  <m_score__min__rmsd>  (1) 
8.562976330097701

>  <meeko>  (1) 
{"free_energy": -8.42, "intermolecular_energy": -9.31, "internal_energy": -0.93, "cluster_size": 45, "cluster_id": 1, "rank_in_cluster": 20}

>  <energy>  (1) 
-8.5

>  <cluster_rmsd>  (1) 
0.0

>  <cluster>  (1) 
1

$$$$

     RDKit          3D

 54 58  0  0  0  0  0  0  0  0999 V2000
  142.0060   80.8460  224.0370 O   0  0  0  0  0  0  0  0  0  0  0  0
  141.3760   80.1190  223.1990 C   0  0  0  0  0  0  0  0  0  0  0  0
  142.1450   79.3090  222.2320 C   0  0  0  0  0  0  0  0  0  0  0  0
  141.2010   78.5610  221.3770 C   0  0  0  0  0  0  0  0  0  0  0  0
  141.7850   77.6870  220.3390 C   0  0  0  0  0  0  0  0  0  0  0  0
  142.2990   78.1910  219.1640 C   0  0  0  0  0  0  0  0  0  0  0  0
  142.8500   77.4260  218.1710 C   0  0  0  0  0  0  0  0  0  0  0  0
  142.8920   76.0480  218.3640 C   0  0  0  0  0  0  0  0  0  0  0  0
  142.3860   75.5080  219.5270 C   0  0  0  0  0  0  0  0  0  0  0  0
  142.4050   74.0690  219.7800 C   0  0  0  0  0  0  0  0  0  0  0  0
  141.2920   73.4810  219.7500 O   0  0  0  0  0  0  0  0  0  0  0  0
  143.6330   73.3840  220.0430 N   0  0  0  0  0  0  0  0  0  0  0  0
  144.8590   74.1410  220.0560 C   0  0  0  0  0  0  0  0  0  0  0  0
  146.0130   73.3150  219.5560 C   0  0  0  0  0  0  0  0  0  0  0  0
  145.9510   71.9990  220.1610 N   0  0  0  0  0  0  0  0  0  0  0  0
  144.7750   71.2730  219.7470 C   0  0  0  0  0  0  0  0  0  0  0  0
  143.5600   71.9570  220.2820 C   0  0  0  0  0  0  0  0  0  0  0  0
  141.8340   76.3020  220.5180 C   0  0  0  0  0  0  0  0  0  0  0  0
  139.9240   78.6080  221.4620 N   0  0  0  0  0  0  0  0  0  0  0  0
  139.2120   79.3950  222.4030 C   0  0  0  0  0  0  0  0  0  0  0  0
  137.8480   79.3800  222.4180 C   0  0  0  0  0  0  0  0  0  0  0  0
  137.2140   80.1770  223.3680 C   0  0  0  0  0  0  0  0  0  0  0  0
  137.8900   80.9560  224.2660 C   0  0  0  0  0  0  0  0  0  0  0  0
  137.1480   81.7640  225.2300 C   0  0  0  0  0  0  0  0  0  0  0  0
  136.6460   83.0140  224.9280 C   0  0  0  0  0  0  0  0  0  0  0  0
  135.9510   83.7280  225.8840 C   0  0  0  0  0  0  0  0  0  0  0  0
  135.7360   83.2150  227.1670 C   0  0  0  0  0  0  0  0  0  0  0  0
  135.0500   83.9240  228.1070 F   0  0  0  0  0  0  0  0  0  0  0  0
  136.2570   81.9610  227.4220 C   0  0  0  0  0  0  0  0  0  0  0  0
  136.9550   81.2310  226.4800 C   0  0  0  0  0  0  0  0  0  0  0  0
  139.2760   80.9420  224.2150 C   0  0  0  0  0  0  0  0  0  0  0  0
  139.9250   80.1550  223.2770 C   0  0  0  0  0  0  0  0  0  0  0  0
  142.7649   79.9693  221.6078 H   0  0  0  0  0  0  0  0  0  0  0  0
  142.7976   78.6060  222.7704 H   0  0  0  0  0  0  0  0  0  0  0  0
  142.2643   79.2801  219.0138 H   0  0  0  0  0  0  0  0  0  0  0  0
  143.2457   77.8844  217.2527 H   0  0  0  0  0  0  0  0  0  0  0  0
  143.3262   75.3942  217.5933 H   0  0  0  0  0  0  0  0  0  0  0  0
  144.7428   75.0236  219.4098 H   0  0  0  0  0  0  0  0  0  0  0  0
  145.0704   74.4444  221.0920 H   0  0  0  0  0  0  0  0  0  0  0  0
  145.9518   73.2207  218.4618 H   0  0  0  0  0  0  0  0  0  0  0  0
  146.9618   73.8024  219.8248 H   0  0  0  0  0  0  0  0  0  0  0  0
  146.0740   72.0560  221.1930 H   0  0  0  0  0  0  0  0  0  0  0  0
  144.7277   71.2456  218.6484 H   0  0  0  0  0  0  0  0  0  0  0  0
  144.8205   70.2448  220.1352 H   0  0  0  0  0  0  0  0  0  0  0  0
  142.6674   71.5518  219.7829 H   0  0  0  0  0  0  0  0  0  0  0  0
  143.5017   71.7809  221.3663 H   0  0  0  0  0  0  0  0  0  0  0  0
  141.4377   75.8468  221.4376 H   0  0  0  0  0  0  0  0  0  0  0  0
  137.2734   78.7647  221.7100 H   0  0  0  0  0  0  0  0  0  0  0  0
  136.1144   80.1801  223.3975 H   0  0  0  0  0  0  0  0  0  0  0  0
  136.7996   83.4412  223.9260 H   0  0  0  0  0  0  0  0  0  0  0  0
  135.5574   84.7234  225.6305 H   0  0  0  0  0  0  0  0  0  0  0  0
  136.1092   81.5242  228.4207 H   0  0  0  0  0  0  0  0  0  0  0  0
  137.3511   80.2353  226.7283 H   0  0  0  0  0  0  0  0  0  0  0  0
  139.8592   81.5547  224.9181 H   0  0  0  0  0  0  0  0  0  0  0  0
  1  2  2  0
  2  3  1  0
  3  4  1  0
  4  5  1  0
  5  6  2  0
  6  7  1  0
  7  8  2  0
  8  9  1  0
  9 10  1  0
 10 11  2  0
 10 12  1  0
 12 13  1  0
 13 14  1  0
 14 15  1  0
 15 16  1  0
 16 17  1  0
  9 18  2  0
  4 19  2  0
 19 20  1  0
 20 21  2  0
 21 22  1  0
 22 23  2  0
 23 24  1  0
 24 25  2  0
 25 26  1  0
 26 27  2  0
 27 28  1  0
 27 29  1  0
 29 30  2  0
 23 31  1  0
 31 32  2  0
 32  2  1  0
 18  5  1  0
 32 20  1  0
 17 12  1  0
 30 24  1  0
  3 33  1  0
  3 34  1  0
  6 35  1  0
  7 36  1  0
  8 37  1  0
 13 38  1  0
 13 39  1  0
 14 40  1  0
 14 41  1  0
 15 42  1  0
 16 43  1  0
 16 44  1  0
 17 45  1  0
 17 46  1  0
 18 47  1  0
 21 48  1  0
 22 49  1  0
 25 50  1  0
 26 51  1  0
 29 52  1  0
 30 53  1  0
 31 54  1  0
M  END
>  <smiles>  (2) 
O=C1CC(c2cccc(C(=O)N3CCNCC3)c2)=Nc2ccc(-c3ccc(F)cc3)cc21

>  <score_type>  (2) 
oracle

>  <origin>  (2) 
autodockgpu

>  <m_score__min__energy>  (2) 
-8.5

>  <m_primary>  (2) 
energy

>  <rmsd>  (2) 
8.497600045552415

>  <m_score__min__rmsd>  (2) 
8.497600045552415

>  <meeko>  (2) 
{"free_energy": -8.4, "intermolecular_energy": -9.29, "internal_energy": -0.96, "cluster_size": 45, "cluster_id": 1, "rank_in_cluster": 23}

>  <energy>  (2) 
-8.49

>  <cluster_rmsd>  (2) 
0.1

>  <cluster>  (2) 
1

$$$$

     RDKit          3D

 54 58  0  0  0  0  0  0  0  0999 V2000
  141.9310   80.8440  224.0370 O   0  0  0  0  0  0  0  0  0  0  0  0
  141.3080   80.0830  223.2250 C   0  0  0  0  0  0  0  0  0  0  0  0
  142.0850   79.2530  222.2810 C   0  0  0  0  0  0  0  0  0  0  0  0
  141.1480   78.4680  221.4530 C   0  0  0  0  0  0  0  0  0  0  0  0
  141.7400   77.5690  220.4410 C   0  0  0  0  0  0  0  0  0  0  0  0
  142.2500   78.0430  219.2510 C   0  0  0  0  0  0  0  0  0  0  0  0
  142.8090   77.2540  218.2810 C   0  0  0  0  0  0  0  0  0  0  0  0
  142.8630   75.8830  218.5140 C   0  0  0  0  0  0  0  0  0  0  0  0
  142.3620   75.3720  219.6930 C   0  0  0  0  0  0  0  0  0  0  0  0
  142.3950   73.9410  219.9880 C   0  0  0  0  0  0  0  0  0  0  0  0
  141.2800   73.3740  220.1280 O   0  0  0  0  0  0  0  0  0  0  0  0
  143.6370   73.2420  220.1050 N   0  0  0  0  0  0  0  0  0  0  0  0
  144.8640   73.9760  219.9280 C   0  0  0  0  0  0  0  0  0  0  0  0
  145.9270   73.1140  219.3050 C   0  0  0  0  0  0  0  0  0  0  0  0
  145.9290   71.8180  219.9560 N   0  0  0  0  0  0  0  0  0  0  0  0
  144.6980   71.1020  219.7280 C   0  0  0  0  0  0  0  0  0  0  0  0
  143.5760   71.8240  220.3990 C   0  0  0  0  0  0  0  0  0  0  0  0
  141.8020   76.1900  220.6600 C   0  0  0  0  0  0  0  0  0  0  0  0
  139.8710   78.5000  221.5400 N   0  0  0  0  0  0  0  0  0  0  0  0
  139.1510   79.3080  222.4590 C   0  0  0  0  0  0  0  0  0  0  0  0
  137.7880   79.2760  222.4780 C   0  0  0  0  0  0  0  0  0  0  0  0
  137.1470   80.0950  223.4040 C   0  0  0  0  0  0  0  0  0  0  0  0
  137.8150   80.9100  224.2750 C   0  0  0  0  0  0  0  0  0  0  0  0
  137.0650   81.7380  225.2160 C   0  0  0  0  0  0  0  0  0  0  0  0
  136.5080   82.9510  224.8640 C   0  0  0  0  0  0  0  0  0  0  0  0
  135.8090   83.6870  225.8010 C   0  0  0  0  0  0  0  0  0  0  0  0
  135.6450   83.2330  227.1130 C   0  0  0  0  0  0  0  0  0  0  0  0
  134.9540   83.9640  228.0330 F   0  0  0  0  0  0  0  0  0  0  0  0
  136.2190   82.0140  227.4170 C   0  0  0  0  0  0  0  0  0  0  0  0
  136.9230   81.2630  226.4960 C   0  0  0  0  0  0  0  0  0  0  0  0
  139.2010   80.9110  224.2210 C   0  0  0  0  0  0  0  0  0  0  0  0
  139.8570   80.1030  223.3060 C   0  0  0  0  0  0  0  0  0  0  0  0
  142.6951   79.9013  221.6348 H   0  0  0  0  0  0  0  0  0  0  0  0
  142.7481   78.5752  222.8386 H   0  0  0  0  0  0  0  0  0  0  0  0
  142.2050   79.1268  219.0685 H   0  0  0  0  0  0  0  0  0  0  0  0
  143.2017   77.6889  217.3501 H   0  0  0  0  0  0  0  0  0  0  0  0
  143.3027   75.2109  217.7623 H   0  0  0  0  0  0  0  0  0  0  0  0
  144.6742   74.8404  219.2747 H   0  0  0  0  0  0  0  0  0  0  0  0
  145.2179   74.3072  220.9155 H   0  0  0  0  0  0  0  0  0  0  0  0
  145.7168   72.9872  218.2327 H   0  0  0  0  0  0  0  0  0  0  0  0
  146.9103   73.5917  219.4274 H   0  0  0  0  0  0  0  0  0  0  0  0
  146.1910   71.9040  220.9590 H   0  0  0  0  0  0  0  0  0  0  0  0
  144.5024   71.0422  218.6472 H   0  0  0  0  0  0  0  0  0  0  0  0
  144.7810   70.0855  220.1400 H   0  0  0  0  0  0  0  0  0  0  0  0
  142.6185   71.4203  220.0381 H   0  0  0  0  0  0  0  0  0  0  0  0
  143.6615   71.6821  221.4865 H   0  0  0  0  0  0  0  0  0  0  0  0
  141.4094   75.7582  221.5924 H   0  0  0  0  0  0  0  0  0  0  0  0
  137.2195   78.6313  221.7917 H   0  0  0  0  0  0  0  0  0  0  0  0
  136.0475   80.0857  223.4363 H   0  0  0  0  0  0  0  0  0  0  0  0
  136.6207   83.3313  223.8380 H   0  0  0  0  0  0  0  0  0  0  0  0
  135.3713   84.6527  225.5080 H   0  0  0  0  0  0  0  0  0  0  0  0
  136.1105   81.6233  228.4396 H   0  0  0  0  0  0  0  0  0  0  0  0
  137.3639   80.2974  226.7844 H   0  0  0  0  0  0  0  0  0  0  0  0
  139.7785   81.5521  224.9033 H   0  0  0  0  0  0  0  0  0  0  0  0
  1  2  2  0
  2  3  1  0
  3  4  1  0
  4  5  1  0
  5  6  2  0
  6  7  1  0
  7  8  2  0
  8  9  1  0
  9 10  1  0
 10 11  2  0
 10 12  1  0
 12 13  1  0
 13 14  1  0
 14 15  1  0
 15 16  1  0
 16 17  1  0
  9 18  2  0
  4 19  2  0
 19 20  1  0
 20 21  2  0
 21 22  1  0
 22 23  2  0
 23 24  1  0
 24 25  2  0
 25 26  1  0
 26 27  2  0
 27 28  1  0
 27 29  1  0
 29 30  2  0
 23 31  1  0
 31 32  2  0
 32  2  1  0
 18  5  1  0
 32 20  1  0
 17 12  1  0
 30 24  1  0
  3 33  1  0
  3 34  1  0
  6 35  1  0
  7 36  1  0
  8 37  1  0
 13 38  1  0
 13 39  1  0
 14 40  1  0
 14 41  1  0
 15 42  1  0
 16 43  1  0
 16 44  1  0
 17 45  1  0
 17 46  1  0
 18 47  1  0
 21 48  1  0
 22 49  1  0
 25 50  1  0
 26 51  1  0
 29 52  1  0
 30 53  1  0
 31 54  1  0
M  END
>  <smiles>  (3) 
O=C1CC(c2cccc(C(=O)N3CCNCC3)c2)=Nc2ccc(-c3ccc(F)cc3)cc21

>  <score_type>  (3) 
oracle

>  <origin>  (3) 
autodockgpu

>  <m_score__min__energy>  (3) 
-8.5

>  <m_primary>  (3) 
energy

>  <rmsd>  (3) 
8.45949132472011

>  <m_score__min__rmsd>  (3) 
8.45949132472011

>  <meeko>  (3) 
{"free_energy": -8.48, "intermolecular_energy": -9.38, "internal_energy": -0.92, "cluster_size": 45, "cluster_id": 1, "rank_in_cluster": 6}

>  <energy>  (3) 
-8.49

>  <cluster_rmsd>  (3) 
0.1

>  <cluster>  (3) 
1

$$$$

     RDKit          3D

 54 58  0  0  0  0  0  0  0  0999 V2000
  141.9640   81.0610  223.8500 O   0  0  0  0  0  0  0  0  0  0  0  0
  141.3430   80.2330  223.1050 C   0  0  0  0  0  0  0  0  0  0  0  0
  142.1120   79.4250  222.1360 C   0  0  0  0  0  0  0  0  0  0  0  0
  141.1800   78.5500  221.3970 C   0  0  0  0  0  0  0  0  0  0  0  0
  141.7650   77.6590  220.3740 C   0  0  0  0  0  0  0  0  0  0  0  0
  142.2770   78.1430  219.1900 C   0  0  0  0  0  0  0  0  0  0  0  0
  142.8300   77.3620  218.2100 C   0  0  0  0  0  0  0  0  0  0  0  0
  142.8750   75.9870  218.4280 C   0  0  0  0  0  0  0  0  0  0  0  0
  142.3710   75.4670  219.6000 C   0  0  0  0  0  0  0  0  0  0  0  0
  142.3930   74.0320  219.8790 C   0  0  0  0  0  0  0  0  0  0  0  0
  141.2750   73.4560  219.9360 O   0  0  0  0  0  0  0  0  0  0  0  0
  143.6300   73.3390  220.0710 N   0  0  0  0  0  0  0  0  0  0  0  0
  144.8610   74.0830  219.9860 C   0  0  0  0  0  0  0  0  0  0  0  0
  145.9690   73.2350  219.4250 C   0  0  0  0  0  0  0  0  0  0  0  0
  145.9370   71.9310  220.0590 N   0  0  0  0  0  0  0  0  0  0  0  0
  144.7280   71.2110  219.7390 C   0  0  0  0  0  0  0  0  0  0  0  0
  143.5590   71.9170  220.3420 C   0  0  0  0  0  0  0  0  0  0  0  0
  141.8170   76.2770  220.5780 C   0  0  0  0  0  0  0  0  0  0  0  0
  139.9110   78.5000  221.5700 N   0  0  0  0  0  0  0  0  0  0  0  0
  139.2000   79.2880  222.5100 C   0  0  0  0  0  0  0  0  0  0  0  0
  137.8460   79.1660  222.6230 C   0  0  0  0  0  0  0  0  0  0  0  0
  137.2120   79.9710  223.5660 C   0  0  0  0  0  0  0  0  0  0  0  0
  137.8780   80.8580  224.3650 C   0  0  0  0  0  0  0  0  0  0  0  0
  137.1360   81.6660  225.3290 C   0  0  0  0  0  0  0  0  0  0  0  0
  136.9410   81.2740  226.6390 C   0  0  0  0  0  0  0  0  0  0  0  0
  136.2300   82.0840  227.5030 C   0  0  0  0  0  0  0  0  0  0  0  0
  135.6950   83.3060  227.0860 C   0  0  0  0  0  0  0  0  0  0  0  0
  134.9940   84.1010  227.9430 F   0  0  0  0  0  0  0  0  0  0  0  0
  135.9160   83.6550  225.7670 C   0  0  0  0  0  0  0  0  0  0  0  0
  136.6240   82.8600  224.8870 C   0  0  0  0  0  0  0  0  0  0  0  0
  139.2540   80.9510  224.2160 C   0  0  0  0  0  0  0  0  0  0  0  0
  139.9030   80.1580  223.2830 C   0  0  0  0  0  0  0  0  0  0  0  0
  142.6318   80.0902  221.4308 H   0  0  0  0  0  0  0  0  0  0  0  0
  142.8554   78.8131  222.6678 H   0  0  0  0  0  0  0  0  0  0  0  0
  142.2391   79.2292  219.0204 H   0  0  0  0  0  0  0  0  0  0  0  0
  143.2246   77.8050  217.2837 H   0  0  0  0  0  0  0  0  0  0  0  0
  143.3103   75.3204  217.6690 H   0  0  0  0  0  0  0  0  0  0  0  0
  144.7095   74.9545  219.3322 H   0  0  0  0  0  0  0  0  0  0  0  0
  145.1456   74.4041  220.9989 H   0  0  0  0  0  0  0  0  0  0  0  0
  145.8314   73.1202  218.3397 H   0  0  0  0  0  0  0  0  0  0  0  0
  146.9386   73.7171  219.6186 H   0  0  0  0  0  0  0  0  0  0  0  0
  146.1300   72.0060  221.0780 H   0  0  0  0  0  0  0  0  0  0  0  0
  144.6060   71.1649  218.6468 H   0  0  0  0  0  0  0  0  0  0  0  0
  144.7897   70.1895  220.1424 H   0  0  0  0  0  0  0  0  0  0  0  0
  142.6307   71.5125  219.9123 H   0  0  0  0  0  0  0  0  0  0  0  0
  143.5721   71.7612  221.4308 H   0  0  0  0  0  0  0  0  0  0  0  0
  141.4221   75.8371  221.5056 H   0  0  0  0  0  0  0  0  0  0  0  0
  137.2793   78.4619  221.9961 H   0  0  0  0  0  0  0  0  0  0  0  0
  136.1203   79.8890  223.6733 H   0  0  0  0  0  0  0  0  0  0  0  0
  137.3517   80.3173  226.9941 H   0  0  0  0  0  0  0  0  0  0  0  0
  136.0814   81.7597  228.5436 H   0  0  0  0  0  0  0  0  0  0  0  0
  135.5095   84.6095  225.4014 H   0  0  0  0  0  0  0  0  0  0  0  0
  136.7755   83.1798  223.8455 H   0  0  0  0  0  0  0  0  0  0  0  0
  139.8291   81.6531  224.8375 H   0  0  0  0  0  0  0  0  0  0  0  0
  1  2  2  0
  2  3  1  0
  3  4  1  0
  4  5  1  0
  5  6  2  0
  6  7  1  0
  7  8  2  0
  8  9  1  0
  9 10  1  0
 10 11  2  0
 10 12  1  0
 12 13  1  0
 13 14  1  0
 14 15  1  0
 15 16  1  0
 16 17  1  0
  9 18  2  0
  4 19  2  0
 19 20  1  0
 20 21  2  0
 21 22  1  0
 22 23  2  0
 23 24  1  0
 24 25  2  0
 25 26  1  0
 26 27  2  0
 27 28  1  0
 27 29  1  0
 29 30  2  0
 23 31  1  0
 31 32  2  0
 32  2  1  0
 18  5  1  0
 32 20  1  0
 17 12  1  0
 30 24  1  0
  3 33  1  0
  3 34  1  0
  6 35  1  0
  7 36  1  0
  8 37  1  0
 13 38  1  0
 13 39  1  0
 14 40  1  0
 14 41  1  0
 15 42  1  0
 16 43  1  0
 16 44  1  0
 17 45  1  0
 17 46  1  0
 18 47  1  0
 21 48  1  0
 22 49  1  0
 25 50  1  0
 26 51  1  0
 29 52  1  0
 30 53  1  0
 31 54  1  0
M  END
>  <smiles>  (4) 
O=C1CC(c2cccc(C(=O)N3CCNCC3)c2)=Nc2ccc(-c3ccc(F)cc3)cc21

>  <score_type>  (4) 
oracle

>  <origin>  (4) 
autodockgpu

>  <m_score__min__energy>  (4) 
-8.5

>  <m_primary>  (4) 
energy

>  <rmsd>  (4) 
8.516235731099444

>  <m_score__min__rmsd>  (4) 
8.516235731099444

>  <meeko>  (4) 
{"free_energy": -8.46, "intermolecular_energy": -9.36, "internal_energy": -0.94, "cluster_size": 45, "cluster_id": 1, "rank_in_cluster": 7}

>  <energy>  (4) 
-8.49

>  <cluster_rmsd>  (4) 
0.07

>  <cluster>  (4) 
1

$$$$

     RDKit          3D

 54 58  0  0  0  0  0  0  0  0999 V2000
  141.9810   80.7930  224.0720 O   0  0  0  0  0  0  0  0  0  0  0  0
  141.3520   80.0700  223.2310 C   0  0  0  0  0  0  0  0  0  0  0  0
  142.1230   79.2490  222.2740 C   0  0  0  0  0  0  0  0  0  0  0  0
  141.1810   78.5090  221.4120 C   0  0  0  0  0  0  0  0  0  0  0  0
  141.7660   77.6250  220.3830 C   0  0  0  0  0  0  0  0  0  0  0  0
  142.2700   78.1160  219.1980 C   0  0  0  0  0  0  0  0  0  0  0  0
  142.8220   77.3420  218.2130 C   0  0  0  0  0  0  0  0  0  0  0  0
  142.8770   75.9670  218.4250 C   0  0  0  0  0  0  0  0  0  0  0  0
  142.3820   75.4390  219.5980 C   0  0  0  0  0  0  0  0  0  0  0  0
  142.4150   74.0040  219.8710 C   0  0  0  0  0  0  0  0  0  0  0  0
  141.3000   73.4220  219.9380 O   0  0  0  0  0  0  0  0  0  0  0  0
  143.6560   73.3160  220.0490 N   0  0  0  0  0  0  0  0  0  0  0  0
  144.8820   74.0670  219.9540 C   0  0  0  0  0  0  0  0  0  0  0  0
  145.9900   73.2270  219.3790 C   0  0  0  0  0  0  0  0  0  0  0  0
  145.9700   71.9210  220.0080 N   0  0  0  0  0  0  0  0  0  0  0  0
  144.7620   71.1950  219.6980 C   0  0  0  0  0  0  0  0  0  0  0  0
  143.5950   71.8940  220.3150 C   0  0  0  0  0  0  0  0  0  0  0  0
  141.8280   76.2420  220.5810 C   0  0  0  0  0  0  0  0  0  0  0  0
  139.9030   78.5690  221.4820 N   0  0  0  0  0  0  0  0  0  0  0  0
  139.1890   79.3670  222.4130 C   0  0  0  0  0  0  0  0  0  0  0  0
  137.8250   79.3670  222.4130 C   0  0  0  0  0  0  0  0  0  0  0  0
  137.1900   80.1740  223.3530 C   0  0  0  0  0  0  0  0  0  0  0  0
  137.8650   80.9490  224.2560 C   0  0  0  0  0  0  0  0  0  0  0  0
  137.1200   81.7680  225.2090 C   0  0  0  0  0  0  0  0  0  0  0  0
  136.6050   83.0080  224.8870 C   0  0  0  0  0  0  0  0  0  0  0  0
  135.9090   83.7330  225.8340 C   0  0  0  0  0  0  0  0  0  0  0  0
  135.7070   83.2420  227.1280 C   0  0  0  0  0  0  0  0  0  0  0  0
  135.0190   83.9630  228.0580 F   0  0  0  0  0  0  0  0  0  0  0  0
  136.2410   81.9980  227.4030 C   0  0  0  0  0  0  0  0  0  0  0  0
  136.9400   81.2570  226.4700 C   0  0  0  0  0  0  0  0  0  0  0  0
  139.2510   80.9190  224.2200 C   0  0  0  0  0  0  0  0  0  0  0  0
  139.9010   80.1220  223.2920 C   0  0  0  0  0  0  0  0  0  0  0  0
  142.7562   79.9011  221.6545 H   0  0  0  0  0  0  0  0  0  0  0  0
  142.7627   78.5408  222.8211 H   0  0  0  0  0  0  0  0  0  0  0  0
  142.2258   79.2026  219.0326 H   0  0  0  0  0  0  0  0  0  0  0  0
  143.2087   77.7908  217.2862 H   0  0  0  0  0  0  0  0  0  0  0  0
  143.3128   75.3062  217.6611 H   0  0  0  0  0  0  0  0  0  0  0  0
  144.7190   74.9397  219.3045 H   0  0  0  0  0  0  0  0  0  0  0  0
  145.1749   74.3861  220.9651 H   0  0  0  0  0  0  0  0  0  0  0  0
  145.8433   73.1159  218.2945 H   0  0  0  0  0  0  0  0  0  0  0  0
  146.9589   73.7134  219.5653 H   0  0  0  0  0  0  0  0  0  0  0  0
  146.1730   71.9930  221.0250 H   0  0  0  0  0  0  0  0  0  0  0  0
  144.6293   71.1510  218.6069 H   0  0  0  0  0  0  0  0  0  0  0  0
  144.8331   70.1727  220.0977 H   0  0  0  0  0  0  0  0  0  0  0  0
  142.6646   71.4865  219.8928 H   0  0  0  0  0  0  0  0  0  0  0  0
  143.6199   71.7346  221.4031 H   0  0  0  0  0  0  0  0  0  0  0  0
  141.4403   75.7961  221.5089 H   0  0  0  0  0  0  0  0  0  0  0  0
  137.2514   78.7556  221.7008 H   0  0  0  0  0  0  0  0  0  0  0  0
  136.0902   80.1893  223.3706 H   0  0  0  0  0  0  0  0  0  0  0  0
  136.7491   83.4182  223.8765 H   0  0  0  0  0  0  0  0  0  0  0  0
  135.5040   84.7196  225.5644 H   0  0  0  0  0  0  0  0  0  0  0  0
  136.1034   81.5785  228.4105 H   0  0  0  0  0  0  0  0  0  0  0  0
  137.3472   80.2699  226.7344 H   0  0  0  0  0  0  0  0  0  0  0  0
  139.8335   81.5274  224.9275 H   0  0  0  0  0  0  0  0  0  0  0  0
  1  2  2  0
  2  3  1  0
  3  4  1  0
  4  5  1  0
  5  6  2  0
  6  7  1  0
  7  8  2  0
  8  9  1  0
  9 10  1  0
 10 11  2  0
 10 12  1  0
 12 13  1  0
 13 14  1  0
 14 15  1  0
 15 16  1  0
 16 17  1  0
  9 18  2  0
  4 19  2  0
 19 20  1  0
 20 21  2  0
 21 22  1  0
 22 23  2  0
 23 24  1  0
 24 25  2  0
 25 26  1  0
 26 27  2  0
 27 28  1  0
 27 29  1  0
 29 30  2  0
 23 31  1  0
 31 32  2  0
 32  2  1  0
 18  5  1  0
 32 20  1  0
 17 12  1  0
 30 24  1  0
  3 33  1  0
  3 34  1  0
  6 35  1  0
  7 36  1  0
  8 37  1  0
 13 38  1  0
 13 39  1  0
 14 40  1  0
 14 41  1  0
 15 42  1  0
 16 43  1  0
 16 44  1  0
 17 45  1  0
 17 46  1  0
 18 47  1  0
 21 48  1  0
 22 49  1  0
 25 50  1  0
 26 51  1  0
 29 52  1  0
 30 53  1  0
 31 54  1  0
M  END
>  <smiles>  (5) 
O=C1CC(c2cccc(C(=O)N3CCNCC3)c2)=Nc2ccc(-c3ccc(F)cc3)cc21

>  <score_type>  (5) 
oracle

>  <origin>  (5) 
autodockgpu

>  <m_score__min__energy>  (5) 
-8.5

>  <m_primary>  (5) 
energy

>  <rmsd>  (5) 
8.476795360547463

>  <m_score__min__rmsd>  (5) 
8.476795360547463

>  <meeko>  (5) 
{"free_energy": -8.45, "intermolecular_energy": -9.34, "internal_energy": -0.94, "cluster_size": 45, "cluster_id": 1, "rank_in_cluster": 15}

>  <energy>  (5) 
-8.48

>  <cluster_rmsd>  (5) 
0.1

>  <cluster>  (5) 
1

$$$$

     RDKit          3D

 54 58  0  0  0  0  0  0  0  0999 V2000
  142.4020   73.1580  220.4830 O   0  0  0  0  0  0  0  0  0  0  0  0
  141.2900   73.3390  221.0800 C   0  0  0  0  0  0  0  0  0  0  0  0
  140.6310   72.1880  221.7330 C   0  0  0  0  0  0  0  0  0  0  0  0
  139.3700   72.6460  222.3490 C   0  0  0  0  0  0  0  0  0  0  0  0
  138.5620   71.6310  223.0560 C   0  0  0  0  0  0  0  0  0  0  0  0
  137.1880   71.7110  223.1260 C   0  0  0  0  0  0  0  0  0  0  0  0
  136.3930   70.7990  223.7680 C   0  0  0  0  0  0  0  0  0  0  0  0
  137.0170   69.7200  224.3890 C   0  0  0  0  0  0  0  0  0  0  0  0
  138.3900   69.6080  224.3390 C   0  0  0  0  0  0  0  0  0  0  0  0
  139.0950   68.4960  224.9740 C   0  0  0  0  0  0  0  0  0  0  0  0
  139.2060   67.4430  224.2940 O   0  0  0  0  0  0  0  0  0  0  0  0
  139.6250   68.6200  226.2970 N   0  0  0  0  0  0  0  0  0  0  0  0
  139.4490   69.8660  226.9990 C   0  0  0  0  0  0  0  0  0  0  0  0
  140.6170   70.1470  227.9040 C   0  0  0  0  0  0  0  0  0  0  0  0
  140.9630   68.9370  228.6240 N   0  0  0  0  0  0  0  0  0  0  0  0
  141.4310   67.9010  227.7350 C   0  0  0  0  0  0  0  0  0  0  0  0
  140.3090   67.4680  226.8490 C   0  0  0  0  0  0  0  0  0  0  0  0
  139.1740   70.5430  223.6840 C   0  0  0  0  0  0  0  0  0  0  0  0
  138.9210   73.8450  222.3210 N   0  0  0  0  0  0  0  0  0  0  0  0
  139.5770   74.9320  221.6860 C   0  0  0  0  0  0  0  0  0  0  0  0
  139.0210   76.1770  221.7090 C   0  0  0  0  0  0  0  0  0  0  0  0
  139.7180   77.1960  221.0650 C   0  0  0  0  0  0  0  0  0  0  0  0
  140.9110   77.0010  220.4260 C   0  0  0  0  0  0  0  0  0  0  0  0
  141.5780   78.1260  219.7750 C   0  0  0  0  0  0  0  0  0  0  0  0
  141.5320   79.4120  220.2740 C   0  0  0  0  0  0  0  0  0  0  0  0
  142.1840   80.4330  219.6110 C   0  0  0  0  0  0  0  0  0  0  0  0
  142.9010   80.1990  218.4330 C   0  0  0  0  0  0  0  0  0  0  0  0
  143.5430   81.2110  217.7840 F   0  0  0  0  0  0  0  0  0  0  0  0
  142.9180   78.8970  217.9730 C   0  0  0  0  0  0  0  0  0  0  0  0
  142.2720   77.8620  218.6210 C   0  0  0  0  0  0  0  0  0  0  0  0
  141.4400   75.7190  220.4270 C   0  0  0  0  0  0  0  0  0  0  0  0
  140.7610   74.6920  221.0620 C   0  0  0  0  0  0  0  0  0  0  0  0
  140.4155   71.4119  220.9838 H   0  0  0  0  0  0  0  0  0  0  0  0
  141.2925   71.7684  222.5053 H   0  0  0  0  0  0  0  0  0  0  0  0
  136.6974   72.5636  222.6338 H   0  0  0  0  0  0  0  0  0  0  0  0
  135.2994   70.9149  223.7922 H   0  0  0  0  0  0  0  0  0  0  0  0
  136.4184   68.9623  224.9158 H   0  0  0  0  0  0  0  0  0  0  0  0
  139.3578   70.6814  226.2663 H   0  0  0  0  0  0  0  0  0  0  0  0
  138.5396   69.7953  227.6138 H   0  0  0  0  0  0  0  0  0  0  0  0
  141.4774   70.4765  227.3030 H   0  0  0  0  0  0  0  0  0  0  0  0
  140.3490   70.9390  228.6188 H   0  0  0  0  0  0  0  0  0  0  0  0
  140.1880   68.6410  229.2510 H   0  0  0  0  0  0  0  0  0  0  0  0
  142.2562   68.2894  227.1200 H   0  0  0  0  0  0  0  0  0  0  0  0
  141.7882   67.0432  228.3238 H   0  0  0  0  0  0  0  0  0  0  0  0
  140.7116   66.8578  226.0271 H   0  0  0  0  0  0  0  0  0  0  0  0
  139.5935   66.8799  227.4425 H   0  0  0  0  0  0  0  0  0  0  0  0
  140.2679   70.4303  223.6584 H   0  0  0  0  0  0  0  0  0  0  0  0
  138.0630   76.3681  222.2146 H   0  0  0  0  0  0  0  0  0  0  0  0
  139.2875   78.2082  221.0706 H   0  0  0  0  0  0  0  0  0  0  0  0
  140.9762   79.6236  221.1994 H   0  0  0  0  0  0  0  0  0  0  0  0
  142.1385   81.4537  220.0186 H   0  0  0  0  0  0  0  0  0  0  0  0
  143.4710   78.6739  217.0487 H   0  0  0  0  0  0  0  0  0  0  0  0
  142.3134   76.8396  218.2172 H   0  0  0  0  0  0  0  0  0  0  0  0
  142.3975   75.5179  219.9242 H   0  0  0  0  0  0  0  0  0  0  0  0
  1  2  2  0
  2  3  1  0
  3  4  1  0
  4  5  1  0
  5  6  2  0
  6  7  1  0
  7  8  2  0
  8  9  1  0
  9 10  1  0
 10 11  2  0
 10 12  1  0
 12 13  1  0
 13 14  1  0
 14 15  1  0
 15 16  1  0
 16 17  1  0
  9 18  2  0
  4 19  2  0
 19 20  1  0
 20 21  2  0
 21 22  1  0
 22 23  2  0
 23 24  1  0
 24 25  2  0
 25 26  1  0
 26 27  2  0
 27 28  1  0
 27 29  1  0
 29 30  2  0
 23 31  1  0
 31 32  2  0
 32  2  1  0
 18  5  1  0
 32 20  1  0
 17 12  1  0
 30 24  1  0
  3 33  1  0
  3 34  1  0
  6 35  1  0
  7 36  1  0
  8 37  1  0
 13 38  1  0
 13 39  1  0
 14 40  1  0
 14 41  1  0
 15 42  1  0
 16 43  1  0
 16 44  1  0
 17 45  1  0
 17 46  1  0
 18 47  1  0
 21 48  1  0
 22 49  1  0
 25 50  1  0
 26 51  1  0
 29 52  1  0
 30 53  1  0
 31 54  1  0
M  END
>  <smiles>  (6) 
O=C1CC(c2cccc(C(=O)N3CCNCC3)c2)=Nc2ccc(-c3ccc(F)cc3)cc21

>  <score_type>  (6) 
oracle

>  <origin>  (6) 
autodockgpu

>  <m_score__min__energy>  (6) 
-8.5

>  <m_primary>  (6) 
energy

>  <rmsd>  (6) 
8.043826799258332

>  <m_score__min__rmsd>  (6) 
8.043826799258332

>  <meeko>  (6) 
{"free_energy": -7.71, "intermolecular_energy": -8.6, "internal_energy": -1.03, "cluster_size": 2, "cluster_id": 3, "rank_in_cluster": 2}

>  <energy>  (6) 
-8.48

>  <cluster_rmsd>  (6) 
0.1

>  <cluster>  (6) 
1

$$$$

     RDKit          3D

 54 58  0  0  0  0  0  0  0  0999 V2000
  141.9510   80.8440  223.9890 O   0  0  0  0  0  0  0  0  0  0  0  0
  141.3250   80.0840  223.1780 C   0  0  0  0  0  0  0  0  0  0  0  0
  142.0980   79.2730  222.2150 C   0  0  0  0  0  0  0  0  0  0  0  0
  141.1590   78.4850  221.3920 C   0  0  0  0  0  0  0  0  0  0  0  0
  141.7460   77.6030  220.3620 C   0  0  0  0  0  0  0  0  0  0  0  0
  142.2660   78.0990  219.1860 C   0  0  0  0  0  0  0  0  0  0  0  0
  142.8210   77.3270  218.2000 C   0  0  0  0  0  0  0  0  0  0  0  0
  142.8620   75.9510  218.4030 C   0  0  0  0  0  0  0  0  0  0  0  0
  142.3510   75.4190  219.5680 C   0  0  0  0  0  0  0  0  0  0  0  0
  142.3690   73.9810  219.8310 C   0  0  0  0  0  0  0  0  0  0  0  0
  141.2510   73.4020  219.8500 O   0  0  0  0  0  0  0  0  0  0  0  0
  143.6010   73.2880  220.0500 N   0  0  0  0  0  0  0  0  0  0  0  0
  144.8320   74.0350  220.0090 C   0  0  0  0  0  0  0  0  0  0  0  0
  145.9580   73.1960  219.4710 C   0  0  0  0  0  0  0  0  0  0  0  0
  145.9110   71.8850  220.0880 N   0  0  0  0  0  0  0  0  0  0  0  0
  144.7130   71.1660  219.7260 C   0  0  0  0  0  0  0  0  0  0  0  0
  143.5250   71.8630  220.3030 C   0  0  0  0  0  0  0  0  0  0  0  0
  141.7950   76.2190  220.5510 C   0  0  0  0  0  0  0  0  0  0  0  0
  139.8820   78.5020  221.4980 N   0  0  0  0  0  0  0  0  0  0  0  0
  139.1670   79.2910  222.4350 C   0  0  0  0  0  0  0  0  0  0  0  0
  137.8040   79.2440  222.4730 C   0  0  0  0  0  0  0  0  0  0  0  0
  137.1670   80.0450  223.4170 C   0  0  0  0  0  0  0  0  0  0  0  0
  137.8380   80.8590  224.2860 C   0  0  0  0  0  0  0  0  0  0  0  0
  137.0920   81.6680  225.2460 C   0  0  0  0  0  0  0  0  0  0  0  0
  136.8880   81.2770  226.5550 C   0  0  0  0  0  0  0  0  0  0  0  0
  136.1740   82.0890  227.4140 C   0  0  0  0  0  0  0  0  0  0  0  0
  135.6440   83.3130  226.9930 C   0  0  0  0  0  0  0  0  0  0  0  0
  134.9410   84.1090  227.8460 F   0  0  0  0  0  0  0  0  0  0  0  0
  135.8750   83.6610  225.6770 C   0  0  0  0  0  0  0  0  0  0  0  0
  136.5860   82.8640  224.8010 C   0  0  0  0  0  0  0  0  0  0  0  0
  139.2230   80.8770  224.2120 C   0  0  0  0  0  0  0  0  0  0  0  0
  139.8760   80.0860  223.2800 C   0  0  0  0  0  0  0  0  0  0  0  0
  142.6912   79.9350  221.5670 H   0  0  0  0  0  0  0  0  0  0  0  0
  142.7766   78.5975  222.7565 H   0  0  0  0  0  0  0  0  0  0  0  0
  142.2332   79.1872  219.0288 H   0  0  0  0  0  0  0  0  0  0  0  0
  143.2203   77.7789  217.2800 H   0  0  0  0  0  0  0  0  0  0  0  0
  143.2994   75.2917  217.6388 H   0  0  0  0  0  0  0  0  0  0  0  0
  144.6974   74.9136  219.3609 H   0  0  0  0  0  0  0  0  0  0  0  0
  145.0864   74.3449  221.0334 H   0  0  0  0  0  0  0  0  0  0  0  0
  145.8526   73.0938  218.3808 H   0  0  0  0  0  0  0  0  0  0  0  0
  146.9202   73.6780  219.6988 H   0  0  0  0  0  0  0  0  0  0  0  0
  146.0740   71.9490  221.1130 H   0  0  0  0  0  0  0  0  0  0  0  0
  144.6223   71.1314  218.6303 H   0  0  0  0  0  0  0  0  0  0  0  0
  144.7657   70.1405  220.1203 H   0  0  0  0  0  0  0  0  0  0  0  0
  142.6104   71.4616  219.8420 H   0  0  0  0  0  0  0  0  0  0  0  0
  143.5066   71.6948  221.3899 H   0  0  0  0  0  0  0  0  0  0  0  0
  141.3955   75.7699  221.4722 H   0  0  0  0  0  0  0  0  0  0  0  0
  137.2329   78.6009  221.7873 H   0  0  0  0  0  0  0  0  0  0  0  0
  136.0683   80.0215  223.4659 H   0  0  0  0  0  0  0  0  0  0  0  0
  137.2940   80.3194  226.9130 H   0  0  0  0  0  0  0  0  0  0  0  0
  136.0184   81.7656  228.4538 H   0  0  0  0  0  0  0  0  0  0  0  0
  135.4743   84.6171  225.3091 H   0  0  0  0  0  0  0  0  0  0  0  0
  136.7446   83.1835  223.7604 H   0  0  0  0  0  0  0  0  0  0  0  0
  139.8024   81.5184  224.8923 H   0  0  0  0  0  0  0  0  0  0  0  0
  1  2  2  0
  2  3  1  0
  3  4  1  0
  4  5  1  0
  5  6  2  0
  6  7  1  0
  7  8  2  0
  8  9  1  0
  9 10  1  0
 10 11  2  0
 10 12  1  0
 12 13  1  0
 13 14  1  0
 14 15  1  0
 15 16  1  0
 16 17  1  0
  9 18  2  0
  4 19  2  0
 19 20  1  0
 20 21  2  0
 21 22  1  0
 22 23  2  0
 23 24  1  0
 24 25  2  0
 25 26  1  0
 26 27  2  0
 27 28  1  0
 27 29  1  0
 29 30  2  0
 23 31  1  0
 31 32  2  0
 32  2  1  0
 18  5  1  0
 32 20  1  0
 17 12  1  0
 30 24  1  0
  3 33  1  0
  3 34  1  0
  6 35  1  0
  7 36  1  0
  8 37  1  0
 13 38  1  0
 13 39  1  0
 14 40  1  0
 14 41  1  0
 15 42  1  0
 16 43  1  0
 16 44  1  0
 17 45  1  0
 17 46  1  0
 18 47  1  0
 21 48  1  0
 22 49  1  0
 25 50  1  0
 26 51  1  0
 29 52  1  0
 30 53  1  0
 31 54  1  0
M  END
>  <smiles>  (7) 
O=C1CC(c2cccc(C(=O)N3CCNCC3)c2)=Nc2ccc(-c3ccc(F)cc3)cc21

>  <score_type>  (7) 
oracle

>  <origin>  (7) 
autodockgpu

>  <m_score__min__energy>  (7) 
-8.5

>  <m_primary>  (7) 
energy

>  <rmsd>  (7) 
8.458442747785298

>  <m_score__min__rmsd>  (7) 
8.458442747785298

>  <meeko>  (7) 
{"free_energy": -8.45, "intermolecular_energy": -9.34, "internal_energy": -0.95, "cluster_size": 45, "cluster_id": 1, "rank_in_cluster": 14}

>  <energy>  (7) 
-8.46

>  <cluster_rmsd>  (7) 
0.14

>  <cluster>  (7) 
1

$$$$

     RDKit          3D

 54 58  0  0  0  0  0  0  0  0999 V2000
  141.9780   80.7590  224.0830 O   0  0  0  0  0  0  0  0  0  0  0  0
  141.3510   80.0440  223.2340 C   0  0  0  0  0  0  0  0  0  0  0  0
  142.1250   79.2300  222.2730 C   0  0  0  0  0  0  0  0  0  0  0  0
  141.1850   78.4970  221.4020 C   0  0  0  0  0  0  0  0  0  0  0  0
  141.7730   77.6210  220.3670 C   0  0  0  0  0  0  0  0  0  0  0  0
  142.2820   78.1230  219.1890 C   0  0  0  0  0  0  0  0  0  0  0  0
  142.8370   77.3560  218.1990 C   0  0  0  0  0  0  0  0  0  0  0  0
  142.8880   75.9790  218.3990 C   0  0  0  0  0  0  0  0  0  0  0  0
  142.3880   75.4420  219.5660 C   0  0  0  0  0  0  0  0  0  0  0  0
  142.4170   74.0040  219.8260 C   0  0  0  0  0  0  0  0  0  0  0  0
  141.3030   73.4170  219.8460 O   0  0  0  0  0  0  0  0  0  0  0  0
  143.6540   73.3200  220.0430 N   0  0  0  0  0  0  0  0  0  0  0  0
  144.8800   74.0770  220.0020 C   0  0  0  0  0  0  0  0  0  0  0  0
  146.0120   73.2470  219.4600 C   0  0  0  0  0  0  0  0  0  0  0  0
  145.9750   71.9350  220.0760 N   0  0  0  0  0  0  0  0  0  0  0  0
  144.7820   71.2070  219.7140 C   0  0  0  0  0  0  0  0  0  0  0  0
  143.5900   71.8950  220.2940 C   0  0  0  0  0  0  0  0  0  0  0  0
  141.8310   76.2370  220.5540 C   0  0  0  0  0  0  0  0  0  0  0  0
  139.9070   78.5580  221.4690 N   0  0  0  0  0  0  0  0  0  0  0  0
  139.1910   79.3490  222.4040 C   0  0  0  0  0  0  0  0  0  0  0  0
  137.8270   79.3500  222.3990 C   0  0  0  0  0  0  0  0  0  0  0  0
  137.1890   80.1500  223.3440 C   0  0  0  0  0  0  0  0  0  0  0  0
  137.8620   80.9160  224.2550 C   0  0  0  0  0  0  0  0  0  0  0  0
  137.1150   81.7280  225.2130 C   0  0  0  0  0  0  0  0  0  0  0  0
  136.9170   81.3430  226.5250 C   0  0  0  0  0  0  0  0  0  0  0  0
  136.2020   82.1560  227.3820 C   0  0  0  0  0  0  0  0  0  0  0  0
  135.6660   83.3750  226.9560 C   0  0  0  0  0  0  0  0  0  0  0  0
  134.9610   84.1730  227.8070 F   0  0  0  0  0  0  0  0  0  0  0  0
  135.8900   83.7170  225.6370 C   0  0  0  0  0  0  0  0  0  0  0  0
  136.6010   82.9190  224.7630 C   0  0  0  0  0  0  0  0  0  0  0  0
  139.2480   80.8860  224.2240 C   0  0  0  0  0  0  0  0  0  0  0  0
  139.9010   80.0960  223.2910 C   0  0  0  0  0  0  0  0  0  0  0  0
  142.7605   79.8866  221.6606 H   0  0  0  0  0  0  0  0  0  0  0  0
  142.7627   78.5174  222.8166 H   0  0  0  0  0  0  0  0  0  0  0  0
  142.2399   79.2111  219.0334 H   0  0  0  0  0  0  0  0  0  0  0  0
  143.2288   77.8121  217.2779 H   0  0  0  0  0  0  0  0  0  0  0  0
  143.3245   75.3239  217.6307 H   0  0  0  0  0  0  0  0  0  0  0  0
  144.7379   74.9560  219.3561 H   0  0  0  0  0  0  0  0  0  0  0  0
  145.1336   74.3866  221.0266 H   0  0  0  0  0  0  0  0  0  0  0  0
  145.9053   73.1454  218.3699 H   0  0  0  0  0  0  0  0  0  0  0  0
  146.9713   73.7357  219.6858 H   0  0  0  0  0  0  0  0  0  0  0  0
  146.1390   71.9980  221.1010 H   0  0  0  0  0  0  0  0  0  0  0  0
  144.6901   71.1734  218.6184 H   0  0  0  0  0  0  0  0  0  0  0  0
  144.8427   70.1810  220.1060 H   0  0  0  0  0  0  0  0  0  0  0  0
  142.6776   71.4872  219.8344 H   0  0  0  0  0  0  0  0  0  0  0  0
  143.5757   71.7258  221.3808 H   0  0  0  0  0  0  0  0  0  0  0  0
  141.4383   75.7839  221.4762 H   0  0  0  0  0  0  0  0  0  0  0  0
  137.2555   78.7451  221.6797 H   0  0  0  0  0  0  0  0  0  0  0  0
  136.0892   80.1664  223.3581 H   0  0  0  0  0  0  0  0  0  0  0  0
  137.3288   80.3893  226.8867 H   0  0  0  0  0  0  0  0  0  0  0  0
  136.0506   81.8372  228.4239 H   0  0  0  0  0  0  0  0  0  0  0  0
  135.4832   84.6691  225.2655 H   0  0  0  0  0  0  0  0  0  0  0  0
  136.7537   83.2332  223.7199 H   0  0  0  0  0  0  0  0  0  0  0  0
  139.8282   81.4882  224.9387 H   0  0  0  0  0  0  0  0  0  0  0  0
  1  2  2  0
  2  3  1  0
  3  4  1  0
  4  5  1  0
  5  6  2  0
  6  7  1  0
  7  8  2  0
  8  9  1  0
  9 10  1  0
 10 11  2  0
 10 12  1  0
 12 13  1  0
 13 14  1  0
 14 15  1  0
 15 16  1  0
 16 17  1  0
  9 18  2  0
  4 19  2  0
 19 20  1  0
 20 21  2  0
 21 22  1  0
 22 23  2  0
 23 24  1  0
 24 25  2  0
 25 26  1  0
 26 27  2  0
 27 28  1  0
 27 29  1  0
 29 30  2  0
 23 31  1  0
 31 32  2  0
 32  2  1  0
 18  5  1  0
 32 20  1  0
 17 12  1  0
 30 24  1  0
  3 33  1  0
  3 34  1  0
  6 35  1  0
  7 36  1  0
  8 37  1  0
 13 38  1  0
 13 39  1  0
 14 40  1  0
 14 41  1  0
 15 42  1  0
 16 43  1  0
 16 44  1  0
 17 45  1  0
 17 46  1  0
 18 47  1  0
 21 48  1  0
 22 49  1  0
 25 50  1  0
 26 51  1  0
 29 52  1  0
 30 53  1  0
 31 54  1  0
M  END
>  <smiles>  (8) 
O=C1CC(c2cccc(C(=O)N3CCNCC3)c2)=Nc2ccc(-c3ccc(F)cc3)cc21

>  <score_type>  (8) 
oracle

>  <origin>  (8) 
autodockgpu

>  <m_score__min__energy>  (8) 
-8.5

>  <m_primary>  (8) 
energy

>  <rmsd>  (8) 
8.468117265885075

>  <m_score__min__rmsd>  (8) 
8.468117265885075

>  <meeko>  (8) 
{"free_energy": -8.41, "intermolecular_energy": -9.3, "internal_energy": -0.95, "cluster_size": 45, "cluster_id": 1, "rank_in_cluster": 22}

>  <energy>  (8) 
-8.46

>  <cluster_rmsd>  (8) 
0.09

>  <cluster>  (8) 
1

$$$$

     RDKit          3D

 54 58  0  0  0  0  0  0  0  0999 V2000
  142.1540   79.2850  223.1240 O   0  0  0  0  0  0  0  0  0  0  0  0
  140.8790   79.2510  223.0840 C   0  0  0  0  0  0  0  0  0  0  0  0
  140.1170   80.4550  223.4770 C   0  0  0  0  0  0  0  0  0  0  0  0
  138.6740   80.1700  223.3490 C   0  0  0  0  0  0  0  0  0  0  0  0
  137.7420   81.2610  223.6990 C   0  0  0  0  0  0  0  0  0  0  0  0
  137.1030   82.0130  222.7370 C   0  0  0  0  0  0  0  0  0  0  0  0
  136.2300   83.0340  223.0080 C   0  0  0  0  0  0  0  0  0  0  0  0
  135.9740   83.3280  224.3440 C   0  0  0  0  0  0  0  0  0  0  0  0
  136.5950   82.5970  225.3330 C   0  0  0  0  0  0  0  0  0  0  0  0
  136.3610   82.8650  226.7510 C   0  0  0  0  0  0  0  0  0  0  0  0
  136.9400   83.8740  227.2330 O   0  0  0  0  0  0  0  0  0  0  0  0
  135.5150   82.0150  227.5310 N   0  0  0  0  0  0  0  0  0  0  0  0
  134.8940   80.8820  226.8920 C   0  0  0  0  0  0  0  0  0  0  0  0
  133.5430   80.5970  227.4890 C   0  0  0  0  0  0  0  0  0  0  0  0
  133.6370   80.6700  228.9340 N   0  0  0  0  0  0  0  0  0  0  0  0
  133.9600   82.0030  229.3830 C   0  0  0  0  0  0  0  0  0  0  0  0
  135.3380   82.3550  228.9280 C   0  0  0  0  0  0  0  0  0  0  0  0
  137.4740   81.5680  225.0360 C   0  0  0  0  0  0  0  0  0  0  0  0
  138.1670   79.0600  222.9590 N   0  0  0  0  0  0  0  0  0  0  0  0
  138.9250   77.9200  222.5870 C   0  0  0  0  0  0  0  0  0  0  0  0
  138.2950   76.7790  222.1850 C   0  0  0  0  0  0  0  0  0  0  0  0
  139.1010   75.6980  221.8350 C   0  0  0  0  0  0  0  0  0  0  0  0
  140.4670   75.7360  221.8770 C   0  0  0  0  0  0  0  0  0  0  0  0
  141.2380   74.5560  221.4930 C   0  0  0  0  0  0  0  0  0  0  0  0
  142.4180   74.6350  220.7800 C   0  0  0  0  0  0  0  0  0  0  0  0
  143.1010   73.4810  220.4480 C   0  0  0  0  0  0  0  0  0  0  0  0
  142.6270   72.2180  220.8180 C   0  0  0  0  0  0  0  0  0  0  0  0
  143.3060   71.0840  220.4870 F   0  0  0  0  0  0  0  0  0  0  0  0
  141.4440   72.1910  221.5300 C   0  0  0  0  0  0  0  0  0  0  0  0
  140.7450   73.3320  221.8720 C   0  0  0  0  0  0  0  0  0  0  0  0
  141.0660   76.9160  222.2930 C   0  0  0  0  0  0  0  0  0  0  0  0
  140.2810   78.0020  222.6450 C   0  0  0  0  0  0  0  0  0  0  0  0
  140.3509   80.7161  224.5197 H   0  0  0  0  0  0  0  0  0  0  0  0
  140.3898   81.2982  222.8254 H   0  0  0  0  0  0  0  0  0  0  0  0
  137.3072   81.7782  221.6819 H   0  0  0  0  0  0  0  0  0  0  0  0
  135.7484   83.6013  222.1979 H   0  0  0  0  0  0  0  0  0  0  0  0
  135.2799   84.1393  224.6088 H   0  0  0  0  0  0  0  0  0  0  0  0
  134.7751   81.0950  225.8194 H   0  0  0  0  0  0  0  0  0  0  0  0
  135.5354   80.0011  227.0424 H   0  0  0  0  0  0  0  0  0  0  0  0
  132.8171   81.3410  227.1292 H   0  0  0  0  0  0  0  0  0  0  0  0
  133.2106   79.5920  227.1899 H   0  0  0  0  0  0  0  0  0  0  0  0
  134.2680   79.9320  229.3050 H   0  0  0  0  0  0  0  0  0  0  0  0
  133.2392   82.7182  228.9601 H   0  0  0  0  0  0  0  0  0  0  0  0
  133.9120   82.0444  230.4812 H   0  0  0  0  0  0  0  0  0  0  0  0
  135.4977   83.4353  229.0604 H   0  0  0  0  0  0  0  0  0  0  0  0
  136.0655   81.7871  229.5266 H   0  0  0  0  0  0  0  0  0  0  0  0
  137.9560   80.9984  225.8442 H   0  0  0  0  0  0  0  0  0  0  0  0
  137.1978   76.7151  222.1391 H   0  0  0  0  0  0  0  0  0  0  0  0
  138.6140   74.7673  221.5085 H   0  0  0  0  0  0  0  0  0  0  0  0
  142.8136   75.6156  220.4768 H   0  0  0  0  0  0  0  0  0  0  0  0
  144.0396   73.5571  219.8794 H   0  0  0  0  0  0  0  0  0  0  0  0
  141.0398   71.2157  221.8390 H   0  0  0  0  0  0  0  0  0  0  0  0
  139.8059   73.2610  222.4404 H   0  0  0  0  0  0  0  0  0  0  0  0
  142.1624   76.9894  222.3433 H   0  0  0  0  0  0  0  0  0  0  0  0
  1  2  2  0
  2  3  1  0
  3  4  1  0
  4  5  1  0
  5  6  2  0
  6  7  1  0
  7  8  2  0
  8  9  1  0
  9 10  1  0
 10 11  2  0
 10 12  1  0
 12 13  1  0
 13 14  1  0
 14 15  1  0
 15 16  1  0
 16 17  1  0
  9 18  2  0
  4 19  2  0
 19 20  1  0
 20 21  2  0
 21 22  1  0
 22 23  2  0
 23 24  1  0
 24 25  2  0
 25 26  1  0
 26 27  2  0
 27 28  1  0
 27 29  1  0
 29 30  2  0
 23 31  1  0
 31 32  2  0
 32  2  1  0
 18  5  1  0
 32 20  1  0
 17 12  1  0
 30 24  1  0
  3 33  1  0
  3 34  1  0
  6 35  1  0
  7 36  1  0
  8 37  1  0
 13 38  1  0
 13 39  1  0
 14 40  1  0
 14 41  1  0
 15 42  1  0
 16 43  1  0
 16 44  1  0
 17 45  1  0
 17 46  1  0
 18 47  1  0
 21 48  1  0
 22 49  1  0
 25 50  1  0
 26 51  1  0
 29 52  1  0
 30 53  1  0
 31 54  1  0
M  END
>  <smiles>  (9) 
O=C1CC(c2cccc(C(=O)N3CCNCC3)c2)=Nc2ccc(-c3ccc(F)cc3)cc21

>  <score_type>  (9) 
oracle

>  <origin>  (9) 
autodockgpu

>  <m_score__min__energy>  (9) 
-8.5

>  <m_primary>  (9) 
energy

>  <rmsd>  (9) 
11.893714400444049

>  <m_score__min__rmsd>  (9) 
11.893714400444049

>  <meeko>  (9) 
{"free_energy": -7.9, "intermolecular_energy": -8.79, "internal_energy": -0.99, "cluster_size": 3, "cluster_id": 2, "rank_in_cluster": 3}

>  <energy>  (9) 
-8.46

>  <cluster_rmsd>  (9) 
0.12

>  <cluster>  (9) 
1

$$$$

     RDKit          3D

 54 58  0  0  0  0  0  0  0  0999 V2000
  141.9920   81.1020  223.8030 O   0  0  0  0  0  0  0  0  0  0  0  0
  141.3690   80.2550  223.0800 C   0  0  0  0  0  0  0  0  0  0  0  0
  142.1320   79.4450  222.1080 C   0  0  0  0  0  0  0  0  0  0  0  0
  141.1990   78.5470  221.3980 C   0  0  0  0  0  0  0  0  0  0  0  0
  141.7780   77.6500  220.3770 C   0  0  0  0  0  0  0  0  0  0  0  0
  142.2890   78.1280  219.1900 C   0  0  0  0  0  0  0  0  0  0  0  0
  142.8360   77.3410  218.2120 C   0  0  0  0  0  0  0  0  0  0  0  0
  142.8760   75.9670  218.4340 C   0  0  0  0  0  0  0  0  0  0  0  0
  142.3730   75.4530  219.6100 C   0  0  0  0  0  0  0  0  0  0  0  0
  142.3910   74.0190  219.8940 C   0  0  0  0  0  0  0  0  0  0  0  0
  141.2700   73.4520  219.9780 O   0  0  0  0  0  0  0  0  0  0  0  0
  143.6260   73.3170  220.0610 N   0  0  0  0  0  0  0  0  0  0  0  0
  144.8600   74.0510  219.9460 C   0  0  0  0  0  0  0  0  0  0  0  0
  145.9500   73.1930  219.3640 C   0  0  0  0  0  0  0  0  0  0  0  0
  145.9210   71.8910  220.0030 N   0  0  0  0  0  0  0  0  0  0  0  0
  144.7000   71.1790  219.7140 C   0  0  0  0  0  0  0  0  0  0  0  0
  143.5500   71.8970  220.3390 C   0  0  0  0  0  0  0  0  0  0  0  0
  141.8250   76.2690  220.5860 C   0  0  0  0  0  0  0  0  0  0  0  0
  139.9350   78.4830  221.5940 N   0  0  0  0  0  0  0  0  0  0  0  0
  139.2290   79.2740  222.5360 C   0  0  0  0  0  0  0  0  0  0  0  0
  137.8790   79.1360  222.6750 C   0  0  0  0  0  0  0  0  0  0  0  0
  137.2510   79.9450  223.6180 C   0  0  0  0  0  0  0  0  0  0  0  0
  137.9190   80.8520  224.3930 C   0  0  0  0  0  0  0  0  0  0  0  0
  137.1830   81.6630  225.3590 C   0  0  0  0  0  0  0  0  0  0  0  0
  136.9620   81.2570  226.6610 C   0  0  0  0  0  0  0  0  0  0  0  0
  136.2590   82.0710  227.5270 C   0  0  0  0  0  0  0  0  0  0  0  0
  135.7570   83.3110  227.1210 C   0  0  0  0  0  0  0  0  0  0  0  0
  135.0640   84.1100  227.9810 F   0  0  0  0  0  0  0  0  0  0  0  0
  136.0030   83.6740  225.8110 C   0  0  0  0  0  0  0  0  0  0  0  0
  136.7040   82.8750  224.9280 C   0  0  0  0  0  0  0  0  0  0  0  0
  139.2910   80.9610  224.2190 C   0  0  0  0  0  0  0  0  0  0  0  0
  139.9340   80.1640  223.2850 C   0  0  0  0  0  0  0  0  0  0  0  0
  142.6293   80.1078  221.3846 H   0  0  0  0  0  0  0  0  0  0  0  0
  142.8939   78.8510  222.6340 H   0  0  0  0  0  0  0  0  0  0  0  0
  142.2553   79.2137  219.0165 H   0  0  0  0  0  0  0  0  0  0  0  0
  143.2301   77.7791  217.2832 H   0  0  0  0  0  0  0  0  0  0  0  0
  143.3062   75.2961  217.6759 H   0  0  0  0  0  0  0  0  0  0  0  0
  144.7005   74.9212  219.2923 H   0  0  0  0  0  0  0  0  0  0  0  0
  145.1691   74.3732  220.9513 H   0  0  0  0  0  0  0  0  0  0  0  0
  145.7888   73.0761  218.2822 H   0  0  0  0  0  0  0  0  0  0  0  0
  146.9271   73.6683  219.5352 H   0  0  0  0  0  0  0  0  0  0  0  0
  146.1370   71.9690  221.0180 H   0  0  0  0  0  0  0  0  0  0  0  0
  144.5533   71.1282  218.6250 H   0  0  0  0  0  0  0  0  0  0  0  0
  144.7630   70.1592  220.1216 H   0  0  0  0  0  0  0  0  0  0  0  0
  142.6095   71.4982  219.9310 H   0  0  0  0  0  0  0  0  0  0  0  0
  143.5857   71.7455  221.4279 H   0  0  0  0  0  0  0  0  0  0  0  0
  141.4307   75.8343  221.5164 H   0  0  0  0  0  0  0  0  0  0  0  0
  137.3107   78.4161  222.0678 H   0  0  0  0  0  0  0  0  0  0  0  0
  136.1626   79.8497  223.7460 H   0  0  0  0  0  0  0  0  0  0  0  0
  137.3458   80.2861  227.0075 H   0  0  0  0  0  0  0  0  0  0  0  0
  136.0899   81.7358  228.5609 H   0  0  0  0  0  0  0  0  0  0  0  0
  135.6237   84.6431  225.4546 H   0  0  0  0  0  0  0  0  0  0  0  0
  136.8759   83.2059  223.8931 H   0  0  0  0  0  0  0  0  0  0  0  0
  139.8675   81.6786  224.8212 H   0  0  0  0  0  0  0  0  0  0  0  0
  1  2  2  0
  2  3  1  0
  3  4  1  0
  4  5  1  0
  5  6  2  0
  6  7  1  0
  7  8  2  0
  8  9  1  0
  9 10  1  0
 10 11  2  0
 10 12  1  0
 12 13  1  0
 13 14  1  0
 14 15  1  0
 15 16  1  0
 16 17  1  0
  9 18  2  0
  4 19  2  0
 19 20  1  0
 20 21  2  0
 21 22  1  0
 22 23  2  0
 23 24  1  0
 24 25  2  0
 25 26  1  0
 26 27  2  0
 27 28  1  0
 27 29  1  0
 29 30  2  0
 23 31  1  0
 31 32  2  0
 32  2  1  0
 18  5  1  0
 32 20  1  0
 17 12  1  0
 30 24  1  0
  3 33  1  0
  3 34  1  0
  6 35  1  0
  7 36  1  0
  8 37  1  0
 13 38  1  0
 13 39  1  0
 14 40  1  0
 14 41  1  0
 15 42  1  0
 16 43  1  0
 16 44  1  0
 17 45  1  0
 17 46  1  0
 18 47  1  0
 21 48  1  0
 22 49  1  0
 25 50  1  0
 26 51  1  0
 29 52  1  0
 30 53  1  0
 31 54  1  0
M  END
>  <smiles>  (10) 
O=C1CC(c2cccc(C(=O)N3CCNCC3)c2)=Nc2ccc(-c3ccc(F)cc3)cc21

>  <score_type>  (10) 
oracle

>  <origin>  (10) 
autodockgpu

>  <m_score__min__energy>  (10) 
-8.5

>  <m_primary>  (10) 
energy

>  <rmsd>  (10) 
8.520989947344548

>  <m_score__min__rmsd>  (10) 
8.520989947344548

>  <meeko>  (10) 
{"free_energy": -8.46, "intermolecular_energy": -9.35, "internal_energy": -0.94, "cluster_size": 45, "cluster_id": 1, "rank_in_cluster": 11}

>  <energy>  (10) 
-8.46

>  <cluster_rmsd>  (10) 
0.11

>  <cluster>  (10) 
1

$$$$

     RDKit          3D

 54 58  0  0  0  0  0  0  0  0999 V2000
  141.6650   80.9270  223.9730 O   0  0  0  0  0  0  0  0  0  0  0  0
  141.0970   80.1360  223.1500 C   0  0  0  0  0  0  0  0  0  0  0  0
  141.9210   79.4400  222.1400 C   0  0  0  0  0  0  0  0  0  0  0  0
  141.0440   78.5880  221.3120 C   0  0  0  0  0  0  0  0  0  0  0  0
  141.6880   77.8060  220.2370 C   0  0  0  0  0  0  0  0  0  0  0  0
  142.2470   78.4070  219.1300 C   0  0  0  0  0  0  0  0  0  0  0  0
  142.8560   77.7300  218.1080 C   0  0  0  0  0  0  0  0  0  0  0  0
  142.9120   76.3410  218.1950 C   0  0  0  0  0  0  0  0  0  0  0  0
  142.3630   75.7050  219.2880 C   0  0  0  0  0  0  0  0  0  0  0  0
  142.3950   74.2510  219.4290 C   0  0  0  0  0  0  0  0  0  0  0  0
  141.3490   73.6340  219.0990 O   0  0  0  0  0  0  0  0  0  0  0  0
  143.5630   73.5840  219.9170 N   0  0  0  0  0  0  0  0  0  0  0  0
  144.7150   74.3750  220.2690 C   0  0  0  0  0  0  0  0  0  0  0  0
  145.9910   73.6300  219.9890 C   0  0  0  0  0  0  0  0  0  0  0  0
  145.8590   72.2660  220.4630 N   0  0  0  0  0  0  0  0  0  0  0  0
  144.8450   71.5420  219.7340 C   0  0  0  0  0  0  0  0  0  0  0  0
  143.5080   72.1400  220.0240 C   0  0  0  0  0  0  0  0  0  0  0  0
  141.7530   76.4120  220.3110 C   0  0  0  0  0  0  0  0  0  0  0  0
  139.7750   78.4720  221.4480 N   0  0  0  0  0  0  0  0  0  0  0  0
  139.0100   79.1540  222.4300 C   0  0  0  0  0  0  0  0  0  0  0  0
  137.6600   78.9670  222.4990 C   0  0  0  0  0  0  0  0  0  0  0  0
  136.9720   79.6680  223.4860 C   0  0  0  0  0  0  0  0  0  0  0  0
  137.5810   80.5160  224.3680 C   0  0  0  0  0  0  0  0  0  0  0  0
  136.7840   81.2130  225.3740 C   0  0  0  0  0  0  0  0  0  0  0  0
  137.3130   82.1770  226.2100 C   0  0  0  0  0  0  0  0  0  0  0  0
  136.5060   82.8010  227.1400 C   0  0  0  0  0  0  0  0  0  0  0  0
  135.1490   82.4820  227.2630 C   0  0  0  0  0  0  0  0  0  0  0  0
  134.3580   83.1020  228.1830 F   0  0  0  0  0  0  0  0  0  0  0  0
  134.6670   81.5130  226.4050 C   0  0  0  0  0  0  0  0  0  0  0  0
  135.4570   80.8770  225.4680 C   0  0  0  0  0  0  0  0  0  0  0  0
  138.9550   80.6770  224.2620 C   0  0  0  0  0  0  0  0  0  0  0  0
  139.6580   79.9880  223.2860 C   0  0  0  0  0  0  0  0  0  0  0  0
  142.4262   80.1800  221.5020 H   0  0  0  0  0  0  0  0  0  0  0  0
  142.6789   78.8195  222.6406 H   0  0  0  0  0  0  0  0  0  0  0  0
  142.2007   79.5040  219.0632 H   0  0  0  0  0  0  0  0  0  0  0  0
  143.2862   78.2643  217.2480 H   0  0  0  0  0  0  0  0  0  0  0  0
  143.3912   75.7553  217.3967 H   0  0  0  0  0  0  0  0  0  0  0  0
  144.7055   75.3045  219.6809 H   0  0  0  0  0  0  0  0  0  0  0  0
  144.6698   74.5972  221.3454 H   0  0  0  0  0  0  0  0  0  0  0  0
  146.1852   73.6263  218.9063 H   0  0  0  0  0  0  0  0  0  0  0  0
  146.8280   74.1221  220.5059 H   0  0  0  0  0  0  0  0  0  0  0  0
  145.7400   72.2390  221.4960 H   0  0  0  0  0  0  0  0  0  0  0  0
  145.0507   71.6072  218.6554 H   0  0  0  0  0  0  0  0  0  0  0  0
  144.8517   70.4863  220.0429 H   0  0  0  0  0  0  0  0  0  0  0  0
  142.7737   71.7515  219.3030 H   0  0  0  0  0  0  0  0  0  0  0  0
  143.2129   71.8706  221.0489 H   0  0  0  0  0  0  0  0  0  0  0  0
  141.3238   75.8812  221.1736 H   0  0  0  0  0  0  0  0  0  0  0  0
  137.1380   78.2918  221.8050 H   0  0  0  0  0  0  0  0  0  0  0  0
  135.8829   79.5323  223.5596 H   0  0  0  0  0  0  0  0  0  0  0  0
  138.3766   82.4472  226.1347 H   0  0  0  0  0  0  0  0  0  0  0  0
  136.9397   83.5669  227.7998 H   0  0  0  0  0  0  0  0  0  0  0  0
  133.6048   81.2351  226.4711 H   0  0  0  0  0  0  0  0  0  0  0  0
  135.0280   80.1108  224.8054 H   0  0  0  0  0  0  0  0  0  0  0  0
  139.4856   81.3503  224.9513 H   0  0  0  0  0  0  0  0  0  0  0  0
  1  2  2  0
  2  3  1  0
  3  4  1  0
  4  5  1  0
  5  6  2  0
  6  7  1  0
  7  8  2  0
  8  9  1  0
  9 10  1  0
 10 11  2  0
 10 12  1  0
 12 13  1  0
 13 14  1  0
 14 15  1  0
 15 16  1  0
 16 17  1  0
  9 18  2  0
  4 19  2  0
 19 20  1  0
 20 21  2  0
 21 22  1  0
 22 23  2  0
 23 24  1  0
 24 25  2  0
 25 26  1  0
 26 27  2  0
 27 28  1  0
 27 29  1  0
 29 30  2  0
 23 31  1  0
 31 32  2  0
 32  2  1  0
 18  5  1  0
 32 20  1  0
 17 12  1  0
 30 24  1  0
  3 33  1  0
  3 34  1  0
  6 35  1  0
  7 36  1  0
  8 37  1  0
 13 38  1  0
 13 39  1  0
 14 40  1  0
 14 41  1  0
 15 42  1  0
 16 43  1  0
 16 44  1  0
 17 45  1  0
 17 46  1  0
 18 47  1  0
 21 48  1  0
 22 49  1  0
 25 50  1  0
 26 51  1  0
 29 52  1  0
 30 53  1  0
 31 54  1  0
M  END
>  <smiles>  (11) 
O=C1CC(c2cccc(C(=O)N3CCNCC3)c2)=Nc2ccc(-c3ccc(F)cc3)cc21

>  <score_type>  (11) 
oracle

>  <origin>  (11) 
autodockgpu

>  <m_score__min__energy>  (11) 
-8.5

>  <m_primary>  (11) 
energy

>  <rmsd>  (11) 
8.460745458943205

>  <m_score__min__rmsd>  (11) 
8.460745458943205

>  <meeko>  (11) 
{"free_energy": -8.28, "intermolecular_energy": -9.18, "internal_energy": -0.99, "cluster_size": 45, "cluster_id": 1, "rank_in_cluster": 37}

>  <energy>  (11) 
-8.46

>  <cluster_rmsd>  (11) 
0.12

>  <cluster>  (11) 
1

$$$$

     RDKit          3D

 54 58  0  0  0  0  0  0  0  0999 V2000
  141.9800   81.0150  223.9180 O   0  0  0  0  0  0  0  0  0  0  0  0
  141.3530   80.2010  223.1630 C   0  0  0  0  0  0  0  0  0  0  0  0
  142.1190   79.3680  222.2120 C   0  0  0  0  0  0  0  0  0  0  0  0
  141.1790   78.5170  221.4570 C   0  0  0  0  0  0  0  0  0  0  0  0
  141.7610   77.6050  220.4500 C   0  0  0  0  0  0  0  0  0  0  0  0
  142.2560   78.0650  219.2480 C   0  0  0  0  0  0  0  0  0  0  0  0
  142.8050   77.2640  218.2820 C   0  0  0  0  0  0  0  0  0  0  0  0
  142.8640   75.8960  218.5320 C   0  0  0  0  0  0  0  0  0  0  0  0
  142.3780   75.4010  219.7230 C   0  0  0  0  0  0  0  0  0  0  0  0
  142.4160   73.9730  220.0360 C   0  0  0  0  0  0  0  0  0  0  0  0
  141.3060   73.4140  220.2350 O   0  0  0  0  0  0  0  0  0  0  0  0
  143.6590   73.2680  220.1070 N   0  0  0  0  0  0  0  0  0  0  0  0
  144.8800   73.9930  219.8640 C   0  0  0  0  0  0  0  0  0  0  0  0
  145.9100   73.1160  219.2060 C   0  0  0  0  0  0  0  0  0  0  0  0
  145.9340   71.8290  219.8740 N   0  0  0  0  0  0  0  0  0  0  0  0
  144.6900   71.1170  219.7120 C   0  0  0  0  0  0  0  0  0  0  0  0
  143.6040   71.8550  220.4230 C   0  0  0  0  0  0  0  0  0  0  0  0
  141.8280   76.2290  220.6860 C   0  0  0  0  0  0  0  0  0  0  0  0
  139.9070   78.5020  221.6030 N   0  0  0  0  0  0  0  0  0  0  0  0
  139.1970   79.3130  222.5260 C   0  0  0  0  0  0  0  0  0  0  0  0
  137.8390   79.2290  222.6100 C   0  0  0  0  0  0  0  0  0  0  0  0
  137.2070   80.0540  223.5370 C   0  0  0  0  0  0  0  0  0  0  0  0
  137.8800   80.9260  224.3470 C   0  0  0  0  0  0  0  0  0  0  0  0
  137.1400   81.7580  225.2920 C   0  0  0  0  0  0  0  0  0  0  0  0
  136.6360   82.9990  224.9600 C   0  0  0  0  0  0  0  0  0  0  0  0
  135.9440   83.7370  225.9000 C   0  0  0  0  0  0  0  0  0  0  0  0
  135.7340   83.2570  227.1970 C   0  0  0  0  0  0  0  0  0  0  0  0
  135.0500   83.9890  228.1200 F   0  0  0  0  0  0  0  0  0  0  0  0
  136.2580   82.0110  227.4820 C   0  0  0  0  0  0  0  0  0  0  0  0
  136.9530   81.2570  226.5570 C   0  0  0  0  0  0  0  0  0  0  0  0
  139.2610   80.9800  224.2270 C   0  0  0  0  0  0  0  0  0  0  0  0
  139.9080   80.1660  223.3110 C   0  0  0  0  0  0  0  0  0  0  0  0
  142.6715   80.0159  221.5156 H   0  0  0  0  0  0  0  0  0  0  0  0
  142.8339   78.7375  222.7610 H   0  0  0  0  0  0  0  0  0  0  0  0
  142.2067   79.1463  219.0520 H   0  0  0  0  0  0  0  0  0  0  0  0
  143.1862   77.6873  217.3410 H   0  0  0  0  0  0  0  0  0  0  0  0
  143.2956   75.2146  217.7841 H   0  0  0  0  0  0  0  0  0  0  0  0
  144.6648   74.8488  219.2073 H   0  0  0  0  0  0  0  0  0  0  0  0
  145.2798   74.3367  220.8294 H   0  0  0  0  0  0  0  0  0  0  0  0
  145.6516   72.9760  218.1460 H   0  0  0  0  0  0  0  0  0  0  0  0
  146.9003   73.5894  219.2780 H   0  0  0  0  0  0  0  0  0  0  0  0
  146.2420   71.9280  220.8630 H   0  0  0  0  0  0  0  0  0  0  0  0
  144.4451   71.0435  218.6421 H   0  0  0  0  0  0  0  0  0  0  0  0
  144.7861   70.1056  220.1338 H   0  0  0  0  0  0  0  0  0  0  0  0
  142.6289   71.4522  220.1117 H   0  0  0  0  0  0  0  0  0  0  0  0
  143.7385   71.7277  221.5073 H   0  0  0  0  0  0  0  0  0  0  0  0
  141.4472   75.8081  221.6283 H   0  0  0  0  0  0  0  0  0  0  0  0
  137.2667   78.5389  221.9726 H   0  0  0  0  0  0  0  0  0  0  0  0
  136.1115   80.0015  223.6218 H   0  0  0  0  0  0  0  0  0  0  0  0
  136.7854   83.4003  223.9468 H   0  0  0  0  0  0  0  0  0  0  0  0
  135.5487   84.7253  225.6223 H   0  0  0  0  0  0  0  0  0  0  0  0
  136.1150   81.6004  228.4924 H   0  0  0  0  0  0  0  0  0  0  0  0
  137.3514   80.2686  226.8297 H   0  0  0  0  0  0  0  0  0  0  0  0
  139.8419   81.6684  224.8584 H   0  0  0  0  0  0  0  0  0  0  0  0
  1  2  2  0
  2  3  1  0
  3  4  1  0
  4  5  1  0
  5  6  2  0
  6  7  1  0
  7  8  2  0
  8  9  1  0
  9 10  1  0
 10 11  2  0
 10 12  1  0
 12 13  1  0
 13 14  1  0
 14 15  1  0
 15 16  1  0
 16 17  1  0
  9 18  2  0
  4 19  2  0
 19 20  1  0
 20 21  2  0
 21 22  1  0
 22 23  2  0
 23 24  1  0
 24 25  2  0
 25 26  1  0
 26 27  2  0
 27 28  1  0
 27 29  1  0
 29 30  2  0
 23 31  1  0
 31 32  2  0
 32  2  1  0
 18  5  1  0
 32 20  1  0
 17 12  1  0
 30 24  1  0
  3 33  1  0
  3 34  1  0
  6 35  1  0
  7 36  1  0
  8 37  1  0
 13 38  1  0
 13 39  1  0
 14 40  1  0
 14 41  1  0
 15 42  1  0
 16 43  1  0
 16 44  1  0
 17 45  1  0
 17 46  1  0
 18 47  1  0
 21 48  1  0
 22 49  1  0
 25 50  1  0
 26 51  1  0
 29 52  1  0
 30 53  1  0
 31 54  1  0
M  END
>  <smiles>  (12) 
O=C1CC(c2cccc(C(=O)N3CCNCC3)c2)=Nc2ccc(-c3ccc(F)cc3)cc21

>  <score_type>  (12) 
oracle

>  <origin>  (12) 
autodockgpu

>  <m_score__min__energy>  (12) 
-8.5

>  <m_primary>  (12) 
energy

>  <rmsd>  (12) 
8.505324215227217

>  <m_score__min__rmsd>  (12) 
8.505324215227217

>  <meeko>  (12) 
{"free_energy": -8.5, "intermolecular_energy": -9.39, "internal_energy": -0.91, "cluster_size": 45, "cluster_id": 1, "rank_in_cluster": 1}

>  <energy>  (12) 
-8.45

>  <cluster_rmsd>  (12) 
0.12

>  <cluster>  (12) 
1

$$$$

     RDKit          3D

 54 58  0  0  0  0  0  0  0  0999 V2000
  141.6840   80.9750  223.9850 O   0  0  0  0  0  0  0  0  0  0  0  0
  141.1150   80.1850  223.1620 C   0  0  0  0  0  0  0  0  0  0  0  0
  141.9380   79.4920  222.1490 C   0  0  0  0  0  0  0  0  0  0  0  0
  141.0610   78.6410  221.3210 C   0  0  0  0  0  0  0  0  0  0  0  0
  141.7050   77.8620  220.2440 C   0  0  0  0  0  0  0  0  0  0  0  0
  142.2720   78.4670  219.1430 C   0  0  0  0  0  0  0  0  0  0  0  0
  142.8810   77.7920  218.1180 C   0  0  0  0  0  0  0  0  0  0  0  0
  142.9280   76.4030  218.1960 C   0  0  0  0  0  0  0  0  0  0  0  0
  142.3700   75.7630  219.2820 C   0  0  0  0  0  0  0  0  0  0  0  0
  142.3920   74.3070  219.4140 C   0  0  0  0  0  0  0  0  0  0  0  0
  141.3550   73.6970  219.0450 O   0  0  0  0  0  0  0  0  0  0  0  0
  143.5410   73.6320  219.9340 N   0  0  0  0  0  0  0  0  0  0  0  0
  144.6840   74.4160  220.3300 C   0  0  0  0  0  0  0  0  0  0  0  0
  145.9660   73.6680  220.0860 C   0  0  0  0  0  0  0  0  0  0  0  0
  145.8130   72.3010  220.5450 N   0  0  0  0  0  0  0  0  0  0  0  0
  144.8210   71.5870  219.7790 C   0  0  0  0  0  0  0  0  0  0  0  0
  143.4770   72.1880  220.0290 C   0  0  0  0  0  0  0  0  0  0  0  0
  141.7610   76.4660  220.3080 C   0  0  0  0  0  0  0  0  0  0  0  0
  139.7930   78.5230  221.4590 N   0  0  0  0  0  0  0  0  0  0  0  0
  139.0280   79.2010  222.4440 C   0  0  0  0  0  0  0  0  0  0  0  0
  137.6800   79.0120  222.5150 C   0  0  0  0  0  0  0  0  0  0  0  0
  136.9920   79.7100  223.5040 C   0  0  0  0  0  0  0  0  0  0  0  0
  137.6020   80.5570  224.3870 C   0  0  0  0  0  0  0  0  0  0  0  0
  136.8050   81.2510  225.3960 C   0  0  0  0  0  0  0  0  0  0  0  0
  137.3380   82.2000  226.2450 C   0  0  0  0  0  0  0  0  0  0  0  0
  136.5310   82.8220  227.1780 C   0  0  0  0  0  0  0  0  0  0  0  0
  135.1720   82.5150  227.2890 C   0  0  0  0  0  0  0  0  0  0  0  0
  134.3810   83.1320  228.2110 F   0  0  0  0  0  0  0  0  0  0  0  0
  134.6850   81.5600  226.4180 C   0  0  0  0  0  0  0  0  0  0  0  0
  135.4740   80.9260  225.4780 C   0  0  0  0  0  0  0  0  0  0  0  0
  138.9750   80.7200  224.2790 C   0  0  0  0  0  0  0  0  0  0  0  0
  139.6770   80.0340  223.3000 C   0  0  0  0  0  0  0  0  0  0  0  0
  142.4412   80.2340  221.5116 H   0  0  0  0  0  0  0  0  0  0  0  0
  142.6974   78.8712  222.6470 H   0  0  0  0  0  0  0  0  0  0  0  0
  142.2330   79.5647  219.0833 H   0  0  0  0  0  0  0  0  0  0  0  0
  143.3176   78.3291  217.2631 H   0  0  0  0  0  0  0  0  0  0  0  0
  143.4074   75.8197  217.3961 H   0  0  0  0  0  0  0  0  0  0  0  0
  144.6973   75.3501  219.7493 H   0  0  0  0  0  0  0  0  0  0  0  0
  144.6044   74.6301  221.4060 H   0  0  0  0  0  0  0  0  0  0  0  0
  146.1955   73.6717  219.0102 H   0  0  0  0  0  0  0  0  0  0  0  0
  146.7877   74.1528  220.6336 H   0  0  0  0  0  0  0  0  0  0  0  0
  145.6600   72.2670  221.5740 H   0  0  0  0  0  0  0  0  0  0  0  0
  145.0621   71.6588  218.7081 H   0  0  0  0  0  0  0  0  0  0  0  0
  144.8134   70.5293  220.0812 H   0  0  0  0  0  0  0  0  0  0  0  0
  142.7656   71.8073  219.2814 H   0  0  0  0  0  0  0  0  0  0  0  0
  143.1470   71.9125  221.0415 H   0  0  0  0  0  0  0  0  0  0  0  0
  141.3255   75.9315  221.1651 H   0  0  0  0  0  0  0  0  0  0  0  0
  137.1581   78.3370  221.8208 H   0  0  0  0  0  0  0  0  0  0  0  0
  135.9031   79.5731  223.5786 H   0  0  0  0  0  0  0  0  0  0  0  0
  138.4046   82.4608  226.1787 H   0  0  0  0  0  0  0  0  0  0  0  0
  136.9681   83.5762  227.8489 H   0  0  0  0  0  0  0  0  0  0  0  0
  133.6197   81.2920  226.4756 H   0  0  0  0  0  0  0  0  0  0  0  0
  135.0417   80.1713  224.8046 H   0  0  0  0  0  0  0  0  0  0  0  0
  139.5060   81.3924  224.9689 H   0  0  0  0  0  0  0  0  0  0  0  0
  1  2  2  0
  2  3  1  0
  3  4  1  0
  4  5  1  0
  5  6  2  0
  6  7  1  0
  7  8  2  0
  8  9  1  0
  9 10  1  0
 10 11  2  0
 10 12  1  0
 12 13  1  0
 13 14  1  0
 14 15  1  0
 15 16  1  0
 16 17  1  0
  9 18  2  0
  4 19  2  0
 19 20  1  0
 20 21  2  0
 21 22  1  0
 22 23  2  0
 23 24  1  0
 24 25  2  0
 25 26  1  0
 26 27  2  0
 27 28  1  0
 27 29  1  0
 29 30  2  0
 23 31  1  0
 31 32  2  0
 32  2  1  0
 18  5  1  0
 32 20  1  0
 17 12  1  0
 30 24  1  0
  3 33  1  0
  3 34  1  0
  6 35  1  0
  7 36  1  0
  8 37  1  0
 13 38  1  0
 13 39  1  0
 14 40  1  0
 14 41  1  0
 15 42  1  0
 16 43  1  0
 16 44  1  0
 17 45  1  0
 17 46  1  0
 18 47  1  0
 21 48  1  0
 22 49  1  0
 25 50  1  0
 26 51  1  0
 29 52  1  0
 30 53  1  0
 31 54  1  0
M  END
>  <smiles>  (13) 
O=C1CC(c2cccc(C(=O)N3CCNCC3)c2)=Nc2ccc(-c3ccc(F)cc3)cc21

>  <score_type>  (13) 
oracle

>  <origin>  (13) 
autodockgpu

>  <m_score__min__energy>  (13) 
-8.5

>  <m_primary>  (13) 
energy

>  <rmsd>  (13) 
8.475519580251653

>  <m_score__min__rmsd>  (13) 
8.475519580251653

>  <meeko>  (13) 
{"free_energy": -8.28, "intermolecular_energy": -9.17, "internal_energy": -1.0, "cluster_size": 45, "cluster_id": 1, "rank_in_cluster": 40}

>  <energy>  (13) 
-8.45

>  <cluster_rmsd>  (13) 
0.14

>  <cluster>  (13) 
1

$$$$

     RDKit          3D

 54 58  0  0  0  0  0  0  0  0999 V2000
  141.7170   80.6390  224.0790 O   0  0  0  0  0  0  0  0  0  0  0  0
  141.1390   79.9540  223.1710 C   0  0  0  0  0  0  0  0  0  0  0  0
  141.9650   79.2750  222.1510 C   0  0  0  0  0  0  0  0  0  0  0  0
  141.0760   78.5550  221.2180 C   0  0  0  0  0  0  0  0  0  0  0  0
  141.7210   77.8080  220.1180 C   0  0  0  0  0  0  0  0  0  0  0  0
  142.2640   78.4450  219.0230 C   0  0  0  0  0  0  0  0  0  0  0  0
  142.8730   77.8010  217.9790 C   0  0  0  0  0  0  0  0  0  0  0  0
  142.9450   76.4110  218.0290 C   0  0  0  0  0  0  0  0  0  0  0  0
  142.4110   75.7410  219.1090 C   0  0  0  0  0  0  0  0  0  0  0  0
  142.4600   74.2830  219.2110 C   0  0  0  0  0  0  0  0  0  0  0  0
  141.4640   73.6580  218.7610 O   0  0  0  0  0  0  0  0  0  0  0  0
  143.5870   73.6240  219.7940 N   0  0  0  0  0  0  0  0  0  0  0  0
  144.6810   74.4250  220.2820 C   0  0  0  0  0  0  0  0  0  0  0  0
  145.9950   73.7120  220.1100 C   0  0  0  0  0  0  0  0  0  0  0  0
  145.8450   72.3320  220.5290 N   0  0  0  0  0  0  0  0  0  0  0  0
  144.9240   71.6120  219.6830 C   0  0  0  0  0  0  0  0  0  0  0  0
  143.5520   72.1770  219.8540 C   0  0  0  0  0  0  0  0  0  0  0  0
  141.8010   76.4130  220.1540 C   0  0  0  0  0  0  0  0  0  0  0  0
  139.7970   78.5240  221.2830 N   0  0  0  0  0  0  0  0  0  0  0  0
  139.0300   79.1860  222.2770 C   0  0  0  0  0  0  0  0  0  0  0  0
  137.6690   79.0960  222.2660 C   0  0  0  0  0  0  0  0  0  0  0  0
  136.9790   79.7710  223.2690 C   0  0  0  0  0  0  0  0  0  0  0  0
  137.5990   80.5040  224.2430 C   0  0  0  0  0  0  0  0  0  0  0  0
  136.8000   81.1830  225.2600 C   0  0  0  0  0  0  0  0  0  0  0  0
  137.3360   82.0980  226.1440 C   0  0  0  0  0  0  0  0  0  0  0  0
  136.5270   82.7070  227.0830 C   0  0  0  0  0  0  0  0  0  0  0  0
  135.1610   82.4200  227.1660 C   0  0  0  0  0  0  0  0  0  0  0  0
  134.3670   83.0240  228.0950 F   0  0  0  0  0  0  0  0  0  0  0  0
  134.6710   81.4990  226.2620 C   0  0  0  0  0  0  0  0  0  0  0  0
  135.4620   80.8790  225.3150 C   0  0  0  0  0  0  0  0  0  0  0  0
  138.9840   80.5700  224.2160 C   0  0  0  0  0  0  0  0  0  0  0  0
  139.6880   79.9040  223.2250 C   0  0  0  0  0  0  0  0  0  0  0  0
  142.5552   80.0204  221.5977 H   0  0  0  0  0  0  0  0  0  0  0  0
  142.6488   78.5641  222.6379 H   0  0  0  0  0  0  0  0  0  0  0  0
  142.2043   79.5427  218.9851 H   0  0  0  0  0  0  0  0  0  0  0  0
  143.2909   78.3622  217.1302 H   0  0  0  0  0  0  0  0  0  0  0  0
  143.4247   75.8516  217.2123 H   0  0  0  0  0  0  0  0  0  0  0  0
  144.7103   75.3717  219.7226 H   0  0  0  0  0  0  0  0  0  0  0  0
  144.5241   74.6135  221.3543 H   0  0  0  0  0  0  0  0  0  0  0  0
  146.2963   73.7451  219.0526 H   0  0  0  0  0  0  0  0  0  0  0  0
  146.7658   74.2032  220.7221 H   0  0  0  0  0  0  0  0  0  0  0  0
  145.6250   72.2720  221.5440 H   0  0  0  0  0  0  0  0  0  0  0  0
  145.2345   71.7126  218.6325 H   0  0  0  0  0  0  0  0  0  0  0  0
  144.9218   70.5480  219.9622 H   0  0  0  0  0  0  0  0  0  0  0  0
  142.9018   71.7973  219.0521 H   0  0  0  0  0  0  0  0  0  0  0  0
  143.1618   71.8714  220.8360 H   0  0  0  0  0  0  0  0  0  0  0  0
  141.3832   75.8546  221.0047 H   0  0  0  0  0  0  0  0  0  0  0  0
  137.1391   78.5146  221.4971 H   0  0  0  0  0  0  0  0  0  0  0  0
  135.8806   79.7119  223.2786 H   0  0  0  0  0  0  0  0  0  0  0  0
  138.4077   82.3420  226.1004 H   0  0  0  0  0  0  0  0  0  0  0  0
  136.9670   83.4342  227.7813 H   0  0  0  0  0  0  0  0  0  0  0  0
  133.6008   81.2473  226.2976 H   0  0  0  0  0  0  0  0  0  0  0  0
  135.0263   80.1516  224.6143 H   0  0  0  0  0  0  0  0  0  0  0  0
  139.5229   81.1499  224.9797 H   0  0  0  0  0  0  0  0  0  0  0  0
  1  2  2  0
  2  3  1  0
  3  4  1  0
  4  5  1  0
  5  6  2  0
  6  7  1  0
  7  8  2  0
  8  9  1  0
  9 10  1  0
 10 11  2  0
 10 12  1  0
 12 13  1  0
 13 14  1  0
 14 15  1  0
 15 16  1  0
 16 17  1  0
  9 18  2  0
  4 19  2  0
 19 20  1  0
 20 21  2  0
 21 22  1  0
 22 23  2  0
 23 24  1  0
 24 25  2  0
 25 26  1  0
 26 27  2  0
 27 28  1  0
 27 29  1  0
 29 30  2  0
 23 31  1  0
 31 32  2  0
 32  2  1  0
 18  5  1  0
 32 20  1  0
 17 12  1  0
 30 24  1  0
  3 33  1  0
  3 34  1  0
  6 35  1  0
  7 36  1  0
  8 37  1  0
 13 38  1  0
 13 39  1  0
 14 40  1  0
 14 41  1  0
 15 42  1  0
 16 43  1  0
 16 44  1  0
 17 45  1  0
 17 46  1  0
 18 47  1  0
 21 48  1  0
 22 49  1  0
 25 50  1  0
 26 51  1  0
 29 52  1  0
 30 53  1  0
 31 54  1  0
M  END
>  <smiles>  (14) 
O=C1CC(c2cccc(C(=O)N3CCNCC3)c2)=Nc2ccc(-c3ccc(F)cc3)cc21

>  <score_type>  (14) 
oracle

>  <origin>  (14) 
autodockgpu

>  <m_score__min__energy>  (14) 
-8.5

>  <m_primary>  (14) 
energy

>  <rmsd>  (14) 
8.43314847290612

>  <m_score__min__rmsd>  (14) 
8.43314847290612

>  <meeko>  (14) 
{"free_energy": -8.23, "intermolecular_energy": -9.12, "internal_energy": -1.0, "cluster_size": 45, "cluster_id": 1, "rank_in_cluster": 43}

>  <energy>  (14) 
-8.45

>  <cluster_rmsd>  (14) 
0.17

>  <cluster>  (14) 
1

$$$$

     RDKit          3D

 54 58  0  0  0  0  0  0  0  0999 V2000
  141.9900   80.6950  224.0890 O   0  0  0  0  0  0  0  0  0  0  0  0
  141.3560   80.0090  223.2210 C   0  0  0  0  0  0  0  0  0  0  0  0
  142.1200   79.2050  222.2450 C   0  0  0  0  0  0  0  0  0  0  0  0
  141.1730   78.5070  221.3530 C   0  0  0  0  0  0  0  0  0  0  0  0
  141.7510   77.6460  220.3020 C   0  0  0  0  0  0  0  0  0  0  0  0
  142.2440   78.1630  219.1230 C   0  0  0  0  0  0  0  0  0  0  0  0
  142.7900   77.4100  218.1170 C   0  0  0  0  0  0  0  0  0  0  0  0
  142.8490   76.0310  218.3010 C   0  0  0  0  0  0  0  0  0  0  0  0
  142.3650   75.4790  219.4670 C   0  0  0  0  0  0  0  0  0  0  0  0
  142.4040   74.0380  219.7100 C   0  0  0  0  0  0  0  0  0  0  0  0
  141.2980   73.4370  219.6850 O   0  0  0  0  0  0  0  0  0  0  0  0
  143.6420   73.3660  219.9600 N   0  0  0  0  0  0  0  0  0  0  0  0
  144.8580   74.1380  219.9690 C   0  0  0  0  0  0  0  0  0  0  0  0
  146.0180   73.3290  219.4560 C   0  0  0  0  0  0  0  0  0  0  0  0
  145.9770   72.0080  220.0530 N   0  0  0  0  0  0  0  0  0  0  0  0
  144.8060   71.2710  219.6430 C   0  0  0  0  0  0  0  0  0  0  0  0
  143.5870   71.9370  220.1900 C   0  0  0  0  0  0  0  0  0  0  0  0
  141.8180   76.2600  220.4710 C   0  0  0  0  0  0  0  0  0  0  0  0
  139.8960   78.5850  221.4170 N   0  0  0  0  0  0  0  0  0  0  0  0
  139.1880   79.3660  222.3680 C   0  0  0  0  0  0  0  0  0  0  0  0
  137.8240   79.3880  222.3580 C   0  0  0  0  0  0  0  0  0  0  0  0
  137.1950   80.1760  223.3180 C   0  0  0  0  0  0  0  0  0  0  0  0
  137.8750   80.9110  224.2490 C   0  0  0  0  0  0  0  0  0  0  0  0
  137.1370   81.7120  225.2220 C   0  0  0  0  0  0  0  0  0  0  0  0
  136.9060   81.2900  226.5170 C   0  0  0  0  0  0  0  0  0  0  0  0
  136.2020   82.0950  227.3900 C   0  0  0  0  0  0  0  0  0  0  0  0
  135.7090   83.3430  226.9980 C   0  0  0  0  0  0  0  0  0  0  0  0
  135.0150   84.1330  227.8640 F   0  0  0  0  0  0  0  0  0  0  0  0
  135.9650   83.7230  225.6940 C   0  0  0  0  0  0  0  0  0  0  0  0
  136.6670   82.9330  224.8050 C   0  0  0  0  0  0  0  0  0  0  0  0
  139.2610   80.8610  224.2220 C   0  0  0  0  0  0  0  0  0  0  0  0
  139.9060   80.0820  223.2740 C   0  0  0  0  0  0  0  0  0  0  0  0
  142.7688   79.8651  221.6505 H   0  0  0  0  0  0  0  0  0  0  0  0
  142.7430   78.4695  222.7751 H   0  0  0  0  0  0  0  0  0  0  0  0
  142.1958   79.2527  218.9804 H   0  0  0  0  0  0  0  0  0  0  0  0
  143.1684   77.8783  217.1964 H   0  0  0  0  0  0  0  0  0  0  0  0
  143.2793   75.3864  217.5204 H   0  0  0  0  0  0  0  0  0  0  0  0
  144.7263   75.0228  219.3289 H   0  0  0  0  0  0  0  0  0  0  0  0
  145.0731   74.4383  221.0051 H   0  0  0  0  0  0  0  0  0  0  0  0
  145.9501   73.2408  218.3616 H   0  0  0  0  0  0  0  0  0  0  0  0
  146.9625   73.8263  219.7217 H   0  0  0  0  0  0  0  0  0  0  0  0
  146.1060   72.0600  221.0840 H   0  0  0  0  0  0  0  0  0  0  0  0
  144.7513   71.2495  218.5446 H   0  0  0  0  0  0  0  0  0  0  0  0
  144.8662   70.2414  220.0254 H   0  0  0  0  0  0  0  0  0  0  0  0
  142.6960   71.5247  219.6938 H   0  0  0  0  0  0  0  0  0  0  0  0
  143.5376   71.7531  221.2734 H   0  0  0  0  0  0  0  0  0  0  0  0
  141.4397   75.7942  221.3929 H   0  0  0  0  0  0  0  0  0  0  0  0
  137.2462   78.8082  221.6232 H   0  0  0  0  0  0  0  0  0  0  0  0
  136.0955   80.2090  223.3280 H   0  0  0  0  0  0  0  0  0  0  0  0
  137.2830   80.3126  226.8525 H   0  0  0  0  0  0  0  0  0  0  0  0
  136.0248   81.7463  228.4181 H   0  0  0  0  0  0  0  0  0  0  0  0
  135.5927   84.6988  225.3487 H   0  0  0  0  0  0  0  0  0  0  0  0
  136.8474   83.2775  223.7760 H   0  0  0  0  0  0  0  0  0  0  0  0
  139.8474   81.4386  224.9518 H   0  0  0  0  0  0  0  0  0  0  0  0
  1  2  2  0
  2  3  1  0
  3  4  1  0
  4  5  1  0
  5  6  2  0
  6  7  1  0
  7  8  2  0
  8  9  1  0
  9 10  1  0
 10 11  2  0
 10 12  1  0
 12 13  1  0
 13 14  1  0
 14 15  1  0
 15 16  1  0
 16 17  1  0
  9 18  2  0
  4 19  2  0
 19 20  1  0
 20 21  2  0
 21 22  1  0
 22 23  2  0
 23 24  1  0
 24 25  2  0
 25 26  1  0
 26 27  2  0
 27 28  1  0
 27 29  1  0
 29 30  2  0
 23 31  1  0
 31 32  2  0
 32  2  1  0
 18  5  1  0
 32 20  1  0
 17 12  1  0
 30 24  1  0
  3 33  1  0
  3 34  1  0
  6 35  1  0
  7 36  1  0
  8 37  1  0
 13 38  1  0
 13 39  1  0
 14 40  1  0
 14 41  1  0
 15 42  1  0
 16 43  1  0
 16 44  1  0
 17 45  1  0
 17 46  1  0
 18 47  1  0
 21 48  1  0
 22 49  1  0
 25 50  1  0
 26 51  1  0
 29 52  1  0
 30 53  1  0
 31 54  1  0
M  END
>  <smiles>  (15) 
O=C1CC(c2cccc(C(=O)N3CCNCC3)c2)=Nc2ccc(-c3ccc(F)cc3)cc21

>  <score_type>  (15) 
oracle

>  <origin>  (15) 
autodockgpu

>  <m_score__min__energy>  (15) 
-8.5

>  <m_primary>  (15) 
energy

>  <rmsd>  (15) 
8.461832316704855

>  <m_score__min__rmsd>  (15) 
8.461832316704855

>  <meeko>  (15) 
{"free_energy": -8.39, "intermolecular_energy": -9.28, "internal_energy": -0.97, "cluster_size": 45, "cluster_id": 1, "rank_in_cluster": 24}

>  <energy>  (15) 
-8.45

>  <cluster_rmsd>  (15) 
0.14

>  <cluster>  (15) 
1

$$$$

     RDKit          3D

 54 58  0  0  0  0  0  0  0  0999 V2000
  141.5860   81.1540  224.0010 O   0  0  0  0  0  0  0  0  0  0  0  0
  141.0280   80.3090  223.2260 C   0  0  0  0  0  0  0  0  0  0  0  0
  141.8510   79.6040  222.2220 C   0  0  0  0  0  0  0  0  0  0  0  0
  140.9870   78.6870  221.4530 C   0  0  0  0  0  0  0  0  0  0  0  0
  141.6340   77.8860  220.3930 C   0  0  0  0  0  0  0  0  0  0  0  0
  142.2090   78.4700  219.2850 C   0  0  0  0  0  0  0  0  0  0  0  0
  142.8200   77.7750  218.2750 C   0  0  0  0  0  0  0  0  0  0  0  0
  142.8610   76.3870  218.3780 C   0  0  0  0  0  0  0  0  0  0  0  0
  142.2950   75.7690  219.4720 C   0  0  0  0  0  0  0  0  0  0  0  0
  142.3110   74.3150  219.6290 C   0  0  0  0  0  0  0  0  0  0  0  0
  141.2410   73.7120  219.3540 O   0  0  0  0  0  0  0  0  0  0  0  0
  143.4890   73.6350  220.0710 N   0  0  0  0  0  0  0  0  0  0  0  0
  144.6680   74.4110  220.3620 C   0  0  0  0  0  0  0  0  0  0  0  0
  145.9180   73.6420  220.0330 C   0  0  0  0  0  0  0  0  0  0  0  0
  145.7860   72.2860  220.5280 N   0  0  0  0  0  0  0  0  0  0  0  0
  144.7290   71.5710  219.8550 C   0  0  0  0  0  0  0  0  0  0  0  0
  143.4150   72.1940  220.1980 C   0  0  0  0  0  0  0  0  0  0  0  0
  141.6830   76.4920  220.4820 C   0  0  0  0  0  0  0  0  0  0  0  0
  139.7280   78.5280  221.6290 N   0  0  0  0  0  0  0  0  0  0  0  0
  138.9620   79.2190  222.6040 C   0  0  0  0  0  0  0  0  0  0  0  0
  137.6240   78.9840  222.7170 C   0  0  0  0  0  0  0  0  0  0  0  0
  136.9340   79.6980  223.6940 C   0  0  0  0  0  0  0  0  0  0  0  0
  137.5330   80.6040  224.5250 C   0  0  0  0  0  0  0  0  0  0  0  0
  136.7360   81.3100  225.5240 C   0  0  0  0  0  0  0  0  0  0  0  0
  137.2400   82.3460  226.2860 C   0  0  0  0  0  0  0  0  0  0  0  0
  136.4340   82.9750  227.2150 C   0  0  0  0  0  0  0  0  0  0  0  0
  135.1030   82.5900  227.4080 C   0  0  0  0  0  0  0  0  0  0  0  0
  134.3130   83.2150  228.3250 F   0  0  0  0  0  0  0  0  0  0  0  0
  134.6450   81.5510  226.6220 C   0  0  0  0  0  0  0  0  0  0  0  0
  135.4340   80.9080  225.6890 C   0  0  0  0  0  0  0  0  0  0  0  0
  138.8960   80.8120  224.3740 C   0  0  0  0  0  0  0  0  0  0  0  0
  139.6000   80.1120  223.4080 C   0  0  0  0  0  0  0  0  0  0  0  0
  142.3104   80.3360  221.5415 H   0  0  0  0  0  0  0  0  0  0  0  0
  142.6448   79.0330  222.7258 H   0  0  0  0  0  0  0  0  0  0  0  0
  142.1751   79.5667  219.2065 H   0  0  0  0  0  0  0  0  0  0  0  0
  143.2628   78.2952  217.4128 H   0  0  0  0  0  0  0  0  0  0  0  0
  143.3421   75.7876  217.5911 H   0  0  0  0  0  0  0  0  0  0  0  0
  144.6467   75.3344  219.7646 H   0  0  0  0  0  0  0  0  0  0  0  0
  144.6751   74.6455  221.4367 H   0  0  0  0  0  0  0  0  0  0  0  0
  146.0626   73.6235  218.9427 H   0  0  0  0  0  0  0  0  0  0  0  0
  146.7854   74.1258  220.5058 H   0  0  0  0  0  0  0  0  0  0  0  0
  145.7130   72.2730  221.5660 H   0  0  0  0  0  0  0  0  0  0  0  0
  144.8864   71.6206  218.7674 H   0  0  0  0  0  0  0  0  0  0  0  0
  144.7331   70.5190  220.1764 H   0  0  0  0  0  0  0  0  0  0  0  0
  142.6428   71.8095  219.5155 H   0  0  0  0  0  0  0  0  0  0  0  0
  143.1615   71.9408  221.2380 H   0  0  0  0  0  0  0  0  0  0  0  0
  141.2399   75.9745  221.3456 H   0  0  0  0  0  0  0  0  0  0  0  0
  137.1113   78.2617  222.0648 H   0  0  0  0  0  0  0  0  0  0  0  0
  135.8532   79.5244  223.8025 H   0  0  0  0  0  0  0  0  0  0  0  0
  138.2828   82.6700  226.1531 H   0  0  0  0  0  0  0  0  0  0  0  0
  136.8482   83.7974  227.8167 H   0  0  0  0  0  0  0  0  0  0  0  0
  133.6031   81.2203  226.7449 H   0  0  0  0  0  0  0  0  0  0  0  0
  135.0245   80.0843  225.0858 H   0  0  0  0  0  0  0  0  0  0  0  0
  139.4177   81.5325  225.0211 H   0  0  0  0  0  0  0  0  0  0  0  0
  1  2  2  0
  2  3  1  0
  3  4  1  0
  4  5  1  0
  5  6  2  0
  6  7  1  0
  7  8  2  0
  8  9  1  0
  9 10  1  0
 10 11  2  0
 10 12  1  0
 12 13  1  0
 13 14  1  0
 14 15  1  0
 15 16  1  0
 16 17  1  0
  9 18  2  0
  4 19  2  0
 19 20  1  0
 20 21  2  0
 21 22  1  0
 22 23  2  0
 23 24  1  0
 24 25  2  0
 25 26  1  0
 26 27  2  0
 27 28  1  0
 27 29  1  0
 29 30  2  0
 23 31  1  0
 31 32  2  0
 32  2  1  0
 18  5  1  0
 32 20  1  0
 17 12  1  0
 30 24  1  0
  3 33  1  0
  3 34  1  0
  6 35  1  0
  7 36  1  0
  8 37  1  0
 13 38  1  0
 13 39  1  0
 14 40  1  0
 14 41  1  0
 15 42  1  0
 16 43  1  0
 16 44  1  0
 17 45  1  0
 17 46  1  0
 18 47  1  0
 21 48  1  0
 22 49  1  0
 25 50  1  0
 26 51  1  0
 29 52  1  0
 30 53  1  0
 31 54  1  0
M  END
>  <smiles>  (16) 
O=C1CC(c2cccc(C(=O)N3CCNCC3)c2)=Nc2ccc(-c3ccc(F)cc3)cc21

>  <score_type>  (16) 
oracle

>  <origin>  (16) 
autodockgpu

>  <m_score__min__energy>  (16) 
-8.5

>  <m_primary>  (16) 
energy

>  <rmsd>  (16) 
8.474957308084058

>  <m_score__min__rmsd>  (16) 
8.474957308084058

>  <meeko>  (16) 
{"free_energy": -8.29, "intermolecular_energy": -9.19, "internal_energy": -0.99, "cluster_size": 45, "cluster_id": 1, "rank_in_cluster": 34}

>  <energy>  (16) 
-8.44

>  <cluster_rmsd>  (16) 
0.14

>  <cluster>  (16) 
1

$$$$

     RDKit          3D

 54 58  0  0  0  0  0  0  0  0999 V2000
  141.8300   81.7620  223.2790 O   0  0  0  0  0  0  0  0  0  0  0  0
  141.2790   80.7540  222.7250 C   0  0  0  0  0  0  0  0  0  0  0  0
  142.0470   79.9720  221.7340 C   0  0  0  0  0  0  0  0  0  0  0  0
  141.2030   78.8670  221.2390 C   0  0  0  0  0  0  0  0  0  0  0  0
  141.8000   77.9660  220.2310 C   0  0  0  0  0  0  0  0  0  0  0  0
  142.3620   78.4430  219.0670 C   0  0  0  0  0  0  0  0  0  0  0  0
  142.9280   77.6520  218.1020 C   0  0  0  0  0  0  0  0  0  0  0  0
  142.9340   76.2770  218.3140 C   0  0  0  0  0  0  0  0  0  0  0  0
  142.3800   75.7640  219.4680 C   0  0  0  0  0  0  0  0  0  0  0  0
  142.3590   74.3280  219.7400 C   0  0  0  0  0  0  0  0  0  0  0  0
  141.2480   73.7500  219.6110 O   0  0  0  0  0  0  0  0  0  0  0  0
  143.5490   73.6350  220.1290 N   0  0  0  0  0  0  0  0  0  0  0  0
  144.7760   74.3810  220.2500 C   0  0  0  0  0  0  0  0  0  0  0  0
  145.9630   73.5380  219.8740 C   0  0  0  0  0  0  0  0  0  0  0  0
  145.8300   72.2310  220.4880 N   0  0  0  0  0  0  0  0  0  0  0  0
  144.6920   71.5100  219.9720 C   0  0  0  0  0  0  0  0  0  0  0  0
  143.4380   72.2120  220.3780 C   0  0  0  0  0  0  0  0  0  0  0  0
  141.8130   76.5820  220.4300 C   0  0  0  0  0  0  0  0  0  0  0  0
  140.0010   78.6250  221.6100 N   0  0  0  0  0  0  0  0  0  0  0  0
  139.2880   79.3930  222.5670 C   0  0  0  0  0  0  0  0  0  0  0  0
  138.0090   79.0590  222.8990 C   0  0  0  0  0  0  0  0  0  0  0  0
  137.3690   79.8570  223.8440 C   0  0  0  0  0  0  0  0  0  0  0  0
  137.9600   80.9370  224.4380 C   0  0  0  0  0  0  0  0  0  0  0  0
  137.2170   81.7220  225.4210 C   0  0  0  0  0  0  0  0  0  0  0  0
  136.9070   81.2440  226.6790 C   0  0  0  0  0  0  0  0  0  0  0  0
  136.2020   82.0370  227.5630 C   0  0  0  0  0  0  0  0  0  0  0  0
  135.7890   83.3270  227.2190 C   0  0  0  0  0  0  0  0  0  0  0  0
  135.0940   84.1050  228.0970 F   0  0  0  0  0  0  0  0  0  0  0  0
  136.1230   83.7610  225.9510 C   0  0  0  0  0  0  0  0  0  0  0  0
  136.8260   82.9850  225.0510 C   0  0  0  0  0  0  0  0  0  0  0  0
  139.2620   81.2420  224.0700 C   0  0  0  0  0  0  0  0  0  0  0  0
  139.9160   80.4590  223.1310 C   0  0  0  0  0  0  0  0  0  0  0  0
  142.3350   80.6214  220.8942 H   0  0  0  0  0  0  0  0  0  0  0  0
  142.9555   79.5659  222.2028 H   0  0  0  0  0  0  0  0  0  0  0  0
  142.3559   79.5305  218.9015 H   0  0  0  0  0  0  0  0  0  0  0  0
  143.3627   78.0891  217.1910 H   0  0  0  0  0  0  0  0  0  0  0  0
  143.3777   75.6035  217.5660 H   0  0  0  0  0  0  0  0  0  0  0  0
  144.7315   75.2556  219.5844 H   0  0  0  0  0  0  0  0  0  0  0  0
  144.8903   74.6968  221.2975 H   0  0  0  0  0  0  0  0  0  0  0  0
  146.0055   73.4286  218.7803 H   0  0  0  0  0  0  0  0  0  0  0  0
  146.8868   74.0206  220.2258 H   0  0  0  0  0  0  0  0  0  0  0  0
  145.8540   72.3010  221.5250 H   0  0  0  0  0  0  0  0  0  0  0  0
  144.7506   71.4677  218.8744 H   0  0  0  0  0  0  0  0  0  0  0  0
  144.6893   70.4871  220.3765 H   0  0  0  0  0  0  0  0  0  0  0  0
  142.5938   71.8082  219.7998 H   0  0  0  0  0  0  0  0  0  0  0  0
  143.2728   72.0511  221.4536 H   0  0  0  0  0  0  0  0  0  0  0  0
  141.3771   76.1477  221.3418 H   0  0  0  0  0  0  0  0  0  0  0  0
  137.5040   78.1962  222.4402 H   0  0  0  0  0  0  0  0  0  0  0  0
  136.3361   79.6056  224.1266 H   0  0  0  0  0  0  0  0  0  0  0  0
  137.2213   80.2327  226.9766 H   0  0  0  0  0  0  0  0  0  0  0  0
  135.9598   81.6440  228.5614 H   0  0  0  0  0  0  0  0  0  0  0  0
  135.8148   84.7713  225.6441 H   0  0  0  0  0  0  0  0  0  0  0  0
  137.0695   83.3734  224.0511 H   0  0  0  0  0  0  0  0  0  0  0  0
  139.7749   82.1036  224.5223 H   0  0  0  0  0  0  0  0  0  0  0  0
  1  2  2  0
  2  3  1  0
  3  4  1  0
  4  5  1  0
  5  6  2  0
  6  7  1  0
  7  8  2  0
  8  9  1  0
  9 10  1  0
 10 11  2  0
 10 12  1  0
 12 13  1  0
 13 14  1  0
 14 15  1  0
 15 16  1  0
 16 17  1  0
  9 18  2  0
  4 19  2  0
 19 20  1  0
 20 21  2  0
 21 22  1  0
 22 23  2  0
 23 24  1  0
 24 25  2  0
 25 26  1  0
 26 27  2  0
 27 28  1  0
 27 29  1  0
 29 30  2  0
 23 31  1  0
 31 32  2  0
 32  2  1  0
 18  5  1  0
 32 20  1  0
 17 12  1  0
 30 24  1  0
  3 33  1  0
  3 34  1  0
  6 35  1  0
  7 36  1  0
  8 37  1  0
 13 38  1  0
 13 39  1  0
 14 40  1  0
 14 41  1  0
 15 42  1  0
 16 43  1  0
 16 44  1  0
 17 45  1  0
 17 46  1  0
 18 47  1  0
 21 48  1  0
 22 49  1  0
 25 50  1  0
 26 51  1  0
 29 52  1  0
 30 53  1  0
 31 54  1  0
M  END
>  <smiles>  (17) 
O=C1CC(c2cccc(C(=O)N3CCNCC3)c2)=Nc2ccc(-c3ccc(F)cc3)cc21

>  <score_type>  (17) 
oracle

>  <origin>  (17) 
autodockgpu

>  <m_score__min__energy>  (17) 
-8.5

>  <m_primary>  (17) 
energy

>  <rmsd>  (17) 
8.714993158395917

>  <m_score__min__rmsd>  (17) 
8.714993158395917

>  <meeko>  (17) 
{"free_energy": -8.09, "intermolecular_energy": -8.98, "internal_energy": -0.98, "cluster_size": 45, "cluster_id": 1, "rank_in_cluster": 45}

>  <energy>  (17) 
-8.44

>  <cluster_rmsd>  (17) 
0.15

>  <cluster>  (17) 
1

$$$$

     RDKit          3D

 54 58  0  0  0  0  0  0  0  0999 V2000
  141.9950   81.0420  223.8270 O   0  0  0  0  0  0  0  0  0  0  0  0
  141.3720   80.1990  223.1010 C   0  0  0  0  0  0  0  0  0  0  0  0
  142.1370   79.3790  222.1380 C   0  0  0  0  0  0  0  0  0  0  0  0
  141.2030   78.4880  221.4210 C   0  0  0  0  0  0  0  0  0  0  0  0
  141.7830   77.5830  220.4080 C   0  0  0  0  0  0  0  0  0  0  0  0
  142.3030   78.0530  219.2210 C   0  0  0  0  0  0  0  0  0  0  0  0
  142.8530   77.2580  218.2500 C   0  0  0  0  0  0  0  0  0  0  0  0
  142.8860   75.8860  218.4800 C   0  0  0  0  0  0  0  0  0  0  0  0
  142.3740   75.3800  219.6560 C   0  0  0  0  0  0  0  0  0  0  0  0
  142.3840   73.9470  219.9470 C   0  0  0  0  0  0  0  0  0  0  0  0
  141.2590   73.3930  220.0650 O   0  0  0  0  0  0  0  0  0  0  0  0
  143.6150   73.2320  220.0850 N   0  0  0  0  0  0  0  0  0  0  0  0
  144.8540   73.9530  219.9320 C   0  0  0  0  0  0  0  0  0  0  0  0
  145.9180   73.0790  219.3260 C   0  0  0  0  0  0  0  0  0  0  0  0
  145.8920   71.7810  219.9720 N   0  0  0  0  0  0  0  0  0  0  0  0
  144.6560   71.0810  219.7200 C   0  0  0  0  0  0  0  0  0  0  0  0
  143.5310   71.8150  220.3730 C   0  0  0  0  0  0  0  0  0  0  0  0
  141.8240   76.2030  220.6240 C   0  0  0  0  0  0  0  0  0  0  0  0
  139.9360   78.4350  221.6050 N   0  0  0  0  0  0  0  0  0  0  0  0
  139.2280   79.2350  222.5390 C   0  0  0  0  0  0  0  0  0  0  0  0
  137.8760   79.1090  222.6650 C   0  0  0  0  0  0  0  0  0  0  0  0
  137.2460   79.9260  223.6000 C   0  0  0  0  0  0  0  0  0  0  0  0
  137.9150   80.8290  224.3790 C   0  0  0  0  0  0  0  0  0  0  0  0
  137.1770   81.6490  225.3370 C   0  0  0  0  0  0  0  0  0  0  0  0
  136.9200   81.2380  226.6300 C   0  0  0  0  0  0  0  0  0  0  0  0
  136.2170   82.0610  227.4880 C   0  0  0  0  0  0  0  0  0  0  0  0
  135.7510   83.3150  227.0810 C   0  0  0  0  0  0  0  0  0  0  0  0
  135.0580   84.1220  227.9320 F   0  0  0  0  0  0  0  0  0  0  0  0
  136.0320   83.6810  225.7790 C   0  0  0  0  0  0  0  0  0  0  0  0
  136.7330   82.8740  224.9050 C   0  0  0  0  0  0  0  0  0  0  0  0
  139.2890   80.9250  224.2180 C   0  0  0  0  0  0  0  0  0  0  0  0
  139.9340   80.1200  223.2920 C   0  0  0  0  0  0  0  0  0  0  0  0
  142.6476   80.0353  221.4179 H   0  0  0  0  0  0  0  0  0  0  0  0
  142.8879   78.7791  222.6731 H   0  0  0  0  0  0  0  0  0  0  0  0
  142.2745   79.1379  219.0415 H   0  0  0  0  0  0  0  0  0  0  0  0
  143.2544   77.6893  217.3211 H   0  0  0  0  0  0  0  0  0  0  0  0
  143.3180   75.2092  217.7281 H   0  0  0  0  0  0  0  0  0  0  0  0
  144.6861   74.8209  219.2774 H   0  0  0  0  0  0  0  0  0  0  0  0
  145.1938   74.2786  220.9262 H   0  0  0  0  0  0  0  0  0  0  0  0
  145.7264   72.9584  218.2496 H   0  0  0  0  0  0  0  0  0  0  0  0
  146.9046   73.5439  219.4689 H   0  0  0  0  0  0  0  0  0  0  0  0
  146.1370   71.8620  220.9800 H   0  0  0  0  0  0  0  0  0  0  0  0
  144.4790   71.0266  218.6357 H   0  0  0  0  0  0  0  0  0  0  0  0
  144.7190   70.0625  220.1307 H   0  0  0  0  0  0  0  0  0  0  0  0
  142.5753   71.4245  219.9934 H   0  0  0  0  0  0  0  0  0  0  0  0
  143.5949   71.6687  221.4614 H   0  0  0  0  0  0  0  0  0  0  0  0
  141.4230   75.7746  221.5544 H   0  0  0  0  0  0  0  0  0  0  0  0
  137.3074   78.3925  222.0540 H   0  0  0  0  0  0  0  0  0  0  0  0
  136.1557   79.8408  223.7179 H   0  0  0  0  0  0  0  0  0  0  0  0
  137.2748   80.2561  226.9764 H   0  0  0  0  0  0  0  0  0  0  0  0
  136.0190   81.7220  228.5156 H   0  0  0  0  0  0  0  0  0  0  0  0
  135.6811   84.6605  225.4220 H   0  0  0  0  0  0  0  0  0  0  0  0
  136.9330   83.2083  223.8763 H   0  0  0  0  0  0  0  0  0  0  0  0
  139.8661   81.6388  224.8241 H   0  0  0  0  0  0  0  0  0  0  0  0
  1  2  2  0
  2  3  1  0
  3  4  1  0
  4  5  1  0
  5  6  2  0
  6  7  1  0
  7  8  2  0
  8  9  1  0
  9 10  1  0
 10 11  2  0
 10 12  1  0
 12 13  1  0
 13 14  1  0
 14 15  1  0
 15 16  1  0
 16 17  1  0
  9 18  2  0
  4 19  2  0
 19 20  1  0
 20 21  2  0
 21 22  1  0
 22 23  2  0
 23 24  1  0
 24 25  2  0
 25 26  1  0
 26 27  2  0
 27 28  1  0
 27 29  1  0
 29 30  2  0
 23 31  1  0
 31 32  2  0
 32  2  1  0
 18  5  1  0
 32 20  1  0
 17 12  1  0
 30 24  1  0
  3 33  1  0
  3 34  1  0
  6 35  1  0
  7 36  1  0
  8 37  1  0
 13 38  1  0
 13 39  1  0
 14 40  1  0
 14 41  1  0
 15 42  1  0
 16 43  1  0
 16 44  1  0
 17 45  1  0
 17 46  1  0
 18 47  1  0
 21 48  1  0
 22 49  1  0
 25 50  1  0
 26 51  1  0
 29 52  1  0
 30 53  1  0
 31 54  1  0
M  END
>  <smiles>  (18) 
O=C1CC(c2cccc(C(=O)N3CCNCC3)c2)=Nc2ccc(-c3ccc(F)cc3)cc21

>  <score_type>  (18) 
oracle

>  <origin>  (18) 
autodockgpu

>  <m_score__min__energy>  (18) 
-8.5

>  <m_primary>  (18) 
energy

>  <rmsd>  (18) 
8.490912758226031

>  <m_score__min__rmsd>  (18) 
8.490912758226031

>  <meeko>  (18) 
{"free_energy": -8.46, "intermolecular_energy": -9.35, "internal_energy": -0.93, "cluster_size": 45, "cluster_id": 1, "rank_in_cluster": 10}

>  <energy>  (18) 
-8.43

>  <cluster_rmsd>  (18) 
0.1

>  <cluster>  (18) 
1

$$$$

     RDKit          3D

 54 58  0  0  0  0  0  0  0  0999 V2000
  142.0040   80.9880  223.8630 O   0  0  0  0  0  0  0  0  0  0  0  0
  141.3780   80.1700  223.1110 C   0  0  0  0  0  0  0  0  0  0  0  0
  142.1430   79.3540  222.1460 C   0  0  0  0  0  0  0  0  0  0  0  0
  141.2050   78.4940  221.3980 C   0  0  0  0  0  0  0  0  0  0  0  0
  141.7860   77.5960  220.3780 C   0  0  0  0  0  0  0  0  0  0  0  0
  142.3050   78.0750  219.1940 C   0  0  0  0  0  0  0  0  0  0  0  0
  142.8550   77.2880  218.2170 C   0  0  0  0  0  0  0  0  0  0  0  0
  142.8880   75.9140  218.4360 C   0  0  0  0  0  0  0  0  0  0  0  0
  142.3770   75.3990  219.6080 C   0  0  0  0  0  0  0  0  0  0  0  0
  142.3870   73.9640  219.8880 C   0  0  0  0  0  0  0  0  0  0  0  0
  141.2630   73.4010  219.9610 O   0  0  0  0  0  0  0  0  0  0  0  0
  143.6180   73.2580  220.0660 N   0  0  0  0  0  0  0  0  0  0  0  0
  144.8560   73.9890  219.9650 C   0  0  0  0  0  0  0  0  0  0  0  0
  145.9480   73.1280  219.3920 C   0  0  0  0  0  0  0  0  0  0  0  0
  145.9090   71.8250  220.0270 N   0  0  0  0  0  0  0  0  0  0  0  0
  144.6890   71.1170  219.7230 C   0  0  0  0  0  0  0  0  0  0  0  0
  143.5350   71.8380  220.3400 C   0  0  0  0  0  0  0  0  0  0  0  0
  141.8270   76.2140  220.5830 C   0  0  0  0  0  0  0  0  0  0  0  0
  139.9350   78.4610  221.5600 N   0  0  0  0  0  0  0  0  0  0  0  0
  139.2260   79.2570  222.4970 C   0  0  0  0  0  0  0  0  0  0  0  0
  137.8700   79.1530  222.5990 C   0  0  0  0  0  0  0  0  0  0  0  0
  137.2400   79.9650  223.5380 C   0  0  0  0  0  0  0  0  0  0  0  0
  137.9120   80.8410  224.3450 C   0  0  0  0  0  0  0  0  0  0  0  0
  137.1730   81.6570  225.3050 C   0  0  0  0  0  0  0  0  0  0  0  0
  136.9200   81.2430  226.5980 C   0  0  0  0  0  0  0  0  0  0  0  0
  136.2160   82.0620  227.4590 C   0  0  0  0  0  0  0  0  0  0  0  0
  135.7450   83.3150  227.0550 C   0  0  0  0  0  0  0  0  0  0  0  0
  135.0510   84.1190  227.9090 F   0  0  0  0  0  0  0  0  0  0  0  0
  136.0230   83.6850  225.7530 C   0  0  0  0  0  0  0  0  0  0  0  0
  136.7250   82.8810  224.8760 C   0  0  0  0  0  0  0  0  0  0  0  0
  139.2900   80.9150  224.2070 C   0  0  0  0  0  0  0  0  0  0  0  0
  139.9360   80.1150  223.2780 C   0  0  0  0  0  0  0  0  0  0  0  0
  142.6773   80.0136  221.4464 H   0  0  0  0  0  0  0  0  0  0  0  0
  142.8739   78.7306  222.6819 H   0  0  0  0  0  0  0  0  0  0  0  0
  142.2755   79.1611  219.0225 H   0  0  0  0  0  0  0  0  0  0  0  0
  143.2566   77.7267  217.2916 H   0  0  0  0  0  0  0  0  0  0  0  0
  143.3193   75.2431  217.6784 H   0  0  0  0  0  0  0  0  0  0  0  0
  144.7060   74.8611  219.3116 H   0  0  0  0  0  0  0  0  0  0  0  0
  145.1562   74.3087  220.9738 H   0  0  0  0  0  0  0  0  0  0  0  0
  145.7966   73.0141  218.3084 H   0  0  0  0  0  0  0  0  0  0  0  0
  146.9250   73.5994  219.5743 H   0  0  0  0  0  0  0  0  0  0  0  0
  146.1160   71.8990  221.0440 H   0  0  0  0  0  0  0  0  0  0  0  0
  144.5529   71.0702  218.6325 H   0  0  0  0  0  0  0  0  0  0  0  0
  144.7446   70.0953  220.1267 H   0  0  0  0  0  0  0  0  0  0  0  0
  142.5968   71.4432  219.9229 H   0  0  0  0  0  0  0  0  0  0  0  0
  143.5607   71.6840  221.4289 H   0  0  0  0  0  0  0  0  0  0  0  0
  141.4262   75.7780  221.5100 H   0  0  0  0  0  0  0  0  0  0  0  0
  137.2987   78.4575  221.9666 H   0  0  0  0  0  0  0  0  0  0  0  0
  136.1464   79.8986  223.6358 H   0  0  0  0  0  0  0  0  0  0  0  0
  137.2789   80.2617  226.9419 H   0  0  0  0  0  0  0  0  0  0  0  0
  136.0214   81.7206  228.4864 H   0  0  0  0  0  0  0  0  0  0  0  0
  135.6692   84.6644  225.3987 H   0  0  0  0  0  0  0  0  0  0  0  0
  136.9222   83.2175  223.8475 H   0  0  0  0  0  0  0  0  0  0  0  0
  139.8696   81.6081  224.8344 H   0  0  0  0  0  0  0  0  0  0  0  0
  1  2  2  0
  2  3  1  0
  3  4  1  0
  4  5  1  0
  5  6  2  0
  6  7  1  0
  7  8  2  0
  8  9  1  0
  9 10  1  0
 10 11  2  0
 10 12  1  0
 12 13  1  0
 13 14  1  0
 14 15  1  0
 15 16  1  0
 16 17  1  0
  9 18  2  0
  4 19  2  0
 19 20  1  0
 20 21  2  0
 21 22  1  0
 22 23  2  0
 23 24  1  0
 24 25  2  0
 25 26  1  0
 26 27  2  0
 27 28  1  0
 27 29  1  0
 29 30  2  0
 23 31  1  0
 31 32  2  0
 32  2  1  0
 18  5  1  0
 32 20  1  0
 17 12  1  0
 30 24  1  0
  3 33  1  0
  3 34  1  0
  6 35  1  0
  7 36  1  0
  8 37  1  0
 13 38  1  0
 13 39  1  0
 14 40  1  0
 14 41  1  0
 15 42  1  0
 16 43  1  0
 16 44  1  0
 17 45  1  0
 17 46  1  0
 18 47  1  0
 21 48  1  0
 22 49  1  0
 25 50  1  0
 26 51  1  0
 29 52  1  0
 30 53  1  0
 31 54  1  0
M  END
>  <smiles>  (19) 
O=C1CC(c2cccc(C(=O)N3CCNCC3)c2)=Nc2ccc(-c3ccc(F)cc3)cc21

>  <score_type>  (19) 
oracle

>  <origin>  (19) 
autodockgpu

>  <m_score__min__energy>  (19) 
-8.5

>  <m_primary>  (19) 
energy

>  <rmsd>  (19) 
8.48968152097792

>  <m_score__min__rmsd>  (19) 
8.48968152097792

>  <meeko>  (19) 
{"free_energy": -8.46, "intermolecular_energy": -9.35, "internal_energy": -0.94, "cluster_size": 45, "cluster_id": 1, "rank_in_cluster": 9}

>  <energy>  (19) 
-8.43

>  <cluster_rmsd>  (19) 
0.2

>  <cluster>  (19) 
1

$$$$

     RDKit          3D

 54 58  0  0  0  0  0  0  0  0999 V2000
  141.5200   81.2020  223.9760 O   0  0  0  0  0  0  0  0  0  0  0  0
  140.9740   80.3380  223.2140 C   0  0  0  0  0  0  0  0  0  0  0  0
  141.8040   79.6400  222.2110 C   0  0  0  0  0  0  0  0  0  0  0  0
  140.9530   78.6980  221.4580 C   0  0  0  0  0  0  0  0  0  0  0  0
  141.6080   77.8990  220.4010 C   0  0  0  0  0  0  0  0  0  0  0  0
  142.1970   78.4860  219.3020 C   0  0  0  0  0  0  0  0  0  0  0  0
  142.8170   77.7930  218.2960 C   0  0  0  0  0  0  0  0  0  0  0  0
  142.8520   76.4050  218.3930 C   0  0  0  0  0  0  0  0  0  0  0  0
  142.2730   75.7840  219.4780 C   0  0  0  0  0  0  0  0  0  0  0  0
  142.2820   74.3300  219.6290 C   0  0  0  0  0  0  0  0  0  0  0  0
  141.2110   73.7320  219.3460 O   0  0  0  0  0  0  0  0  0  0  0  0
  143.4550   73.6430  220.0740 N   0  0  0  0  0  0  0  0  0  0  0  0
  144.6360   74.4130  220.3740 C   0  0  0  0  0  0  0  0  0  0  0  0
  145.8850   73.6400  220.0470 C   0  0  0  0  0  0  0  0  0  0  0  0
  145.7440   72.2820  220.5360 N   0  0  0  0  0  0  0  0  0  0  0  0
  144.6880   71.5740  219.8550 C   0  0  0  0  0  0  0  0  0  0  0  0
  143.3750   72.2010  220.1940 C   0  0  0  0  0  0  0  0  0  0  0  0
  141.6520   76.5050  220.4840 C   0  0  0  0  0  0  0  0  0  0  0  0
  139.6990   78.5150  221.6450 N   0  0  0  0  0  0  0  0  0  0  0  0
  138.9260   79.2010  222.6180 C   0  0  0  0  0  0  0  0  0  0  0  0
  137.5940   78.9410  222.7430 C   0  0  0  0  0  0  0  0  0  0  0  0
  136.8970   79.6500  223.7180 C   0  0  0  0  0  0  0  0  0  0  0  0
  137.4830   80.5760  224.5350 C   0  0  0  0  0  0  0  0  0  0  0  0
  136.6790   81.2770  225.5320 C   0  0  0  0  0  0  0  0  0  0  0  0
  135.3630   80.9500  225.7950 C   0  0  0  0  0  0  0  0  0  0  0  0
  134.6560   81.6520  226.7520 C   0  0  0  0  0  0  0  0  0  0  0  0
  135.2410   82.6970  227.4740 C   0  0  0  0  0  0  0  0  0  0  0  0
  134.5380   83.3840  228.4180 F   0  0  0  0  0  0  0  0  0  0  0  0
  136.5590   82.9860  227.1770 C   0  0  0  0  0  0  0  0  0  0  0  0
  137.2830   82.2980  226.2240 C   0  0  0  0  0  0  0  0  0  0  0  0
  138.8410   80.8110  224.3730 C   0  0  0  0  0  0  0  0  0  0  0  0
  139.5510   80.1140  223.4080 C   0  0  0  0  0  0  0  0  0  0  0  0
  142.2433   80.3743  221.5197 H   0  0  0  0  0  0  0  0  0  0  0  0
  142.6132   79.0905  222.7142 H   0  0  0  0  0  0  0  0  0  0  0  0
  142.1673   79.5831  219.2277 H   0  0  0  0  0  0  0  0  0  0  0  0
  143.2714   78.3154  217.4412 H   0  0  0  0  0  0  0  0  0  0  0  0
  143.3390   75.8075  217.6082 H   0  0  0  0  0  0  0  0  0  0  0  0
  144.6212   75.3392  219.7807 H   0  0  0  0  0  0  0  0  0  0  0  0
  144.6391   74.6426  221.4498 H   0  0  0  0  0  0  0  0  0  0  0  0
  146.0346   73.6255  218.9573 H   0  0  0  0  0  0  0  0  0  0  0  0
  146.7526   74.1180  220.5252 H   0  0  0  0  0  0  0  0  0  0  0  0
  145.6670   72.2650  221.5730 H   0  0  0  0  0  0  0  0  0  0  0  0
  144.8511   71.6273  218.7685 H   0  0  0  0  0  0  0  0  0  0  0  0
  144.6863   70.5207  220.1721 H   0  0  0  0  0  0  0  0  0  0  0  0
  142.6048   71.8227  219.5058 H   0  0  0  0  0  0  0  0  0  0  0  0
  143.1156   71.9442  221.2317 H   0  0  0  0  0  0  0  0  0  0  0  0
  141.1976   75.9852  221.3403 H   0  0  0  0  0  0  0  0  0  0  0  0
  137.0910   78.2027  222.1012 H   0  0  0  0  0  0  0  0  0  0  0  0
  135.8209   79.4551  223.8367 H   0  0  0  0  0  0  0  0  0  0  0  0
  134.8783   80.1313  225.2429 H   0  0  0  0  0  0  0  0  0  0  0  0
  133.6082   81.3826  226.9508 H   0  0  0  0  0  0  0  0  0  0  0  0
  137.0540   83.8014  227.7248 H   0  0  0  0  0  0  0  0  0  0  0  0
  138.3309   82.5643  226.0214 H   0  0  0  0  0  0  0  0  0  0  0  0
  139.3527   81.5485  225.0088 H   0  0  0  0  0  0  0  0  0  0  0  0
  1  2  2  0
  2  3  1  0
  3  4  1  0
  4  5  1  0
  5  6  2  0
  6  7  1  0
  7  8  2  0
  8  9  1  0
  9 10  1  0
 10 11  2  0
 10 12  1  0
 12 13  1  0
 13 14  1  0
 14 15  1  0
 15 16  1  0
 16 17  1  0
  9 18  2  0
  4 19  2  0
 19 20  1  0
 20 21  2  0
 21 22  1  0
 22 23  2  0
 23 24  1  0
 24 25  2  0
 25 26  1  0
 26 27  2  0
 27 28  1  0
 27 29  1  0
 29 30  2  0
 23 31  1  0
 31 32  2  0
 32  2  1  0
 18  5  1  0
 32 20  1  0
 17 12  1  0
 30 24  1  0
  3 33  1  0
  3 34  1  0
  6 35  1  0
  7 36  1  0
  8 37  1  0
 13 38  1  0
 13 39  1  0
 14 40  1  0
 14 41  1  0
 15 42  1  0
 16 43  1  0
 16 44  1  0
 17 45  1  0
 17 46  1  0
 18 47  1  0
 21 48  1  0
 22 49  1  0
 25 50  1  0
 26 51  1  0
 29 52  1  0
 30 53  1  0
 31 54  1  0
M  END
>  <smiles>  (20) 
O=C1CC(c2cccc(C(=O)N3CCNCC3)c2)=Nc2ccc(-c3ccc(F)cc3)cc21

>  <score_type>  (20) 
oracle

>  <origin>  (20) 
autodockgpu

>  <m_score__min__energy>  (20) 
-8.5

>  <m_primary>  (20) 
energy

>  <rmsd>  (20) 
8.470663288243554

>  <m_score__min__rmsd>  (20) 
8.470663288243554

>  <meeko>  (20) 
{"free_energy": -8.33, "intermolecular_energy": -9.22, "internal_energy": -0.99, "cluster_size": 45, "cluster_id": 1, "rank_in_cluster": 33}

>  <energy>  (20) 
-8.42

>  <cluster_rmsd>  (20) 
0.16

>  <cluster>  (20) 
1

$$$$

     RDKit          3D

 54 58  0  0  0  0  0  0  0  0999 V2000
  142.0200   80.7780  224.0540 O   0  0  0  0  0  0  0  0  0  0  0  0
  141.3910   80.1160  223.1640 C   0  0  0  0  0  0  0  0  0  0  0  0
  142.1630   79.3590  222.1550 C   0  0  0  0  0  0  0  0  0  0  0  0
  141.2210   78.6810  221.2430 C   0  0  0  0  0  0  0  0  0  0  0  0
  141.8060   77.8680  220.1570 C   0  0  0  0  0  0  0  0  0  0  0  0
  142.3360   78.4400  219.0210 C   0  0  0  0  0  0  0  0  0  0  0  0
  142.8900   77.7330  217.9870 C   0  0  0  0  0  0  0  0  0  0  0  0
  142.9180   76.3450  218.0930 C   0  0  0  0  0  0  0  0  0  0  0  0
  142.3960   75.7380  219.2160 C   0  0  0  0  0  0  0  0  0  0  0  0
  142.4000   74.2860  219.3780 C   0  0  0  0  0  0  0  0  0  0  0  0
  141.3590   73.6790  219.0110 O   0  0  0  0  0  0  0  0  0  0  0  0
  143.5350   73.6090  219.9260 N   0  0  0  0  0  0  0  0  0  0  0  0
  144.6810   74.3880  220.3190 C   0  0  0  0  0  0  0  0  0  0  0  0
  145.9570   73.6200  220.1050 C   0  0  0  0  0  0  0  0  0  0  0  0
  145.7830   72.2660  220.5920 N   0  0  0  0  0  0  0  0  0  0  0  0
  144.7920   71.5460  219.8290 C   0  0  0  0  0  0  0  0  0  0  0  0
  143.4520   72.1680  220.0510 C   0  0  0  0  0  0  0  0  0  0  0  0
  141.8410   76.4740  220.2500 C   0  0  0  0  0  0  0  0  0  0  0  0
  139.9430   78.7390  221.3150 N   0  0  0  0  0  0  0  0  0  0  0  0
  139.2290   79.4740  222.2970 C   0  0  0  0  0  0  0  0  0  0  0  0
  137.8650   79.4770  222.2940 C   0  0  0  0  0  0  0  0  0  0  0  0
  137.2300   80.2200  223.2860 C   0  0  0  0  0  0  0  0  0  0  0  0
  137.9040   80.9300  224.2400 C   0  0  0  0  0  0  0  0  0  0  0  0
  137.1600   81.6840  225.2460 C   0  0  0  0  0  0  0  0  0  0  0  0
  136.9550   81.2180  226.5290 C   0  0  0  0  0  0  0  0  0  0  0  0
  136.2430   81.9790  227.4340 C   0  0  0  0  0  0  0  0  0  0  0  0
  135.7150   83.2260  227.0860 C   0  0  0  0  0  0  0  0  0  0  0  0
  135.0130   83.9730  227.9840 F   0  0  0  0  0  0  0  0  0  0  0  0
  135.9460   83.6500  225.7910 C   0  0  0  0  0  0  0  0  0  0  0  0
  136.6550   82.9040  224.8710 C   0  0  0  0  0  0  0  0  0  0  0  0
  139.2900   80.9000  224.2050 C   0  0  0  0  0  0  0  0  0  0  0  0
  139.9410   80.1660  223.2260 C   0  0  0  0  0  0  0  0  0  0  0  0
  142.7992   80.0497  221.5822 H   0  0  0  0  0  0  0  0  0  0  0  0
  142.7999   78.6141  222.6545 H   0  0  0  0  0  0  0  0  0  0  0  0
  142.3126   79.5367  218.9391 H   0  0  0  0  0  0  0  0  0  0  0  0
  143.2988   78.2443  217.1030 H   0  0  0  0  0  0  0  0  0  0  0  0
  143.3535   75.7367  217.2866 H   0  0  0  0  0  0  0  0  0  0  0  0
  144.7116   75.3098  219.7195 H   0  0  0  0  0  0  0  0  0  0  0  0
  144.5916   74.6258  221.3893 H   0  0  0  0  0  0  0  0  0  0  0  0
  146.1977   73.5974  219.0319 H   0  0  0  0  0  0  0  0  0  0  0  0
  146.7787   74.1072  220.6504 H   0  0  0  0  0  0  0  0  0  0  0  0
  145.6190   72.2560  221.6190 H   0  0  0  0  0  0  0  0  0  0  0  0
  145.0462   71.5922  218.7598 H   0  0  0  0  0  0  0  0  0  0  0  0
  144.7691   70.4949  220.1526 H   0  0  0  0  0  0  0  0  0  0  0  0
  142.7444   71.7799  219.3036 H   0  0  0  0  0  0  0  0  0  0  0  0
  143.1071   71.9179  221.0652 H   0  0  0  0  0  0  0  0  0  0  0  0
  141.4318   75.9661  221.1358 H   0  0  0  0  0  0  0  0  0  0  0  0
  137.2915   78.9169  221.5408 H   0  0  0  0  0  0  0  0  0  0  0  0
  136.1302   80.2364  223.3027 H   0  0  0  0  0  0  0  0  0  0  0  0
  137.3590   80.2402  226.8302 H   0  0  0  0  0  0  0  0  0  0  0  0
  136.0873   81.5954  228.4531 H   0  0  0  0  0  0  0  0  0  0  0  0
  135.5467   84.6264  225.4792 H   0  0  0  0  0  0  0  0  0  0  0  0
  136.8132   83.2824  223.8503 H   0  0  0  0  0  0  0  0  0  0  0  0
  139.8720   81.4580  224.9533 H   0  0  0  0  0  0  0  0  0  0  0  0
  1  2  2  0
  2  3  1  0
  3  4  1  0
  4  5  1  0
  5  6  2  0
  6  7  1  0
  7  8  2  0
  8  9  1  0
  9 10  1  0
 10 11  2  0
 10 12  1  0
 12 13  1  0
 13 14  1  0
 14 15  1  0
 15 16  1  0
 16 17  1  0
  9 18  2  0
  4 19  2  0
 19 20  1  0
 20 21  2  0
 21 22  1  0
 22 23  2  0
 23 24  1  0
 24 25  2  0
 25 26  1  0
 26 27  2  0
 27 28  1  0
 27 29  1  0
 29 30  2  0
 23 31  1  0
 31 32  2  0
 32  2  1  0
 18  5  1  0
 32 20  1  0
 17 12  1  0
 30 24  1  0
  3 33  1  0
  3 34  1  0
  6 35  1  0
  7 36  1  0
  8 37  1  0
 13 38  1  0
 13 39  1  0
 14 40  1  0
 14 41  1  0
 15 42  1  0
 16 43  1  0
 16 44  1  0
 17 45  1  0
 17 46  1  0
 18 47  1  0
 21 48  1  0
 22 49  1  0
 25 50  1  0
 26 51  1  0
 29 52  1  0
 30 53  1  0
 31 54  1  0
M  END
>  <smiles>  (21) 
O=C1CC(c2cccc(C(=O)N3CCNCC3)c2)=Nc2ccc(-c3ccc(F)cc3)cc21

>  <score_type>  (21) 
oracle

>  <origin>  (21) 
autodockgpu

>  <m_score__min__energy>  (21) 
-8.5

>  <m_primary>  (21) 
energy

>  <rmsd>  (21) 
8.50354007729531

>  <m_score__min__rmsd>  (21) 
8.50354007729531

>  <meeko>  (21) 
{"free_energy": -8.29, "intermolecular_energy": -9.18, "internal_energy": -1.0, "cluster_size": 45, "cluster_id": 1, "rank_in_cluster": 36}

>  <energy>  (21) 
-8.42

>  <cluster_rmsd>  (21) 
0.23

>  <cluster>  (21) 
1

$$$$

     RDKit          3D

 54 58  0  0  0  0  0  0  0  0999 V2000
  141.6480   81.1080  223.8550 O   0  0  0  0  0  0  0  0  0  0  0  0
  141.0950   80.2650  223.0740 C   0  0  0  0  0  0  0  0  0  0  0  0
  141.9230   79.5740  222.0640 C   0  0  0  0  0  0  0  0  0  0  0  0
  141.0650   78.6570  221.2880 C   0  0  0  0  0  0  0  0  0  0  0  0
  141.7170   77.8690  220.2210 C   0  0  0  0  0  0  0  0  0  0  0  0
  142.2980   78.4660  219.1230 C   0  0  0  0  0  0  0  0  0  0  0  0
  142.9140   77.7830  218.1080 C   0  0  0  0  0  0  0  0  0  0  0  0
  142.9540   76.3950  218.1940 C   0  0  0  0  0  0  0  0  0  0  0  0
  142.3820   75.7630  219.2780 C   0  0  0  0  0  0  0  0  0  0  0  0
  142.3960   74.3080  219.4160 C   0  0  0  0  0  0  0  0  0  0  0  0
  141.3490   73.7030  219.0670 O   0  0  0  0  0  0  0  0  0  0  0  0
  143.5480   73.6270  219.9230 N   0  0  0  0  0  0  0  0  0  0  0  0
  144.7020   74.4050  220.2970 C   0  0  0  0  0  0  0  0  0  0  0  0
  145.9750   73.6470  220.0380 C   0  0  0  0  0  0  0  0  0  0  0  0
  145.8190   72.2840  220.5070 N   0  0  0  0  0  0  0  0  0  0  0  0
  144.8100   71.5720  219.7590 C   0  0  0  0  0  0  0  0  0  0  0  0
  143.4750   72.1840  220.0260 C   0  0  0  0  0  0  0  0  0  0  0  0
  141.7650   76.4740  220.2930 C   0  0  0  0  0  0  0  0  0  0  0  0
  139.8070   78.4880  221.4630 N   0  0  0  0  0  0  0  0  0  0  0  0
  139.0370   79.1660  222.4430 C   0  0  0  0  0  0  0  0  0  0  0  0
  137.7000   78.9210  222.5560 C   0  0  0  0  0  0  0  0  0  0  0  0
  137.0060   79.6220  223.5380 C   0  0  0  0  0  0  0  0  0  0  0  0
  137.5990   80.5260  224.3760 C   0  0  0  0  0  0  0  0  0  0  0  0
  136.7980   81.2190  225.3810 C   0  0  0  0  0  0  0  0  0  0  0  0
  137.3230   82.1790  226.2240 C   0  0  0  0  0  0  0  0  0  0  0  0
  136.5110   82.7990  227.1530 C   0  0  0  0  0  0  0  0  0  0  0  0
  135.1540   82.4810  227.2670 C   0  0  0  0  0  0  0  0  0  0  0  0
  134.3590   83.0970  228.1860 F   0  0  0  0  0  0  0  0  0  0  0  0
  134.6750   81.5160  226.4030 C   0  0  0  0  0  0  0  0  0  0  0  0
  135.4690   80.8830  225.4670 C   0  0  0  0  0  0  0  0  0  0  0  0
  138.9610   80.7450  224.2260 C   0  0  0  0  0  0  0  0  0  0  0  0
  139.6690   80.0570  223.2540 C   0  0  0  0  0  0  0  0  0  0  0  0
  142.3769   80.3147  221.3892 H   0  0  0  0  0  0  0  0  0  0  0  0
  142.7212   79.0048  222.5628 H   0  0  0  0  0  0  0  0  0  0  0  0
  142.2648   79.5635  219.0575 H   0  0  0  0  0  0  0  0  0  0  0  0
  143.3615   78.3135  217.2546 H   0  0  0  0  0  0  0  0  0  0  0  0
  143.4389   75.8053  217.4021 H   0  0  0  0  0  0  0  0  0  0  0  0
  144.7128   75.3357  219.7108 H   0  0  0  0  0  0  0  0  0  0  0  0
  144.6402   74.6255  221.3729 H   0  0  0  0  0  0  0  0  0  0  0  0
  146.1884   73.6431  218.9589 H   0  0  0  0  0  0  0  0  0  0  0  0
  146.8083   74.1291  220.5701 H   0  0  0  0  0  0  0  0  0  0  0  0
  145.6820   72.2560  221.5370 H   0  0  0  0  0  0  0  0  0  0  0  0
  145.0355   71.6363  218.6843 H   0  0  0  0  0  0  0  0  0  0  0  0
  144.7996   70.5159  220.0666 H   0  0  0  0  0  0  0  0  0  0  0  0
  142.7496   71.8050  219.2910 H   0  0  0  0  0  0  0  0  0  0  0  0
  143.1584   71.9159  221.0448 H   0  0  0  0  0  0  0  0  0  0  0  0
  141.3169   75.9462  221.1478 H   0  0  0  0  0  0  0  0  0  0  0  0
  137.1917   78.2000  221.8989 H   0  0  0  0  0  0  0  0  0  0  0  0
  135.9265   79.4399  223.6456 H   0  0  0  0  0  0  0  0  0  0  0  0
  138.3870   82.4494  226.1554 H   0  0  0  0  0  0  0  0  0  0  0  0
  136.9418   83.5611  227.8191 H   0  0  0  0  0  0  0  0  0  0  0  0
  133.6122   81.2388  226.4631 H   0  0  0  0  0  0  0  0  0  0  0  0
  135.0427   80.1199  224.7992 H   0  0  0  0  0  0  0  0  0  0  0  0
  139.4781   81.4642  224.8782 H   0  0  0  0  0  0  0  0  0  0  0  0
  1  2  2  0
  2  3  1  0
  3  4  1  0
  4  5  1  0
  5  6  2  0
  6  7  1  0
  7  8  2  0
  8  9  1  0
  9 10  1  0
 10 11  2  0
 10 12  1  0
 12 13  1  0
 13 14  1  0
 14 15  1  0
 15 16  1  0
 16 17  1  0
  9 18  2  0
  4 19  2  0
 19 20  1  0
 20 21  2  0
 21 22  1  0
 22 23  2  0
 23 24  1  0
 24 25  2  0
 25 26  1  0
 26 27  2  0
 27 28  1  0
 27 29  1  0
 29 30  2  0
 23 31  1  0
 31 32  2  0
 32  2  1  0
 18  5  1  0
 32 20  1  0
 17 12  1  0
 30 24  1  0
  3 33  1  0
  3 34  1  0
  6 35  1  0
  7 36  1  0
  8 37  1  0
 13 38  1  0
 13 39  1  0
 14 40  1  0
 14 41  1  0
 15 42  1  0
 16 43  1  0
 16 44  1  0
 17 45  1  0
 17 46  1  0
 18 47  1  0
 21 48  1  0
 22 49  1  0
 25 50  1  0
 26 51  1  0
 29 52  1  0
 30 53  1  0
 31 54  1  0
M  END
>  <smiles>  (22) 
O=C1CC(c2cccc(C(=O)N3CCNCC3)c2)=Nc2ccc(-c3ccc(F)cc3)cc21

>  <score_type>  (22) 
oracle

>  <origin>  (22) 
autodockgpu

>  <m_score__min__energy>  (22) 
-8.5

>  <m_primary>  (22) 
energy

>  <rmsd>  (22) 
8.506928305307962

>  <m_score__min__rmsd>  (22) 
8.506928305307962

>  <meeko>  (22) 
{"free_energy": -8.29, "intermolecular_energy": -9.18, "internal_energy": -1.0, "cluster_size": 45, "cluster_id": 1, "rank_in_cluster": 35}

>  <energy>  (22) 
-8.41

>  <cluster_rmsd>  (22) 
0.2

>  <cluster>  (22) 
1

$$$$

     RDKit          3D

 54 58  0  0  0  0  0  0  0  0999 V2000
  142.1630   79.1340  223.2060 O   0  0  0  0  0  0  0  0  0  0  0  0
  140.8890   79.1410  223.1470 C   0  0  0  0  0  0  0  0  0  0  0  0
  140.1610   80.3720  223.5200 C   0  0  0  0  0  0  0  0  0  0  0  0
  138.7120   80.1340  223.3710 C   0  0  0  0  0  0  0  0  0  0  0  0
  137.8100   81.2570  223.7000 C   0  0  0  0  0  0  0  0  0  0  0  0
  137.2430   82.0480  222.7240 C   0  0  0  0  0  0  0  0  0  0  0  0
  136.4020   83.1000  222.9740 C   0  0  0  0  0  0  0  0  0  0  0  0
  136.1020   83.3860  224.3030 C   0  0  0  0  0  0  0  0  0  0  0  0
  136.6510   82.6170  225.3060 C   0  0  0  0  0  0  0  0  0  0  0  0
  136.3690   82.8740  226.7170 C   0  0  0  0  0  0  0  0  0  0  0  0
  136.9230   83.8860  227.2220 O   0  0  0  0  0  0  0  0  0  0  0  0
  135.5070   82.0120  227.4650 N   0  0  0  0  0  0  0  0  0  0  0  0
  134.9180   80.8770  226.8000 C   0  0  0  0  0  0  0  0  0  0  0  0
  133.5510   80.5760  227.3520 C   0  0  0  0  0  0  0  0  0  0  0  0
  133.5980   80.6420  228.7990 N   0  0  0  0  0  0  0  0  0  0  0  0
  133.8940   81.9750  229.2650 C   0  0  0  0  0  0  0  0  0  0  0  0
  135.2830   82.3430  228.8570 C   0  0  0  0  0  0  0  0  0  0  0  0
  137.4990   81.5570  225.0290 C   0  0  0  0  0  0  0  0  0  0  0  0
  138.1740   79.0380  222.9820 N   0  0  0  0  0  0  0  0  0  0  0  0
  138.9000   77.8710  222.6300 C   0  0  0  0  0  0  0  0  0  0  0  0
  138.2390   76.7480  222.2270 C   0  0  0  0  0  0  0  0  0  0  0  0
  139.0140   75.6390  221.8960 C   0  0  0  0  0  0  0  0  0  0  0  0
  140.3800   75.6320  221.9590 C   0  0  0  0  0  0  0  0  0  0  0  0
  141.1170   74.4250  221.5950 C   0  0  0  0  0  0  0  0  0  0  0  0
  140.7090   73.1600  221.9670 C   0  0  0  0  0  0  0  0  0  0  0  0
  141.4510   72.0570  221.5900 C   0  0  0  0  0  0  0  0  0  0  0  0
  142.6190   72.1860  220.8310 C   0  0  0  0  0  0  0  0  0  0  0  0
  143.3460   71.0940  220.4620 F   0  0  0  0  0  0  0  0  0  0  0  0
  142.9850   73.4710  220.4830 C   0  0  0  0  0  0  0  0  0  0  0  0
  142.2590   74.5870  220.8500 C   0  0  0  0  0  0  0  0  0  0  0  0
  141.0110   76.7950  222.3750 C   0  0  0  0  0  0  0  0  0  0  0  0
  140.2570   77.9090  222.7080 C   0  0  0  0  0  0  0  0  0  0  0  0
  140.3869   80.6325  224.5646 H   0  0  0  0  0  0  0  0  0  0  0  0
  140.4716   81.2011  222.8672 H   0  0  0  0  0  0  0  0  0  0  0  0
  137.4816   81.8194  221.6748 H   0  0  0  0  0  0  0  0  0  0  0  0
  135.9786   83.6978  222.1534 H   0  0  0  0  0  0  0  0  0  0  0  0
  135.4305   84.2212  224.5510 H   0  0  0  0  0  0  0  0  0  0  0  0
  134.8316   81.0951  225.7253 H   0  0  0  0  0  0  0  0  0  0  0  0
  135.5627   80.0013  226.9658 H   0  0  0  0  0  0  0  0  0  0  0  0
  132.8299   81.3151  226.9729 H   0  0  0  0  0  0  0  0  0  0  0  0
  133.2379   79.5696  227.0372 H   0  0  0  0  0  0  0  0  0  0  0  0
  134.2240   79.9080  229.1870 H   0  0  0  0  0  0  0  0  0  0  0  0
  133.1805   82.6859  228.8227 H   0  0  0  0  0  0  0  0  0  0  0  0
  133.8104   82.0094  230.3613 H   0  0  0  0  0  0  0  0  0  0  0  0
  135.4279   83.4240  228.9999 H   0  0  0  0  0  0  0  0  0  0  0  0
  135.9968   81.7797  229.4760 H   0  0  0  0  0  0  0  0  0  0  0  0
  137.9235   80.9571  225.8475 H   0  0  0  0  0  0  0  0  0  0  0  0
  137.1411   76.7194  222.1660 H   0  0  0  0  0  0  0  0  0  0  0  0
  138.5015   74.7228  221.5674 H   0  0  0  0  0  0  0  0  0  0  0  0
  139.7938   73.0300  222.5632 H   0  0  0  0  0  0  0  0  0  0  0  0
  141.1155   71.0544  221.8937 H   0  0  0  0  0  0  0  0  0  0  0  0
  143.8976   73.6125  219.8854 H   0  0  0  0  0  0  0  0  0  0  0  0
  142.5910   75.5918  220.5497 H   0  0  0  0  0  0  0  0  0  0  0  0
  142.1084   76.8330  222.4405 H   0  0  0  0  0  0  0  0  0  0  0  0
  1  2  2  0
  2  3  1  0
  3  4  1  0
  4  5  1  0
  5  6  2  0
  6  7  1  0
  7  8  2  0
  8  9  1  0
  9 10  1  0
 10 11  2  0
 10 12  1  0
 12 13  1  0
 13 14  1  0
 14 15  1  0
 15 16  1  0
 16 17  1  0
  9 18  2  0
  4 19  2  0
 19 20  1  0
 20 21  2  0
 21 22  1  0
 22 23  2  0
 23 24  1  0
 24 25  2  0
 25 26  1  0
 26 27  2  0
 27 28  1  0
 27 29  1  0
 29 30  2  0
 23 31  1  0
 31 32  2  0
 32  2  1  0
 18  5  1  0
 32 20  1  0
 17 12  1  0
 30 24  1  0
  3 33  1  0
  3 34  1  0
  6 35  1  0
  7 36  1  0
  8 37  1  0
 13 38  1  0
 13 39  1  0
 14 40  1  0
 14 41  1  0
 15 42  1  0
 16 43  1  0
 16 44  1  0
 17 45  1  0
 17 46  1  0
 18 47  1  0
 21 48  1  0
 22 49  1  0
 25 50  1  0
 26 51  1  0
 29 52  1  0
 30 53  1  0
 31 54  1  0
M  END
>  <smiles>  (23) 
O=C1CC(c2cccc(C(=O)N3CCNCC3)c2)=Nc2ccc(-c3ccc(F)cc3)cc21

>  <score_type>  (23) 
oracle

>  <origin>  (23) 
autodockgpu

>  <m_score__min__energy>  (23) 
-8.5

>  <m_primary>  (23) 
energy

>  <rmsd>  (23) 
11.8323220487399

>  <m_score__min__rmsd>  (23) 
11.8323220487399

>  <meeko>  (23) 
{"free_energy": -7.95, "intermolecular_energy": -8.85, "internal_energy": -0.99, "cluster_size": 3, "cluster_id": 2, "rank_in_cluster": 2}

>  <energy>  (23) 
-8.4

>  <cluster_rmsd>  (23) 
0.2

>  <cluster>  (23) 
1

$$$$

     RDKit          3D

 54 58  0  0  0  0  0  0  0  0999 V2000
  141.9350   81.1780  223.7840 O   0  0  0  0  0  0  0  0  0  0  0  0
  141.3240   80.3120  223.0760 C   0  0  0  0  0  0  0  0  0  0  0  0
  142.0950   79.5040  222.1080 C   0  0  0  0  0  0  0  0  0  0  0  0
  141.1750   78.5810  221.4140 C   0  0  0  0  0  0  0  0  0  0  0  0
  141.7630   77.6830  220.4000 C   0  0  0  0  0  0  0  0  0  0  0  0
  142.2930   78.1600  219.2200 C   0  0  0  0  0  0  0  0  0  0  0  0
  142.8500   77.3710  218.2490 C   0  0  0  0  0  0  0  0  0  0  0  0
  142.8810   75.9970  218.4700 C   0  0  0  0  0  0  0  0  0  0  0  0
  142.3600   75.4840  219.6390 C   0  0  0  0  0  0  0  0  0  0  0  0
  142.3690   74.0500  219.9210 C   0  0  0  0  0  0  0  0  0  0  0  0
  141.2440   73.4920  220.0150 O   0  0  0  0  0  0  0  0  0  0  0  0
  143.5990   73.3370  220.0770 N   0  0  0  0  0  0  0  0  0  0  0  0
  144.8390   74.0610  219.9520 C   0  0  0  0  0  0  0  0  0  0  0  0
  145.9160   73.1940  219.3600 C   0  0  0  0  0  0  0  0  0  0  0  0
  145.8820   71.8930  219.9980 N   0  0  0  0  0  0  0  0  0  0  0  0
  144.6520   71.1910  219.7180 C   0  0  0  0  0  0  0  0  0  0  0  0
  143.5140   71.9180  220.3550 C   0  0  0  0  0  0  0  0  0  0  0  0
  141.8030   76.3010  220.6080 C   0  0  0  0  0  0  0  0  0  0  0  0
  139.9130   78.4960  221.6190 N   0  0  0  0  0  0  0  0  0  0  0  0
  139.1980   79.2850  222.5570 C   0  0  0  0  0  0  0  0  0  0  0  0
  137.8530   79.1240  222.7060 C   0  0  0  0  0  0  0  0  0  0  0  0
  137.2150   79.9320  223.6430 C   0  0  0  0  0  0  0  0  0  0  0  0
  137.8710   80.8600  224.4030 C   0  0  0  0  0  0  0  0  0  0  0  0
  137.1270   81.6690  225.3650 C   0  0  0  0  0  0  0  0  0  0  0  0
  136.9570   81.2940  226.6830 C   0  0  0  0  0  0  0  0  0  0  0  0
  136.2420   82.1040  227.5440 C   0  0  0  0  0  0  0  0  0  0  0  0
  135.6770   83.3090  227.1150 C   0  0  0  0  0  0  0  0  0  0  0  0
  134.9730   84.1040  227.9690 F   0  0  0  0  0  0  0  0  0  0  0  0
  135.8740   83.6410  225.7890 C   0  0  0  0  0  0  0  0  0  0  0  0
  136.5850   82.8460  224.9110 C   0  0  0  0  0  0  0  0  0  0  0  0
  139.2400   80.9920  224.2190 C   0  0  0  0  0  0  0  0  0  0  0  0
  139.8920   80.1960  223.2910 C   0  0  0  0  0  0  0  0  0  0  0  0
  142.5758   80.1672  221.3738 H   0  0  0  0  0  0  0  0  0  0  0  0
  142.8701   78.9296  222.6364 H   0  0  0  0  0  0  0  0  0  0  0  0
  142.2667   79.2460  219.0470 H   0  0  0  0  0  0  0  0  0  0  0  0
  143.2589   77.8081  217.3261 H   0  0  0  0  0  0  0  0  0  0  0  0
  143.3183   75.3249  217.7170 H   0  0  0  0  0  0  0  0  0  0  0  0
  144.6815   74.9331  219.3004 H   0  0  0  0  0  0  0  0  0  0  0  0
  145.1596   74.3798  220.9548 H   0  0  0  0  0  0  0  0  0  0  0  0
  145.7439   73.0790  218.2796 H   0  0  0  0  0  0  0  0  0  0  0  0
  146.8986   73.6609  219.5227 H   0  0  0  0  0  0  0  0  0  0  0  0
  146.1080   71.9670  221.0100 H   0  0  0  0  0  0  0  0  0  0  0  0
  144.4952   71.1436  218.6303 H   0  0  0  0  0  0  0  0  0  0  0  0
  144.7099   70.1697  220.1224 H   0  0  0  0  0  0  0  0  0  0  0  0
  142.5662   71.5272  219.9562 H   0  0  0  0  0  0  0  0  0  0  0  0
  143.5592   71.7655  221.4434 H   0  0  0  0  0  0  0  0  0  0  0  0
  141.3957   75.8669  221.5330 H   0  0  0  0  0  0  0  0  0  0  0  0
  137.2948   78.3864  222.1107 H   0  0  0  0  0  0  0  0  0  0  0  0
  136.1293   79.8182  223.7786 H   0  0  0  0  0  0  0  0  0  0  0  0
  137.3906   80.3509  227.0472 H   0  0  0  0  0  0  0  0  0  0  0  0
  136.1142   81.7937  228.5916 H   0  0  0  0  0  0  0  0  0  0  0  0
  135.4448   84.5821  225.4146 H   0  0  0  0  0  0  0  0  0  0  0  0
  136.7152   83.1518  223.8624 H   0  0  0  0  0  0  0  0  0  0  0  0
  139.8068   81.7274  224.8089 H   0  0  0  0  0  0  0  0  0  0  0  0
  1  2  2  0
  2  3  1  0
  3  4  1  0
  4  5  1  0
  5  6  2  0
  6  7  1  0
  7  8  2  0
  8  9  1  0
  9 10  1  0
 10 11  2  0
 10 12  1  0
 12 13  1  0
 13 14  1  0
 14 15  1  0
 15 16  1  0
 16 17  1  0
  9 18  2  0
  4 19  2  0
 19 20  1  0
 20 21  2  0
 21 22  1  0
 22 23  2  0
 23 24  1  0
 24 25  2  0
 25 26  1  0
 26 27  2  0
 27 28  1  0
 27 29  1  0
 29 30  2  0
 23 31  1  0
 31 32  2  0
 32  2  1  0
 18  5  1  0
 32 20  1  0
 17 12  1  0
 30 24  1  0
  3 33  1  0
  3 34  1  0
  6 35  1  0
  7 36  1  0
  8 37  1  0
 13 38  1  0
 13 39  1  0
 14 40  1  0
 14 41  1  0
 15 42  1  0
 16 43  1  0
 16 44  1  0
 17 45  1  0
 17 46  1  0
 18 47  1  0
 21 48  1  0
 22 49  1  0
 25 50  1  0
 26 51  1  0
 29 52  1  0
 30 53  1  0
 31 54  1  0
M  END
>  <smiles>  (24) 
O=C1CC(c2cccc(C(=O)N3CCNCC3)c2)=Nc2ccc(-c3ccc(F)cc3)cc21

>  <score_type>  (24) 
oracle

>  <origin>  (24) 
autodockgpu

>  <m_score__min__energy>  (24) 
-8.5

>  <m_primary>  (24) 
energy

>  <rmsd>  (24) 
8.52841293731345

>  <m_score__min__rmsd>  (24) 
8.52841293731345

>  <meeko>  (24) 
{"free_energy": -8.44, "intermolecular_energy": -9.34, "internal_energy": -0.93, "cluster_size": 45, "cluster_id": 1, "rank_in_cluster": 16}

>  <energy>  (24) 
-8.39

>  <cluster_rmsd>  (24) 
0.24

>  <cluster>  (24) 
1

$$$$

     RDKit          3D

 54 58  0  0  0  0  0  0  0  0999 V2000
  141.5180   81.1740  224.0120 O   0  0  0  0  0  0  0  0  0  0  0  0
  140.9730   80.3200  223.2370 C   0  0  0  0  0  0  0  0  0  0  0  0
  141.8090   79.6220  222.2390 C   0  0  0  0  0  0  0  0  0  0  0  0
  140.9580   78.6930  221.4690 C   0  0  0  0  0  0  0  0  0  0  0  0
  141.6180   77.8970  220.4130 C   0  0  0  0  0  0  0  0  0  0  0  0
  142.2090   78.4850  219.3160 C   0  0  0  0  0  0  0  0  0  0  0  0
  142.8340   77.7950  218.3120 C   0  0  0  0  0  0  0  0  0  0  0  0
  142.8710   76.4060  218.4080 C   0  0  0  0  0  0  0  0  0  0  0  0
  142.2890   75.7830  219.4910 C   0  0  0  0  0  0  0  0  0  0  0  0
  142.3010   74.3290  219.6410 C   0  0  0  0  0  0  0  0  0  0  0  0
  141.2260   73.7310  219.3700 O   0  0  0  0  0  0  0  0  0  0  0  0
  143.4800   73.6420  220.0710 N   0  0  0  0  0  0  0  0  0  0  0  0
  144.6630   74.4120  220.3570 C   0  0  0  0  0  0  0  0  0  0  0  0
  145.9090   73.6400  220.0150 C   0  0  0  0  0  0  0  0  0  0  0  0
  145.7750   72.2820  220.5050 N   0  0  0  0  0  0  0  0  0  0  0  0
  144.7100   71.5740  219.8360 C   0  0  0  0  0  0  0  0  0  0  0  0
  143.4020   72.2010  220.1910 C   0  0  0  0  0  0  0  0  0  0  0  0
  141.6640   76.5020  220.4960 C   0  0  0  0  0  0  0  0  0  0  0  0
  139.7000   78.5200  221.6400 N   0  0  0  0  0  0  0  0  0  0  0  0
  138.9230   79.2050  222.6090 C   0  0  0  0  0  0  0  0  0  0  0  0
  137.5860   78.9560  222.7180 C   0  0  0  0  0  0  0  0  0  0  0  0
  136.8850   79.6640  223.6900 C   0  0  0  0  0  0  0  0  0  0  0  0
  137.4700   80.5790  224.5210 C   0  0  0  0  0  0  0  0  0  0  0  0
  136.6600   81.2790  225.5140 C   0  0  0  0  0  0  0  0  0  0  0  0
  135.3530   80.9320  225.7930 C   0  0  0  0  0  0  0  0  0  0  0  0
  134.6410   81.6340  226.7450 C   0  0  0  0  0  0  0  0  0  0  0  0
  135.2120   82.7000  227.4470 C   0  0  0  0  0  0  0  0  0  0  0  0
  134.5040   83.3890  228.3860 F   0  0  0  0  0  0  0  0  0  0  0  0
  136.5210   83.0100  227.1340 C   0  0  0  0  0  0  0  0  0  0  0  0
  137.2510   82.3210  226.1860 C   0  0  0  0  0  0  0  0  0  0  0  0
  138.8310   80.8030  224.3750 C   0  0  0  0  0  0  0  0  0  0  0  0
  139.5470   80.1070  223.4130 C   0  0  0  0  0  0  0  0  0  0  0  0
  142.2631   80.3573  221.5584 H   0  0  0  0  0  0  0  0  0  0  0  0
  142.6075   79.0618  222.7476 H   0  0  0  0  0  0  0  0  0  0  0  0
  142.1765   79.5820  219.2418 H   0  0  0  0  0  0  0  0  0  0  0  0
  143.2908   78.3192  217.4596 H   0  0  0  0  0  0  0  0  0  0  0  0
  143.3616   75.8099  217.6244 H   0  0  0  0  0  0  0  0  0  0  0  0
  144.6405   75.3384  219.7642 H   0  0  0  0  0  0  0  0  0  0  0  0
  144.6787   74.6411  221.4328 H   0  0  0  0  0  0  0  0  0  0  0  0
  146.0458   73.6260  218.9236 H   0  0  0  0  0  0  0  0  0  0  0  0
  146.7818   74.1186  220.4832 H   0  0  0  0  0  0  0  0  0  0  0  0
  145.7100   72.2640  221.5430 H   0  0  0  0  0  0  0  0  0  0  0  0
  144.8600   71.6277  218.7476 H   0  0  0  0  0  0  0  0  0  0  0  0
  144.7119   70.5205  220.1525 H   0  0  0  0  0  0  0  0  0  0  0  0
  142.6235   71.8230  219.5120 H   0  0  0  0  0  0  0  0  0  0  0  0
  143.1556   71.9440  221.2318 H   0  0  0  0  0  0  0  0  0  0  0  0
  141.2084   75.9810  221.3509 H   0  0  0  0  0  0  0  0  0  0  0  0
  137.0834   78.2268  222.0655 H   0  0  0  0  0  0  0  0  0  0  0  0
  135.8059   79.4781  223.7950 H   0  0  0  0  0  0  0  0  0  0  0  0
  134.8792   80.0965  225.2569 H   0  0  0  0  0  0  0  0  0  0  0  0
  133.6000   81.3480  226.9562 H   0  0  0  0  0  0  0  0  0  0  0  0
  137.0040   83.8440  227.6642 H   0  0  0  0  0  0  0  0  0  0  0  0
  138.2924   82.6029  225.9717 H   0  0  0  0  0  0  0  0  0  0  0  0
  139.3417   81.5318  225.0215 H   0  0  0  0  0  0  0  0  0  0  0  0
  1  2  2  0
  2  3  1  0
  3  4  1  0
  4  5  1  0
  5  6  2  0
  6  7  1  0
  7  8  2  0
  8  9  1  0
  9 10  1  0
 10 11  2  0
 10 12  1  0
 12 13  1  0
 13 14  1  0
 14 15  1  0
 15 16  1  0
 16 17  1  0
  9 18  2  0
  4 19  2  0
 19 20  1  0
 20 21  2  0
 21 22  1  0
 22 23  2  0
 23 24  1  0
 24 25  2  0
 25 26  1  0
 26 27  2  0
 27 28  1  0
 27 29  1  0
 29 30  2  0
 23 31  1  0
 31 32  2  0
 32  2  1  0
 18  5  1  0
 32 20  1  0
 17 12  1  0
 30 24  1  0
  3 33  1  0
  3 34  1  0
  6 35  1  0
  7 36  1  0
  8 37  1  0
 13 38  1  0
 13 39  1  0
 14 40  1  0
 14 41  1  0
 15 42  1  0
 16 43  1  0
 16 44  1  0
 17 45  1  0
 17 46  1  0
 18 47  1  0
 21 48  1  0
 22 49  1  0
 25 50  1  0
 26 51  1  0
 29 52  1  0
 30 53  1  0
 31 54  1  0
M  END
>  <smiles>  (25) 
O=C1CC(c2cccc(C(=O)N3CCNCC3)c2)=Nc2ccc(-c3ccc(F)cc3)cc21

>  <score_type>  (25) 
oracle

>  <origin>  (25) 
autodockgpu

>  <m_score__min__energy>  (25) 
-8.5

>  <m_primary>  (25) 
energy

>  <rmsd>  (25) 
8.471097446513333

>  <m_score__min__rmsd>  (25) 
8.471097446513333

>  <meeko>  (25) 
{"free_energy": -8.33, "intermolecular_energy": -9.22, "internal_energy": -0.99, "cluster_size": 45, "cluster_id": 1, "rank_in_cluster": 32}

>  <energy>  (25) 
-8.39

>  <cluster_rmsd>  (25) 
0.29

>  <cluster>  (25) 
1

$$$$

     RDKit          3D

 54 58  0  0  0  0  0  0  0  0999 V2000
  141.9270   81.1670  223.8340 O   0  0  0  0  0  0  0  0  0  0  0  0
  141.3150   80.3110  223.1140 C   0  0  0  0  0  0  0  0  0  0  0  0
  142.0900   79.4880  222.1630 C   0  0  0  0  0  0  0  0  0  0  0  0
  141.1670   78.5810  221.4520 C   0  0  0  0  0  0  0  0  0  0  0  0
  141.7600   77.6700  220.4500 C   0  0  0  0  0  0  0  0  0  0  0  0
  142.2810   78.1320  219.2610 C   0  0  0  0  0  0  0  0  0  0  0  0
  142.8410   77.3330  218.3000 C   0  0  0  0  0  0  0  0  0  0  0  0
  142.8850   75.9630  218.5440 C   0  0  0  0  0  0  0  0  0  0  0  0
  142.3730   75.4650  219.7230 C   0  0  0  0  0  0  0  0  0  0  0  0
  142.3940   74.0350  220.0290 C   0  0  0  0  0  0  0  0  0  0  0  0
  141.2740   73.4760  220.1630 O   0  0  0  0  0  0  0  0  0  0  0  0
  143.6310   73.3300  220.1630 N   0  0  0  0  0  0  0  0  0  0  0  0
  144.8640   74.0550  219.9920 C   0  0  0  0  0  0  0  0  0  0  0  0
  145.9280   73.1820  219.3850 C   0  0  0  0  0  0  0  0  0  0  0  0
  145.9160   71.8910  220.0460 N   0  0  0  0  0  0  0  0  0  0  0  0
  144.6820   71.1810  219.8120 C   0  0  0  0  0  0  0  0  0  0  0  0
  143.5590   71.9150  220.4670 C   0  0  0  0  0  0  0  0  0  0  0  0
  141.8120   76.2930  220.6810 C   0  0  0  0  0  0  0  0  0  0  0  0
  139.9010   78.5180  221.6320 N   0  0  0  0  0  0  0  0  0  0  0  0
  139.1820   79.3210  222.5540 C   0  0  0  0  0  0  0  0  0  0  0  0
  137.8310   79.1840  222.6760 C   0  0  0  0  0  0  0  0  0  0  0  0
  137.1900   80.0050  223.6010 C   0  0  0  0  0  0  0  0  0  0  0  0
  137.8470   80.9220  224.3730 C   0  0  0  0  0  0  0  0  0  0  0  0
  137.0980   81.7450  225.3190 C   0  0  0  0  0  0  0  0  0  0  0  0
  136.5940   82.9890  224.9920 C   0  0  0  0  0  0  0  0  0  0  0  0
  135.8930   83.7180  225.9320 C   0  0  0  0  0  0  0  0  0  0  0  0
  135.6730   83.2280  227.2230 C   0  0  0  0  0  0  0  0  0  0  0  0
  134.9800   83.9520  228.1460 F   0  0  0  0  0  0  0  0  0  0  0  0
  136.1960   81.9800  227.5020 C   0  0  0  0  0  0  0  0  0  0  0  0
  136.9000   81.2340  226.5770 C   0  0  0  0  0  0  0  0  0  0  0  0
  139.2210   81.0300  224.2150 C   0  0  0  0  0  0  0  0  0  0  0  0
  139.8770   80.2210  223.3010 C   0  0  0  0  0  0  0  0  0  0  0  0
  142.5973   80.1412  221.4378 H   0  0  0  0  0  0  0  0  0  0  0  0
  142.8439   78.9004  222.7073 H   0  0  0  0  0  0  0  0  0  0  0  0
  142.2447   79.2149  219.0710 H   0  0  0  0  0  0  0  0  0  0  0  0
  143.2419   77.7586  217.3683 H   0  0  0  0  0  0  0  0  0  0  0  0
  143.3255   75.2823  217.8007 H   0  0  0  0  0  0  0  0  0  0  0  0
  144.6855   74.9157  219.3307 H   0  0  0  0  0  0  0  0  0  0  0  0
  145.2107   74.3910  220.9804 H   0  0  0  0  0  0  0  0  0  0  0  0
  145.7270   73.0483  218.3118 H   0  0  0  0  0  0  0  0  0  0  0  0
  146.9130   73.6548  219.5126 H   0  0  0  0  0  0  0  0  0  0  0  0
  146.1690   71.9830  221.0500 H   0  0  0  0  0  0  0  0  0  0  0  0
  144.4959   71.1143  218.7299 H   0  0  0  0  0  0  0  0  0  0  0  0
  144.7546   70.1671  220.2324 H   0  0  0  0  0  0  0  0  0  0  0  0
  142.6023   71.5144  220.1006 H   0  0  0  0  0  0  0  0  0  0  0  0
  143.6343   71.7812  221.5562 H   0  0  0  0  0  0  0  0  0  0  0  0
  141.4114   75.8708  221.6144 H   0  0  0  0  0  0  0  0  0  0  0  0
  137.2712   78.4564  222.0700 H   0  0  0  0  0  0  0  0  0  0  0  0
  136.1001   79.9106  223.7160 H   0  0  0  0  0  0  0  0  0  0  0  0
  136.7511   83.3986  223.9832 H   0  0  0  0  0  0  0  0  0  0  0  0
  135.4983   84.7077  225.6588 H   0  0  0  0  0  0  0  0  0  0  0  0
  136.0447   81.5609  228.5077 H   0  0  0  0  0  0  0  0  0  0  0  0
  137.2966   80.2436  226.8452 H   0  0  0  0  0  0  0  0  0  0  0  0
  139.7889   81.7568  224.8144 H   0  0  0  0  0  0  0  0  0  0  0  0
  1  2  2  0
  2  3  1  0
  3  4  1  0
  4  5  1  0
  5  6  2  0
  6  7  1  0
  7  8  2  0
  8  9  1  0
  9 10  1  0
 10 11  2  0
 10 12  1  0
 12 13  1  0
 13 14  1  0
 14 15  1  0
 15 16  1  0
 16 17  1  0
  9 18  2  0
  4 19  2  0
 19 20  1  0
 20 21  2  0
 21 22  1  0
 22 23  2  0
 23 24  1  0
 24 25  2  0
 25 26  1  0
 26 27  2  0
 27 28  1  0
 27 29  1  0
 29 30  2  0
 23 31  1  0
 31 32  2  0
 32  2  1  0
 18  5  1  0
 32 20  1  0
 17 12  1  0
 30 24  1  0
  3 33  1  0
  3 34  1  0
  6 35  1  0
  7 36  1  0
  8 37  1  0
 13 38  1  0
 13 39  1  0
 14 40  1  0
 14 41  1  0
 15 42  1  0
 16 43  1  0
 16 44  1  0
 17 45  1  0
 17 46  1  0
 18 47  1  0
 21 48  1  0
 22 49  1  0
 25 50  1  0
 26 51  1  0
 29 52  1  0
 30 53  1  0
 31 54  1  0
M  END
>  <smiles>  (26) 
O=C1CC(c2cccc(C(=O)N3CCNCC3)c2)=Nc2ccc(-c3ccc(F)cc3)cc21

>  <score_type>  (26) 
oracle

>  <origin>  (26) 
autodockgpu

>  <m_score__min__energy>  (26) 
-8.5

>  <m_primary>  (26) 
energy

>  <rmsd>  (26) 
8.536907790913991

>  <m_score__min__rmsd>  (26) 
8.536907790913991

>  <meeko>  (26) 
{"free_energy": -8.43, "intermolecular_energy": -9.33, "internal_energy": -0.92, "cluster_size": 45, "cluster_id": 1, "rank_in_cluster": 18}

>  <energy>  (26) 
-8.37

>  <cluster_rmsd>  (26) 
0.21

>  <cluster>  (26) 
1

$$$$

     RDKit          3D

 54 58  0  0  0  0  0  0  0  0999 V2000
  141.9250   81.1530  223.8400 O   0  0  0  0  0  0  0  0  0  0  0  0
  141.3070   80.3050  223.1160 C   0  0  0  0  0  0  0  0  0  0  0  0
  142.0790   79.4770  222.1650 C   0  0  0  0  0  0  0  0  0  0  0  0
  141.1510   78.5810  221.4480 C   0  0  0  0  0  0  0  0  0  0  0  0
  141.7400   77.6680  220.4470 C   0  0  0  0  0  0  0  0  0  0  0  0
  142.2550   78.1270  219.2540 C   0  0  0  0  0  0  0  0  0  0  0  0
  142.8110   77.3250  218.2930 C   0  0  0  0  0  0  0  0  0  0  0  0
  142.8570   75.9560  218.5400 C   0  0  0  0  0  0  0  0  0  0  0  0
  142.3500   75.4600  219.7230 C   0  0  0  0  0  0  0  0  0  0  0  0
  142.3730   74.0320  220.0330 C   0  0  0  0  0  0  0  0  0  0  0  0
  141.2540   73.4750  220.1870 O   0  0  0  0  0  0  0  0  0  0  0  0
  143.6100   73.3230  220.1480 N   0  0  0  0  0  0  0  0  0  0  0  0
  144.8420   74.0460  219.9530 C   0  0  0  0  0  0  0  0  0  0  0  0
  145.8930   73.1680  219.3310 C   0  0  0  0  0  0  0  0  0  0  0  0
  145.8890   71.8790  219.9950 N   0  0  0  0  0  0  0  0  0  0  0  0
  144.6500   71.1710  219.7840 C   0  0  0  0  0  0  0  0  0  0  0  0
  143.5400   71.9100  220.4570 C   0  0  0  0  0  0  0  0  0  0  0  0
  141.7930   76.2910  220.6810 C   0  0  0  0  0  0  0  0  0  0  0  0
  139.8830   78.5290  221.6230 N   0  0  0  0  0  0  0  0  0  0  0  0
  139.1680   79.3360  222.5450 C   0  0  0  0  0  0  0  0  0  0  0  0
  137.8150   79.2110  222.6610 C   0  0  0  0  0  0  0  0  0  0  0  0
  137.1780   80.0350  223.5850 C   0  0  0  0  0  0  0  0  0  0  0  0
  137.8400   80.9440  224.3620 C   0  0  0  0  0  0  0  0  0  0  0  0
  137.0950   81.7710  225.3070 C   0  0  0  0  0  0  0  0  0  0  0  0
  136.5870   83.0120  224.9760 C   0  0  0  0  0  0  0  0  0  0  0  0
  135.8890   83.7450  225.9160 C   0  0  0  0  0  0  0  0  0  0  0  0
  135.6780   83.2620  227.2110 C   0  0  0  0  0  0  0  0  0  0  0  0
  134.9880   83.9900  228.1330 F   0  0  0  0  0  0  0  0  0  0  0  0
  136.2040   82.0170  227.4950 C   0  0  0  0  0  0  0  0  0  0  0  0
  136.9050   81.2680  226.5700 C   0  0  0  0  0  0  0  0  0  0  0  0
  139.2160   81.0400  224.2110 C   0  0  0  0  0  0  0  0  0  0  0  0
  139.8680   80.2280  223.2960 C   0  0  0  0  0  0  0  0  0  0  0  0
  142.5953   80.1276  221.4437 H   0  0  0  0  0  0  0  0  0  0  0  0
  142.8253   78.8810  222.7106 H   0  0  0  0  0  0  0  0  0  0  0  0
  142.2170   79.2092  219.0608 H   0  0  0  0  0  0  0  0  0  0  0  0
  143.2075   77.7482  217.3583 H   0  0  0  0  0  0  0  0  0  0  0  0
  143.2949   75.2739  217.7964 H   0  0  0  0  0  0  0  0  0  0  0  0
  144.6538   74.9046  219.2916 H   0  0  0  0  0  0  0  0  0  0  0  0
  145.2065   74.3857  220.9337 H   0  0  0  0  0  0  0  0  0  0  0  0
  145.6736   73.0321  218.2617 H   0  0  0  0  0  0  0  0  0  0  0  0
  146.8812   73.6384  219.4414 H   0  0  0  0  0  0  0  0  0  0  0  0
  146.1600   71.9740  220.9950 H   0  0  0  0  0  0  0  0  0  0  0  0
  144.4450   71.1020  218.7055 H   0  0  0  0  0  0  0  0  0  0  0  0
  144.7275   70.1578  220.2052 H   0  0  0  0  0  0  0  0  0  0  0  0
  142.5760   71.5107  220.1087 H   0  0  0  0  0  0  0  0  0  0  0  0
  143.6342   71.7790  221.5451 H   0  0  0  0  0  0  0  0  0  0  0  0
  141.3961   75.8712  221.6171 H   0  0  0  0  0  0  0  0  0  0  0  0
  137.2511   78.4901  222.0508 H   0  0  0  0  0  0  0  0  0  0  0  0
  136.0868   79.9502  223.6953 H   0  0  0  0  0  0  0  0  0  0  0  0
  136.7382   83.4165  223.9643 H   0  0  0  0  0  0  0  0  0  0  0  0
  135.4898   84.7319  225.6392 H   0  0  0  0  0  0  0  0  0  0  0  0
  136.0581   81.6030  228.5036 H   0  0  0  0  0  0  0  0  0  0  0  0
  137.3061   80.2805  226.8422 H   0  0  0  0  0  0  0  0  0  0  0  0
  139.7881   81.7588  224.8160 H   0  0  0  0  0  0  0  0  0  0  0  0
  1  2  2  0
  2  3  1  0
  3  4  1  0
  4  5  1  0
  5  6  2  0
  6  7  1  0
  7  8  2  0
  8  9  1  0
  9 10  1  0
 10 11  2  0
 10 12  1  0
 12 13  1  0
 13 14  1  0
 14 15  1  0
 15 16  1  0
 16 17  1  0
  9 18  2  0
  4 19  2  0
 19 20  1  0
 20 21  2  0
 21 22  1  0
 22 23  2  0
 23 24  1  0
 24 25  2  0
 25 26  1  0
 26 27  2  0
 27 28  1  0
 27 29  1  0
 29 30  2  0
 23 31  1  0
 31 32  2  0
 32  2  1  0
 18  5  1  0
 32 20  1  0
 17 12  1  0
 30 24  1  0
  3 33  1  0
  3 34  1  0
  6 35  1  0
  7 36  1  0
  8 37  1  0
 13 38  1  0
 13 39  1  0
 14 40  1  0
 14 41  1  0
 15 42  1  0
 16 43  1  0
 16 44  1  0
 17 45  1  0
 17 46  1  0
 18 47  1  0
 21 48  1  0
 22 49  1  0
 25 50  1  0
 26 51  1  0
 29 52  1  0
 30 53  1  0
 31 54  1  0
M  END
>  <smiles>  (27) 
O=C1CC(c2cccc(C(=O)N3CCNCC3)c2)=Nc2ccc(-c3ccc(F)cc3)cc21

>  <score_type>  (27) 
oracle

>  <origin>  (27) 
autodockgpu

>  <m_score__min__energy>  (27) 
-8.5

>  <m_primary>  (27) 
energy

>  <rmsd>  (27) 
8.529068275212971

>  <m_score__min__rmsd>  (27) 
8.529068275212971

>  <meeko>  (27) 
{"free_energy": -8.46, "intermolecular_energy": -9.36, "internal_energy": -0.92, "cluster_size": 45, "cluster_id": 1, "rank_in_cluster": 8}

>  <energy>  (27) 
-8.37

>  <cluster_rmsd>  (27) 
0.63

>  <cluster>  (27) 
1

$$$$

     RDKit          3D

 54 58  0  0  0  0  0  0  0  0999 V2000
  141.5310   81.1620  224.0390 O   0  0  0  0  0  0  0  0  0  0  0  0
  140.9800   80.3100  223.2660 C   0  0  0  0  0  0  0  0  0  0  0  0
  141.8090   79.6100  222.2630 C   0  0  0  0  0  0  0  0  0  0  0  0
  140.9520   78.6850  221.4960 C   0  0  0  0  0  0  0  0  0  0  0  0
  141.6050   77.8870  220.4380 C   0  0  0  0  0  0  0  0  0  0  0  0
  142.1900   78.4740  219.3370 C   0  0  0  0  0  0  0  0  0  0  0  0
  142.8080   77.7820  218.3290 C   0  0  0  0  0  0  0  0  0  0  0  0
  142.8440   76.3940  218.4260 C   0  0  0  0  0  0  0  0  0  0  0  0
  142.2680   75.7720  219.5120 C   0  0  0  0  0  0  0  0  0  0  0  0
  142.2780   74.3180  219.6630 C   0  0  0  0  0  0  0  0  0  0  0  0
  141.2050   73.7200  219.3870 O   0  0  0  0  0  0  0  0  0  0  0  0
  143.4540   73.6310  220.0990 N   0  0  0  0  0  0  0  0  0  0  0  0
  144.6370   74.4020  220.3920 C   0  0  0  0  0  0  0  0  0  0  0  0
  145.8830   73.6290  220.0570 C   0  0  0  0  0  0  0  0  0  0  0  0
  145.7470   72.2710  220.5470 N   0  0  0  0  0  0  0  0  0  0  0  0
  144.6860   71.5630  219.8720 C   0  0  0  0  0  0  0  0  0  0  0  0
  143.3760   72.1900  220.2200 C   0  0  0  0  0  0  0  0  0  0  0  0
  141.6490   76.4920  220.5200 C   0  0  0  0  0  0  0  0  0  0  0  0
  139.6940   78.5160  221.6730 N   0  0  0  0  0  0  0  0  0  0  0  0
  138.9230   79.2030  222.6460 C   0  0  0  0  0  0  0  0  0  0  0  0
  137.5860   78.9580  222.7600 C   0  0  0  0  0  0  0  0  0  0  0  0
  136.8910   79.6680  223.7360 C   0  0  0  0  0  0  0  0  0  0  0  0
  137.4830   80.5800  224.5640 C   0  0  0  0  0  0  0  0  0  0  0  0
  136.6800   81.2830  225.5620 C   0  0  0  0  0  0  0  0  0  0  0  0
  135.3630   80.9590  225.8240 C   0  0  0  0  0  0  0  0  0  0  0  0
  134.6580   81.6620  226.7810 C   0  0  0  0  0  0  0  0  0  0  0  0
  135.2460   82.7050  227.5040 C   0  0  0  0  0  0  0  0  0  0  0  0
  134.5440   83.3940  228.4480 F   0  0  0  0  0  0  0  0  0  0  0  0
  136.5640   82.9910  227.2070 C   0  0  0  0  0  0  0  0  0  0  0  0
  137.2870   82.3010  226.2540 C   0  0  0  0  0  0  0  0  0  0  0  0
  138.8440   80.7990  224.4130 C   0  0  0  0  0  0  0  0  0  0  0  0
  139.5530   80.1020  223.4480 C   0  0  0  0  0  0  0  0  0  0  0  0
  142.2624   80.3445  221.5811 H   0  0  0  0  0  0  0  0  0  0  0  0
  142.6077   79.0464  222.7674 H   0  0  0  0  0  0  0  0  0  0  0  0
  142.1587   79.5710  219.2626 H   0  0  0  0  0  0  0  0  0  0  0  0
  143.2598   78.3049  217.4732 H   0  0  0  0  0  0  0  0  0  0  0  0
  143.3296   75.7970  217.6400 H   0  0  0  0  0  0  0  0  0  0  0  0
  144.6183   75.3282  219.7989 H   0  0  0  0  0  0  0  0  0  0  0  0
  144.6469   74.6322  221.4676 H   0  0  0  0  0  0  0  0  0  0  0  0
  146.0249   73.6142  218.9663 H   0  0  0  0  0  0  0  0  0  0  0  0
  146.7534   74.1074  220.5299 H   0  0  0  0  0  0  0  0  0  0  0  0
  145.6760   72.2540  221.5850 H   0  0  0  0  0  0  0  0  0  0  0  0
  144.8420   71.6169  218.7844 H   0  0  0  0  0  0  0  0  0  0  0  0
  144.6862   70.5094  220.1882 H   0  0  0  0  0  0  0  0  0  0  0  0
  142.6009   71.8111  219.5376 H   0  0  0  0  0  0  0  0  0  0  0  0
  143.1247   71.9339  221.2598 H   0  0  0  0  0  0  0  0  0  0  0  0
  141.1964   75.9715  221.3768 H   0  0  0  0  0  0  0  0  0  0  0  0
  137.0785   78.2309  222.1090 H   0  0  0  0  0  0  0  0  0  0  0  0
  135.8118   79.4856  223.8459 H   0  0  0  0  0  0  0  0  0  0  0  0
  134.8764   80.1420  225.2710 H   0  0  0  0  0  0  0  0  0  0  0  0
  133.6094   81.3954  226.9794 H   0  0  0  0  0  0  0  0  0  0  0  0
  137.0606   83.8056  227.7545 H   0  0  0  0  0  0  0  0  0  0  0  0
  138.3359   82.5639  226.0521 H   0  0  0  0  0  0  0  0  0  0  0  0
  139.3600   81.5251  225.0584 H   0  0  0  0  0  0  0  0  0  0  0  0
  1  2  2  0
  2  3  1  0
  3  4  1  0
  4  5  1  0
  5  6  2  0
  6  7  1  0
  7  8  2  0
  8  9  1  0
  9 10  1  0
 10 11  2  0
 10 12  1  0
 12 13  1  0
 13 14  1  0
 14 15  1  0
 15 16  1  0
 16 17  1  0
  9 18  2  0
  4 19  2  0
 19 20  1  0
 20 21  2  0
 21 22  1  0
 22 23  2  0
 23 24  1  0
 24 25  2  0
 25 26  1  0
 26 27  2  0
 27 28  1  0
 27 29  1  0
 29 30  2  0
 23 31  1  0
 31 32  2  0
 32  2  1  0
 18  5  1  0
 32 20  1  0
 17 12  1  0
 30 24  1  0
  3 33  1  0
  3 34  1  0
  6 35  1  0
  7 36  1  0
  8 37  1  0
 13 38  1  0
 13 39  1  0
 14 40  1  0
 14 41  1  0
 15 42  1  0
 16 43  1  0
 16 44  1  0
 17 45  1  0
 17 46  1  0
 18 47  1  0
 21 48  1  0
 22 49  1  0
 25 50  1  0
 26 51  1  0
 29 52  1  0
 30 53  1  0
 31 54  1  0
M  END
>  <smiles>  (28) 
O=C1CC(c2cccc(C(=O)N3CCNCC3)c2)=Nc2ccc(-c3ccc(F)cc3)cc21

>  <score_type>  (28) 
oracle

>  <origin>  (28) 
autodockgpu

>  <m_score__min__energy>  (28) 
-8.5

>  <m_primary>  (28) 
energy

>  <rmsd>  (28) 
8.453926613381007

>  <m_score__min__rmsd>  (28) 
8.453926613381007

>  <meeko>  (28) 
{"free_energy": -8.33, "intermolecular_energy": -9.22, "internal_energy": -0.99, "cluster_size": 45, "cluster_id": 1, "rank_in_cluster": 31}

>  <energy>  (28) 
-8.34

>  <cluster_rmsd>  (28) 
0.57

>  <cluster>  (28) 
1

$$$$

     RDKit          3D

 54 58  0  0  0  0  0  0  0  0999 V2000
  141.9720   81.0580  223.8430 O   0  0  0  0  0  0  0  0  0  0  0  0
  141.3510   80.2210  223.1090 C   0  0  0  0  0  0  0  0  0  0  0  0
  142.1170   79.4060  222.1440 C   0  0  0  0  0  0  0  0  0  0  0  0
  141.1850   78.5200  221.4190 C   0  0  0  0  0  0  0  0  0  0  0  0
  141.7670   77.6210  220.4020 C   0  0  0  0  0  0  0  0  0  0  0  0
  142.2740   78.0950  219.2110 C   0  0  0  0  0  0  0  0  0  0  0  0
  142.8250   77.3050  218.2370 C   0  0  0  0  0  0  0  0  0  0  0  0
  142.8730   75.9330  218.4670 C   0  0  0  0  0  0  0  0  0  0  0  0
  142.3750   75.4230  219.6470 C   0  0  0  0  0  0  0  0  0  0  0  0
  142.4020   73.9910  219.9390 C   0  0  0  0  0  0  0  0  0  0  0  0
  141.2840   73.4230  220.0530 O   0  0  0  0  0  0  0  0  0  0  0  0
  143.6410   73.2920  220.0820 N   0  0  0  0  0  0  0  0  0  0  0  0
  144.8710   74.0270  219.9340 C   0  0  0  0  0  0  0  0  0  0  0  0
  145.9480   73.1660  219.3320 C   0  0  0  0  0  0  0  0  0  0  0  0
  145.9370   71.8690  219.9790 N   0  0  0  0  0  0  0  0  0  0  0  0
  144.7110   71.1530  219.7220 C   0  0  0  0  0  0  0  0  0  0  0  0
  143.5740   71.8730  220.3700 C   0  0  0  0  0  0  0  0  0  0  0  0
  141.8240   76.2410  220.6190 C   0  0  0  0  0  0  0  0  0  0  0  0
  139.9170   78.4680  221.5980 N   0  0  0  0  0  0  0  0  0  0  0  0
  139.2070   79.2640  222.5340 C   0  0  0  0  0  0  0  0  0  0  0  0
  137.8550   79.1380  222.6550 C   0  0  0  0  0  0  0  0  0  0  0  0
  137.2230   79.9510  223.5930 C   0  0  0  0  0  0  0  0  0  0  0  0
  137.8900   80.8480  224.3790 C   0  0  0  0  0  0  0  0  0  0  0  0
  137.1500   81.6630  225.3390 C   0  0  0  0  0  0  0  0  0  0  0  0
  136.9370   81.2700  226.6460 C   0  0  0  0  0  0  0  0  0  0  0  0
  136.2290   82.0870  227.5050 C   0  0  0  0  0  0  0  0  0  0  0  0
  135.7150   83.3180  227.0870 C   0  0  0  0  0  0  0  0  0  0  0  0
  135.0170   84.1200  227.9400 F   0  0  0  0  0  0  0  0  0  0  0  0
  135.9530   83.6680  225.7720 C   0  0  0  0  0  0  0  0  0  0  0  0
  136.6580   82.8660  224.8960 C   0  0  0  0  0  0  0  0  0  0  0  0
  139.2650   80.9440  224.2230 C   0  0  0  0  0  0  0  0  0  0  0  0
  139.9120   80.1430  223.2950 C   0  0  0  0  0  0  0  0  0  0  0  0
  142.6303   80.0659  221.4291 H   0  0  0  0  0  0  0  0  0  0  0  0
  142.8653   78.8021  222.6782 H   0  0  0  0  0  0  0  0  0  0  0  0
  142.2334   79.1794  219.0308 H   0  0  0  0  0  0  0  0  0  0  0  0
  143.2160   77.7398  217.3053 H   0  0  0  0  0  0  0  0  0  0  0  0
  143.3055   75.2600  217.7120 H   0  0  0  0  0  0  0  0  0  0  0  0
  144.6953   74.8930  219.2788 H   0  0  0  0  0  0  0  0  0  0  0  0
  145.2030   74.3562  220.9297 H   0  0  0  0  0  0  0  0  0  0  0  0
  145.7610   73.0418  218.2551 H   0  0  0  0  0  0  0  0  0  0  0  0
  146.9281   73.6437  219.4773 H   0  0  0  0  0  0  0  0  0  0  0  0
  146.1760   71.9530  220.9880 H   0  0  0  0  0  0  0  0  0  0  0  0
  144.5393   71.0959  218.6370 H   0  0  0  0  0  0  0  0  0  0  0  0
  144.7853   70.1355  220.1333 H   0  0  0  0  0  0  0  0  0  0  0  0
  142.6249   71.4703  219.9864 H   0  0  0  0  0  0  0  0  0  0  0  0
  143.6354   71.7278  221.4586 H   0  0  0  0  0  0  0  0  0  0  0  0
  141.4349   75.8092  221.5529 H   0  0  0  0  0  0  0  0  0  0  0  0
  137.2877   78.4251  222.0386 H   0  0  0  0  0  0  0  0  0  0  0  0
  136.1322   79.8667  223.7068 H   0  0  0  0  0  0  0  0  0  0  0  0
  137.3311   80.3068  227.0023 H   0  0  0  0  0  0  0  0  0  0  0  0
  136.0656   81.7615  228.5429 H   0  0  0  0  0  0  0  0  0  0  0  0
  135.5633   84.6293  225.4059 H   0  0  0  0  0  0  0  0  0  0  0  0
  136.8232   83.1868  223.8569 H   0  0  0  0  0  0  0  0  0  0  0  0
  139.8408   81.6543  224.8345 H   0  0  0  0  0  0  0  0  0  0  0  0
  1  2  2  0
  2  3  1  0
  3  4  1  0
  4  5  1  0
  5  6  2  0
  6  7  1  0
  7  8  2  0
  8  9  1  0
  9 10  1  0
 10 11  2  0
 10 12  1  0
 12 13  1  0
 13 14  1  0
 14 15  1  0
 15 16  1  0
 16 17  1  0
  9 18  2  0
  4 19  2  0
 19 20  1  0
 20 21  2  0
 21 22  1  0
 22 23  2  0
 23 24  1  0
 24 25  2  0
 25 26  1  0
 26 27  2  0
 27 28  1  0
 27 29  1  0
 29 30  2  0
 23 31  1  0
 31 32  2  0
 32  2  1  0
 18  5  1  0
 32 20  1  0
 17 12  1  0
 30 24  1  0
  3 33  1  0
  3 34  1  0
  6 35  1  0
  7 36  1  0
  8 37  1  0
 13 38  1  0
 13 39  1  0
 14 40  1  0
 14 41  1  0
 15 42  1  0
 16 43  1  0
 16 44  1  0
 17 45  1  0
 17 46  1  0
 18 47  1  0
 21 48  1  0
 22 49  1  0
 25 50  1  0
 26 51  1  0
 29 52  1  0
 30 53  1  0
 31 54  1  0
M  END
>  <smiles>  (29) 
O=C1CC(c2cccc(C(=O)N3CCNCC3)c2)=Nc2ccc(-c3ccc(F)cc3)cc21

>  <score_type>  (29) 
oracle

>  <origin>  (29) 
autodockgpu

>  <m_score__min__energy>  (29) 
-8.5

>  <m_primary>  (29) 
energy

>  <rmsd>  (29) 
8.508806640873665

>  <m_score__min__rmsd>  (29) 
8.508806640873665

>  <meeko>  (29) 
{"free_energy": -8.49, "intermolecular_energy": -9.39, "internal_energy": -0.93, "cluster_size": 45, "cluster_id": 1, "rank_in_cluster": 3}

>  <energy>  (29) 
-8.34

>  <cluster_rmsd>  (29) 
0.26

>  <cluster>  (29) 
1

$$$$

     RDKit          3D

 54 58  0  0  0  0  0  0  0  0999 V2000
  141.8860   81.4360  223.6050 O   0  0  0  0  0  0  0  0  0  0  0  0
  141.2910   80.5100  222.9610 C   0  0  0  0  0  0  0  0  0  0  0  0
  142.0570   79.7110  221.9820 C   0  0  0  0  0  0  0  0  0  0  0  0
  141.1580   78.7120  221.3720 C   0  0  0  0  0  0  0  0  0  0  0  0
  141.7460   77.8110  220.3590 C   0  0  0  0  0  0  0  0  0  0  0  0
  142.2690   78.2850  219.1750 C   0  0  0  0  0  0  0  0  0  0  0  0
  142.8240   77.4940  218.2040 C   0  0  0  0  0  0  0  0  0  0  0  0
  142.8610   76.1210  218.4310 C   0  0  0  0  0  0  0  0  0  0  0  0
  142.3470   75.6110  219.6040 C   0  0  0  0  0  0  0  0  0  0  0  0
  142.3610   74.1780  219.8920 C   0  0  0  0  0  0  0  0  0  0  0  0
  141.2400   73.6070  219.9390 O   0  0  0  0  0  0  0  0  0  0  0  0
  143.5920   73.4820  220.1040 N   0  0  0  0  0  0  0  0  0  0  0  0
  144.8260   74.2210  220.0300 C   0  0  0  0  0  0  0  0  0  0  0  0
  145.9390   73.3650  219.4890 C   0  0  0  0  0  0  0  0  0  0  0  0
  145.8940   72.0660  220.1300 N   0  0  0  0  0  0  0  0  0  0  0  0
  144.6870   71.3470  219.8000 C   0  0  0  0  0  0  0  0  0  0  0  0
  143.5120   72.0620  220.3840 C   0  0  0  0  0  0  0  0  0  0  0  0
  141.7900   76.4300  220.5720 C   0  0  0  0  0  0  0  0  0  0  0  0
  139.9160   78.5620  221.6470 N   0  0  0  0  0  0  0  0  0  0  0  0
  139.2060   79.3440  222.5950 C   0  0  0  0  0  0  0  0  0  0  0  0
  137.8820   79.1110  222.8210 C   0  0  0  0  0  0  0  0  0  0  0  0
  137.2470   79.9160  223.7640 C   0  0  0  0  0  0  0  0  0  0  0  0
  137.8850   80.9090  224.4540 C   0  0  0  0  0  0  0  0  0  0  0  0
  137.1450   81.7080  225.4260 C   0  0  0  0  0  0  0  0  0  0  0  0
  136.9040   81.2810  226.7170 C   0  0  0  0  0  0  0  0  0  0  0  0
  136.1970   82.0850  227.5890 C   0  0  0  0  0  0  0  0  0  0  0  0
  135.7130   83.3380  227.2000 C   0  0  0  0  0  0  0  0  0  0  0  0
  135.0170   84.1270  228.0660 F   0  0  0  0  0  0  0  0  0  0  0  0
  135.9790   83.7220  225.9000 C   0  0  0  0  0  0  0  0  0  0  0  0
  136.6830   82.9330  225.0120 C   0  0  0  0  0  0  0  0  0  0  0  0
  139.2320   81.1120  224.1920 C   0  0  0  0  0  0  0  0  0  0  0  0
  139.8810   80.3200  223.2580 C   0  0  0  0  0  0  0  0  0  0  0  0
  142.4593   80.3719  221.2001 H   0  0  0  0  0  0  0  0  0  0  0  0
  142.8911   79.2022  222.4874 H   0  0  0  0  0  0  0  0  0  0  0  0
  142.2387   79.3703  218.9982 H   0  0  0  0  0  0  0  0  0  0  0  0
  143.2265   77.9286  217.2771 H   0  0  0  0  0  0  0  0  0  0  0  0
  143.2976   75.4473  217.6790 H   0  0  0  0  0  0  0  0  0  0  0  0
  144.6860   75.0885  219.3683 H   0  0  0  0  0  0  0  0  0  0  0  0
  145.0985   74.5481  221.0443 H   0  0  0  0  0  0  0  0  0  0  0  0
  145.8156   73.2439  218.4027 H   0  0  0  0  0  0  0  0  0  0  0  0
  146.9076   73.8449  219.6928 H   0  0  0  0  0  0  0  0  0  0  0  0
  146.0740   72.1470  221.1510 H   0  0  0  0  0  0  0  0  0  0  0  0
  144.5784   71.2932  218.7067 H   0  0  0  0  0  0  0  0  0  0  0  0
  144.7405   70.3281  220.2112 H   0  0  0  0  0  0  0  0  0  0  0  0
  142.5877   71.6580  219.9454 H   0  0  0  0  0  0  0  0  0  0  0  0
  143.5106   71.9136  221.4739 H   0  0  0  0  0  0  0  0  0  0  0  0
  141.3861   75.9981  221.4995 H   0  0  0  0  0  0  0  0  0  0  0  0
  137.3384   78.3212  222.2818 H   0  0  0  0  0  0  0  0  0  0  0  0
  136.1790   79.7442  223.9635 H   0  0  0  0  0  0  0  0  0  0  0  0
  137.2751   80.3007  227.0506 H   0  0  0  0  0  0  0  0  0  0  0  0
  136.0101   81.7316  228.6138 H   0  0  0  0  0  0  0  0  0  0  0  0
  135.6133   84.7009  225.5565 H   0  0  0  0  0  0  0  0  0  0  0  0
  136.8714   83.2814  223.9858 H   0  0  0  0  0  0  0  0  0  0  0  0
  139.7841   81.9003  224.7247 H   0  0  0  0  0  0  0  0  0  0  0  0
  1  2  2  0
  2  3  1  0
  3  4  1  0
  4  5  1  0
  5  6  2  0
  6  7  1  0
  7  8  2  0
  8  9  1  0
  9 10  1  0
 10 11  2  0
 10 12  1  0
 12 13  1  0
 13 14  1  0
 14 15  1  0
 15 16  1  0
 16 17  1  0
  9 18  2  0
  4 19  2  0
 19 20  1  0
 20 21  2  0
 21 22  1  0
 22 23  2  0
 23 24  1  0
 24 25  2  0
 25 26  1  0
 26 27  2  0
 27 28  1  0
 27 29  1  0
 29 30  2  0
 23 31  1  0
 31 32  2  0
 32  2  1  0
 18  5  1  0
 32 20  1  0
 17 12  1  0
 30 24  1  0
  3 33  1  0
  3 34  1  0
  6 35  1  0
  7 36  1  0
  8 37  1  0
 13 38  1  0
 13 39  1  0
 14 40  1  0
 14 41  1  0
 15 42  1  0
 16 43  1  0
 16 44  1  0
 17 45  1  0
 17 46  1  0
 18 47  1  0
 21 48  1  0
 22 49  1  0
 25 50  1  0
 26 51  1  0
 29 52  1  0
 30 53  1  0
 31 54  1  0
M  END
>  <smiles>  (30) 
O=C1CC(c2cccc(C(=O)N3CCNCC3)c2)=Nc2ccc(-c3ccc(F)cc3)cc21

>  <score_type>  (30) 
oracle

>  <origin>  (30) 
autodockgpu

>  <m_score__min__energy>  (30) 
-8.5

>  <m_primary>  (30) 
energy

>  <rmsd>  (30) 
8.607620178112052

>  <m_score__min__rmsd>  (30) 
8.607620178112052

>  <meeko>  (30) 
{"free_energy": -8.34, "intermolecular_energy": -9.24, "internal_energy": -0.95, "cluster_size": 45, "cluster_id": 1, "rank_in_cluster": 29}

>  <energy>  (30) 
-8.34

>  <cluster_rmsd>  (30) 
0.73

>  <cluster>  (30) 
1

$$$$

     RDKit          3D

 54 58  0  0  0  0  0  0  0  0999 V2000
  141.9560   80.9700  223.9540 O   0  0  0  0  0  0  0  0  0  0  0  0
  141.3310   80.1950  223.1580 C   0  0  0  0  0  0  0  0  0  0  0  0
  142.1030   79.3770  222.2000 C   0  0  0  0  0  0  0  0  0  0  0  0
  141.1640   78.5710  221.3940 C   0  0  0  0  0  0  0  0  0  0  0  0
  141.7520   77.6800  220.3720 C   0  0  0  0  0  0  0  0  0  0  0  0
  142.2690   78.1650  219.1900 C   0  0  0  0  0  0  0  0  0  0  0  0
  142.8240   77.3840  218.2110 C   0  0  0  0  0  0  0  0  0  0  0  0
  142.8660   76.0090  218.4280 C   0  0  0  0  0  0  0  0  0  0  0  0
  142.3580   75.4880  219.5980 C   0  0  0  0  0  0  0  0  0  0  0  0
  142.3780   74.0530  219.8750 C   0  0  0  0  0  0  0  0  0  0  0  0
  141.2590   73.4780  219.9260 O   0  0  0  0  0  0  0  0  0  0  0  0
  143.6120   73.3580  220.0730 N   0  0  0  0  0  0  0  0  0  0  0  0
  144.8440   74.1020  219.9960 C   0  0  0  0  0  0  0  0  0  0  0  0
  145.9550   73.2540  219.4400 C   0  0  0  0  0  0  0  0  0  0  0  0
  145.9180   71.9490  220.0710 N   0  0  0  0  0  0  0  0  0  0  0  0
  144.7110   71.2300  219.7440 C   0  0  0  0  0  0  0  0  0  0  0  0
  143.5390   71.9370  220.3420 C   0  0  0  0  0  0  0  0  0  0  0  0
  141.8020   76.2980  220.5740 C   0  0  0  0  0  0  0  0  0  0  0  0
  139.8890   78.5800  221.5080 N   0  0  0  0  0  0  0  0  0  0  0  0
  139.1730   79.3760  222.4390 C   0  0  0  0  0  0  0  0  0  0  0  0
  137.8120   79.3200  222.4870 C   0  0  0  0  0  0  0  0  0  0  0  0
  137.1750   80.1290  223.4250 C   0  0  0  0  0  0  0  0  0  0  0  0
  137.8460   80.9590  224.2790 C   0  0  0  0  0  0  0  0  0  0  0  0
  137.1000   81.7760  225.2330 C   0  0  0  0  0  0  0  0  0  0  0  0
  136.5740   83.0100  224.9090 C   0  0  0  0  0  0  0  0  0  0  0  0
  135.8780   83.7340  225.8570 C   0  0  0  0  0  0  0  0  0  0  0  0
  135.6860   83.2470  227.1530 C   0  0  0  0  0  0  0  0  0  0  0  0
  134.9970   83.9660  228.0840 F   0  0  0  0  0  0  0  0  0  0  0  0
  136.2300   82.0080  227.4300 C   0  0  0  0  0  0  0  0  0  0  0  0
  136.9300   81.2680  226.4970 C   0  0  0  0  0  0  0  0  0  0  0  0
  139.2300   80.9860  224.1950 C   0  0  0  0  0  0  0  0  0  0  0  0
  139.8820   80.1880  223.2690 C   0  0  0  0  0  0  0  0  0  0  0  0
  142.6865   80.0348  221.5390 H   0  0  0  0  0  0  0  0  0  0  0  0
  142.7904   78.7137  222.7454 H   0  0  0  0  0  0  0  0  0  0  0  0
  142.2336   79.2515  219.0216 H   0  0  0  0  0  0  0  0  0  0  0  0
  143.2223   77.8271  217.2864 H   0  0  0  0  0  0  0  0  0  0  0  0
  143.3023   75.3425  217.6694 H   0  0  0  0  0  0  0  0  0  0  0  0
  144.6965   74.9745  219.3425 H   0  0  0  0  0  0  0  0  0  0  0  0
  145.1230   74.4218  221.0109 H   0  0  0  0  0  0  0  0  0  0  0  0
  145.8240   73.1416  218.3536 H   0  0  0  0  0  0  0  0  0  0  0  0
  146.9238   73.7349  219.6405 H   0  0  0  0  0  0  0  0  0  0  0  0
  146.1060   72.0220  221.0920 H   0  0  0  0  0  0  0  0  0  0  0  0
  144.5946   71.1849  218.6511 H   0  0  0  0  0  0  0  0  0  0  0  0
  144.7699   70.2080  220.1465 H   0  0  0  0  0  0  0  0  0  0  0  0
  142.6126   71.5335  219.9073 H   0  0  0  0  0  0  0  0  0  0  0  0
  143.5469   71.7804  221.4308 H   0  0  0  0  0  0  0  0  0  0  0  0
  141.4033   75.8577  221.4998 H   0  0  0  0  0  0  0  0  0  0  0  0
  137.2410   78.6639  221.8136 H   0  0  0  0  0  0  0  0  0  0  0  0
  136.0769   80.0984  223.4814 H   0  0  0  0  0  0  0  0  0  0  0  0
  136.7091   83.4168  223.8960 H   0  0  0  0  0  0  0  0  0  0  0  0
  135.4651   84.7168  225.5858 H   0  0  0  0  0  0  0  0  0  0  0  0
  136.0998   81.5915  228.4397 H   0  0  0  0  0  0  0  0  0  0  0  0
  137.3456   80.2849  226.7632 H   0  0  0  0  0  0  0  0  0  0  0  0
  139.8095   81.6403  224.8629 H   0  0  0  0  0  0  0  0  0  0  0  0
  1  2  2  0
  2  3  1  0
  3  4  1  0
  4  5  1  0
  5  6  2  0
  6  7  1  0
  7  8  2  0
  8  9  1  0
  9 10  1  0
 10 11  2  0
 10 12  1  0
 12 13  1  0
 13 14  1  0
 14 15  1  0
 15 16  1  0
 16 17  1  0
  9 18  2  0
  4 19  2  0
 19 20  1  0
 20 21  2  0
 21 22  1  0
 22 23  2  0
 23 24  1  0
 24 25  2  0
 25 26  1  0
 26 27  2  0
 27 28  1  0
 27 29  1  0
 29 30  2  0
 23 31  1  0
 31 32  2  0
 32  2  1  0
 18  5  1  0
 32 20  1  0
 17 12  1  0
 30 24  1  0
  3 33  1  0
  3 34  1  0
  6 35  1  0
  7 36  1  0
  8 37  1  0
 13 38  1  0
 13 39  1  0
 14 40  1  0
 14 41  1  0
 15 42  1  0
 16 43  1  0
 16 44  1  0
 17 45  1  0
 17 46  1  0
 18 47  1  0
 21 48  1  0
 22 49  1  0
 25 50  1  0
 26 51  1  0
 29 52  1  0
 30 53  1  0
 31 54  1  0
M  END
>  <smiles>  (31) 
O=C1CC(c2cccc(C(=O)N3CCNCC3)c2)=Nc2ccc(-c3ccc(F)cc3)cc21

>  <score_type>  (31) 
oracle

>  <origin>  (31) 
autodockgpu

>  <m_score__min__energy>  (31) 
-8.5

>  <m_primary>  (31) 
energy

>  <rmsd>  (31) 
8.508671928711655

>  <m_score__min__rmsd>  (31) 
8.508671928711655

>  <meeko>  (31) 
{"free_energy": -8.45, "intermolecular_energy": -9.34, "internal_energy": -0.94, "cluster_size": 45, "cluster_id": 1, "rank_in_cluster": 13}

>  <energy>  (31) 
-8.33

>  <cluster_rmsd>  (31) 
0.74

>  <cluster>  (31) 
1

$$$$

     RDKit          3D

 54 58  0  0  0  0  0  0  0  0999 V2000
  141.9890   80.9940  223.9270 O   0  0  0  0  0  0  0  0  0  0  0  0
  141.3510   80.2150  223.1440 C   0  0  0  0  0  0  0  0  0  0  0  0
  142.1080   79.3960  222.1740 C   0  0  0  0  0  0  0  0  0  0  0  0
  141.1570   78.5860  221.3880 C   0  0  0  0  0  0  0  0  0  0  0  0
  141.7270   77.6940  220.3580 C   0  0  0  0  0  0  0  0  0  0  0  0
  142.2290   78.1780  219.1690 C   0  0  0  0  0  0  0  0  0  0  0  0
  142.7680   77.3960  218.1820 C   0  0  0  0  0  0  0  0  0  0  0  0
  142.8100   76.0210  218.3970 C   0  0  0  0  0  0  0  0  0  0  0  0
  142.3160   75.5010  219.5740 C   0  0  0  0  0  0  0  0  0  0  0  0
  142.3360   74.0650  219.8510 C   0  0  0  0  0  0  0  0  0  0  0  0
  141.2170   73.4900  219.9010 O   0  0  0  0  0  0  0  0  0  0  0  0
  143.5710   73.3710  220.0480 N   0  0  0  0  0  0  0  0  0  0  0  0
  144.8030   74.1150  219.9710 C   0  0  0  0  0  0  0  0  0  0  0  0
  145.9140   73.2670  219.4150 C   0  0  0  0  0  0  0  0  0  0  0  0
  145.8770   71.9620  220.0460 N   0  0  0  0  0  0  0  0  0  0  0  0
  144.6700   71.2430  219.7190 C   0  0  0  0  0  0  0  0  0  0  0  0
  143.4980   71.9490  220.3160 C   0  0  0  0  0  0  0  0  0  0  0  0
  141.7760   76.3110  220.5590 C   0  0  0  0  0  0  0  0  0  0  0  0
  139.8830   78.5920  221.5260 N   0  0  0  0  0  0  0  0  0  0  0  0
  139.1830   79.3890  222.4680 C   0  0  0  0  0  0  0  0  0  0  0  0
  137.8230   79.3290  222.5420 C   0  0  0  0  0  0  0  0  0  0  0  0
  137.2010   80.1390  223.4890 C   0  0  0  0  0  0  0  0  0  0  0  0
  137.8860   80.9730  224.3280 C   0  0  0  0  0  0  0  0  0  0  0  0
  137.1560   81.7900  225.2940 C   0  0  0  0  0  0  0  0  0  0  0  0
  136.6890   83.0560  225.0000 C   0  0  0  0  0  0  0  0  0  0  0  0
  136.0050   83.7780  225.9580 C   0  0  0  0  0  0  0  0  0  0  0  0
  135.7650   83.2590  227.2340 C   0  0  0  0  0  0  0  0  0  0  0  0
  135.0890   83.9760  228.1740 F   0  0  0  0  0  0  0  0  0  0  0  0
  136.2510   81.9890  227.4800 C   0  0  0  0  0  0  0  0  0  0  0  0
  136.9380   81.2500  226.5370 C   0  0  0  0  0  0  0  0  0  0  0  0
  139.2680   81.0030  224.2190 C   0  0  0  0  0  0  0  0  0  0  0  0
  139.9050   80.2040  223.2830 C   0  0  0  0  0  0  0  0  0  0  0  0
  142.6777   80.0534  221.5007 H   0  0  0  0  0  0  0  0  0  0  0  0
  142.8070   78.7360  222.7086 H   0  0  0  0  0  0  0  0  0  0  0  0
  142.1945   79.2646  219.0016 H   0  0  0  0  0  0  0  0  0  0  0  0
  143.1542   77.8388  217.2521 H   0  0  0  0  0  0  0  0  0  0  0  0
  143.2347   75.3539  217.6324 H   0  0  0  0  0  0  0  0  0  0  0  0
  144.6555   74.9875  219.3175 H   0  0  0  0  0  0  0  0  0  0  0  0
  145.0820   74.4348  220.9858 H   0  0  0  0  0  0  0  0  0  0  0  0
  145.7830   73.1546  218.3286 H   0  0  0  0  0  0  0  0  0  0  0  0
  146.8828   73.7479  219.6155 H   0  0  0  0  0  0  0  0  0  0  0  0
  146.0650   72.0350  221.0660 H   0  0  0  0  0  0  0  0  0  0  0  0
  144.5540   71.1977  218.6261 H   0  0  0  0  0  0  0  0  0  0  0  0
  144.7291   70.2212  220.1221 H   0  0  0  0  0  0  0  0  0  0  0  0
  142.5721   71.5457  219.8801 H   0  0  0  0  0  0  0  0  0  0  0  0
  143.5049   71.7916  221.4047 H   0  0  0  0  0  0  0  0  0  0  0  0
  141.3895   75.8709  221.4901 H   0  0  0  0  0  0  0  0  0  0  0  0
  137.2415   78.6688  221.8817 H   0  0  0  0  0  0  0  0  0  0  0  0
  136.1042   80.1060  223.5656 H   0  0  0  0  0  0  0  0  0  0  0  0
  136.8617   83.4888  224.0036 H   0  0  0  0  0  0  0  0  0  0  0  0
  135.6401   84.7860  225.7113 H   0  0  0  0  0  0  0  0  0  0  0  0
  136.0829   81.5462  228.4728 H   0  0  0  0  0  0  0  0  0  0  0  0
  137.3057   80.2419  226.7788 H   0  0  0  0  0  0  0  0  0  0  0  0
  139.8580   81.6602  224.8747 H   0  0  0  0  0  0  0  0  0  0  0  0
  1  2  2  0
  2  3  1  0
  3  4  1  0
  4  5  1  0
  5  6  2  0
  6  7  1  0
  7  8  2  0
  8  9  1  0
  9 10  1  0
 10 11  2  0
 10 12  1  0
 12 13  1  0
 13 14  1  0
 14 15  1  0
 15 16  1  0
 16 17  1  0
  9 18  2  0
  4 19  2  0
 19 20  1  0
 20 21  2  0
 21 22  1  0
 22 23  2  0
 23 24  1  0
 24 25  2  0
 25 26  1  0
 26 27  2  0
 27 28  1  0
 27 29  1  0
 29 30  2  0
 23 31  1  0
 31 32  2  0
 32  2  1  0
 18  5  1  0
 32 20  1  0
 17 12  1  0
 30 24  1  0
  3 33  1  0
  3 34  1  0
  6 35  1  0
  7 36  1  0
  8 37  1  0
 13 38  1  0
 13 39  1  0
 14 40  1  0
 14 41  1  0
 15 42  1  0
 16 43  1  0
 16 44  1  0
 17 45  1  0
 17 46  1  0
 18 47  1  0
 21 48  1  0
 22 49  1  0
 25 50  1  0
 26 51  1  0
 29 52  1  0
 30 53  1  0
 31 54  1  0
M  END
>  <smiles>  (32) 
O=C1CC(c2cccc(C(=O)N3CCNCC3)c2)=Nc2ccc(-c3ccc(F)cc3)cc21

>  <score_type>  (32) 
oracle

>  <origin>  (32) 
autodockgpu

>  <m_score__min__energy>  (32) 
-8.5

>  <m_primary>  (32) 
energy

>  <rmsd>  (32) 
8.50297485955654

>  <m_score__min__rmsd>  (32) 
8.50297485955654

>  <meeko>  (32) 
{"free_energy": -8.44, "intermolecular_energy": -9.33, "internal_energy": -0.95, "cluster_size": 45, "cluster_id": 1, "rank_in_cluster": 17}

>  <energy>  (32) 
-8.33

>  <cluster_rmsd>  (32) 
0.74

>  <cluster>  (32) 
1

$$$$

     RDKit          3D

 54 58  0  0  0  0  0  0  0  0999 V2000
  142.0030   80.8650  224.0050 O   0  0  0  0  0  0  0  0  0  0  0  0
  141.3720   80.1230  223.1830 C   0  0  0  0  0  0  0  0  0  0  0  0
  142.1380   79.3250  222.2030 C   0  0  0  0  0  0  0  0  0  0  0  0
  141.1940   78.5550  221.3700 C   0  0  0  0  0  0  0  0  0  0  0  0
  141.7740   77.6890  220.3230 C   0  0  0  0  0  0  0  0  0  0  0  0
  142.2830   78.2020  219.1490 C   0  0  0  0  0  0  0  0  0  0  0  0
  142.8310   77.4450  218.1490 C   0  0  0  0  0  0  0  0  0  0  0  0
  142.8770   76.0660  218.3320 C   0  0  0  0  0  0  0  0  0  0  0  0
  142.3770   75.5170  219.4940 C   0  0  0  0  0  0  0  0  0  0  0  0
  142.4000   74.0760  219.7370 C   0  0  0  0  0  0  0  0  0  0  0  0
  141.2930   73.4800  219.6770 O   0  0  0  0  0  0  0  0  0  0  0  0
  143.6270   73.3970  220.0250 N   0  0  0  0  0  0  0  0  0  0  0  0
  144.8460   74.1630  220.0730 C   0  0  0  0  0  0  0  0  0  0  0  0
  146.0170   73.3480  219.5960 C   0  0  0  0  0  0  0  0  0  0  0  0
  145.9510   72.0280  220.1900 N   0  0  0  0  0  0  0  0  0  0  0  0
  144.7900   71.2970  219.7430 C   0  0  0  0  0  0  0  0  0  0  0  0
  143.5570   71.9680  220.2520 C   0  0  0  0  0  0  0  0  0  0  0  0
  141.8270   76.3030  220.4930 C   0  0  0  0  0  0  0  0  0  0  0  0
  139.9170   78.5760  221.4790 N   0  0  0  0  0  0  0  0  0  0  0  0
  139.2080   79.3520  222.4320 C   0  0  0  0  0  0  0  0  0  0  0  0
  137.8460   79.3100  222.4730 C   0  0  0  0  0  0  0  0  0  0  0  0
  137.2140   80.0980  223.4320 C   0  0  0  0  0  0  0  0  0  0  0  0
  137.8920   80.8940  224.3140 C   0  0  0  0  0  0  0  0  0  0  0  0
  137.1520   81.6900  225.2900 C   0  0  0  0  0  0  0  0  0  0  0  0
  136.9290   81.2660  226.5850 C   0  0  0  0  0  0  0  0  0  0  0  0
  136.2220   82.0660  227.4610 C   0  0  0  0  0  0  0  0  0  0  0  0
  135.7190   83.3110  227.0700 C   0  0  0  0  0  0  0  0  0  0  0  0
  135.0220   84.0960  227.9390 F   0  0  0  0  0  0  0  0  0  0  0  0
  135.9670   83.6920  225.7660 C   0  0  0  0  0  0  0  0  0  0  0  0
  136.6710   82.9060  224.8740 C   0  0  0  0  0  0  0  0  0  0  0  0
  139.2760   80.9070  224.2360 C   0  0  0  0  0  0  0  0  0  0  0  0
  139.9230   80.1300  223.2880 C   0  0  0  0  0  0  0  0  0  0  0  0
  142.7316   79.9956  221.5643 H   0  0  0  0  0  0  0  0  0  0  0  0
  142.8152   78.6374  222.7308 H   0  0  0  0  0  0  0  0  0  0  0  0
  142.2463   79.2921  219.0065 H   0  0  0  0  0  0  0  0  0  0  0  0
  143.2217   77.9105  217.2321 H   0  0  0  0  0  0  0  0  0  0  0  0
  143.3093   75.4184  217.5550 H   0  0  0  0  0  0  0  0  0  0  0  0
  144.7391   75.0490  219.4298 H   0  0  0  0  0  0  0  0  0  0  0  0
  145.0299   74.4619  221.1155 H   0  0  0  0  0  0  0  0  0  0  0  0
  145.9826   73.2606  218.5000 H   0  0  0  0  0  0  0  0  0  0  0  0
  146.9553   73.8402  219.8915 H   0  0  0  0  0  0  0  0  0  0  0  0
  146.0480   72.0780  221.2240 H   0  0  0  0  0  0  0  0  0  0  0  0
  144.7697   71.2766  218.6434 H   0  0  0  0  0  0  0  0  0  0  0  0
  144.8335   70.2669  220.1265 H   0  0  0  0  0  0  0  0  0  0  0  0
  142.6802   71.5606  219.7273 H   0  0  0  0  0  0  0  0  0  0  0  0
  143.4716   71.7831  221.3330 H   0  0  0  0  0  0  0  0  0  0  0  0
  141.4357   75.8407  221.4113 H   0  0  0  0  0  0  0  0  0  0  0  0
  137.2706   78.6805  221.7783 H   0  0  0  0  0  0  0  0  0  0  0  0
  136.1153   80.0793  223.4826 H   0  0  0  0  0  0  0  0  0  0  0  0
  137.3144   80.2913  226.9188 H   0  0  0  0  0  0  0  0  0  0  0  0
  136.0506   81.7160  228.4897 H   0  0  0  0  0  0  0  0  0  0  0  0
  135.5869   84.6652  225.4219 H   0  0  0  0  0  0  0  0  0  0  0  0
  136.8437   83.2505  223.8437 H   0  0  0  0  0  0  0  0  0  0  0  0
  139.8603   81.5335  224.9260 H   0  0  0  0  0  0  0  0  0  0  0  0
  1  2  2  0
  2  3  1  0
  3  4  1  0
  4  5  1  0
  5  6  2  0
  6  7  1  0
  7  8  2  0
  8  9  1  0
  9 10  1  0
 10 11  2  0
 10 12  1  0
 12 13  1  0
 13 14  1  0
 14 15  1  0
 15 16  1  0
 16 17  1  0
  9 18  2  0
  4 19  2  0
 19 20  1  0
 20 21  2  0
 21 22  1  0
 22 23  2  0
 23 24  1  0
 24 25  2  0
 25 26  1  0
 26 27  2  0
 27 28  1  0
 27 29  1  0
 29 30  2  0
 23 31  1  0
 31 32  2  0
 32  2  1  0
 18  5  1  0
 32 20  1  0
 17 12  1  0
 30 24  1  0
  3 33  1  0
  3 34  1  0
  6 35  1  0
  7 36  1  0
  8 37  1  0
 13 38  1  0
 13 39  1  0
 14 40  1  0
 14 41  1  0
 15 42  1  0
 16 43  1  0
 16 44  1  0
 17 45  1  0
 17 46  1  0
 18 47  1  0
 21 48  1  0
 22 49  1  0
 25 50  1  0
 26 51  1  0
 29 52  1  0
 30 53  1  0
 31 54  1  0
M  END
>  <smiles>  (33) 
O=C1CC(c2cccc(C(=O)N3CCNCC3)c2)=Nc2ccc(-c3ccc(F)cc3)cc21

>  <score_type>  (33) 
oracle

>  <origin>  (33) 
autodockgpu

>  <m_score__min__energy>  (33) 
-8.5

>  <m_primary>  (33) 
energy

>  <rmsd>  (33) 
8.49235496601216

>  <m_score__min__rmsd>  (33) 
8.49235496601216

>  <meeko>  (33) 
{"free_energy": -8.42, "intermolecular_energy": -9.31, "internal_energy": -0.97, "cluster_size": 45, "cluster_id": 1, "rank_in_cluster": 21}

>  <energy>  (33) 
-8.33

>  <cluster_rmsd>  (33) 
0.75

>  <cluster>  (33) 
1

$$$$

     RDKit          3D

 54 58  0  0  0  0  0  0  0  0999 V2000
  141.9710   80.9910  223.8620 O   0  0  0  0  0  0  0  0  0  0  0  0
  141.3470   80.1630  223.1200 C   0  0  0  0  0  0  0  0  0  0  0  0
  142.1130   79.3440  222.1580 C   0  0  0  0  0  0  0  0  0  0  0  0
  141.1770   78.4710  221.4220 C   0  0  0  0  0  0  0  0  0  0  0  0
  141.7590   77.5690  220.4060 C   0  0  0  0  0  0  0  0  0  0  0  0
  142.2600   78.0410  219.2120 C   0  0  0  0  0  0  0  0  0  0  0  0
  142.8090   77.2490  218.2380 C   0  0  0  0  0  0  0  0  0  0  0  0
  142.8630   75.8780  218.4740 C   0  0  0  0  0  0  0  0  0  0  0  0
  142.3700   75.3710  219.6570 C   0  0  0  0  0  0  0  0  0  0  0  0
  142.4020   73.9400  219.9540 C   0  0  0  0  0  0  0  0  0  0  0  0
  141.2870   73.3720  220.0910 O   0  0  0  0  0  0  0  0  0  0  0  0
  143.6440   73.2410  220.0750 N   0  0  0  0  0  0  0  0  0  0  0  0
  144.8720   73.9750  219.9010 C   0  0  0  0  0  0  0  0  0  0  0  0
  145.9370   73.1120  219.2820 C   0  0  0  0  0  0  0  0  0  0  0  0
  145.9370   71.8170  219.9340 N   0  0  0  0  0  0  0  0  0  0  0  0
  144.7060   71.1000  219.7040 C   0  0  0  0  0  0  0  0  0  0  0  0
  143.5830   71.8240  220.3710 C   0  0  0  0  0  0  0  0  0  0  0  0
  141.8200   76.1900  220.6280 C   0  0  0  0  0  0  0  0  0  0  0  0
  139.9080   78.4300  221.5910 N   0  0  0  0  0  0  0  0  0  0  0  0
  139.1980   79.2290  222.5250 C   0  0  0  0  0  0  0  0  0  0  0  0
  137.8440   79.1170  222.6340 C   0  0  0  0  0  0  0  0  0  0  0  0
  137.2120   79.9320  223.5700 C   0  0  0  0  0  0  0  0  0  0  0  0
  137.8820   80.8200  224.3660 C   0  0  0  0  0  0  0  0  0  0  0  0
  137.1430   81.6380  225.3230 C   0  0  0  0  0  0  0  0  0  0  0  0
  136.9270   81.2490  226.6300 C   0  0  0  0  0  0  0  0  0  0  0  0
  136.2200   82.0690  227.4870 C   0  0  0  0  0  0  0  0  0  0  0  0
  135.7090   83.3000  227.0650 C   0  0  0  0  0  0  0  0  0  0  0  0
  135.0120   84.1060  227.9160 F   0  0  0  0  0  0  0  0  0  0  0  0
  135.9500   83.6470  225.7500 C   0  0  0  0  0  0  0  0  0  0  0  0
  136.6540   82.8410  224.8760 C   0  0  0  0  0  0  0  0  0  0  0  0
  139.2590   80.9020  224.2210 C   0  0  0  0  0  0  0  0  0  0  0  0
  139.9060   80.0990  223.2950 C   0  0  0  0  0  0  0  0  0  0  0  0
  142.6391   80.0013  221.4501 H   0  0  0  0  0  0  0  0  0  0  0  0
  142.8509   78.7303  222.6954 H   0  0  0  0  0  0  0  0  0  0  0  0
  142.2162   79.1248  219.0289 H   0  0  0  0  0  0  0  0  0  0  0  0
  143.1936   77.6812  217.3024 H   0  0  0  0  0  0  0  0  0  0  0  0
  143.2965   75.2035  217.7209 H   0  0  0  0  0  0  0  0  0  0  0  0
  144.6843   74.8387  219.2462 H   0  0  0  0  0  0  0  0  0  0  0  0
  145.2229   74.3072  220.8892 H   0  0  0  0  0  0  0  0  0  0  0  0
  145.7300   72.9842  218.2092 H   0  0  0  0  0  0  0  0  0  0  0  0
  146.9199   73.5897  219.4070 H   0  0  0  0  0  0  0  0  0  0  0  0
  146.1960   71.9050  220.9380 H   0  0  0  0  0  0  0  0  0  0  0  0
  144.5130   71.0381  218.6228 H   0  0  0  0  0  0  0  0  0  0  0  0
  144.7877   70.0840  220.1177 H   0  0  0  0  0  0  0  0  0  0  0  0
  142.6262   71.4197  220.0089 H   0  0  0  0  0  0  0  0  0  0  0  0
  143.6670   71.6845  221.4589 H   0  0  0  0  0  0  0  0  0  0  0  0
  141.4350   75.7603  221.5645 H   0  0  0  0  0  0  0  0  0  0  0  0
  137.2747   78.4129  222.0094 H   0  0  0  0  0  0  0  0  0  0  0  0
  136.1195   79.8579  223.6744 H   0  0  0  0  0  0  0  0  0  0  0  0
  137.3182   80.2855  226.9887 H   0  0  0  0  0  0  0  0  0  0  0  0
  136.0551   81.7463  228.5256 H   0  0  0  0  0  0  0  0  0  0  0  0
  135.5638   84.6089  225.3817 H   0  0  0  0  0  0  0  0  0  0  0  0
  136.8206   83.1586  223.8361 H   0  0  0  0  0  0  0  0  0  0  0  0
  139.8370   81.6037  224.8403 H   0  0  0  0  0  0  0  0  0  0  0  0
  1  2  2  0
  2  3  1  0
  3  4  1  0
  4  5  1  0
  5  6  2  0
  6  7  1  0
  7  8  2  0
  8  9  1  0
  9 10  1  0
 10 11  2  0
 10 12  1  0
 12 13  1  0
 13 14  1  0
 14 15  1  0
 15 16  1  0
 16 17  1  0
  9 18  2  0
  4 19  2  0
 19 20  1  0
 20 21  2  0
 21 22  1  0
 22 23  2  0
 23 24  1  0
 24 25  2  0
 25 26  1  0
 26 27  2  0
 27 28  1  0
 27 29  1  0
 29 30  2  0
 23 31  1  0
 31 32  2  0
 32  2  1  0
 18  5  1  0
 32 20  1  0
 17 12  1  0
 30 24  1  0
  3 33  1  0
  3 34  1  0
  6 35  1  0
  7 36  1  0
  8 37  1  0
 13 38  1  0
 13 39  1  0
 14 40  1  0
 14 41  1  0
 15 42  1  0
 16 43  1  0
 16 44  1  0
 17 45  1  0
 17 46  1  0
 18 47  1  0
 21 48  1  0
 22 49  1  0
 25 50  1  0
 26 51  1  0
 29 52  1  0
 30 53  1  0
 31 54  1  0
M  END
>  <smiles>  (34) 
O=C1CC(c2cccc(C(=O)N3CCNCC3)c2)=Nc2ccc(-c3ccc(F)cc3)cc21

>  <score_type>  (34) 
oracle

>  <origin>  (34) 
autodockgpu

>  <m_score__min__energy>  (34) 
-8.5

>  <m_primary>  (34) 
energy

>  <rmsd>  (34) 
8.485603906574987

>  <m_score__min__rmsd>  (34) 
8.485603906574987

>  <meeko>  (34) 
{"free_energy": -8.49, "intermolecular_energy": -9.39, "internal_energy": -0.92, "cluster_size": 45, "cluster_id": 1, "rank_in_cluster": 2}

>  <energy>  (34) 
-8.29

>  <cluster_rmsd>  (34) 
0.75

>  <cluster>  (34) 
1

$$$$

     RDKit          3D

 54 58  0  0  0  0  0  0  0  0999 V2000
  141.6400   80.5390  224.1800 O   0  0  0  0  0  0  0  0  0  0  0  0
  141.0800   79.8600  223.2570 C   0  0  0  0  0  0  0  0  0  0  0  0
  141.9250   79.1770  222.2560 C   0  0  0  0  0  0  0  0  0  0  0  0
  141.0540   78.4640  221.3000 C   0  0  0  0  0  0  0  0  0  0  0  0
  141.7200   77.7140  220.2150 C   0  0  0  0  0  0  0  0  0  0  0  0
  142.2590   78.3460  219.1150 C   0  0  0  0  0  0  0  0  0  0  0  0
  142.8860   77.6990  218.0830 C   0  0  0  0  0  0  0  0  0  0  0  0
  142.9830   76.3120  218.1530 C   0  0  0  0  0  0  0  0  0  0  0  0
  142.4540   75.6460  219.2380 C   0  0  0  0  0  0  0  0  0  0  0  0
  142.5290   74.1920  219.3610 C   0  0  0  0  0  0  0  0  0  0  0  0
  141.5150   73.5460  218.9880 O   0  0  0  0  0  0  0  0  0  0  0  0
  143.7010   73.5560  219.8790 N   0  0  0  0  0  0  0  0  0  0  0  0
  144.8140   74.3780  220.2810 C   0  0  0  0  0  0  0  0  0  0  0  0
  146.1220   73.6780  220.0340 C   0  0  0  0  0  0  0  0  0  0  0  0
  146.0190   72.3040  220.4850 N   0  0  0  0  0  0  0  0  0  0  0  0
  145.0540   71.5590  219.7130 C   0  0  0  0  0  0  0  0  0  0  0  0
  143.6890   72.1100  219.9650 C   0  0  0  0  0  0  0  0  0  0  0  0
  141.8250   76.3220  220.2710 C   0  0  0  0  0  0  0  0  0  0  0  0
  139.7730   78.4410  221.3350 N   0  0  0  0  0  0  0  0  0  0  0  0
  138.9870   79.1070  222.3110 C   0  0  0  0  0  0  0  0  0  0  0  0
  137.6260   79.0270  222.2670 C   0  0  0  0  0  0  0  0  0  0  0  0
  136.9180   79.7050  223.2550 C   0  0  0  0  0  0  0  0  0  0  0  0
  137.5190   80.4320  224.2450 C   0  0  0  0  0  0  0  0  0  0  0  0
  136.7000   81.1150  225.2440 C   0  0  0  0  0  0  0  0  0  0  0  0
  135.3480   80.8780  225.3890 C   0  0  0  0  0  0  0  0  0  0  0  0
  134.6290   81.5560  226.3540 C   0  0  0  0  0  0  0  0  0  0  0  0
  135.2390   82.4870  227.2010 C   0  0  0  0  0  0  0  0  0  0  0  0
  134.5240   83.1520  228.1520 F   0  0  0  0  0  0  0  0  0  0  0  0
  136.5930   82.6890  227.0180 C   0  0  0  0  0  0  0  0  0  0  0  0
  137.3300   82.0220  226.0590 C   0  0  0  0  0  0  0  0  0  0  0  0
  138.9050   80.4880  224.2510 C   0  0  0  0  0  0  0  0  0  0  0  0
  139.6280   79.8190  223.2760 C   0  0  0  0  0  0  0  0  0  0  0  0
  142.5333   79.9192  221.7184 H   0  0  0  0  0  0  0  0  0  0  0  0
  142.5917   78.4605  222.7582 H   0  0  0  0  0  0  0  0  0  0  0  0
  142.1805   79.4419  219.0624 H   0  0  0  0  0  0  0  0  0  0  0  0
  143.2984   78.2560  217.2288 H   0  0  0  0  0  0  0  0  0  0  0  0
  143.4788   75.7507  217.3473 H   0  0  0  0  0  0  0  0  0  0  0  0
  144.7942   75.3155  219.7060 H   0  0  0  0  0  0  0  0  0  0  0  0
  144.7256   74.5828  221.3582 H   0  0  0  0  0  0  0  0  0  0  0  0
  146.3518   73.6961  218.9584 H   0  0  0  0  0  0  0  0  0  0  0  0
  146.9250   74.1891  220.5853 H   0  0  0  0  0  0  0  0  0  0  0  0
  145.8660   72.2590  221.5130 H   0  0  0  0  0  0  0  0  0  0  0  0
  145.2935   71.6459  218.6429 H   0  0  0  0  0  0  0  0  0  0  0  0
  145.0842   70.4999  220.0085 H   0  0  0  0  0  0  0  0  0  0  0  0
  142.9925   71.7086  219.2142 H   0  0  0  0  0  0  0  0  0  0  0  0
  143.3682   71.8167  220.9755 H   0  0  0  0  0  0  0  0  0  0  0  0
  141.4123   75.7680  221.1270 H   0  0  0  0  0  0  0  0  0  0  0  0
  137.1102   78.4514  221.4843 H   0  0  0  0  0  0  0  0  0  0  0  0
  135.8193   79.6534  223.2386 H   0  0  0  0  0  0  0  0  0  0  0  0
  134.8436   80.1499  224.7367 H   0  0  0  0  0  0  0  0  0  0  0  0
  133.5518   81.3592  226.4588 H   0  0  0  0  0  0  0  0  0  0  0  0
  137.1078   83.4141  227.6655 H   0  0  0  0  0  0  0  0  0  0  0  0
  138.4074   82.2151  225.9499 H   0  0  0  0  0  0  0  0  0  0  0  0
  139.4296   81.0626  225.0286 H   0  0  0  0  0  0  0  0  0  0  0  0
  1  2  2  0
  2  3  1  0
  3  4  1  0
  4  5  1  0
  5  6  2  0
  6  7  1  0
  7  8  2  0
  8  9  1  0
  9 10  1  0
 10 11  2  0
 10 12  1  0
 12 13  1  0
 13 14  1  0
 14 15  1  0
 15 16  1  0
 16 17  1  0
  9 18  2  0
  4 19  2  0
 19 20  1  0
 20 21  2  0
 21 22  1  0
 22 23  2  0
 23 24  1  0
 24 25  2  0
 25 26  1  0
 26 27  2  0
 27 28  1  0
 27 29  1  0
 29 30  2  0
 23 31  1  0
 31 32  2  0
 32  2  1  0
 18  5  1  0
 32 20  1  0
 17 12  1  0
 30 24  1  0
  3 33  1  0
  3 34  1  0
  6 35  1  0
  7 36  1  0
  8 37  1  0
 13 38  1  0
 13 39  1  0
 14 40  1  0
 14 41  1  0
 15 42  1  0
 16 43  1  0
 16 44  1  0
 17 45  1  0
 17 46  1  0
 18 47  1  0
 21 48  1  0
 22 49  1  0
 25 50  1  0
 26 51  1  0
 29 52  1  0
 30 53  1  0
 31 54  1  0
M  END
>  <smiles>  (35) 
O=C1CC(c2cccc(C(=O)N3CCNCC3)c2)=Nc2ccc(-c3ccc(F)cc3)cc21

>  <score_type>  (35) 
oracle

>  <origin>  (35) 
autodockgpu

>  <m_score__min__energy>  (35) 
-8.5

>  <m_primary>  (35) 
energy

>  <rmsd>  (35) 
8.41361757025991

>  <m_score__min__rmsd>  (35) 
8.41361757025991

>  <meeko>  (35) 
{"free_energy": -8.26, "intermolecular_energy": -9.15, "internal_energy": -1.0, "cluster_size": 45, "cluster_id": 1, "rank_in_cluster": 42}

>  <energy>  (35) 
-8.29

>  <cluster_rmsd>  (35) 
0.78

>  <cluster>  (35) 
1

$$$$

     RDKit          3D

 54 58  0  0  0  0  0  0  0  0999 V2000
  142.2190   79.1140  223.2750 O   0  0  0  0  0  0  0  0  0  0  0  0
  140.9470   79.1350  223.1880 C   0  0  0  0  0  0  0  0  0  0  0  0
  140.2250   80.3690  223.5600 C   0  0  0  0  0  0  0  0  0  0  0  0
  138.7760   80.1490  223.3770 C   0  0  0  0  0  0  0  0  0  0  0  0
  137.8800   81.2780  223.7000 C   0  0  0  0  0  0  0  0  0  0  0  0
  137.3340   82.0800  222.7220 C   0  0  0  0  0  0  0  0  0  0  0  0
  136.4980   83.1380  222.9670 C   0  0  0  0  0  0  0  0  0  0  0  0
  136.1820   83.4180  224.2930 C   0  0  0  0  0  0  0  0  0  0  0  0
  136.7100   82.6370  225.2990 C   0  0  0  0  0  0  0  0  0  0  0  0
  136.4100   82.8870  226.7070 C   0  0  0  0  0  0  0  0  0  0  0  0
  136.9510   83.9000  227.2220 O   0  0  0  0  0  0  0  0  0  0  0  0
  135.5440   82.0170  227.4420 N   0  0  0  0  0  0  0  0  0  0  0  0
  134.9700   80.8810  226.7660 C   0  0  0  0  0  0  0  0  0  0  0  0
  133.5980   80.5690  227.3000 C   0  0  0  0  0  0  0  0  0  0  0  0
  133.6270   80.6300  228.7480 N   0  0  0  0  0  0  0  0  0  0  0  0
  133.9100   81.9630  229.2230 C   0  0  0  0  0  0  0  0  0  0  0  0
  135.3010   82.3410  228.8320 C   0  0  0  0  0  0  0  0  0  0  0  0
  137.5520   81.5720  225.0270 C   0  0  0  0  0  0  0  0  0  0  0  0
  138.2350   79.0640  222.9620 N   0  0  0  0  0  0  0  0  0  0  0  0
  138.9560   77.8940  222.6100 C   0  0  0  0  0  0  0  0  0  0  0  0
  138.2930   76.7830  222.1780 C   0  0  0  0  0  0  0  0  0  0  0  0
  139.0630   75.6700  221.8510 C   0  0  0  0  0  0  0  0  0  0  0  0
  140.4270   75.6480  221.9430 C   0  0  0  0  0  0  0  0  0  0  0  0
  141.1590   74.4370  221.5800 C   0  0  0  0  0  0  0  0  0  0  0  0
  140.7470   73.1740  221.9550 C   0  0  0  0  0  0  0  0  0  0  0  0
  141.4840   72.0680  221.5790 C   0  0  0  0  0  0  0  0  0  0  0  0
  142.6510   72.1910  220.8170 C   0  0  0  0  0  0  0  0  0  0  0  0
  143.3730   71.0960  220.4480 F   0  0  0  0  0  0  0  0  0  0  0  0
  143.0210   73.4740  220.4660 C   0  0  0  0  0  0  0  0  0  0  0  0
  142.2990   74.5930  220.8320 C   0  0  0  0  0  0  0  0  0  0  0  0
  141.0610   76.7980  222.3880 C   0  0  0  0  0  0  0  0  0  0  0  0
  140.3120   77.9160  222.7190 C   0  0  0  0  0  0  0  0  0  0  0  0
  140.4312   80.6145  224.6122 H   0  0  0  0  0  0  0  0  0  0  0  0
  140.5587   81.2022  222.9241 H   0  0  0  0  0  0  0  0  0  0  0  0
  137.5858   81.8563  221.6748 H   0  0  0  0  0  0  0  0  0  0  0  0
  136.0911   83.7445  222.1444 H   0  0  0  0  0  0  0  0  0  0  0  0
  135.5147   84.2577  224.5371 H   0  0  0  0  0  0  0  0  0  0  0  0
  134.8953   81.1026  225.6912 H   0  0  0  0  0  0  0  0  0  0  0  0
  135.6180   80.0087  226.9369 H   0  0  0  0  0  0  0  0  0  0  0  0
  132.8768   81.3048  226.9148 H   0  0  0  0  0  0  0  0  0  0  0  0
  133.2953   79.5618  226.9777 H   0  0  0  0  0  0  0  0  0  0  0  0
  134.2540   79.8980  229.1410 H   0  0  0  0  0  0  0  0  0  0  0  0
  133.1972   82.6715  228.7759 H   0  0  0  0  0  0  0  0  0  0  0  0
  133.8142   81.9921  230.3184 H   0  0  0  0  0  0  0  0  0  0  0  0
  135.4373   83.4224  228.9806 H   0  0  0  0  0  0  0  0  0  0  0  0
  136.0108   81.7793  229.4570 H   0  0  0  0  0  0  0  0  0  0  0  0
  137.9592   80.9628  225.8474 H   0  0  0  0  0  0  0  0  0  0  0  0
  137.1965   76.7670  222.0916 H   0  0  0  0  0  0  0  0  0  0  0  0
  138.5482   74.7630  221.5011 H   0  0  0  0  0  0  0  0  0  0  0  0
  139.8323   73.0485  222.5529 H   0  0  0  0  0  0  0  0  0  0  0  0
  141.1456   71.0673  221.8857 H   0  0  0  0  0  0  0  0  0  0  0  0
  143.9333   73.6113  219.8670 H   0  0  0  0  0  0  0  0  0  0  0  0
  142.6332   75.5959  220.5280 H   0  0  0  0  0  0  0  0  0  0  0  0
  142.1570   76.8229  222.4782 H   0  0  0  0  0  0  0  0  0  0  0  0
  1  2  2  0
  2  3  1  0
  3  4  1  0
  4  5  1  0
  5  6  2  0
  6  7  1  0
  7  8  2  0
  8  9  1  0
  9 10  1  0
 10 11  2  0
 10 12  1  0
 12 13  1  0
 13 14  1  0
 14 15  1  0
 15 16  1  0
 16 17  1  0
  9 18  2  0
  4 19  2  0
 19 20  1  0
 20 21  2  0
 21 22  1  0
 22 23  2  0
 23 24  1  0
 24 25  2  0
 25 26  1  0
 26 27  2  0
 27 28  1  0
 27 29  1  0
 29 30  2  0
 23 31  1  0
 31 32  2  0
 32  2  1  0
 18  5  1  0
 32 20  1  0
 17 12  1  0
 30 24  1  0
  3 33  1  0
  3 34  1  0
  6 35  1  0
  7 36  1  0
  8 37  1  0
 13 38  1  0
 13 39  1  0
 14 40  1  0
 14 41  1  0
 15 42  1  0
 16 43  1  0
 16 44  1  0
 17 45  1  0
 17 46  1  0
 18 47  1  0
 21 48  1  0
 22 49  1  0
 25 50  1  0
 26 51  1  0
 29 52  1  0
 30 53  1  0
 31 54  1  0
M  END
>  <smiles>  (36) 
O=C1CC(c2cccc(C(=O)N3CCNCC3)c2)=Nc2ccc(-c3ccc(F)cc3)cc21

>  <score_type>  (36) 
oracle

>  <origin>  (36) 
autodockgpu

>  <m_score__min__energy>  (36) 
-8.5

>  <m_primary>  (36) 
energy

>  <rmsd>  (36) 
11.814611476977774

>  <m_score__min__rmsd>  (36) 
11.814611476977774

>  <meeko>  (36) 
{"free_energy": -7.95, "intermolecular_energy": -8.85, "internal_energy": -0.98, "cluster_size": 3, "cluster_id": 2, "rank_in_cluster": 1}

>  <energy>  (36) 
-8.29

>  <cluster_rmsd>  (36) 
0.51

>  <cluster>  (36) 
1

$$$$

     RDKit          3D

 54 58  0  0  0  0  0  0  0  0999 V2000
  141.8510   81.1140  223.8790 O   0  0  0  0  0  0  0  0  0  0  0  0
  141.2530   80.2690  223.1330 C   0  0  0  0  0  0  0  0  0  0  0  0
  142.0430   79.4860  222.1610 C   0  0  0  0  0  0  0  0  0  0  0  0
  141.1360   78.5860  221.4220 C   0  0  0  0  0  0  0  0  0  0  0  0
  141.7450   77.7130  220.3970 C   0  0  0  0  0  0  0  0  0  0  0  0
  142.2820   78.2190  219.2330 C   0  0  0  0  0  0  0  0  0  0  0  0
  142.8570   77.4560  218.2520 C   0  0  0  0  0  0  0  0  0  0  0  0
  142.9000   76.0780  218.4460 C   0  0  0  0  0  0  0  0  0  0  0  0
  142.3720   75.5360  219.5990 C   0  0  0  0  0  0  0  0  0  0  0  0
  142.3920   74.0970  219.8530 C   0  0  0  0  0  0  0  0  0  0  0  0
  141.2730   73.5220  219.8980 O   0  0  0  0  0  0  0  0  0  0  0  0
  143.6270   73.3980  220.0350 N   0  0  0  0  0  0  0  0  0  0  0  0
  144.8590   74.1420  219.9650 C   0  0  0  0  0  0  0  0  0  0  0  0
  145.9680   73.3020  219.3920 C   0  0  0  0  0  0  0  0  0  0  0  0
  145.9320   71.9870  220.0030 N   0  0  0  0  0  0  0  0  0  0  0  0
  144.7220   71.2740  219.6690 C   0  0  0  0  0  0  0  0  0  0  0  0
  143.5530   71.9730  220.2820 C   0  0  0  0  0  0  0  0  0  0  0  0
  141.7960   76.3280  220.5780 C   0  0  0  0  0  0  0  0  0  0  0  0
  139.8700   78.4980  221.5970 N   0  0  0  0  0  0  0  0  0  0  0  0
  139.1370   79.2640  222.5400 C   0  0  0  0  0  0  0  0  0  0  0  0
  137.7880   79.1030  222.6540 C   0  0  0  0  0  0  0  0  0  0  0  0
  137.1320   79.8880  223.6000 C   0  0  0  0  0  0  0  0  0  0  0  0
  137.7730   80.7920  224.3990 C   0  0  0  0  0  0  0  0  0  0  0  0
  137.0100   81.5770  225.3660 C   0  0  0  0  0  0  0  0  0  0  0  0
  136.9520   81.2570  226.7080 C   0  0  0  0  0  0  0  0  0  0  0  0
  136.2120   82.0400  227.5730 C   0  0  0  0  0  0  0  0  0  0  0  0
  135.5100   83.1630  227.1230 C   0  0  0  0  0  0  0  0  0  0  0  0
  134.7820   83.9310  227.9810 F   0  0  0  0  0  0  0  0  0  0  0  0
  135.5980   83.4420  225.7730 C   0  0  0  0  0  0  0  0  0  0  0  0
  136.3320   82.6720  224.8920 C   0  0  0  0  0  0  0  0  0  0  0  0
  139.1460   80.9250  224.2490 C   0  0  0  0  0  0  0  0  0  0  0  0
  139.8160   80.1530  223.3140 C   0  0  0  0  0  0  0  0  0  0  0  0
  142.5418   80.1676  221.4562 H   0  0  0  0  0  0  0  0  0  0  0  0
  142.8049   78.8948  222.6902 H   0  0  0  0  0  0  0  0  0  0  0  0
  142.2464   79.3080  219.0819 H   0  0  0  0  0  0  0  0  0  0  0  0
  143.2705   77.9158  217.3423 H   0  0  0  0  0  0  0  0  0  0  0  0
  143.3522   75.4257  217.6844 H   0  0  0  0  0  0  0  0  0  0  0  0
  144.7098   75.0245  219.3255 H   0  0  0  0  0  0  0  0  0  0  0  0
  145.1418   74.4457  220.9837 H   0  0  0  0  0  0  0  0  0  0  0  0
  145.8335   73.2066  218.3044 H   0  0  0  0  0  0  0  0  0  0  0  0
  146.9378   73.7792  219.5967 H   0  0  0  0  0  0  0  0  0  0  0  0
  146.1230   72.0440  221.0240 H   0  0  0  0  0  0  0  0  0  0  0  0
  144.6017   71.2459  218.5760 H   0  0  0  0  0  0  0  0  0  0  0  0
  144.7811   70.2458  220.0554 H   0  0  0  0  0  0  0  0  0  0  0  0
  142.6246   71.5775  219.8442 H   0  0  0  0  0  0  0  0  0  0  0  0
  143.5644   71.7993  221.3681 H   0  0  0  0  0  0  0  0  0  0  0  0
  141.3826   75.8715  221.4894 H   0  0  0  0  0  0  0  0  0  0  0  0
  137.2410   78.3843  222.0262 H   0  0  0  0  0  0  0  0  0  0  0  0
  136.0434   79.7741  223.7090 H   0  0  0  0  0  0  0  0  0  0  0  0
  137.4947   80.3790  227.0882 H   0  0  0  0  0  0  0  0  0  0  0  0
  136.1741   81.7742  228.6397 H   0  0  0  0  0  0  0  0  0  0  0  0
  135.0589   84.3174  225.3817 H   0  0  0  0  0  0  0  0  0  0  0  0
  136.3726   82.9331  223.8242 H   0  0  0  0  0  0  0  0  0  0  0  0
  139.7014   81.6421  224.8713 H   0  0  0  0  0  0  0  0  0  0  0  0
  1  2  2  0
  2  3  1  0
  3  4  1  0
  4  5  1  0
  5  6  2  0
  6  7  1  0
  7  8  2  0
  8  9  1  0
  9 10  1  0
 10 11  2  0
 10 12  1  0
 12 13  1  0
 13 14  1  0
 14 15  1  0
 15 16  1  0
 16 17  1  0
  9 18  2  0
  4 19  2  0
 19 20  1  0
 20 21  2  0
 21 22  1  0
 22 23  2  0
 23 24  1  0
 24 25  2  0
 25 26  1  0
 26 27  2  0
 27 28  1  0
 27 29  1  0
 29 30  2  0
 23 31  1  0
 31 32  2  0
 32  2  1  0
 18  5  1  0
 32 20  1  0
 17 12  1  0
 30 24  1  0
  3 33  1  0
  3 34  1  0
  6 35  1  0
  7 36  1  0
  8 37  1  0
 13 38  1  0
 13 39  1  0
 14 40  1  0
 14 41  1  0
 15 42  1  0
 16 43  1  0
 16 44  1  0
 17 45  1  0
 17 46  1  0
 18 47  1  0
 21 48  1  0
 22 49  1  0
 25 50  1  0
 26 51  1  0
 29 52  1  0
 30 53  1  0
 31 54  1  0
M  END
>  <smiles>  (37) 
O=C1CC(c2cccc(C(=O)N3CCNCC3)c2)=Nc2ccc(-c3ccc(F)cc3)cc21

>  <score_type>  (37) 
oracle

>  <origin>  (37) 
autodockgpu

>  <m_score__min__energy>  (37) 
-8.5

>  <m_primary>  (37) 
energy

>  <rmsd>  (37) 
8.516951305664461

>  <m_score__min__rmsd>  (37) 
8.516951305664461

>  <meeko>  (37) 
{"free_energy": -8.37, "intermolecular_energy": -9.27, "internal_energy": -0.94, "cluster_size": 45, "cluster_id": 1, "rank_in_cluster": 26}

>  <energy>  (37) 
-8.28

>  <cluster_rmsd>  (37) 
0.77

>  <cluster>  (37) 
1

$$$$

     RDKit          3D

 54 58  0  0  0  0  0  0  0  0999 V2000
  141.9610   81.1160  223.7780 O   0  0  0  0  0  0  0  0  0  0  0  0
  141.3450   80.2480  223.0750 C   0  0  0  0  0  0  0  0  0  0  0  0
  142.1130   79.4290  222.1140 C   0  0  0  0  0  0  0  0  0  0  0  0
  141.1880   78.5070  221.4260 C   0  0  0  0  0  0  0  0  0  0  0  0
  141.7720   77.5980  220.4190 C   0  0  0  0  0  0  0  0  0  0  0  0
  142.2800   78.0600  219.2240 C   0  0  0  0  0  0  0  0  0  0  0  0
  142.8320   77.2620  218.2580 C   0  0  0  0  0  0  0  0  0  0  0  0
  142.8820   75.8920  218.5020 C   0  0  0  0  0  0  0  0  0  0  0  0
  142.3830   75.3930  219.6860 C   0  0  0  0  0  0  0  0  0  0  0  0
  142.4110   73.9640  219.9920 C   0  0  0  0  0  0  0  0  0  0  0  0
  141.2960   73.4110  220.1840 O   0  0  0  0  0  0  0  0  0  0  0  0
  143.6490   73.2510  220.0650 N   0  0  0  0  0  0  0  0  0  0  0  0
  144.8760   73.9690  219.8300 C   0  0  0  0  0  0  0  0  0  0  0  0
  145.9020   73.0880  219.1720 C   0  0  0  0  0  0  0  0  0  0  0  0
  145.9160   71.7980  219.8330 N   0  0  0  0  0  0  0  0  0  0  0  0
  144.6680   71.0950  219.6630 C   0  0  0  0  0  0  0  0  0  0  0  0
  143.5830   71.8370  220.3730 C   0  0  0  0  0  0  0  0  0  0  0  0
  141.8300   76.2200  220.6490 C   0  0  0  0  0  0  0  0  0  0  0  0
  139.9250   78.4300  221.6300 N   0  0  0  0  0  0  0  0  0  0  0  0
  139.2140   79.2310  222.5610 C   0  0  0  0  0  0  0  0  0  0  0  0
  137.8670   79.0780  222.7090 C   0  0  0  0  0  0  0  0  0  0  0  0
  137.2340   79.8970  223.6400 C   0  0  0  0  0  0  0  0  0  0  0  0
  137.8950   80.8270  224.3940 C   0  0  0  0  0  0  0  0  0  0  0  0
  137.1540   81.6470  225.3490 C   0  0  0  0  0  0  0  0  0  0  0  0
  136.9320   81.2560  226.6550 C   0  0  0  0  0  0  0  0  0  0  0  0
  136.2230   82.0780  227.5100 C   0  0  0  0  0  0  0  0  0  0  0  0
  135.7180   83.3110  227.0880 C   0  0  0  0  0  0  0  0  0  0  0  0
  135.0200   84.1170  227.9360 F   0  0  0  0  0  0  0  0  0  0  0  0
  135.9650   83.6580  225.7740 C   0  0  0  0  0  0  0  0  0  0  0  0
  136.6710   82.8520  224.9020 C   0  0  0  0  0  0  0  0  0  0  0  0
  139.2640   80.9490  224.2110 C   0  0  0  0  0  0  0  0  0  0  0  0
  139.9120   80.1430  223.2890 C   0  0  0  0  0  0  0  0  0  0  0  0
  142.5986   80.0841  221.3757 H   0  0  0  0  0  0  0  0  0  0  0  0
  142.8846   78.8541  222.6471 H   0  0  0  0  0  0  0  0  0  0  0  0
  142.2392   79.1426  219.0335 H   0  0  0  0  0  0  0  0  0  0  0  0
  143.2223   77.6882  217.3220 H   0  0  0  0  0  0  0  0  0  0  0  0
  143.3170   75.2122  217.7545 H   0  0  0  0  0  0  0  0  0  0  0  0
  144.6692   74.8293  219.1765 H   0  0  0  0  0  0  0  0  0  0  0  0
  145.2745   74.3057  220.7984 H   0  0  0  0  0  0  0  0  0  0  0  0
  145.6463   72.9548  218.1105 H   0  0  0  0  0  0  0  0  0  0  0  0
  146.8951   73.5546  219.2505 H   0  0  0  0  0  0  0  0  0  0  0  0
  146.2200   71.8900  220.8240 H   0  0  0  0  0  0  0  0  0  0  0  0
  144.4271   71.0277  218.5918 H   0  0  0  0  0  0  0  0  0  0  0  0
  144.7560   70.0814  220.0811 H   0  0  0  0  0  0  0  0  0  0  0  0
  142.6067   71.4425  220.0548 H   0  0  0  0  0  0  0  0  0  0  0  0
  143.7114   71.7030  221.4572 H   0  0  0  0  0  0  0  0  0  0  0  0
  141.4399   75.7968  221.5864 H   0  0  0  0  0  0  0  0  0  0  0  0
  137.3050   78.3395  222.1184 H   0  0  0  0  0  0  0  0  0  0  0  0
  136.1476   79.7907  223.7760 H   0  0  0  0  0  0  0  0  0  0  0  0
  137.3193   80.2911  227.0141 H   0  0  0  0  0  0  0  0  0  0  0  0
  136.0520   81.7543  228.5473 H   0  0  0  0  0  0  0  0  0  0  0  0
  135.5818   84.6207  225.4048 H   0  0  0  0  0  0  0  0  0  0  0  0
  136.8438   83.1713  223.8636 H   0  0  0  0  0  0  0  0  0  0  0  0
  139.8347   81.6845  224.7969 H   0  0  0  0  0  0  0  0  0  0  0  0
  1  2  2  0
  2  3  1  0
  3  4  1  0
  4  5  1  0
  5  6  2  0
  6  7  1  0
  7  8  2  0
  8  9  1  0
  9 10  1  0
 10 11  2  0
 10 12  1  0
 12 13  1  0
 13 14  1  0
 14 15  1  0
 15 16  1  0
 16 17  1  0
  9 18  2  0
  4 19  2  0
 19 20  1  0
 20 21  2  0
 21 22  1  0
 22 23  2  0
 23 24  1  0
 24 25  2  0
 25 26  1  0
 26 27  2  0
 27 28  1  0
 27 29  1  0
 29 30  2  0
 23 31  1  0
 31 32  2  0
 32  2  1  0
 18  5  1  0
 32 20  1  0
 17 12  1  0
 30 24  1  0
  3 33  1  0
  3 34  1  0
  6 35  1  0
  7 36  1  0
  8 37  1  0
 13 38  1  0
 13 39  1  0
 14 40  1  0
 14 41  1  0
 15 42  1  0
 16 43  1  0
 16 44  1  0
 17 45  1  0
 17 46  1  0
 18 47  1  0
 21 48  1  0
 22 49  1  0
 25 50  1  0
 26 51  1  0
 29 52  1  0
 30 53  1  0
 31 54  1  0
M  END
>  <smiles>  (38) 
O=C1CC(c2cccc(C(=O)N3CCNCC3)c2)=Nc2ccc(-c3ccc(F)cc3)cc21

>  <score_type>  (38) 
oracle

>  <origin>  (38) 
autodockgpu

>  <m_score__min__energy>  (38) 
-8.5

>  <m_primary>  (38) 
energy

>  <rmsd>  (38) 
8.5141870252866

>  <m_score__min__rmsd>  (38) 
8.5141870252866

>  <meeko>  (38) 
{"free_energy": -8.48, "intermolecular_energy": -9.38, "internal_energy": -0.9, "cluster_size": 45, "cluster_id": 1, "rank_in_cluster": 5}

>  <energy>  (38) 
-8.28

>  <cluster_rmsd>  (38) 
0.42

>  <cluster>  (38) 
1

$$$$

     RDKit          3D

 54 58  0  0  0  0  0  0  0  0999 V2000
  141.6380   81.2080  223.8440 O   0  0  0  0  0  0  0  0  0  0  0  0
  141.0890   80.3360  223.0930 C   0  0  0  0  0  0  0  0  0  0  0  0
  141.9140   79.6350  222.0880 C   0  0  0  0  0  0  0  0  0  0  0  0
  141.0610   78.6840  221.3480 C   0  0  0  0  0  0  0  0  0  0  0  0
  141.7110   77.8810  220.2920 C   0  0  0  0  0  0  0  0  0  0  0  0
  142.2930   78.4630  219.1860 C   0  0  0  0  0  0  0  0  0  0  0  0
  142.9080   77.7660  218.1800 C   0  0  0  0  0  0  0  0  0  0  0  0
  142.9450   76.3780  218.2830 C   0  0  0  0  0  0  0  0  0  0  0  0
  142.3710   75.7610  219.3750 C   0  0  0  0  0  0  0  0  0  0  0  0
  142.3820   74.3080  219.5320 C   0  0  0  0  0  0  0  0  0  0  0  0
  141.3160   73.7060  219.2350 O   0  0  0  0  0  0  0  0  0  0  0  0
  143.5500   73.6260  219.9980 N   0  0  0  0  0  0  0  0  0  0  0  0
  144.7230   74.4010  220.3130 C   0  0  0  0  0  0  0  0  0  0  0  0
  145.9790   73.6300  220.0100 C   0  0  0  0  0  0  0  0  0  0  0  0
  145.8350   72.2740  220.5020 N   0  0  0  0  0  0  0  0  0  0  0  0
  144.7910   71.5600  219.8080 C   0  0  0  0  0  0  0  0  0  0  0  0
  143.4720   72.1850  220.1230 C   0  0  0  0  0  0  0  0  0  0  0  0
  141.7560   76.4870  220.3810 C   0  0  0  0  0  0  0  0  0  0  0  0
  139.8090   78.4980  221.5460 N   0  0  0  0  0  0  0  0  0  0  0  0
  139.0420   79.1870  222.5210 C   0  0  0  0  0  0  0  0  0  0  0  0
  137.7110   78.9220  222.6590 C   0  0  0  0  0  0  0  0  0  0  0  0
  137.0190   79.6350  223.6350 C   0  0  0  0  0  0  0  0  0  0  0  0
  137.6080   80.5690  224.4410 C   0  0  0  0  0  0  0  0  0  0  0  0
  136.8090   81.2730  225.4400 C   0  0  0  0  0  0  0  0  0  0  0  0
  137.3250   82.2750  226.2390 C   0  0  0  0  0  0  0  0  0  0  0  0
  136.5170   82.9030  227.1660 C   0  0  0  0  0  0  0  0  0  0  0  0
  135.1720   82.5520  227.3210 C   0  0  0  0  0  0  0  0  0  0  0  0
  134.3790   83.1770  228.2370 F   0  0  0  0  0  0  0  0  0  0  0  0
  134.7020   81.5460  226.4990 C   0  0  0  0  0  0  0  0  0  0  0  0
  135.4930   80.9050  225.5670 C   0  0  0  0  0  0  0  0  0  0  0  0
  138.9630   80.8080  224.2660 C   0  0  0  0  0  0  0  0  0  0  0  0
  139.6690   80.1080  223.3000 C   0  0  0  0  0  0  0  0  0  0  0  0
  142.3444   80.3666  221.3883 H   0  0  0  0  0  0  0  0  0  0  0  0
  142.7297   79.0925  222.5883 H   0  0  0  0  0  0  0  0  0  0  0  0
  142.2614   79.5596  219.1062 H   0  0  0  0  0  0  0  0  0  0  0  0
  143.3572   78.2849  217.3204 H   0  0  0  0  0  0  0  0  0  0  0  0
  143.4288   75.7774  217.4987 H   0  0  0  0  0  0  0  0  0  0  0  0
  144.7150   75.3241  219.7149 H   0  0  0  0  0  0  0  0  0  0  0  0
  144.7081   74.6364  221.3874 H   0  0  0  0  0  0  0  0  0  0  0  0
  146.1463   73.6114  218.9229 H   0  0  0  0  0  0  0  0  0  0  0  0
  146.8370   74.1126  220.5009 H   0  0  0  0  0  0  0  0  0  0  0  0
  145.7420   72.2610  221.5380 H   0  0  0  0  0  0  0  0  0  0  0  0
  144.9709   71.6083  218.7239 H   0  0  0  0  0  0  0  0  0  0  0  0
  144.7868   70.5083  220.1305 H   0  0  0  0  0  0  0  0  0  0  0  0
  142.7138   71.8017  219.4243 H   0  0  0  0  0  0  0  0  0  0  0  0
  143.1969   71.9323  221.1576 H   0  0  0  0  0  0  0  0  0  0  0  0
  141.3069   75.9712  221.2425 H   0  0  0  0  0  0  0  0  0  0  0  0
  137.2059   78.1771  222.0265 H   0  0  0  0  0  0  0  0  0  0  0  0
  135.9447   79.4367  223.7637 H   0  0  0  0  0  0  0  0  0  0  0  0
  138.3791   82.5724  226.1367 H   0  0  0  0  0  0  0  0  0  0  0  0
  136.9410   83.6978  227.7973 H   0  0  0  0  0  0  0  0  0  0  0  0
  133.6489   81.2418  226.5915 H   0  0  0  0  0  0  0  0  0  0  0  0
  135.0738   80.1091  224.9339 H   0  0  0  0  0  0  0  0  0  0  0  0
  139.4766   81.5519  224.8928 H   0  0  0  0  0  0  0  0  0  0  0  0
  1  2  2  0
  2  3  1  0
  3  4  1  0
  4  5  1  0
  5  6  2  0
  6  7  1  0
  7  8  2  0
  8  9  1  0
  9 10  1  0
 10 11  2  0
 10 12  1  0
 12 13  1  0
 13 14  1  0
 14 15  1  0
 15 16  1  0
 16 17  1  0
  9 18  2  0
  4 19  2  0
 19 20  1  0
 20 21  2  0
 21 22  1  0
 22 23  2  0
 23 24  1  0
 24 25  2  0
 25 26  1  0
 26 27  2  0
 27 28  1  0
 27 29  1  0
 29 30  2  0
 23 31  1  0
 31 32  2  0
 32  2  1  0
 18  5  1  0
 32 20  1  0
 17 12  1  0
 30 24  1  0
  3 33  1  0
  3 34  1  0
  6 35  1  0
  7 36  1  0
  8 37  1  0
 13 38  1  0
 13 39  1  0
 14 40  1  0
 14 41  1  0
 15 42  1  0
 16 43  1  0
 16 44  1  0
 17 45  1  0
 17 46  1  0
 18 47  1  0
 21 48  1  0
 22 49  1  0
 25 50  1  0
 26 51  1  0
 29 52  1  0
 30 53  1  0
 31 54  1  0
M  END
>  <smiles>  (39) 
O=C1CC(c2cccc(C(=O)N3CCNCC3)c2)=Nc2ccc(-c3ccc(F)cc3)cc21

>  <score_type>  (39) 
oracle

>  <origin>  (39) 
autodockgpu

>  <m_score__min__energy>  (39) 
-8.5

>  <m_primary>  (39) 
energy

>  <rmsd>  (39) 
8.522050992514073

>  <m_score__min__rmsd>  (39) 
8.522050992514073

>  <meeko>  (39) 
{"free_energy": -8.28, "intermolecular_energy": -9.17, "internal_energy": -0.99, "cluster_size": 45, "cluster_id": 1, "rank_in_cluster": 39}

>  <energy>  (39) 
-8.28

>  <cluster_rmsd>  (39) 
0.75

>  <cluster>  (39) 
1

$$$$

     RDKit          3D

 54 58  0  0  0  0  0  0  0  0999 V2000
  142.5690   73.3020  220.7480 O   0  0  0  0  0  0  0  0  0  0  0  0
  141.4030   73.4540  221.2410 C   0  0  0  0  0  0  0  0  0  0  0  0
  140.7470   72.3040  221.8970 C   0  0  0  0  0  0  0  0  0  0  0  0
  139.4180   72.7250  222.3830 C   0  0  0  0  0  0  0  0  0  0  0  0
  138.6020   71.7050  223.0730 C   0  0  0  0  0  0  0  0  0  0  0  0
  137.2290   71.7980  223.1510 C   0  0  0  0  0  0  0  0  0  0  0  0
  136.4270   70.8820  223.7780 C   0  0  0  0  0  0  0  0  0  0  0  0
  137.0420   69.7850  224.3750 C   0  0  0  0  0  0  0  0  0  0  0  0
  138.4140   69.6600  224.3180 C   0  0  0  0  0  0  0  0  0  0  0  0
  139.1100   68.5290  224.9280 C   0  0  0  0  0  0  0  0  0  0  0  0
  139.2070   67.4880  224.2270 O   0  0  0  0  0  0  0  0  0  0  0  0
  139.6450   68.6210  226.2520 N   0  0  0  0  0  0  0  0  0  0  0  0
  139.4850   69.8540  226.9790 C   0  0  0  0  0  0  0  0  0  0  0  0
  140.6580   70.1060  227.8850 C   0  0  0  0  0  0  0  0  0  0  0  0
  140.9940   68.8780  228.5790 N   0  0  0  0  0  0  0  0  0  0  0  0
  141.4490   67.8550  227.6690 C   0  0  0  0  0  0  0  0  0  0  0  0
  140.3200   67.4510  226.7780 C   0  0  0  0  0  0  0  0  0  0  0  0
  139.2050   70.5990  223.6780 C   0  0  0  0  0  0  0  0  0  0  0  0
  138.9160   73.8970  222.2560 N   0  0  0  0  0  0  0  0  0  0  0  0
  139.5710   74.9840  221.6210 C   0  0  0  0  0  0  0  0  0  0  0  0
  138.9570   76.1980  221.5320 C   0  0  0  0  0  0  0  0  0  0  0  0
  139.6570   77.2200  220.8960 C   0  0  0  0  0  0  0  0  0  0  0  0
  140.9080   77.0570  220.3670 C   0  0  0  0  0  0  0  0  0  0  0  0
  141.5730   78.1810  219.7150 C   0  0  0  0  0  0  0  0  0  0  0  0
  141.5230   79.4690  220.2110 C   0  0  0  0  0  0  0  0  0  0  0  0
  142.1740   80.4900  219.5470 C   0  0  0  0  0  0  0  0  0  0  0  0
  142.8940   80.2550  218.3710 C   0  0  0  0  0  0  0  0  0  0  0  0
  143.5350   81.2670  217.7210 F   0  0  0  0  0  0  0  0  0  0  0  0
  142.9150   78.9520  217.9140 C   0  0  0  0  0  0  0  0  0  0  0  0
  142.2700   77.9170  218.5630 C   0  0  0  0  0  0  0  0  0  0  0  0
  141.4950   75.8050  220.4790 C   0  0  0  0  0  0  0  0  0  0  0  0
  140.8140   74.7760  221.1090 C   0  0  0  0  0  0  0  0  0  0  0  0
  140.6327   71.4825  221.1744 H   0  0  0  0  0  0  0  0  0  0  0  0
  141.3602   71.9573  222.7419 H   0  0  0  0  0  0  0  0  0  0  0  0
  136.7454   72.6655  222.6783 H   0  0  0  0  0  0  0  0  0  0  0  0
  135.3348   71.0086  223.8088 H   0  0  0  0  0  0  0  0  0  0  0  0
  136.4375   69.0230  224.8888 H   0  0  0  0  0  0  0  0  0  0  0  0
  139.3996   70.6845  226.2628 H   0  0  0  0  0  0  0  0  0  0  0  0
  138.5774   69.7797  227.5961 H   0  0  0  0  0  0  0  0  0  0  0  0
  141.5197   70.4393  227.2879 H   0  0  0  0  0  0  0  0  0  0  0  0
  140.4005   70.8864  228.6163 H   0  0  0  0  0  0  0  0  0  0  0  0
  140.2180   68.5770  229.2030 H   0  0  0  0  0  0  0  0  0  0  0  0
  142.2765   68.2468  227.0593 H   0  0  0  0  0  0  0  0  0  0  0  0
  141.7991   66.9824  228.2399 H   0  0  0  0  0  0  0  0  0  0  0  0
  140.7141   66.8541  225.9423 H   0  0  0  0  0  0  0  0  0  0  0  0
  139.6008   66.8576  227.3617 H   0  0  0  0  0  0  0  0  0  0  0  0
  140.2976   70.4756  223.6461 H   0  0  0  0  0  0  0  0  0  0  0  0
  137.9510   76.3632  221.9452 H   0  0  0  0  0  0  0  0  0  0  0  0
  139.1801   78.2079  220.8149 H   0  0  0  0  0  0  0  0  0  0  0  0
  140.9648   79.6815  221.1347 H   0  0  0  0  0  0  0  0  0  0  0  0
  142.1252   81.5115  219.9522 H   0  0  0  0  0  0  0  0  0  0  0  0
  143.4705   78.7281  216.9914 H   0  0  0  0  0  0  0  0  0  0  0  0
  142.3147   76.8940  218.1612 H   0  0  0  0  0  0  0  0  0  0  0  0
  142.5001   75.6294  220.0680 H   0  0  0  0  0  0  0  0  0  0  0  0
  1  2  2  0
  2  3  1  0
  3  4  1  0
  4  5  1  0
  5  6  2  0
  6  7  1  0
  7  8  2  0
  8  9  1  0
  9 10  1  0
 10 11  2  0
 10 12  1  0
 12 13  1  0
 13 14  1  0
 14 15  1  0
 15 16  1  0
 16 17  1  0
  9 18  2  0
  4 19  2  0
 19 20  1  0
 20 21  2  0
 21 22  1  0
 22 23  2  0
 23 24  1  0
 24 25  2  0
 25 26  1  0
 26 27  2  0
 27 28  1  0
 27 29  1  0
 29 30  2  0
 23 31  1  0
 31 32  2  0
 32  2  1  0
 18  5  1  0
 32 20  1  0
 17 12  1  0
 30 24  1  0
  3 33  1  0
  3 34  1  0
  6 35  1  0
  7 36  1  0
  8 37  1  0
 13 38  1  0
 13 39  1  0
 14 40  1  0
 14 41  1  0
 15 42  1  0
 16 43  1  0
 16 44  1  0
 17 45  1  0
 17 46  1  0
 18 47  1  0
 21 48  1  0
 22 49  1  0
 25 50  1  0
 26 51  1  0
 29 52  1  0
 30 53  1  0
 31 54  1  0
M  END
>  <smiles>  (40) 
O=C1CC(c2cccc(C(=O)N3CCNCC3)c2)=Nc2ccc(-c3ccc(F)cc3)cc21

>  <score_type>  (40) 
oracle

>  <origin>  (40) 
autodockgpu

>  <m_score__min__energy>  (40) 
-8.5

>  <m_primary>  (40) 
energy

>  <rmsd>  (40) 
8.027647325255208

>  <m_score__min__rmsd>  (40) 
8.027647325255208

>  <meeko>  (40) 
{"free_energy": -7.72, "intermolecular_energy": -8.61, "internal_energy": -1.03, "cluster_size": 2, "cluster_id": 3, "rank_in_cluster": 1}

>  <energy>  (40) 
-8.28

>  <cluster_rmsd>  (40) 
0.78

>  <cluster>  (40) 
1

$$$$

     RDKit          3D

 54 58  0  0  0  0  0  0  0  0999 V2000
  141.5190   81.0570  224.1470 O   0  0  0  0  0  0  0  0  0  0  0  0
  140.9690   80.2390  223.3380 C   0  0  0  0  0  0  0  0  0  0  0  0
  141.8090   79.5360  222.3460 C   0  0  0  0  0  0  0  0  0  0  0  0
  140.9510   78.6530  221.5320 C   0  0  0  0  0  0  0  0  0  0  0  0
  141.6140   77.8590  220.4770 C   0  0  0  0  0  0  0  0  0  0  0  0
  142.1960   78.4490  219.3760 C   0  0  0  0  0  0  0  0  0  0  0  0
  142.8230   77.7610  218.3710 C   0  0  0  0  0  0  0  0  0  0  0  0
  142.8730   76.3730  218.4720 C   0  0  0  0  0  0  0  0  0  0  0  0
  142.3010   75.7480  219.5590 C   0  0  0  0  0  0  0  0  0  0  0  0
  142.3260   74.2950  219.7130 C   0  0  0  0  0  0  0  0  0  0  0  0
  141.2520   73.6870  219.4620 O   0  0  0  0  0  0  0  0  0  0  0  0
  143.5170   73.6190  220.1270 N   0  0  0  0  0  0  0  0  0  0  0  0
  144.6990   74.3990  220.3910 C   0  0  0  0  0  0  0  0  0  0  0  0
  145.9450   73.6360  220.0330 C   0  0  0  0  0  0  0  0  0  0  0  0
  145.8290   72.2780  220.5290 N   0  0  0  0  0  0  0  0  0  0  0  0
  144.7600   71.5600  219.8790 C   0  0  0  0  0  0  0  0  0  0  0  0
  143.4520   72.1770  220.2530 C   0  0  0  0  0  0  0  0  0  0  0  0
  141.6730   76.4650  220.5640 C   0  0  0  0  0  0  0  0  0  0  0  0
  139.6840   78.5180  221.6650 N   0  0  0  0  0  0  0  0  0  0  0  0
  138.9020   79.2060  222.6290 C   0  0  0  0  0  0  0  0  0  0  0  0
  137.5560   78.9980  222.6950 C   0  0  0  0  0  0  0  0  0  0  0  0
  136.8510   79.7070  223.6640 C   0  0  0  0  0  0  0  0  0  0  0  0
  137.4410   80.5840  224.5310 C   0  0  0  0  0  0  0  0  0  0  0  0
  136.6280   81.2880  225.5180 C   0  0  0  0  0  0  0  0  0  0  0  0
  135.3190   80.9410  225.7930 C   0  0  0  0  0  0  0  0  0  0  0  0
  134.6030   81.6470  226.7390 C   0  0  0  0  0  0  0  0  0  0  0  0
  135.1700   82.7170  227.4390 C   0  0  0  0  0  0  0  0  0  0  0  0
  134.4580   83.4080  228.3720 F   0  0  0  0  0  0  0  0  0  0  0  0
  136.4810   83.0250  227.1300 C   0  0  0  0  0  0  0  0  0  0  0  0
  137.2150   82.3330  226.1870 C   0  0  0  0  0  0  0  0  0  0  0  0
  138.8130   80.7660  224.4280 C   0  0  0  0  0  0  0  0  0  0  0  0
  139.5320   80.0690  223.4700 C   0  0  0  0  0  0  0  0  0  0  0  0
  142.3049   80.2711  221.6951 H   0  0  0  0  0  0  0  0  0  0  0  0
  142.5743   78.9384  222.8628 H   0  0  0  0  0  0  0  0  0  0  0  0
  142.1543   79.5455  219.2991 H   0  0  0  0  0  0  0  0  0  0  0  0
  143.2711   78.2863  217.5146 H   0  0  0  0  0  0  0  0  0  0  0  0
  143.3662   75.7788  217.6886 H   0  0  0  0  0  0  0  0  0  0  0  0
  144.6600   75.3226  219.7948 H   0  0  0  0  0  0  0  0  0  0  0  0
  144.7298   74.6322  221.4656 H   0  0  0  0  0  0  0  0  0  0  0  0
  146.0656   73.6198  218.9398 H   0  0  0  0  0  0  0  0  0  0  0  0
  146.8208   74.1227  220.4869 H   0  0  0  0  0  0  0  0  0  0  0  0
  145.7810   72.2630  221.5680 H   0  0  0  0  0  0  0  0  0  0  0  0
  144.8924   71.6122  218.7882 H   0  0  0  0  0  0  0  0  0  0  0  0
  144.7756   70.5075  220.1982 H   0  0  0  0  0  0  0  0  0  0  0  0
  142.6659   71.7905  219.5876 H   0  0  0  0  0  0  0  0  0  0  0  0
  143.2236   71.9210  221.2981 H   0  0  0  0  0  0  0  0  0  0  0  0
  141.2251   75.9426  221.4222 H   0  0  0  0  0  0  0  0  0  0  0  0
  137.0491   78.3002  222.0122 H   0  0  0  0  0  0  0  0  0  0  0  0
  135.7641   79.5537  223.7355 H   0  0  0  0  0  0  0  0  0  0  0  0
  134.8478   80.1029  225.2586 H   0  0  0  0  0  0  0  0  0  0  0  0
  133.5614   81.3611  226.9473 H   0  0  0  0  0  0  0  0  0  0  0  0
  136.9624   83.8602  227.6598 H   0  0  0  0  0  0  0  0  0  0  0  0
  138.2567   82.6156  225.9747 H   0  0  0  0  0  0  0  0  0  0  0  0
  139.3288   81.4623  225.1056 H   0  0  0  0  0  0  0  0  0  0  0  0
  1  2  2  0
  2  3  1  0
  3  4  1  0
  4  5  1  0
  5  6  2  0
  6  7  1  0
  7  8  2  0
  8  9  1  0
  9 10  1  0
 10 11  2  0
 10 12  1  0
 12 13  1  0
 13 14  1  0
 14 15  1  0
 15 16  1  0
 16 17  1  0
  9 18  2  0
  4 19  2  0
 19 20  1  0
 20 21  2  0
 21 22  1  0
 22 23  2  0
 23 24  1  0
 24 25  2  0
 25 26  1  0
 26 27  2  0
 27 28  1  0
 27 29  1  0
 29 30  2  0
 23 31  1  0
 31 32  2  0
 32  2  1  0
 18  5  1  0
 32 20  1  0
 17 12  1  0
 30 24  1  0
  3 33  1  0
  3 34  1  0
  6 35  1  0
  7 36  1  0
  8 37  1  0
 13 38  1  0
 13 39  1  0
 14 40  1  0
 14 41  1  0
 15 42  1  0
 16 43  1  0
 16 44  1  0
 17 45  1  0
 17 46  1  0
 18 47  1  0
 21 48  1  0
 22 49  1  0
 25 50  1  0
 26 51  1  0
 29 52  1  0
 30 53  1  0
 31 54  1  0
M  END
>  <smiles>  (41) 
O=C1CC(c2cccc(C(=O)N3CCNCC3)c2)=Nc2ccc(-c3ccc(F)cc3)cc21

>  <score_type>  (41) 
oracle

>  <origin>  (41) 
autodockgpu

>  <m_score__min__energy>  (41) 
-8.5

>  <m_primary>  (41) 
energy

>  <rmsd>  (41) 
8.444426095720718

>  <m_score__min__rmsd>  (41) 
8.444426095720718

>  <meeko>  (41) 
{"free_energy": -8.34, "intermolecular_energy": -9.23, "internal_energy": -0.99, "cluster_size": 45, "cluster_id": 1, "rank_in_cluster": 30}

>  <energy>  (41) 
-8.27

>  <cluster_rmsd>  (41) 
0.8

>  <cluster>  (41) 
1

$$$$

     RDKit          3D

 54 58  0  0  0  0  0  0  0  0999 V2000
  141.5940   80.8740  224.0990 O   0  0  0  0  0  0  0  0  0  0  0  0
  141.0320   80.0660  223.2880 C   0  0  0  0  0  0  0  0  0  0  0  0
  141.8660   79.3320  222.3140 C   0  0  0  0  0  0  0  0  0  0  0  0
  140.9940   78.4680  221.4940 C   0  0  0  0  0  0  0  0  0  0  0  0
  141.6500   77.6470  220.4540 C   0  0  0  0  0  0  0  0  0  0  0  0
  142.2120   78.2080  219.3280 C   0  0  0  0  0  0  0  0  0  0  0  0
  142.8300   77.4940  218.3360 C   0  0  0  0  0  0  0  0  0  0  0  0
  142.8930   76.1110  218.4780 C   0  0  0  0  0  0  0  0  0  0  0  0
  142.3410   75.5150  219.5910 C   0  0  0  0  0  0  0  0  0  0  0  0
  142.3800   74.0670  219.7900 C   0  0  0  0  0  0  0  0  0  0  0  0
  141.2750   73.4660  219.7410 O   0  0  0  0  0  0  0  0  0  0  0  0
  143.6180   73.3890  220.0230 N   0  0  0  0  0  0  0  0  0  0  0  0
  144.8340   74.1620  220.0610 C   0  0  0  0  0  0  0  0  0  0  0  0
  145.9960   73.3710  219.5280 C   0  0  0  0  0  0  0  0  0  0  0  0
  145.9540   72.0320  220.0830 N   0  0  0  0  0  0  0  0  0  0  0  0
  144.7860   71.3070  219.6450 C   0  0  0  0  0  0  0  0  0  0  0  0
  143.5640   71.9530  220.2080 C   0  0  0  0  0  0  0  0  0  0  0  0
  141.7210   76.2570  220.5830 C   0  0  0  0  0  0  0  0  0  0  0  0
  139.7220   78.3700  221.6090 N   0  0  0  0  0  0  0  0  0  0  0  0
  138.9470   79.0880  222.5560 C   0  0  0  0  0  0  0  0  0  0  0  0
  137.5940   78.9200  222.6040 C   0  0  0  0  0  0  0  0  0  0  0  0
  136.8960   79.6560  223.5580 C   0  0  0  0  0  0  0  0  0  0  0  0
  137.4990   80.5220  224.4270 C   0  0  0  0  0  0  0  0  0  0  0  0
  136.6920   81.2570  225.3970 C   0  0  0  0  0  0  0  0  0  0  0  0
  135.3590   80.9780  225.6240 C   0  0  0  0  0  0  0  0  0  0  0  0
  134.6500   81.7100  226.5560 C   0  0  0  0  0  0  0  0  0  0  0  0
  135.2500   82.7380  227.2900 C   0  0  0  0  0  0  0  0  0  0  0  0
  134.5450   83.4560  228.2090 F   0  0  0  0  0  0  0  0  0  0  0  0
  136.5850   82.9790  227.0290 C   0  0  0  0  0  0  0  0  0  0  0  0
  137.3120   82.2600  226.1000 C   0  0  0  0  0  0  0  0  0  0  0  0
  138.8770   80.6630  224.3430 C   0  0  0  0  0  0  0  0  0  0  0  0
  139.5890   79.9390  223.4010 C   0  0  0  0  0  0  0  0  0  0  0  0
  142.3924   80.0475  221.6652 H   0  0  0  0  0  0  0  0  0  0  0  0
  142.6066   78.7168  222.8460 H   0  0  0  0  0  0  0  0  0  0  0  0
  142.1610   79.3014  219.2186 H   0  0  0  0  0  0  0  0  0  0  0  0
  143.2615   77.9962  217.4576 H   0  0  0  0  0  0  0  0  0  0  0  0
  143.3806   75.4973  217.7063 H   0  0  0  0  0  0  0  0  0  0  0  0
  144.7040   75.0663  219.4484 H   0  0  0  0  0  0  0  0  0  0  0  0
  145.0446   74.4300  221.1068 H   0  0  0  0  0  0  0  0  0  0  0  0
  145.9325   73.3171  218.4312 H   0  0  0  0  0  0  0  0  0  0  0  0
  146.9389   73.8605  219.8130 H   0  0  0  0  0  0  0  0  0  0  0  0
  146.0790   72.0520  221.1150 H   0  0  0  0  0  0  0  0  0  0  0  0
  144.7357   71.3207  218.5462 H   0  0  0  0  0  0  0  0  0  0  0  0
  144.8463   70.2657  219.9945 H   0  0  0  0  0  0  0  0  0  0  0  0
  142.6756   71.5552  219.6957 H   0  0  0  0  0  0  0  0  0  0  0  0
  143.5103   71.7349  221.2848 H   0  0  0  0  0  0  0  0  0  0  0  0
  141.2891   75.7576  221.4628 H   0  0  0  0  0  0  0  0  0  0  0  0
  137.0766   78.2326  221.9185 H   0  0  0  0  0  0  0  0  0  0  0  0
  135.8042   79.5344  223.6152 H   0  0  0  0  0  0  0  0  0  0  0  0
  134.8620   80.1730  225.0627 H   0  0  0  0  0  0  0  0  0  0  0  0
  133.5879   81.4789  226.7250 H   0  0  0  0  0  0  0  0  0  0  0  0
  137.0924   83.7801  227.5865 H   0  0  0  0  0  0  0  0  0  0  0  0
  138.3739   82.4882  225.9259 H   0  0  0  0  0  0  0  0  0  0  0  0
  139.4030   81.3487  225.0235 H   0  0  0  0  0  0  0  0  0  0  0  0
  1  2  2  0
  2  3  1  0
  3  4  1  0
  4  5  1  0
  5  6  2  0
  6  7  1  0
  7  8  2  0
  8  9  1  0
  9 10  1  0
 10 11  2  0
 10 12  1  0
 12 13  1  0
 13 14  1  0
 14 15  1  0
 15 16  1  0
 16 17  1  0
  9 18  2  0
  4 19  2  0
 19 20  1  0
 20 21  2  0
 21 22  1  0
 22 23  2  0
 23 24  1  0
 24 25  2  0
 25 26  1  0
 26 27  2  0
 27 28  1  0
 27 29  1  0
 29 30  2  0
 23 31  1  0
 31 32  2  0
 32  2  1  0
 18  5  1  0
 32 20  1  0
 17 12  1  0
 30 24  1  0
  3 33  1  0
  3 34  1  0
  6 35  1  0
  7 36  1  0
  8 37  1  0
 13 38  1  0
 13 39  1  0
 14 40  1  0
 14 41  1  0
 15 42  1  0
 16 43  1  0
 16 44  1  0
 17 45  1  0
 17 46  1  0
 18 47  1  0
 21 48  1  0
 22 49  1  0
 25 50  1  0
 26 51  1  0
 29 52  1  0
 30 53  1  0
 31 54  1  0
M  END
>  <smiles>  (42) 
O=C1CC(c2cccc(C(=O)N3CCNCC3)c2)=Nc2ccc(-c3ccc(F)cc3)cc21

>  <score_type>  (42) 
oracle

>  <origin>  (42) 
autodockgpu

>  <m_score__min__energy>  (42) 
-8.5

>  <m_primary>  (42) 
energy

>  <rmsd>  (42) 
8.407934680979636

>  <m_score__min__rmsd>  (42) 
8.407934680979636

>  <meeko>  (42) 
{"free_energy": -8.37, "intermolecular_energy": -9.27, "internal_energy": -0.95, "cluster_size": 45, "cluster_id": 1, "rank_in_cluster": 27}

>  <energy>  (42) 
-8.26

>  <cluster_rmsd>  (42) 
0.8

>  <cluster>  (42) 
1

$$$$

     RDKit          3D

 54 58  0  0  0  0  0  0  0  0999 V2000
  142.0600   80.8720  223.9600 O   0  0  0  0  0  0  0  0  0  0  0  0
  141.4130   80.1440  223.1370 C   0  0  0  0  0  0  0  0  0  0  0  0
  142.1620   79.3490  222.1410 C   0  0  0  0  0  0  0  0  0  0  0  0
  141.2010   78.5970  221.3090 C   0  0  0  0  0  0  0  0  0  0  0  0
  141.7630   77.7360  220.2480 C   0  0  0  0  0  0  0  0  0  0  0  0
  142.2640   78.2570  219.0740 C   0  0  0  0  0  0  0  0  0  0  0  0
  142.7950   77.5040  218.0600 C   0  0  0  0  0  0  0  0  0  0  0  0
  142.8300   76.1230  218.2290 C   0  0  0  0  0  0  0  0  0  0  0  0
  142.3370   75.5670  219.3910 C   0  0  0  0  0  0  0  0  0  0  0  0
  142.3500   74.1230  219.6190 C   0  0  0  0  0  0  0  0  0  0  0  0
  141.2460   73.5290  219.5010 O   0  0  0  0  0  0  0  0  0  0  0  0
  143.5610   73.4420  219.9560 N   0  0  0  0  0  0  0  0  0  0  0  0
  144.7770   74.2070  220.0680 C   0  0  0  0  0  0  0  0  0  0  0  0
  145.9690   73.3970  219.6360 C   0  0  0  0  0  0  0  0  0  0  0  0
  145.8760   72.0700  220.2120 N   0  0  0  0  0  0  0  0  0  0  0  0
  144.7370   71.3440  219.7040 C   0  0  0  0  0  0  0  0  0  0  0  0
  143.4820   72.0100  220.1640 C   0  0  0  0  0  0  0  0  0  0  0  0
  141.8050   76.3480  220.4030 C   0  0  0  0  0  0  0  0  0  0  0  0
  139.9270   78.6290  221.4320 N   0  0  0  0  0  0  0  0  0  0  0  0
  139.2340   79.4020  222.4000 C   0  0  0  0  0  0  0  0  0  0  0  0
  137.8720   79.3720  222.4540 C   0  0  0  0  0  0  0  0  0  0  0  0
  137.2580   80.1560  223.4280 C   0  0  0  0  0  0  0  0  0  0  0  0
  137.9520   80.9360  224.3110 C   0  0  0  0  0  0  0  0  0  0  0  0
  137.2300   81.7290  225.3020 C   0  0  0  0  0  0  0  0  0  0  0  0
  136.9520   81.2640  226.5730 C   0  0  0  0  0  0  0  0  0  0  0  0
  136.2650   82.0630  227.4650 C   0  0  0  0  0  0  0  0  0  0  0  0
  135.8380   83.3480  227.1170 C   0  0  0  0  0  0  0  0  0  0  0  0
  135.1610   84.1330  228.0020 F   0  0  0  0  0  0  0  0  0  0  0  0
  136.1390   83.7690  225.8360 C   0  0  0  0  0  0  0  0  0  0  0  0
  136.8240   82.9860  224.9280 C   0  0  0  0  0  0  0  0  0  0  0  0
  139.3360   80.9370  224.2190 C   0  0  0  0  0  0  0  0  0  0  0  0
  139.9650   80.1630  223.2570 C   0  0  0  0  0  0  0  0  0  0  0  0
  142.7560   80.0205  221.5036 H   0  0  0  0  0  0  0  0  0  0  0  0
  142.8379   78.6494  222.6545 H   0  0  0  0  0  0  0  0  0  0  0  0
  142.2356   79.3488  218.9428 H   0  0  0  0  0  0  0  0  0  0  0  0
  143.1805   77.9749  217.1436 H   0  0  0  0  0  0  0  0  0  0  0  0
  143.2481   75.4792  217.4411 H   0  0  0  0  0  0  0  0  0  0  0  0
  144.6995   75.1000  219.4304 H   0  0  0  0  0  0  0  0  0  0  0  0
  144.9131   74.4940  221.1211 H   0  0  0  0  0  0  0  0  0  0  0  0
  145.9849   73.3218  218.5387 H   0  0  0  0  0  0  0  0  0  0  0  0
  146.8927   73.8857  219.9795 H   0  0  0  0  0  0  0  0  0  0  0  0
  145.9250   72.1090  221.2500 H   0  0  0  0  0  0  0  0  0  0  0  0
  144.7670   71.3360  218.6044 H   0  0  0  0  0  0  0  0  0  0  0  0
  144.7632   70.3095  220.0770 H   0  0  0  0  0  0  0  0  0  0  0  0
  142.6300   71.6083  219.5959 H   0  0  0  0  0  0  0  0  0  0  0  0
  143.3485   71.8136  221.2381 H   0  0  0  0  0  0  0  0  0  0  0  0
  141.4189   75.8800  221.3206 H   0  0  0  0  0  0  0  0  0  0  0  0
  137.2835   78.7554  221.7586 H   0  0  0  0  0  0  0  0  0  0  0  0
  136.1598   80.1472  223.4899 H   0  0  0  0  0  0  0  0  0  0  0  0
  137.2779   80.2575  226.8741 H   0  0  0  0  0  0  0  0  0  0  0  0
  136.0485   81.6796  228.4731 H   0  0  0  0  0  0  0  0  0  0  0  0
  135.8182   84.7742  225.5251 H   0  0  0  0  0  0  0  0  0  0  0  0
  137.0415   83.3644  223.9183 H   0  0  0  0  0  0  0  0  0  0  0  0
  139.9334   81.5513  224.9087 H   0  0  0  0  0  0  0  0  0  0  0  0
  1  2  2  0
  2  3  1  0
  3  4  1  0
  4  5  1  0
  5  6  2  0
  6  7  1  0
  7  8  2  0
  8  9  1  0
  9 10  1  0
 10 11  2  0
 10 12  1  0
 12 13  1  0
 13 14  1  0
 14 15  1  0
 15 16  1  0
 16 17  1  0
  9 18  2  0
  4 19  2  0
 19 20  1  0
 20 21  2  0
 21 22  1  0
 22 23  2  0
 23 24  1  0
 24 25  2  0
 25 26  1  0
 26 27  2  0
 27 28  1  0
 27 29  1  0
 29 30  2  0
 23 31  1  0
 31 32  2  0
 32  2  1  0
 18  5  1  0
 32 20  1  0
 17 12  1  0
 30 24  1  0
  3 33  1  0
  3 34  1  0
  6 35  1  0
  7 36  1  0
  8 37  1  0
 13 38  1  0
 13 39  1  0
 14 40  1  0
 14 41  1  0
 15 42  1  0
 16 43  1  0
 16 44  1  0
 17 45  1  0
 17 46  1  0
 18 47  1  0
 21 48  1  0
 22 49  1  0
 25 50  1  0
 26 51  1  0
 29 52  1  0
 30 53  1  0
 31 54  1  0
M  END
>  <smiles>  (43) 
O=C1CC(c2cccc(C(=O)N3CCNCC3)c2)=Nc2ccc(-c3ccc(F)cc3)cc21

>  <score_type>  (43) 
oracle

>  <origin>  (43) 
autodockgpu

>  <m_score__min__energy>  (43) 
-8.5

>  <m_primary>  (43) 
energy

>  <rmsd>  (43) 
8.495521853657491

>  <m_score__min__rmsd>  (43) 
8.495521853657491

>  <meeko>  (43) 
{"free_energy": -8.39, "intermolecular_energy": -9.28, "internal_energy": -0.98, "cluster_size": 45, "cluster_id": 1, "rank_in_cluster": 25}

>  <energy>  (43) 
-8.23

>  <cluster_rmsd>  (43) 
0.84

>  <cluster>  (43) 
1

$$$$

     RDKit          3D

 54 58  0  0  0  0  0  0  0  0999 V2000
  141.9880   80.8990  223.9610 O   0  0  0  0  0  0  0  0  0  0  0  0
  141.3570   80.1160  223.1760 C   0  0  0  0  0  0  0  0  0  0  0  0
  142.1250   79.2780  222.2320 C   0  0  0  0  0  0  0  0  0  0  0  0
  141.1820   78.4660  221.4380 C   0  0  0  0  0  0  0  0  0  0  0  0
  141.7630   77.5550  220.4310 C   0  0  0  0  0  0  0  0  0  0  0  0
  142.2560   78.0140  219.2280 C   0  0  0  0  0  0  0  0  0  0  0  0
  142.8050   77.2140  218.2620 C   0  0  0  0  0  0  0  0  0  0  0  0
  142.8680   75.8460  218.5140 C   0  0  0  0  0  0  0  0  0  0  0  0
  142.3830   75.3510  219.7050 C   0  0  0  0  0  0  0  0  0  0  0  0
  142.4250   73.9240  220.0200 C   0  0  0  0  0  0  0  0  0  0  0  0
  141.3150   73.3620  220.2160 O   0  0  0  0  0  0  0  0  0  0  0  0
  143.6690   73.2220  220.0940 N   0  0  0  0  0  0  0  0  0  0  0  0
  144.8890   73.9490  219.8530 C   0  0  0  0  0  0  0  0  0  0  0  0
  145.9220   73.0740  219.1970 C   0  0  0  0  0  0  0  0  0  0  0  0
  145.9480   71.7880  219.8670 N   0  0  0  0  0  0  0  0  0  0  0  0
  144.7060   71.0730  219.7020 C   0  0  0  0  0  0  0  0  0  0  0  0
  143.6160   71.8090  220.4100 C   0  0  0  0  0  0  0  0  0  0  0  0
  141.8330   76.1790  220.6690 C   0  0  0  0  0  0  0  0  0  0  0  0
  139.9060   78.4860  221.5500 N   0  0  0  0  0  0  0  0  0  0  0  0
  139.1950   79.3020  222.4680 C   0  0  0  0  0  0  0  0  0  0  0  0
  137.8330   79.2560  222.5150 C   0  0  0  0  0  0  0  0  0  0  0  0
  137.2010   80.0840  223.4390 C   0  0  0  0  0  0  0  0  0  0  0  0
  137.8770   80.9230  224.2810 C   0  0  0  0  0  0  0  0  0  0  0  0
  137.1360   81.7590  225.2220 C   0  0  0  0  0  0  0  0  0  0  0  0
  136.6630   83.0140  224.8930 C   0  0  0  0  0  0  0  0  0  0  0  0
  135.9690   83.7570  225.8270 C   0  0  0  0  0  0  0  0  0  0  0  0
  135.7250   83.2680  227.1150 C   0  0  0  0  0  0  0  0  0  0  0  0
  135.0380   84.0050  228.0330 F   0  0  0  0  0  0  0  0  0  0  0  0
  136.2170   82.0090  227.3970 C   0  0  0  0  0  0  0  0  0  0  0  0
  136.9140   81.2500  226.4770 C   0  0  0  0  0  0  0  0  0  0  0  0
  139.2610   80.9390  224.1990 C   0  0  0  0  0  0  0  0  0  0  0  0
  139.9090   80.1210  223.2860 C   0  0  0  0  0  0  0  0  0  0  0  0
  142.7136   79.9215  221.5615 H   0  0  0  0  0  0  0  0  0  0  0  0
  142.8075   78.6190  222.7886 H   0  0  0  0  0  0  0  0  0  0  0  0
  142.2048   79.0950  219.0312 H   0  0  0  0  0  0  0  0  0  0  0  0
  143.1831   77.6372  217.3197 H   0  0  0  0  0  0  0  0  0  0  0  0
  143.3021   75.1649  217.7672 H   0  0  0  0  0  0  0  0  0  0  0  0
  144.6734   74.8043  219.1958 H   0  0  0  0  0  0  0  0  0  0  0  0
  145.2864   74.2934  220.8192 H   0  0  0  0  0  0  0  0  0  0  0  0
  145.6652   72.9321  218.1369 H   0  0  0  0  0  0  0  0  0  0  0  0
  146.9111   73.5499  219.2691 H   0  0  0  0  0  0  0  0  0  0  0  0
  146.2530   71.8880  220.8560 H   0  0  0  0  0  0  0  0  0  0  0  0
  144.4641   70.9985  218.6315 H   0  0  0  0  0  0  0  0  0  0  0  0
  144.8034   70.0621  220.1245 H   0  0  0  0  0  0  0  0  0  0  0  0
  142.6426   71.4041  220.0959 H   0  0  0  0  0  0  0  0  0  0  0  0
  143.7475   71.6820  221.4947 H   0  0  0  0  0  0  0  0  0  0  0  0
  141.4550   75.7585  221.6125 H   0  0  0  0  0  0  0  0  0  0  0  0
  137.2582   78.5932  221.8514 H   0  0  0  0  0  0  0  0  0  0  0  0
  136.1026   80.0621  223.4944 H   0  0  0  0  0  0  0  0  0  0  0  0
  136.8392   83.4217  223.8867 H   0  0  0  0  0  0  0  0  0  0  0  0
  135.5995   84.7560  225.5523 H   0  0  0  0  0  0  0  0  0  0  0  0
  136.0461   81.5913  228.4002 H   0  0  0  0  0  0  0  0  0  0  0  0
  137.2862   80.2507  226.7468 H   0  0  0  0  0  0  0  0  0  0  0  0
  139.8441   81.5997  224.8573 H   0  0  0  0  0  0  0  0  0  0  0  0
  1  2  2  0
  2  3  1  0
  3  4  1  0
  4  5  1  0
  5  6  2  0
  6  7  1  0
  7  8  2  0
  8  9  1  0
  9 10  1  0
 10 11  2  0
 10 12  1  0
 12 13  1  0
 13 14  1  0
 14 15  1  0
 15 16  1  0
 16 17  1  0
  9 18  2  0
  4 19  2  0
 19 20  1  0
 20 21  2  0
 21 22  1  0
 22 23  2  0
 23 24  1  0
 24 25  2  0
 25 26  1  0
 26 27  2  0
 27 28  1  0
 27 29  1  0
 29 30  2  0
 23 31  1  0
 31 32  2  0
 32  2  1  0
 18  5  1  0
 32 20  1  0
 17 12  1  0
 30 24  1  0
  3 33  1  0
  3 34  1  0
  6 35  1  0
  7 36  1  0
  8 37  1  0
 13 38  1  0
 13 39  1  0
 14 40  1  0
 14 41  1  0
 15 42  1  0
 16 43  1  0
 16 44  1  0
 17 45  1  0
 17 46  1  0
 18 47  1  0
 21 48  1  0
 22 49  1  0
 25 50  1  0
 26 51  1  0
 29 52  1  0
 30 53  1  0
 31 54  1  0
M  END
>  <smiles>  (44) 
O=C1CC(c2cccc(C(=O)N3CCNCC3)c2)=Nc2ccc(-c3ccc(F)cc3)cc21

>  <score_type>  (44) 
oracle

>  <origin>  (44) 
autodockgpu

>  <m_score__min__energy>  (44) 
-8.5

>  <m_primary>  (44) 
energy

>  <rmsd>  (44) 
8.483757989916871

>  <m_score__min__rmsd>  (44) 
8.483757989916871

>  <meeko>  (44) 
{"free_energy": -8.49, "intermolecular_energy": -9.39, "internal_energy": -0.91, "cluster_size": 45, "cluster_id": 1, "rank_in_cluster": 4}

>  <energy>  (44) 
-8.09

>  <cluster_rmsd>  (44) 
0.9

>  <cluster>  (44) 
1

$$$$

     RDKit          3D

 54 58  0  0  0  0  0  0  0  0999 V2000
  141.7170   80.9200  223.9370 O   0  0  0  0  0  0  0  0  0  0  0  0
  141.1490   80.1350  223.1080 C   0  0  0  0  0  0  0  0  0  0  0  0
  141.9710   79.4520  222.0880 C   0  0  0  0  0  0  0  0  0  0  0  0
  141.0940   78.6060  221.2540 C   0  0  0  0  0  0  0  0  0  0  0  0
  141.7380   77.8370  220.1690 C   0  0  0  0  0  0  0  0  0  0  0  0
  142.3010   78.4520  219.0720 C   0  0  0  0  0  0  0  0  0  0  0  0
  142.9100   77.7860  218.0410 C   0  0  0  0  0  0  0  0  0  0  0  0
  142.9600   76.3970  218.1080 C   0  0  0  0  0  0  0  0  0  0  0  0
  142.4050   75.7470  219.1910 C   0  0  0  0  0  0  0  0  0  0  0  0
  142.4310   74.2900  219.3110 C   0  0  0  0  0  0  0  0  0  0  0  0
  141.4060   73.6780  218.9090 O   0  0  0  0  0  0  0  0  0  0  0  0
  143.5680   73.6160  219.8570 N   0  0  0  0  0  0  0  0  0  0  0  0
  144.6960   74.4020  220.2900 C   0  0  0  0  0  0  0  0  0  0  0  0
  145.9870   73.6620  220.0750 C   0  0  0  0  0  0  0  0  0  0  0  0
  145.8280   72.2900  220.5180 N   0  0  0  0  0  0  0  0  0  0  0  0
  144.8610   71.5780  219.7190 C   0  0  0  0  0  0  0  0  0  0  0  0
  143.5080   72.1710  219.9380 C   0  0  0  0  0  0  0  0  0  0  0  0
  141.7960   76.4410  220.2220 C   0  0  0  0  0  0  0  0  0  0  0  0
  139.8260   78.4850  221.3930 N   0  0  0  0  0  0  0  0  0  0  0  0
  139.0620   79.1540  222.3840 C   0  0  0  0  0  0  0  0  0  0  0  0
  137.7140   78.9630  222.4550 C   0  0  0  0  0  0  0  0  0  0  0  0
  137.0260   79.6510  223.4510 C   0  0  0  0  0  0  0  0  0  0  0  0
  137.6360   80.4920  224.3400 C   0  0  0  0  0  0  0  0  0  0  0  0
  136.8400   81.1770  225.3550 C   0  0  0  0  0  0  0  0  0  0  0  0
  137.3780   82.1020  226.2280 C   0  0  0  0  0  0  0  0  0  0  0  0
  136.5710   82.7160  227.1660 C   0  0  0  0  0  0  0  0  0  0  0  0
  135.2060   82.4250  227.2590 C   0  0  0  0  0  0  0  0  0  0  0  0
  134.4160   83.0350  228.1870 F   0  0  0  0  0  0  0  0  0  0  0  0
  134.7150   81.4940  226.3650 C   0  0  0  0  0  0  0  0  0  0  0  0
  135.5040   80.8690  225.4200 C   0  0  0  0  0  0  0  0  0  0  0  0
  139.0090   80.6580  224.2310 C   0  0  0  0  0  0  0  0  0  0  0  0
  139.7110   79.9810  223.2460 C   0  0  0  0  0  0  0  0  0  0  0  0
  142.4718   80.2002  221.4560 H   0  0  0  0  0  0  0  0  0  0  0  0
  142.7321   78.8283  222.5796 H   0  0  0  0  0  0  0  0  0  0  0  0
  142.2587   79.5500  219.0206 H   0  0  0  0  0  0  0  0  0  0  0  0
  143.3444   78.3306  217.1897 H   0  0  0  0  0  0  0  0  0  0  0  0
  143.4390   75.8209  217.3026 H   0  0  0  0  0  0  0  0  0  0  0  0
  144.7205   75.3408  219.7172 H   0  0  0  0  0  0  0  0  0  0  0  0
  144.5863   74.6072  221.3651 H   0  0  0  0  0  0  0  0  0  0  0  0
  146.2459   73.6761  219.0060 H   0  0  0  0  0  0  0  0  0  0  0  0
  146.7910   74.1456  220.6492 H   0  0  0  0  0  0  0  0  0  0  0  0
  145.6480   72.2470  221.5420 H   0  0  0  0  0  0  0  0  0  0  0  0
  145.1307   71.6604  218.6557 H   0  0  0  0  0  0  0  0  0  0  0  0
  144.8505   70.5176  220.0111 H   0  0  0  0  0  0  0  0  0  0  0  0
  142.8185   71.7937  219.1684 H   0  0  0  0  0  0  0  0  0  0  0  0
  143.1523   71.8854  220.9389 H   0  0  0  0  0  0  0  0  0  0  0  0
  141.3616   75.8994  221.0752 H   0  0  0  0  0  0  0  0  0  0  0  0
  137.1921   78.2938  221.7552 H   0  0  0  0  0  0  0  0  0  0  0  0
  135.9376   79.5110  223.5265 H   0  0  0  0  0  0  0  0  0  0  0  0
  138.4485   82.3497  226.1764 H   0  0  0  0  0  0  0  0  0  0  0  0
  137.0120   83.4507  227.8557 H   0  0  0  0  0  0  0  0  0  0  0  0
  133.6459   81.2386  226.4078 H   0  0  0  0  0  0  0  0  0  0  0  0
  135.0675   80.1337  224.7281 H   0  0  0  0  0  0  0  0  0  0  0  0
  139.5399   81.3259  224.9253 H   0  0  0  0  0  0  0  0  0  0  0  0
  1  2  2  0
  2  3  1  0
  3  4  1  0
  4  5  1  0
  5  6  2  0
  6  7  1  0
  7  8  2  0
  8  9  1  0
  9 10  1  0
 10 11  2  0
 10 12  1  0
 12 13  1  0
 13 14  1  0
 14 15  1  0
 15 16  1  0
 16 17  1  0
  9 18  2  0
  4 19  2  0
 19 20  1  0
 20 21  2  0
 21 22  1  0
 22 23  2  0
 23 24  1  0
 24 25  2  0
 25 26  1  0
 26 27  2  0
 27 28  1  0
 27 29  1  0
 29 30  2  0
 23 31  1  0
 31 32  2  0
 32  2  1  0
 18  5  1  0
 32 20  1  0
 17 12  1  0
 30 24  1  0
  3 33  1  0
  3 34  1  0
  6 35  1  0
  7 36  1  0
  8 37  1  0
 13 38  1  0
 13 39  1  0
 14 40  1  0
 14 41  1  0
 15 42  1  0
 16 43  1  0
 16 44  1  0
 17 45  1  0
 17 46  1  0
 18 47  1  0
 21 48  1  0
 22 49  1  0
 25 50  1  0
 26 51  1  0
 29 52  1  0
 30 53  1  0
 31 54  1  0
M  END
>  <smiles>  (45) 
O=C1CC(c2cccc(C(=O)N3CCNCC3)c2)=Nc2ccc(-c3ccc(F)cc3)cc21

>  <score_type>  (45) 
oracle

>  <origin>  (45) 
autodockgpu

>  <m_score__min__energy>  (45) 
-8.5

>  <m_primary>  (45) 
energy

>  <rmsd>  (45) 
8.475922705950872

>  <m_score__min__rmsd>  (45) 
8.475922705950872

>  <meeko>  (45) 
{"free_energy": -8.27, "intermolecular_energy": -9.16, "internal_energy": -1.0, "cluster_size": 45, "cluster_id": 1, "rank_in_cluster": 41}

>  <energy>  (45) 
-8.09

>  <cluster_rmsd>  (45) 
0.48

>  <cluster>  (45) 
1

$$$$

     RDKit          3D

 54 58  0  0  0  0  0  0  0  0999 V2000
  141.6320   81.2890  224.2110 O   0  0  0  0  0  0  0  0  0  0  0  0
  141.0190   80.4670  223.4520 C   0  0  0  0  0  0  0  0  0  0  0  0
  141.7960   79.6800  222.4730 C   0  0  0  0  0  0  0  0  0  0  0  0
  140.8730   78.8090  221.7190 C   0  0  0  0  0  0  0  0  0  0  0  0
  141.4670   77.9370  220.6840 C   0  0  0  0  0  0  0  0  0  0  0  0
  141.9980   78.4450  219.5180 C   0  0  0  0  0  0  0  0  0  0  0  0
  142.5600   77.6830  218.5290 C   0  0  0  0  0  0  0  0  0  0  0  0
  142.5940   76.3040  218.7160 C   0  0  0  0  0  0  0  0  0  0  0  0
  142.0710   75.7600  219.8690 C   0  0  0  0  0  0  0  0  0  0  0  0
  142.0820   74.3190  220.1150 C   0  0  0  0  0  0  0  0  0  0  0  0
  140.9640   73.7390  220.0900 O   0  0  0  0  0  0  0  0  0  0  0  0
  143.3060   73.6240  220.3680 N   0  0  0  0  0  0  0  0  0  0  0  0
  144.5370   74.3730  220.3760 C   0  0  0  0  0  0  0  0  0  0  0  0
  145.6820   73.5410  219.8660 C   0  0  0  0  0  0  0  0  0  0  0  0
  145.6150   72.2220  220.4650 N   0  0  0  0  0  0  0  0  0  0  0  0
  144.4310   71.5070  220.0550 C   0  0  0  0  0  0  0  0  0  0  0  0
  143.2240   72.1970  220.6010 C   0  0  0  0  0  0  0  0  0  0  0  0
  141.5090   76.5510  220.8570 C   0  0  0  0  0  0  0  0  0  0  0  0
  139.6040   78.7460  221.8880 N   0  0  0  0  0  0  0  0  0  0  0  0
  138.8850   79.5150  222.8390 C   0  0  0  0  0  0  0  0  0  0  0  0
  137.5320   79.3810  222.9460 C   0  0  0  0  0  0  0  0  0  0  0  0
  136.8890   80.1670  223.9000 C   0  0  0  0  0  0  0  0  0  0  0  0
  137.5470   81.0470  224.7130 C   0  0  0  0  0  0  0  0  0  0  0  0
  136.7960   81.8350  225.6880 C   0  0  0  0  0  0  0  0  0  0  0  0
  136.3240   83.1040  225.4180 C   0  0  0  0  0  0  0  0  0  0  0  0
  135.6190   83.7970  226.3830 C   0  0  0  0  0  0  0  0  0  0  0  0
  135.3660   83.2440  227.6420 C   0  0  0  0  0  0  0  0  0  0  0  0
  134.6700   83.9330  228.5900 F   0  0  0  0  0  0  0  0  0  0  0  0
  135.8580   81.9730  227.8650 C   0  0  0  0  0  0  0  0  0  0  0  0
  136.5650   81.2630  226.9140 C   0  0  0  0  0  0  0  0  0  0  0  0
  138.9220   81.1530  224.5690 C   0  0  0  0  0  0  0  0  0  0  0  0
  139.5800   80.3790  223.6260 C   0  0  0  0  0  0  0  0  0  0  0  0
  142.3120   80.3598  221.7790 H   0  0  0  0  0  0  0  0  0  0  0  0
  142.5430   79.0660  222.9973 H   0  0  0  0  0  0  0  0  0  0  0  0
  141.9683   79.5349  219.3723 H   0  0  0  0  0  0  0  0  0  0  0  0
  142.9703   78.1443  217.6186 H   0  0  0  0  0  0  0  0  0  0  0  0
  143.0358   75.6523  217.9478 H   0  0  0  0  0  0  0  0  0  0  0  0
  144.4226   75.2586  219.7336 H   0  0  0  0  0  0  0  0  0  0  0  0
  144.7569   74.6716  221.4116 H   0  0  0  0  0  0  0  0  0  0  0  0
  145.6139   73.4523  218.7717 H   0  0  0  0  0  0  0  0  0  0  0  0
  146.6355   74.0205  220.1323 H   0  0  0  0  0  0  0  0  0  0  0  0
  145.7440   72.2740  221.4960 H   0  0  0  0  0  0  0  0  0  0  0  0
  144.3766   71.4855  218.9565 H   0  0  0  0  0  0  0  0  0  0  0  0
  144.4714   70.4767  220.4381 H   0  0  0  0  0  0  0  0  0  0  0  0
  142.3254   71.8005  220.1057 H   0  0  0  0  0  0  0  0  0  0  0  0
  143.1709   72.0162  221.6847 H   0  0  0  0  0  0  0  0  0  0  0  0
  141.0996   76.0927  221.7693 H   0  0  0  0  0  0  0  0  0  0  0  0
  136.9724   78.6824  222.3066 H   0  0  0  0  0  0  0  0  0  0  0  0
  135.7978   80.0748  224.0040 H   0  0  0  0  0  0  0  0  0  0  0  0
  136.5091   83.5628  224.4355 H   0  0  0  0  0  0  0  0  0  0  0  0
  135.2481   84.8073  226.1556 H   0  0  0  0  0  0  0  0  0  0  0  0
  135.6788   81.5048  228.8441 H   0  0  0  0  0  0  0  0  0  0  0  0
  136.9380   80.2524  227.1365 H   0  0  0  0  0  0  0  0  0  0  0  0
  139.4899   81.8504  225.2023 H   0  0  0  0  0  0  0  0  0  0  0  0
  1  2  2  0
  2  3  1  0
  3  4  1  0
  4  5  1  0
  5  6  2  0
  6  7  1  0
  7  8  2  0
  8  9  1  0
  9 10  1  0
 10 11  2  0
 10 12  1  0
 12 13  1  0
 13 14  1  0
 14 15  1  0
 15 16  1  0
 16 17  1  0
  9 18  2  0
  4 19  2  0
 19 20  1  0
 20 21  2  0
 21 22  1  0
 22 23  2  0
 23 24  1  0
 24 25  2  0
 25 26  1  0
 26 27  2  0
 27 28  1  0
 27 29  1  0
 29 30  2  0
 23 31  1  0
 31 32  2  0
 32  2  1  0
 18  5  1  0
 32 20  1  0
 17 12  1  0
 30 24  1  0
  3 33  1  0
  3 34  1  0
  6 35  1  0
  7 36  1  0
  8 37  1  0
 13 38  1  0
 13 39  1  0
 14 40  1  0
 14 41  1  0
 15 42  1  0
 16 43  1  0
 16 44  1  0
 17 45  1  0
 17 46  1  0
 18 47  1  0
 21 48  1  0
 22 49  1  0
 25 50  1  0
 26 51  1  0
 29 52  1  0
 30 53  1  0
 31 54  1  0
M  END
>  <smiles>  (46) 
O=C1CC(c2cccc(C(=O)N3CCNCC3)c2)=Nc2ccc(-c3ccc(F)cc3)cc21

>  <score_type>  (46) 
oracle

>  <origin>  (46) 
autodockgpu

>  <m_score__min__energy>  (46) 
-8.5

>  <m_primary>  (46) 
energy

>  <rmsd>  (46) 
8.456939342639057

>  <m_score__min__rmsd>  (46) 
8.456939342639057

>  <meeko>  (46) 
{"free_energy": -8.34, "intermolecular_energy": -9.24, "internal_energy": -0.96, "cluster_size": 45, "cluster_id": 1, "rank_in_cluster": 28}

>  <energy>  (46) 
-7.95

>  <cluster_rmsd>  (46) 
0.0

>  <cluster>  (46) 
2

$$$$

     RDKit          3D

 54 58  0  0  0  0  0  0  0  0999 V2000
  141.8430   80.1620  224.2410 O   0  0  0  0  0  0  0  0  0  0  0  0
  141.2570   79.6260  223.2430 C   0  0  0  0  0  0  0  0  0  0  0  0
  142.0710   78.9560  222.2080 C   0  0  0  0  0  0  0  0  0  0  0  0
  141.1730   78.4190  221.1660 C   0  0  0  0  0  0  0  0  0  0  0  0
  141.8060   77.7080  220.0370 C   0  0  0  0  0  0  0  0  0  0  0  0
  142.3030   78.3760  218.9390 C   0  0  0  0  0  0  0  0  0  0  0  0
  142.8980   77.7660  217.8670 C   0  0  0  0  0  0  0  0  0  0  0  0
  143.0070   76.3790  217.8900 C   0  0  0  0  0  0  0  0  0  0  0  0
  142.5200   75.6760  218.9720 C   0  0  0  0  0  0  0  0  0  0  0  0
  142.6080   74.2190  219.0470 C   0  0  0  0  0  0  0  0  0  0  0  0
  141.6850   73.5730  218.4860 O   0  0  0  0  0  0  0  0  0  0  0  0
  143.6940   73.5810  219.7260 N   0  0  0  0  0  0  0  0  0  0  0  0
  144.7060   74.4040  220.3380 C   0  0  0  0  0  0  0  0  0  0  0  0
  146.0540   73.7380  220.2830 C   0  0  0  0  0  0  0  0  0  0  0  0
  145.9100   72.3440  220.6550 N   0  0  0  0  0  0  0  0  0  0  0  0
  145.1030   71.6170  219.7050 C   0  0  0  0  0  0  0  0  0  0  0  0
  143.7030   72.1330  219.7510 C   0  0  0  0  0  0  0  0  0  0  0  0
  141.9230   76.3150  220.0460 C   0  0  0  0  0  0  0  0  0  0  0  0
  139.8960   78.5180  221.1620 N   0  0  0  0  0  0  0  0  0  0  0  0
  139.1400   79.1680  222.1720 C   0  0  0  0  0  0  0  0  0  0  0  0
  137.7800   79.2240  222.0810 C   0  0  0  0  0  0  0  0  0  0  0  0
  137.1020   79.8770  223.1060 C   0  0  0  0  0  0  0  0  0  0  0  0
  137.7310   80.4520  224.1760 C   0  0  0  0  0  0  0  0  0  0  0  0
  136.9430   81.1190  225.2090 C   0  0  0  0  0  0  0  0  0  0  0  0
  137.4920   82.0160  226.1050 C   0  0  0  0  0  0  0  0  0  0  0  0
  136.6930   82.6140  227.0590 C   0  0  0  0  0  0  0  0  0  0  0  0
  135.3250   82.3360  227.1460 C   0  0  0  0  0  0  0  0  0  0  0  0
  134.5420   82.9300  228.0900 F   0  0  0  0  0  0  0  0  0  0  0  0
  134.8230   81.4330  226.2290 C   0  0  0  0  0  0  0  0  0  0  0  0
  135.6040   80.8240  225.2680 C   0  0  0  0  0  0  0  0  0  0  0  0
  139.1150   80.3720  224.2280 C   0  0  0  0  0  0  0  0  0  0  0  0
  139.8080   79.7250  223.2170 C   0  0  0  0  0  0  0  0  0  0  0  0
  142.7661   79.6805  221.7587 H   0  0  0  0  0  0  0  0  0  0  0  0
  142.6482   78.1364  222.6608 H   0  0  0  0  0  0  0  0  0  0  0  0
  142.2160   79.4724  218.9225 H   0  0  0  0  0  0  0  0  0  0  0  0
  143.2768   78.3524  217.0169 H   0  0  0  0  0  0  0  0  0  0  0  0
  143.4785   75.8467  217.0507 H   0  0  0  0  0  0  0  0  0  0  0  0
  144.7582   75.3647  219.8049 H   0  0  0  0  0  0  0  0  0  0  0  0
  144.4371   74.5606  221.3931 H   0  0  0  0  0  0  0  0  0  0  0  0
  146.4576   73.8070  219.2620 H   0  0  0  0  0  0  0  0  0  0  0  0
  146.7431   74.2381  220.9794 H   0  0  0  0  0  0  0  0  0  0  0  0
  145.5930   72.2520  221.6410 H   0  0  0  0  0  0  0  0  0  0  0  0
  145.5125   71.7548  218.6934 H   0  0  0  0  0  0  0  0  0  0  0  0
  145.1100   70.5465  219.9581 H   0  0  0  0  0  0  0  0  0  0  0  0
  143.1484   71.7527  218.8805 H   0  0  0  0  0  0  0  0  0  0  0  0
  143.2286   71.7908  220.6826 H   0  0  0  0  0  0  0  0  0  0  0  0
  141.5444   75.7317  220.8983 H   0  0  0  0  0  0  0  0  0  0  0  0
  137.2425   78.7725  221.2341 H   0  0  0  0  0  0  0  0  0  0  0  0
  136.0047   79.9336  223.0531 H   0  0  0  0  0  0  0  0  0  0  0  0
  138.5650   82.2536  226.0583 H   0  0  0  0  0  0  0  0  0  0  0  0
  137.1427   83.3256  227.7671 H   0  0  0  0  0  0  0  0  0  0  0  0
  133.7513   81.1881  226.2666 H   0  0  0  0  0  0  0  0  0  0  0  0
  135.1589   80.1111  224.5583 H   0  0  0  0  0  0  0  0  0  0  0  0
  139.6615   80.8213  225.0703 H   0  0  0  0  0  0  0  0  0  0  0  0
  1  2  2  0
  2  3  1  0
  3  4  1  0
  4  5  1  0
  5  6  2  0
  6  7  1  0
  7  8  2  0
  8  9  1  0
  9 10  1  0
 10 11  2  0
 10 12  1  0
 12 13  1  0
 13 14  1  0
 14 15  1  0
 15 16  1  0
 16 17  1  0
  9 18  2  0
  4 19  2  0
 19 20  1  0
 20 21  2  0
 21 22  1  0
 22 23  2  0
 23 24  1  0
 24 25  2  0
 25 26  1  0
 26 27  2  0
 27 28  1  0
 27 29  1  0
 29 30  2  0
 23 31  1  0
 31 32  2  0
 32  2  1  0
 18  5  1  0
 32 20  1  0
 17 12  1  0
 30 24  1  0
  3 33  1  0
  3 34  1  0
  6 35  1  0
  7 36  1  0
  8 37  1  0
 13 38  1  0
 13 39  1  0
 14 40  1  0
 14 41  1  0
 15 42  1  0
 16 43  1  0
 16 44  1  0
 17 45  1  0
 17 46  1  0
 18 47  1  0
 21 48  1  0
 22 49  1  0
 25 50  1  0
 26 51  1  0
 29 52  1  0
 30 53  1  0
 31 54  1  0
M  END
>  <smiles>  (47) 
O=C1CC(c2cccc(C(=O)N3CCNCC3)c2)=Nc2ccc(-c3ccc(F)cc3)cc21

>  <score_type>  (47) 
oracle

>  <origin>  (47) 
autodockgpu

>  <m_score__min__energy>  (47) 
-8.5

>  <m_primary>  (47) 
energy

>  <rmsd>  (47) 
8.373021106133768

>  <m_score__min__rmsd>  (47) 
8.373021106133768

>  <meeko>  (47) 
{"free_energy": -8.09, "intermolecular_energy": -8.98, "internal_energy": -1.0, "cluster_size": 45, "cluster_id": 1, "rank_in_cluster": 44}

>  <energy>  (47) 
-7.95

>  <cluster_rmsd>  (47) 
0.06

>  <cluster>  (47) 
2

$$$$

     RDKit          3D

 54 58  0  0  0  0  0  0  0  0999 V2000
  141.9340   80.8450  224.0860 O   0  0  0  0  0  0  0  0  0  0  0  0
  141.3100   80.1670  223.2050 C   0  0  0  0  0  0  0  0  0  0  0  0
  142.0860   79.3860  222.2200 C   0  0  0  0  0  0  0  0  0  0  0  0
  141.1480   78.6930  221.3140 C   0  0  0  0  0  0  0  0  0  0  0  0
  141.7390   77.8540  220.2510 C   0  0  0  0  0  0  0  0  0  0  0  0
  142.2610   78.3970  219.0970 C   0  0  0  0  0  0  0  0  0  0  0  0
  142.8190   77.6660  218.0820 C   0  0  0  0  0  0  0  0  0  0  0  0
  142.8600   76.2820  218.2290 C   0  0  0  0  0  0  0  0  0  0  0  0
  142.3460   75.7030  219.3700 C   0  0  0  0  0  0  0  0  0  0  0  0
  142.3650   74.2560  219.5740 C   0  0  0  0  0  0  0  0  0  0  0  0
  141.2890   73.6450  219.3390 O   0  0  0  0  0  0  0  0  0  0  0  0
  143.5510   73.5900  220.0170 N   0  0  0  0  0  0  0  0  0  0  0  0
  144.7350   74.3740  220.2600 C   0  0  0  0  0  0  0  0  0  0  0  0
  145.9780   73.5930  219.9340 C   0  0  0  0  0  0  0  0  0  0  0  0
  145.8550   72.2540  220.4770 N   0  0  0  0  0  0  0  0  0  0  0  0
  144.7850   71.5180  219.8470 C   0  0  0  0  0  0  0  0  0  0  0  0
  143.4790   72.1540  220.1930 C   0  0  0  0  0  0  0  0  0  0  0  0
  141.7870   76.4630  220.3840 C   0  0  0  0  0  0  0  0  0  0  0  0
  139.8700   78.7580  221.3740 N   0  0  0  0  0  0  0  0  0  0  0  0
  139.1510   79.5160  222.3340 C   0  0  0  0  0  0  0  0  0  0  0  0
  137.7880   79.5250  222.3200 C   0  0  0  0  0  0  0  0  0  0  0  0
  137.1480   80.2920  223.2910 C   0  0  0  0  0  0  0  0  0  0  0  0
  137.8170   81.0190  224.2350 C   0  0  0  0  0  0  0  0  0  0  0  0
  137.0680   81.7970  225.2180 C   0  0  0  0  0  0  0  0  0  0  0  0
  136.5450   83.0450  224.9420 C   0  0  0  0  0  0  0  0  0  0  0  0
  135.8450   83.7300  225.9150 C   0  0  0  0  0  0  0  0  0  0  0  0
  135.6460   83.1910  227.1900 C   0  0  0  0  0  0  0  0  0  0  0  0
  134.9540   83.8720  228.1460 F   0  0  0  0  0  0  0  0  0  0  0  0
  136.1870   81.9410  227.4190 C   0  0  0  0  0  0  0  0  0  0  0  0
  136.8910   81.2390  226.4600 C   0  0  0  0  0  0  0  0  0  0  0  0
  139.2040   80.9820  224.2120 C   0  0  0  0  0  0  0  0  0  0  0  0
  139.8590   80.2250  223.2550 C   0  0  0  0  0  0  0  0  0  0  0  0
  142.7305   80.0614  221.6382 H   0  0  0  0  0  0  0  0  0  0  0  0
  142.7149   78.6488  222.7406 H   0  0  0  0  0  0  0  0  0  0  0  0
  142.2273   79.4906  218.9834 H   0  0  0  0  0  0  0  0  0  0  0  0
  143.2206   78.1551  217.1823 H   0  0  0  0  0  0  0  0  0  0  0  0
  143.2997   75.6544  217.4398 H   0  0  0  0  0  0  0  0  0  0  0  0
  144.7031   75.2768  219.6324 H   0  0  0  0  0  0  0  0  0  0  0  0
  144.7620   74.6447  221.3258 H   0  0  0  0  0  0  0  0  0  0  0  0
  146.1021   73.5375  218.8424 H   0  0  0  0  0  0  0  0  0  0  0  0
  146.8542   74.0916  220.3741 H   0  0  0  0  0  0  0  0  0  0  0  0
  145.8020   72.2760  221.5150 H   0  0  0  0  0  0  0  0  0  0  0  0
  144.9226   71.5312  218.7557 H   0  0  0  0  0  0  0  0  0  0  0  0
  144.7940   70.4771  220.2027 H   0  0  0  0  0  0  0  0  0  0  0  0
  142.6940   71.7480  219.5380 H   0  0  0  0  0  0  0  0  0  0  0  0
  143.2453   71.9361  221.2456 H   0  0  0  0  0  0  0  0  0  0  0  0
  141.3848   75.9770  221.2851 H   0  0  0  0  0  0  0  0  0  0  0  0
  137.2181   78.9514  221.5742 H   0  0  0  0  0  0  0  0  0  0  0  0
  136.0482   80.3135  223.2982 H   0  0  0  0  0  0  0  0  0  0  0  0
  136.6861   83.4931  223.9473 H   0  0  0  0  0  0  0  0  0  0  0  0
  135.4340   84.7234  225.6818 H   0  0  0  0  0  0  0  0  0  0  0  0
  136.0511   81.4837  228.4102 H   0  0  0  0  0  0  0  0  0  0  0  0
  137.3046   80.2456  226.6884 H   0  0  0  0  0  0  0  0  0  0  0  0
  139.7825   81.5532  224.9530 H   0  0  0  0  0  0  0  0  0  0  0  0
  1  2  2  0
  2  3  1  0
  3  4  1  0
  4  5  1  0
  5  6  2  0
  6  7  1  0
  7  8  2  0
  8  9  1  0
  9 10  1  0
 10 11  2  0
 10 12  1  0
 12 13  1  0
 13 14  1  0
 14 15  1  0
 15 16  1  0
 16 17  1  0
  9 18  2  0
  4 19  2  0
 19 20  1  0
 20 21  2  0
 21 22  1  0
 22 23  2  0
 23 24  1  0
 24 25  2  0
 25 26  1  0
 26 27  2  0
 27 28  1  0
 27 29  1  0
 29 30  2  0
 23 31  1  0
 31 32  2  0
 32  2  1  0
 18  5  1  0
 32 20  1  0
 17 12  1  0
 30 24  1  0
  3 33  1  0
  3 34  1  0
  6 35  1  0
  7 36  1  0
  8 37  1  0
 13 38  1  0
 13 39  1  0
 14 40  1  0
 14 41  1  0
 15 42  1  0
 16 43  1  0
 16 44  1  0
 17 45  1  0
 17 46  1  0
 18 47  1  0
 21 48  1  0
 22 49  1  0
 25 50  1  0
 26 51  1  0
 29 52  1  0
 30 53  1  0
 31 54  1  0
M  END
>  <smiles>  (48) 
O=C1CC(c2cccc(C(=O)N3CCNCC3)c2)=Nc2ccc(-c3ccc(F)cc3)cc21

>  <score_type>  (48) 
oracle

>  <origin>  (48) 
autodockgpu

>  <m_score__min__energy>  (48) 
-8.5

>  <m_primary>  (48) 
energy

>  <rmsd>  (48) 
8.513490464098178

>  <m_score__min__rmsd>  (48) 
8.513490464098178

>  <meeko>  (48) 
{"free_energy": -8.28, "intermolecular_energy": -9.18, "internal_energy": -0.99, "cluster_size": 45, "cluster_id": 1, "rank_in_cluster": 38}

>  <energy>  (48) 
-7.9

>  <cluster_rmsd>  (48) 
0.15

>  <cluster>  (48) 
2

$$$$

     RDKit          3D

 54 58  0  0  0  0  0  0  0  0999 V2000
  141.9860   81.1470  223.7730 O   0  0  0  0  0  0  0  0  0  0  0  0
  141.3690   80.2850  223.0650 C   0  0  0  0  0  0  0  0  0  0  0  0
  142.1340   79.4710  222.0980 C   0  0  0  0  0  0  0  0  0  0  0  0
  141.2060   78.5550  221.4040 C   0  0  0  0  0  0  0  0  0  0  0  0
  141.7890   77.6520  220.3910 C   0  0  0  0  0  0  0  0  0  0  0  0
  142.3000   78.1220  219.2000 C   0  0  0  0  0  0  0  0  0  0  0  0
  142.8500   77.3290  218.2290 C   0  0  0  0  0  0  0  0  0  0  0  0
  142.8940   75.9570  218.4620 C   0  0  0  0  0  0  0  0  0  0  0  0
  142.3910   75.4510  219.6410 C   0  0  0  0  0  0  0  0  0  0  0  0
  142.4120   74.0190  219.9350 C   0  0  0  0  0  0  0  0  0  0  0  0
  141.2920   73.4540  220.0450 O   0  0  0  0  0  0  0  0  0  0  0  0
  143.6490   73.3160  220.0850 N   0  0  0  0  0  0  0  0  0  0  0  0
  144.8820   74.0480  219.9420 C   0  0  0  0  0  0  0  0  0  0  0  0
  145.9600   73.1830  219.3460 C   0  0  0  0  0  0  0  0  0  0  0  0
  145.9410   71.8870  219.9960 N   0  0  0  0  0  0  0  0  0  0  0  0
  144.7140   71.1740  219.7340 C   0  0  0  0  0  0  0  0  0  0  0  0
  143.5770   71.8990  220.3760 C   0  0  0  0  0  0  0  0  0  0  0  0
  141.8400   76.2720  220.6100 C   0  0  0  0  0  0  0  0  0  0  0  0
  139.9440   78.4790  221.6090 N   0  0  0  0  0  0  0  0  0  0  0  0
  139.2350   79.2740  222.5460 C   0  0  0  0  0  0  0  0  0  0  0  0
  137.8880   79.1230  222.6950 C   0  0  0  0  0  0  0  0  0  0  0  0
  137.2570   79.9360  223.6320 C   0  0  0  0  0  0  0  0  0  0  0  0
  137.9200   80.8600  224.3920 C   0  0  0  0  0  0  0  0  0  0  0  0
  137.1810   81.6740  225.3530 C   0  0  0  0  0  0  0  0  0  0  0  0
  136.9500   81.2710  226.6530 C   0  0  0  0  0  0  0  0  0  0  0  0
  136.2450   82.0880  227.5140 C   0  0  0  0  0  0  0  0  0  0  0  0
  135.7510   83.3300  227.1040 C   0  0  0  0  0  0  0  0  0  0  0  0
  135.0550   84.1320  227.9590 F   0  0  0  0  0  0  0  0  0  0  0  0
  136.0070   83.6900  225.7950 C   0  0  0  0  0  0  0  0  0  0  0  0
  136.7100   82.8880  224.9180 C   0  0  0  0  0  0  0  0  0  0  0  0
  139.2890   80.9820  224.2080 C   0  0  0  0  0  0  0  0  0  0  0  0
  139.9360   80.1810  223.2800 C   0  0  0  0  0  0  0  0  0  0  0  0
  142.6203   80.1301  221.3638 H   0  0  0  0  0  0  0  0  0  0  0  0
  142.9047   78.8908  222.6266 H   0  0  0  0  0  0  0  0  0  0  0  0
  142.2634   79.2062  219.0178 H   0  0  0  0  0  0  0  0  0  0  0  0
  143.2436   77.7608  217.2970 H   0  0  0  0  0  0  0  0  0  0  0  0
  143.3274   75.2814  217.7099 H   0  0  0  0  0  0  0  0  0  0  0  0
  144.7117   74.9136  219.2849 H   0  0  0  0  0  0  0  0  0  0  0  0
  145.2101   74.3777  220.9388 H   0  0  0  0  0  0  0  0  0  0  0  0
  145.7780   73.0575  218.2684 H   0  0  0  0  0  0  0  0  0  0  0  0
  146.9410   73.6580  219.4944 H   0  0  0  0  0  0  0  0  0  0  0  0
  146.1760   71.9720  221.0060 H   0  0  0  0  0  0  0  0  0  0  0  0
  144.5470   71.1160  218.6483 H   0  0  0  0  0  0  0  0  0  0  0  0
  144.7830   70.1565  220.1463 H   0  0  0  0  0  0  0  0  0  0  0  0
  142.6281   71.4981  219.9901 H   0  0  0  0  0  0  0  0  0  0  0  0
  143.6342   71.7565  221.4652 H   0  0  0  0  0  0  0  0  0  0  0  0
  141.4461   75.8428  221.5431 H   0  0  0  0  0  0  0  0  0  0  0  0
  137.3240   78.3897  222.0999 H   0  0  0  0  0  0  0  0  0  0  0  0
  136.1706   79.8302  223.7682 H   0  0  0  0  0  0  0  0  0  0  0  0
  137.3277   80.2989  227.0028 H   0  0  0  0  0  0  0  0  0  0  0  0
  136.0677   81.7539  228.5470 H   0  0  0  0  0  0  0  0  0  0  0  0
  135.6337   84.6600  225.4349 H   0  0  0  0  0  0  0  0  0  0  0  0
  136.8904   83.2175  223.8841 H   0  0  0  0  0  0  0  0  0  0  0  0
  139.8608   81.7136  224.7978 H   0  0  0  0  0  0  0  0  0  0  0  0
  1  2  2  0
  2  3  1  0
  3  4  1  0
  4  5  1  0
  5  6  2  0
  6  7  1  0
  7  8  2  0
  8  9  1  0
  9 10  1  0
 10 11  2  0
 10 12  1  0
 12 13  1  0
 13 14  1  0
 14 15  1  0
 15 16  1  0
 16 17  1  0
  9 18  2  0
  4 19  2  0
 19 20  1  0
 20 21  2  0
 21 22  1  0
 22 23  2  0
 23 24  1  0
 24 25  2  0
 25 26  1  0
 26 27  2  0
 27 28  1  0
 27 29  1  0
 29 30  2  0
 23 31  1  0
 31 32  2  0
 32  2  1  0
 18  5  1  0
 32 20  1  0
 17 12  1  0
 30 24  1  0
  3 33  1  0
  3 34  1  0
  6 35  1  0
  7 36  1  0
  8 37  1  0
 13 38  1  0
 13 39  1  0
 14 40  1  0
 14 41  1  0
 15 42  1  0
 16 43  1  0
 16 44  1  0
 17 45  1  0
 17 46  1  0
 18 47  1  0
 21 48  1  0
 22 49  1  0
 25 50  1  0
 26 51  1  0
 29 52  1  0
 30 53  1  0
 31 54  1  0
M  END
>  <smiles>  (49) 
O=C1CC(c2cccc(C(=O)N3CCNCC3)c2)=Nc2ccc(-c3ccc(F)cc3)cc21

>  <score_type>  (49) 
oracle

>  <origin>  (49) 
autodockgpu

>  <m_score__min__energy>  (49) 
-8.5

>  <m_primary>  (49) 
energy

>  <rmsd>  (49) 
8.537925603789919

>  <m_score__min__rmsd>  (49) 
8.537925603789919

>  <meeko>  (49) 
{"free_energy": -8.45, "intermolecular_energy": -9.35, "internal_energy": -0.93, "cluster_size": 45, "cluster_id": 1, "rank_in_cluster": 12}

>  <energy>  (49) 
-7.72

>  <cluster_rmsd>  (49) 
0.0

>  <cluster>  (49) 
3

$$$$

     RDKit          3D

 54 58  0  0  0  0  0  0  0  0999 V2000
  141.9600   81.1260  223.8080 O   0  0  0  0  0  0  0  0  0  0  0  0
  141.3380   80.2960  223.0660 C   0  0  0  0  0  0  0  0  0  0  0  0
  142.1030   79.4990  222.0840 C   0  0  0  0  0  0  0  0  0  0  0  0
  141.1700   78.6200  221.3510 C   0  0  0  0  0  0  0  0  0  0  0  0
  141.7510   77.7380  220.3180 C   0  0  0  0  0  0  0  0  0  0  0  0
  142.2730   78.2350  219.1430 C   0  0  0  0  0  0  0  0  0  0  0  0
  142.8230   77.4620  218.1550 C   0  0  0  0  0  0  0  0  0  0  0  0
  142.8550   76.0850  218.3520 C   0  0  0  0  0  0  0  0  0  0  0  0
  142.3410   75.5520  219.5150 C   0  0  0  0  0  0  0  0  0  0  0  0
  142.3500   74.1130  219.7730 C   0  0  0  0  0  0  0  0  0  0  0  0
  141.2300   73.5380  219.7690 O   0  0  0  0  0  0  0  0  0  0  0  0
  143.5750   73.4160  220.0130 N   0  0  0  0  0  0  0  0  0  0  0  0
  144.8090   74.1600  219.9980 C   0  0  0  0  0  0  0  0  0  0  0  0
  145.9430   73.3190  219.4770 C   0  0  0  0  0  0  0  0  0  0  0  0
  145.8800   72.0050  220.0880 N   0  0  0  0  0  0  0  0  0  0  0  0
  144.6870   71.2910  219.7020 C   0  0  0  0  0  0  0  0  0  0  0  0
  143.4910   71.9900  220.2590 C   0  0  0  0  0  0  0  0  0  0  0  0
  141.7910   76.3530  220.5020 C   0  0  0  0  0  0  0  0  0  0  0  0
  139.9040   78.5580  221.5380 N   0  0  0  0  0  0  0  0  0  0  0  0
  139.1960   79.3360  222.4900 C   0  0  0  0  0  0  0  0  0  0  0  0
  137.8450   79.2020  222.6160 C   0  0  0  0  0  0  0  0  0  0  0  0
  137.2140   79.9970  223.5700 C   0  0  0  0  0  0  0  0  0  0  0  0
  137.8820   80.8870  224.3660 C   0  0  0  0  0  0  0  0  0  0  0  0
  137.1430   81.6830  225.3420 C   0  0  0  0  0  0  0  0  0  0  0  0
  136.9330   81.2670  226.6410 C   0  0  0  0  0  0  0  0  0  0  0  0
  136.2270   82.0670  227.5170 C   0  0  0  0  0  0  0  0  0  0  0  0
  135.7110   83.3060  227.1220 C   0  0  0  0  0  0  0  0  0  0  0  0
  135.0150   84.0910  227.9910 F   0  0  0  0  0  0  0  0  0  0  0  0
  135.9470   83.6790  225.8130 C   0  0  0  0  0  0  0  0  0  0  0  0
  136.6500   82.8940  224.9220 C   0  0  0  0  0  0  0  0  0  0  0  0
  139.2550   80.9910  224.2030 C   0  0  0  0  0  0  0  0  0  0  0  0
  139.9010   80.2080  223.2590 C   0  0  0  0  0  0  0  0  0  0  0  0
  142.6093   80.1720  221.3764 H   0  0  0  0  0  0  0  0  0  0  0  0
  142.8574   78.8906  222.6043 H   0  0  0  0  0  0  0  0  0  0  0  0
  142.2461   79.3238  218.9887 H   0  0  0  0  0  0  0  0  0  0  0  0
  143.2258   77.9145  217.2369 H   0  0  0  0  0  0  0  0  0  0  0  0
  143.2876   75.4259  217.5849 H   0  0  0  0  0  0  0  0  0  0  0  0
  144.6890   75.0416  219.3512 H   0  0  0  0  0  0  0  0  0  0  0  0
  145.0452   74.4652  221.0281 H   0  0  0  0  0  0  0  0  0  0  0  0
  145.8576   73.2216  218.3847 H   0  0  0  0  0  0  0  0  0  0  0  0
  146.9024   73.7968  219.7245 H   0  0  0  0  0  0  0  0  0  0  0  0
  146.0240   72.0650  221.1170 H   0  0  0  0  0  0  0  0  0  0  0  0
  144.6164   71.2598  218.6047 H   0  0  0  0  0  0  0  0  0  0  0  0
  144.7292   70.2642  220.0942 H   0  0  0  0  0  0  0  0  0  0  0  0
  142.5840   71.5930  219.7797 H   0  0  0  0  0  0  0  0  0  0  0  0
  143.4528   71.8184  221.3449 H   0  0  0  0  0  0  0  0  0  0  0  0
  141.3894   75.9034  221.4221 H   0  0  0  0  0  0  0  0  0  0  0  0
  137.2778   78.4965  221.9912 H   0  0  0  0  0  0  0  0  0  0  0  0
  136.1244   79.9047  223.6894 H   0  0  0  0  0  0  0  0  0  0  0  0
  137.3283   80.2976  226.9785 H   0  0  0  0  0  0  0  0  0  0  0  0
  136.0665   81.7224  228.5492 H   0  0  0  0  0  0  0  0  0  0  0  0
  135.5565   84.6466  225.4648 H   0  0  0  0  0  0  0  0  0  0  0  0
  136.8134   83.2339  223.8887 H   0  0  0  0  0  0  0  0  0  0  0  0
  139.8311   81.6942  224.8223 H   0  0  0  0  0  0  0  0  0  0  0  0
  1  2  2  0
  2  3  1  0
  3  4  1  0
  4  5  1  0
  5  6  2  0
  6  7  1  0
  7  8  2  0
  8  9  1  0
  9 10  1  0
 10 11  2  0
 10 12  1  0
 12 13  1  0
 13 14  1  0
 14 15  1  0
 15 16  1  0
 16 17  1  0
  9 18  2  0
  4 19  2  0
 19 20  1  0
 20 21  2  0
 21 22  1  0
 22 23  2  0
 23 24  1  0
 24 25  2  0
 25 26  1  0
 26 27  2  0
 27 28  1  0
 27 29  1  0
 29 30  2  0
 23 31  1  0
 31 32  2  0
 32  2  1  0
 18  5  1  0
 32 20  1  0
 17 12  1  0
 30 24  1  0
  3 33  1  0
  3 34  1  0
  6 35  1  0
  7 36  1  0
  8 37  1  0
 13 38  1  0
 13 39  1  0
 14 40  1  0
 14 41  1  0
 15 42  1  0
 16 43  1  0
 16 44  1  0
 17 45  1  0
 17 46  1  0
 18 47  1  0
 21 48  1  0
 22 49  1  0
 25 50  1  0
 26 51  1  0
 29 52  1  0
 30 53  1  0
 31 54  1  0
M  END
>  <smiles>  (50) 
O=C1CC(c2cccc(C(=O)N3CCNCC3)c2)=Nc2ccc(-c3ccc(F)cc3)cc21

>  <score_type>  (50) 
oracle

>  <origin>  (50) 
autodockgpu

>  <m_score__min__energy>  (50) 
-8.5

>  <m_primary>  (50) 
energy

>  <rmsd>  (50) 
8.53324727145259

>  <m_score__min__rmsd>  (50) 
8.53324727145259

>  <meeko>  (50) 
{"free_energy": -8.43, "intermolecular_energy": -9.33, "internal_energy": -0.96, "cluster_size": 45, "cluster_id": 1, "rank_in_cluster": 19}

>  <energy>  (50) 
-7.71

>  <cluster_rmsd>  (50) 
0.12

>  <cluster>  (50) 
3

$$$$
