
     RDKit          3D

 45 47  0  0  0  0  0  0  0  0999 V2000
  137.5390   77.8350  222.2000 C   0  0  0  0  0  0  0  0  0  0  0  0
  138.6150   77.7840  223.0750 O   0  0  0  0  0  0  0  0  0  0  0  0
  139.7430   78.5690  223.0810 C   0  0  0  0  0  0  0  0  0  0  0  0
  139.6410   79.7960  223.7430 C   0  0  0  0  0  0  0  0  0  0  0  0
  140.7360   80.6620  223.8120 C   0  0  0  0  0  0  0  0  0  0  0  0
  141.8850   80.2310  223.2010 C   0  0  0  0  0  0  0  0  0  0  0  0
  141.9800   79.0210  222.5490 C   0  0  0  0  0  0  0  0  0  0  0  0
  140.8870   78.1400  222.4710 C   0  0  0  0  0  0  0  0  0  0  0  0
  141.0920   76.9160  221.7110 C   0  0  0  0  0  0  0  0  0  0  0  0
  140.2110   75.8240  221.9020 N   0  0  0  0  0  0  0  0  0  0  0  0
  140.0460   74.6290  221.2030 C   0  0  0  0  0  0  0  0  0  0  0  0
  140.7660   74.3630  220.2070 O   0  0  0  0  0  0  0  0  0  0  0  0
  139.0420   73.5770  221.5470 C   0  0  0  0  0  0  0  0  0  0  0  0
  139.3660   72.8110  222.7220 N   0  0  0  0  0  0  0  0  0  0  0  0
  139.0610   71.4010  222.7490 C   0  0  0  0  0  0  0  0  0  0  0  0
  138.5250   70.8150  221.7710 O   0  0  0  0  0  0  0  0  0  0  0  0
  139.3830   70.6320  223.9450 C   0  0  0  0  0  0  0  0  0  0  0  0
  139.1170   69.2780  223.9870 C   0  0  0  0  0  0  0  0  0  0  0  0
  139.3840   68.4880  225.0620 C   0  0  0  0  0  0  0  0  0  0  0  0
  139.9480   69.0490  226.1700 C   0  0  0  0  0  0  0  0  0  0  0  0
  140.2270   68.2640  227.2690 C   0  0  0  0  0  0  0  0  0  0  0  0
  140.8040   68.8830  228.3820 C   0  0  0  0  0  0  0  0  0  0  0  0
  141.0660   70.2300  228.3320 C   0  0  0  0  0  0  0  0  0  0  0  0
  140.7900   71.0180  227.2360 C   0  0  0  0  0  0  0  0  0  0  0  0
  140.2180   70.4100  226.1340 C   0  0  0  0  0  0  0  0  0  0  0  0
  139.9390   71.1700  225.0470 N   0  0  0  0  0  0  0  0  0  0  0  0
  136.6016   77.8794  222.7738 H   0  0  0  0  0  0  0  0  0  0  0  0
  137.6238   78.7301  221.5663 H   0  0  0  0  0  0  0  0  0  0  0  0
  137.5388   76.9359  221.5663 H   0  0  0  0  0  0  0  0  0  0  0  0
  138.6894   80.0829  224.2144 H   0  0  0  0  0  0  0  0  0  0  0  0
  140.6791   81.6326  224.3265 H   0  0  0  0  0  0  0  0  0  0  0  0
  142.7718   80.8810  223.2328 H   0  0  0  0  0  0  0  0  0  0  0  0
  142.9331   78.7376  222.0785 H   0  0  0  0  0  0  0  0  0  0  0  0
  141.0401   77.1873  220.6463 H   0  0  0  0  0  0  0  0  0  0  0  0
  142.0568   76.5390  222.0811 H   0  0  0  0  0  0  0  0  0  0  0  0
  139.5500   75.9230  222.7630 H   0  0  0  0  0  0  0  0  0  0  0  0
  138.0716   74.0678  221.7124 H   0  0  0  0  0  0  0  0  0  0  0  0
  139.0252   72.8699  220.7045 H   0  0  0  0  0  0  0  0  0  0  0  0
  139.8170   73.2060  223.5810 H   0  0  0  0  0  0  0  0  0  0  0  0
  138.6631   68.8111  223.1004 H   0  0  0  0  0  0  0  0  0  0  0  0
  139.1487   67.4137  225.0380 H   0  0  0  0  0  0  0  0  0  0  0  0
  140.0031   67.1870  227.2699 H   0  0  0  0  0  0  0  0  0  0  0  0
  141.0443   68.3002  229.2834 H   0  0  0  0  0  0  0  0  0  0  0  0
  141.5204   70.7052  229.2139 H   0  0  0  0  0  0  0  0  0  0  0  0
  141.0170   72.0943  227.2377 H   0  0  0  0  0  0  0  0  0  0  0  0
  1  2  1  0
  2  3  1  0
  3  4  2  0
  4  5  1  0
  5  6  2  0
  6  7  1  0
  7  8  2  0
  8  9  1  0
  9 10  1  0
 10 11  1  0
 11 12  2  0
 11 13  1  0
 13 14  1  0
 14 15  1  0
 15 16  2  0
 15 17  1  0
 17 18  2  0
 18 19  1  0
 19 20  2  0
 20 21  1  0
 21 22  2  0
 22 23  1  0
 23 24  2  0
 24 25  1  0
 25 26  2  0
  8  3  1  0
 26 17  1  0
 25 20  1  0
  1 27  1  0
  1 28  1  0
  1 29  1  0
  4 30  1  0
  5 31  1  0
  6 32  1  0
  7 33  1  0
  9 34  1  0
  9 35  1  0
 10 36  1  0
 13 37  1  0
 13 38  1  0
 14 39  1  0
 18 40  1  0
 19 41  1  0
 21 42  1  0
 22 43  1  0
 23 44  1  0
 24 45  1  0
M  END
>  <smiles>  (1) 
COc1ccccc1CNC(=O)CNC(=O)c1ccc2ccccc2n1

>  <score_type>  (1) 
oracle

>  <origin>  (1) 
autodockgpu

>  <m_score__min__energy>  (1) 
-8.3200000000000003

>  <m_primary>  (1) 
energy

>  <rmsd>  (1) 
3.1888104855025854

>  <m_score__min__rmsd>  (1) 
3.1888104855025854

>  <meeko>  (1) 
{"free_energy": -7.52, "intermolecular_energy": -9.31, "internal_energy": -1.62, "cluster_size": 40, "cluster_id": 2, "rank_in_cluster": 33}

>  <energy>  (1) 
-8.32

>  <cluster_rmsd>  (1) 
0.0

>  <cluster>  (1) 
1

$$$$

     RDKit          3D

 45 47  0  0  0  0  0  0  0  0999 V2000
  137.6090   77.9600  222.3760 C   0  0  0  0  0  0  0  0  0  0  0  0
  138.8260   77.7100  222.9930 O   0  0  0  0  0  0  0  0  0  0  0  0
  139.9570   78.4900  222.9880 C   0  0  0  0  0  0  0  0  0  0  0  0
  139.9190   79.6430  223.7760 C   0  0  0  0  0  0  0  0  0  0  0  0
  141.0230   80.4970  223.8440 C   0  0  0  0  0  0  0  0  0  0  0  0
  142.1160   80.1310  223.1010 C   0  0  0  0  0  0  0  0  0  0  0  0
  142.1490   78.9930  222.3250 C   0  0  0  0  0  0  0  0  0  0  0  0
  141.0450   78.1250  222.2460 C   0  0  0  0  0  0  0  0  0  0  0  0
  141.1790   76.9840  221.3530 C   0  0  0  0  0  0  0  0  0  0  0  0
  140.2880   75.8910  221.4840 N   0  0  0  0  0  0  0  0  0  0  0  0
  140.4320   74.5350  221.1950 C   0  0  0  0  0  0  0  0  0  0  0  0
  141.5150   74.0870  220.7390 O   0  0  0  0  0  0  0  0  0  0  0  0
  139.3640   73.5080  221.3910 C   0  0  0  0  0  0  0  0  0  0  0  0
  139.4000   72.8540  222.6730 N   0  0  0  0  0  0  0  0  0  0  0  0
  140.4620   71.9180  222.9560 C   0  0  0  0  0  0  0  0  0  0  0  0
  141.3650   71.6600  222.1160 O   0  0  0  0  0  0  0  0  0  0  0  0
  140.4880   71.2510  224.2520 C   0  0  0  0  0  0  0  0  0  0  0  0
  141.0190   71.8990  225.3500 C   0  0  0  0  0  0  0  0  0  0  0  0
  141.0830   71.3500  226.5940 C   0  0  0  0  0  0  0  0  0  0  0  0
  140.6000   70.0880  226.7850 C   0  0  0  0  0  0  0  0  0  0  0  0
  140.6560   69.5160  228.0380 C   0  0  0  0  0  0  0  0  0  0  0  0
  140.1490   68.2210  228.1860 C   0  0  0  0  0  0  0  0  0  0  0  0
  139.6230   67.5840  227.0880 C   0  0  0  0  0  0  0  0  0  0  0  0
  139.5650   68.1530  225.8350 C   0  0  0  0  0  0  0  0  0  0  0  0
  140.0650   69.4320  225.6840 C   0  0  0  0  0  0  0  0  0  0  0  0
  140.0170   70.0080  224.4580 N   0  0  0  0  0  0  0  0  0  0  0  0
  136.8355   78.1189  223.1418 H   0  0  0  0  0  0  0  0  0  0  0  0
  137.6940   78.8594  221.7485 H   0  0  0  0  0  0  0  0  0  0  0  0
  137.3325   77.0999  221.7485 H   0  0  0  0  0  0  0  0  0  0  0  0
  139.0106   79.8811  224.3489 H   0  0  0  0  0  0  0  0  0  0  0  0
  141.0157   81.4098  224.4578 H   0  0  0  0  0  0  0  0  0  0  0  0
  143.0071   80.7754  223.1257 H   0  0  0  0  0  0  0  0  0  0  0  0
  143.0595   78.7579  221.7542 H   0  0  0  0  0  0  0  0  0  0  0  0
  141.0698   77.3654  220.3270 H   0  0  0  0  0  0  0  0  0  0  0  0
  142.1560   76.5564  221.6227 H   0  0  0  0  0  0  0  0  0  0  0  0
  139.3160   76.1490  221.9030 H   0  0  0  0  0  0  0  0  0  0  0  0
  138.3870   74.0019  221.2834 H   0  0  0  0  0  0  0  0  0  0  0  0
  139.5339   72.7280  220.6342 H   0  0  0  0  0  0  0  0  0  0  0  0
  138.7000   73.0060  223.4360 H   0  0  0  0  0  0  0  0  0  0  0  0
  141.4126   72.9168  225.2114 H   0  0  0  0  0  0  0  0  0  0  0  0
  141.5172   71.9147  227.4322 H   0  0  0  0  0  0  0  0  0  0  0  0
  141.0850   70.0598  228.8926 H   0  0  0  0  0  0  0  0  0  0  0  0
  140.1710   67.7206  229.1654 H   0  0  0  0  0  0  0  0  0  0  0  0
  139.2273   66.5657  227.2165 H   0  0  0  0  0  0  0  0  0  0  0  0
  139.1347   67.6070  224.9825 H   0  0  0  0  0  0  0  0  0  0  0  0
  1  2  1  0
  2  3  1  0
  3  4  2  0
  4  5  1  0
  5  6  2  0
  6  7  1  0
  7  8  2  0
  8  9  1  0
  9 10  1  0
 10 11  1  0
 11 12  2  0
 11 13  1  0
 13 14  1  0
 14 15  1  0
 15 16  2  0
 15 17  1  0
 17 18  2  0
 18 19  1  0
 19 20  2  0
 20 21  1  0
 21 22  2  0
 22 23  1  0
 23 24  2  0
 24 25  1  0
 25 26  2  0
  8  3  1  0
 26 17  1  0
 25 20  1  0
  1 27  1  0
  1 28  1  0
  1 29  1  0
  4 30  1  0
  5 31  1  0
  6 32  1  0
  7 33  1  0
  9 34  1  0
  9 35  1  0
 10 36  1  0
 13 37  1  0
 13 38  1  0
 14 39  1  0
 18 40  1  0
 19 41  1  0
 21 42  1  0
 22 43  1  0
 23 44  1  0
 24 45  1  0
M  END
>  <smiles>  (2) 
COc1ccccc1CNC(=O)CNC(=O)c1ccc2ccccc2n1

>  <score_type>  (2) 
oracle

>  <origin>  (2) 
autodockgpu

>  <m_score__min__energy>  (2) 
-8.3200000000000003

>  <m_primary>  (2) 
energy

>  <rmsd>  (2) 
3.914384085374377

>  <m_score__min__rmsd>  (2) 
3.914384085374377

>  <meeko>  (2) 
{"free_energy": -7.83, "intermolecular_energy": -9.62, "internal_energy": -1.39, "cluster_size": 40, "cluster_id": 2, "rank_in_cluster": 12}

>  <energy>  (2) 
-7.3

>  <cluster_rmsd>  (2) 
1.98

>  <cluster>  (2) 
1

$$$$

     RDKit          3D

 45 47  0  0  0  0  0  0  0  0999 V2000
  141.4380   75.2470  221.0550 C   0  0  0  0  0  0  0  0  0  0  0  0
  140.6340   75.5720  222.1390 O   0  0  0  0  0  0  0  0  0  0  0  0
  140.1660   76.8100  222.5080 C   0  0  0  0  0  0  0  0  0  0  0  0
  141.1290   77.8020  222.7060 C   0  0  0  0  0  0  0  0  0  0  0  0
  140.7530   79.0970  223.0750 C   0  0  0  0  0  0  0  0  0  0  0  0
  139.4080   79.3150  223.2240 C   0  0  0  0  0  0  0  0  0  0  0  0
  138.4610   78.3330  223.0270 C   0  0  0  0  0  0  0  0  0  0  0  0
  138.8250   77.0260  222.6570 C   0  0  0  0  0  0  0  0  0  0  0  0
  137.7430   76.0620  222.5310 C   0  0  0  0  0  0  0  0  0  0  0  0
  138.0460   74.7140  222.2200 N   0  0  0  0  0  0  0  0  0  0  0  0
  137.4200   73.7890  221.3860 C   0  0  0  0  0  0  0  0  0  0  0  0
  136.3940   74.1050  220.7310 O   0  0  0  0  0  0  0  0  0  0  0  0
  137.8810   72.3820  221.1820 C   0  0  0  0  0  0  0  0  0  0  0  0
  138.2370   71.6950  222.3950 N   0  0  0  0  0  0  0  0  0  0  0  0
  139.4910   72.0050  223.0390 C   0  0  0  0  0  0  0  0  0  0  0  0
  140.2830   72.8680  222.5740 O   0  0  0  0  0  0  0  0  0  0  0  0
  139.8510   71.2990  224.2630 C   0  0  0  0  0  0  0  0  0  0  0  0
  140.7290   71.8750  225.1590 C   0  0  0  0  0  0  0  0  0  0  0  0
  141.1170   71.2860  226.3220 C   0  0  0  0  0  0  0  0  0  0  0  0
  140.6210   70.0550  226.6360 C   0  0  0  0  0  0  0  0  0  0  0  0
  141.0030   69.4420  227.8110 C   0  0  0  0  0  0  0  0  0  0  0  0
  140.4690   68.1800  228.0910 C   0  0  0  0  0  0  0  0  0  0  0  0
  139.5960   67.6140  227.1940 C   0  0  0  0  0  0  0  0  0  0  0  0
  139.2110   68.2230  226.0200 C   0  0  0  0  0  0  0  0  0  0  0  0
  139.7370   69.4700  225.7380 C   0  0  0  0  0  0  0  0  0  0  0  0
  139.3710   70.0850  224.5880 N   0  0  0  0  0  0  0  0  0  0  0  0
  142.4012   74.8577  221.4165 H   0  0  0  0  0  0  0  0  0  0  0  0
  140.9384   74.4802  220.4447 H   0  0  0  0  0  0  0  0  0  0  0  0
  141.6116   76.1456  220.4447 H   0  0  0  0  0  0  0  0  0  0  0  0
  142.1939   77.5620  222.5703 H   0  0  0  0  0  0  0  0  0  0  0  0
  141.4933   79.8944  223.2363 H   0  0  0  0  0  0  0  0  0  0  0  0
  139.0686   80.3203  223.5143 H   0  0  0  0  0  0  0  0  0  0  0  0
  137.3970   78.5771  223.1622 H   0  0  0  0  0  0  0  0  0  0  0  0
  137.2053   76.0564  223.4906 H   0  0  0  0  0  0  0  0  0  0  0  0
  137.1845   76.4123  221.6505 H   0  0  0  0  0  0  0  0  0  0  0  0
  138.9420   74.3290  222.7060 H   0  0  0  0  0  0  0  0  0  0  0  0
  137.0707   71.8212  220.6933 H   0  0  0  0  0  0  0  0  0  0  0  0
  138.7933   72.4345  220.5698 H   0  0  0  0  0  0  0  0  0  0  0  0
  137.6440   70.9670  222.8610 H   0  0  0  0  0  0  0  0  0  0  0  0
  141.1384   72.8673  224.9186 H   0  0  0  0  0  0  0  0  0  0  0  0
  141.8197   71.7945  226.9986 H   0  0  0  0  0  0  0  0  0  0  0  0
  141.7041   69.9293  228.5046 H   0  0  0  0  0  0  0  0  0  0  0  0
  140.7436   67.6493  229.0145 H   0  0  0  0  0  0  0  0  0  0  0  0
  139.1823   66.6214  227.4256 H   0  0  0  0  0  0  0  0  0  0  0  0
  138.5083   67.7333  225.3297 H   0  0  0  0  0  0  0  0  0  0  0  0
  1  2  1  0
  2  3  1  0
  3  4  2  0
  4  5  1  0
  5  6  2  0
  6  7  1  0
  7  8  2  0
  8  9  1  0
  9 10  1  0
 10 11  1  0
 11 12  2  0
 11 13  1  0
 13 14  1  0
 14 15  1  0
 15 16  2  0
 15 17  1  0
 17 18  2  0
 18 19  1  0
 19 20  2  0
 20 21  1  0
 21 22  2  0
 22 23  1  0
 23 24  2  0
 24 25  1  0
 25 26  2  0
  8  3  1  0
 26 17  1  0
 25 20  1  0
  1 27  1  0
  1 28  1  0
  1 29  1  0
  4 30  1  0
  5 31  1  0
  6 32  1  0
  7 33  1  0
  9 34  1  0
  9 35  1  0
 10 36  1  0
 13 37  1  0
 13 38  1  0
 14 39  1  0
 18 40  1  0
 19 41  1  0
 21 42  1  0
 22 43  1  0
 23 44  1  0
 24 45  1  0
M  END
>  <smiles>  (3) 
COc1ccccc1CNC(=O)CNC(=O)c1ccc2ccccc2n1

>  <score_type>  (3) 
oracle

>  <origin>  (3) 
autodockgpu

>  <m_score__min__energy>  (3) 
-8.3200000000000003

>  <m_primary>  (3) 
energy

>  <rmsd>  (3) 
3.9089381454015375

>  <m_score__min__rmsd>  (3) 
3.9089381454015375

>  <meeko>  (3) 
{"free_energy": -7.63, "intermolecular_energy": -9.42, "internal_energy": -2.49, "cluster_size": 40, "cluster_id": 2, "rank_in_cluster": 21}

>  <energy>  (3) 
-7.22

>  <cluster_rmsd>  (3) 
1.42

>  <cluster>  (3) 
1

$$$$

     RDKit          3D

 45 47  0  0  0  0  0  0  0  0999 V2000
  137.4880   79.5350  223.1070 C   0  0  0  0  0  0  0  0  0  0  0  0
  138.6790   78.8220  223.0920 O   0  0  0  0  0  0  0  0  0  0  0  0
  139.9610   79.3090  223.1660 C   0  0  0  0  0  0  0  0  0  0  0  0
  140.0910   80.6810  223.3950 C   0  0  0  0  0  0  0  0  0  0  0  0
  141.3540   81.2710  223.4960 C   0  0  0  0  0  0  0  0  0  0  0  0
  142.4260   80.4280  223.3580 C   0  0  0  0  0  0  0  0  0  0  0  0
  142.2940   79.0750  223.1330 C   0  0  0  0  0  0  0  0  0  0  0  0
  141.0290   78.4680  223.0280 C   0  0  0  0  0  0  0  0  0  0  0  0
  141.0150   77.0430  222.7360 C   0  0  0  0  0  0  0  0  0  0  0  0
  139.8200   76.4400  222.2760 N   0  0  0  0  0  0  0  0  0  0  0  0
  139.5080   75.1190  221.9540 C   0  0  0  0  0  0  0  0  0  0  0  0
  140.3710   74.2110  222.0650 O   0  0  0  0  0  0  0  0  0  0  0  0
  138.1740   74.6570  221.4670 C   0  0  0  0  0  0  0  0  0  0  0  0
  137.1810   74.5210  222.5010 N   0  0  0  0  0  0  0  0  0  0  0  0
  136.5330   75.7050  223.0150 C   0  0  0  0  0  0  0  0  0  0  0  0
  136.8050   76.8560  222.5800 O   0  0  0  0  0  0  0  0  0  0  0  0
  135.5360   75.5630  224.0680 C   0  0  0  0  0  0  0  0  0  0  0  0
  134.8940   76.6790  224.5660 C   0  0  0  0  0  0  0  0  0  0  0  0
  133.9530   76.6360  225.5470 C   0  0  0  0  0  0  0  0  0  0  0  0
  133.6110   75.4280  226.0820 C   0  0  0  0  0  0  0  0  0  0  0  0
  132.6590   75.3650  227.0770 C   0  0  0  0  0  0  0  0  0  0  0  0
  132.3410   74.1050  227.5940 C   0  0  0  0  0  0  0  0  0  0  0  0
  132.9840   72.9990  227.0940 C   0  0  0  0  0  0  0  0  0  0  0  0
  133.9350   73.0580  226.0990 C   0  0  0  0  0  0  0  0  0  0  0  0
  134.2530   74.3010  225.5850 C   0  0  0  0  0  0  0  0  0  0  0  0
  135.1870   74.3800  224.6060 N   0  0  0  0  0  0  0  0  0  0  0  0
  137.1830   79.7176  224.1480 H   0  0  0  0  0  0  0  0  0  0  0  0
  137.6300   80.4968  222.5924 H   0  0  0  0  0  0  0  0  0  0  0  0
  136.7073   78.9556  222.5924 H   0  0  0  0  0  0  0  0  0  0  0  0
  139.1898   81.3035  223.4969 H   0  0  0  0  0  0  0  0  0  0  0  0
  141.4804   82.3488  223.6757 H   0  0  0  0  0  0  0  0  0  0  0  0
  143.4387   80.8513  223.4302 H   0  0  0  0  0  0  0  0  0  0  0  0
  143.1976   78.4557  223.0332 H   0  0  0  0  0  0  0  0  0  0  0  0
  141.7803   76.8661  221.9659 H   0  0  0  0  0  0  0  0  0  0  0  0
  141.1805   76.5753  223.7177 H   0  0  0  0  0  0  0  0  0  0  0  0
  138.9800   77.1260  222.1690 H   0  0  0  0  0  0  0  0  0  0  0  0
  137.8056   75.3847  220.7289 H   0  0  0  0  0  0  0  0  0  0  0  0
  138.3241   73.6544  221.0401 H   0  0  0  0  0  0  0  0  0  0  0  0
  136.8840   73.6100  222.9220 H   0  0  0  0  0  0  0  0  0  0  0  0
  135.1589   77.6601  224.1449 H   0  0  0  0  0  0  0  0  0  0  0  0
  133.4751   77.5604  225.9036 H   0  0  0  0  0  0  0  0  0  0  0  0
  132.1664   76.2745  227.4515 H   0  0  0  0  0  0  0  0  0  0  0  0
  131.5876   74.0013  228.3888 H   0  0  0  0  0  0  0  0  0  0  0  0
  132.7259   72.0140  227.5101 H   0  0  0  0  0  0  0  0  0  0  0  0
  134.4248   72.1464  225.7261 H   0  0  0  0  0  0  0  0  0  0  0  0
  1  2  1  0
  2  3  1  0
  3  4  2  0
  4  5  1  0
  5  6  2  0
  6  7  1  0
  7  8  2  0
  8  9  1  0
  9 10  1  0
 10 11  1  0
 11 12  2  0
 11 13  1  0
 13 14  1  0
 14 15  1  0
 15 16  2  0
 15 17  1  0
 17 18  2  0
 18 19  1  0
 19 20  2  0
 20 21  1  0
 21 22  2  0
 22 23  1  0
 23 24  2  0
 24 25  1  0
 25 26  2  0
  8  3  1  0
 26 17  1  0
 25 20  1  0
  1 27  1  0
  1 28  1  0
  1 29  1  0
  4 30  1  0
  5 31  1  0
  6 32  1  0
  7 33  1  0
  9 34  1  0
  9 35  1  0
 10 36  1  0
 13 37  1  0
 13 38  1  0
 14 39  1  0
 18 40  1  0
 19 41  1  0
 21 42  1  0
 22 43  1  0
 23 44  1  0
 24 45  1  0
M  END
>  <smiles>  (4) 
COc1ccccc1CNC(=O)CNC(=O)c1ccc2ccccc2n1

>  <score_type>  (4) 
oracle

>  <origin>  (4) 
autodockgpu

>  <m_score__min__energy>  (4) 
-8.3200000000000003

>  <m_primary>  (4) 
energy

>  <rmsd>  (4) 
6.776116299300263

>  <m_score__min__rmsd>  (4) 
6.776116299300263

>  <meeko>  (4) 
{"free_energy": -6.68, "intermolecular_energy": -8.47, "internal_energy": -2.48, "cluster_size": 1, "cluster_id": 6, "rank_in_cluster": 1}

>  <energy>  (4) 
-7.12

>  <cluster_rmsd>  (4) 
1.95

>  <cluster>  (4) 
1

$$$$

     RDKit          3D

 45 47  0  0  0  0  0  0  0  0999 V2000
  141.3980   75.3860  220.9730 C   0  0  0  0  0  0  0  0  0  0  0  0
  140.7310   75.7300  222.1410 O   0  0  0  0  0  0  0  0  0  0  0  0
  140.2630   76.9650  222.5190 C   0  0  0  0  0  0  0  0  0  0  0  0
  141.2210   77.9690  222.6790 C   0  0  0  0  0  0  0  0  0  0  0  0
  140.8440   79.2620  223.0540 C   0  0  0  0  0  0  0  0  0  0  0  0
  139.5020   79.4660  223.2470 C   0  0  0  0  0  0  0  0  0  0  0  0
  138.5600   78.4730  223.0880 C   0  0  0  0  0  0  0  0  0  0  0  0
  138.9260   77.1670  222.7130 C   0  0  0  0  0  0  0  0  0  0  0  0
  137.8510   76.1910  222.6290 C   0  0  0  0  0  0  0  0  0  0  0  0
  138.1490   74.8600  222.2510 N   0  0  0  0  0  0  0  0  0  0  0  0
  137.4990   73.9660  221.4010 C   0  0  0  0  0  0  0  0  0  0  0  0
  136.4480   74.3030  220.7980 O   0  0  0  0  0  0  0  0  0  0  0  0
  137.9600   72.5720  221.1220 C   0  0  0  0  0  0  0  0  0  0  0  0
  138.3100   71.8190  222.2970 N   0  0  0  0  0  0  0  0  0  0  0  0
  139.5410   72.1220  222.9870 C   0  0  0  0  0  0  0  0  0  0  0  0
  140.3180   73.0340  222.5960 O   0  0  0  0  0  0  0  0  0  0  0  0
  139.8960   71.3490  224.1710 C   0  0  0  0  0  0  0  0  0  0  0  0
  140.7330   71.8940  225.1250 C   0  0  0  0  0  0  0  0  0  0  0  0
  141.1140   71.2420  226.2570 C   0  0  0  0  0  0  0  0  0  0  0  0
  140.6530   69.9770  226.4780 C   0  0  0  0  0  0  0  0  0  0  0  0
  141.0280   69.3020  227.6200 C   0  0  0  0  0  0  0  0  0  0  0  0
  140.5300   68.0080  227.8050 C   0  0  0  0  0  0  0  0  0  0  0  0
  139.6980   67.4740  226.8510 C   0  0  0  0  0  0  0  0  0  0  0  0
  139.3200   68.1460  225.7100 C   0  0  0  0  0  0  0  0  0  0  0  0
  139.8100   69.4250  225.5230 C   0  0  0  0  0  0  0  0  0  0  0  0
  139.4500   70.1010  224.4050 N   0  0  0  0  0  0  0  0  0  0  0  0
  142.3496   74.8952  221.2251 H   0  0  0  0  0  0  0  0  0  0  0  0
  140.7747   74.6969  220.3842 H   0  0  0  0  0  0  0  0  0  0  0  0
  141.5981   76.2933  220.3842 H   0  0  0  0  0  0  0  0  0  0  0  0
  142.2832   77.7399  222.5081 H   0  0  0  0  0  0  0  0  0  0  0  0
  141.5806   80.0681  223.1864 H   0  0  0  0  0  0  0  0  0  0  0  0
  139.1614   80.4693  223.5426 H   0  0  0  0  0  0  0  0  0  0  0  0
  137.4985   78.7063  223.2579 H   0  0  0  0  0  0  0  0  0  0  0  0
  137.3821   76.1445  223.6229 H   0  0  0  0  0  0  0  0  0  0  0  0
  137.2277   76.5621  221.8021 H   0  0  0  0  0  0  0  0  0  0  0  0
  139.0640   74.4610  222.6890 H   0  0  0  0  0  0  0  0  0  0  0  0
  137.1516   72.0396  220.5995 H   0  0  0  0  0  0  0  0  0  0  0  0
  138.8752   72.6573  220.5177 H   0  0  0  0  0  0  0  0  0  0  0  0
  137.7290   71.0470  222.7030 H   0  0  0  0  0  0  0  0  0  0  0  0
  141.1132   72.9130  224.9603 H   0  0  0  0  0  0  0  0  0  0  0  0
  141.7833   71.7273  226.9827 H   0  0  0  0  0  0  0  0  0  0  0  0
  141.6963   69.7653  228.3608 H   0  0  0  0  0  0  0  0  0  0  0  0
  140.8001   67.4276  228.6995 H   0  0  0  0  0  0  0  0  0  0  0  0
  139.3133   66.4553  227.0069 H   0  0  0  0  0  0  0  0  0  0  0  0
  138.6504   67.6805  224.9719 H   0  0  0  0  0  0  0  0  0  0  0  0
  1  2  1  0
  2  3  1  0
  3  4  2  0
  4  5  1  0
  5  6  2  0
  6  7  1  0
  7  8  2  0
  8  9  1  0
  9 10  1  0
 10 11  1  0
 11 12  2  0
 11 13  1  0
 13 14  1  0
 14 15  1  0
 15 16  2  0
 15 17  1  0
 17 18  2  0
 18 19  1  0
 19 20  2  0
 20 21  1  0
 21 22  2  0
 22 23  1  0
 23 24  2  0
 24 25  1  0
 25 26  2  0
  8  3  1  0
 26 17  1  0
 25 20  1  0
  1 27  1  0
  1 28  1  0
  1 29  1  0
  4 30  1  0
  5 31  1  0
  6 32  1  0
  7 33  1  0
  9 34  1  0
  9 35  1  0
 10 36  1  0
 13 37  1  0
 13 38  1  0
 14 39  1  0
 18 40  1  0
 19 41  1  0
 21 42  1  0
 22 43  1  0
 23 44  1  0
 24 45  1  0
M  END
>  <smiles>  (5) 
COc1ccccc1CNC(=O)CNC(=O)c1ccc2ccccc2n1

>  <score_type>  (5) 
oracle

>  <origin>  (5) 
autodockgpu

>  <m_score__min__energy>  (5) 
-8.3200000000000003

>  <m_primary>  (5) 
energy

>  <rmsd>  (5) 
3.9267859821276194

>  <m_score__min__rmsd>  (5) 
3.9267859821276194

>  <meeko>  (5) 
{"free_energy": -7.63, "intermolecular_energy": -9.42, "internal_energy": -2.49, "cluster_size": 40, "cluster_id": 2, "rank_in_cluster": 25}

>  <energy>  (5) 
-8.15

>  <cluster_rmsd>  (5) 
0.0

>  <cluster>  (5) 
2

$$$$

     RDKit          3D

 45 47  0  0  0  0  0  0  0  0999 V2000
  139.6380   67.6640  226.1130 C   0  0  0  0  0  0  0  0  0  0  0  0
  139.2010   68.9670  226.3100 O   0  0  0  0  0  0  0  0  0  0  0  0
  139.9520   70.0790  226.6060 C   0  0  0  0  0  0  0  0  0  0  0  0
  140.3300   70.2340  227.9420 C   0  0  0  0  0  0  0  0  0  0  0  0
  141.1010   71.3290  228.3430 C   0  0  0  0  0  0  0  0  0  0  0  0
  141.4510   72.2140  227.3550 C   0  0  0  0  0  0  0  0  0  0  0  0
  141.0750   72.0560  226.0380 C   0  0  0  0  0  0  0  0  0  0  0  0
  140.2980   70.9610  225.6220 C   0  0  0  0  0  0  0  0  0  0  0  0
  139.9190   70.9300  224.2180 C   0  0  0  0  0  0  0  0  0  0  0  0
  140.5890   71.7740  223.2990 N   0  0  0  0  0  0  0  0  0  0  0  0
  140.1180   72.5860  222.2680 C   0  0  0  0  0  0  0  0  0  0  0  0
  138.8860   72.6680  222.0270 O   0  0  0  0  0  0  0  0  0  0  0  0
  140.9850   73.4150  221.3770 C   0  0  0  0  0  0  0  0  0  0  0  0
  141.1770   74.7670  221.8310 N   0  0  0  0  0  0  0  0  0  0  0  0
  140.0330   75.6380  221.9540 C   0  0  0  0  0  0  0  0  0  0  0  0
  138.8660   75.2480  221.6830 O   0  0  0  0  0  0  0  0  0  0  0  0
  140.2350   77.0100  222.4050 C   0  0  0  0  0  0  0  0  0  0  0  0
  139.1460   77.8050  222.7040 C   0  0  0  0  0  0  0  0  0  0  0  0
  139.2450   79.0930  223.1300 C   0  0  0  0  0  0  0  0  0  0  0  0
  140.4830   79.6480  223.2750 C   0  0  0  0  0  0  0  0  0  0  0  0
  140.6030   80.9520  223.7060 C   0  0  0  0  0  0  0  0  0  0  0  0
  141.8920   81.4780  223.8410 C   0  0  0  0  0  0  0  0  0  0  0  0
  142.9700   80.6800  223.5410 C   0  0  0  0  0  0  0  0  0  0  0  0
  142.8540   79.3760  223.1110 C   0  0  0  0  0  0  0  0  0  0  0  0
  141.5820   78.8530  222.9770 C   0  0  0  0  0  0  0  0  0  0  0  0
  141.4480   77.5720  222.5540 N   0  0  0  0  0  0  0  0  0  0  0  0
  139.8002   67.1804  227.0876 H   0  0  0  0  0  0  0  0  0  0  0  0
  138.8785   67.1041  225.5477 H   0  0  0  0  0  0  0  0  0  0  0  0
  140.5815   67.6752  225.5477 H   0  0  0  0  0  0  0  0  0  0  0  0
  140.0177   69.4866  228.6862 H   0  0  0  0  0  0  0  0  0  0  0  0
  141.4089   71.4725  229.3892 H   0  0  0  0  0  0  0  0  0  0  0  0
  142.0593   73.0895  227.6258 H   0  0  0  0  0  0  0  0  0  0  0  0
  141.3903   72.8041  225.2957 H   0  0  0  0  0  0  0  0  0  0  0  0
  140.0645   69.8969  223.8694 H   0  0  0  0  0  0  0  0  0  0  0  0
  138.8880   71.3133  224.2187 H   0  0  0  0  0  0  0  0  0  0  0  0
  141.6700   71.8130  223.4280 H   0  0  0  0  0  0  0  0  0  0  0  0
  141.9705   72.9313  221.3077 H   0  0  0  0  0  0  0  0  0  0  0  0
  140.4714   73.4779  220.4063 H   0  0  0  0  0  0  0  0  0  0  0  0
  142.1050   75.1820  222.0850 H   0  0  0  0  0  0  0  0  0  0  0  0
  138.1412   77.3719  222.5912 H   0  0  0  0  0  0  0  0  0  0  0  0
  138.3409   79.6781  223.3542 H   0  0  0  0  0  0  0  0  0  0  0  0
  139.7147   81.5586  223.9360 H   0  0  0  0  0  0  0  0  0  0  0  0
  142.0405   82.5133  224.1817 H   0  0  0  0  0  0  0  0  0  0  0  0
  143.9788   81.1048  223.6499 H   0  0  0  0  0  0  0  0  0  0  0  0
  143.7441   78.7716  222.8821 H   0  0  0  0  0  0  0  0  0  0  0  0
  1  2  1  0
  2  3  1  0
  3  4  2  0
  4  5  1  0
  5  6  2  0
  6  7  1  0
  7  8  2  0
  8  9  1  0
  9 10  1  0
 10 11  1  0
 11 12  2  0
 11 13  1  0
 13 14  1  0
 14 15  1  0
 15 16  2  0
 15 17  1  0
 17 18  2  0
 18 19  1  0
 19 20  2  0
 20 21  1  0
 21 22  2  0
 22 23  1  0
 23 24  2  0
 24 25  1  0
 25 26  2  0
  8  3  1  0
 26 17  1  0
 25 20  1  0
  1 27  1  0
  1 28  1  0
  1 29  1  0
  4 30  1  0
  5 31  1  0
  6 32  1  0
  7 33  1  0
  9 34  1  0
  9 35  1  0
 10 36  1  0
 13 37  1  0
 13 38  1  0
 14 39  1  0
 18 40  1  0
 19 41  1  0
 21 42  1  0
 22 43  1  0
 23 44  1  0
 24 45  1  0
M  END
>  <smiles>  (6) 
COc1ccccc1CNC(=O)CNC(=O)c1ccc2ccccc2n1

>  <score_type>  (6) 
oracle

>  <origin>  (6) 
autodockgpu

>  <m_score__min__energy>  (6) 
-8.3200000000000003

>  <m_primary>  (6) 
energy

>  <rmsd>  (6) 
8.62348927070211

>  <m_score__min__rmsd>  (6) 
8.62348927070211

>  <meeko>  (6) 
{"free_energy": -8.32, "intermolecular_energy": -10.11, "internal_energy": -0.99, "cluster_size": 4, "cluster_id": 1, "rank_in_cluster": 1}

>  <energy>  (6) 
-8.15

>  <cluster_rmsd>  (6) 
0.12

>  <cluster>  (6) 
2

$$$$

     RDKit          3D

 45 47  0  0  0  0  0  0  0  0999 V2000
  138.7370   68.0100  223.2600 C   0  0  0  0  0  0  0  0  0  0  0  0
  138.6610   68.3800  224.5960 O   0  0  0  0  0  0  0  0  0  0  0  0
  139.4490   69.2790  225.2740 C   0  0  0  0  0  0  0  0  0  0  0  0
  140.3120   68.7450  226.2340 C   0  0  0  0  0  0  0  0  0  0  0  0
  141.1610   69.5760  226.9710 C   0  0  0  0  0  0  0  0  0  0  0  0
  141.0850   70.9160  226.6910 C   0  0  0  0  0  0  0  0  0  0  0  0
  140.2320   71.4380  225.7430 C   0  0  0  0  0  0  0  0  0  0  0  0
  139.3720   70.6140  224.9950 C   0  0  0  0  0  0  0  0  0  0  0  0
  138.4790   71.2840  224.0620 C   0  0  0  0  0  0  0  0  0  0  0  0
  139.0260   72.0930  223.0370 N   0  0  0  0  0  0  0  0  0  0  0  0
  140.0580   71.8700  222.1270 C   0  0  0  0  0  0  0  0  0  0  0  0
  140.6830   70.7780  222.1200 O   0  0  0  0  0  0  0  0  0  0  0  0
  140.5150   72.8570  221.1030 C   0  0  0  0  0  0  0  0  0  0  0  0
  140.6660   74.1990  221.6010 N   0  0  0  0  0  0  0  0  0  0  0  0
  139.4930   75.0240  221.7710 C   0  0  0  0  0  0  0  0  0  0  0  0
  138.3370   74.6010  221.5030 O   0  0  0  0  0  0  0  0  0  0  0  0
  139.6530   76.3850  222.2670 C   0  0  0  0  0  0  0  0  0  0  0  0
  138.5400   77.1360  222.5910 C   0  0  0  0  0  0  0  0  0  0  0  0
  138.6000   78.4120  223.0580 C   0  0  0  0  0  0  0  0  0  0  0  0
  139.8200   78.9990  223.2230 C   0  0  0  0  0  0  0  0  0  0  0  0
  139.9000   80.2920  223.6970 C   0  0  0  0  0  0  0  0  0  0  0  0
  141.1720   80.8520  223.8490 C   0  0  0  0  0  0  0  0  0  0  0  0
  142.2740   80.0980  223.5250 C   0  0  0  0  0  0  0  0  0  0  0  0
  142.1980   78.8070  223.0520 C   0  0  0  0  0  0  0  0  0  0  0  0
  140.9420   78.2490  222.8990 C   0  0  0  0  0  0  0  0  0  0  0  0
  140.8480   76.9790  222.4350 N   0  0  0  0  0  0  0  0  0  0  0  0
  138.9579   66.9347  223.1893 H   0  0  0  0  0  0  0  0  0  0  0  0
  137.7769   68.2203  222.7661 H   0  0  0  0  0  0  0  0  0  0  0  0
  139.5364   68.5818  222.7661 H   0  0  0  0  0  0  0  0  0  0  0  0
  140.3237   67.6595  226.4119 H   0  0  0  0  0  0  0  0  0  0  0  0
  141.8496   69.1781  227.7309 H   0  0  0  0  0  0  0  0  0  0  0  0
  141.7349   71.6062  227.2488 H   0  0  0  0  0  0  0  0  0  0  0  0
  140.2235   72.5238  225.5673 H   0  0  0  0  0  0  0  0  0  0  0  0
  137.8840   70.5010  223.5693 H   0  0  0  0  0  0  0  0  0  0  0  0
  137.9323   71.9995  224.6938 H   0  0  0  0  0  0  0  0  0  0  0  0
  138.5430   73.0630  222.9220 H   0  0  0  0  0  0  0  0  0  0  0  0
  141.4875   72.5229  220.7122 H   0  0  0  0  0  0  0  0  0  0  0  0
  139.7337   72.8937  220.3295 H   0  0  0  0  0  0  0  0  0  0  0  0
  141.5820   74.6380  221.8560 H   0  0  0  0  0  0  0  0  0  0  0  0
  137.5489   76.6760  222.4642 H   0  0  0  0  0  0  0  0  0  0  0  0
  137.6785   78.9623  223.2990 H   0  0  0  0  0  0  0  0  0  0  0  0
  138.9937   80.8631  223.9469 H   0  0  0  0  0  0  0  0  0  0  0  0
  141.2887   81.8802  224.2221 H   0  0  0  0  0  0  0  0  0  0  0  0
  143.2693   80.5494  223.6500 H   0  0  0  0  0  0  0  0  0  0  0  0
  143.1064   78.2383  222.8041 H   0  0  0  0  0  0  0  0  0  0  0  0
  1  2  1  0
  2  3  1  0
  3  4  2  0
  4  5  1  0
  5  6  2  0
  6  7  1  0
  7  8  2  0
  8  9  1  0
  9 10  1  0
 10 11  1  0
 11 12  2  0
 11 13  1  0
 13 14  1  0
 14 15  1  0
 15 16  2  0
 15 17  1  0
 17 18  2  0
 18 19  1  0
 19 20  2  0
 20 21  1  0
 21 22  2  0
 22 23  1  0
 23 24  2  0
 24 25  1  0
 25 26  2  0
  8  3  1  0
 26 17  1  0
 25 20  1  0
  1 27  1  0
  1 28  1  0
  1 29  1  0
  4 30  1  0
  5 31  1  0
  6 32  1  0
  7 33  1  0
  9 34  1  0
  9 35  1  0
 10 36  1  0
 13 37  1  0
 13 38  1  0
 14 39  1  0
 18 40  1  0
 19 41  1  0
 21 42  1  0
 22 43  1  0
 23 44  1  0
 24 45  1  0
M  END
>  <smiles>  (7) 
COc1ccccc1CNC(=O)CNC(=O)c1ccc2ccccc2n1

>  <score_type>  (7) 
oracle

>  <origin>  (7) 
autodockgpu

>  <m_score__min__energy>  (7) 
-8.3200000000000003

>  <m_primary>  (7) 
energy

>  <rmsd>  (7) 
8.234105570014556

>  <m_score__min__rmsd>  (7) 
8.234105570014556

>  <meeko>  (7) 
{"free_energy": -7.22, "intermolecular_energy": -9.01, "internal_energy": -1.93, "cluster_size": 4, "cluster_id": 1, "rank_in_cluster": 3}

>  <energy>  (7) 
-8.09

>  <cluster_rmsd>  (7) 
0.22

>  <cluster>  (7) 
2

$$$$

     RDKit          3D

 45 47  0  0  0  0  0  0  0  0999 V2000
  141.5190   75.3140  220.9560 C   0  0  0  0  0  0  0  0  0  0  0  0
  140.7690   75.6800  222.0650 O   0  0  0  0  0  0  0  0  0  0  0  0
  140.3670   76.9390  222.4400 C   0  0  0  0  0  0  0  0  0  0  0  0
  141.3700   77.9080  222.5320 C   0  0  0  0  0  0  0  0  0  0  0  0
  141.0610   79.2220  222.8980 C   0  0  0  0  0  0  0  0  0  0  0  0
  139.7390   79.4820  223.1530 C   0  0  0  0  0  0  0  0  0  0  0  0
  138.7540   78.5230  223.0610 C   0  0  0  0  0  0  0  0  0  0  0  0
  139.0500   77.1980  222.6950 C   0  0  0  0  0  0  0  0  0  0  0  0
  137.9360   76.2620  222.6840 C   0  0  0  0  0  0  0  0  0  0  0  0
  138.1610   74.9180  222.3000 N   0  0  0  0  0  0  0  0  0  0  0  0
  137.4240   74.0430  221.5040 C   0  0  0  0  0  0  0  0  0  0  0  0
  136.3480   74.4130  220.9680 O   0  0  0  0  0  0  0  0  0  0  0  0
  137.8140   72.6310  221.2090 C   0  0  0  0  0  0  0  0  0  0  0  0
  138.1970   71.8690  222.3680 N   0  0  0  0  0  0  0  0  0  0  0  0
  139.4790   72.1180  222.9830 C   0  0  0  0  0  0  0  0  0  0  0  0
  140.2730   72.9900  222.5400 O   0  0  0  0  0  0  0  0  0  0  0  0
  139.8660   71.3360  224.1510 C   0  0  0  0  0  0  0  0  0  0  0  0
  140.7420   71.8670  225.0760 C   0  0  0  0  0  0  0  0  0  0  0  0
  141.1550   71.2060  226.1920 C   0  0  0  0  0  0  0  0  0  0  0  0
  140.6870   69.9460  226.4250 C   0  0  0  0  0  0  0  0  0  0  0  0
  141.0940   69.2610  227.5510 C   0  0  0  0  0  0  0  0  0  0  0  0
  140.5870   67.9730  227.7480 C   0  0  0  0  0  0  0  0  0  0  0  0
  139.7150   67.4520  226.8220 C   0  0  0  0  0  0  0  0  0  0  0  0
  139.3060   68.1340  225.6970 C   0  0  0  0  0  0  0  0  0  0  0  0
  139.8050   69.4080  225.4980 C   0  0  0  0  0  0  0  0  0  0  0  0
  139.4140   70.0930  224.3960 N   0  0  0  0  0  0  0  0  0  0  0  0
  142.4619   74.8539  221.2866 H   0  0  0  0  0  0  0  0  0  0  0  0
  140.9509   74.5919  220.3512 H   0  0  0  0  0  0  0  0  0  0  0  0
  141.7387   76.2062  220.3512 H   0  0  0  0  0  0  0  0  0  0  0  0
  142.4130   77.6344  222.3143 H   0  0  0  0  0  0  0  0  0  0  0  0
  141.8333   80.0013  222.9767 H   0  0  0  0  0  0  0  0  0  0  0  0
  139.4517   80.5031  223.4444 H   0  0  0  0  0  0  0  0  0  0  0  0
  137.7121   78.8003  223.2789 H   0  0  0  0  0  0  0  0  0  0  0  0
  137.5265   76.2393  223.7047 H   0  0  0  0  0  0  0  0  0  0  0  0
  137.2782   76.6511  221.8929 H   0  0  0  0  0  0  0  0  0  0  0  0
  139.0870   74.4890  222.6810 H   0  0  0  0  0  0  0  0  0  0  0  0
  136.9582   72.1291  220.7339 H   0  0  0  0  0  0  0  0  0  0  0  0
  138.6979   72.6777  220.5560 H   0  0  0  0  0  0  0  0  0  0  0  0
  137.6060   71.1270  222.8130 H   0  0  0  0  0  0  0  0  0  0  0  0
  141.1284   72.8820  224.9015 H   0  0  0  0  0  0  0  0  0  0  0  0
  141.8553   71.6805  226.8951 H   0  0  0  0  0  0  0  0  0  0  0  0
  141.7937   69.7128  228.2695 H   0  0  0  0  0  0  0  0  0  0  0  0
  140.8814   67.3857  228.6303 H   0  0  0  0  0  0  0  0  0  0  0  0
  139.3233   66.4376  226.9878 H   0  0  0  0  0  0  0  0  0  0  0  0
  138.6055   67.6799  224.9807 H   0  0  0  0  0  0  0  0  0  0  0  0
  1  2  1  0
  2  3  1  0
  3  4  2  0
  4  5  1  0
  5  6  2  0
  6  7  1  0
  7  8  2  0
  8  9  1  0
  9 10  1  0
 10 11  1  0
 11 12  2  0
 11 13  1  0
 13 14  1  0
 14 15  1  0
 15 16  2  0
 15 17  1  0
 17 18  2  0
 18 19  1  0
 19 20  2  0
 20 21  1  0
 21 22  2  0
 22 23  1  0
 23 24  2  0
 24 25  1  0
 25 26  2  0
  8  3  1  0
 26 17  1  0
 25 20  1  0
  1 27  1  0
  1 28  1  0
  1 29  1  0
  4 30  1  0
  5 31  1  0
  6 32  1  0
  7 33  1  0
  9 34  1  0
  9 35  1  0
 10 36  1  0
 13 37  1  0
 13 38  1  0
 14 39  1  0
 18 40  1  0
 19 41  1  0
 21 42  1  0
 22 43  1  0
 23 44  1  0
 24 45  1  0
M  END
>  <smiles>  (8) 
COc1ccccc1CNC(=O)CNC(=O)c1ccc2ccccc2n1

>  <score_type>  (8) 
oracle

>  <origin>  (8) 
autodockgpu

>  <m_score__min__energy>  (8) 
-8.3200000000000003

>  <m_primary>  (8) 
energy

>  <rmsd>  (8) 
3.901592262791671

>  <m_score__min__rmsd>  (8) 
3.901592262791671

>  <meeko>  (8) 
{"free_energy": -7.58, "intermolecular_energy": -9.37, "internal_energy": -2.48, "cluster_size": 40, "cluster_id": 2, "rank_in_cluster": 31}

>  <energy>  (8) 
-8.08

>  <cluster_rmsd>  (8) 
1.4

>  <cluster>  (8) 
2

$$$$

     RDKit          3D

 45 47  0  0  0  0  0  0  0  0999 V2000
  138.3140   78.5830  222.9450 C   0  0  0  0  0  0  0  0  0  0  0  0
  139.3270   79.1310  222.1710 O   0  0  0  0  0  0  0  0  0  0  0  0
  140.5680   79.5610  222.5780 C   0  0  0  0  0  0  0  0  0  0  0  0
  140.5910   80.6570  223.4440 C   0  0  0  0  0  0  0  0  0  0  0  0
  141.8030   81.1640  223.9210 C   0  0  0  0  0  0  0  0  0  0  0  0
  142.9360   80.5240  223.4890 C   0  0  0  0  0  0  0  0  0  0  0  0
  142.9080   79.4430  222.6340 C   0  0  0  0  0  0  0  0  0  0  0  0
  141.6960   78.9240  222.1460 C   0  0  0  0  0  0  0  0  0  0  0  0
  141.7950   77.8150  221.2090 C   0  0  0  0  0  0  0  0  0  0  0  0
  140.7730   76.8360  221.1800 N   0  0  0  0  0  0  0  0  0  0  0  0
  140.8180   75.4440  221.2380 C   0  0  0  0  0  0  0  0  0  0  0  0
  141.9160   74.8400  221.3460 O   0  0  0  0  0  0  0  0  0  0  0  0
  139.6190   74.5540  221.1840 C   0  0  0  0  0  0  0  0  0  0  0  0
  139.4840   73.6740  222.3160 N   0  0  0  0  0  0  0  0  0  0  0  0
  140.3440   72.5200  222.4180 C   0  0  0  0  0  0  0  0  0  0  0  0
  141.2180   72.2620  221.5480 O   0  0  0  0  0  0  0  0  0  0  0  0
  140.1970   71.6280  223.5610 C   0  0  0  0  0  0  0  0  0  0  0  0
  139.5070   70.4400  223.4240 C   0  0  0  0  0  0  0  0  0  0  0  0
  139.3230   69.5520  224.4390 C   0  0  0  0  0  0  0  0  0  0  0  0
  139.8420   69.8350  225.6680 C   0  0  0  0  0  0  0  0  0  0  0  0
  139.6660   68.9470  226.7070 C   0  0  0  0  0  0  0  0  0  0  0  0
  140.2160   69.2800  227.9490 C   0  0  0  0  0  0  0  0  0  0  0  0
  140.9010   70.4640  228.0770 C   0  0  0  0  0  0  0  0  0  0  0  0
  141.0790   71.3540  227.0400 C   0  0  0  0  0  0  0  0  0  0  0  0
  140.5370   71.0290  225.8110 C   0  0  0  0  0  0  0  0  0  0  0  0
  140.7020   71.8920  224.7800 N   0  0  0  0  0  0  0  0  0  0  0  0
  138.5551   78.7134  224.0103 H   0  0  0  0  0  0  0  0  0  0  0  0
  137.3646   79.0905  222.7191 H   0  0  0  0  0  0  0  0  0  0  0  0
  138.2193   77.5106  222.7191 H   0  0  0  0  0  0  0  0  0  0  0  0
  139.6454   81.1259  223.7537 H   0  0  0  0  0  0  0  0  0  0  0  0
  141.8454   82.0260  224.6031 H   0  0  0  0  0  0  0  0  0  0  0  0
  143.9119   80.8899  223.8407 H   0  0  0  0  0  0  0  0  0  0  0  0
  143.8553   78.9760  222.3267 H   0  0  0  0  0  0  0  0  0  0  0  0
  141.8493   78.2514  220.2007 H   0  0  0  0  0  0  0  0  0  0  0  0
  142.6772   77.2585  221.5583 H   0  0  0  0  0  0  0  0  0  0  0  0
  139.7630   77.2400  221.1190 H   0  0  0  0  0  0  0  0  0  0  0  0
  138.7214   75.1877  221.1310 H   0  0  0  0  0  0  0  0  0  0  0  0
  139.7417   73.9127  220.2987 H   0  0  0  0  0  0  0  0  0  0  0  0
  138.7930   73.8070  223.0910 H   0  0  0  0  0  0  0  0  0  0  0  0
  139.0819   70.1974  222.4389 H   0  0  0  0  0  0  0  0  0  0  0  0
  138.7639   68.6198  224.2705 H   0  0  0  0  0  0  0  0  0  0  0  0
  139.1115   68.0078  226.5643 H   0  0  0  0  0  0  0  0  0  0  0  0
  140.1019   68.6046  228.8097 H   0  0  0  0  0  0  0  0  0  0  0  0
  141.3298   70.7147  229.0585 H   0  0  0  0  0  0  0  0  0  0  0  0
  141.6343   72.2923  227.1857 H   0  0  0  0  0  0  0  0  0  0  0  0
  1  2  1  0
  2  3  1  0
  3  4  2  0
  4  5  1  0
  5  6  2  0
  6  7  1  0
  7  8  2  0
  8  9  1  0
  9 10  1  0
 10 11  1  0
 11 12  2  0
 11 13  1  0
 13 14  1  0
 14 15  1  0
 15 16  2  0
 15 17  1  0
 17 18  2  0
 18 19  1  0
 19 20  2  0
 20 21  1  0
 21 22  2  0
 22 23  1  0
 23 24  2  0
 24 25  1  0
 25 26  2  0
  8  3  1  0
 26 17  1  0
 25 20  1  0
  1 27  1  0
  1 28  1  0
  1 29  1  0
  4 30  1  0
  5 31  1  0
  6 32  1  0
  7 33  1  0
  9 34  1  0
  9 35  1  0
 10 36  1  0
 13 37  1  0
 13 38  1  0
 14 39  1  0
 18 40  1  0
 19 41  1  0
 21 42  1  0
 22 43  1  0
 23 44  1  0
 24 45  1  0
M  END
>  <smiles>  (9) 
COc1ccccc1CNC(=O)CNC(=O)c1ccc2ccccc2n1

>  <score_type>  (9) 
oracle

>  <origin>  (9) 
autodockgpu

>  <m_score__min__energy>  (9) 
-8.3200000000000003

>  <m_primary>  (9) 
energy

>  <rmsd>  (9) 
3.477546156970758

>  <m_score__min__rmsd>  (9) 
3.477546156970758

>  <meeko>  (9) 
{"free_energy": -8.07, "intermolecular_energy": -9.86, "internal_energy": -1.34, "cluster_size": 40, "cluster_id": 2, "rank_in_cluster": 6}

>  <energy>  (9) 
-8.08

>  <cluster_rmsd>  (9) 
0.2

>  <cluster>  (9) 
2

$$$$

     RDKit          3D

 45 47  0  0  0  0  0  0  0  0999 V2000
  141.4460   75.3460  220.9330 C   0  0  0  0  0  0  0  0  0  0  0  0
  140.7860   75.7090  222.0980 O   0  0  0  0  0  0  0  0  0  0  0  0
  140.3690   76.9610  222.4830 C   0  0  0  0  0  0  0  0  0  0  0  0
  141.3600   77.9390  222.5930 C   0  0  0  0  0  0  0  0  0  0  0  0
  141.0360   79.2450  222.9690 C   0  0  0  0  0  0  0  0  0  0  0  0
  139.7090   79.4890  223.2150 C   0  0  0  0  0  0  0  0  0  0  0  0
  138.7340   78.5210  223.1060 C   0  0  0  0  0  0  0  0  0  0  0  0
  139.0470   77.2030  222.7290 C   0  0  0  0  0  0  0  0  0  0  0  0
  137.9420   76.2570  222.7000 C   0  0  0  0  0  0  0  0  0  0  0  0
  138.1850   74.9170  222.3110 N   0  0  0  0  0  0  0  0  0  0  0  0
  137.4760   74.0450  221.4870 C   0  0  0  0  0  0  0  0  0  0  0  0
  136.4140   74.4150  220.9230 O   0  0  0  0  0  0  0  0  0  0  0  0
  137.8820   72.6380  221.1910 C   0  0  0  0  0  0  0  0  0  0  0  0
  138.2450   71.8700  222.3530 N   0  0  0  0  0  0  0  0  0  0  0  0
  139.5080   72.1300  223.0030 C   0  0  0  0  0  0  0  0  0  0  0  0
  140.3010   73.0160  222.5870 O   0  0  0  0  0  0  0  0  0  0  0  0
  139.8750   71.3430  224.1740 C   0  0  0  0  0  0  0  0  0  0  0  0
  140.7430   71.8650  225.1110 C   0  0  0  0  0  0  0  0  0  0  0  0
  141.1380   71.1990  226.2300 C   0  0  0  0  0  0  0  0  0  0  0  0
  140.6570   69.9420  226.4540 C   0  0  0  0  0  0  0  0  0  0  0  0
  141.0450   69.2520  227.5830 C   0  0  0  0  0  0  0  0  0  0  0  0
  140.5270   67.9670  227.7710 C   0  0  0  0  0  0  0  0  0  0  0  0
  139.6630   67.4540  226.8340 C   0  0  0  0  0  0  0  0  0  0  0  0
  139.2730   68.1410  225.7050 C   0  0  0  0  0  0  0  0  0  0  0  0
  139.7830   69.4120  225.5150 C   0  0  0  0  0  0  0  0  0  0  0  0
  139.4100   70.1020  224.4100 N   0  0  0  0  0  0  0  0  0  0  0  0
  142.3835   74.8304  221.1882 H   0  0  0  0  0  0  0  0  0  0  0  0
  140.8061   74.6729  220.3435 H   0  0  0  0  0  0  0  0  0  0  0  0
  141.6717   76.2469  220.3435 H   0  0  0  0  0  0  0  0  0  0  0  0
  142.4074   77.6781  222.3812 H   0  0  0  0  0  0  0  0  0  0  0  0
  141.7999   80.0310  223.0622 H   0  0  0  0  0  0  0  0  0  0  0  0
  139.4089   80.5044  223.5131 H   0  0  0  0  0  0  0  0  0  0  0  0
  137.6876   78.7854  223.3187 H   0  0  0  0  0  0  0  0  0  0  0  0
  137.5209   76.2247  223.7157 H   0  0  0  0  0  0  0  0  0  0  0  0
  137.2892   76.6443  221.9039 H   0  0  0  0  0  0  0  0  0  0  0  0
  139.1030   74.4900  222.7140 H   0  0  0  0  0  0  0  0  0  0  0  0
  137.0403   72.1338  220.6938 H   0  0  0  0  0  0  0  0  0  0  0  0
  138.7797   72.6954  220.5579 H   0  0  0  0  0  0  0  0  0  0  0  0
  137.6520   71.1180  222.7760 H   0  0  0  0  0  0  0  0  0  0  0  0
  141.1384   72.8778  224.9438 H   0  0  0  0  0  0  0  0  0  0  0  0
  141.8338   71.6664  226.9423 H   0  0  0  0  0  0  0  0  0  0  0  0
  141.7387   69.6975  228.3112 H   0  0  0  0  0  0  0  0  0  0  0  0
  140.8069   67.3759  228.6554 H   0  0  0  0  0  0  0  0  0  0  0  0
  139.2617   66.4423  226.9934 H   0  0  0  0  0  0  0  0  0  0  0  0
  138.5788   67.6930  224.9788 H   0  0  0  0  0  0  0  0  0  0  0  0
  1  2  1  0
  2  3  1  0
  3  4  2  0
  4  5  1  0
  5  6  2  0
  6  7  1  0
  7  8  2  0
  8  9  1  0
  9 10  1  0
 10 11  1  0
 11 12  2  0
 11 13  1  0
 13 14  1  0
 14 15  1  0
 15 16  2  0
 15 17  1  0
 17 18  2  0
 18 19  1  0
 19 20  2  0
 20 21  1  0
 21 22  2  0
 22 23  1  0
 23 24  2  0
 24 25  1  0
 25 26  2  0
  8  3  1  0
 26 17  1  0
 25 20  1  0
  1 27  1  0
  1 28  1  0
  1 29  1  0
  4 30  1  0
  5 31  1  0
  6 32  1  0
  7 33  1  0
  9 34  1  0
  9 35  1  0
 10 36  1  0
 13 37  1  0
 13 38  1  0
 14 39  1  0
 18 40  1  0
 19 41  1  0
 21 42  1  0
 22 43  1  0
 23 44  1  0
 24 45  1  0
M  END
>  <smiles>  (10) 
COc1ccccc1CNC(=O)CNC(=O)c1ccc2ccccc2n1

>  <score_type>  (10) 
oracle

>  <origin>  (10) 
autodockgpu

>  <m_score__min__energy>  (10) 
-8.3200000000000003

>  <m_primary>  (10) 
energy

>  <rmsd>  (10) 
3.9158363837440087

>  <m_score__min__rmsd>  (10) 
3.9158363837440087

>  <meeko>  (10) 
{"free_energy": -7.62, "intermolecular_energy": -9.41, "internal_energy": -2.48, "cluster_size": 40, "cluster_id": 2, "rank_in_cluster": 28}

>  <energy>  (10) 
-8.07

>  <cluster_rmsd>  (10) 
0.46

>  <cluster>  (10) 
2

$$$$

     RDKit          3D

 45 47  0  0  0  0  0  0  0  0999 V2000
  141.5090   74.9650  220.8380 C   0  0  0  0  0  0  0  0  0  0  0  0
  140.7710   75.2600  221.9750 O   0  0  0  0  0  0  0  0  0  0  0  0
  140.2030   76.4590  222.3320 C   0  0  0  0  0  0  0  0  0  0  0  0
  141.0850   77.4730  222.7140 C   0  0  0  0  0  0  0  0  0  0  0  0
  140.6060   78.7320  223.0860 C   0  0  0  0  0  0  0  0  0  0  0  0
  139.2450   78.8940  223.0500 C   0  0  0  0  0  0  0  0  0  0  0  0
  138.3780   77.8910  222.6730 C   0  0  0  0  0  0  0  0  0  0  0  0
  138.8470   76.6190  222.2970 C   0  0  0  0  0  0  0  0  0  0  0  0
  137.8350   75.6260  221.9710 C   0  0  0  0  0  0  0  0  0  0  0  0
  138.2150   74.2690  221.8250 N   0  0  0  0  0  0  0  0  0  0  0  0
  137.5420   73.1660  221.3020 C   0  0  0  0  0  0  0  0  0  0  0  0
  136.3800   73.2850  220.8370 O   0  0  0  0  0  0  0  0  0  0  0  0
  138.1030   71.7830  221.2350 C   0  0  0  0  0  0  0  0  0  0  0  0
  138.4700   71.2310  222.5130 N   0  0  0  0  0  0  0  0  0  0  0  0
  139.6400   71.7390  223.1890 C   0  0  0  0  0  0  0  0  0  0  0  0
  140.3480   72.6580  222.6980 O   0  0  0  0  0  0  0  0  0  0  0  0
  140.0130   71.1700  224.4790 C   0  0  0  0  0  0  0  0  0  0  0  0
  140.8380   71.8760  225.3310 C   0  0  0  0  0  0  0  0  0  0  0  0
  141.2340   71.4190  226.5500 C   0  0  0  0  0  0  0  0  0  0  0  0
  140.8010   70.1950  226.9700 C   0  0  0  0  0  0  0  0  0  0  0  0
  141.1920   69.7160  228.2020 C   0  0  0  0  0  0  0  0  0  0  0  0
  140.7230   68.4570  228.5900 C   0  0  0  0  0  0  0  0  0  0  0  0
  139.9030   67.7610  227.7350 C   0  0  0  0  0  0  0  0  0  0  0  0
  139.5090   68.2370  226.5040 C   0  0  0  0  0  0  0  0  0  0  0  0
  139.9710   69.4810  226.1160 C   0  0  0  0  0  0  0  0  0  0  0  0
  139.5950   69.9650  224.9080 N   0  0  0  0  0  0  0  0  0  0  0  0
  142.4934   74.5715  221.1316 H   0  0  0  0  0  0  0  0  0  0  0  0
  140.9761   74.2108  220.2404 H   0  0  0  0  0  0  0  0  0  0  0  0
  141.6428   75.8788  220.2404 H   0  0  0  0  0  0  0  0  0  0  0  0
  142.1676   77.2783  222.7220 H   0  0  0  0  0  0  0  0  0  0  0  0
  141.2813   79.5454  223.3899 H   0  0  0  0  0  0  0  0  0  0  0  0
  138.8254   79.8700  223.3353 H   0  0  0  0  0  0  0  0  0  0  0  0
  137.2961   78.0894  222.6660 H   0  0  0  0  0  0  0  0  0  0  0  0
  137.0800   75.6633  222.7701 H   0  0  0  0  0  0  0  0  0  0  0  0
  137.5046   75.9133  220.9619 H   0  0  0  0  0  0  0  0  0  0  0  0
  139.2250   74.0450  222.1660 H   0  0  0  0  0  0  0  0  0  0  0  0
  137.3471   71.1261  220.7800 H   0  0  0  0  0  0  0  0  0  0  0  0
  139.0270   71.8458  220.6414 H   0  0  0  0  0  0  0  0  0  0  0  0
  137.9440   70.4710  223.0040 H   0  0  0  0  0  0  0  0  0  0  0  0
  141.1957   72.8642  225.0062 H   0  0  0  0  0  0  0  0  0  0  0  0
  141.8931   72.0270  227.1871 H   0  0  0  0  0  0  0  0  0  0  0  0
  141.8507   70.3043  228.8578 H   0  0  0  0  0  0  0  0  0  0  0  0
  141.0060   68.0308  229.5638 H   0  0  0  0  0  0  0  0  0  0  0  0
  139.5419   66.7710  228.0504 H   0  0  0  0  0  0  0  0  0  0  0  0
  138.8488   67.6470  225.8513 H   0  0  0  0  0  0  0  0  0  0  0  0
  1  2  1  0
  2  3  1  0
  3  4  2  0
  4  5  1  0
  5  6  2  0
  6  7  1  0
  7  8  2  0
  8  9  1  0
  9 10  1  0
 10 11  1  0
 11 12  2  0
 11 13  1  0
 13 14  1  0
 14 15  1  0
 15 16  2  0
 15 17  1  0
 17 18  2  0
 18 19  1  0
 19 20  2  0
 20 21  1  0
 21 22  2  0
 22 23  1  0
 23 24  2  0
 24 25  1  0
 25 26  2  0
  8  3  1  0
 26 17  1  0
 25 20  1  0
  1 27  1  0
  1 28  1  0
  1 29  1  0
  4 30  1  0
  5 31  1  0
  6 32  1  0
  7 33  1  0
  9 34  1  0
  9 35  1  0
 10 36  1  0
 13 37  1  0
 13 38  1  0
 14 39  1  0
 18 40  1  0
 19 41  1  0
 21 42  1  0
 22 43  1  0
 23 44  1  0
 24 45  1  0
M  END
>  <smiles>  (11) 
COc1ccccc1CNC(=O)CNC(=O)c1ccc2ccccc2n1

>  <score_type>  (11) 
oracle

>  <origin>  (11) 
autodockgpu

>  <m_score__min__energy>  (11) 
-8.3200000000000003

>  <m_primary>  (11) 
energy

>  <rmsd>  (11) 
3.820067591238015

>  <m_score__min__rmsd>  (11) 
3.820067591238015

>  <meeko>  (11) 
{"free_energy": -7.23, "intermolecular_energy": -9.02, "internal_energy": -2.54, "cluster_size": 40, "cluster_id": 2, "rank_in_cluster": 39}

>  <energy>  (11) 
-8.05

>  <cluster_rmsd>  (11) 
0.27

>  <cluster>  (11) 
2

$$$$

     RDKit          3D

 45 47  0  0  0  0  0  0  0  0999 V2000
  141.4770   75.5630  220.9460 C   0  0  0  0  0  0  0  0  0  0  0  0
  140.8990   75.8700  222.1700 O   0  0  0  0  0  0  0  0  0  0  0  0
  140.4500   77.0900  222.6150 C   0  0  0  0  0  0  0  0  0  0  0  0
  141.4290   77.9990  223.0240 C   0  0  0  0  0  0  0  0  0  0  0  0
  141.0750   79.2700  223.4850 C   0  0  0  0  0  0  0  0  0  0  0  0
  139.7330   79.5510  223.5060 C   0  0  0  0  0  0  0  0  0  0  0  0
  138.7710   78.6510  223.1020 C   0  0  0  0  0  0  0  0  0  0  0  0
  139.1130   77.3690  222.6370 C   0  0  0  0  0  0  0  0  0  0  0  0
  138.0080   76.4880  222.2890 C   0  0  0  0  0  0  0  0  0  0  0  0
  138.2780   75.1480  221.9190 N   0  0  0  0  0  0  0  0  0  0  0  0
  137.4380   74.0960  221.5570 C   0  0  0  0  0  0  0  0  0  0  0  0
  136.1910   74.2580  221.5070 O   0  0  0  0  0  0  0  0  0  0  0  0
  137.9030   72.7220  221.2000 C   0  0  0  0  0  0  0  0  0  0  0  0
  138.2700   71.9100  222.3310 N   0  0  0  0  0  0  0  0  0  0  0  0
  139.4900   72.2050  223.0440 C   0  0  0  0  0  0  0  0  0  0  0  0
  140.2420   73.1600  222.7110 O   0  0  0  0  0  0  0  0  0  0  0  0
  139.8620   71.3740  224.1820 C   0  0  0  0  0  0  0  0  0  0  0  0
  140.7410   71.8560  225.1300 C   0  0  0  0  0  0  0  0  0  0  0  0
  141.1410   71.1470  226.2210 C   0  0  0  0  0  0  0  0  0  0  0  0
  140.6550   69.8860  226.4030 C   0  0  0  0  0  0  0  0  0  0  0  0
  141.0490   69.1520  227.5020 C   0  0  0  0  0  0  0  0  0  0  0  0
  140.5240   67.8640  227.6470 C   0  0  0  0  0  0  0  0  0  0  0  0
  139.6500   67.3910  226.6980 C   0  0  0  0  0  0  0  0  0  0  0  0
  139.2550   68.1210  225.5990 C   0  0  0  0  0  0  0  0  0  0  0  0
  139.7700   69.3950  225.4520 C   0  0  0  0  0  0  0  0  0  0  0  0
  139.3930   70.1280  224.3760 N   0  0  0  0  0  0  0  0  0  0  0  0
  142.4374   75.0529  221.1117 H   0  0  0  0  0  0  0  0  0  0  0  0
  140.8045   74.9032  220.3781 H   0  0  0  0  0  0  0  0  0  0  0  0
  141.6471   76.4896  220.3781 H   0  0  0  0  0  0  0  0  0  0  0  0
  142.4899   77.7112  222.9827 H   0  0  0  0  0  0  0  0  0  0  0  0
  141.8285   80.0018  223.8117 H   0  0  0  0  0  0  0  0  0  0  0  0
  139.4096   80.5404  223.8617 H   0  0  0  0  0  0  0  0  0  0  0  0
  137.7111   78.9422  223.1443 H   0  0  0  0  0  0  0  0  0  0  0  0
  137.3402   76.4511  223.1623 H   0  0  0  0  0  0  0  0  0  0  0  0
  137.5998   76.9339  221.3700 H   0  0  0  0  0  0  0  0  0  0  0  0
  139.3360   74.8920  221.8930 H   0  0  0  0  0  0  0  0  0  0  0  0
  137.0917   72.2131  220.6589 H   0  0  0  0  0  0  0  0  0  0  0  0
  138.8109   72.8441  220.5910 H   0  0  0  0  0  0  0  0  0  0  0  0
  137.7100   71.1000  222.6860 H   0  0  0  0  0  0  0  0  0  0  0  0
  141.1416   72.8717  224.9965 H   0  0  0  0  0  0  0  0  0  0  0  0
  141.8451   71.5843  226.9442 H   0  0  0  0  0  0  0  0  0  0  0  0
  141.7524   69.5657  228.2396 H   0  0  0  0  0  0  0  0  0  0  0  0
  140.8063   67.2393  228.5073 H   0  0  0  0  0  0  0  0  0  0  0  0
  139.2446   66.3761  226.8226 H   0  0  0  0  0  0  0  0  0  0  0  0
  138.5527   67.7037  224.8624 H   0  0  0  0  0  0  0  0  0  0  0  0
  1  2  1  0
  2  3  1  0
  3  4  2  0
  4  5  1  0
  5  6  2  0
  6  7  1  0
  7  8  2  0
  8  9  1  0
  9 10  1  0
 10 11  1  0
 11 12  2  0
 11 13  1  0
 13 14  1  0
 14 15  1  0
 15 16  2  0
 15 17  1  0
 17 18  2  0
 18 19  1  0
 19 20  2  0
 20 21  1  0
 21 22  2  0
 22 23  1  0
 23 24  2  0
 24 25  1  0
 25 26  2  0
  8  3  1  0
 26 17  1  0
 25 20  1  0
  1 27  1  0
  1 28  1  0
  1 29  1  0
  4 30  1  0
  5 31  1  0
  6 32  1  0
  7 33  1  0
  9 34  1  0
  9 35  1  0
 10 36  1  0
 13 37  1  0
 13 38  1  0
 14 39  1  0
 18 40  1  0
 19 41  1  0
 21 42  1  0
 22 43  1  0
 23 44  1  0
 24 45  1  0
M  END
>  <smiles>  (12) 
COc1ccccc1CNC(=O)CNC(=O)c1ccc2ccccc2n1

>  <score_type>  (12) 
oracle

>  <origin>  (12) 
autodockgpu

>  <m_score__min__energy>  (12) 
-8.3200000000000003

>  <m_primary>  (12) 
energy

>  <rmsd>  (12) 
3.9129688962248053

>  <m_score__min__rmsd>  (12) 
3.9129688962248053

>  <meeko>  (12) 
{"free_energy": -7.24, "intermolecular_energy": -9.03, "internal_energy": -2.5, "cluster_size": 40, "cluster_id": 2, "rank_in_cluster": 38}

>  <energy>  (12) 
-7.98

>  <cluster_rmsd>  (12) 
0.4

>  <cluster>  (12) 
2

$$$$

     RDKit          3D

 45 47  0  0  0  0  0  0  0  0999 V2000
  137.4460   80.5300  224.0010 C   0  0  0  0  0  0  0  0  0  0  0  0
  137.7280   79.3030  223.4180 O   0  0  0  0  0  0  0  0  0  0  0  0
  138.9520   78.8010  223.0470 C   0  0  0  0  0  0  0  0  0  0  0  0
  140.0160   79.7060  223.0360 C   0  0  0  0  0  0  0  0  0  0  0  0
  141.3030   79.2900  222.6810 C   0  0  0  0  0  0  0  0  0  0  0  0
  141.4400   77.9660  222.3530 C   0  0  0  0  0  0  0  0  0  0  0  0
  140.3870   77.0770  222.3650 C   0  0  0  0  0  0  0  0  0  0  0  0
  139.0870   77.4820  222.7190 C   0  0  0  0  0  0  0  0  0  0  0  0
  138.0480   76.4660  222.6430 C   0  0  0  0  0  0  0  0  0  0  0  0
  138.3780   75.1680  222.1860 N   0  0  0  0  0  0  0  0  0  0  0  0
  138.0510   74.4820  221.0170 C   0  0  0  0  0  0  0  0  0  0  0  0
  137.3450   75.0260  220.1300 O   0  0  0  0  0  0  0  0  0  0  0  0
  138.4870   73.0880  220.7010 C   0  0  0  0  0  0  0  0  0  0  0  0
  138.6030   72.2300  221.8500 N   0  0  0  0  0  0  0  0  0  0  0  0
  139.7480   72.3670  222.7180 C   0  0  0  0  0  0  0  0  0  0  0  0
  140.6480   73.2230  222.5050 O   0  0  0  0  0  0  0  0  0  0  0  0
  139.8660   71.4880  223.8760 C   0  0  0  0  0  0  0  0  0  0  0  0
  139.4220   70.1840  223.7990 C   0  0  0  0  0  0  0  0  0  0  0  0
  139.4940   69.2990  224.8310 C   0  0  0  0  0  0  0  0  0  0  0  0
  140.0330   69.7080  226.0150 C   0  0  0  0  0  0  0  0  0  0  0  0
  140.1140   68.8250  227.0710 C   0  0  0  0  0  0  0  0  0  0  0  0
  140.6740   69.2880  228.2660 C   0  0  0  0  0  0  0  0  0  0  0  0
  141.1140   70.5880  228.3340 C   0  0  0  0  0  0  0  0  0  0  0  0
  141.0350   71.4730  227.2810 C   0  0  0  0  0  0  0  0  0  0  0  0
  140.4820   71.0190  226.0980 C   0  0  0  0  0  0  0  0  0  0  0  0
  140.3950   71.8750  225.0510 N   0  0  0  0  0  0  0  0  0  0  0  0
  137.4691   80.4295  225.0962 H   0  0  0  0  0  0  0  0  0  0  0  0
  138.1980   81.2678  223.6845 H   0  0  0  0  0  0  0  0  0  0  0  0
  136.4473   80.8655  223.6845 H   0  0  0  0  0  0  0  0  0  0  0  0
  139.8397   80.7568  223.3094 H   0  0  0  0  0  0  0  0  0  0  0  0
  142.1558   79.9847  222.6658 H   0  0  0  0  0  0  0  0  0  0  0  0
  142.4358   77.5963  222.0672 H   0  0  0  0  0  0  0  0  0  0  0  0
  140.5670   76.0268  222.0916 H   0  0  0  0  0  0  0  0  0  0  0  0
  137.6350   76.3536  223.6563 H   0  0  0  0  0  0  0  0  0  0  0  0
  137.3671   76.8486  221.8684 H   0  0  0  0  0  0  0  0  0  0  0  0
  139.0190   74.6020  222.8600 H   0  0  0  0  0  0  0  0  0  0  0  0
  137.7523   72.6448  220.0126 H   0  0  0  0  0  0  0  0  0  0  0  0
  139.4925   73.1640  220.2614 H   0  0  0  0  0  0  0  0  0  0  0  0
  137.9070   71.4930  222.1130 H   0  0  0  0  0  0  0  0  0  0  0  0
  138.9851   69.8399  222.8500 H   0  0  0  0  0  0  0  0  0  0  0  0
  139.1233   68.2703  224.7117 H   0  0  0  0  0  0  0  0  0  0  0  0
  139.7504   67.7911  226.9767 H   0  0  0  0  0  0  0  0  0  0  0  0
  140.7608   68.6223  229.1374 H   0  0  0  0  0  0  0  0  0  0  0  0
  141.5525   70.9407  229.2791 H   0  0  0  0  0  0  0  0  0  0  0  0
  141.3997   72.5062  227.3783 H   0  0  0  0  0  0  0  0  0  0  0  0
  1  2  1  0
  2  3  1  0
  3  4  2  0
  4  5  1  0
  5  6  2  0
  6  7  1  0
  7  8  2  0
  8  9  1  0
  9 10  1  0
 10 11  1  0
 11 12  2  0
 11 13  1  0
 13 14  1  0
 14 15  1  0
 15 16  2  0
 15 17  1  0
 17 18  2  0
 18 19  1  0
 19 20  2  0
 20 21  1  0
 21 22  2  0
 22 23  1  0
 23 24  2  0
 24 25  1  0
 25 26  2  0
  8  3  1  0
 26 17  1  0
 25 20  1  0
  1 27  1  0
  1 28  1  0
  1 29  1  0
  4 30  1  0
  5 31  1  0
  6 32  1  0
  7 33  1  0
  9 34  1  0
  9 35  1  0
 10 36  1  0
 13 37  1  0
 13 38  1  0
 14 39  1  0
 18 40  1  0
 19 41  1  0
 21 42  1  0
 22 43  1  0
 23 44  1  0
 24 45  1  0
M  END
>  <smiles>  (13) 
COc1ccccc1CNC(=O)CNC(=O)c1ccc2ccccc2n1

>  <score_type>  (13) 
oracle

>  <origin>  (13) 
autodockgpu

>  <m_score__min__energy>  (13) 
-8.3200000000000003

>  <m_primary>  (13) 
energy

>  <rmsd>  (13) 
3.1884435631035606

>  <m_score__min__rmsd>  (13) 
3.1884435631035606

>  <meeko>  (13) 
{"free_energy": -7.58, "intermolecular_energy": -9.37, "internal_energy": -1.54, "cluster_size": 40, "cluster_id": 2, "rank_in_cluster": 32}

>  <energy>  (13) 
-7.9

>  <cluster_rmsd>  (13) 
0.42

>  <cluster>  (13) 
2

$$$$

     RDKit          3D

 45 47  0  0  0  0  0  0  0  0999 V2000
  141.4830   75.5020  220.8900 C   0  0  0  0  0  0  0  0  0  0  0  0
  140.9440   75.8180  222.1290 O   0  0  0  0  0  0  0  0  0  0  0  0
  140.4690   77.0320  222.5640 C   0  0  0  0  0  0  0  0  0  0  0  0
  141.4300   77.9840  222.9130 C   0  0  0  0  0  0  0  0  0  0  0  0
  141.0480   79.2530  223.3600 C   0  0  0  0  0  0  0  0  0  0  0  0
  139.6990   79.4870  223.4270 C   0  0  0  0  0  0  0  0  0  0  0  0
  138.7550   78.5440  223.0820 C   0  0  0  0  0  0  0  0  0  0  0  0
  139.1250   77.2640  222.6330 C   0  0  0  0  0  0  0  0  0  0  0  0
  138.0400   76.3370  222.3490 C   0  0  0  0  0  0  0  0  0  0  0  0
  138.3440   75.0070  221.9700 N   0  0  0  0  0  0  0  0  0  0  0  0
  137.5650   74.0020  221.3990 C   0  0  0  0  0  0  0  0  0  0  0  0
  136.3570   74.2080  221.1150 O   0  0  0  0  0  0  0  0  0  0  0  0
  138.0580   72.6300  221.0690 C   0  0  0  0  0  0  0  0  0  0  0  0
  138.4080   71.8360  222.2180 N   0  0  0  0  0  0  0  0  0  0  0  0
  139.5790   72.1860  222.9860 C   0  0  0  0  0  0  0  0  0  0  0  0
  140.3030   73.1740  222.6850 O   0  0  0  0  0  0  0  0  0  0  0  0
  139.9350   71.3730  224.1420 C   0  0  0  0  0  0  0  0  0  0  0  0
  140.7810   71.8810  225.1080 C   0  0  0  0  0  0  0  0  0  0  0  0
  141.1630   71.1900  226.2160 C   0  0  0  0  0  0  0  0  0  0  0  0
  140.6940   69.9220  226.3990 C   0  0  0  0  0  0  0  0  0  0  0  0
  141.0700   69.2070  227.5160 C   0  0  0  0  0  0  0  0  0  0  0  0
  140.5640   67.9110  227.6620 C   0  0  0  0  0  0  0  0  0  0  0  0
  139.7230   67.4140  226.6960 C   0  0  0  0  0  0  0  0  0  0  0  0
  139.3440   68.1260  225.5790 C   0  0  0  0  0  0  0  0  0  0  0  0
  139.8420   69.4070  225.4310 C   0  0  0  0  0  0  0  0  0  0  0  0
  139.4810   70.1220  224.3380 N   0  0  0  0  0  0  0  0  0  0  0  0
  142.4243   74.9502  221.0296 H   0  0  0  0  0  0  0  0  0  0  0  0
  140.7718   74.8779  220.3291 H   0  0  0  0  0  0  0  0  0  0  0  0
  141.6803   76.4275  220.3291 H   0  0  0  0  0  0  0  0  0  0  0  0
  142.4981   77.7329  222.8354 H   0  0  0  0  0  0  0  0  0  0  0  0
  141.7865   80.0182  223.6412 H   0  0  0  0  0  0  0  0  0  0  0  0
  139.3540   80.4729  223.7720 H   0  0  0  0  0  0  0  0  0  0  0  0
  137.6877   78.7986  223.1597 H   0  0  0  0  0  0  0  0  0  0  0  0
  137.4226   76.2782  223.2575 H   0  0  0  0  0  0  0  0  0  0  0  0
  137.5648   76.7605  221.4519 H   0  0  0  0  0  0  0  0  0  0  0  0
  139.3800   74.7160  222.1390 H   0  0  0  0  0  0  0  0  0  0  0  0
  137.2675   72.1037  220.5139 H   0  0  0  0  0  0  0  0  0  0  0  0
  138.9789   72.7581  220.4811 H   0  0  0  0  0  0  0  0  0  0  0  0
  137.8680   71.0030  222.5500 H   0  0  0  0  0  0  0  0  0  0  0  0
  141.1679   72.9020  224.9741 H   0  0  0  0  0  0  0  0  0  0  0  0
  141.8397   71.6468  226.9531 H   0  0  0  0  0  0  0  0  0  0  0  0
  141.7456   69.6412  228.2677 H   0  0  0  0  0  0  0  0  0  0  0  0
  140.8349   67.3001  228.5357 H   0  0  0  0  0  0  0  0  0  0  0  0
  139.3315   66.3936  226.8210 H   0  0  0  0  0  0  0  0  0  0  0  0
  138.6674   67.6894  224.8296 H   0  0  0  0  0  0  0  0  0  0  0  0
  1  2  1  0
  2  3  1  0
  3  4  2  0
  4  5  1  0
  5  6  2  0
  6  7  1  0
  7  8  2  0
  8  9  1  0
  9 10  1  0
 10 11  1  0
 11 12  2  0
 11 13  1  0
 13 14  1  0
 14 15  1  0
 15 16  2  0
 15 17  1  0
 17 18  2  0
 18 19  1  0
 19 20  2  0
 20 21  1  0
 21 22  2  0
 22 23  1  0
 23 24  2  0
 24 25  1  0
 25 26  2  0
  8  3  1  0
 26 17  1  0
 25 20  1  0
  1 27  1  0
  1 28  1  0
  1 29  1  0
  4 30  1  0
  5 31  1  0
  6 32  1  0
  7 33  1  0
  9 34  1  0
  9 35  1  0
 10 36  1  0
 13 37  1  0
 13 38  1  0
 14 39  1  0
 18 40  1  0
 19 41  1  0
 21 42  1  0
 22 43  1  0
 23 44  1  0
 24 45  1  0
M  END
>  <smiles>  (14) 
COc1ccccc1CNC(=O)CNC(=O)c1ccc2ccccc2n1

>  <score_type>  (14) 
oracle

>  <origin>  (14) 
autodockgpu

>  <m_score__min__energy>  (14) 
-8.3200000000000003

>  <m_primary>  (14) 
energy

>  <rmsd>  (14) 
3.8943727929846594

>  <m_score__min__rmsd>  (14) 
3.8943727929846594

>  <meeko>  (14) 
{"free_energy": -7.28, "intermolecular_energy": -9.07, "internal_energy": -2.53, "cluster_size": 40, "cluster_id": 2, "rank_in_cluster": 37}

>  <energy>  (14) 
-7.84

>  <cluster_rmsd>  (14) 
0.51

>  <cluster>  (14) 
2

$$$$

     RDKit          3D

 45 47  0  0  0  0  0  0  0  0999 V2000
  141.2090   75.3630  221.0950 C   0  0  0  0  0  0  0  0  0  0  0  0
  140.6970   75.8060  222.3060 O   0  0  0  0  0  0  0  0  0  0  0  0
  140.3400   77.0840  222.6610 C   0  0  0  0  0  0  0  0  0  0  0  0
  141.3870   77.9540  222.9790 C   0  0  0  0  0  0  0  0  0  0  0  0
  141.1280   79.2780  223.3440 C   0  0  0  0  0  0  0  0  0  0  0  0
  139.8090   79.6510  223.3660 C   0  0  0  0  0  0  0  0  0  0  0  0
  138.7800   78.7890  223.0520 C   0  0  0  0  0  0  0  0  0  0  0  0
  139.0260   77.4540  222.6840 C   0  0  0  0  0  0  0  0  0  0  0  0
  137.8570   76.6260  222.4270 C   0  0  0  0  0  0  0  0  0  0  0  0
  138.0210   75.2320  222.2410 N   0  0  0  0  0  0  0  0  0  0  0  0
  137.3380   74.3130  221.4460 C   0  0  0  0  0  0  0  0  0  0  0  0
  136.3880   74.6830  220.7100 O   0  0  0  0  0  0  0  0  0  0  0  0
  137.6470   72.8530  221.3810 C   0  0  0  0  0  0  0  0  0  0  0  0
  138.2450   72.3200  222.5770 N   0  0  0  0  0  0  0  0  0  0  0  0
  138.2340   70.8930  222.7950 C   0  0  0  0  0  0  0  0  0  0  0  0
  137.7220   70.0960  221.9640 O   0  0  0  0  0  0  0  0  0  0  0  0
  138.8320   70.3600  224.0120 C   0  0  0  0  0  0  0  0  0  0  0  0
  138.8200   69.0000  224.2490 C   0  0  0  0  0  0  0  0  0  0  0  0
  139.3540   68.4210  225.3580 C   0  0  0  0  0  0  0  0  0  0  0  0
  139.9410   69.2130  226.3000 C   0  0  0  0  0  0  0  0  0  0  0  0
  140.4880   68.6440  227.4300 C   0  0  0  0  0  0  0  0  0  0  0  0
  141.0790   69.4960  228.3680 C   0  0  0  0  0  0  0  0  0  0  0  0
  141.0870   70.8490  228.1260 C   0  0  0  0  0  0  0  0  0  0  0  0
  140.5420   71.4210  226.9980 C   0  0  0  0  0  0  0  0  0  0  0  0
  139.9570   70.5820  226.0670 C   0  0  0  0  0  0  0  0  0  0  0  0
  139.4140   71.1280  224.9520 N   0  0  0  0  0  0  0  0  0  0  0  0
  142.0289   74.6536  221.2811 H   0  0  0  0  0  0  0  0  0  0  0  0
  140.4144   74.8629  220.5219 H   0  0  0  0  0  0  0  0  0  0  0  0
  141.5897   76.2213  220.5219 H   0  0  0  0  0  0  0  0  0  0  0  0
  142.4253   77.5928  222.9416 H   0  0  0  0  0  0  0  0  0  0  0  0
  141.9356   79.9800  223.5988 H   0  0  0  0  0  0  0  0  0  0  0  0
  139.5604   80.6851  223.6470 H   0  0  0  0  0  0  0  0  0  0  0  0
  137.7429   79.1536  223.0901 H   0  0  0  0  0  0  0  0  0  0  0  0
  137.1768   76.7576  223.2814 H   0  0  0  0  0  0  0  0  0  0  0  0
  137.4990   76.9784  221.4484 H   0  0  0  0  0  0  0  0  0  0  0  0
  138.8430   74.7950  222.8080 H   0  0  0  0  0  0  0  0  0  0  0  0
  136.7087   72.3103  221.1937 H   0  0  0  0  0  0  0  0  0  0  0  0
  138.3845   72.7228  220.5753 H   0  0  0  0  0  0  0  0  0  0  0  0
  138.6980   72.9000  223.3220 H   0  0  0  0  0  0  0  0  0  0  0  0
  138.3517   68.3470  223.4978 H   0  0  0  0  0  0  0  0  0  0  0  0
  139.3129   67.3301  225.4929 H   0  0  0  0  0  0  0  0  0  0  0  0
  140.4605   67.5558  227.5886 H   0  0  0  0  0  0  0  0  0  0  0  0
  141.5304   69.0899  229.2852 H   0  0  0  0  0  0  0  0  0  0  0  0
  141.5530   71.5093  228.8722 H   0  0  0  0  0  0  0  0  0  0  0  0
  140.5710   72.5096  226.8425 H   0  0  0  0  0  0  0  0  0  0  0  0
  1  2  1  0
  2  3  1  0
  3  4  2  0
  4  5  1  0
  5  6  2  0
  6  7  1  0
  7  8  2  0
  8  9  1  0
  9 10  1  0
 10 11  1  0
 11 12  2  0
 11 13  1  0
 13 14  1  0
 14 15  1  0
 15 16  2  0
 15 17  1  0
 17 18  2  0
 18 19  1  0
 19 20  2  0
 20 21  1  0
 21 22  2  0
 22 23  1  0
 23 24  2  0
 24 25  1  0
 25 26  2  0
  8  3  1  0
 26 17  1  0
 25 20  1  0
  1 27  1  0
  1 28  1  0
  1 29  1  0
  4 30  1  0
  5 31  1  0
  6 32  1  0
  7 33  1  0
  9 34  1  0
  9 35  1  0
 10 36  1  0
 13 37  1  0
 13 38  1  0
 14 39  1  0
 18 40  1  0
 19 41  1  0
 21 42  1  0
 22 43  1  0
 23 44  1  0
 24 45  1  0
M  END
>  <smiles>  (15) 
COc1ccccc1CNC(=O)CNC(=O)c1ccc2ccccc2n1

>  <score_type>  (15) 
oracle

>  <origin>  (15) 
autodockgpu

>  <m_score__min__energy>  (15) 
-8.3200000000000003

>  <m_primary>  (15) 
energy

>  <rmsd>  (15) 
3.201866359784035

>  <m_score__min__rmsd>  (15) 
3.201866359784035

>  <meeko>  (15) 
{"free_energy": -7.63, "intermolecular_energy": -9.42, "internal_energy": -1.68, "cluster_size": 40, "cluster_id": 2, "rank_in_cluster": 22}

>  <energy>  (15) 
-7.84

>  <cluster_rmsd>  (15) 
1.16

>  <cluster>  (15) 
2

$$$$

     RDKit          3D

 45 47  0  0  0  0  0  0  0  0999 V2000
  137.5930   78.4970  222.7220 C   0  0  0  0  0  0  0  0  0  0  0  0
  138.8870   78.0230  222.8870 O   0  0  0  0  0  0  0  0  0  0  0  0
  140.0530   78.7450  222.9600 C   0  0  0  0  0  0  0  0  0  0  0  0
  140.0050   79.9260  223.7060 C   0  0  0  0  0  0  0  0  0  0  0  0
  141.1420   80.7270  223.8470 C   0  0  0  0  0  0  0  0  0  0  0  0
  142.2750   80.2820  223.2170 C   0  0  0  0  0  0  0  0  0  0  0  0
  142.3180   79.1170  222.4820 C   0  0  0  0  0  0  0  0  0  0  0  0
  141.1810   78.3020  222.3310 C   0  0  0  0  0  0  0  0  0  0  0  0
  141.3340   77.1260  221.4880 C   0  0  0  0  0  0  0  0  0  0  0  0
  140.3490   76.1090  221.5290 N   0  0  0  0  0  0  0  0  0  0  0  0
  140.2460   74.8870  220.8670 C   0  0  0  0  0  0  0  0  0  0  0  0
  141.1430   74.5110  220.0690 O   0  0  0  0  0  0  0  0  0  0  0  0
  139.1120   73.9280  221.0280 C   0  0  0  0  0  0  0  0  0  0  0  0
  139.1280   73.1940  222.2660 N   0  0  0  0  0  0  0  0  0  0  0  0
  140.0980   72.1400  222.4470 C   0  0  0  0  0  0  0  0  0  0  0  0
  140.9390   71.8470  221.5560 O   0  0  0  0  0  0  0  0  0  0  0  0
  140.1040   71.3940  223.7000 C   0  0  0  0  0  0  0  0  0  0  0  0
  139.5940   70.1120  223.7410 C   0  0  0  0  0  0  0  0  0  0  0  0
  139.5610   69.3480  224.8660 C   0  0  0  0  0  0  0  0  0  0  0  0
  140.0550   69.8620  226.0290 C   0  0  0  0  0  0  0  0  0  0  0  0
  140.0300   69.1010  227.1790 C   0  0  0  0  0  0  0  0  0  0  0  0
  140.5480   69.6700  228.3470 C   0  0  0  0  0  0  0  0  0  0  0  0
  141.0530   70.9460  228.2970 C   0  0  0  0  0  0  0  0  0  0  0  0
  141.0810   71.7090  227.1500 C   0  0  0  0  0  0  0  0  0  0  0  0
  140.5700   71.1510  225.9930 C   0  0  0  0  0  0  0  0  0  0  0  0
  140.5880   71.8860  224.8550 N   0  0  0  0  0  0  0  0  0  0  0  0
  137.1354   78.6646  223.7081 H   0  0  0  0  0  0  0  0  0  0  0  0
  137.6180   79.4444  222.1635 H   0  0  0  0  0  0  0  0  0  0  0  0
  137.0001   77.7577  222.1635 H   0  0  0  0  0  0  0  0  0  0  0  0
  139.0630   80.2282  224.1870 H   0  0  0  0  0  0  0  0  0  0  0  0
  141.1282   81.6600  224.4296 H   0  0  0  0  0  0  0  0  0  0  0  0
  143.1926   80.8826  223.3020 H   0  0  0  0  0  0  0  0  0  0  0  0
  143.2619   78.8177  222.0029 H   0  0  0  0  0  0  0  0  0  0  0  0
  141.3848   77.4813  220.4482 H   0  0  0  0  0  0  0  0  0  0  0  0
  142.2323   76.6339  221.8892 H   0  0  0  0  0  0  0  0  0  0  0  0
  139.5260   76.3060  222.2160 H   0  0  0  0  0  0  0  0  0  0  0  0
  138.1710   74.4954  220.9761 H   0  0  0  0  0  0  0  0  0  0  0  0
  139.2095   73.1867  220.2211 H   0  0  0  0  0  0  0  0  0  0  0  0
  138.4750   73.3660  223.0660 H   0  0  0  0  0  0  0  0  0  0  0  0
  139.1914   69.6839  222.8112 H   0  0  0  0  0  0  0  0  0  0  0  0
  139.1423   68.3312  224.8383 H   0  0  0  0  0  0  0  0  0  0  0  0
  139.6168   68.0815  227.1777 H   0  0  0  0  0  0  0  0  0  0  0  0
  140.5508   69.1044  229.2905 H   0  0  0  0  0  0  0  0  0  0  0  0
  141.4569   71.3825  229.2224 H   0  0  0  0  0  0  0  0  0  0  0  0
  141.4959   72.7277  227.1548 H   0  0  0  0  0  0  0  0  0  0  0  0
  1  2  1  0
  2  3  1  0
  3  4  2  0
  4  5  1  0
  5  6  2  0
  6  7  1  0
  7  8  2  0
  8  9  1  0
  9 10  1  0
 10 11  1  0
 11 12  2  0
 11 13  1  0
 13 14  1  0
 14 15  1  0
 15 16  2  0
 15 17  1  0
 17 18  2  0
 18 19  1  0
 19 20  2  0
 20 21  1  0
 21 22  2  0
 22 23  1  0
 23 24  2  0
 24 25  1  0
 25 26  2  0
  8  3  1  0
 26 17  1  0
 25 20  1  0
  1 27  1  0
  1 28  1  0
  1 29  1  0
  4 30  1  0
  5 31  1  0
  6 32  1  0
  7 33  1  0
  9 34  1  0
  9 35  1  0
 10 36  1  0
 13 37  1  0
 13 38  1  0
 14 39  1  0
 18 40  1  0
 19 41  1  0
 21 42  1  0
 22 43  1  0
 23 44  1  0
 24 45  1  0
M  END
>  <smiles>  (16) 
COc1ccccc1CNC(=O)CNC(=O)c1ccc2ccccc2n1

>  <score_type>  (16) 
oracle

>  <origin>  (16) 
autodockgpu

>  <m_score__min__energy>  (16) 
-8.3200000000000003

>  <m_primary>  (16) 
energy

>  <rmsd>  (16) 
3.25121173578497

>  <m_score__min__rmsd>  (16) 
3.25121173578497

>  <meeko>  (16) 
{"free_energy": -7.9, "intermolecular_energy": -9.69, "internal_energy": -1.43, "cluster_size": 40, "cluster_id": 2, "rank_in_cluster": 9}

>  <energy>  (16) 
-7.83

>  <cluster_rmsd>  (16) 
0.9

>  <cluster>  (16) 
2

$$$$

     RDKit          3D

 45 47  0  0  0  0  0  0  0  0999 V2000
  137.8140   78.9640  222.7020 C   0  0  0  0  0  0  0  0  0  0  0  0
  139.1100   78.5090  222.4980 O   0  0  0  0  0  0  0  0  0  0  0  0
  140.2880   79.1890  222.6900 C   0  0  0  0  0  0  0  0  0  0  0  0
  140.2440   80.2670  223.5780 C   0  0  0  0  0  0  0  0  0  0  0  0
  141.3930   81.0170  223.8470 C   0  0  0  0  0  0  0  0  0  0  0  0
  142.5340   80.6270  223.1950 C   0  0  0  0  0  0  0  0  0  0  0  0
  142.5720   79.5630  222.3200 C   0  0  0  0  0  0  0  0  0  0  0  0
  141.4240   78.8010  222.0390 C   0  0  0  0  0  0  0  0  0  0  0  0
  141.5750   77.7370  221.0590 C   0  0  0  0  0  0  0  0  0  0  0  0
  140.6840   76.6370  221.0840 N   0  0  0  0  0  0  0  0  0  0  0  0
  140.9050   75.2610  221.0990 C   0  0  0  0  0  0  0  0  0  0  0  0
  142.0740   74.7980  221.1020 O   0  0  0  0  0  0  0  0  0  0  0  0
  139.8250   74.2280  221.1160 C   0  0  0  0  0  0  0  0  0  0  0  0
  139.7290   73.4920  222.3490 N   0  0  0  0  0  0  0  0  0  0  0  0
  140.3150   72.1750  222.4300 C   0  0  0  0  0  0  0  0  0  0  0  0
  140.9160   71.6520  221.4550 O   0  0  0  0  0  0  0  0  0  0  0  0
  140.2070   71.4300  223.6790 C   0  0  0  0  0  0  0  0  0  0  0  0
  139.6030   70.1890  223.6910 C   0  0  0  0  0  0  0  0  0  0  0  0
  139.4610   69.4290  224.8110 C   0  0  0  0  0  0  0  0  0  0  0  0
  139.9360   69.9050  225.9980 C   0  0  0  0  0  0  0  0  0  0  0  0
  139.8010   69.1490  227.1420 C   0  0  0  0  0  0  0  0  0  0  0  0
  140.3030   69.6780  228.3360 C   0  0  0  0  0  0  0  0  0  0  0  0
  140.9020   70.9140  228.3150 C   0  0  0  0  0  0  0  0  0  0  0  0
  141.0400   71.6720  227.1730 C   0  0  0  0  0  0  0  0  0  0  0  0
  140.5450   71.1530  225.9910 C   0  0  0  0  0  0  0  0  0  0  0  0
  140.6700   71.8850  224.8580 N   0  0  0  0  0  0  0  0  0  0  0  0
  137.6155   79.0337  223.7817 H   0  0  0  0  0  0  0  0  0  0  0  0
  137.6974   79.9568  222.2429 H   0  0  0  0  0  0  0  0  0  0  0  0
  137.1024   78.2619  222.2429 H   0  0  0  0  0  0  0  0  0  0  0  0
  139.2957   80.5283  224.0705 H   0  0  0  0  0  0  0  0  0  0  0  0
  141.3820   81.8702  224.5413 H   0  0  0  0  0  0  0  0  0  0  0  0
  143.4616   81.1890  223.3786 H   0  0  0  0  0  0  0  0  0  0  0  0
  143.5222   79.3038  221.8301 H   0  0  0  0  0  0  0  0  0  0  0  0
  141.4834   78.2009  220.0658 H   0  0  0  0  0  0  0  0  0  0  0  0
  142.5474   77.2887  221.3108 H   0  0  0  0  0  0  0  0  0  0  0  0
  139.6300   76.9120  221.1150 H   0  0  0  0  0  0  0  0  0  0  0  0
  138.8633   74.7321  220.9399 H   0  0  0  0  0  0  0  0  0  0  0  0
  140.0748   73.4980  220.3320 H   0  0  0  0  0  0  0  0  0  0  0  0
  139.2560   73.8440  223.2140 H   0  0  0  0  0  0  0  0  0  0  0  0
  139.2144   69.7918  222.7417 H   0  0  0  0  0  0  0  0  0  0  0  0
  138.9706   68.4457  224.7599 H   0  0  0  0  0  0  0  0  0  0  0  0
  139.3148   68.1626  227.1174 H   0  0  0  0  0  0  0  0  0  0  0  0
  140.2194   69.1133  229.2763 H   0  0  0  0  0  0  0  0  0  0  0  0
  141.2921   71.3200  229.2600 H   0  0  0  0  0  0  0  0  0  0  0  0
  141.5278   72.6575  227.2006 H   0  0  0  0  0  0  0  0  0  0  0  0
  1  2  1  0
  2  3  1  0
  3  4  2  0
  4  5  1  0
  5  6  2  0
  6  7  1  0
  7  8  2  0
  8  9  1  0
  9 10  1  0
 10 11  1  0
 11 12  2  0
 11 13  1  0
 13 14  1  0
 14 15  1  0
 15 16  2  0
 15 17  1  0
 17 18  2  0
 18 19  1  0
 19 20  2  0
 20 21  1  0
 21 22  2  0
 22 23  1  0
 23 24  2  0
 24 25  1  0
 25 26  2  0
  8  3  1  0
 26 17  1  0
 25 20  1  0
  1 27  1  0
  1 28  1  0
  1 29  1  0
  4 30  1  0
  5 31  1  0
  6 32  1  0
  7 33  1  0
  9 34  1  0
  9 35  1  0
 10 36  1  0
 13 37  1  0
 13 38  1  0
 14 39  1  0
 18 40  1  0
 19 41  1  0
 21 42  1  0
 22 43  1  0
 23 44  1  0
 24 45  1  0
M  END
>  <smiles>  (17) 
COc1ccccc1CNC(=O)CNC(=O)c1ccc2ccccc2n1

>  <score_type>  (17) 
oracle

>  <origin>  (17) 
autodockgpu

>  <m_score__min__energy>  (17) 
-8.3200000000000003

>  <m_primary>  (17) 
energy

>  <rmsd>  (17) 
3.3672818570481007

>  <m_score__min__rmsd>  (17) 
3.3672818570481007

>  <meeko>  (17) 
{"free_energy": -8.09, "intermolecular_energy": -9.88, "internal_energy": -1.43, "cluster_size": 40, "cluster_id": 2, "rank_in_cluster": 3}

>  <energy>  (17) 
-7.75

>  <cluster_rmsd>  (17) 
1.79

>  <cluster>  (17) 
2

$$$$

     RDKit          3D

 45 47  0  0  0  0  0  0  0  0999 V2000
  141.6600   75.3970  221.0150 C   0  0  0  0  0  0  0  0  0  0  0  0
  140.6660   75.6100  221.9610 O   0  0  0  0  0  0  0  0  0  0  0  0
  140.1580   76.8070  222.4040 C   0  0  0  0  0  0  0  0  0  0  0  0
  141.0910   77.8020  222.7080 C   0  0  0  0  0  0  0  0  0  0  0  0
  140.6730   79.0570  223.1580 C   0  0  0  0  0  0  0  0  0  0  0  0
  139.3190   79.2360  223.2750 C   0  0  0  0  0  0  0  0  0  0  0  0
  138.4020   78.2520  222.9740 C   0  0  0  0  0  0  0  0  0  0  0  0
  138.8090   76.9840  222.5210 C   0  0  0  0  0  0  0  0  0  0  0  0
  137.7540   76.0100  222.2860 C   0  0  0  0  0  0  0  0  0  0  0  0
  138.0990   74.6690  221.9900 N   0  0  0  0  0  0  0  0  0  0  0  0
  137.3950   73.6450  221.3580 C   0  0  0  0  0  0  0  0  0  0  0  0
  136.2320   73.8400  220.9210 O   0  0  0  0  0  0  0  0  0  0  0  0
  137.9220   72.2650  221.1350 C   0  0  0  0  0  0  0  0  0  0  0  0
  138.2990   71.5740  222.3410 N   0  0  0  0  0  0  0  0  0  0  0  0
  139.4610   72.0180  223.0730 C   0  0  0  0  0  0  0  0  0  0  0  0
  140.1540   73.0000  222.6920 O   0  0  0  0  0  0  0  0  0  0  0  0
  139.8440   71.3090  224.2880 C   0  0  0  0  0  0  0  0  0  0  0  0
  140.7370   71.8850  225.1700 C   0  0  0  0  0  0  0  0  0  0  0  0
  141.1470   71.2930  226.3240 C   0  0  0  0  0  0  0  0  0  0  0  0
  140.6600   70.0600  226.6430 C   0  0  0  0  0  0  0  0  0  0  0  0
  141.0640   69.4440  227.8090 C   0  0  0  0  0  0  0  0  0  0  0  0
  140.5370   68.1810  228.0950 C   0  0  0  0  0  0  0  0  0  0  0  0
  139.6500   67.6150  227.2120 C   0  0  0  0  0  0  0  0  0  0  0  0
  139.2430   68.2270  226.0470 C   0  0  0  0  0  0  0  0  0  0  0  0
  139.7610   69.4760  225.7600 C   0  0  0  0  0  0  0  0  0  0  0  0
  139.3730   70.0930  224.6170 N   0  0  0  0  0  0  0  0  0  0  0  0
  142.6133   75.1927  221.5244 H   0  0  0  0  0  0  0  0  0  0  0  0
  141.3889   74.5366  220.3856 H   0  0  0  0  0  0  0  0  0  0  0  0
  141.7652   76.2930  220.3856 H   0  0  0  0  0  0  0  0  0  0  0  0
  142.1651   77.5951  222.5918 H   0  0  0  0  0  0  0  0  0  0  0  0
  141.3889   79.8551  223.4041 H   0  0  0  0  0  0  0  0  0  0  0  0
  138.9471   80.2101  223.6253 H   0  0  0  0  0  0  0  0  0  0  0  0
  137.3287   78.4628  223.0905 H   0  0  0  0  0  0  0  0  0  0  0  0
  137.1307   75.9879  223.1921 H   0  0  0  0  0  0  0  0  0  0  0  0
  137.2750   76.3646  221.3614 H   0  0  0  0  0  0  0  0  0  0  0  0
  139.1060   74.3850  222.2940 H   0  0  0  0  0  0  0  0  0  0  0  0
  137.1427   71.6759  220.6293 H   0  0  0  0  0  0  0  0  0  0  0  0
  138.8362   72.3698  220.5323 H   0  0  0  0  0  0  0  0  0  0  0  0
  137.7860   70.7530  222.7390 H   0  0  0  0  0  0  0  0  0  0  0  0
  141.1396   72.8790  224.9254 H   0  0  0  0  0  0  0  0  0  0  0  0
  141.8604   71.8011  226.9896 H   0  0  0  0  0  0  0  0  0  0  0  0
  141.7770   69.9302  228.4911 H   0  0  0  0  0  0  0  0  0  0  0  0
  140.8281   67.6489  229.0127 H   0  0  0  0  0  0  0  0  0  0  0  0
  139.2432   66.6205  227.4477 H   0  0  0  0  0  0  0  0  0  0  0  0
  138.5294   67.7380  225.3676 H   0  0  0  0  0  0  0  0  0  0  0  0
  1  2  1  0
  2  3  1  0
  3  4  2  0
  4  5  1  0
  5  6  2  0
  6  7  1  0
  7  8  2  0
  8  9  1  0
  9 10  1  0
 10 11  1  0
 11 12  2  0
 11 13  1  0
 13 14  1  0
 14 15  1  0
 15 16  2  0
 15 17  1  0
 17 18  2  0
 18 19  1  0
 19 20  2  0
 20 21  1  0
 21 22  2  0
 22 23  1  0
 23 24  2  0
 24 25  1  0
 25 26  2  0
  8  3  1  0
 26 17  1  0
 25 20  1  0
  1 27  1  0
  1 28  1  0
  1 29  1  0
  4 30  1  0
  5 31  1  0
  6 32  1  0
  7 33  1  0
  9 34  1  0
  9 35  1  0
 10 36  1  0
 13 37  1  0
 13 38  1  0
 14 39  1  0
 18 40  1  0
 19 41  1  0
 21 42  1  0
 22 43  1  0
 23 44  1  0
 24 45  1  0
M  END
>  <smiles>  (18) 
COc1ccccc1CNC(=O)CNC(=O)c1ccc2ccccc2n1

>  <score_type>  (18) 
oracle

>  <origin>  (18) 
autodockgpu

>  <m_score__min__energy>  (18) 
-8.3200000000000003

>  <m_primary>  (18) 
energy

>  <rmsd>  (18) 
3.879041557889354

>  <m_score__min__rmsd>  (18) 
3.879041557889354

>  <meeko>  (18) 
{"free_energy": -7.3, "intermolecular_energy": -9.09, "internal_energy": -2.53, "cluster_size": 40, "cluster_id": 2, "rank_in_cluster": 36}

>  <energy>  (18) 
-7.73

>  <cluster_rmsd>  (18) 
1.61

>  <cluster>  (18) 
2

$$$$

     RDKit          3D

 45 47  0  0  0  0  0  0  0  0999 V2000
  137.7670   78.7500  222.6560 C   0  0  0  0  0  0  0  0  0  0  0  0
  139.0590   78.2710  222.8160 O   0  0  0  0  0  0  0  0  0  0  0  0
  140.2290   78.9890  222.8840 C   0  0  0  0  0  0  0  0  0  0  0  0
  140.2150   80.1190  223.7050 C   0  0  0  0  0  0  0  0  0  0  0  0
  141.3580   80.9110  223.8480 C   0  0  0  0  0  0  0  0  0  0  0  0
  142.4630   80.5080  223.1430 C   0  0  0  0  0  0  0  0  0  0  0  0
  142.4710   79.3920  222.3340 C   0  0  0  0  0  0  0  0  0  0  0  0
  141.3280   78.5870  222.1800 C   0  0  0  0  0  0  0  0  0  0  0  0
  141.4420   77.4670  221.2580 C   0  0  0  0  0  0  0  0  0  0  0  0
  140.4620   76.4460  221.2820 N   0  0  0  0  0  0  0  0  0  0  0  0
  140.5410   75.0760  221.0340 C   0  0  0  0  0  0  0  0  0  0  0  0
  141.6380   74.5390  220.7340 O   0  0  0  0  0  0  0  0  0  0  0  0
  139.3830   74.1340  221.0980 C   0  0  0  0  0  0  0  0  0  0  0  0
  139.3180   73.3570  222.3070 N   0  0  0  0  0  0  0  0  0  0  0  0
  140.2510   72.2720  222.4980 C   0  0  0  0  0  0  0  0  0  0  0  0
  141.1290   71.9890  221.6390 O   0  0  0  0  0  0  0  0  0  0  0  0
  140.1750   71.4820  223.7210 C   0  0  0  0  0  0  0  0  0  0  0  0
  139.5910   70.2310  223.6980 C   0  0  0  0  0  0  0  0  0  0  0  0
  139.4790   69.4300  224.7920 C   0  0  0  0  0  0  0  0  0  0  0  0
  139.9650   69.8710  225.9870 C   0  0  0  0  0  0  0  0  0  0  0  0
  139.8610   69.0730  227.1060 C   0  0  0  0  0  0  0  0  0  0  0  0
  140.3740   69.5670  228.3100 C   0  0  0  0  0  0  0  0  0  0  0  0
  140.9540   70.8130  228.3240 C   0  0  0  0  0  0  0  0  0  0  0  0
  141.0610   71.6130  227.2070 C   0  0  0  0  0  0  0  0  0  0  0  0
  140.5540   71.1290  226.0160 C   0  0  0  0  0  0  0  0  0  0  0  0
  140.6500   71.9020  224.9070 N   0  0  0  0  0  0  0  0  0  0  0  0
  137.3133   78.9182  223.6439 H   0  0  0  0  0  0  0  0  0  0  0  0
  137.7938   79.6980  222.0986 H   0  0  0  0  0  0  0  0  0  0  0  0
  137.1694   78.0137  222.0986 H   0  0  0  0  0  0  0  0  0  0  0  0
  139.2951   80.3884  224.2446 H   0  0  0  0  0  0  0  0  0  0  0  0
  141.3703   81.8052  224.4886 H   0  0  0  0  0  0  0  0  0  0  0  0
  143.3848   81.1023  223.2269 H   0  0  0  0  0  0  0  0  0  0  0  0
  143.3927   79.1248  221.7964 H   0  0  0  0  0  0  0  0  0  0  0  0
  141.4423   77.8873  220.2415 H   0  0  0  0  0  0  0  0  0  0  0  0
  142.3592   76.9546  221.5837 H   0  0  0  0  0  0  0  0  0  0  0  0
  139.4650   76.7830  221.5620 H   0  0  0  0  0  0  0  0  0  0  0  0
  138.4564   74.7211  221.0156 H   0  0  0  0  0  0  0  0  0  0  0  0
  139.5117   73.4200  220.2712 H   0  0  0  0  0  0  0  0  0  0  0  0
  138.6300   73.5180  223.0800 H   0  0  0  0  0  0  0  0  0  0  0  0
  139.1939   69.8612  222.7412 H   0  0  0  0  0  0  0  0  0  0  0  0
  139.0034   68.4412  224.7135 H   0  0  0  0  0  0  0  0  0  0  0  0
  139.3901   68.0803  227.0540 H   0  0  0  0  0  0  0  0  0  0  0  0
  140.3142   68.9680  229.2306 H   0  0  0  0  0  0  0  0  0  0  0  0
  141.3536   71.1914  229.2765 H   0  0  0  0  0  0  0  0  0  0  0  0
  141.5345   72.6044  227.2616 H   0  0  0  0  0  0  0  0  0  0  0  0
  1  2  1  0
  2  3  1  0
  3  4  2  0
  4  5  1  0
  5  6  2  0
  6  7  1  0
  7  8  2  0
  8  9  1  0
  9 10  1  0
 10 11  1  0
 11 12  2  0
 11 13  1  0
 13 14  1  0
 14 15  1  0
 15 16  2  0
 15 17  1  0
 17 18  2  0
 18 19  1  0
 19 20  2  0
 20 21  1  0
 21 22  2  0
 22 23  1  0
 23 24  2  0
 24 25  1  0
 25 26  2  0
  8  3  1  0
 26 17  1  0
 25 20  1  0
  1 27  1  0
  1 28  1  0
  1 29  1  0
  4 30  1  0
  5 31  1  0
  6 32  1  0
  7 33  1  0
  9 34  1  0
  9 35  1  0
 10 36  1  0
 13 37  1  0
 13 38  1  0
 14 39  1  0
 18 40  1  0
 19 41  1  0
 21 42  1  0
 22 43  1  0
 23 44  1  0
 24 45  1  0
M  END
>  <smiles>  (19) 
COc1ccccc1CNC(=O)CNC(=O)c1ccc2ccccc2n1

>  <score_type>  (19) 
oracle

>  <origin>  (19) 
autodockgpu

>  <m_score__min__energy>  (19) 
-8.3200000000000003

>  <m_primary>  (19) 
energy

>  <rmsd>  (19) 
3.3113774286211997

>  <m_score__min__rmsd>  (19) 
3.3113774286211997

>  <meeko>  (19) 
{"free_energy": -8.15, "intermolecular_energy": -9.94, "internal_energy": -1.39, "cluster_size": 40, "cluster_id": 2, "rank_in_cluster": 2}

>  <energy>  (19) 
-7.7

>  <cluster_rmsd>  (19) 
1.84

>  <cluster>  (19) 
2

$$$$

     RDKit          3D

 45 47  0  0  0  0  0  0  0  0999 V2000
  138.2590   77.9230  222.7800 C   0  0  0  0  0  0  0  0  0  0  0  0
  139.0690   78.8110  222.0860 O   0  0  0  0  0  0  0  0  0  0  0  0
  140.2660   79.3570  222.4820 C   0  0  0  0  0  0  0  0  0  0  0  0
  140.1920   80.4350  223.3680 C   0  0  0  0  0  0  0  0  0  0  0  0
  141.3540   81.0530  223.8370 C   0  0  0  0  0  0  0  0  0  0  0  0
  142.5390   80.5390  223.3760 C   0  0  0  0  0  0  0  0  0  0  0  0
  142.6070   79.4760  222.5020 C   0  0  0  0  0  0  0  0  0  0  0  0
  141.4450   78.8450  222.0220 C   0  0  0  0  0  0  0  0  0  0  0  0
  141.6410   77.7690  221.0620 C   0  0  0  0  0  0  0  0  0  0  0  0
  140.7770   76.6480  221.0900 N   0  0  0  0  0  0  0  0  0  0  0  0
  141.0280   75.2780  221.0210 C   0  0  0  0  0  0  0  0  0  0  0  0
  142.2050   74.8450  220.9240 O   0  0  0  0  0  0  0  0  0  0  0  0
  139.9740   74.2190  221.0560 C   0  0  0  0  0  0  0  0  0  0  0  0
  139.8910   73.5090  222.3050 N   0  0  0  0  0  0  0  0  0  0  0  0
  140.2960   72.1240  222.3560 C   0  0  0  0  0  0  0  0  0  0  0  0
  140.7290   71.5180  221.3400 O   0  0  0  0  0  0  0  0  0  0  0  0
  140.2000   71.4070  223.6220 C   0  0  0  0  0  0  0  0  0  0  0  0
  139.6100   70.1600  223.6650 C   0  0  0  0  0  0  0  0  0  0  0  0
  139.4790   69.4240  224.8020 C   0  0  0  0  0  0  0  0  0  0  0  0
  139.9540   69.9320  225.9750 C   0  0  0  0  0  0  0  0  0  0  0  0
  139.8310   69.2000  227.1380 C   0  0  0  0  0  0  0  0  0  0  0  0
  140.3320   69.7620  228.3170 C   0  0  0  0  0  0  0  0  0  0  0  0
  140.9180   71.0030  228.2650 C   0  0  0  0  0  0  0  0  0  0  0  0
  141.0430   71.7360  227.1060 C   0  0  0  0  0  0  0  0  0  0  0  0
  140.5490   71.1860  225.9380 C   0  0  0  0  0  0  0  0  0  0  0  0
  140.6630   71.8930  224.7880 N   0  0  0  0  0  0  0  0  0  0  0  0
  138.3945   78.0715  223.8615 H   0  0  0  0  0  0  0  0  0  0  0  0
  137.2067   78.1021  222.5143 H   0  0  0  0  0  0  0  0  0  0  0  0
  138.5338   76.8916  222.5143 H   0  0  0  0  0  0  0  0  0  0  0  0
  139.2090   80.8007  223.6996 H   0  0  0  0  0  0  0  0  0  0  0  0
  141.3204   81.9023  224.5353 H   0  0  0  0  0  0  0  0  0  0  0  0
  143.4784   80.9965  223.7199 H   0  0  0  0  0  0  0  0  0  0  0  0
  143.5916   79.1128  222.1723 H   0  0  0  0  0  0  0  0  0  0  0  0
  141.5562   78.2142  220.0597 H   0  0  0  0  0  0  0  0  0  0  0  0
  142.6198   77.3497  221.3379 H   0  0  0  0  0  0  0  0  0  0  0  0
  139.7220   76.8940  221.2040 H   0  0  0  0  0  0  0  0  0  0  0  0
  139.0008   74.6947  220.8645 H   0  0  0  0  0  0  0  0  0  0  0  0
  140.2452   73.4783  220.2893 H   0  0  0  0  0  0  0  0  0  0  0  0
  139.5500   73.9260  223.2030 H   0  0  0  0  0  0  0  0  0  0  0  0
  139.2234   69.7368  222.7261 H   0  0  0  0  0  0  0  0  0  0  0  0
  138.9977   68.4352  224.7754 H   0  0  0  0  0  0  0  0  0  0  0  0
  139.3552   68.2082  227.1381 H   0  0  0  0  0  0  0  0  0  0  0  0
  140.2578   69.2186  229.2705 H   0  0  0  0  0  0  0  0  0  0  0  0
  141.3082   71.4343  229.1987 H   0  0  0  0  0  0  0  0  0  0  0  0
  141.5204   72.7270  227.1095 H   0  0  0  0  0  0  0  0  0  0  0  0
  1  2  1  0
  2  3  1  0
  3  4  2  0
  4  5  1  0
  5  6  2  0
  6  7  1  0
  7  8  2  0
  8  9  1  0
  9 10  1  0
 10 11  1  0
 11 12  2  0
 11 13  1  0
 13 14  1  0
 14 15  1  0
 15 16  2  0
 15 17  1  0
 17 18  2  0
 18 19  1  0
 19 20  2  0
 20 21  1  0
 21 22  2  0
 22 23  1  0
 23 24  2  0
 24 25  1  0
 25 26  2  0
  8  3  1  0
 26 17  1  0
 25 20  1  0
  1 27  1  0
  1 28  1  0
  1 29  1  0
  4 30  1  0
  5 31  1  0
  6 32  1  0
  7 33  1  0
  9 34  1  0
  9 35  1  0
 10 36  1  0
 13 37  1  0
 13 38  1  0
 14 39  1  0
 18 40  1  0
 19 41  1  0
 21 42  1  0
 22 43  1  0
 23 44  1  0
 24 45  1  0
M  END
>  <smiles>  (20) 
COc1ccccc1CNC(=O)CNC(=O)c1ccc2ccccc2n1

>  <score_type>  (20) 
oracle

>  <origin>  (20) 
autodockgpu

>  <m_score__min__energy>  (20) 
-8.3200000000000003

>  <m_primary>  (20) 
energy

>  <rmsd>  (20) 
3.389508427747368

>  <m_score__min__rmsd>  (20) 
3.389508427747368

>  <meeko>  (20) 
{"free_energy": -7.98, "intermolecular_energy": -9.77, "internal_energy": -1.42, "cluster_size": 40, "cluster_id": 2, "rank_in_cluster": 8}

>  <energy>  (20) 
-7.66

>  <cluster_rmsd>  (20) 
1.91

>  <cluster>  (20) 
2

$$$$

     RDKit          3D

 45 47  0  0  0  0  0  0  0  0999 V2000
  137.8490   78.8750  222.7240 C   0  0  0  0  0  0  0  0  0  0  0  0
  139.1530   78.4130  222.6200 O   0  0  0  0  0  0  0  0  0  0  0  0
  140.3200   79.1260  222.7610 C   0  0  0  0  0  0  0  0  0  0  0  0
  140.2910   80.1890  223.6660 C   0  0  0  0  0  0  0  0  0  0  0  0
  141.4300   80.9690  223.8870 C   0  0  0  0  0  0  0  0  0  0  0  0
  142.5460   80.6230  223.1690 C   0  0  0  0  0  0  0  0  0  0  0  0
  142.5690   79.5730  222.2770 C   0  0  0  0  0  0  0  0  0  0  0  0
  141.4310   78.7810  222.0440 C   0  0  0  0  0  0  0  0  0  0  0  0
  141.5610   77.7360  221.0410 C   0  0  0  0  0  0  0  0  0  0  0  0
  140.6970   76.6150  221.0890 N   0  0  0  0  0  0  0  0  0  0  0  0
  140.9470   75.2450  221.0350 C   0  0  0  0  0  0  0  0  0  0  0  0
  142.1240   74.8100  220.9360 O   0  0  0  0  0  0  0  0  0  0  0  0
  139.8940   74.1870  221.0910 C   0  0  0  0  0  0  0  0  0  0  0  0
  139.8370   73.4740  222.3400 N   0  0  0  0  0  0  0  0  0  0  0  0
  140.2890   72.1040  222.3900 C   0  0  0  0  0  0  0  0  0  0  0  0
  140.7400   71.5130  221.3720 O   0  0  0  0  0  0  0  0  0  0  0  0
  140.2210   71.3830  223.6550 C   0  0  0  0  0  0  0  0  0  0  0  0
  139.6700   70.1180  223.6990 C   0  0  0  0  0  0  0  0  0  0  0  0
  139.5670   69.3770  224.8370 C   0  0  0  0  0  0  0  0  0  0  0  0
  140.0290   69.9000  226.0090 C   0  0  0  0  0  0  0  0  0  0  0  0
  139.9330   69.1640  227.1710 C   0  0  0  0  0  0  0  0  0  0  0  0
  140.4200   69.7410  228.3490 C   0  0  0  0  0  0  0  0  0  0  0  0
  140.9650   71.0010  228.2960 C   0  0  0  0  0  0  0  0  0  0  0  0
  141.0630   71.7380  227.1370 C   0  0  0  0  0  0  0  0  0  0  0  0
  140.5840   71.1720  225.9700 C   0  0  0  0  0  0  0  0  0  0  0  0
  140.6710   71.8840  224.8200 N   0  0  0  0  0  0  0  0  0  0  0  0
  137.5776   78.9711  223.7857 H   0  0  0  0  0  0  0  0  0  0  0  0
  137.7676   79.8567  222.2344 H   0  0  0  0  0  0  0  0  0  0  0  0
  137.1678   78.1635  222.2344 H   0  0  0  0  0  0  0  0  0  0  0  0
  139.3624   80.4150  224.2107 H   0  0  0  0  0  0  0  0  0  0  0  0
  141.4309   81.8107  224.5951 H   0  0  0  0  0  0  0  0  0  0  0  0
  143.4649   81.2106  223.3117 H   0  0  0  0  0  0  0  0  0  0  0  0
  143.4994   79.3492  221.7346 H   0  0  0  0  0  0  0  0  0  0  0  0
  141.4133   78.2126  220.0607 H   0  0  0  0  0  0  0  0  0  0  0  0
  142.5540   77.3069  221.2406 H   0  0  0  0  0  0  0  0  0  0  0  0
  139.6430   76.8630  221.2070 H   0  0  0  0  0  0  0  0  0  0  0  0
  138.9173   74.6637  220.9215 H   0  0  0  0  0  0  0  0  0  0  0  0
  140.1487   73.4476  220.3174 H   0  0  0  0  0  0  0  0  0  0  0  0
  139.4850   73.8790  223.2390 H   0  0  0  0  0  0  0  0  0  0  0  0
  139.2926   69.6838  222.7614 H   0  0  0  0  0  0  0  0  0  0  0  0
  139.1185   68.3729  224.8114 H   0  0  0  0  0  0  0  0  0  0  0  0
  139.4888   68.1577  227.1719 H   0  0  0  0  0  0  0  0  0  0  0  0
  140.3673   69.1945  229.3022 H   0  0  0  0  0  0  0  0  0  0  0  0
  141.3431   71.4446  229.2289 H   0  0  0  0  0  0  0  0  0  0  0  0
  141.5078   72.7441  227.1395 H   0  0  0  0  0  0  0  0  0  0  0  0
  1  2  1  0
  2  3  1  0
  3  4  2  0
  4  5  1  0
  5  6  2  0
  6  7  1  0
  7  8  2  0
  8  9  1  0
  9 10  1  0
 10 11  1  0
 11 12  2  0
 11 13  1  0
 13 14  1  0
 14 15  1  0
 15 16  2  0
 15 17  1  0
 17 18  2  0
 18 19  1  0
 19 20  2  0
 20 21  1  0
 21 22  2  0
 22 23  1  0
 23 24  2  0
 24 25  1  0
 25 26  2  0
  8  3  1  0
 26 17  1  0
 25 20  1  0
  1 27  1  0
  1 28  1  0
  1 29  1  0
  4 30  1  0
  5 31  1  0
  6 32  1  0
  7 33  1  0
  9 34  1  0
  9 35  1  0
 10 36  1  0
 13 37  1  0
 13 38  1  0
 14 39  1  0
 18 40  1  0
 19 41  1  0
 21 42  1  0
 22 43  1  0
 23 44  1  0
 24 45  1  0
M  END
>  <smiles>  (21) 
COc1ccccc1CNC(=O)CNC(=O)c1ccc2ccccc2n1

>  <score_type>  (21) 
oracle

>  <origin>  (21) 
autodockgpu

>  <m_score__min__energy>  (21) 
-8.3200000000000003

>  <m_primary>  (21) 
energy

>  <rmsd>  (21) 
3.365494776059266

>  <m_score__min__rmsd>  (21) 
3.365494776059266

>  <meeko>  (21) 
{"free_energy": -8.05, "intermolecular_energy": -9.84, "internal_energy": -1.46, "cluster_size": 40, "cluster_id": 2, "rank_in_cluster": 7}

>  <energy>  (21) 
-7.64

>  <cluster_rmsd>  (21) 
1.85

>  <cluster>  (21) 
2

$$$$

     RDKit          3D

 45 47  0  0  0  0  0  0  0  0999 V2000
  137.7720   78.9450  222.7430 C   0  0  0  0  0  0  0  0  0  0  0  0
  139.0510   78.4140  222.8190 O   0  0  0  0  0  0  0  0  0  0  0  0
  140.2470   79.0860  222.8930 C   0  0  0  0  0  0  0  0  0  0  0  0
  140.2650   80.2340  223.6910 C   0  0  0  0  0  0  0  0  0  0  0  0
  141.4360   80.9830  223.8370 C   0  0  0  0  0  0  0  0  0  0  0  0
  142.5350   80.5220  223.1600 C   0  0  0  0  0  0  0  0  0  0  0  0
  142.5130   79.3900  222.3740 C   0  0  0  0  0  0  0  0  0  0  0  0
  141.3410   78.6280  222.2170 C   0  0  0  0  0  0  0  0  0  0  0  0
  141.4260   77.4850  221.3200 C   0  0  0  0  0  0  0  0  0  0  0  0
  140.5110   76.4150  221.4710 N   0  0  0  0  0  0  0  0  0  0  0  0
  140.4340   75.1640  220.8590 C   0  0  0  0  0  0  0  0  0  0  0  0
  141.2900   74.8120  220.0070 O   0  0  0  0  0  0  0  0  0  0  0  0
  139.3760   74.1470  221.1380 C   0  0  0  0  0  0  0  0  0  0  0  0
  139.5420   73.4480  222.3850 N   0  0  0  0  0  0  0  0  0  0  0  0
  139.6720   72.0100  222.3740 C   0  0  0  0  0  0  0  0  0  0  0  0
  139.6530   71.3470  221.3030 O   0  0  0  0  0  0  0  0  0  0  0  0
  139.8300   71.3060  223.6410 C   0  0  0  0  0  0  0  0  0  0  0  0
  139.5040   69.9670  223.7310 C   0  0  0  0  0  0  0  0  0  0  0  0
  139.6210   69.2360  224.8730 C   0  0  0  0  0  0  0  0  0  0  0  0
  140.0840   69.8440  226.0020 C   0  0  0  0  0  0  0  0  0  0  0  0
  140.2090   69.1190  227.1680 C   0  0  0  0  0  0  0  0  0  0  0  0
  140.6890   69.7850  228.3010 C   0  0  0  0  0  0  0  0  0  0  0  0
  141.0100   71.1170  228.2020 C   0  0  0  0  0  0  0  0  0  0  0  0
  140.8870   71.8450  227.0390 C   0  0  0  0  0  0  0  0  0  0  0  0
  140.4140   71.1910  225.9170 C   0  0  0  0  0  0  0  0  0  0  0  0
  140.2850   71.8900  224.7640 N   0  0  0  0  0  0  0  0  0  0  0  0
  137.3814   79.1072  223.7584 H   0  0  0  0  0  0  0  0  0  0  0  0
  137.8045   79.9040  222.2051 H   0  0  0  0  0  0  0  0  0  0  0  0
  137.1157   78.2450  222.2051 H   0  0  0  0  0  0  0  0  0  0  0  0
  139.3480   80.5510  224.2093 H   0  0  0  0  0  0  0  0  0  0  0  0
  141.4734   81.8895  224.4589 H   0  0  0  0  0  0  0  0  0  0  0  0
  143.4781   81.0813  223.2480 H   0  0  0  0  0  0  0  0  0  0  0  0
  143.4322   79.0755  221.8581 H   0  0  0  0  0  0  0  0  0  0  0  0
  141.3029   77.8703  220.2971 H   0  0  0  0  0  0  0  0  0  0  0  0
  142.3980   77.0327  221.5665 H   0  0  0  0  0  0  0  0  0  0  0  0
  139.7320   76.5880  222.2120 H   0  0  0  0  0  0  0  0  0  0  0  0
  138.4024   74.6586  221.1566 H   0  0  0  0  0  0  0  0  0  0  0  0
  139.4463   73.3919  220.3412 H   0  0  0  0  0  0  0  0  0  0  0  0
  139.5760   73.9090  223.3240 H   0  0  0  0  0  0  0  0  0  0  0  0
  139.1284   69.4627  222.8284 H   0  0  0  0  0  0  0  0  0  0  0  0
  139.3462   68.1709  224.8849 H   0  0  0  0  0  0  0  0  0  0  0  0
  139.9404   68.0530  227.2063 H   0  0  0  0  0  0  0  0  0  0  0  0
  140.8074   69.2508  229.2553 H   0  0  0  0  0  0  0  0  0  0  0  0
  141.3855   71.6299  229.0997 H   0  0  0  0  0  0  0  0  0  0  0  0
  141.1562   72.9110  227.0045 H   0  0  0  0  0  0  0  0  0  0  0  0
  1  2  1  0
  2  3  1  0
  3  4  2  0
  4  5  1  0
  5  6  2  0
  6  7  1  0
  7  8  2  0
  8  9  1  0
  9 10  1  0
 10 11  1  0
 11 12  2  0
 11 13  1  0
 13 14  1  0
 14 15  1  0
 15 16  2  0
 15 17  1  0
 17 18  2  0
 18 19  1  0
 19 20  2  0
 20 21  1  0
 21 22  2  0
 22 23  1  0
 23 24  2  0
 24 25  1  0
 25 26  2  0
  8  3  1  0
 26 17  1  0
 25 20  1  0
  1 27  1  0
  1 28  1  0
  1 29  1  0
  4 30  1  0
  5 31  1  0
  6 32  1  0
  7 33  1  0
  9 34  1  0
  9 35  1  0
 10 36  1  0
 13 37  1  0
 13 38  1  0
 14 39  1  0
 18 40  1  0
 19 41  1  0
 21 42  1  0
 22 43  1  0
 23 44  1  0
 24 45  1  0
M  END
>  <smiles>  (22) 
COc1ccccc1CNC(=O)CNC(=O)c1ccc2ccccc2n1

>  <score_type>  (22) 
oracle

>  <origin>  (22) 
autodockgpu

>  <m_score__min__energy>  (22) 
-8.3200000000000003

>  <m_primary>  (22) 
energy

>  <rmsd>  (22) 
3.308189350318531

>  <m_score__min__rmsd>  (22) 
3.308189350318531

>  <meeko>  (22) 
{"free_energy": -7.84, "intermolecular_energy": -9.63, "internal_energy": -1.58, "cluster_size": 40, "cluster_id": 2, "rank_in_cluster": 10}

>  <energy>  (22) 
-7.64

>  <cluster_rmsd>  (22) 
1.93

>  <cluster>  (22) 
2

$$$$

     RDKit          3D

 45 47  0  0  0  0  0  0  0  0999 V2000
  141.3990   75.2820  221.0200 C   0  0  0  0  0  0  0  0  0  0  0  0
  140.6660   75.5880  222.1580 O   0  0  0  0  0  0  0  0  0  0  0  0
  140.1700   76.8100  222.5460 C   0  0  0  0  0  0  0  0  0  0  0  0
  141.1120   77.8180  222.7710 C   0  0  0  0  0  0  0  0  0  0  0  0
  140.7070   79.0980  223.1600 C   0  0  0  0  0  0  0  0  0  0  0  0
  139.3560   79.2860  223.3010 C   0  0  0  0  0  0  0  0  0  0  0  0
  138.4310   78.2890  223.0780 C   0  0  0  0  0  0  0  0  0  0  0  0
  138.8250   76.9960  222.6870 C   0  0  0  0  0  0  0  0  0  0  0  0
  137.7630   76.0140  222.5330 C   0  0  0  0  0  0  0  0  0  0  0  0
  138.0970   74.6730  222.2240 N   0  0  0  0  0  0  0  0  0  0  0  0
  137.5030   73.7380  221.3770 C   0  0  0  0  0  0  0  0  0  0  0  0
  136.4810   74.0370  220.7070 O   0  0  0  0  0  0  0  0  0  0  0  0
  137.9940   72.3410  221.1770 C   0  0  0  0  0  0  0  0  0  0  0  0
  138.3300   71.6520  222.3950 N   0  0  0  0  0  0  0  0  0  0  0  0
  139.5430   72.0070  223.0940 C   0  0  0  0  0  0  0  0  0  0  0  0
  140.3140   72.9100  222.6730 O   0  0  0  0  0  0  0  0  0  0  0  0
  139.8830   71.3000  224.3220 C   0  0  0  0  0  0  0  0  0  0  0  0
  140.7360   71.8800  225.2390 C   0  0  0  0  0  0  0  0  0  0  0  0
  141.1060   71.2900  226.4080 C   0  0  0  0  0  0  0  0  0  0  0  0
  140.6140   70.0530  226.7070 C   0  0  0  0  0  0  0  0  0  0  0  0
  140.9770   69.4400  227.8880 C   0  0  0  0  0  0  0  0  0  0  0  0
  140.4470   68.1720  228.1520 C   0  0  0  0  0  0  0  0  0  0  0  0
  139.5980   67.6020  227.2350 C   0  0  0  0  0  0  0  0  0  0  0  0
  139.2330   68.2120  226.0550 C   0  0  0  0  0  0  0  0  0  0  0  0
  139.7540   69.4650  225.7890 C   0  0  0  0  0  0  0  0  0  0  0  0
  139.4070   70.0800  224.6330 N   0  0  0  0  0  0  0  0  0  0  0  0
  142.3774   74.8735  221.3129 H   0  0  0  0  0  0  0  0  0  0  0  0
  140.8543   74.5361  220.4225 H   0  0  0  0  0  0  0  0  0  0  0  0
  141.5463   76.1938  220.4225 H   0  0  0  0  0  0  0  0  0  0  0  0
  142.1826   77.6017  222.6406 H   0  0  0  0  0  0  0  0  0  0  0  0
  141.4296   79.9071  223.3423 H   0  0  0  0  0  0  0  0  0  0  0  0
  138.9937   80.2788  223.6063 H   0  0  0  0  0  0  0  0  0  0  0  0
  137.3611   78.5089  223.2086 H   0  0  0  0  0  0  0  0  0  0  0  0
  137.2040   75.9951  223.4802 H   0  0  0  0  0  0  0  0  0  0  0  0
  137.2180   76.3581  221.6416 H   0  0  0  0  0  0  0  0  0  0  0  0
  138.9920   74.3040  222.7230 H   0  0  0  0  0  0  0  0  0  0  0  0
  137.2070   71.7693  220.6635 H   0  0  0  0  0  0  0  0  0  0  0  0
  138.9213   72.4137  220.5898 H   0  0  0  0  0  0  0  0  0  0  0  0
  137.7510   70.8940  222.8270 H   0  0  0  0  0  0  0  0  0  0  0  0
  141.1403   72.8774  225.0116 H   0  0  0  0  0  0  0  0  0  0  0  0
  141.7904   71.8019  227.1005 H   0  0  0  0  0  0  0  0  0  0  0  0
  141.6593   69.9307  228.5977 H   0  0  0  0  0  0  0  0  0  0  0  0
  140.7063   67.6402  229.0793 H   0  0  0  0  0  0  0  0  0  0  0  0
  139.1877   66.6053  227.4546 H   0  0  0  0  0  0  0  0  0  0  0  0
  138.5498   67.7188  225.3479 H   0  0  0  0  0  0  0  0  0  0  0  0
  1  2  1  0
  2  3  1  0
  3  4  2  0
  4  5  1  0
  5  6  2  0
  6  7  1  0
  7  8  2  0
  8  9  1  0
  9 10  1  0
 10 11  1  0
 11 12  2  0
 11 13  1  0
 13 14  1  0
 14 15  1  0
 15 16  2  0
 15 17  1  0
 17 18  2  0
 18 19  1  0
 19 20  2  0
 20 21  1  0
 21 22  2  0
 22 23  1  0
 23 24  2  0
 24 25  1  0
 25 26  2  0
  8  3  1  0
 26 17  1  0
 25 20  1  0
  1 27  1  0
  1 28  1  0
  1 29  1  0
  4 30  1  0
  5 31  1  0
  6 32  1  0
  7 33  1  0
  9 34  1  0
  9 35  1  0
 10 36  1  0
 13 37  1  0
 13 38  1  0
 14 39  1  0
 18 40  1  0
 19 41  1  0
 21 42  1  0
 22 43  1  0
 23 44  1  0
 24 45  1  0
M  END
>  <smiles>  (23) 
COc1ccccc1CNC(=O)CNC(=O)c1ccc2ccccc2n1

>  <score_type>  (23) 
oracle

>  <origin>  (23) 
autodockgpu

>  <m_score__min__energy>  (23) 
-8.3200000000000003

>  <m_primary>  (23) 
energy

>  <rmsd>  (23) 
3.9275788400092253

>  <m_score__min__rmsd>  (23) 
3.9275788400092253

>  <meeko>  (23) 
{"free_energy": -7.64, "intermolecular_energy": -9.43, "internal_energy": -2.5, "cluster_size": 40, "cluster_id": 2, "rank_in_cluster": 18}

>  <energy>  (23) 
-7.64

>  <cluster_rmsd>  (23) 
1.93

>  <cluster>  (23) 
2

$$$$

     RDKit          3D

 45 47  0  0  0  0  0  0  0  0999 V2000
  141.4970   75.1540  220.8150 C   0  0  0  0  0  0  0  0  0  0  0  0
  140.8170   75.4460  221.9890 O   0  0  0  0  0  0  0  0  0  0  0  0
  140.2270   76.6310  222.3570 C   0  0  0  0  0  0  0  0  0  0  0  0
  141.0920   77.6840  222.6690 C   0  0  0  0  0  0  0  0  0  0  0  0
  140.5890   78.9330  223.0460 C   0  0  0  0  0  0  0  0  0  0  0  0
  139.2230   79.0450  223.0850 C   0  0  0  0  0  0  0  0  0  0  0  0
  138.3740   78.0050  222.7760 C   0  0  0  0  0  0  0  0  0  0  0  0
  138.8670   76.7430  222.3960 C   0  0  0  0  0  0  0  0  0  0  0  0
  137.8750   75.7080  222.1460 C   0  0  0  0  0  0  0  0  0  0  0  0
  138.3010   74.3720  221.9460 N   0  0  0  0  0  0  0  0  0  0  0  0
  137.8040   73.3490  221.1400 C   0  0  0  0  0  0  0  0  0  0  0  0
  136.8000   73.5400  220.4060 O   0  0  0  0  0  0  0  0  0  0  0  0
  138.3840   71.9750  221.0600 C   0  0  0  0  0  0  0  0  0  0  0  0
  138.6820   71.3830  222.3370 N   0  0  0  0  0  0  0  0  0  0  0  0
  139.8140   71.8660  223.0910 C   0  0  0  0  0  0  0  0  0  0  0  0
  140.5480   72.7980  222.6660 O   0  0  0  0  0  0  0  0  0  0  0  0
  140.1170   71.2560  224.3800 C   0  0  0  0  0  0  0  0  0  0  0  0
  140.9590   71.8990  225.2660 C   0  0  0  0  0  0  0  0  0  0  0  0
  141.2940   71.4000  226.4870 C   0  0  0  0  0  0  0  0  0  0  0  0
  140.7780   70.1990  226.8740 C   0  0  0  0  0  0  0  0  0  0  0  0
  141.1060   69.6780  228.1080 C   0  0  0  0  0  0  0  0  0  0  0  0
  140.5530   68.4430  228.4620 C   0  0  0  0  0  0  0  0  0  0  0  0
  139.7170   67.8100  227.5740 C   0  0  0  0  0  0  0  0  0  0  0  0
  139.3860   68.3280  226.3410 C   0  0  0  0  0  0  0  0  0  0  0  0
  139.9310   69.5480  225.9870 C   0  0  0  0  0  0  0  0  0  0  0  0
  139.6170   70.0720  224.7770 N   0  0  0  0  0  0  0  0  0  0  0  0
  142.4828   74.7307  221.0579 H   0  0  0  0  0  0  0  0  0  0  0  0
  140.9192   74.4247  220.2283 H   0  0  0  0  0  0  0  0  0  0  0  0
  141.6280   76.0752  220.2283 H   0  0  0  0  0  0  0  0  0  0  0  0
  142.1797   77.5283  222.6174 H   0  0  0  0  0  0  0  0  0  0  0  0
  141.2500   79.7758  223.2965 H   0  0  0  0  0  0  0  0  0  0  0  0
  138.7844   80.0107  223.3767 H   0  0  0  0  0  0  0  0  0  0  0  0
  137.2869   78.1646  222.8275 H   0  0  0  0  0  0  0  0  0  0  0  0
  137.1937   75.7015  223.0096 H   0  0  0  0  0  0  0  0  0  0  0  0
  137.4428   75.9912  221.1749 H   0  0  0  0  0  0  0  0  0  0  0  0
  139.1900   74.0930  222.5090 H   0  0  0  0  0  0  0  0  0  0  0  0
  137.6637   71.3268  220.5394 H   0  0  0  0  0  0  0  0  0  0  0  0
  139.3405   72.0675  220.5247 H   0  0  0  0  0  0  0  0  0  0  0  0
  138.1290   70.6090  222.7760 H   0  0  0  0  0  0  0  0  0  0  0  0
  141.3828   72.8693  224.9679 H   0  0  0  0  0  0  0  0  0  0  0  0
  141.9708   71.9572  227.1515 H   0  0  0  0  0  0  0  0  0  0  0  0
  141.7800   70.2157  228.7911 H   0  0  0  0  0  0  0  0  0  0  0  0
  140.7836   67.9859  229.4356 H   0  0  0  0  0  0  0  0  0  0  0  0
  139.2895   66.8385  227.8628 H   0  0  0  0  0  0  0  0  0  0  0  0
  138.7104   67.7886  225.6608 H   0  0  0  0  0  0  0  0  0  0  0  0
  1  2  1  0
  2  3  1  0
  3  4  2  0
  4  5  1  0
  5  6  2  0
  6  7  1  0
  7  8  2  0
  8  9  1  0
  9 10  1  0
 10 11  1  0
 11 12  2  0
 11 13  1  0
 13 14  1  0
 14 15  1  0
 15 16  2  0
 15 17  1  0
 17 18  2  0
 18 19  1  0
 19 20  2  0
 20 21  1  0
 21 22  2  0
 22 23  1  0
 23 24  2  0
 24 25  1  0
 25 26  2  0
  8  3  1  0
 26 17  1  0
 25 20  1  0
  1 27  1  0
  1 28  1  0
  1 29  1  0
  4 30  1  0
  5 31  1  0
  6 32  1  0
  7 33  1  0
  9 34  1  0
  9 35  1  0
 10 36  1  0
 13 37  1  0
 13 38  1  0
 14 39  1  0
 18 40  1  0
 19 41  1  0
 21 42  1  0
 22 43  1  0
 23 44  1  0
 24 45  1  0
M  END
>  <smiles>  (24) 
COc1ccccc1CNC(=O)CNC(=O)c1ccc2ccccc2n1

>  <score_type>  (24) 
oracle

>  <origin>  (24) 
autodockgpu

>  <m_score__min__energy>  (24) 
-8.3200000000000003

>  <m_primary>  (24) 
energy

>  <rmsd>  (24) 
3.8316327628302798

>  <m_score__min__rmsd>  (24) 
3.8316327628302798

>  <meeko>  (24) 
{"free_energy": -7.5, "intermolecular_energy": -9.29, "internal_energy": -2.53, "cluster_size": 40, "cluster_id": 2, "rank_in_cluster": 34}

>  <energy>  (24) 
-7.64

>  <cluster_rmsd>  (24) 
1.85

>  <cluster>  (24) 
2

$$$$

     RDKit          3D

 45 47  0  0  0  0  0  0  0  0999 V2000
  139.4610   75.6850  222.3180 C   0  0  0  0  0  0  0  0  0  0  0  0
  140.6980   75.3050  221.8180 O   0  0  0  0  0  0  0  0  0  0  0  0
  141.4620   75.9410  220.8690 C   0  0  0  0  0  0  0  0  0  0  0  0
  141.3670   77.3340  220.8280 C   0  0  0  0  0  0  0  0  0  0  0  0
  142.1100   78.0730  219.9030 C   0  0  0  0  0  0  0  0  0  0  0  0
  142.9180   77.3500  219.0630 C   0  0  0  0  0  0  0  0  0  0  0  0
  143.0080   75.9760  219.1070 C   0  0  0  0  0  0  0  0  0  0  0  0
  142.2650   75.2200  220.0310 C   0  0  0  0  0  0  0  0  0  0  0  0
  142.4030   73.7740  219.9470 C   0  0  0  0  0  0  0  0  0  0  0  0
  141.3380   72.9480  220.3830 N   0  0  0  0  0  0  0  0  0  0  0  0
  140.9200   71.6810  219.9790 C   0  0  0  0  0  0  0  0  0  0  0  0
  141.5340   71.0590  219.0750 O   0  0  0  0  0  0  0  0  0  0  0  0
  139.7490   70.9520  220.5530 C   0  0  0  0  0  0  0  0  0  0  0  0
  139.9340   70.5090  221.9100 N   0  0  0  0  0  0  0  0  0  0  0  0
  140.0800   71.4920  222.9570 C   0  0  0  0  0  0  0  0  0  0  0  0
  140.0420   72.7290  222.7210 O   0  0  0  0  0  0  0  0  0  0  0  0
  140.2780   71.0380  224.3290 C   0  0  0  0  0  0  0  0  0  0  0  0
  140.7930   71.9020  225.2730 C   0  0  0  0  0  0  0  0  0  0  0  0
  141.0090   71.5610  226.5730 C   0  0  0  0  0  0  0  0  0  0  0  0
  140.7050   70.2960  226.9820 C   0  0  0  0  0  0  0  0  0  0  0  0
  140.9170   69.9320  228.2950 C   0  0  0  0  0  0  0  0  0  0  0  0
  140.5890   68.6240  228.6690 C   0  0  0  0  0  0  0  0  0  0  0  0
  140.0770   67.7700  227.7230 C   0  0  0  0  0  0  0  0  0  0  0  0
  139.8630   68.1310  226.4110 C   0  0  0  0  0  0  0  0  0  0  0  0
  140.1850   69.4220  226.0360 C   0  0  0  0  0  0  0  0  0  0  0  0
  139.9830   69.7940  224.7490 N   0  0  0  0  0  0  0  0  0  0  0  0
  139.4914   75.6757  223.4175 H   0  0  0  0  0  0  0  0  0  0  0  0
  139.2191   76.6989  221.9665 H   0  0  0  0  0  0  0  0  0  0  0  0
  138.6917   74.9818  221.9665 H   0  0  0  0  0  0  0  0  0  0  0  0
  140.7004   77.8549  221.5311 H   0  0  0  0  0  0  0  0  0  0  0  0
  142.0502   79.1702  219.8517 H   0  0  0  0  0  0  0  0  0  0  0  0
  143.5218   77.8920  218.3202 H   0  0  0  0  0  0  0  0  0  0  0  0
  143.6764   75.4584  218.4032 H   0  0  0  0  0  0  0  0  0  0  0  0
  142.5857   73.5303  218.8900 H   0  0  0  0  0  0  0  0  0  0  0  0
  143.2134   73.5488  220.6559 H   0  0  0  0  0  0  0  0  0  0  0  0
  140.7440   73.3680  221.1940 H   0  0  0  0  0  0  0  0  0  0  0  0
  138.8781   71.6234  220.5255 H   0  0  0  0  0  0  0  0  0  0  0  0
  139.6110   70.0475  219.9425 H   0  0  0  0  0  0  0  0  0  0  0  0
  139.9740   69.5060  222.2060 H   0  0  0  0  0  0  0  0  0  0  0  0
  141.0435   72.9254  224.9571 H   0  0  0  0  0  0  0  0  0  0  0  0
  141.4220   72.2937  227.2820 H   0  0  0  0  0  0  0  0  0  0  0  0
  141.3298   70.6454  229.0235 H   0  0  0  0  0  0  0  0  0  0  0  0
  140.7389   68.2850  229.7047 H   0  0  0  0  0  0  0  0  0  0  0  0
  139.8246   66.7440  228.0291 H   0  0  0  0  0  0  0  0  0  0  0  0
  139.4494   67.4153  225.6853 H   0  0  0  0  0  0  0  0  0  0  0  0
  1  2  1  0
  2  3  1  0
  3  4  2  0
  4  5  1  0
  5  6  2  0
  6  7  1  0
  7  8  2  0
  8  9  1  0
  9 10  1  0
 10 11  1  0
 11 12  2  0
 11 13  1  0
 13 14  1  0
 14 15  1  0
 15 16  2  0
 15 17  1  0
 17 18  2  0
 18 19  1  0
 19 20  2  0
 20 21  1  0
 21 22  2  0
 22 23  1  0
 23 24  2  0
 24 25  1  0
 25 26  2  0
  8  3  1  0
 26 17  1  0
 25 20  1  0
  1 27  1  0
  1 28  1  0
  1 29  1  0
  4 30  1  0
  5 31  1  0
  6 32  1  0
  7 33  1  0
  9 34  1  0
  9 35  1  0
 10 36  1  0
 13 37  1  0
 13 38  1  0
 14 39  1  0
 18 40  1  0
 19 41  1  0
 21 42  1  0
 22 43  1  0
 23 44  1  0
 24 45  1  0
M  END
>  <smiles>  (25) 
COc1ccccc1CNC(=O)CNC(=O)c1ccc2ccccc2n1

>  <score_type>  (25) 
oracle

>  <origin>  (25) 
autodockgpu

>  <m_score__min__energy>  (25) 
-8.3200000000000003

>  <m_primary>  (25) 
energy

>  <rmsd>  (25) 
3.621341159851471

>  <m_score__min__rmsd>  (25) 
3.621341159851471

>  <meeko>  (25) 
{"free_energy": -6.66, "intermolecular_energy": -8.45, "internal_energy": -2.49, "cluster_size": 1, "cluster_id": 7, "rank_in_cluster": 1}

>  <energy>  (25) 
-7.63

>  <cluster_rmsd>  (25) 
1.94

>  <cluster>  (25) 
2

$$$$

     RDKit          3D

 45 47  0  0  0  0  0  0  0  0999 V2000
  141.4120   75.3100  221.0420 C   0  0  0  0  0  0  0  0  0  0  0  0
  140.6580   75.6270  222.1630 O   0  0  0  0  0  0  0  0  0  0  0  0
  140.1760   76.8570  222.5430 C   0  0  0  0  0  0  0  0  0  0  0  0
  141.1290   77.8580  222.7520 C   0  0  0  0  0  0  0  0  0  0  0  0
  140.7390   79.1450  223.1320 C   0  0  0  0  0  0  0  0  0  0  0  0
  139.3910   79.3480  223.2800 C   0  0  0  0  0  0  0  0  0  0  0  0
  138.4550   78.3570  223.0730 C   0  0  0  0  0  0  0  0  0  0  0  0
  138.8340   77.0580  222.6910 C   0  0  0  0  0  0  0  0  0  0  0  0
  137.7620   76.0830  222.5540 C   0  0  0  0  0  0  0  0  0  0  0  0
  138.0800   74.7400  222.2400 N   0  0  0  0  0  0  0  0  0  0  0  0
  137.4620   73.8080  221.4070 C   0  0  0  0  0  0  0  0  0  0  0  0
  136.4290   74.1130  220.7580 O   0  0  0  0  0  0  0  0  0  0  0  0
  137.9390   72.4070  221.2000 C   0  0  0  0  0  0  0  0  0  0  0  0
  138.2820   71.7130  222.4140 N   0  0  0  0  0  0  0  0  0  0  0  0
  139.5160   72.0410  223.0880 C   0  0  0  0  0  0  0  0  0  0  0  0
  140.3010   72.9240  222.6500 O   0  0  0  0  0  0  0  0  0  0  0  0
  139.8620   71.3280  224.3120 C   0  0  0  0  0  0  0  0  0  0  0  0
  140.7240   71.9030  225.2240 C   0  0  0  0  0  0  0  0  0  0  0  0
  141.1000   71.3070  226.3880 C   0  0  0  0  0  0  0  0  0  0  0  0
  140.6060   70.0720  226.6870 C   0  0  0  0  0  0  0  0  0  0  0  0
  140.9750   69.4530  227.8630 C   0  0  0  0  0  0  0  0  0  0  0  0
  140.4440   68.1860  228.1270 C   0  0  0  0  0  0  0  0  0  0  0  0
  139.5870   67.6210  227.2140 C   0  0  0  0  0  0  0  0  0  0  0  0
  139.2160   68.2370  226.0390 C   0  0  0  0  0  0  0  0  0  0  0  0
  139.7380   69.4890  225.7730 C   0  0  0  0  0  0  0  0  0  0  0  0
  139.3850   70.1090  224.6220 N   0  0  0  0  0  0  0  0  0  0  0  0
  142.3835   74.9015  221.3571 H   0  0  0  0  0  0  0  0  0  0  0  0
  140.8770   74.5606  220.4402 H   0  0  0  0  0  0  0  0  0  0  0  0
  141.5732   76.2165  220.4402 H   0  0  0  0  0  0  0  0  0  0  0  0
  142.1966   77.6304  222.6160 H   0  0  0  0  0  0  0  0  0  0  0  0
  141.4708   79.9484  223.3025 H   0  0  0  0  0  0  0  0  0  0  0  0
  139.0403   80.3473  223.5775 H   0  0  0  0  0  0  0  0  0  0  0  0
  137.3882   78.5877  223.2097 H   0  0  0  0  0  0  0  0  0  0  0  0
  137.2181   76.0684  223.5100 H   0  0  0  0  0  0  0  0  0  0  0  0
  137.2061   76.4311  221.6710 H   0  0  0  0  0  0  0  0  0  0  0  0
  138.9820   74.3660  222.7220 H   0  0  0  0  0  0  0  0  0  0  0  0
  137.1418   71.8428  220.6940 H   0  0  0  0  0  0  0  0  0  0  0  0
  138.8607   72.4727  220.6032 H   0  0  0  0  0  0  0  0  0  0  0  0
  137.6930   70.9700  222.8580 H   0  0  0  0  0  0  0  0  0  0  0  0
  141.1301   72.8998  224.9968 H   0  0  0  0  0  0  0  0  0  0  0  0
  141.7918   71.8137  227.0770 H   0  0  0  0  0  0  0  0  0  0  0  0
  141.6637   69.9393  228.5696 H   0  0  0  0  0  0  0  0  0  0  0  0
  140.7084   67.6507  229.0509 H   0  0  0  0  0  0  0  0  0  0  0  0
  139.1755   66.6246  227.4326 H   0  0  0  0  0  0  0  0  0  0  0  0
  138.5265   67.7482  225.3350 H   0  0  0  0  0  0  0  0  0  0  0  0
  1  2  1  0
  2  3  1  0
  3  4  2  0
  4  5  1  0
  5  6  2  0
  6  7  1  0
  7  8  2  0
  8  9  1  0
  9 10  1  0
 10 11  1  0
 11 12  2  0
 11 13  1  0
 13 14  1  0
 14 15  1  0
 15 16  2  0
 15 17  1  0
 17 18  2  0
 18 19  1  0
 19 20  2  0
 20 21  1  0
 21 22  2  0
 22 23  1  0
 23 24  2  0
 24 25  1  0
 25 26  2  0
  8  3  1  0
 26 17  1  0
 25 20  1  0
  1 27  1  0
  1 28  1  0
  1 29  1  0
  4 30  1  0
  5 31  1  0
  6 32  1  0
  7 33  1  0
  9 34  1  0
  9 35  1  0
 10 36  1  0
 13 37  1  0
 13 38  1  0
 14 39  1  0
 18 40  1  0
 19 41  1  0
 21 42  1  0
 22 43  1  0
 23 44  1  0
 24 45  1  0
M  END
>  <smiles>  (26) 
COc1ccccc1CNC(=O)CNC(=O)c1ccc2ccccc2n1

>  <score_type>  (26) 
oracle

>  <origin>  (26) 
autodockgpu

>  <m_score__min__energy>  (26) 
-8.3200000000000003

>  <m_primary>  (26) 
energy

>  <rmsd>  (26) 
3.929971342331892

>  <m_score__min__rmsd>  (26) 
3.929971342331892

>  <meeko>  (26) 
{"free_energy": -7.64, "intermolecular_energy": -9.43, "internal_energy": -2.5, "cluster_size": 40, "cluster_id": 2, "rank_in_cluster": 19}

>  <energy>  (26) 
-7.63

>  <cluster_rmsd>  (26) 
1.86

>  <cluster>  (26) 
2

$$$$

     RDKit          3D

 45 47  0  0  0  0  0  0  0  0999 V2000
  137.8340   78.7840  222.7350 C   0  0  0  0  0  0  0  0  0  0  0  0
  139.1340   78.2980  222.7050 O   0  0  0  0  0  0  0  0  0  0  0  0
  140.3070   79.0050  222.8160 C   0  0  0  0  0  0  0  0  0  0  0  0
  140.2830   80.1160  223.6630 C   0  0  0  0  0  0  0  0  0  0  0  0
  141.4280   80.8950  223.8510 C   0  0  0  0  0  0  0  0  0  0  0  0
  142.5460   80.4990  223.1620 C   0  0  0  0  0  0  0  0  0  0  0  0
  142.5650   79.4020  222.3270 C   0  0  0  0  0  0  0  0  0  0  0  0
  141.4190   78.6110  222.1290 C   0  0  0  0  0  0  0  0  0  0  0  0
  141.5460   77.5120  221.1840 C   0  0  0  0  0  0  0  0  0  0  0  0
  140.5850   76.4720  221.1950 N   0  0  0  0  0  0  0  0  0  0  0  0
  140.7060   75.0920  221.0370 C   0  0  0  0  0  0  0  0  0  0  0  0
  141.8320   74.5630  220.8560 O   0  0  0  0  0  0  0  0  0  0  0  0
  139.5620   74.1310  221.0690 C   0  0  0  0  0  0  0  0  0  0  0  0
  139.4600   73.3730  222.2880 N   0  0  0  0  0  0  0  0  0  0  0  0
  140.3080   72.2200  222.4740 C   0  0  0  0  0  0  0  0  0  0  0  0
  141.1440   71.8600  221.6020 O   0  0  0  0  0  0  0  0  0  0  0  0
  140.1940   71.4500  223.7070 C   0  0  0  0  0  0  0  0  0  0  0  0
  139.5480   70.2300  223.7000 C   0  0  0  0  0  0  0  0  0  0  0  0
  139.3970   69.4490  224.8040 C   0  0  0  0  0  0  0  0  0  0  0  0
  139.9060   69.8810  225.9940 C   0  0  0  0  0  0  0  0  0  0  0  0
  139.7630   69.1030  227.1230 C   0  0  0  0  0  0  0  0  0  0  0  0
  140.3010   69.5870  228.3200 C   0  0  0  0  0  0  0  0  0  0  0  0
  140.9420   70.8020  228.3180 C   0  0  0  0  0  0  0  0  0  0  0  0
  141.0870   71.5820  227.1910 C   0  0  0  0  0  0  0  0  0  0  0  0
  140.5570   71.1080  226.0060 C   0  0  0  0  0  0  0  0  0  0  0  0
  140.6900   71.8620  224.8880 N   0  0  0  0  0  0  0  0  0  0  0  0
  137.5116   78.9045  223.7798 H   0  0  0  0  0  0  0  0  0  0  0  0
  137.7946   79.7576  222.2245 H   0  0  0  0  0  0  0  0  0  0  0  0
  137.1656   78.0750  222.2245 H   0  0  0  0  0  0  0  0  0  0  0  0
  139.3529   80.3803  224.1875 H   0  0  0  0  0  0  0  0  0  0  0  0
  141.4324   81.7739  224.5125 H   0  0  0  0  0  0  0  0  0  0  0  0
  143.4701   81.0836  223.2812 H   0  0  0  0  0  0  0  0  0  0  0  0
  143.4967   79.1397  221.8043 H   0  0  0  0  0  0  0  0  0  0  0  0
  141.5302   77.9524  220.1761 H   0  0  0  0  0  0  0  0  0  0  0  0
  142.4751   77.0104  221.4924 H   0  0  0  0  0  0  0  0  0  0  0  0
  139.5630   76.8040  221.3770 H   0  0  0  0  0  0  0  0  0  0  0  0
  138.6299   74.7003  220.9382 H   0  0  0  0  0  0  0  0  0  0  0  0
  139.7367   73.4059  220.2605 H   0  0  0  0  0  0  0  0  0  0  0  0
  138.8020   73.5950  223.0720 H   0  0  0  0  0  0  0  0  0  0  0  0
  139.1317   69.8688  222.7480 H   0  0  0  0  0  0  0  0  0  0  0  0
  138.8727   68.4842  224.7381 H   0  0  0  0  0  0  0  0  0  0  0  0
  139.2433   68.1343  227.0839 H   0  0  0  0  0  0  0  0  0  0  0  0
  140.2122   69.0038  229.2485 H   0  0  0  0  0  0  0  0  0  0  0  0
  141.3614   71.1717  229.2653 H   0  0  0  0  0  0  0  0  0  0  0  0
  141.6076   72.5501  227.2334 H   0  0  0  0  0  0  0  0  0  0  0  0
  1  2  1  0
  2  3  1  0
  3  4  2  0
  4  5  1  0
  5  6  2  0
  6  7  1  0
  7  8  2  0
  8  9  1  0
  9 10  1  0
 10 11  1  0
 11 12  2  0
 11 13  1  0
 13 14  1  0
 14 15  1  0
 15 16  2  0
 15 17  1  0
 17 18  2  0
 18 19  1  0
 19 20  2  0
 20 21  1  0
 21 22  2  0
 22 23  1  0
 23 24  2  0
 24 25  1  0
 25 26  2  0
  8  3  1  0
 26 17  1  0
 25 20  1  0
  1 27  1  0
  1 28  1  0
  1 29  1  0
  4 30  1  0
  5 31  1  0
  6 32  1  0
  7 33  1  0
  9 34  1  0
  9 35  1  0
 10 36  1  0
 13 37  1  0
 13 38  1  0
 14 39  1  0
 18 40  1  0
 19 41  1  0
 21 42  1  0
 22 43  1  0
 23 44  1  0
 24 45  1  0
M  END
>  <smiles>  (27) 
COc1ccccc1CNC(=O)CNC(=O)c1ccc2ccccc2n1

>  <score_type>  (27) 
oracle

>  <origin>  (27) 
autodockgpu

>  <m_score__min__energy>  (27) 
-8.3200000000000003

>  <m_primary>  (27) 
energy

>  <rmsd>  (27) 
3.3230424576930484

>  <m_score__min__rmsd>  (27) 
3.3230424576930484

>  <meeko>  (27) 
{"free_energy": -8.15, "intermolecular_energy": -9.94, "internal_energy": -1.4, "cluster_size": 40, "cluster_id": 2, "rank_in_cluster": 1}

>  <energy>  (27) 
-7.63

>  <cluster_rmsd>  (27) 
1.87

>  <cluster>  (27) 
2

$$$$

     RDKit          3D

 45 47  0  0  0  0  0  0  0  0999 V2000
  142.7460   70.4460  219.7070 C   0  0  0  0  0  0  0  0  0  0  0  0
  142.7360   71.8210  219.9000 O   0  0  0  0  0  0  0  0  0  0  0  0
  143.7990   72.6480  220.1700 C   0  0  0  0  0  0  0  0  0  0  0  0
  145.0290   72.0240  220.3930 C   0  0  0  0  0  0  0  0  0  0  0  0
  146.1730   72.7800  220.6670 C   0  0  0  0  0  0  0  0  0  0  0  0
  146.0040   74.1400  220.6990 C   0  0  0  0  0  0  0  0  0  0  0  0
  144.7880   74.7510  220.4790 C   0  0  0  0  0  0  0  0  0  0  0  0
  143.6300   74.0030  220.2030 C   0  0  0  0  0  0  0  0  0  0  0  0
  142.3950   74.7560  220.0400 C   0  0  0  0  0  0  0  0  0  0  0  0
  141.1670   74.1690  220.4310 N   0  0  0  0  0  0  0  0  0  0  0  0
  139.8640   74.6630  220.4470 C   0  0  0  0  0  0  0  0  0  0  0  0
  139.6150   75.8320  220.0530 O   0  0  0  0  0  0  0  0  0  0  0  0
  138.6700   73.8930  220.9090 C   0  0  0  0  0  0  0  0  0  0  0  0
  138.8540   73.2120  222.1630 N   0  0  0  0  0  0  0  0  0  0  0  0
  139.6320   71.9960  222.1970 C   0  0  0  0  0  0  0  0  0  0  0  0
  140.1630   71.5160  221.1600 O   0  0  0  0  0  0  0  0  0  0  0  0
  139.8080   71.3050  223.4680 C   0  0  0  0  0  0  0  0  0  0  0  0
  139.4520   69.9770  223.5860 C   0  0  0  0  0  0  0  0  0  0  0  0
  139.5830   69.2580  224.7350 C   0  0  0  0  0  0  0  0  0  0  0  0
  140.0920   69.8700  225.8420 C   0  0  0  0  0  0  0  0  0  0  0  0
  140.2320   69.1570  227.0140 C   0  0  0  0  0  0  0  0  0  0  0  0
  140.7600   69.8260  228.1240 C   0  0  0  0  0  0  0  0  0  0  0  0
  141.1110   71.1480  227.9980 C   0  0  0  0  0  0  0  0  0  0  0  0
  140.9740   71.8630  226.8290 C   0  0  0  0  0  0  0  0  0  0  0  0
  140.4530   71.2060  225.7290 C   0  0  0  0  0  0  0  0  0  0  0  0
  140.3090   71.8940  224.5700 N   0  0  0  0  0  0  0  0  0  0  0  0
  142.7497   69.9388  220.6831 H   0  0  0  0  0  0  0  0  0  0  0  0
  141.8500   70.1484  219.1425 H   0  0  0  0  0  0  0  0  0  0  0  0
  143.6462   70.1615  219.1425 H   0  0  0  0  0  0  0  0  0  0  0  0
  145.0982   70.9269  220.3526 H   0  0  0  0  0  0  0  0  0  0  0  0
  147.1516   72.3107  220.8464 H   0  0  0  0  0  0  0  0  0  0  0  0
  146.8787   74.7727  220.9099 H   0  0  0  0  0  0  0  0  0  0  0  0
  144.7222   75.8483  220.5203 H   0  0  0  0  0  0  0  0  0  0  0  0
  142.5061   75.6837  220.6206 H   0  0  0  0  0  0  0  0  0  0  0  0
  142.2970   74.8613  218.9494 H   0  0  0  0  0  0  0  0  0  0  0  0
  141.2470   73.1360  220.7660 H   0  0  0  0  0  0  0  0  0  0  0  0
  137.8290   74.5937  221.0176 H   0  0  0  0  0  0  0  0  0  0  0  0
  138.4840   73.1161  220.1528 H   0  0  0  0  0  0  0  0  0  0  0  0
  138.4590   73.5350  223.0780 H   0  0  0  0  0  0  0  0  0  0  0  0
  139.0388   69.4703  222.7014 H   0  0  0  0  0  0  0  0  0  0  0  0
  139.2829   68.2003  224.7695 H   0  0  0  0  0  0  0  0  0  0  0  0
  139.9387   68.0985  227.0744 H   0  0  0  0  0  0  0  0  0  0  0  0
  140.8918   69.3016  229.0819 H   0  0  0  0  0  0  0  0  0  0  0  0
  141.5236   71.6632  228.8780 H   0  0  0  0  0  0  0  0  0  0  0  0
  141.2690   72.9212  226.7720 H   0  0  0  0  0  0  0  0  0  0  0  0
  1  2  1  0
  2  3  1  0
  3  4  2  0
  4  5  1  0
  5  6  2  0
  6  7  1  0
  7  8  2  0
  8  9  1  0
  9 10  1  0
 10 11  1  0
 11 12  2  0
 11 13  1  0
 13 14  1  0
 14 15  1  0
 15 16  2  0
 15 17  1  0
 17 18  2  0
 18 19  1  0
 19 20  2  0
 20 21  1  0
 21 22  2  0
 22 23  1  0
 23 24  2  0
 24 25  1  0
 25 26  2  0
  8  3  1  0
 26 17  1  0
 25 20  1  0
  1 27  1  0
  1 28  1  0
  1 29  1  0
  4 30  1  0
  5 31  1  0
  6 32  1  0
  7 33  1  0
  9 34  1  0
  9 35  1  0
 10 36  1  0
 13 37  1  0
 13 38  1  0
 14 39  1  0
 18 40  1  0
 19 41  1  0
 21 42  1  0
 22 43  1  0
 23 44  1  0
 24 45  1  0
M  END
>  <smiles>  (28) 
COc1ccccc1CNC(=O)CNC(=O)c1ccc2ccccc2n1

>  <score_type>  (28) 
oracle

>  <origin>  (28) 
autodockgpu

>  <m_score__min__energy>  (28) 
-8.3200000000000003

>  <m_primary>  (28) 
energy

>  <rmsd>  (28) 
2.972868384381654

>  <m_score__min__rmsd>  (28) 
2.972868384381654

>  <meeko>  (28) 
{"free_energy": -6.98, "intermolecular_energy": -8.77, "internal_energy": -2.42, "cluster_size": 2, "cluster_id": 4, "rank_in_cluster": 2}

>  <energy>  (28) 
-7.63

>  <cluster_rmsd>  (28) 
1.91

>  <cluster>  (28) 
2

$$$$

     RDKit          3D

 45 47  0  0  0  0  0  0  0  0999 V2000
  141.4770   75.1200  221.0380 C   0  0  0  0  0  0  0  0  0  0  0  0
  140.5280   75.4480  221.9960 O   0  0  0  0  0  0  0  0  0  0  0  0
  140.1070   76.6990  222.3800 C   0  0  0  0  0  0  0  0  0  0  0  0
  141.1030   77.6650  222.5430 C   0  0  0  0  0  0  0  0  0  0  0  0
  140.7770   78.9700  222.9230 C   0  0  0  0  0  0  0  0  0  0  0  0
  139.4440   79.2240  223.1200 C   0  0  0  0  0  0  0  0  0  0  0  0
  138.4650   78.2680  222.9590 C   0  0  0  0  0  0  0  0  0  0  0  0
  138.7800   76.9510  222.5780 C   0  0  0  0  0  0  0  0  0  0  0  0
  137.6680   76.0170  222.4910 C   0  0  0  0  0  0  0  0  0  0  0  0
  137.9240   74.6580  222.1890 N   0  0  0  0  0  0  0  0  0  0  0  0
  137.2970   73.7630  221.3230 C   0  0  0  0  0  0  0  0  0  0  0  0
  136.3160   74.1270  220.6240 O   0  0  0  0  0  0  0  0  0  0  0  0
  137.7030   72.3380  221.1340 C   0  0  0  0  0  0  0  0  0  0  0  0
  138.0990   71.6700  222.3460 N   0  0  0  0  0  0  0  0  0  0  0  0
  139.3680   72.0000  222.9490 C   0  0  0  0  0  0  0  0  0  0  0  0
  140.1390   72.8630  222.4510 O   0  0  0  0  0  0  0  0  0  0  0  0
  139.7690   71.3140  224.1720 C   0  0  0  0  0  0  0  0  0  0  0  0
  140.6870   71.8980  225.0210 C   0  0  0  0  0  0  0  0  0  0  0  0
  141.1160   71.3260  226.1790 C   0  0  0  0  0  0  0  0  0  0  0  0
  140.6190   70.1070  226.5370 C   0  0  0  0  0  0  0  0  0  0  0  0
  141.0410   69.5130  227.7080 C   0  0  0  0  0  0  0  0  0  0  0  0
  140.5050   68.2630  228.0340 C   0  0  0  0  0  0  0  0  0  0  0  0
  139.5920   67.6890  227.1830 C   0  0  0  0  0  0  0  0  0  0  0  0
  139.1680   68.2800  226.0130 C   0  0  0  0  0  0  0  0  0  0  0  0
  139.6950   69.5150  225.6870 C   0  0  0  0  0  0  0  0  0  0  0  0
  139.2900   70.1120  224.5390 N   0  0  0  0  0  0  0  0  0  0  0  0
  142.4044   74.7995  221.5352 H   0  0  0  0  0  0  0  0  0  0  0  0
  141.0960   74.3014  220.4097 H   0  0  0  0  0  0  0  0  0  0  0  0
  141.6828   75.9991  220.4097 H   0  0  0  0  0  0  0  0  0  0  0  0
  142.1554   77.3956  222.3704 H   0  0  0  0  0  0  0  0  0  0  0  0
  141.5441   79.7470  223.0561 H   0  0  0  0  0  0  0  0  0  0  0  0
  139.1422   80.2382  223.4205 H   0  0  0  0  0  0  0  0  0  0  0  0
  137.4135   78.5407  223.1323 H   0  0  0  0  0  0  0  0  0  0  0  0
  137.1551   76.0379  223.4639 H   0  0  0  0  0  0  0  0  0  0  0  0
  137.0976   76.3732  221.6205 H   0  0  0  0  0  0  0  0  0  0  0  0
  138.7790   74.2320  222.7130 H   0  0  0  0  0  0  0  0  0  0  0  0
  136.8519   71.7916  220.7016 H   0  0  0  0  0  0  0  0  0  0  0  0
  138.5843   72.3458  220.4758 H   0  0  0  0  0  0  0  0  0  0  0  0
  137.5270   70.9440  222.8370 H   0  0  0  0  0  0  0  0  0  0  0  0
  141.0952   72.8818  224.7461 H   0  0  0  0  0  0  0  0  0  0  0  0
  141.8518   71.8384  226.8162 H   0  0  0  0  0  0  0  0  0  0  0  0
  141.7743   70.0057  228.3634 H   0  0  0  0  0  0  0  0  0  0  0  0
  140.8096   67.7478  228.9569 H   0  0  0  0  0  0  0  0  0  0  0  0
  139.1776   66.7056  227.4499 H   0  0  0  0  0  0  0  0  0  0  0  0
  138.4342   67.7851  225.3599 H   0  0  0  0  0  0  0  0  0  0  0  0
  1  2  1  0
  2  3  1  0
  3  4  2  0
  4  5  1  0
  5  6  2  0
  6  7  1  0
  7  8  2  0
  8  9  1  0
  9 10  1  0
 10 11  1  0
 11 12  2  0
 11 13  1  0
 13 14  1  0
 14 15  1  0
 15 16  2  0
 15 17  1  0
 17 18  2  0
 18 19  1  0
 19 20  2  0
 20 21  1  0
 21 22  2  0
 22 23  1  0
 23 24  2  0
 24 25  1  0
 25 26  2  0
  8  3  1  0
 26 17  1  0
 25 20  1  0
  1 27  1  0
  1 28  1  0
  1 29  1  0
  4 30  1  0
  5 31  1  0
  6 32  1  0
  7 33  1  0
  9 34  1  0
  9 35  1  0
 10 36  1  0
 13 37  1  0
 13 38  1  0
 14 39  1  0
 18 40  1  0
 19 41  1  0
 21 42  1  0
 22 43  1  0
 23 44  1  0
 24 45  1  0
M  END
>  <smiles>  (29) 
COc1ccccc1CNC(=O)CNC(=O)c1ccc2ccccc2n1

>  <score_type>  (29) 
oracle

>  <origin>  (29) 
autodockgpu

>  <m_score__min__energy>  (29) 
-8.3200000000000003

>  <m_primary>  (29) 
energy

>  <rmsd>  (29) 
3.867680438764414

>  <m_score__min__rmsd>  (29) 
3.867680438764414

>  <meeko>  (29) 
{"free_energy": -7.62, "intermolecular_energy": -9.41, "internal_energy": -2.4, "cluster_size": 40, "cluster_id": 2, "rank_in_cluster": 26}

>  <energy>  (29) 
-7.63

>  <cluster_rmsd>  (29) 
1.89

>  <cluster>  (29) 
2

$$$$

     RDKit          3D

 45 47  0  0  0  0  0  0  0  0999 V2000
  142.7240   70.5350  219.5590 C   0  0  0  0  0  0  0  0  0  0  0  0
  142.8580   71.9160  219.5540 O   0  0  0  0  0  0  0  0  0  0  0  0
  143.9510   72.6640  219.9200 C   0  0  0  0  0  0  0  0  0  0  0  0
  145.1600   71.9750  220.0450 C   0  0  0  0  0  0  0  0  0  0  0  0
  146.3310   72.6480  220.4060 C   0  0  0  0  0  0  0  0  0  0  0  0
  146.2090   73.9960  220.6210 C   0  0  0  0  0  0  0  0  0  0  0  0
  145.0150   74.6720  220.4960 C   0  0  0  0  0  0  0  0  0  0  0  0
  143.8290   74.0070  220.1360 C   0  0  0  0  0  0  0  0  0  0  0  0
  142.6200   74.8150  220.0880 C   0  0  0  0  0  0  0  0  0  0  0  0
  141.3710   74.2150  220.3760 N   0  0  0  0  0  0  0  0  0  0  0  0
  140.1510   74.7540  220.7830 C   0  0  0  0  0  0  0  0  0  0  0  0
  140.0210   75.9940  220.9470 O   0  0  0  0  0  0  0  0  0  0  0  0
  138.9180   73.9550  221.0540 C   0  0  0  0  0  0  0  0  0  0  0  0
  138.9530   73.2130  222.2870 N   0  0  0  0  0  0  0  0  0  0  0  0
  139.9550   72.1890  222.4650 C   0  0  0  0  0  0  0  0  0  0  0  0
  140.8080   71.9290  221.5740 O   0  0  0  0  0  0  0  0  0  0  0  0
  139.9800   71.4340  223.7110 C   0  0  0  0  0  0  0  0  0  0  0  0
  139.4250   70.1710  223.7640 C   0  0  0  0  0  0  0  0  0  0  0  0
  139.4060   69.4000  224.8850 C   0  0  0  0  0  0  0  0  0  0  0  0
  139.9610   69.8880  226.0320 C   0  0  0  0  0  0  0  0  0  0  0  0
  139.9510   69.1200  227.1770 C   0  0  0  0  0  0  0  0  0  0  0  0
  140.5320   69.6610  228.3290 C   0  0  0  0  0  0  0  0  0  0  0  0
  141.0820   70.9190  228.2680 C   0  0  0  0  0  0  0  0  0  0  0  0
  141.0950   71.6880  227.1250 C   0  0  0  0  0  0  0  0  0  0  0  0
  140.5210   71.1570  225.9840 C   0  0  0  0  0  0  0  0  0  0  0  0
  140.5240   71.9000  224.8510 N   0  0  0  0  0  0  0  0  0  0  0  0
  142.6889   70.1738  220.5974 H   0  0  0  0  0  0  0  0  0  0  0  0
  141.7945   70.2549  219.0418 H   0  0  0  0  0  0  0  0  0  0  0  0
  143.5824   70.0814  219.0418 H   0  0  0  0  0  0  0  0  0  0  0  0
  145.1908   70.8916  219.8574 H   0  0  0  0  0  0  0  0  0  0  0  0
  147.2936   72.1263  220.5113 H   0  0  0  0  0  0  0  0  0  0  0  0
  147.1062   74.5647  220.9067 H   0  0  0  0  0  0  0  0  0  0  0  0
  144.9886   75.7559  220.6819 H   0  0  0  0  0  0  0  0  0  0  0  0
  142.7546   75.6359  220.8077 H   0  0  0  0  0  0  0  0  0  0  0  0
  142.5357   75.0926  219.0269 H   0  0  0  0  0  0  0  0  0  0  0  0
  141.3480   73.1340  220.2390 H   0  0  0  0  0  0  0  0  0  0  0  0
  138.0617   74.6445  221.0909 H   0  0  0  0  0  0  0  0  0  0  0  0
  138.8366   73.2159  220.2434 H   0  0  0  0  0  0  0  0  0  0  0  0
  138.2930   73.3590  223.0860 H   0  0  0  0  0  0  0  0  0  0  0  0
  138.9722   69.7647  222.8475 H   0  0  0  0  0  0  0  0  0  0  0  0
  138.9504   68.3990  224.8668 H   0  0  0  0  0  0  0  0  0  0  0  0
  139.5015   68.1161  227.1845 H   0  0  0  0  0  0  0  0  0  0  0  0
  140.5483   69.0888  229.2683 H   0  0  0  0  0  0  0  0  0  0  0  0
  141.5359   71.3338  229.1801 H   0  0  0  0  0  0  0  0  0  0  0  0
  141.5468   72.6909  227.1199 H   0  0  0  0  0  0  0  0  0  0  0  0
  1  2  1  0
  2  3  1  0
  3  4  2  0
  4  5  1  0
  5  6  2  0
  6  7  1  0
  7  8  2  0
  8  9  1  0
  9 10  1  0
 10 11  1  0
 11 12  2  0
 11 13  1  0
 13 14  1  0
 14 15  1  0
 15 16  2  0
 15 17  1  0
 17 18  2  0
 18 19  1  0
 19 20  2  0
 20 21  1  0
 21 22  2  0
 22 23  1  0
 23 24  2  0
 24 25  1  0
 25 26  2  0
  8  3  1  0
 26 17  1  0
 25 20  1  0
  1 27  1  0
  1 28  1  0
  1 29  1  0
  4 30  1  0
  5 31  1  0
  6 32  1  0
  7 33  1  0
  9 34  1  0
  9 35  1  0
 10 36  1  0
 13 37  1  0
 13 38  1  0
 14 39  1  0
 18 40  1  0
 19 41  1  0
 21 42  1  0
 22 43  1  0
 23 44  1  0
 24 45  1  0
M  END
>  <smiles>  (30) 
COc1ccccc1CNC(=O)CNC(=O)c1ccc2ccccc2n1

>  <score_type>  (30) 
oracle

>  <origin>  (30) 
autodockgpu

>  <m_score__min__energy>  (30) 
-8.3200000000000003

>  <m_primary>  (30) 
energy

>  <rmsd>  (30) 
3.079652678738584

>  <m_score__min__rmsd>  (30) 
3.079652678738584

>  <meeko>  (30) 
{"free_energy": -7.24, "intermolecular_energy": -9.03, "internal_energy": -2.29, "cluster_size": 2, "cluster_id": 4, "rank_in_cluster": 1}

>  <energy>  (30) 
-7.62

>  <cluster_rmsd>  (30) 
1.98

>  <cluster>  (30) 
2

$$$$

     RDKit          3D

 45 47  0  0  0  0  0  0  0  0999 V2000
  141.4840   75.1740  221.1160 C   0  0  0  0  0  0  0  0  0  0  0  0
  140.4920   75.5160  222.0240 O   0  0  0  0  0  0  0  0  0  0  0  0
  140.0930   76.7720  222.4130 C   0  0  0  0  0  0  0  0  0  0  0  0
  141.0960   77.7400  222.5030 C   0  0  0  0  0  0  0  0  0  0  0  0
  140.7910   79.0500  222.8830 C   0  0  0  0  0  0  0  0  0  0  0  0
  139.4720   79.3080  223.1530 C   0  0  0  0  0  0  0  0  0  0  0  0
  138.4860   78.3490  223.0640 C   0  0  0  0  0  0  0  0  0  0  0  0
  138.7790   77.0270  222.6840 C   0  0  0  0  0  0  0  0  0  0  0  0
  137.6650   76.0920  222.6770 C   0  0  0  0  0  0  0  0  0  0  0  0
  137.8890   74.7470  222.2940 N   0  0  0  0  0  0  0  0  0  0  0  0
  137.3090   73.9520  221.3070 C   0  0  0  0  0  0  0  0  0  0  0  0
  136.4180   74.4150  220.5500 O   0  0  0  0  0  0  0  0  0  0  0  0
  137.6690   72.5250  221.0470 C   0  0  0  0  0  0  0  0  0  0  0  0
  138.0670   71.7920  222.2190 N   0  0  0  0  0  0  0  0  0  0  0  0
  139.3340   72.0930  222.8420 C   0  0  0  0  0  0  0  0  0  0  0  0
  140.1010   72.9870  222.3930 O   0  0  0  0  0  0  0  0  0  0  0  0
  139.7370   71.3410  224.0240 C   0  0  0  0  0  0  0  0  0  0  0  0
  140.6570   71.8780  224.9020 C   0  0  0  0  0  0  0  0  0  0  0  0
  141.0880   71.2440  226.0260 C   0  0  0  0  0  0  0  0  0  0  0  0
  140.5930   70.0070  226.3180 C   0  0  0  0  0  0  0  0  0  0  0  0
  141.0170   69.3500  227.4530 C   0  0  0  0  0  0  0  0  0  0  0  0
  140.4820   68.0840  227.7120 C   0  0  0  0  0  0  0  0  0  0  0  0
  139.5670   67.5570  226.8320 C   0  0  0  0  0  0  0  0  0  0  0  0
  139.1400   68.2110  225.6970 C   0  0  0  0  0  0  0  0  0  0  0  0
  139.6670   69.4620  225.4380 C   0  0  0  0  0  0  0  0  0  0  0  0
  139.2590   70.1200  224.3260 N   0  0  0  0  0  0  0  0  0  0  0  0
  142.3877   74.8624  221.6603 H   0  0  0  0  0  0  0  0  0  0  0  0
  141.1326   74.3451  220.4839 H   0  0  0  0  0  0  0  0  0  0  0  0
  141.7181   76.0433  220.4839 H   0  0  0  0  0  0  0  0  0  0  0  0
  142.1367   77.4685  222.2724 H   0  0  0  0  0  0  0  0  0  0  0  0
  141.5642   79.8285  222.9608 H   0  0  0  0  0  0  0  0  0  0  0  0
  139.1875   80.3269  223.4545 H   0  0  0  0  0  0  0  0  0  0  0  0
  137.4463   78.6239  223.2954 H   0  0  0  0  0  0  0  0  0  0  0  0
  137.2580   76.0708  223.6987 H   0  0  0  0  0  0  0  0  0  0  0  0
  137.0051   76.4803  221.8872 H   0  0  0  0  0  0  0  0  0  0  0  0
  138.6690   74.2410  222.8620 H   0  0  0  0  0  0  0  0  0  0  0  0
  136.7941   72.0235  220.6076 H   0  0  0  0  0  0  0  0  0  0  0  0
  138.5381   72.5371  220.3728 H   0  0  0  0  0  0  0  0  0  0  0  0
  137.4980   71.0370  222.6690 H   0  0  0  0  0  0  0  0  0  0  0  0
  141.0648   72.8752  224.6802 H   0  0  0  0  0  0  0  0  0  0  0  0
  141.8243   71.7217  226.6891 H   0  0  0  0  0  0  0  0  0  0  0  0
  141.7518   69.8062  228.1326 H   0  0  0  0  0  0  0  0  0  0  0  0
  140.7883   67.5195  228.6050 H   0  0  0  0  0  0  0  0  0  0  0  0
  139.1537   66.5601  227.0453 H   0  0  0  0  0  0  0  0  0  0  0  0
  138.4043   67.7528  225.0197 H   0  0  0  0  0  0  0  0  0  0  0  0
  1  2  1  0
  2  3  1  0
  3  4  2  0
  4  5  1  0
  5  6  2  0
  6  7  1  0
  7  8  2  0
  8  9  1  0
  9 10  1  0
 10 11  1  0
 11 12  2  0
 11 13  1  0
 13 14  1  0
 14 15  1  0
 15 16  2  0
 15 17  1  0
 17 18  2  0
 18 19  1  0
 19 20  2  0
 20 21  1  0
 21 22  2  0
 22 23  1  0
 23 24  2  0
 24 25  1  0
 25 26  2  0
  8  3  1  0
 26 17  1  0
 25 20  1  0
  1 27  1  0
  1 28  1  0
  1 29  1  0
  4 30  1  0
  5 31  1  0
  6 32  1  0
  7 33  1  0
  9 34  1  0
  9 35  1  0
 10 36  1  0
 13 37  1  0
 13 38  1  0
 14 39  1  0
 18 40  1  0
 19 41  1  0
 21 42  1  0
 22 43  1  0
 23 44  1  0
 24 45  1  0
M  END
>  <smiles>  (31) 
COc1ccccc1CNC(=O)CNC(=O)c1ccc2ccccc2n1

>  <score_type>  (31) 
oracle

>  <origin>  (31) 
autodockgpu

>  <m_score__min__energy>  (31) 
-8.3200000000000003

>  <m_primary>  (31) 
energy

>  <rmsd>  (31) 
3.8981056882876617

>  <m_score__min__rmsd>  (31) 
3.8981056882876617

>  <meeko>  (31) 
{"free_energy": -7.62, "intermolecular_energy": -9.41, "internal_energy": -2.19, "cluster_size": 40, "cluster_id": 2, "rank_in_cluster": 27}

>  <energy>  (31) 
-7.62

>  <cluster_rmsd>  (31) 
1.95

>  <cluster>  (31) 
2

$$$$

     RDKit          3D

 45 47  0  0  0  0  0  0  0  0999 V2000
  141.8980   78.0330  219.7160 C   0  0  0  0  0  0  0  0  0  0  0  0
  142.1940   78.0480  221.0720 O   0  0  0  0  0  0  0  0  0  0  0  0
  141.8460   78.9930  222.0070 C   0  0  0  0  0  0  0  0  0  0  0  0
  142.8570   79.8700  222.4080 C   0  0  0  0  0  0  0  0  0  0  0  0
  142.6010   80.8720  223.3480 C   0  0  0  0  0  0  0  0  0  0  0  0
  141.3200   80.9300  223.8330 C   0  0  0  0  0  0  0  0  0  0  0  0
  140.3260   80.0630  223.4350 C   0  0  0  0  0  0  0  0  0  0  0  0
  140.5700   79.0500  222.4910 C   0  0  0  0  0  0  0  0  0  0  0  0
  139.4570   78.1620  222.1890 C   0  0  0  0  0  0  0  0  0  0  0  0
  139.7170   76.8120  221.8510 N   0  0  0  0  0  0  0  0  0  0  0  0
  138.8670   75.7370  221.5960 C   0  0  0  0  0  0  0  0  0  0  0  0
  137.6180   75.8820  221.6350 O   0  0  0  0  0  0  0  0  0  0  0  0
  139.3240   74.3550  221.2580 C   0  0  0  0  0  0  0  0  0  0  0  0
  139.2310   73.4190  222.3470 N   0  0  0  0  0  0  0  0  0  0  0  0
  140.3420   72.5360  222.6140 C   0  0  0  0  0  0  0  0  0  0  0  0
  141.3970   72.5650  221.9260 O   0  0  0  0  0  0  0  0  0  0  0  0
  140.2380   71.5830  223.7120 C   0  0  0  0  0  0  0  0  0  0  0  0
  139.6670   70.3440  223.4990 C   0  0  0  0  0  0  0  0  0  0  0  0
  139.5310   69.3980  224.4670 C   0  0  0  0  0  0  0  0  0  0  0  0
  139.9790   69.6710  225.7260 C   0  0  0  0  0  0  0  0  0  0  0  0
  139.8500   68.7240  226.7200 C   0  0  0  0  0  0  0  0  0  0  0  0
  140.3240   69.0490  227.9950 C   0  0  0  0  0  0  0  0  0  0  0  0
  140.8910   70.2840  228.1990 C   0  0  0  0  0  0  0  0  0  0  0  0
  141.0220   71.2320  227.2080 C   0  0  0  0  0  0  0  0  0  0  0  0
  140.5550   70.9160  225.9460 C   0  0  0  0  0  0  0  0  0  0  0  0
  140.6750   71.8370  224.9600 N   0  0  0  0  0  0  0  0  0  0  0  0
  140.8079   77.9778  219.5792 H   0  0  0  0  0  0  0  0  0  0  0  0
  142.2803   78.9517  219.2471 H   0  0  0  0  0  0  0  0  0  0  0  0
  142.3712   77.1577  219.2471 H   0  0  0  0  0  0  0  0  0  0  0  0
  143.8651   79.7708  221.9793 H   0  0  0  0  0  0  0  0  0  0  0  0
  143.3814   81.5729  223.6793 H   0  0  0  0  0  0  0  0  0  0  0  0
  141.0744   81.7047  224.5743 H   0  0  0  0  0  0  0  0  0  0  0  0
  139.3189   80.1656  223.8654 H   0  0  0  0  0  0  0  0  0  0  0  0
  138.8063   78.1507  223.0759 H   0  0  0  0  0  0  0  0  0  0  0  0
  139.0320   78.5833  221.2660 H   0  0  0  0  0  0  0  0  0  0  0  0
  140.7740   76.5660  221.7560 H   0  0  0  0  0  0  0  0  0  0  0  0
  138.7064   73.9809  220.4282 H   0  0  0  0  0  0  0  0  0  0  0  0
  140.3898   74.4301  220.9966 H   0  0  0  0  0  0  0  0  0  0  0  0
  138.4000   73.3220  222.9780 H   0  0  0  0  0  0  0  0  0  0  0  0
  139.3012   70.1084  222.4887 H   0  0  0  0  0  0  0  0  0  0  0  0
  139.0667   68.4275  224.2378 H   0  0  0  0  0  0  0  0  0  0  0  0
  139.3897   67.7458  226.5169 H   0  0  0  0  0  0  0  0  0  0  0  0
  140.2442   68.3275  228.8214 H   0  0  0  0  0  0  0  0  0  0  0  0
  141.2595   70.5284  229.2062 H   0  0  0  0  0  0  0  0  0  0  0  0
  141.4834   72.2090  227.4144 H   0  0  0  0  0  0  0  0  0  0  0  0
  1  2  1  0
  2  3  1  0
  3  4  2  0
  4  5  1  0
  5  6  2  0
  6  7  1  0
  7  8  2  0
  8  9  1  0
  9 10  1  0
 10 11  1  0
 11 12  2  0
 11 13  1  0
 13 14  1  0
 14 15  1  0
 15 16  2  0
 15 17  1  0
 17 18  2  0
 18 19  1  0
 19 20  2  0
 20 21  1  0
 21 22  2  0
 22 23  1  0
 23 24  2  0
 24 25  1  0
 25 26  2  0
  8  3  1  0
 26 17  1  0
 25 20  1  0
  1 27  1  0
  1 28  1  0
  1 29  1  0
  4 30  1  0
  5 31  1  0
  6 32  1  0
  7 33  1  0
  9 34  1  0
  9 35  1  0
 10 36  1  0
 13 37  1  0
 13 38  1  0
 14 39  1  0
 18 40  1  0
 19 41  1  0
 21 42  1  0
 22 43  1  0
 23 44  1  0
 24 45  1  0
M  END
>  <smiles>  (32) 
COc1ccccc1CNC(=O)CNC(=O)c1ccc2ccccc2n1

>  <score_type>  (32) 
oracle

>  <origin>  (32) 
autodockgpu

>  <m_score__min__energy>  (32) 
-8.3200000000000003

>  <m_primary>  (32) 
energy

>  <rmsd>  (32) 
3.454044512308779

>  <m_score__min__rmsd>  (32) 
3.454044512308779

>  <meeko>  (32) 
{"free_energy": -7.84, "intermolecular_energy": -9.63, "internal_energy": -1.39, "cluster_size": 40, "cluster_id": 2, "rank_in_cluster": 11}

>  <energy>  (32) 
-7.62

>  <cluster_rmsd>  (32) 
1.86

>  <cluster>  (32) 
2

$$$$

     RDKit          3D

 45 47  0  0  0  0  0  0  0  0999 V2000
  141.4480   75.3440  220.9160 C   0  0  0  0  0  0  0  0  0  0  0  0
  140.8140   75.7170  222.0930 O   0  0  0  0  0  0  0  0  0  0  0  0
  140.3920   76.9690  222.4710 C   0  0  0  0  0  0  0  0  0  0  0  0
  141.3820   77.9480  222.5820 C   0  0  0  0  0  0  0  0  0  0  0  0
  141.0540   79.2560  222.9530 C   0  0  0  0  0  0  0  0  0  0  0  0
  139.7260   79.4990  223.1910 C   0  0  0  0  0  0  0  0  0  0  0  0
  138.7520   78.5290  223.0800 C   0  0  0  0  0  0  0  0  0  0  0  0
  139.0690   77.2100  222.7100 C   0  0  0  0  0  0  0  0  0  0  0  0
  137.9660   76.2620  222.6770 C   0  0  0  0  0  0  0  0  0  0  0  0
  138.2120   74.9210  222.2950 N   0  0  0  0  0  0  0  0  0  0  0  0
  137.5080   74.0450  221.4710 C   0  0  0  0  0  0  0  0  0  0  0  0
  136.4490   74.4110  220.9010 O   0  0  0  0  0  0  0  0  0  0  0  0
  137.9180   72.6370  221.1820 C   0  0  0  0  0  0  0  0  0  0  0  0
  138.2680   71.8720  222.3500 N   0  0  0  0  0  0  0  0  0  0  0  0
  139.5240   72.1320  223.0130 C   0  0  0  0  0  0  0  0  0  0  0  0
  140.3230   73.0160  222.6040 O   0  0  0  0  0  0  0  0  0  0  0  0
  139.8770   71.3470  224.1890 C   0  0  0  0  0  0  0  0  0  0  0  0
  140.7150   71.8810  225.1480 C   0  0  0  0  0  0  0  0  0  0  0  0
  141.0950   71.2180  226.2740 C   0  0  0  0  0  0  0  0  0  0  0  0
  140.6310   69.9520  226.4830 C   0  0  0  0  0  0  0  0  0  0  0  0
  141.0050   69.2650  227.6180 C   0  0  0  0  0  0  0  0  0  0  0  0
  140.5050   67.9700  227.7910 C   0  0  0  0  0  0  0  0  0  0  0  0
  139.6720   67.4470  226.8320 C   0  0  0  0  0  0  0  0  0  0  0  0
  139.2950   68.1310  225.6970 C   0  0  0  0  0  0  0  0  0  0  0  0
  139.7880   69.4100  225.5220 C   0  0  0  0  0  0  0  0  0  0  0  0
  139.4290   70.0980  224.4110 N   0  0  0  0  0  0  0  0  0  0  0  0
  142.3735   74.7995  221.1547 H   0  0  0  0  0  0  0  0  0  0  0  0
  140.7811   74.6943  220.3302 H   0  0  0  0  0  0  0  0  0  0  0  0
  141.6919   76.2426  220.3302 H   0  0  0  0  0  0  0  0  0  0  0  0
  142.4306   77.6876  222.3755 H   0  0  0  0  0  0  0  0  0  0  0  0
  141.8165   80.0431  223.0482 H   0  0  0  0  0  0  0  0  0  0  0  0
  139.4232   80.5150  223.4842 H   0  0  0  0  0  0  0  0  0  0  0  0
  137.7041   78.7930  223.2854 H   0  0  0  0  0  0  0  0  0  0  0  0
  137.5382   76.2331  223.6900 H   0  0  0  0  0  0  0  0  0  0  0  0
  137.3190   76.6454  221.8742 H   0  0  0  0  0  0  0  0  0  0  0  0
  139.1290   74.4970  222.7040 H   0  0  0  0  0  0  0  0  0  0  0  0
  137.0822   72.1314  220.6764 H   0  0  0  0  0  0  0  0  0  0  0  0
  138.8226   72.6932  220.5586 H   0  0  0  0  0  0  0  0  0  0  0  0
  137.6700   71.1210  222.7680 H   0  0  0  0  0  0  0  0  0  0  0  0
  141.0972   72.9007  224.9928 H   0  0  0  0  0  0  0  0  0  0  0  0
  141.7655   71.6951  227.0040 H   0  0  0  0  0  0  0  0  0  0  0  0
  141.6744   69.7199  228.3629 H   0  0  0  0  0  0  0  0  0  0  0  0
  140.7743   67.3805  228.6798 H   0  0  0  0  0  0  0  0  0  0  0  0
  139.2853   66.4276  226.9781 H   0  0  0  0  0  0  0  0  0  0  0  0
  138.6239   67.6742  224.9548 H   0  0  0  0  0  0  0  0  0  0  0  0
  1  2  1  0
  2  3  1  0
  3  4  2  0
  4  5  1  0
  5  6  2  0
  6  7  1  0
  7  8  2  0
  8  9  1  0
  9 10  1  0
 10 11  1  0
 11 12  2  0
 11 13  1  0
 13 14  1  0
 14 15  1  0
 15 16  2  0
 15 17  1  0
 17 18  2  0
 18 19  1  0
 19 20  2  0
 20 21  1  0
 21 22  2  0
 22 23  1  0
 23 24  2  0
 24 25  1  0
 25 26  2  0
  8  3  1  0
 26 17  1  0
 25 20  1  0
  1 27  1  0
  1 28  1  0
  1 29  1  0
  4 30  1  0
  5 31  1  0
  6 32  1  0
  7 33  1  0
  9 34  1  0
  9 35  1  0
 10 36  1  0
 13 37  1  0
 13 38  1  0
 14 39  1  0
 18 40  1  0
 19 41  1  0
 21 42  1  0
 22 43  1  0
 23 44  1  0
 24 45  1  0
M  END
>  <smiles>  (33) 
COc1ccccc1CNC(=O)CNC(=O)c1ccc2ccccc2n1

>  <score_type>  (33) 
oracle

>  <origin>  (33) 
autodockgpu

>  <m_score__min__energy>  (33) 
-8.3200000000000003

>  <m_primary>  (33) 
energy

>  <rmsd>  (33) 
3.908865516735488

>  <m_score__min__rmsd>  (33) 
3.908865516735488

>  <meeko>  (33) 
{"free_energy": -7.64, "intermolecular_energy": -9.43, "internal_energy": -2.47, "cluster_size": 40, "cluster_id": 2, "rank_in_cluster": 20}

>  <energy>  (33) 
-7.61

>  <cluster_rmsd>  (33) 
1.91

>  <cluster>  (33) 
2

$$$$

     RDKit          3D

 45 47  0  0  0  0  0  0  0  0999 V2000
  141.3790   75.3550  221.0110 C   0  0  0  0  0  0  0  0  0  0  0  0
  140.6760   75.6900  222.1600 O   0  0  0  0  0  0  0  0  0  0  0  0
  140.1680   76.9150  222.5180 C   0  0  0  0  0  0  0  0  0  0  0  0
  141.1000   77.9340  222.7290 C   0  0  0  0  0  0  0  0  0  0  0  0
  140.6840   79.2190  223.0880 C   0  0  0  0  0  0  0  0  0  0  0  0
  139.3300   79.4010  223.2150 C   0  0  0  0  0  0  0  0  0  0  0  0
  138.4150   78.3920  223.0070 C   0  0  0  0  0  0  0  0  0  0  0  0
  138.8200   77.0950  222.6460 C   0  0  0  0  0  0  0  0  0  0  0  0
  137.7670   76.1010  222.5050 C   0  0  0  0  0  0  0  0  0  0  0  0
  138.1080   74.7700  222.1630 N   0  0  0  0  0  0  0  0  0  0  0  0
  137.5390   73.8650  221.2680 C   0  0  0  0  0  0  0  0  0  0  0  0
  136.5390   74.1880  220.5770 O   0  0  0  0  0  0  0  0  0  0  0  0
  138.0350   72.4740  221.0380 C   0  0  0  0  0  0  0  0  0  0  0  0
  138.3600   71.7550  222.2420 N   0  0  0  0  0  0  0  0  0  0  0  0
  139.5730   72.0820  222.9520 C   0  0  0  0  0  0  0  0  0  0  0  0
  140.3560   72.9860  222.5530 O   0  0  0  0  0  0  0  0  0  0  0  0
  139.9020   71.3440  224.1650 C   0  0  0  0  0  0  0  0  0  0  0  0
  140.7190   71.9160  225.1200 C   0  0  0  0  0  0  0  0  0  0  0  0
  141.0750   71.2970  226.2780 C   0  0  0  0  0  0  0  0  0  0  0  0
  140.6080   70.0400  226.5270 C   0  0  0  0  0  0  0  0  0  0  0  0
  140.9590   69.3980  227.6960 C   0  0  0  0  0  0  0  0  0  0  0  0
  140.4560   68.1100  227.9070 C   0  0  0  0  0  0  0  0  0  0  0  0
  139.6440   67.5480  226.9520 C   0  0  0  0  0  0  0  0  0  0  0  0
  139.2920   68.1870  225.7830 C   0  0  0  0  0  0  0  0  0  0  0  0
  139.7860   69.4600  225.5700 C   0  0  0  0  0  0  0  0  0  0  0  0
  139.4510   70.1040  224.4250 N   0  0  0  0  0  0  0  0  0  0  0  0
  142.3397   74.8972  221.2893 H   0  0  0  0  0  0  0  0  0  0  0  0
  140.7908   74.6404  220.4166 H   0  0  0  0  0  0  0  0  0  0  0  0
  141.5636   76.2620  220.4166 H   0  0  0  0  0  0  0  0  0  0  0  0
  142.1731   77.7227  222.6113 H   0  0  0  0  0  0  0  0  0  0  0  0
  141.4000   80.0364  223.2587 H   0  0  0  0  0  0  0  0  0  0  0  0
  138.9581   80.3975  223.4955 H   0  0  0  0  0  0  0  0  0  0  0  0
  137.3427   78.6063  223.1262 H   0  0  0  0  0  0  0  0  0  0  0  0
  137.2359   76.0584  223.4673 H   0  0  0  0  0  0  0  0  0  0  0  0
  137.1931   76.4531  221.6351 H   0  0  0  0  0  0  0  0  0  0  0  0
  138.9870   74.3830  222.6770 H   0  0  0  0  0  0  0  0  0  0  0  0
  137.2544   71.9140  220.5022 H   0  0  0  0  0  0  0  0  0  0  0  0
  138.9681   72.5631  220.4624 H   0  0  0  0  0  0  0  0  0  0  0  0
  137.7720   70.9930  222.6550 H   0  0  0  0  0  0  0  0  0  0  0  0
  141.1038   72.9296  224.9339 H   0  0  0  0  0  0  0  0  0  0  0  0
  141.7298   71.8029  227.0028 H   0  0  0  0  0  0  0  0  0  0  0  0
  141.6121   69.8822  228.4370 H   0  0  0  0  0  0  0  0  0  0  0  0
  140.7067   67.5557  228.8234 H   0  0  0  0  0  0  0  0  0  0  0  0
  139.2544   66.5348  227.1298 H   0  0  0  0  0  0  0  0  0  0  0  0
  138.6393   67.6999  225.0436 H   0  0  0  0  0  0  0  0  0  0  0  0
  1  2  1  0
  2  3  1  0
  3  4  2  0
  4  5  1  0
  5  6  2  0
  6  7  1  0
  7  8  2  0
  8  9  1  0
  9 10  1  0
 10 11  1  0
 11 12  2  0
 11 13  1  0
 13 14  1  0
 14 15  1  0
 15 16  2  0
 15 17  1  0
 17 18  2  0
 18 19  1  0
 19 20  2  0
 20 21  1  0
 21 22  2  0
 22 23  1  0
 23 24  2  0
 24 25  1  0
 25 26  2  0
  8  3  1  0
 26 17  1  0
 25 20  1  0
  1 27  1  0
  1 28  1  0
  1 29  1  0
  4 30  1  0
  5 31  1  0
  6 32  1  0
  7 33  1  0
  9 34  1  0
  9 35  1  0
 10 36  1  0
 13 37  1  0
 13 38  1  0
 14 39  1  0
 18 40  1  0
 19 41  1  0
 21 42  1  0
 22 43  1  0
 23 44  1  0
 24 45  1  0
M  END
>  <smiles>  (34) 
COc1ccccc1CNC(=O)CNC(=O)c1ccc2ccccc2n1

>  <score_type>  (34) 
oracle

>  <origin>  (34) 
autodockgpu

>  <m_score__min__energy>  (34) 
-8.3200000000000003

>  <m_primary>  (34) 
energy

>  <rmsd>  (34) 
3.9093080882019873

>  <m_score__min__rmsd>  (34) 
3.9093080882019873

>  <meeko>  (34) 
{"free_energy": -7.61, "intermolecular_energy": -9.4, "internal_energy": -2.47, "cluster_size": 40, "cluster_id": 2, "rank_in_cluster": 29}

>  <energy>  (34) 
-7.6

>  <cluster_rmsd>  (34) 
1.97

>  <cluster>  (34) 
2

$$$$

     RDKit          3D

 45 47  0  0  0  0  0  0  0  0999 V2000
  141.4890   75.1270  220.8660 C   0  0  0  0  0  0  0  0  0  0  0  0
  140.8080   75.4430  222.0330 O   0  0  0  0  0  0  0  0  0  0  0  0
  140.2040   76.6310  222.3690 C   0  0  0  0  0  0  0  0  0  0  0  0
  141.0560   77.7080  222.6270 C   0  0  0  0  0  0  0  0  0  0  0  0
  140.5380   78.9610  222.9680 C   0  0  0  0  0  0  0  0  0  0  0  0
  139.1710   79.0520  223.0280 C   0  0  0  0  0  0  0  0  0  0  0  0
  138.3350   77.9870  222.7730 C   0  0  0  0  0  0  0  0  0  0  0  0
  138.8430   76.7210  222.4300 C   0  0  0  0  0  0  0  0  0  0  0  0
  137.8650   75.6610  222.2360 C   0  0  0  0  0  0  0  0  0  0  0  0
  138.3120   74.3420  221.9790 N   0  0  0  0  0  0  0  0  0  0  0  0
  138.0550   73.4610  220.9290 C   0  0  0  0  0  0  0  0  0  0  0  0
  137.3090   73.7990  219.9750 O   0  0  0  0  0  0  0  0  0  0  0  0
  138.6150   72.0800  220.8240 C   0  0  0  0  0  0  0  0  0  0  0  0
  138.8240   71.4280  222.0910 N   0  0  0  0  0  0  0  0  0  0  0  0
  139.8850   71.8910  222.9540 C   0  0  0  0  0  0  0  0  0  0  0  0
  140.6310   72.8550  222.6360 O   0  0  0  0  0  0  0  0  0  0  0  0
  140.0980   71.2220  224.2320 C   0  0  0  0  0  0  0  0  0  0  0  0
  140.8220   71.8480  225.2260 C   0  0  0  0  0  0  0  0  0  0  0  0
  141.0680   71.2950  226.4450 C   0  0  0  0  0  0  0  0  0  0  0  0
  140.5790   70.0510  226.7160 C   0  0  0  0  0  0  0  0  0  0  0  0
  140.8180   69.4750  227.9460 C   0  0  0  0  0  0  0  0  0  0  0  0
  140.2960   68.1980  228.1800 C   0  0  0  0  0  0  0  0  0  0  0  0
  139.5770   67.5820  227.1850 C   0  0  0  0  0  0  0  0  0  0  0  0
  139.3360   68.1550  225.9550 C   0  0  0  0  0  0  0  0  0  0  0  0
  139.8490   69.4160  225.7200 C   0  0  0  0  0  0  0  0  0  0  0  0
  139.6230   69.9950  224.5160 N   0  0  0  0  0  0  0  0  0  0  0  0
  142.4601   74.6764  221.1187 H   0  0  0  0  0  0  0  0  0  0  0  0
  140.8953   74.4124  220.2771 H   0  0  0  0  0  0  0  0  0  0  0  0
  141.6514   76.0418  220.2771 H   0  0  0  0  0  0  0  0  0  0  0  0
  142.1451   77.5686  222.5611 H   0  0  0  0  0  0  0  0  0  0  0  0
  141.1887   79.8232  223.1760 H   0  0  0  0  0  0  0  0  0  0  0  0
  138.7210   80.0204  223.2920 H   0  0  0  0  0  0  0  0  0  0  0  0
  137.2463   78.1299  222.8391 H   0  0  0  0  0  0  0  0  0  0  0  0
  137.2519   75.6196  223.1483 H   0  0  0  0  0  0  0  0  0  0  0  0
  137.3526   75.9475  221.3057 H   0  0  0  0  0  0  0  0  0  0  0  0
  138.9980   73.9440  222.7260 H   0  0  0  0  0  0  0  0  0  0  0  0
  137.9168   71.4690  220.2330 H   0  0  0  0  0  0  0  0  0  0  0  0
  139.6039   72.1758  220.3518 H   0  0  0  0  0  0  0  0  0  0  0  0
  138.2550   70.6240  222.4450 H   0  0  0  0  0  0  0  0  0  0  0  0
  141.2234   72.8515  225.0214 H   0  0  0  0  0  0  0  0  0  0  0  0
  141.6518   71.8426  227.1995 H   0  0  0  0  0  0  0  0  0  0  0  0
  141.3994   70.0017  228.7171 H   0  0  0  0  0  0  0  0  0  0  0  0
  140.4588   67.6957  229.1450 H   0  0  0  0  0  0  0  0  0  0  0  0
  139.1720   66.5781  227.3802 H   0  0  0  0  0  0  0  0  0  0  0  0
  138.7544   67.6258  225.1858 H   0  0  0  0  0  0  0  0  0  0  0  0
  1  2  1  0
  2  3  1  0
  3  4  2  0
  4  5  1  0
  5  6  2  0
  6  7  1  0
  7  8  2  0
  8  9  1  0
  9 10  1  0
 10 11  1  0
 11 12  2  0
 11 13  1  0
 13 14  1  0
 14 15  1  0
 15 16  2  0
 15 17  1  0
 17 18  2  0
 18 19  1  0
 19 20  2  0
 20 21  1  0
 21 22  2  0
 22 23  1  0
 23 24  2  0
 24 25  1  0
 25 26  2  0
  8  3  1  0
 26 17  1  0
 25 20  1  0
  1 27  1  0
  1 28  1  0
  1 29  1  0
  4 30  1  0
  5 31  1  0
  6 32  1  0
  7 33  1  0
  9 34  1  0
  9 35  1  0
 10 36  1  0
 13 37  1  0
 13 38  1  0
 14 39  1  0
 18 40  1  0
 19 41  1  0
 21 42  1  0
 22 43  1  0
 23 44  1  0
 24 45  1  0
M  END
>  <smiles>  (35) 
COc1ccccc1CNC(=O)CNC(=O)c1ccc2ccccc2n1

>  <score_type>  (35) 
oracle

>  <origin>  (35) 
autodockgpu

>  <m_score__min__energy>  (35) 
-8.3200000000000003

>  <m_primary>  (35) 
energy

>  <rmsd>  (35) 
3.8223483090886385

>  <m_score__min__rmsd>  (35) 
3.8223483090886385

>  <meeko>  (35) 
{"free_energy": -7.7, "intermolecular_energy": -9.49, "internal_energy": -2.19, "cluster_size": 40, "cluster_id": 2, "rank_in_cluster": 15}

>  <energy>  (35) 
-7.58

>  <cluster_rmsd>  (35) 
1.87

>  <cluster>  (35) 
2

$$$$

     RDKit          3D

 45 47  0  0  0  0  0  0  0  0999 V2000
  141.4370   75.2990  221.0050 C   0  0  0  0  0  0  0  0  0  0  0  0
  140.5590   75.5840  222.0410 O   0  0  0  0  0  0  0  0  0  0  0  0
  140.0940   76.8120  222.4470 C   0  0  0  0  0  0  0  0  0  0  0  0
  141.0540   77.8140  222.6110 C   0  0  0  0  0  0  0  0  0  0  0  0
  140.6810   79.1000  223.0130 C   0  0  0  0  0  0  0  0  0  0  0  0
  139.3420   79.2990  223.2300 C   0  0  0  0  0  0  0  0  0  0  0  0
  138.3990   78.3070  223.0670 C   0  0  0  0  0  0  0  0  0  0  0  0
  138.7600   77.0090  222.6640 C   0  0  0  0  0  0  0  0  0  0  0  0
  137.6850   76.0330  222.5790 C   0  0  0  0  0  0  0  0  0  0  0  0
  137.9900   74.6900  222.2530 N   0  0  0  0  0  0  0  0  0  0  0  0
  137.3380   73.7560  221.4490 C   0  0  0  0  0  0  0  0  0  0  0  0
  136.2770   74.0590  220.8450 O   0  0  0  0  0  0  0  0  0  0  0  0
  137.8070   72.3560  221.2230 C   0  0  0  0  0  0  0  0  0  0  0  0
  138.1910   71.6590  222.4230 N   0  0  0  0  0  0  0  0  0  0  0  0
  139.4050   72.0430  223.1020 C   0  0  0  0  0  0  0  0  0  0  0  0
  140.1380   72.9770  222.6790 O   0  0  0  0  0  0  0  0  0  0  0  0
  139.7950   71.3280  224.3110 C   0  0  0  0  0  0  0  0  0  0  0  0
  140.6950   71.8980  225.1890 C   0  0  0  0  0  0  0  0  0  0  0  0
  141.1110   71.3000  226.3390 C   0  0  0  0  0  0  0  0  0  0  0  0
  140.6220   70.0670  226.6570 C   0  0  0  0  0  0  0  0  0  0  0  0
  141.0330   69.4460  227.8170 C   0  0  0  0  0  0  0  0  0  0  0  0
  140.5040   68.1830  228.1020 C   0  0  0  0  0  0  0  0  0  0  0  0
  139.6090   67.6230  227.2230 C   0  0  0  0  0  0  0  0  0  0  0  0
  139.1960   68.2410  226.0630 C   0  0  0  0  0  0  0  0  0  0  0  0
  139.7160   69.4890  225.7770 C   0  0  0  0  0  0  0  0  0  0  0  0
  139.3220   70.1120  224.6400 N   0  0  0  0  0  0  0  0  0  0  0  0
  142.4055   74.9846  221.4212 H   0  0  0  0  0  0  0  0  0  0  0  0
  141.0235   74.4890  220.3863 H   0  0  0  0  0  0  0  0  0  0  0  0
  141.5781   76.1975  220.3863 H   0  0  0  0  0  0  0  0  0  0  0  0
  142.1139   77.5887  222.4219 H   0  0  0  0  0  0  0  0  0  0  0  0
  141.4186   79.9049  223.1473 H   0  0  0  0  0  0  0  0  0  0  0  0
  139.0047   80.2963  223.5489 H   0  0  0  0  0  0  0  0  0  0  0  0
  137.3399   78.5359  223.2565 H   0  0  0  0  0  0  0  0  0  0  0  0
  137.1863   76.0194  223.5594 H   0  0  0  0  0  0  0  0  0  0  0  0
  137.0880   76.3787  221.7222 H   0  0  0  0  0  0  0  0  0  0  0  0
  138.9130   74.3170  222.6960 H   0  0  0  0  0  0  0  0  0  0  0  0
  136.9928   71.7931  220.7432 H   0  0  0  0  0  0  0  0  0  0  0  0
  138.7080   72.4229  220.5955 H   0  0  0  0  0  0  0  0  0  0  0  0
  137.6460   70.8760  222.8540 H   0  0  0  0  0  0  0  0  0  0  0  0
  141.0989   72.8918  224.9455 H   0  0  0  0  0  0  0  0  0  0  0  0
  141.8304   71.8034  227.0016 H   0  0  0  0  0  0  0  0  0  0  0  0
  141.7526   69.9274  228.4955 H   0  0  0  0  0  0  0  0  0  0  0  0
  140.7999   67.6465  229.0156 H   0  0  0  0  0  0  0  0  0  0  0  0
  139.2006   66.6289  227.4577 H   0  0  0  0  0  0  0  0  0  0  0  0
  138.4760   67.7569  225.3867 H   0  0  0  0  0  0  0  0  0  0  0  0
  1  2  1  0
  2  3  1  0
  3  4  2  0
  4  5  1  0
  5  6  2  0
  6  7  1  0
  7  8  2  0
  8  9  1  0
  9 10  1  0
 10 11  1  0
 11 12  2  0
 11 13  1  0
 13 14  1  0
 14 15  1  0
 15 16  2  0
 15 17  1  0
 17 18  2  0
 18 19  1  0
 19 20  2  0
 20 21  1  0
 21 22  2  0
 22 23  1  0
 23 24  2  0
 24 25  1  0
 25 26  2  0
  8  3  1  0
 26 17  1  0
 25 20  1  0
  1 27  1  0
  1 28  1  0
  1 29  1  0
  4 30  1  0
  5 31  1  0
  6 32  1  0
  7 33  1  0
  9 34  1  0
  9 35  1  0
 10 36  1  0
 13 37  1  0
 13 38  1  0
 14 39  1  0
 18 40  1  0
 19 41  1  0
 21 42  1  0
 22 43  1  0
 23 44  1  0
 24 45  1  0
M  END
>  <smiles>  (36) 
COc1ccccc1CNC(=O)CNC(=O)c1ccc2ccccc2n1

>  <score_type>  (36) 
oracle

>  <origin>  (36) 
autodockgpu

>  <m_score__min__energy>  (36) 
-8.3200000000000003

>  <m_primary>  (36) 
energy

>  <rmsd>  (36) 
3.9293124815978606

>  <m_score__min__rmsd>  (36) 
3.9293124815978606

>  <meeko>  (36) 
{"free_energy": -7.6, "intermolecular_energy": -9.39, "internal_energy": -2.49, "cluster_size": 40, "cluster_id": 2, "rank_in_cluster": 30}

>  <energy>  (36) 
-7.58

>  <cluster_rmsd>  (36) 
1.56

>  <cluster>  (36) 
2

$$$$

     RDKit          3D

 45 47  0  0  0  0  0  0  0  0999 V2000
  137.8810   78.7620  222.6530 C   0  0  0  0  0  0  0  0  0  0  0  0
  139.1830   78.2960  222.7630 O   0  0  0  0  0  0  0  0  0  0  0  0
  140.3450   79.0280  222.8160 C   0  0  0  0  0  0  0  0  0  0  0  0
  140.3620   80.0990  223.7130 C   0  0  0  0  0  0  0  0  0  0  0  0
  141.5010   80.9000  223.8460 C   0  0  0  0  0  0  0  0  0  0  0  0
  142.5690   80.5650  223.0550 C   0  0  0  0  0  0  0  0  0  0  0  0
  142.5470   79.5070  222.1710 C   0  0  0  0  0  0  0  0  0  0  0  0
  141.4080   78.6950  222.0260 C   0  0  0  0  0  0  0  0  0  0  0  0
  141.4850   77.6430  221.0240 C   0  0  0  0  0  0  0  0  0  0  0  0
  140.5860   76.5520  221.0920 N   0  0  0  0  0  0  0  0  0  0  0  0
  140.7850   75.1750  221.0000 C   0  0  0  0  0  0  0  0  0  0  0  0
  141.9390   74.7020  220.8360 O   0  0  0  0  0  0  0  0  0  0  0  0
  139.6980   74.1530  221.0870 C   0  0  0  0  0  0  0  0  0  0  0  0
  139.6580   73.4360  222.3340 N   0  0  0  0  0  0  0  0  0  0  0  0
  140.2030   72.1000  222.3970 C   0  0  0  0  0  0  0  0  0  0  0  0
  140.7210   71.5440  221.3920 O   0  0  0  0  0  0  0  0  0  0  0  0
  140.1510   71.3750  223.6610 C   0  0  0  0  0  0  0  0  0  0  0  0
  139.6050   70.1080  223.7070 C   0  0  0  0  0  0  0  0  0  0  0  0
  139.5170   69.3640  224.8430 C   0  0  0  0  0  0  0  0  0  0  0  0
  139.9910   69.8840  226.0120 C   0  0  0  0  0  0  0  0  0  0  0  0
  139.9110   69.1440  227.1730 C   0  0  0  0  0  0  0  0  0  0  0  0
  140.4090   69.7180  228.3460 C   0  0  0  0  0  0  0  0  0  0  0  0
  140.9500   70.9800  228.2920 C   0  0  0  0  0  0  0  0  0  0  0  0
  141.0330   71.7210  227.1340 C   0  0  0  0  0  0  0  0  0  0  0  0
  140.5410   71.1580  225.9710 C   0  0  0  0  0  0  0  0  0  0  0  0
  140.6130   71.8740  224.8220 N   0  0  0  0  0  0  0  0  0  0  0  0
  137.4594   78.9129  223.6578 H   0  0  0  0  0  0  0  0  0  0  0  0
  137.8782   79.7169  222.1070 H   0  0  0  0  0  0  0  0  0  0  0  0
  137.2729   78.0257  222.1070 H   0  0  0  0  0  0  0  0  0  0  0  0
  139.4708   80.3145  224.3207 H   0  0  0  0  0  0  0  0  0  0  0  0
  141.5374   81.7490  224.5445 H   0  0  0  0  0  0  0  0  0  0  0  0
  143.4860   81.1680  223.1288 H   0  0  0  0  0  0  0  0  0  0  0  0
  143.4403   79.2934  221.5657 H   0  0  0  0  0  0  0  0  0  0  0  0
  141.3350   78.1214  220.0449 H   0  0  0  0  0  0  0  0  0  0  0  0
  142.4669   77.1820  221.2066 H   0  0  0  0  0  0  0  0  0  0  0  0
  139.5480   76.8330  221.2660 H   0  0  0  0  0  0  0  0  0  0  0  0
  138.7332   74.6639  220.9522 H   0  0  0  0  0  0  0  0  0  0  0  0
  139.9012   73.4093  220.3023 H   0  0  0  0  0  0  0  0  0  0  0  0
  139.2550   73.8150  223.2230 H   0  0  0  0  0  0  0  0  0  0  0  0
  139.2191   69.6752  222.7723 H   0  0  0  0  0  0  0  0  0  0  0  0
  139.0706   68.3589  224.8192 H   0  0  0  0  0  0  0  0  0  0  0  0
  139.4702   68.1362  227.1758 H   0  0  0  0  0  0  0  0  0  0  0  0
  140.3685   69.1680  229.2978 H   0  0  0  0  0  0  0  0  0  0  0  0
  141.3370   71.4215  229.2222 H   0  0  0  0  0  0  0  0  0  0  0  0
  141.4762   72.7278  227.1344 H   0  0  0  0  0  0  0  0  0  0  0  0
  1  2  1  0
  2  3  1  0
  3  4  2  0
  4  5  1  0
  5  6  2  0
  6  7  1  0
  7  8  2  0
  8  9  1  0
  9 10  1  0
 10 11  1  0
 11 12  2  0
 11 13  1  0
 13 14  1  0
 14 15  1  0
 15 16  2  0
 15 17  1  0
 17 18  2  0
 18 19  1  0
 19 20  2  0
 20 21  1  0
 21 22  2  0
 22 23  1  0
 23 24  2  0
 24 25  1  0
 25 26  2  0
  8  3  1  0
 26 17  1  0
 25 20  1  0
  1 27  1  0
  1 28  1  0
  1 29  1  0
  4 30  1  0
  5 31  1  0
  6 32  1  0
  7 33  1  0
  9 34  1  0
  9 35  1  0
 10 36  1  0
 13 37  1  0
 13 38  1  0
 14 39  1  0
 18 40  1  0
 19 41  1  0
 21 42  1  0
 22 43  1  0
 23 44  1  0
 24 45  1  0
M  END
>  <smiles>  (37) 
COc1ccccc1CNC(=O)CNC(=O)c1ccc2ccccc2n1

>  <score_type>  (37) 
oracle

>  <origin>  (37) 
autodockgpu

>  <m_score__min__energy>  (37) 
-8.3200000000000003

>  <m_primary>  (37) 
energy

>  <rmsd>  (37) 
3.305108713894293

>  <m_score__min__rmsd>  (37) 
3.305108713894293

>  <meeko>  (37) 
{"free_energy": -8.08, "intermolecular_energy": -9.87, "internal_energy": -1.45, "cluster_size": 40, "cluster_id": 2, "rank_in_cluster": 5}

>  <energy>  (37) 
-7.52

>  <cluster_rmsd>  (37) 
1.06

>  <cluster>  (37) 
2

$$$$

     RDKit          3D

 45 47  0  0  0  0  0  0  0  0999 V2000
  142.1720   79.9470  218.8770 C   0  0  0  0  0  0  0  0  0  0  0  0
  141.6190   80.4460  220.0480 O   0  0  0  0  0  0  0  0  0  0  0  0
  141.6610   79.9000  221.3070 C   0  0  0  0  0  0  0  0  0  0  0  0
  142.5020   80.5300  222.2280 C   0  0  0  0  0  0  0  0  0  0  0  0
  142.6090   80.0550  223.5390 C   0  0  0  0  0  0  0  0  0  0  0  0
  141.8480   78.9560  223.8450 C   0  0  0  0  0  0  0  0  0  0  0  0
  141.0200   78.3380  222.9340 C   0  0  0  0  0  0  0  0  0  0  0  0
  140.9040   78.8050  221.6120 C   0  0  0  0  0  0  0  0  0  0  0  0
  140.0400   78.0390  220.7270 C   0  0  0  0  0  0  0  0  0  0  0  0
  140.1760   76.6300  220.6700 N   0  0  0  0  0  0  0  0  0  0  0  0
  139.8880   75.6310  221.5980 C   0  0  0  0  0  0  0  0  0  0  0  0
  139.4030   75.9180  222.7230 O   0  0  0  0  0  0  0  0  0  0  0  0
  140.1070   74.1710  221.3680 C   0  0  0  0  0  0  0  0  0  0  0  0
  139.9340   73.3550  222.5410 N   0  0  0  0  0  0  0  0  0  0  0  0
  140.3950   71.9870  222.5220 C   0  0  0  0  0  0  0  0  0  0  0  0
  140.9530   71.4860  221.5090 O   0  0  0  0  0  0  0  0  0  0  0  0
  140.2080   71.1620  223.7090 C   0  0  0  0  0  0  0  0  0  0  0  0
  139.5510   69.9520  223.6120 C   0  0  0  0  0  0  0  0  0  0  0  0
  139.3340   69.1220  224.6680 C   0  0  0  0  0  0  0  0  0  0  0  0
  139.7840   69.4910  225.9020 C   0  0  0  0  0  0  0  0  0  0  0  0
  139.5740   68.6630  226.9840 C   0  0  0  0  0  0  0  0  0  0  0  0
  140.0530   69.0830  228.2280 C   0  0  0  0  0  0  0  0  0  0  0  0
  140.7060   70.2890  228.3170 C   0  0  0  0  0  0  0  0  0  0  0  0
  140.9190   71.1190  227.2380 C   0  0  0  0  0  0  0  0  0  0  0  0
  140.4460   70.7080  226.0060 C   0  0  0  0  0  0  0  0  0  0  0  0
  140.6460   71.5110  224.9330 N   0  0  0  0  0  0  0  0  0  0  0  0
  142.9678   79.2289  219.1242 H   0  0  0  0  0  0  0  0  0  0  0  0
  141.3916   79.4415  218.2893 H   0  0  0  0  0  0  0  0  0  0  0  0
  142.5950   80.7751  218.2893 H   0  0  0  0  0  0  0  0  0  0  0  0
  143.0863   81.4091  221.9185 H   0  0  0  0  0  0  0  0  0  0  0  0
  143.2647   80.5345  224.2807 H   0  0  0  0  0  0  0  0  0  0  0  0
  141.9013   78.5490  224.8655 H   0  0  0  0  0  0  0  0  0  0  0  0
  140.4364   77.4597  223.2472 H   0  0  0  0  0  0  0  0  0  0  0  0
  139.0037   78.2488  221.0305 H   0  0  0  0  0  0  0  0  0  0  0  0
  140.3404   78.3693  219.7217 H   0  0  0  0  0  0  0  0  0  0  0  0
  140.5610   76.2520  219.7240 H   0  0  0  0  0  0  0  0  0  0  0  0
  139.3926   73.8315  220.6035 H   0  0  0  0  0  0  0  0  0  0  0  0
  141.1550   74.0548  221.0546 H   0  0  0  0  0  0  0  0  0  0  0  0
  139.4880   73.6810  223.4300 H   0  0  0  0  0  0  0  0  0  0  0  0
  139.1815   69.6408  222.6238 H   0  0  0  0  0  0  0  0  0  0  0  0
  138.8039   68.1682  224.5290 H   0  0  0  0  0  0  0  0  0  0  0  0
  139.0471   67.7039  226.8720 H   0  0  0  0  0  0  0  0  0  0  0  0
  139.9096   68.4581  229.1218 H   0  0  0  0  0  0  0  0  0  0  0  0
  141.0782   70.6085  229.3016 H   0  0  0  0  0  0  0  0  0  0  0  0
  141.4478   72.0767  227.3532 H   0  0  0  0  0  0  0  0  0  0  0  0
  1  2  1  0
  2  3  1  0
  3  4  2  0
  4  5  1  0
  5  6  2  0
  6  7  1  0
  7  8  2  0
  8  9  1  0
  9 10  1  0
 10 11  1  0
 11 12  2  0
 11 13  1  0
 13 14  1  0
 14 15  1  0
 15 16  2  0
 15 17  1  0
 17 18  2  0
 18 19  1  0
 19 20  2  0
 20 21  1  0
 21 22  2  0
 22 23  1  0
 23 24  2  0
 24 25  1  0
 25 26  2  0
  8  3  1  0
 26 17  1  0
 25 20  1  0
  1 27  1  0
  1 28  1  0
  1 29  1  0
  4 30  1  0
  5 31  1  0
  6 32  1  0
  7 33  1  0
  9 34  1  0
  9 35  1  0
 10 36  1  0
 13 37  1  0
 13 38  1  0
 14 39  1  0
 18 40  1  0
 19 41  1  0
 21 42  1  0
 22 43  1  0
 23 44  1  0
 24 45  1  0
M  END
>  <smiles>  (38) 
COc1ccccc1CNC(=O)CNC(=O)c1ccc2ccccc2n1

>  <score_type>  (38) 
oracle

>  <origin>  (38) 
autodockgpu

>  <m_score__min__energy>  (38) 
-8.3200000000000003

>  <m_primary>  (38) 
energy

>  <rmsd>  (38) 
3.034159186050217

>  <m_score__min__rmsd>  (38) 
3.034159186050217

>  <meeko>  (38) 
{"free_energy": -8.08, "intermolecular_energy": -9.87, "internal_energy": -1.2, "cluster_size": 40, "cluster_id": 2, "rank_in_cluster": 4}

>  <energy>  (38) 
-7.5

>  <cluster_rmsd>  (38) 
1.86

>  <cluster>  (38) 
2

$$$$

     RDKit          3D

 45 47  0  0  0  0  0  0  0  0999 V2000
  141.6500   75.0870  220.8930 C   0  0  0  0  0  0  0  0  0  0  0  0
  140.8000   75.3300  221.9630 O   0  0  0  0  0  0  0  0  0  0  0  0
  140.2310   76.5220  222.3420 C   0  0  0  0  0  0  0  0  0  0  0  0
  141.1110   77.5820  222.5740 C   0  0  0  0  0  0  0  0  0  0  0  0
  140.6300   78.8380  222.9560 C   0  0  0  0  0  0  0  0  0  0  0  0
  139.2700   78.9500  223.0810 C   0  0  0  0  0  0  0  0  0  0  0  0
  138.4050   77.9010  222.8510 C   0  0  0  0  0  0  0  0  0  0  0  0
  138.8760   76.6330  222.4680 C   0  0  0  0  0  0  0  0  0  0  0  0
  137.8730   75.5910  222.3050 C   0  0  0  0  0  0  0  0  0  0  0  0
  138.2880   74.2620  222.0440 N   0  0  0  0  0  0  0  0  0  0  0  0
  138.2540   73.4890  220.8850 C   0  0  0  0  0  0  0  0  0  0  0  0
  137.8010   73.9610  219.8110 O   0  0  0  0  0  0  0  0  0  0  0  0
  138.7350   72.0770  220.7920 C   0  0  0  0  0  0  0  0  0  0  0  0
  138.9230   71.4320  222.0650 N   0  0  0  0  0  0  0  0  0  0  0  0
  139.9580   71.9090  222.9500 C   0  0  0  0  0  0  0  0  0  0  0  0
  140.7000   72.8820  222.6460 O   0  0  0  0  0  0  0  0  0  0  0  0
  140.1510   71.2460  224.2340 C   0  0  0  0  0  0  0  0  0  0  0  0
  140.8230   71.8940  225.2510 C   0  0  0  0  0  0  0  0  0  0  0  0
  141.0470   71.3480  226.4770 C   0  0  0  0  0  0  0  0  0  0  0  0
  140.5880   70.0900  226.7340 C   0  0  0  0  0  0  0  0  0  0  0  0
  140.8050   69.5210  227.9710 C   0  0  0  0  0  0  0  0  0  0  0  0
  140.3160   68.2280  228.1880 C   0  0  0  0  0  0  0  0  0  0  0  0
  139.6490   67.5900  227.1710 C   0  0  0  0  0  0  0  0  0  0  0  0
  139.4300   68.1560  225.9340 C   0  0  0  0  0  0  0  0  0  0  0  0
  139.9110   69.4330  225.7150 C   0  0  0  0  0  0  0  0  0  0  0  0
  139.7060   70.0050  224.5040 N   0  0  0  0  0  0  0  0  0  0  0  0
  142.6432   74.8030  221.2709 H   0  0  0  0  0  0  0  0  0  0  0  0
  141.2433   74.2691  220.2801 H   0  0  0  0  0  0  0  0  0  0  0  0
  141.7371   75.9962  220.2801 H   0  0  0  0  0  0  0  0  0  0  0  0
  142.1935   77.4268  222.4549 H   0  0  0  0  0  0  0  0  0  0  0  0
  141.3039   79.6866  223.1451 H   0  0  0  0  0  0  0  0  0  0  0  0
  138.8488   79.9216  223.3786 H   0  0  0  0  0  0  0  0  0  0  0  0
  137.3230   78.0598  222.9698 H   0  0  0  0  0  0  0  0  0  0  0  0
  137.2828   75.5662  223.2329 H   0  0  0  0  0  0  0  0  0  0  0  0
  137.3425   75.8826  221.3866 H   0  0  0  0  0  0  0  0  0  0  0  0
  138.7320   73.7520  222.8980 H   0  0  0  0  0  0  0  0  0  0  0  0
  137.9965   71.4982  220.2179 H   0  0  0  0  0  0  0  0  0  0  0  0
  139.7214   72.1108  220.3064 H   0  0  0  0  0  0  0  0  0  0  0  0
  138.3550   70.6220  222.4100 H   0  0  0  0  0  0  0  0  0  0  0  0
  141.1989   72.9098  225.0593 H   0  0  0  0  0  0  0  0  0  0  0  0
  141.5901   71.9128  227.2490 H   0  0  0  0  0  0  0  0  0  0  0  0
  141.3442   70.0650  228.7605 H   0  0  0  0  0  0  0  0  0  0  0  0
  140.4635   67.7304  229.1579 H   0  0  0  0  0  0  0  0  0  0  0  0
  139.2697   66.5737  227.3536 H   0  0  0  0  0  0  0  0  0  0  0  0
  138.8901   67.6095  225.1467 H   0  0  0  0  0  0  0  0  0  0  0  0
  1  2  1  0
  2  3  1  0
  3  4  2  0
  4  5  1  0
  5  6  2  0
  6  7  1  0
  7  8  2  0
  8  9  1  0
  9 10  1  0
 10 11  1  0
 11 12  2  0
 11 13  1  0
 13 14  1  0
 14 15  1  0
 15 16  2  0
 15 17  1  0
 17 18  2  0
 18 19  1  0
 19 20  2  0
 20 21  1  0
 21 22  2  0
 22 23  1  0
 23 24  2  0
 24 25  1  0
 25 26  2  0
  8  3  1  0
 26 17  1  0
 25 20  1  0
  1 27  1  0
  1 28  1  0
  1 29  1  0
  4 30  1  0
  5 31  1  0
  6 32  1  0
  7 33  1  0
  9 34  1  0
  9 35  1  0
 10 36  1  0
 13 37  1  0
 13 38  1  0
 14 39  1  0
 18 40  1  0
 19 41  1  0
 21 42  1  0
 22 43  1  0
 23 44  1  0
 24 45  1  0
M  END
>  <smiles>  (39) 
COc1ccccc1CNC(=O)CNC(=O)c1ccc2ccccc2n1

>  <score_type>  (39) 
oracle

>  <origin>  (39) 
autodockgpu

>  <m_score__min__energy>  (39) 
-8.3200000000000003

>  <m_primary>  (39) 
energy

>  <rmsd>  (39) 
3.819571090720738

>  <m_score__min__rmsd>  (39) 
3.819571090720738

>  <meeko>  (39) 
{"free_energy": -7.75, "intermolecular_energy": -9.54, "internal_energy": -1.93, "cluster_size": 40, "cluster_id": 2, "rank_in_cluster": 13}

>  <energy>  (39) 
-7.3

>  <cluster_rmsd>  (39) 
1.91

>  <cluster>  (39) 
2

$$$$

     RDKit          3D

 45 47  0  0  0  0  0  0  0  0999 V2000
  141.4530   75.3390  220.9420 C   0  0  0  0  0  0  0  0  0  0  0  0
  140.7990   75.7230  222.1040 O   0  0  0  0  0  0  0  0  0  0  0  0
  140.3870   76.9820  222.4700 C   0  0  0  0  0  0  0  0  0  0  0  0
  141.3840   77.9540  222.5770 C   0  0  0  0  0  0  0  0  0  0  0  0
  141.0650   79.2680  222.9350 C   0  0  0  0  0  0  0  0  0  0  0  0
  139.7380   79.5230  223.1660 C   0  0  0  0  0  0  0  0  0  0  0  0
  138.7580   78.5610  223.0600 C   0  0  0  0  0  0  0  0  0  0  0  0
  139.0650   77.2360  222.7020 C   0  0  0  0  0  0  0  0  0  0  0  0
  137.9540   76.2970  222.6740 C   0  0  0  0  0  0  0  0  0  0  0  0
  138.1900   74.9520  222.2970 N   0  0  0  0  0  0  0  0  0  0  0  0
  137.4850   74.0820  221.4670 C   0  0  0  0  0  0  0  0  0  0  0  0
  136.4360   74.4580  220.8860 O   0  0  0  0  0  0  0  0  0  0  0  0
  137.8830   72.6690  221.1860 C   0  0  0  0  0  0  0  0  0  0  0  0
  138.2290   71.9080  222.3570 N   0  0  0  0  0  0  0  0  0  0  0  0
  139.4980   72.1470  223.0030 C   0  0  0  0  0  0  0  0  0  0  0  0
  140.3110   73.0100  222.5760 O   0  0  0  0  0  0  0  0  0  0  0  0
  139.8490   71.3670  224.1830 C   0  0  0  0  0  0  0  0  0  0  0  0
  140.7060   71.8930  225.1280 C   0  0  0  0  0  0  0  0  0  0  0  0
  141.0850   71.2330  226.2560 C   0  0  0  0  0  0  0  0  0  0  0  0
  140.5990   69.9790  226.4820 C   0  0  0  0  0  0  0  0  0  0  0  0
  140.9720   69.2950  227.6200 C   0  0  0  0  0  0  0  0  0  0  0  0
  140.4480   68.0120  227.8090 C   0  0  0  0  0  0  0  0  0  0  0  0
  139.5960   67.4950  226.8640 C   0  0  0  0  0  0  0  0  0  0  0  0
  139.2210   68.1760  225.7270 C   0  0  0  0  0  0  0  0  0  0  0  0
  139.7360   69.4440  225.5350 C   0  0  0  0  0  0  0  0  0  0  0  0
  139.3790   70.1290  224.4210 N   0  0  0  0  0  0  0  0  0  0  0  0
  142.3747   74.7978  221.2018 H   0  0  0  0  0  0  0  0  0  0  0  0
  140.7966   74.6829  220.3515 H   0  0  0  0  0  0  0  0  0  0  0  0
  141.7061   76.2319  220.3515 H   0  0  0  0  0  0  0  0  0  0  0  0
  142.4314   77.6834  222.3776 H   0  0  0  0  0  0  0  0  0  0  0  0
  141.8331   80.0501  223.0258 H   0  0  0  0  0  0  0  0  0  0  0  0
  139.4420   80.5438  223.4493 H   0  0  0  0  0  0  0  0  0  0  0  0
  137.7116   78.8352  223.2598 H   0  0  0  0  0  0  0  0  0  0  0  0
  137.5269   76.2755  223.6875 H   0  0  0  0  0  0  0  0  0  0  0  0
  137.3087   76.6823  221.8708 H   0  0  0  0  0  0  0  0  0  0  0  0
  139.0970   74.5190  222.7170 H   0  0  0  0  0  0  0  0  0  0  0  0
  137.0421   72.1672  220.6850 H   0  0  0  0  0  0  0  0  0  0  0  0
  138.7870   72.7144  220.5610 H   0  0  0  0  0  0  0  0  0  0  0  0
  137.6200   71.1740  222.7900 H   0  0  0  0  0  0  0  0  0  0  0  0
  141.1057   72.9039  224.9598 H   0  0  0  0  0  0  0  0  0  0  0  0
  141.7726   71.7035  226.9742 H   0  0  0  0  0  0  0  0  0  0  0  0
  141.6581   69.7431  228.3538 H   0  0  0  0  0  0  0  0  0  0  0  0
  140.7143   67.4260  228.7010 H   0  0  0  0  0  0  0  0  0  0  0  0
  139.1920   66.4844  227.0235 H   0  0  0  0  0  0  0  0  0  0  0  0
  138.5340   67.7253  224.9956 H   0  0  0  0  0  0  0  0  0  0  0  0
  1  2  1  0
  2  3  1  0
  3  4  2  0
  4  5  1  0
  5  6  2  0
  6  7  1  0
  7  8  2  0
  8  9  1  0
  9 10  1  0
 10 11  1  0
 11 12  2  0
 11 13  1  0
 13 14  1  0
 14 15  1  0
 15 16  2  0
 15 17  1  0
 17 18  2  0
 18 19  1  0
 19 20  2  0
 20 21  1  0
 21 22  2  0
 22 23  1  0
 23 24  2  0
 24 25  1  0
 25 26  2  0
  8  3  1  0
 26 17  1  0
 25 20  1  0
  1 27  1  0
  1 28  1  0
  1 29  1  0
  4 30  1  0
  5 31  1  0
  6 32  1  0
  7 33  1  0
  9 34  1  0
  9 35  1  0
 10 36  1  0
 13 37  1  0
 13 38  1  0
 14 39  1  0
 18 40  1  0
 19 41  1  0
 21 42  1  0
 22 43  1  0
 23 44  1  0
 24 45  1  0
M  END
>  <smiles>  (40) 
COc1ccccc1CNC(=O)CNC(=O)c1ccc2ccccc2n1

>  <score_type>  (40) 
oracle

>  <origin>  (40) 
autodockgpu

>  <m_score__min__energy>  (40) 
-8.3200000000000003

>  <m_primary>  (40) 
energy

>  <rmsd>  (40) 
3.904583430954427

>  <m_score__min__rmsd>  (40) 
3.904583430954427

>  <meeko>  (40) 
{"free_energy": -7.64, "intermolecular_energy": -9.43, "internal_energy": -2.48, "cluster_size": 40, "cluster_id": 2, "rank_in_cluster": 17}

>  <energy>  (40) 
-7.3

>  <cluster_rmsd>  (40) 
1.98

>  <cluster>  (40) 
2

$$$$

     RDKit          3D

 45 47  0  0  0  0  0  0  0  0999 V2000
  141.6060   75.5150  220.8690 C   0  0  0  0  0  0  0  0  0  0  0  0
  140.8750   75.7690  222.0210 O   0  0  0  0  0  0  0  0  0  0  0  0
  140.4140   76.9770  222.4850 C   0  0  0  0  0  0  0  0  0  0  0  0
  141.3840   77.9300  222.8030 C   0  0  0  0  0  0  0  0  0  0  0  0
  141.0160   79.1930  223.2750 C   0  0  0  0  0  0  0  0  0  0  0  0
  139.6700   79.4220  223.3990 C   0  0  0  0  0  0  0  0  0  0  0  0
  138.7160   78.4780  223.0840 C   0  0  0  0  0  0  0  0  0  0  0  0
  139.0720   77.2030  222.6090 C   0  0  0  0  0  0  0  0  0  0  0  0
  137.9800   76.2740  222.3610 C   0  0  0  0  0  0  0  0  0  0  0  0
  138.2740   74.9350  222.0090 N   0  0  0  0  0  0  0  0  0  0  0  0
  137.4910   73.9290  221.4450 C   0  0  0  0  0  0  0  0  0  0  0  0
  136.2890   74.1430  221.1450 O   0  0  0  0  0  0  0  0  0  0  0  0
  137.9730   72.5460  221.1460 C   0  0  0  0  0  0  0  0  0  0  0  0
  138.3340   71.7800  222.3090 N   0  0  0  0  0  0  0  0  0  0  0  0
  139.5280   72.1310  223.0410 C   0  0  0  0  0  0  0  0  0  0  0  0
  140.2620   73.0950  222.6960 O   0  0  0  0  0  0  0  0  0  0  0  0
  139.8940   71.3460  224.2130 C   0  0  0  0  0  0  0  0  0  0  0  0
  140.7270   71.8860  225.1720 C   0  0  0  0  0  0  0  0  0  0  0  0
  141.1190   71.2230  226.2940 C   0  0  0  0  0  0  0  0  0  0  0  0
  140.6720   69.9510  226.4990 C   0  0  0  0  0  0  0  0  0  0  0  0
  141.0570   69.2630  227.6310 C   0  0  0  0  0  0  0  0  0  0  0  0
  140.5740   67.9620  227.7990 C   0  0  0  0  0  0  0  0  0  0  0  0
  139.7450   67.4320  226.8390 C   0  0  0  0  0  0  0  0  0  0  0  0
  139.3580   68.1150  225.7080 C   0  0  0  0  0  0  0  0  0  0  0  0
  139.8330   69.4020  225.5380 C   0  0  0  0  0  0  0  0  0  0  0  0
  139.4630   70.0900  224.4310 N   0  0  0  0  0  0  0  0  0  0  0  0
  142.6123   75.1653  221.1430 H   0  0  0  0  0  0  0  0  0  0  0  0
  141.0978   74.7408  220.2755 H   0  0  0  0  0  0  0  0  0  0  0  0
  141.6873   76.4376  220.2755 H   0  0  0  0  0  0  0  0  0  0  0  0
  142.4491   77.6840  222.6807 H   0  0  0  0  0  0  0  0  0  0  0  0
  141.7628   79.9587  223.5320 H   0  0  0  0  0  0  0  0  0  0  0  0
  139.3361   80.4035  223.7665 H   0  0  0  0  0  0  0  0  0  0  0  0
  137.6518   78.7277  223.2070 H   0  0  0  0  0  0  0  0  0  0  0  0
  137.3746   76.2386  223.2787 H   0  0  0  0  0  0  0  0  0  0  0  0
  137.4943   76.6785  221.4607 H   0  0  0  0  0  0  0  0  0  0  0  0
  139.3050   74.6360  222.1940 H   0  0  0  0  0  0  0  0  0  0  0  0
  137.1727   72.0096  220.6151 H   0  0  0  0  0  0  0  0  0  0  0  0
  138.8874   72.6546  220.5443 H   0  0  0  0  0  0  0  0  0  0  0  0
  137.7870   70.9670  222.6780 H   0  0  0  0  0  0  0  0  0  0  0  0
  141.0953   72.9114  225.0206 H   0  0  0  0  0  0  0  0  0  0  0  0
  141.7857   71.7054  227.0239 H   0  0  0  0  0  0  0  0  0  0  0  0
  141.7221   69.7229  228.3768 H   0  0  0  0  0  0  0  0  0  0  0  0
  140.8527   67.3721  228.6847 H   0  0  0  0  0  0  0  0  0  0  0  0
  139.3709   66.4075  226.9821 H   0  0  0  0  0  0  0  0  0  0  0  0
  138.6929   67.6519  224.9643 H   0  0  0  0  0  0  0  0  0  0  0  0
  1  2  1  0
  2  3  1  0
  3  4  2  0
  4  5  1  0
  5  6  2  0
  6  7  1  0
  7  8  2  0
  8  9  1  0
  9 10  1  0
 10 11  1  0
 11 12  2  0
 11 13  1  0
 13 14  1  0
 14 15  1  0
 15 16  2  0
 15 17  1  0
 17 18  2  0
 18 19  1  0
 19 20  2  0
 20 21  1  0
 21 22  2  0
 22 23  1  0
 23 24  2  0
 24 25  1  0
 25 26  2  0
  8  3  1  0
 26 17  1  0
 25 20  1  0
  1 27  1  0
  1 28  1  0
  1 29  1  0
  4 30  1  0
  5 31  1  0
  6 32  1  0
  7 33  1  0
  9 34  1  0
  9 35  1  0
 10 36  1  0
 13 37  1  0
 13 38  1  0
 14 39  1  0
 18 40  1  0
 19 41  1  0
 21 42  1  0
 22 43  1  0
 23 44  1  0
 24 45  1  0
M  END
>  <smiles>  (41) 
COc1ccccc1CNC(=O)CNC(=O)c1ccc2ccccc2n1

>  <score_type>  (41) 
oracle

>  <origin>  (41) 
autodockgpu

>  <m_score__min__energy>  (41) 
-8.3200000000000003

>  <m_primary>  (41) 
energy

>  <rmsd>  (41) 
3.890285628349342

>  <m_score__min__rmsd>  (41) 
3.890285628349342

>  <meeko>  (41) 
{"free_energy": -7.3, "intermolecular_energy": -9.09, "internal_energy": -2.51, "cluster_size": 40, "cluster_id": 2, "rank_in_cluster": 35}

>  <energy>  (41) 
-7.28

>  <cluster_rmsd>  (41) 
1.89

>  <cluster>  (41) 
2

$$$$

     RDKit          3D

 45 47  0  0  0  0  0  0  0  0999 V2000
  140.0320   67.4460  226.4960 C   0  0  0  0  0  0  0  0  0  0  0  0
  139.5080   68.6520  226.9390 O   0  0  0  0  0  0  0  0  0  0  0  0
  140.1170   69.8840  226.9640 C   0  0  0  0  0  0  0  0  0  0  0  0
  140.4070   70.4060  228.2270 C   0  0  0  0  0  0  0  0  0  0  0  0
  141.0340   71.6480  228.3580 C   0  0  0  0  0  0  0  0  0  0  0  0
  141.3330   72.2990  227.1890 C   0  0  0  0  0  0  0  0  0  0  0  0
  141.0440   71.7800  225.9460 C   0  0  0  0  0  0  0  0  0  0  0  0
  140.4140   70.5320  225.7990 C   0  0  0  0  0  0  0  0  0  0  0  0
  140.1120   70.1130  224.4390 C   0  0  0  0  0  0  0  0  0  0  0  0
  139.0250   70.7080  223.7540 N   0  0  0  0  0  0  0  0  0  0  0  0
  138.9230   71.8880  223.0180 C   0  0  0  0  0  0  0  0  0  0  0  0
  139.9230   72.6350  222.8600 O   0  0  0  0  0  0  0  0  0  0  0  0
  137.6720   72.3730  222.3610 C   0  0  0  0  0  0  0  0  0  0  0  0
  136.6770   72.8680  223.2750 N   0  0  0  0  0  0  0  0  0  0  0  0
  135.8720   71.9270  224.0180 C   0  0  0  0  0  0  0  0  0  0  0  0
  136.0200   70.6820  223.8950 O   0  0  0  0  0  0  0  0  0  0  0  0
  134.8600   72.4340  224.9360 C   0  0  0  0  0  0  0  0  0  0  0  0
  134.0030   71.5570  225.5700 C   0  0  0  0  0  0  0  0  0  0  0  0
  133.0310   71.9450  226.4400 C   0  0  0  0  0  0  0  0  0  0  0  0
  132.8800   73.2730  226.7120 C   0  0  0  0  0  0  0  0  0  0  0  0
  131.9010   73.6860  227.5910 C   0  0  0  0  0  0  0  0  0  0  0  0
  131.7840   75.0570  227.8390 C   0  0  0  0  0  0  0  0  0  0  0  0
  132.6400   75.9230  227.2040 C   0  0  0  0  0  0  0  0  0  0  0  0
  133.6200   75.5150  226.3260 C   0  0  0  0  0  0  0  0  0  0  0  0
  133.7400   74.1600  226.0770 C   0  0  0  0  0  0  0  0  0  0  0  0
  134.6980   73.7400  225.2150 N   0  0  0  0  0  0  0  0  0  0  0  0
  140.3024   66.8236  227.3618 H   0  0  0  0  0  0  0  0  0  0  0  0
  139.2807   66.9212  225.8875 H   0  0  0  0  0  0  0  0  0  0  0  0
  140.9282   67.6371  225.8875 H   0  0  0  0  0  0  0  0  0  0  0  0
  140.1391   69.8336  229.1274 H   0  0  0  0  0  0  0  0  0  0  0  0
  141.2737   72.0782  229.3416 H   0  0  0  0  0  0  0  0  0  0  0  0
  141.8262   73.2806  227.2462 H   0  0  0  0  0  0  0  0  0  0  0  0
  141.3125   72.3555  225.0478 H   0  0  0  0  0  0  0  0  0  0  0  0
  141.0130   70.3036  223.8374 H   0  0  0  0  0  0  0  0  0  0  0  0
  139.8037   69.0633  224.5532 H   0  0  0  0  0  0  0  0  0  0  0  0
  138.0990   70.1350  223.7910 H   0  0  0  0  0  0  0  0  0  0  0  0
  137.9389   73.1855  221.6691 H   0  0  0  0  0  0  0  0  0  0  0  0
  137.2275   71.5058  221.8507 H   0  0  0  0  0  0  0  0  0  0  0  0
  136.4840   73.8820  223.4500 H   0  0  0  0  0  0  0  0  0  0  0  0
  134.1120   70.4828  225.3600 H   0  0  0  0  0  0  0  0  0  0  0  0
  132.3775   71.1993  226.9163 H   0  0  0  0  0  0  0  0  0  0  0  0
  131.2343   72.9609  228.0807 H   0  0  0  0  0  0  0  0  0  0  0  0
  131.0183   75.4360  228.5319 H   0  0  0  0  0  0  0  0  0  0  0  0
  132.5377   76.9992  227.4072 H   0  0  0  0  0  0  0  0  0  0  0  0
  134.2853   76.2432  225.8390 H   0  0  0  0  0  0  0  0  0  0  0  0
  1  2  1  0
  2  3  1  0
  3  4  2  0
  4  5  1  0
  5  6  2  0
  6  7  1  0
  7  8  2  0
  8  9  1  0
  9 10  1  0
 10 11  1  0
 11 12  2  0
 11 13  1  0
 13 14  1  0
 14 15  1  0
 15 16  2  0
 15 17  1  0
 17 18  2  0
 18 19  1  0
 19 20  2  0
 20 21  1  0
 21 22  2  0
 22 23  1  0
 23 24  2  0
 24 25  1  0
 25 26  2  0
  8  3  1  0
 26 17  1  0
 25 20  1  0
  1 27  1  0
  1 28  1  0
  1 29  1  0
  4 30  1  0
  5 31  1  0
  6 32  1  0
  7 33  1  0
  9 34  1  0
  9 35  1  0
 10 36  1  0
 13 37  1  0
 13 38  1  0
 14 39  1  0
 18 40  1  0
 19 41  1  0
 21 42  1  0
 22 43  1  0
 23 44  1  0
 24 45  1  0
M  END
>  <smiles>  (42) 
COc1ccccc1CNC(=O)CNC(=O)c1ccc2ccccc2n1

>  <score_type>  (42) 
oracle

>  <origin>  (42) 
autodockgpu

>  <m_score__min__energy>  (42) 
-8.3200000000000003

>  <m_primary>  (42) 
energy

>  <rmsd>  (42) 
7.595261484420897

>  <m_score__min__rmsd>  (42) 
7.595261484420897

>  <meeko>  (42) 
{"free_energy": -7.35, "intermolecular_energy": -9.14, "internal_energy": -1.86, "cluster_size": 1, "cluster_id": 3, "rank_in_cluster": 1}

>  <energy>  (42) 
-7.24

>  <cluster_rmsd>  (42) 
1.9

>  <cluster>  (42) 
2

$$$$

     RDKit          3D

 45 47  0  0  0  0  0  0  0  0999 V2000
  141.4090   75.3450  221.0640 C   0  0  0  0  0  0  0  0  0  0  0  0
  140.6800   75.6830  222.1950 O   0  0  0  0  0  0  0  0  0  0  0  0
  140.2040   76.9190  222.5600 C   0  0  0  0  0  0  0  0  0  0  0  0
  141.1590   77.9220  222.7440 C   0  0  0  0  0  0  0  0  0  0  0  0
  140.7730   79.2160  223.1080 C   0  0  0  0  0  0  0  0  0  0  0  0
  139.4270   79.4220  223.2660 C   0  0  0  0  0  0  0  0  0  0  0  0
  138.4890   78.4290  223.0840 C   0  0  0  0  0  0  0  0  0  0  0  0
  138.8630   77.1230  222.7190 C   0  0  0  0  0  0  0  0  0  0  0  0
  137.7890   76.1480  222.6080 C   0  0  0  0  0  0  0  0  0  0  0  0
  138.0950   74.8160  222.2390 N   0  0  0  0  0  0  0  0  0  0  0  0
  137.4770   73.9290  221.3590 C   0  0  0  0  0  0  0  0  0  0  0  0
  136.4540   74.2740  220.7120 O   0  0  0  0  0  0  0  0  0  0  0  0
  137.9400   72.5330  221.0950 C   0  0  0  0  0  0  0  0  0  0  0  0
  138.2840   71.7900  222.2790 N   0  0  0  0  0  0  0  0  0  0  0  0
  139.5120   72.0980  222.9720 C   0  0  0  0  0  0  0  0  0  0  0  0
  140.2920   73.0050  222.5760 O   0  0  0  0  0  0  0  0  0  0  0  0
  139.8600   71.3360  224.1650 C   0  0  0  0  0  0  0  0  0  0  0  0
  140.6970   71.8860  225.1150 C   0  0  0  0  0  0  0  0  0  0  0  0
  141.0720   71.2440  226.2550 C   0  0  0  0  0  0  0  0  0  0  0  0
  140.6040   69.9850  226.4880 C   0  0  0  0  0  0  0  0  0  0  0  0
  140.9720   69.3190  227.6380 C   0  0  0  0  0  0  0  0  0  0  0  0
  140.4670   68.0300  227.8350 C   0  0  0  0  0  0  0  0  0  0  0  0
  139.6350   67.4900  226.8840 C   0  0  0  0  0  0  0  0  0  0  0  0
  139.2640   68.1520  225.7350 C   0  0  0  0  0  0  0  0  0  0  0  0
  139.7610   69.4260  225.5360 C   0  0  0  0  0  0  0  0  0  0  0  0
  139.4070   70.0930  224.4100 N   0  0  0  0  0  0  0  0  0  0  0  0
  142.3687   74.9001  221.3657 H   0  0  0  0  0  0  0  0  0  0  0  0
  140.8404   74.6187  220.4648 H   0  0  0  0  0  0  0  0  0  0  0  0
  141.5959   76.2483  220.4648 H   0  0  0  0  0  0  0  0  0  0  0  0
  142.2251   77.6916  222.6012 H   0  0  0  0  0  0  0  0  0  0  0  0
  141.5067   80.0215  223.2587 H   0  0  0  0  0  0  0  0  0  0  0  0
  139.0797   80.4260  223.5512 H   0  0  0  0  0  0  0  0  0  0  0  0
  137.4238   78.6629  223.2274 H   0  0  0  0  0  0  0  0  0  0  0  0
  137.2944   76.1030  223.5895 H   0  0  0  0  0  0  0  0  0  0  0  0
  137.1878   76.5192  221.7649 H   0  0  0  0  0  0  0  0  0  0  0  0
  138.9880   74.4100  222.7140 H   0  0  0  0  0  0  0  0  0  0  0  0
  137.1346   71.9957  220.5728 H   0  0  0  0  0  0  0  0  0  0  0  0
  138.8585   72.6135  220.4952 H   0  0  0  0  0  0  0  0  0  0  0  0
  137.7000   71.0240  222.6880 H   0  0  0  0  0  0  0  0  0  0  0  0
  141.0830   72.9012  224.9407 H   0  0  0  0  0  0  0  0  0  0  0  0
  141.7422   71.7334  226.9770 H   0  0  0  0  0  0  0  0  0  0  0  0
  141.6407   69.7862  228.3760 H   0  0  0  0  0  0  0  0  0  0  0  0
  140.7314   67.4577  228.7364 H   0  0  0  0  0  0  0  0  0  0  0  0
  139.2446   66.4750  227.0494 H   0  0  0  0  0  0  0  0  0  0  0  0
  138.5941   67.6822  224.9998 H   0  0  0  0  0  0  0  0  0  0  0  0
  1  2  1  0
  2  3  1  0
  3  4  2  0
  4  5  1  0
  5  6  2  0
  6  7  1  0
  7  8  2  0
  8  9  1  0
  9 10  1  0
 10 11  1  0
 11 12  2  0
 11 13  1  0
 13 14  1  0
 14 15  1  0
 15 16  2  0
 15 17  1  0
 17 18  2  0
 18 19  1  0
 19 20  2  0
 20 21  1  0
 21 22  2  0
 22 23  1  0
 23 24  2  0
 24 25  1  0
 25 26  2  0
  8  3  1  0
 26 17  1  0
 25 20  1  0
  1 27  1  0
  1 28  1  0
  1 29  1  0
  4 30  1  0
  5 31  1  0
  6 32  1  0
  7 33  1  0
  9 34  1  0
  9 35  1  0
 10 36  1  0
 13 37  1  0
 13 38  1  0
 14 39  1  0
 18 40  1  0
 19 41  1  0
 21 42  1  0
 22 43  1  0
 23 44  1  0
 24 45  1  0
M  END
>  <smiles>  (43) 
COc1ccccc1CNC(=O)CNC(=O)c1ccc2ccccc2n1

>  <score_type>  (43) 
oracle

>  <origin>  (43) 
autodockgpu

>  <m_score__min__energy>  (43) 
-8.3200000000000003

>  <m_primary>  (43) 
energy

>  <rmsd>  (43) 
3.930281885240972

>  <m_score__min__rmsd>  (43) 
3.930281885240972

>  <meeko>  (43) 
{"free_energy": -7.66, "intermolecular_energy": -9.45, "internal_energy": -2.47, "cluster_size": 40, "cluster_id": 2, "rank_in_cluster": 16}

>  <energy>  (43) 
-7.23

>  <cluster_rmsd>  (43) 
1.96

>  <cluster>  (43) 
2

$$$$

     RDKit          3D

 45 47  0  0  0  0  0  0  0  0999 V2000
  137.3940   75.5740  222.2430 C   0  0  0  0  0  0  0  0  0  0  0  0
  138.5820   76.1180  221.7760 O   0  0  0  0  0  0  0  0  0  0  0  0
  139.2950   77.1720  222.2940 C   0  0  0  0  0  0  0  0  0  0  0  0
  138.5790   78.0780  223.0810 C   0  0  0  0  0  0  0  0  0  0  0  0
  139.2170   79.1790  223.6600 C   0  0  0  0  0  0  0  0  0  0  0  0
  140.5580   79.3010  223.4060 C   0  0  0  0  0  0  0  0  0  0  0  0
  141.2610   78.4050  222.6290 C   0  0  0  0  0  0  0  0  0  0  0  0
  140.6320   77.2940  222.0400 C   0  0  0  0  0  0  0  0  0  0  0  0
  141.4640   76.4480  221.1970 C   0  0  0  0  0  0  0  0  0  0  0  0
  141.0730   75.1100  220.9540 N   0  0  0  0  0  0  0  0  0  0  0  0
  141.7760   74.0090  220.4660 C   0  0  0  0  0  0  0  0  0  0  0  0
  142.9930   74.1070  220.1630 O   0  0  0  0  0  0  0  0  0  0  0  0
  141.1900   72.6500  220.2620 C   0  0  0  0  0  0  0  0  0  0  0  0
  141.0790   71.8670  221.4650 N   0  0  0  0  0  0  0  0  0  0  0  0
  140.2260   72.3330  222.5320 C   0  0  0  0  0  0  0  0  0  0  0  0
  139.5680   73.4030  222.4410 O   0  0  0  0  0  0  0  0  0  0  0  0
  140.1250   71.5410  223.7520 C   0  0  0  0  0  0  0  0  0  0  0  0
  139.4170   70.3550  223.7470 C   0  0  0  0  0  0  0  0  0  0  0  0
  139.2720   69.5570  224.8400 C   0  0  0  0  0  0  0  0  0  0  0  0
  139.8530   69.9340  226.0150 C   0  0  0  0  0  0  0  0  0  0  0  0
  139.7180   69.1380  227.1320 C   0  0  0  0  0  0  0  0  0  0  0  0
  140.3310   69.5640  228.3150 C   0  0  0  0  0  0  0  0  0  0  0  0
  141.0330   70.7450  228.3110 C   0  0  0  0  0  0  0  0  0  0  0  0
  141.1710   71.5430  227.1960 C   0  0  0  0  0  0  0  0  0  0  0  0
  140.5670   71.1250  226.0250 C   0  0  0  0  0  0  0  0  0  0  0  0
  140.6910   71.8980  224.9190 N   0  0  0  0  0  0  0  0  0  0  0  0
  137.3974   75.5756  223.3430 H   0  0  0  0  0  0  0  0  0  0  0  0
  136.5475   76.1742  221.8781 H   0  0  0  0  0  0  0  0  0  0  0  0
  137.2953   74.5410  221.8781 H   0  0  0  0  0  0  0  0  0  0  0  0
  137.5026   77.9233  223.2466 H   0  0  0  0  0  0  0  0  0  0  0  0
  138.6742   79.9050  224.2831 H   0  0  0  0  0  0  0  0  0  0  0  0
  141.0989   80.1536  223.8424 H   0  0  0  0  0  0  0  0  0  0  0  0
  142.3374   78.5627  222.4663 H   0  0  0  0  0  0  0  0  0  0  0  0
  141.5361   76.9436  220.2176 H   0  0  0  0  0  0  0  0  0  0  0  0
  142.3960   76.3453  221.7722 H   0  0  0  0  0  0  0  0  0  0  0  0
  140.0370   74.8890  221.2100 H   0  0  0  0  0  0  0  0  0  0  0  0
  140.1836   72.7693  219.8343 H   0  0  0  0  0  0  0  0  0  0  0  0
  141.8760   72.1076  219.5948 H   0  0  0  0  0  0  0  0  0  0  0  0
  141.5810   70.9630  221.6330 H   0  0  0  0  0  0  0  0  0  0  0  0
  138.9435   70.0374  222.8063 H   0  0  0  0  0  0  0  0  0  0  0  0
  138.6952   68.6225  224.7767 H   0  0  0  0  0  0  0  0  0  0  0  0
  139.1470   68.1986  227.0945 H   0  0  0  0  0  0  0  0  0  0  0  0
  140.2523   68.9634  229.2332 H   0  0  0  0  0  0  0  0  0  0  0  0
  141.5100   71.0707  229.2471 H   0  0  0  0  0  0  0  0  0  0  0  0
  141.7430   72.4817  227.2365 H   0  0  0  0  0  0  0  0  0  0  0  0
  1  2  1  0
  2  3  1  0
  3  4  2  0
  4  5  1  0
  5  6  2  0
  6  7  1  0
  7  8  2  0
  8  9  1  0
  9 10  1  0
 10 11  1  0
 11 12  2  0
 11 13  1  0
 13 14  1  0
 14 15  1  0
 15 16  2  0
 15 17  1  0
 17 18  2  0
 18 19  1  0
 19 20  2  0
 20 21  1  0
 21 22  2  0
 22 23  1  0
 23 24  2  0
 24 25  1  0
 25 26  2  0
  8  3  1  0
 26 17  1  0
 25 20  1  0
  1 27  1  0
  1 28  1  0
  1 29  1  0
  4 30  1  0
  5 31  1  0
  6 32  1  0
  7 33  1  0
  9 34  1  0
  9 35  1  0
 10 36  1  0
 13 37  1  0
 13 38  1  0
 14 39  1  0
 18 40  1  0
 19 41  1  0
 21 42  1  0
 22 43  1  0
 23 44  1  0
 24 45  1  0
M  END
>  <smiles>  (44) 
COc1ccccc1CNC(=O)CNC(=O)c1ccc2ccccc2n1

>  <score_type>  (44) 
oracle

>  <origin>  (44) 
autodockgpu

>  <m_score__min__energy>  (44) 
-8.3200000000000003

>  <m_primary>  (44) 
energy

>  <rmsd>  (44) 
3.2451574241413326

>  <m_score__min__rmsd>  (44) 
3.2451574241413326

>  <meeko>  (44) 
{"free_energy": -7.12, "intermolecular_energy": -8.91, "internal_energy": -2.26, "cluster_size": 4, "cluster_id": 1, "rank_in_cluster": 4}

>  <energy>  (44) 
-7.08

>  <cluster_rmsd>  (44) 
1.98

>  <cluster>  (44) 
2

$$$$

     RDKit          3D

 45 47  0  0  0  0  0  0  0  0999 V2000
  141.3690   75.3260  221.0050 C   0  0  0  0  0  0  0  0  0  0  0  0
  140.6840   75.6690  222.1620 O   0  0  0  0  0  0  0  0  0  0  0  0
  140.2120   76.9040  222.5350 C   0  0  0  0  0  0  0  0  0  0  0  0
  141.1710   77.8980  222.7410 C   0  0  0  0  0  0  0  0  0  0  0  0
  140.7910   79.1900  223.1140 C   0  0  0  0  0  0  0  0  0  0  0  0
  139.4450   79.4050  223.2580 C   0  0  0  0  0  0  0  0  0  0  0  0
  138.5010   78.4210  223.0540 C   0  0  0  0  0  0  0  0  0  0  0  0
  138.8700   77.1160  222.6800 C   0  0  0  0  0  0  0  0  0  0  0  0
  137.7910   76.1500  222.5450 C   0  0  0  0  0  0  0  0  0  0  0  0
  138.0990   74.8030  222.2370 N   0  0  0  0  0  0  0  0  0  0  0  0
  137.4620   73.8660  221.4250 C   0  0  0  0  0  0  0  0  0  0  0  0
  136.4170   74.1680  220.7930 O   0  0  0  0  0  0  0  0  0  0  0  0
  137.9310   72.4620  221.2200 C   0  0  0  0  0  0  0  0  0  0  0  0
  138.2600   71.7650  222.4360 N   0  0  0  0  0  0  0  0  0  0  0  0
  139.5320   72.0160  223.0690 C   0  0  0  0  0  0  0  0  0  0  0  0
  140.3640   72.8350  222.5930 O   0  0  0  0  0  0  0  0  0  0  0  0
  139.8650   71.3010  224.2950 C   0  0  0  0  0  0  0  0  0  0  0  0
  140.7050   71.8800  225.2250 C   0  0  0  0  0  0  0  0  0  0  0  0
  141.0660   71.2820  226.3930 C   0  0  0  0  0  0  0  0  0  0  0  0
  140.5800   70.0400  226.6780 C   0  0  0  0  0  0  0  0  0  0  0  0
  140.9340   69.4190  227.8560 C   0  0  0  0  0  0  0  0  0  0  0  0
  140.4110   68.1460  228.1050 C   0  0  0  0  0  0  0  0  0  0  0  0
  139.5760   67.5770  227.1740 C   0  0  0  0  0  0  0  0  0  0  0  0
  139.2190   68.1940  225.9960 C   0  0  0  0  0  0  0  0  0  0  0  0
  139.7340   69.4530  225.7460 C   0  0  0  0  0  0  0  0  0  0  0  0
  139.3940   70.0750  224.5910 N   0  0  0  0  0  0  0  0  0  0  0  0
  142.3232   74.8482  221.2718 H   0  0  0  0  0  0  0  0  0  0  0  0
  140.7613   74.6259  220.4130 H   0  0  0  0  0  0  0  0  0  0  0  0
  141.5655   76.2320  220.4130 H   0  0  0  0  0  0  0  0  0  0  0  0
  142.2370   77.6614  222.6082 H   0  0  0  0  0  0  0  0  0  0  0  0
  141.5291   79.9880  223.2823 H   0  0  0  0  0  0  0  0  0  0  0  0
  139.1022   80.4087  223.5497 H   0  0  0  0  0  0  0  0  0  0  0  0
  137.4359   78.6617  223.1866 H   0  0  0  0  0  0  0  0  0  0  0  0
  137.2452   76.1436  223.5000 H   0  0  0  0  0  0  0  0  0  0  0  0
  137.2394   76.4991  221.6596 H   0  0  0  0  0  0  0  0  0  0  0  0
  139.0090   74.4300  222.7040 H   0  0  0  0  0  0  0  0  0  0  0  0
  137.1338   71.9036  220.7075 H   0  0  0  0  0  0  0  0  0  0  0  0
  138.8575   72.5217  220.6300 H   0  0  0  0  0  0  0  0  0  0  0  0
  137.6340   71.0720  222.9110 H   0  0  0  0  0  0  0  0  0  0  0  0
  141.1053   72.8817  225.0097 H   0  0  0  0  0  0  0  0  0  0  0  0
  141.7397   71.7928  227.0967 H   0  0  0  0  0  0  0  0  0  0  0  0
  141.6057   69.9083  228.5767 H   0  0  0  0  0  0  0  0  0  0  0  0
  140.6640   67.6091  229.0311 H   0  0  0  0  0  0  0  0  0  0  0  0
  139.1712   66.5753  227.3807 H   0  0  0  0  0  0  0  0  0  0  0  0
  138.5466   67.7020  225.2777 H   0  0  0  0  0  0  0  0  0  0  0  0
  1  2  1  0
  2  3  1  0
  3  4  2  0
  4  5  1  0
  5  6  2  0
  6  7  1  0
  7  8  2  0
  8  9  1  0
  9 10  1  0
 10 11  1  0
 11 12  2  0
 11 13  1  0
 13 14  1  0
 14 15  1  0
 15 16  2  0
 15 17  1  0
 17 18  2  0
 18 19  1  0
 19 20  2  0
 20 21  1  0
 21 22  2  0
 22 23  1  0
 23 24  2  0
 24 25  1  0
 25 26  2  0
  8  3  1  0
 26 17  1  0
 25 20  1  0
  1 27  1  0
  1 28  1  0
  1 29  1  0
  4 30  1  0
  5 31  1  0
  6 32  1  0
  7 33  1  0
  9 34  1  0
  9 35  1  0
 10 36  1  0
 13 37  1  0
 13 38  1  0
 14 39  1  0
 18 40  1  0
 19 41  1  0
 21 42  1  0
 22 43  1  0
 23 44  1  0
 24 45  1  0
M  END
>  <smiles>  (45) 
COc1ccccc1CNC(=O)CNC(=O)c1ccc2ccccc2n1

>  <score_type>  (45) 
oracle

>  <origin>  (45) 
autodockgpu

>  <m_score__min__energy>  (45) 
-8.3200000000000003

>  <m_primary>  (45) 
energy

>  <rmsd>  (45) 
3.9229046414660855

>  <m_score__min__rmsd>  (45) 
3.9229046414660855

>  <meeko>  (45) 
{"free_energy": -7.63, "intermolecular_energy": -9.42, "internal_energy": -2.48, "cluster_size": 40, "cluster_id": 2, "rank_in_cluster": 24}

>  <energy>  (45) 
-7.35

>  <cluster_rmsd>  (45) 
0.0

>  <cluster>  (45) 
3

$$$$

     RDKit          3D

 45 47  0  0  0  0  0  0  0  0999 V2000
  137.4530   75.8050  222.3610 C   0  0  0  0  0  0  0  0  0  0  0  0
  138.5500   76.4120  221.7650 O   0  0  0  0  0  0  0  0  0  0  0  0
  139.3550   77.4010  222.2760 C   0  0  0  0  0  0  0  0  0  0  0  0
  138.7230   78.3730  223.0570 C   0  0  0  0  0  0  0  0  0  0  0  0
  139.4560   79.4160  223.6290 C   0  0  0  0  0  0  0  0  0  0  0  0
  140.8040   79.4160  223.3750 C   0  0  0  0  0  0  0  0  0  0  0  0
  141.4230   78.4550  222.6040 C   0  0  0  0  0  0  0  0  0  0  0  0
  140.6960   77.4010  222.0220 C   0  0  0  0  0  0  0  0  0  0  0  0
  141.4490   76.4790  221.1850 C   0  0  0  0  0  0  0  0  0  0  0  0
  140.9240   75.1900  220.9260 N   0  0  0  0  0  0  0  0  0  0  0  0
  141.5140   74.0290  220.4280 C   0  0  0  0  0  0  0  0  0  0  0  0
  142.7360   74.0060  220.1300 O   0  0  0  0  0  0  0  0  0  0  0  0
  140.7930   72.7390  220.2060 C   0  0  0  0  0  0  0  0  0  0  0  0
  140.7330   71.8880  221.3650 N   0  0  0  0  0  0  0  0  0  0  0  0
  140.2400   72.4260  222.6100 C   0  0  0  0  0  0  0  0  0  0  0  0
  139.8510   73.6210  222.7120 O   0  0  0  0  0  0  0  0  0  0  0  0
  140.1900   71.5620  223.7830 C   0  0  0  0  0  0  0  0  0  0  0  0
  139.6440   70.2990  223.6860 C   0  0  0  0  0  0  0  0  0  0  0  0
  139.5570   69.4300  224.7300 C   0  0  0  0  0  0  0  0  0  0  0  0
  140.0340   69.8130  225.9490 C   0  0  0  0  0  0  0  0  0  0  0  0
  139.9560   68.9460  227.0180 C   0  0  0  0  0  0  0  0  0  0  0  0
  140.4570   69.3830  228.2490 C   0  0  0  0  0  0  0  0  0  0  0  0
  140.9990   70.6420  228.3370 C   0  0  0  0  0  0  0  0  0  0  0  0
  141.0790   71.5110  227.2710 C   0  0  0  0  0  0  0  0  0  0  0  0
  140.5850   71.0840  226.0520 C   0  0  0  0  0  0  0  0  0  0  0  0
  140.6550   71.9250  224.9920 N   0  0  0  0  0  0  0  0  0  0  0  0
  137.5528   75.8602  223.4551 H   0  0  0  0  0  0  0  0  0  0  0  0
  136.5336   76.3227  222.0501 H   0  0  0  0  0  0  0  0  0  0  0  0
  137.4033   74.7510  222.0501 H   0  0  0  0  0  0  0  0  0  0  0  0
  137.6371   78.3161  223.2230 H   0  0  0  0  0  0  0  0  0  0  0  0
  138.9799   80.1917  224.2468 H   0  0  0  0  0  0  0  0  0  0  0  0
  141.4193   80.2194  223.8061 H   0  0  0  0  0  0  0  0  0  0  0  0
  142.5092   78.5139  222.4405 H   0  0  0  0  0  0  0  0  0  0  0  0
  141.5875   76.9705  220.2107 H   0  0  0  0  0  0  0  0  0  0  0  0
  142.3567   76.2767  221.7725 H   0  0  0  0  0  0  0  0  0  0  0  0
  139.8700   75.0730  221.1750 H   0  0  0  0  0  0  0  0  0  0  0  0
  139.7637   72.9688  219.8935 H   0  0  0  0  0  0  0  0  0  0  0  0
  141.3592   72.1890  219.4398 H   0  0  0  0  0  0  0  0  0  0  0  0
  141.0280   70.8830  221.3780 H   0  0  0  0  0  0  0  0  0  0  0  0
  139.2566   69.9755  222.7086 H   0  0  0  0  0  0  0  0  0  0  0  0
  139.1092   68.4347  224.5927 H   0  0  0  0  0  0  0  0  0  0  0  0
  139.5148   67.9445  226.9069 H   0  0  0  0  0  0  0  0  0  0  0  0
  140.4175   68.7287  229.1324 H   0  0  0  0  0  0  0  0  0  0  0  0
  141.3899   70.9740  229.3102 H   0  0  0  0  0  0  0  0  0  0  0  0
  141.5213   72.5116  227.3857 H   0  0  0  0  0  0  0  0  0  0  0  0
  1  2  1  0
  2  3  1  0
  3  4  2  0
  4  5  1  0
  5  6  2  0
  6  7  1  0
  7  8  2  0
  8  9  1  0
  9 10  1  0
 10 11  1  0
 11 12  2  0
 11 13  1  0
 13 14  1  0
 14 15  1  0
 15 16  2  0
 15 17  1  0
 17 18  2  0
 18 19  1  0
 19 20  2  0
 20 21  1  0
 21 22  2  0
 22 23  1  0
 23 24  2  0
 24 25  1  0
 25 26  2  0
  8  3  1  0
 26 17  1  0
 25 20  1  0
  1 27  1  0
  1 28  1  0
  1 29  1  0
  4 30  1  0
  5 31  1  0
  6 32  1  0
  7 33  1  0
  9 34  1  0
  9 35  1  0
 10 36  1  0
 13 37  1  0
 13 38  1  0
 14 39  1  0
 18 40  1  0
 19 41  1  0
 21 42  1  0
 22 43  1  0
 23 44  1  0
 24 45  1  0
M  END
>  <smiles>  (46) 
COc1ccccc1CNC(=O)CNC(=O)c1ccc2ccccc2n1

>  <score_type>  (46) 
oracle

>  <origin>  (46) 
autodockgpu

>  <m_score__min__energy>  (46) 
-8.3200000000000003

>  <m_primary>  (46) 
energy

>  <rmsd>  (46) 
3.2017516318574843

>  <m_score__min__rmsd>  (46) 
3.2017516318574843

>  <meeko>  (46) 
{"free_energy": -7.3, "intermolecular_energy": -9.09, "internal_energy": -2.17, "cluster_size": 4, "cluster_id": 1, "rank_in_cluster": 2}

>  <energy>  (46) 
-7.24

>  <cluster_rmsd>  (46) 
0.0

>  <cluster>  (46) 
4

$$$$

     RDKit          3D

 45 47  0  0  0  0  0  0  0  0999 V2000
  142.6710   76.5120  219.5740 C   0  0  0  0  0  0  0  0  0  0  0  0
  142.5830   75.2550  220.1550 O   0  0  0  0  0  0  0  0  0  0  0  0
  143.5940   74.3550  220.3890 C   0  0  0  0  0  0  0  0  0  0  0  0
  144.8850   74.8830  220.4800 C   0  0  0  0  0  0  0  0  0  0  0  0
  145.9810   74.0500  220.7250 C   0  0  0  0  0  0  0  0  0  0  0  0
  145.7040   72.7150  220.8650 C   0  0  0  0  0  0  0  0  0  0  0  0
  144.4290   72.1990  220.7750 C   0  0  0  0  0  0  0  0  0  0  0  0
  143.3180   73.0250  220.5280 C   0  0  0  0  0  0  0  0  0  0  0  0
  142.0300   72.3590  220.4000 C   0  0  0  0  0  0  0  0  0  0  0  0
  140.8490   73.0620  220.7390 N   0  0  0  0  0  0  0  0  0  0  0  0
  139.7380   72.7000  221.5000 C   0  0  0  0  0  0  0  0  0  0  0  0
  139.6710   71.5660  222.0410 O   0  0  0  0  0  0  0  0  0  0  0  0
  138.5570   73.5810  221.7490 C   0  0  0  0  0  0  0  0  0  0  0  0
  138.8850   74.8650  222.3100 N   0  0  0  0  0  0  0  0  0  0  0  0
  139.5350   75.8510  221.4800 C   0  0  0  0  0  0  0  0  0  0  0  0
  139.8180   75.6240  220.2730 O   0  0  0  0  0  0  0  0  0  0  0  0
  139.8740   77.1470  222.0560 C   0  0  0  0  0  0  0  0  0  0  0  0
  138.8770   77.9630  222.5500 C   0  0  0  0  0  0  0  0  0  0  0  0
  139.1050   79.1860  223.1030 C   0  0  0  0  0  0  0  0  0  0  0  0
  140.3870   79.6460  223.1800 C   0  0  0  0  0  0  0  0  0  0  0  0
  140.6380   80.8830  223.7370 C   0  0  0  0  0  0  0  0  0  0  0  0
  141.9670   81.3130  223.7950 C   0  0  0  0  0  0  0  0  0  0  0  0
  142.9530   80.4950  223.3000 C   0  0  0  0  0  0  0  0  0  0  0  0
  142.7060   79.2590  222.7430 C   0  0  0  0  0  0  0  0  0  0  0  0
  141.3940   78.8290  222.6840 C   0  0  0  0  0  0  0  0  0  0  0  0
  141.1320   77.6160  222.1390 N   0  0  0  0  0  0  0  0  0  0  0  0
  142.7246   77.2773  220.3623 H   0  0  0  0  0  0  0  0  0  0  0  0
  143.5750   76.5648  218.9496 H   0  0  0  0  0  0  0  0  0  0  0  0
  141.7831   76.6903  218.9496 H   0  0  0  0  0  0  0  0  0  0  0  0
  145.0404   75.9651  220.3576 H   0  0  0  0  0  0  0  0  0  0  0  0
  147.0056   74.4431  220.8009 H   0  0  0  0  0  0  0  0  0  0  0  0
  146.5375   72.0236  221.0581 H   0  0  0  0  0  0  0  0  0  0  0  0
  144.2771   71.1166  220.8992 H   0  0  0  0  0  0  0  0  0  0  0  0
  141.9303   72.0529  219.3481 H   0  0  0  0  0  0  0  0  0  0  0  0
  142.0777   71.5544  221.1485 H   0  0  0  0  0  0  0  0  0  0  0  0
  140.8010   74.0780  220.3510 H   0  0  0  0  0  0  0  0  0  0  0  0
  138.0412   73.7449  220.7913 H   0  0  0  0  0  0  0  0  0  0  0  0
  137.9287   73.0644  222.4895 H   0  0  0  0  0  0  0  0  0  0  0  0
  138.6860   75.1490  223.2980 H   0  0  0  0  0  0  0  0  0  0  0  0
  137.8385   77.6048  222.4938 H   0  0  0  0  0  0  0  0  0  0  0  0
  138.2694   79.7931  223.4814 H   0  0  0  0  0  0  0  0  0  0  0  0
  139.8202   81.5097  224.1224 H   0  0  0  0  0  0  0  0  0  0  0  0
  142.2191   82.2913  224.2303 H   0  0  0  0  0  0  0  0  0  0  0  0
  143.9946   80.8449  223.3509 H   0  0  0  0  0  0  0  0  0  0  0  0
  143.5261   78.6352  222.3580 H   0  0  0  0  0  0  0  0  0  0  0  0
  1  2  1  0
  2  3  1  0
  3  4  2  0
  4  5  1  0
  5  6  2  0
  6  7  1  0
  7  8  2  0
  8  9  1  0
  9 10  1  0
 10 11  1  0
 11 12  2  0
 11 13  1  0
 13 14  1  0
 14 15  1  0
 15 16  2  0
 15 17  1  0
 17 18  2  0
 18 19  1  0
 19 20  2  0
 20 21  1  0
 21 22  2  0
 22 23  1  0
 23 24  2  0
 24 25  1  0
 25 26  2  0
  8  3  1  0
 26 17  1  0
 25 20  1  0
  1 27  1  0
  1 28  1  0
  1 29  1  0
  4 30  1  0
  5 31  1  0
  6 32  1  0
  7 33  1  0
  9 34  1  0
  9 35  1  0
 10 36  1  0
 13 37  1  0
 13 38  1  0
 14 39  1  0
 18 40  1  0
 19 41  1  0
 21 42  1  0
 22 43  1  0
 23 44  1  0
 24 45  1  0
M  END
>  <smiles>  (47) 
COc1ccccc1CNC(=O)CNC(=O)c1ccc2ccccc2n1

>  <score_type>  (47) 
oracle

>  <origin>  (47) 
autodockgpu

>  <m_score__min__energy>  (47) 
-8.3200000000000003

>  <m_primary>  (47) 
energy

>  <rmsd>  (47) 
7.605906948624913

>  <m_score__min__rmsd>  (47) 
7.605906948624913

>  <meeko>  (47) 
{"free_energy": -6.7, "intermolecular_energy": -8.49, "internal_energy": -2.56, "cluster_size": 1, "cluster_id": 5, "rank_in_cluster": 1}

>  <energy>  (47) 
-6.98

>  <cluster_rmsd>  (47) 
0.4

>  <cluster>  (47) 
4

$$$$

     RDKit          3D

 45 47  0  0  0  0  0  0  0  0999 V2000
  141.5900   75.3670  220.8350 C   0  0  0  0  0  0  0  0  0  0  0  0
  140.8430   75.6380  221.9720 O   0  0  0  0  0  0  0  0  0  0  0  0
  140.4360   76.8600  222.4500 C   0  0  0  0  0  0  0  0  0  0  0  0
  141.4390   77.6930  222.9530 C   0  0  0  0  0  0  0  0  0  0  0  0
  141.1280   78.9610  223.4540 C   0  0  0  0  0  0  0  0  0  0  0  0
  139.8040   79.3160  223.4170 C   0  0  0  0  0  0  0  0  0  0  0  0
  138.8190   78.4910  222.9200 C   0  0  0  0  0  0  0  0  0  0  0  0
  139.1170   77.2130  222.4140 C   0  0  0  0  0  0  0  0  0  0  0  0
  137.9880   76.4120  221.9660 C   0  0  0  0  0  0  0  0  0  0  0  0
  138.1850   75.0450  221.6550 N   0  0  0  0  0  0  0  0  0  0  0  0
  137.2970   73.9750  221.5590 C   0  0  0  0  0  0  0  0  0  0  0  0
  136.0660   74.1440  221.7550 O   0  0  0  0  0  0  0  0  0  0  0  0
  137.6890   72.5740  221.2230 C   0  0  0  0  0  0  0  0  0  0  0  0
  138.1220   71.7940  222.3520 N   0  0  0  0  0  0  0  0  0  0  0  0
  139.3380   72.1620  223.0380 C   0  0  0  0  0  0  0  0  0  0  0  0
  140.0300   73.1530  222.6810 O   0  0  0  0  0  0  0  0  0  0  0  0
  139.7770   71.3630  224.1750 C   0  0  0  0  0  0  0  0  0  0  0  0
  140.6860   71.8840  225.0750 C   0  0  0  0  0  0  0  0  0  0  0  0
  141.1480   71.2070  226.1610 C   0  0  0  0  0  0  0  0  0  0  0  0
  140.6990   69.9400  226.3900 C   0  0  0  0  0  0  0  0  0  0  0  0
  141.1550   69.2390  227.4850 C   0  0  0  0  0  0  0  0  0  0  0  0
  140.6670   67.9430  227.6790 C   0  0  0  0  0  0  0  0  0  0  0  0
  139.7640   67.4310  226.7790 C   0  0  0  0  0  0  0  0  0  0  0  0
  139.3050   68.1290  225.6840 C   0  0  0  0  0  0  0  0  0  0  0  0
  139.7850   69.4100  225.4880 C   0  0  0  0  0  0  0  0  0  0  0  0
  139.3450   70.1120  224.4150 N   0  0  0  0  0  0  0  0  0  0  0  0
  142.5865   75.0055  221.1286 H   0  0  0  0  0  0  0  0  0  0  0  0
  141.0816   74.5960  220.2374 H   0  0  0  0  0  0  0  0  0  0  0  0
  141.6942   76.2846  220.2374 H   0  0  0  0  0  0  0  0  0  0  0  0
  142.4834   77.3479  222.9549 H   0  0  0  0  0  0  0  0  0  0  0  0
  141.9003   79.6343  223.8543 H   0  0  0  0  0  0  0  0  0  0  0  0
  139.5151   80.3051  223.8019 H   0  0  0  0  0  0  0  0  0  0  0  0
  137.7757   78.8397  222.9189 H   0  0  0  0  0  0  0  0  0  0  0  0
  137.2300   76.4534  222.7620 H   0  0  0  0  0  0  0  0  0  0  0  0
  137.7188   76.8616  220.9989 H   0  0  0  0  0  0  0  0  0  0  0  0
  139.2180   74.7780  221.4310 H   0  0  0  0  0  0  0  0  0  0  0  0
  136.8210   72.0725  220.7702 H   0  0  0  0  0  0  0  0  0  0  0  0
  138.5477   72.6423  220.5390 H   0  0  0  0  0  0  0  0  0  0  0  0
  137.6140   70.9580  222.7270 H   0  0  0  0  0  0  0  0  0  0  0  0
  141.0578   72.9050  224.9039 H   0  0  0  0  0  0  0  0  0  0  0  0
  141.8726   71.6746  226.8438 H   0  0  0  0  0  0  0  0  0  0  0  0
  141.8789   69.6841  228.1835 H   0  0  0  0  0  0  0  0  0  0  0  0
  141.0008   67.3430  228.5384 H   0  0  0  0  0  0  0  0  0  0  0  0
  139.3879   66.4101  226.9415 H   0  0  0  0  0  0  0  0  0  0  0  0
  138.5800   67.6815  224.9882 H   0  0  0  0  0  0  0  0  0  0  0  0
  1  2  1  0
  2  3  1  0
  3  4  2  0
  4  5  1  0
  5  6  2  0
  6  7  1  0
  7  8  2  0
  8  9  1  0
  9 10  1  0
 10 11  1  0
 11 12  2  0
 11 13  1  0
 13 14  1  0
 14 15  1  0
 15 16  2  0
 15 17  1  0
 17 18  2  0
 18 19  1  0
 19 20  2  0
 20 21  1  0
 21 22  2  0
 22 23  1  0
 23 24  2  0
 24 25  1  0
 25 26  2  0
  8  3  1  0
 26 17  1  0
 25 20  1  0
  1 27  1  0
  1 28  1  0
  1 29  1  0
  4 30  1  0
  5 31  1  0
  6 32  1  0
  7 33  1  0
  9 34  1  0
  9 35  1  0
 10 36  1  0
 13 37  1  0
 13 38  1  0
 14 39  1  0
 18 40  1  0
 19 41  1  0
 21 42  1  0
 22 43  1  0
 23 44  1  0
 24 45  1  0
M  END
>  <smiles>  (48) 
COc1ccccc1CNC(=O)CNC(=O)c1ccc2ccccc2n1

>  <score_type>  (48) 
oracle

>  <origin>  (48) 
autodockgpu

>  <m_score__min__energy>  (48) 
-8.3200000000000003

>  <m_primary>  (48) 
energy

>  <rmsd>  (48) 
3.8202130551115223

>  <m_score__min__rmsd>  (48) 
3.8202130551115223

>  <meeko>  (48) 
{"free_energy": -7.08, "intermolecular_energy": -8.87, "internal_energy": -2.47, "cluster_size": 40, "cluster_id": 2, "rank_in_cluster": 40}

>  <energy>  (48) 
-6.7

>  <cluster_rmsd>  (48) 
0.0

>  <cluster>  (48) 
5

$$$$

     RDKit          3D

 45 47  0  0  0  0  0  0  0  0999 V2000
  141.4570   75.3530  221.0150 C   0  0  0  0  0  0  0  0  0  0  0  0
  140.7790   75.7140  222.1710 O   0  0  0  0  0  0  0  0  0  0  0  0
  140.3200   76.9580  222.5320 C   0  0  0  0  0  0  0  0  0  0  0  0
  141.2860   77.9560  222.6800 C   0  0  0  0  0  0  0  0  0  0  0  0
  140.9180   79.2570  223.0370 C   0  0  0  0  0  0  0  0  0  0  0  0
  139.5780   79.4740  223.2270 C   0  0  0  0  0  0  0  0  0  0  0  0
  138.6290   78.4860  223.0810 C   0  0  0  0  0  0  0  0  0  0  0  0
  138.9840   77.1730  222.7230 C   0  0  0  0  0  0  0  0  0  0  0  0
  137.9010   76.2040  222.6510 C   0  0  0  0  0  0  0  0  0  0  0  0
  138.1870   74.8700  222.2750 N   0  0  0  0  0  0  0  0  0  0  0  0
  137.5310   73.9830  221.4220 C   0  0  0  0  0  0  0  0  0  0  0  0
  136.4860   74.3310  220.8140 O   0  0  0  0  0  0  0  0  0  0  0  0
  137.9770   72.5850  221.1450 C   0  0  0  0  0  0  0  0  0  0  0  0
  138.3280   71.8320  222.3200 N   0  0  0  0  0  0  0  0  0  0  0  0
  139.5760   72.1110  222.9890 C   0  0  0  0  0  0  0  0  0  0  0  0
  140.3670   73.0030  222.5790 O   0  0  0  0  0  0  0  0  0  0  0  0
  139.9310   71.3390  224.1740 C   0  0  0  0  0  0  0  0  0  0  0  0
  140.7770   71.8800  225.1220 C   0  0  0  0  0  0  0  0  0  0  0  0
  141.1590   71.2290  226.2540 C   0  0  0  0  0  0  0  0  0  0  0  0
  140.6890   69.9690  226.4810 C   0  0  0  0  0  0  0  0  0  0  0  0
  141.0650   69.2940  227.6230 C   0  0  0  0  0  0  0  0  0  0  0  0
  140.5580   68.0040  227.8140 C   0  0  0  0  0  0  0  0  0  0  0  0
  139.7180   67.4730  226.8650 C   0  0  0  0  0  0  0  0  0  0  0  0
  139.3400   68.1450  225.7240 C   0  0  0  0  0  0  0  0  0  0  0  0
  139.8380   69.4200  225.5310 C   0  0  0  0  0  0  0  0  0  0  0  0
  139.4770   70.0960  224.4130 N   0  0  0  0  0  0  0  0  0  0  0  0
  142.3986   74.8517  221.2836 H   0  0  0  0  0  0  0  0  0  0  0  0
  140.8328   74.6678  220.4226 H   0  0  0  0  0  0  0  0  0  0  0  0
  141.6770   76.2534  220.4226 H   0  0  0  0  0  0  0  0  0  0  0  0
  142.3466   77.7162  222.5141 H   0  0  0  0  0  0  0  0  0  0  0  0
  141.6606   80.0594  223.1583 H   0  0  0  0  0  0  0  0  0  0  0  0
  139.2449   80.4837  223.5091 H   0  0  0  0  0  0  0  0  0  0  0  0
  137.5694   78.7296  223.2482 H   0  0  0  0  0  0  0  0  0  0  0  0
  137.4399   76.1639  223.6489 H   0  0  0  0  0  0  0  0  0  0  0  0
  137.2732   76.5768  221.8283 H   0  0  0  0  0  0  0  0  0  0  0  0
  139.0960   74.4610  222.7160 H   0  0  0  0  0  0  0  0  0  0  0  0
  137.1602   72.0585  220.6296 H   0  0  0  0  0  0  0  0  0  0  0  0
  138.8891   72.6602  220.5347 H   0  0  0  0  0  0  0  0  0  0  0  0
  137.7360   71.0770  222.7400 H   0  0  0  0  0  0  0  0  0  0  0  0
  141.1642   72.8955  224.9522 H   0  0  0  0  0  0  0  0  0  0  0  0
  141.8360   71.7112  226.9745 H   0  0  0  0  0  0  0  0  0  0  0  0
  141.7407   69.7541  228.3590 H   0  0  0  0  0  0  0  0  0  0  0  0
  140.8274   67.4244  228.7092 H   0  0  0  0  0  0  0  0  0  0  0  0
  139.3268   66.4575  227.0252 H   0  0  0  0  0  0  0  0  0  0  0  0
  138.6638   67.6823  224.9901 H   0  0  0  0  0  0  0  0  0  0  0  0
  1  2  1  0
  2  3  1  0
  3  4  2  0
  4  5  1  0
  5  6  2  0
  6  7  1  0
  7  8  2  0
  8  9  1  0
  9 10  1  0
 10 11  1  0
 11 12  2  0
 11 13  1  0
 13 14  1  0
 14 15  1  0
 15 16  2  0
 15 17  1  0
 17 18  2  0
 18 19  1  0
 19 20  2  0
 20 21  1  0
 21 22  2  0
 22 23  1  0
 23 24  2  0
 24 25  1  0
 25 26  2  0
  8  3  1  0
 26 17  1  0
 25 20  1  0
  1 27  1  0
  1 28  1  0
  1 29  1  0
  4 30  1  0
  5 31  1  0
  6 32  1  0
  7 33  1  0
  9 34  1  0
  9 35  1  0
 10 36  1  0
 13 37  1  0
 13 38  1  0
 14 39  1  0
 18 40  1  0
 19 41  1  0
 21 42  1  0
 22 43  1  0
 23 44  1  0
 24 45  1  0
M  END
>  <smiles>  (49) 
COc1ccccc1CNC(=O)CNC(=O)c1ccc2ccccc2n1

>  <score_type>  (49) 
oracle

>  <origin>  (49) 
autodockgpu

>  <m_score__min__energy>  (49) 
-8.3200000000000003

>  <m_primary>  (49) 
energy

>  <rmsd>  (49) 
3.921064742504068

>  <m_score__min__rmsd>  (49) 
3.921064742504068

>  <meeko>  (49) 
{"free_energy": -7.63, "intermolecular_energy": -9.42, "internal_energy": -2.48, "cluster_size": 40, "cluster_id": 2, "rank_in_cluster": 23}

>  <energy>  (49) 
-6.68

>  <cluster_rmsd>  (49) 
0.0

>  <cluster>  (49) 
6

$$$$

     RDKit          3D

 45 47  0  0  0  0  0  0  0  0999 V2000
  141.4610   75.5190  221.1050 C   0  0  0  0  0  0  0  0  0  0  0  0
  140.9080   75.9100  222.3160 O   0  0  0  0  0  0  0  0  0  0  0  0
  140.4560   77.1550  222.6800 C   0  0  0  0  0  0  0  0  0  0  0  0
  141.4340   78.1080  222.9760 C   0  0  0  0  0  0  0  0  0  0  0  0
  141.0750   79.4070  223.3480 C   0  0  0  0  0  0  0  0  0  0  0  0
  139.7300   79.6690  223.4000 C   0  0  0  0  0  0  0  0  0  0  0  0
  138.7690   78.7260  223.1080 C   0  0  0  0  0  0  0  0  0  0  0  0
  139.1160   77.4150  222.7330 C   0  0  0  0  0  0  0  0  0  0  0  0
  138.0150   76.4940  222.5010 C   0  0  0  0  0  0  0  0  0  0  0  0
  138.2930   75.1670  222.0910 N   0  0  0  0  0  0  0  0  0  0  0  0
  137.7510   74.3720  221.0830 C   0  0  0  0  0  0  0  0  0  0  0  0
  136.8470   74.8170  220.3300 O   0  0  0  0  0  0  0  0  0  0  0  0
  138.1670   72.9660  220.7950 C   0  0  0  0  0  0  0  0  0  0  0  0
  138.3500   72.1510  221.9670 N   0  0  0  0  0  0  0  0  0  0  0  0
  139.5660   72.2840  222.7340 C   0  0  0  0  0  0  0  0  0  0  0  0
  140.4710   73.1000  222.4130 O   0  0  0  0  0  0  0  0  0  0  0  0
  139.7500   71.4500  223.9150 C   0  0  0  0  0  0  0  0  0  0  0  0
  139.3250   70.1360  223.9050 C   0  0  0  0  0  0  0  0  0  0  0  0
  139.4570   69.2900  224.9620 C   0  0  0  0  0  0  0  0  0  0  0  0
  140.0420   69.7490  226.1060 C   0  0  0  0  0  0  0  0  0  0  0  0
  140.1850   68.9060  227.1880 C   0  0  0  0  0  0  0  0  0  0  0  0
  140.7900   69.4210  228.3390 C   0  0  0  0  0  0  0  0  0  0  0  0
  141.2100   70.7290  228.3410 C   0  0  0  0  0  0  0  0  0  0  0  0
  141.0700   71.5740  227.2620 C   0  0  0  0  0  0  0  0  0  0  0  0
  140.4720   71.0690  226.1220 C   0  0  0  0  0  0  0  0  0  0  0  0
  140.3240   71.8860  225.0510 N   0  0  0  0  0  0  0  0  0  0  0  0
  142.3462   74.8931  221.2912 H   0  0  0  0  0  0  0  0  0  0  0  0
  140.7191   74.9436  220.5319 H   0  0  0  0  0  0  0  0  0  0  0  0
  141.7561   76.4103  220.5319 H   0  0  0  0  0  0  0  0  0  0  0  0
  142.4975   77.8334  222.9157 H   0  0  0  0  0  0  0  0  0  0  0  0
  141.8272   80.1738  223.5851 H   0  0  0  0  0  0  0  0  0  0  0  0
  139.4032   80.6790  223.6882 H   0  0  0  0  0  0  0  0  0  0  0  0
  137.7065   79.0042  223.1694 H   0  0  0  0  0  0  0  0  0  0  0  0
  137.4498   76.4268  223.4423 H   0  0  0  0  0  0  0  0  0  0  0  0
  137.4914   76.9282  221.6366 H   0  0  0  0  0  0  0  0  0  0  0  0
  139.0890   74.6800  222.6530 H   0  0  0  0  0  0  0  0  0  0  0  0
  137.3930   72.4992  220.1681 H   0  0  0  0  0  0  0  0  0  0  0  0
  139.1451   73.0229  220.2948 H   0  0  0  0  0  0  0  0  0  0  0  0
  137.6550   71.4500  222.3160 H   0  0  0  0  0  0  0  0  0  0  0  0
  138.8524   69.7512  222.9893 H   0  0  0  0  0  0  0  0  0  0  0  0
  139.0978   68.2524  224.8955 H   0  0  0  0  0  0  0  0  0  0  0  0
  139.8351   67.8639  227.1472 H   0  0  0  0  0  0  0  0  0  0  0  0
  140.9273   68.7887  229.2286 H   0  0  0  0  0  0  0  0  0  0  0  0
  141.6833   71.1226  229.2527 H   0  0  0  0  0  0  0  0  0  0  0  0
  141.4220   72.6152  227.3058 H   0  0  0  0  0  0  0  0  0  0  0  0
  1  2  1  0
  2  3  1  0
  3  4  2  0
  4  5  1  0
  5  6  2  0
  6  7  1  0
  7  8  2  0
  8  9  1  0
  9 10  1  0
 10 11  1  0
 11 12  2  0
 11 13  1  0
 13 14  1  0
 14 15  1  0
 15 16  2  0
 15 17  1  0
 17 18  2  0
 18 19  1  0
 19 20  2  0
 20 21  1  0
 21 22  2  0
 22 23  1  0
 23 24  2  0
 24 25  1  0
 25 26  2  0
  8  3  1  0
 26 17  1  0
 25 20  1  0
  1 27  1  0
  1 28  1  0
  1 29  1  0
  4 30  1  0
  5 31  1  0
  6 32  1  0
  7 33  1  0
  9 34  1  0
  9 35  1  0
 10 36  1  0
 13 37  1  0
 13 38  1  0
 14 39  1  0
 18 40  1  0
 19 41  1  0
 21 42  1  0
 22 43  1  0
 23 44  1  0
 24 45  1  0
M  END
>  <smiles>  (50) 
COc1ccccc1CNC(=O)CNC(=O)c1ccc2ccccc2n1

>  <score_type>  (50) 
oracle

>  <origin>  (50) 
autodockgpu

>  <m_score__min__energy>  (50) 
-8.3200000000000003

>  <m_primary>  (50) 
energy

>  <rmsd>  (50) 
3.2262293809196603

>  <m_score__min__rmsd>  (50) 
3.2262293809196603

>  <meeko>  (50) 
{"free_energy": -7.73, "intermolecular_energy": -9.52, "internal_energy": -2.19, "cluster_size": 40, "cluster_id": 2, "rank_in_cluster": 14}

>  <energy>  (50) 
-6.66

>  <cluster_rmsd>  (50) 
0.0

>  <cluster>  (50) 
7

$$$$
