
     RDKit          3D

 50 53  0  0  0  0  0  0  0  0999 V2000
  143.3220   77.4730  218.2140 N   0  0  0  0  0  0  0  0  0  0  0  0
  142.2210   76.5420  218.3350 C   0  0  2  0  0  0  0  0  0  0  0  0
  140.8790   77.2880  218.3330 C   0  0  0  0  0  0  0  0  0  0  0  0
  140.0120   76.1380  218.8990 C   0  0  0  0  0  0  0  0  0  0  0  0
  140.7830   75.5860  219.9950 N   0  0  0  0  0  0  0  0  0  0  0  0
  140.4110   74.8860  221.1530 C   0  0  0  0  0  0  0  0  0  0  0  0
  140.9340   75.2940  222.2710 O   0  0  0  0  0  0  0  0  0  0  0  0
  139.5060   73.7520  221.2910 C   0  0  0  0  0  0  0  0  0  0  0  0
  139.5430   72.9670  222.4680 N   0  0  0  0  0  0  0  0  0  0  0  0
  139.8790   71.5790  222.4530 C   0  0  0  0  0  0  0  0  0  0  0  0
  140.1730   70.9740  221.3650 O   0  0  0  0  0  0  0  0  0  0  0  0
  139.8870   70.8170  223.7220 C   0  0  0  0  0  0  0  0  0  0  0  0
  139.3720   69.5380  223.7430 C   0  0  0  0  0  0  0  0  0  0  0  0
  139.3650   68.7930  224.9230 C   0  0  0  0  0  0  0  0  0  0  0  0
  139.8930   69.3830  226.0650 C   0  0  0  0  0  0  0  0  0  0  0  0
  139.9270   68.7180  227.2800 C   0  0  0  0  0  0  0  0  0  0  0  0
  140.4620   69.3430  228.3950 C   0  0  0  0  0  0  0  0  0  0  0  0
  140.9750   70.6300  228.3480 C   0  0  0  0  0  0  0  0  0  0  0  0
  140.9350   71.2830  227.1340 C   0  0  0  0  0  0  0  0  0  0  0  0
  140.4050   70.6680  226.0200 C   0  0  0  0  0  0  0  0  0  0  0  0
  140.3900   71.3490  224.8570 N   0  0  0  0  0  0  0  0  0  0  0  0
  142.1700   75.9020  219.6710 C   0  0  1  0  0  0  0  0  0  0  0  0
  143.0850   74.7690  219.8610 C   0  0  0  0  0  0  0  0  0  0  0  0
  144.3260   74.9190  220.4640 C   0  0  0  0  0  0  0  0  0  0  0  0
  145.1680   73.8430  220.6330 C   0  0  0  0  0  0  0  0  0  0  0  0
  144.8270   72.5700  220.2160 C   0  0  0  0  0  0  0  0  0  0  0  0
  143.5940   72.4090  219.6140 C   0  0  0  0  0  0  0  0  0  0  0  0
  142.7570   73.4920  219.4490 C   0  0  0  0  0  0  0  0  0  0  0  0
  143.6240   77.8640  219.1360 H   0  0  0  0  0  0  0  0  0  0  0  0
  142.9560   78.2700  217.6210 H   0  0  0  0  0  0  0  0  0  0  0  0
  142.3707   75.8341  217.5065 H   0  0  0  0  0  0  0  0  0  0  0  0
  140.8882   78.1693  218.9912 H   0  0  0  0  0  0  0  0  0  0  0  0
  140.5581   77.7143  217.3711 H   0  0  0  0  0  0  0  0  0  0  0  0
  139.0478   76.5240  219.2614 H   0  0  0  0  0  0  0  0  0  0  0  0
  139.7829   75.3808  218.1347 H   0  0  0  0  0  0  0  0  0  0  0  0
  138.4832   74.1470  221.2025 H   0  0  0  0  0  0  0  0  0  0  0  0
  139.8433   73.0571  220.5078 H   0  0  0  0  0  0  0  0  0  0  0  0
  139.3250   73.3680  223.4280 H   0  0  0  0  0  0  0  0  0  0  0  0
  138.9626   69.1006  222.8204 H   0  0  0  0  0  0  0  0  0  0  0  0
  138.9551   67.7725  224.9483 H   0  0  0  0  0  0  0  0  0  0  0  0
  139.5298   67.6953  227.3594 H   0  0  0  0  0  0  0  0  0  0  0  0
  140.4803   68.7989  229.3508 H   0  0  0  0  0  0  0  0  0  0  0  0
  141.3969   71.1109  229.2428 H   0  0  0  0  0  0  0  0  0  0  0  0
  141.3305   72.3063  227.0537 H   0  0  0  0  0  0  0  0  0  0  0  0
  142.5562   76.6345  220.3951 H   0  0  0  0  0  0  0  0  0  0  0  0
  144.6418   75.9134  220.8124 H   0  0  0  0  0  0  0  0  0  0  0  0
  146.1438   74.0014  221.1155 H   0  0  0  0  0  0  0  0  0  0  0  0
  145.5099   71.7194  220.3578 H   0  0  0  0  0  0  0  0  0  0  0  0
  143.2793   71.4143  219.2655 H   0  0  0  0  0  0  0  0  0  0  0  0
  141.7817   73.3316  218.9664 H   0  0  0  0  0  0  0  0  0  0  0  0
  1  2  1  0
  2  3  1  0
  3  4  1  0
  4  5  1  0
  5  6  1  0
  6  7  2  0
  6  8  1  0
  8  9  1  0
  9 10  1  0
 10 11  2  0
 10 12  1  0
 12 13  2  0
 13 14  1  0
 14 15  2  0
 15 16  1  0
 16 17  2  0
 17 18  1  0
 18 19  2  0
 19 20  1  0
 20 21  2  0
  5 22  1  0
 22 23  1  0
 23 24  2  0
 24 25  1  0
 25 26  2  0
 26 27  1  0
 27 28  2  0
 22  2  1  0
 28 23  1  0
 21 12  1  0
 20 15  1  0
  1 29  1  0
  1 30  1  0
  2 31  1  6
  3 32  1  0
  3 33  1  0
  4 34  1  0
  4 35  1  0
  8 36  1  0
  8 37  1  0
  9 38  1  0
 13 39  1  0
 14 40  1  0
 16 41  1  0
 17 42  1  0
 18 43  1  0
 19 44  1  0
 22 45  1  1
 24 46  1  0
 25 47  1  0
 26 48  1  0
 27 49  1  0
 28 50  1  0
M  END
>  <smiles>  (1) 
N[C@@H]1CCN(C(=O)CNC(=O)c2ccc3ccccc3n2)[C@H]1c1ccccc1

>  <score_type>  (1) 
oracle

>  <origin>  (1) 
autodockgpu

>  <m_score__min__energy>  (1) 
-8.8699999999999992

>  <m_primary>  (1) 
energy

>  <rmsd>  (1) 
2.1959436521101323

>  <m_score__min__rmsd>  (1) 
2.1959436521101323

>  <meeko>  (1) 
{"free_energy": -8.14, "intermolecular_energy": -9.93, "internal_energy": -1.68, "cluster_size": 9, "cluster_id": 5, "rank_in_cluster": 8}

>  <energy>  (1) 
-8.87

>  <cluster_rmsd>  (1) 
0.0

>  <cluster>  (1) 
1

$$$$

     RDKit          3D

 50 53  0  0  0  0  0  0  0  0999 V2000
  145.8260   73.5210  219.0310 N   0  0  0  0  0  0  0  0  0  0  0  0
  144.8190   72.9570  219.9030 C   0  0  2  0  0  0  0  0  0  0  0  0
  144.8280   71.4240  219.8190 C   0  0  0  0  0  0  0  0  0  0  0  0
  143.4410   71.1830  220.4630 C   0  0  0  0  0  0  0  0  0  0  0  0
  142.5630   72.1550  219.8460 N   0  0  0  0  0  0  0  0  0  0  0  0
  141.1750   72.1760  219.6350 C   0  0  0  0  0  0  0  0  0  0  0  0
  140.7100   73.1580  218.9230 O   0  0  0  0  0  0  0  0  0  0  0  0
  140.1600   71.2390  220.1020 C   0  0  0  0  0  0  0  0  0  0  0  0
  140.2040   70.7690  221.4370 N   0  0  0  0  0  0  0  0  0  0  0  0
  140.2510   71.6520  222.5590 C   0  0  0  0  0  0  0  0  0  0  0  0
  140.2460   72.9230  222.4100 O   0  0  0  0  0  0  0  0  0  0  0  0
  140.3060   71.0900  223.9260 C   0  0  0  0  0  0  0  0  0  0  0  0
  140.7330   71.8890  224.9660 C   0  0  0  0  0  0  0  0  0  0  0  0
  140.7970   71.3900  226.2680 C   0  0  0  0  0  0  0  0  0  0  0  0
  140.4170   70.0690  226.4740 C   0  0  0  0  0  0  0  0  0  0  0  0
  140.4480   69.4900  227.7330 C   0  0  0  0  0  0  0  0  0  0  0  0
  140.0600   68.1700  227.8950 C   0  0  0  0  0  0  0  0  0  0  0  0
  139.6330   67.3870  226.8330 C   0  0  0  0  0  0  0  0  0  0  0  0
  139.6070   67.9730  225.5870 C   0  0  0  0  0  0  0  0  0  0  0  0
  139.9910   69.2870  225.4160 C   0  0  0  0  0  0  0  0  0  0  0  0
  139.9460   69.8130  224.1750 N   0  0  0  0  0  0  0  0  0  0  0  0
  143.4420   73.2440  219.4330 C   0  0  1  0  0  0  0  0  0  0  0  0
  142.9250   74.5740  219.7770 C   0  0  0  0  0  0  0  0  0  0  0  0
  143.2590   75.7050  219.0450 C   0  0  0  0  0  0  0  0  0  0  0  0
  142.7610   76.9430  219.3850 C   0  0  0  0  0  0  0  0  0  0  0  0
  141.9110   77.1240  220.4600 C   0  0  0  0  0  0  0  0  0  0  0  0
  141.5720   76.0060  221.1960 C   0  0  0  0  0  0  0  0  0  0  0  0
  142.0750   74.7700  220.8490 C   0  0  0  0  0  0  0  0  0  0  0  0
  146.5100   74.1250  219.5420 H   0  0  0  0  0  0  0  0  0  0  0  0
  145.2980   74.1290  218.3430 H   0  0  0  0  0  0  0  0  0  0  0  0
  145.0490   73.3785  220.8926 H   0  0  0  0  0  0  0  0  0  0  0  0
  144.8777   71.0610  218.7818 H   0  0  0  0  0  0  0  0  0  0  0  0
  145.6812   70.9132  220.2893 H   0  0  0  0  0  0  0  0  0  0  0  0
  143.0916   70.1608  220.2555 H   0  0  0  0  0  0  0  0  0  0  0  0
  143.4709   71.2915  221.5572 H   0  0  0  0  0  0  0  0  0  0  0  0
  139.1853   71.7310  219.9684 H   0  0  0  0  0  0  0  0  0  0  0  0
  140.3496   70.3351  219.5045 H   0  0  0  0  0  0  0  0  0  0  0  0
  140.2030   69.7350  221.6770 H   0  0  0  0  0  0  0  0  0  0  0  0
  141.0262   72.9304  224.7673 H   0  0  0  0  0  0  0  0  0  0  0  0
  141.1366   72.0208  227.1027 H   0  0  0  0  0  0  0  0  0  0  0  0
  140.7800   70.0774  228.6017 H   0  0  0  0  0  0  0  0  0  0  0  0
  140.0917   67.7273  228.9015 H   0  0  0  0  0  0  0  0  0  0  0  0
  139.3275   66.3405  226.9799 H   0  0  0  0  0  0  0  0  0  0  0  0
  139.2760   67.3862  224.7175 H   0  0  0  0  0  0  0  0  0  0  0  0
  143.4764   73.2884  218.3344 H   0  0  0  0  0  0  0  0  0  0  0  0
  143.9319   75.6109  218.1799 H   0  0  0  0  0  0  0  0  0  0  0  0
  143.0490   77.8164  218.7815 H   0  0  0  0  0  0  0  0  0  0  0  0
  141.5202   78.1191  220.7188 H   0  0  0  0  0  0  0  0  0  0  0  0
  140.8992   76.1016  222.0610 H   0  0  0  0  0  0  0  0  0  0  0  0
  141.7859   73.8982  221.4543 H   0  0  0  0  0  0  0  0  0  0  0  0
  1  2  1  0
  2  3  1  0
  3  4  1  0
  4  5  1  0
  5  6  1  0
  6  7  2  0
  6  8  1  0
  8  9  1  0
  9 10  1  0
 10 11  2  0
 10 12  1  0
 12 13  2  0
 13 14  1  0
 14 15  2  0
 15 16  1  0
 16 17  2  0
 17 18  1  0
 18 19  2  0
 19 20  1  0
 20 21  2  0
  5 22  1  0
 22 23  1  0
 23 24  2  0
 24 25  1  0
 25 26  2  0
 26 27  1  0
 27 28  2  0
 22  2  1  0
 28 23  1  0
 21 12  1  0
 20 15  1  0
  1 29  1  0
  1 30  1  0
  2 31  1  1
  3 32  1  0
  3 33  1  0
  4 34  1  0
  4 35  1  0
  8 36  1  0
  8 37  1  0
  9 38  1  0
 13 39  1  0
 14 40  1  0
 16 41  1  0
 17 42  1  0
 18 43  1  0
 19 44  1  0
 22 45  1  6
 24 46  1  0
 25 47  1  0
 26 48  1  0
 27 49  1  0
 28 50  1  0
M  END
>  <smiles>  (2) 
N[C@@H]1CCN(C(=O)CNC(=O)c2ccc3ccccc3n2)[C@H]1c1ccccc1

>  <score_type>  (2) 
oracle

>  <origin>  (2) 
autodockgpu

>  <m_score__min__energy>  (2) 
-8.8699999999999992

>  <m_primary>  (2) 
energy

>  <rmsd>  (2) 
4.140043294510933

>  <m_score__min__rmsd>  (2) 
4.140043294510933

>  <meeko>  (2) 
{"free_energy": -8.19, "intermolecular_energy": -9.98, "internal_energy": -1.68, "cluster_size": 11, "cluster_id": 2, "rank_in_cluster": 7}

>  <energy>  (2) 
-8.87

>  <cluster_rmsd>  (2) 
0.19

>  <cluster>  (2) 
1

$$$$

     RDKit          3D

 50 53  0  0  0  0  0  0  0  0999 V2000
  146.2410   73.4240  219.0230 N   0  0  0  0  0  0  0  0  0  0  0  0
  145.0030   73.3030  219.7610 C   0  0  2  0  0  0  0  0  0  0  0  0
  144.7460   71.8390  220.1480 C   0  0  0  0  0  0  0  0  0  0  0  0
  143.2430   71.9850  220.4880 C   0  0  0  0  0  0  0  0  0  0  0  0
  142.6890   72.7890  219.4180 N   0  0  0  0  0  0  0  0  0  0  0  0
  141.3920   72.8950  218.8900 C   0  0  0  0  0  0  0  0  0  0  0  0
  141.2460   72.5650  217.6420 O   0  0  0  0  0  0  0  0  0  0  0  0
  140.1650   73.3240  219.5470 C   0  0  0  0  0  0  0  0  0  0  0  0
  140.0850   74.6260  220.0980 N   0  0  0  0  0  0  0  0  0  0  0  0
  140.1610   74.8680  221.5040 C   0  0  0  0  0  0  0  0  0  0  0  0
  140.3160   73.9120  222.3400 O   0  0  0  0  0  0  0  0  0  0  0  0
  140.0600   76.2540  222.0110 C   0  0  0  0  0  0  0  0  0  0  0  0
  138.8190   76.7680  222.3250 C   0  0  0  0  0  0  0  0  0  0  0  0
  138.6880   78.0720  222.8050 C   0  0  0  0  0  0  0  0  0  0  0  0
  139.8470   78.8260  222.9540 C   0  0  0  0  0  0  0  0  0  0  0  0
  139.8120   80.1290  223.4240 C   0  0  0  0  0  0  0  0  0  0  0  0
  140.9900   80.8460  223.5590 C   0  0  0  0  0  0  0  0  0  0  0  0
  142.2260   80.3070  223.2370 C   0  0  0  0  0  0  0  0  0  0  0  0
  142.2480   79.0100  222.7700 C   0  0  0  0  0  0  0  0  0  0  0  0
  141.0810   78.2890  222.6340 C   0  0  0  0  0  0  0  0  0  0  0  0
  141.1570   77.0250  222.1730 N   0  0  0  0  0  0  0  0  0  0  0  0
  143.8150   73.5690  218.9160 C   0  0  1  0  0  0  0  0  0  0  0  0
  143.4960   74.9880  218.7100 C   0  0  0  0  0  0  0  0  0  0  0  0
  143.5740   75.5860  217.4600 C   0  0  0  0  0  0  0  0  0  0  0  0
  143.2690   76.9180  217.2900 C   0  0  0  0  0  0  0  0  0  0  0  0
  142.8730   77.7220  218.3420 C   0  0  0  0  0  0  0  0  0  0  0  0
  142.7920   77.1380  219.5910 C   0  0  0  0  0  0  0  0  0  0  0  0
  143.0990   75.8030  219.7530 C   0  0  0  0  0  0  0  0  0  0  0  0
  146.9020   74.1120  219.4530 H   0  0  0  0  0  0  0  0  0  0  0  0
  145.9680   73.7830  218.0660 H   0  0  0  0  0  0  0  0  0  0  0  0
  145.1177   74.0031  220.6016 H   0  0  0  0  0  0  0  0  0  0  0  0
  144.9213   71.1470  219.3111 H   0  0  0  0  0  0  0  0  0  0  0  0
  145.3878   71.4222  220.9381 H   0  0  0  0  0  0  0  0  0  0  0  0
  142.7572   70.9987  220.5209 H   0  0  0  0  0  0  0  0  0  0  0  0
  143.0871   72.4478  221.4737 H   0  0  0  0  0  0  0  0  0  0  0  0
  139.3588   73.2418  218.8032 H   0  0  0  0  0  0  0  0  0  0  0  0
  140.1017   72.6677  220.4275 H   0  0  0  0  0  0  0  0  0  0  0  0
  139.9660   75.4930  219.4970 H   0  0  0  0  0  0  0  0  0  0  0  0
  137.9229   76.1433  222.1957 H   0  0  0  0  0  0  0  0  0  0  0  0
  137.7018   78.4891  223.0568 H   0  0  0  0  0  0  0  0  0  0  0  0
  138.8508   80.5934  223.6895 H   0  0  0  0  0  0  0  0  0  0  0  0
  140.9428   81.8788  223.9347 H   0  0  0  0  0  0  0  0  0  0  0  0
  143.1517   80.8905  223.3495 H   0  0  0  0  0  0  0  0  0  0  0  0
  143.2083   78.5449  222.5027 H   0  0  0  0  0  0  0  0  0  0  0  0
  144.0617   73.2373  217.8966 H   0  0  0  0  0  0  0  0  0  0  0  0
  143.8843   74.9865  216.5915 H   0  0  0  0  0  0  0  0  0  0  0  0
  143.3430   77.3565  216.2839 H   0  0  0  0  0  0  0  0  0  0  0  0
  142.6320   78.7845  218.1906 H   0  0  0  0  0  0  0  0  0  0  0  0
  142.4820   77.7389  220.4586 H   0  0  0  0  0  0  0  0  0  0  0  0
  143.0243   75.3665  220.7599 H   0  0  0  0  0  0  0  0  0  0  0  0
  1  2  1  0
  2  3  1  0
  3  4  1  0
  4  5  1  0
  5  6  1  0
  6  7  2  0
  6  8  1  0
  8  9  1  0
  9 10  1  0
 10 11  2  0
 10 12  1  0
 12 13  2  0
 13 14  1  0
 14 15  2  0
 15 16  1  0
 16 17  2  0
 17 18  1  0
 18 19  2  0
 19 20  1  0
 20 21  2  0
  5 22  1  0
 22 23  1  0
 23 24  2  0
 24 25  1  0
 25 26  2  0
 26 27  1  0
 27 28  2  0
 22  2  1  0
 28 23  1  0
 21 12  1  0
 20 15  1  0
  1 29  1  0
  1 30  1  0
  2 31  1  1
  3 32  1  0
  3 33  1  0
  4 34  1  0
  4 35  1  0
  8 36  1  0
  8 37  1  0
  9 38  1  0
 13 39  1  0
 14 40  1  0
 16 41  1  0
 17 42  1  0
 18 43  1  0
 19 44  1  0
 22 45  1  6
 24 46  1  0
 25 47  1  0
 26 48  1  0
 27 49  1  0
 28 50  1  0
M  END
>  <smiles>  (3) 
N[C@@H]1CCN(C(=O)CNC(=O)c2ccc3ccccc3n2)[C@H]1c1ccccc1

>  <score_type>  (3) 
oracle

>  <origin>  (3) 
autodockgpu

>  <m_score__min__energy>  (3) 
-8.8699999999999992

>  <m_primary>  (3) 
energy

>  <rmsd>  (3) 
7.1243940503613965

>  <m_score__min__rmsd>  (3) 
7.1243940503613965

>  <meeko>  (3) 
{"free_energy": -7.76, "intermolecular_energy": -9.55, "internal_energy": -2.16, "cluster_size": 13, "cluster_id": 7, "rank_in_cluster": 8}

>  <energy>  (3) 
-8.86

>  <cluster_rmsd>  (3) 
0.06

>  <cluster>  (3) 
1

$$$$

     RDKit          3D

 50 53  0  0  0  0  0  0  0  0999 V2000
  141.7100   79.4530  218.4270 N   0  0  0  0  0  0  0  0  0  0  0  0
  142.2060   78.3600  219.2350 C   0  0  2  0  0  0  0  0  0  0  0  0
  142.3430   77.0840  218.3920 C   0  0  0  0  0  0  0  0  0  0  0  0
  142.4410   76.0810  219.5670 C   0  0  0  0  0  0  0  0  0  0  0  0
  141.4110   76.4880  220.5000 N   0  0  0  0  0  0  0  0  0  0  0  0
  140.6900   75.7850  221.4780 C   0  0  0  0  0  0  0  0  0  0  0  0
  140.9050   76.1250  222.7140 O   0  0  0  0  0  0  0  0  0  0  0  0
  139.7170   74.7130  221.3100 C   0  0  0  0  0  0  0  0  0  0  0  0
  139.5570   73.7480  222.3330 N   0  0  0  0  0  0  0  0  0  0  0  0
  140.4520   72.6470  222.4940 C   0  0  0  0  0  0  0  0  0  0  0  0
  141.4580   72.4840  221.7200 O   0  0  0  0  0  0  0  0  0  0  0  0
  140.2170   71.6690  223.5800 C   0  0  0  0  0  0  0  0  0  0  0  0
  139.5210   70.5110  223.3030 C   0  0  0  0  0  0  0  0  0  0  0  0
  139.2820   69.5680  224.3040 C   0  0  0  0  0  0  0  0  0  0  0  0
  139.7680   69.8390  225.5780 C   0  0  0  0  0  0  0  0  0  0  0  0
  139.5770   68.9610  226.6330 C   0  0  0  0  0  0  0  0  0  0  0  0
  140.0770   69.2680  227.8870 C   0  0  0  0  0  0  0  0  0  0  0  0
  140.7740   70.4400  228.1400 C   0  0  0  0  0  0  0  0  0  0  0  0
  140.9570   71.3070  227.0840 C   0  0  0  0  0  0  0  0  0  0  0  0
  140.4630   71.0080  225.8320 C   0  0  0  0  0  0  0  0  0  0  0  0
  140.6690   71.8890  224.8330 N   0  0  0  0  0  0  0  0  0  0  0  0
  141.2160   77.9110  220.2420 C   0  0  1  0  0  0  0  0  0  0  0  0
  141.1510   78.7210  221.4650 C   0  0  0  0  0  0  0  0  0  0  0  0
  142.2920   79.2120  222.0840 C   0  0  0  0  0  0  0  0  0  0  0  0
  142.2080   79.9710  223.2300 C   0  0  0  0  0  0  0  0  0  0  0  0
  140.9970   80.2800  223.8200 C   0  0  0  0  0  0  0  0  0  0  0  0
  139.8540   79.7960  223.2130 C   0  0  0  0  0  0  0  0  0  0  0  0
  139.9470   79.0370  222.0650 C   0  0  0  0  0  0  0  0  0  0  0  0
  140.8560   79.1960  217.8800 H   0  0  0  0  0  0  0  0  0  0  0  0
  142.4860   79.6740  217.7420 H   0  0  0  0  0  0  0  0  0  0  0  0
  143.1409   78.7441  219.6690 H   0  0  0  0  0  0  0  0  0  0  0  0
  141.4621   76.9032  217.7584 H   0  0  0  0  0  0  0  0  0  0  0  0
  143.1664   77.0654  217.6628 H   0  0  0  0  0  0  0  0  0  0  0  0
  142.2588   75.0550  219.2147 H   0  0  0  0  0  0  0  0  0  0  0  0
  143.4393   76.0850  220.0290 H   0  0  0  0  0  0  0  0  0  0  0  0
  138.7368   75.1909  221.1653 H   0  0  0  0  0  0  0  0  0  0  0  0
  140.1183   74.1308  220.4674 H   0  0  0  0  0  0  0  0  0  0  0  0
  138.7620   73.7900  223.0360 H   0  0  0  0  0  0  0  0  0  0  0  0
  139.1506   70.3288  222.2834 H   0  0  0  0  0  0  0  0  0  0  0  0
  138.7278   68.6417  224.0920 H   0  0  0  0  0  0  0  0  0  0  0  0
  139.0285   68.0208  226.4742 H   0  0  0  0  0  0  0  0  0  0  0  0
  139.9158   68.5577  228.7113 H   0  0  0  0  0  0  0  0  0  0  0  0
  141.1649   70.6684  229.1425 H   0  0  0  0  0  0  0  0  0  0  0  0
  141.5036   72.2484  227.2421 H   0  0  0  0  0  0  0  0  0  0  0  0
  140.2182   78.0697  219.8071 H   0  0  0  0  0  0  0  0  0  0  0  0
  143.2794   78.9913  221.6523 H   0  0  0  0  0  0  0  0  0  0  0  0
  143.1348   80.3434  223.6907 H   0  0  0  0  0  0  0  0  0  0  0  0
  140.9452   80.8868  224.7360 H   0  0  0  0  0  0  0  0  0  0  0  0
  138.8673   80.0165  223.6464 H   0  0  0  0  0  0  0  0  0  0  0  0
  139.0191   78.6658  221.6055 H   0  0  0  0  0  0  0  0  0  0  0  0
  1  2  1  0
  2  3  1  0
  3  4  1  0
  4  5  1  0
  5  6  1  0
  6  7  2  0
  6  8  1  0
  8  9  1  0
  9 10  1  0
 10 11  2  0
 10 12  1  0
 12 13  2  0
 13 14  1  0
 14 15  2  0
 15 16  1  0
 16 17  2  0
 17 18  1  0
 18 19  2  0
 19 20  1  0
 20 21  2  0
  5 22  1  0
 22 23  1  0
 23 24  2  0
 24 25  1  0
 25 26  2  0
 26 27  1  0
 27 28  2  0
 22  2  1  0
 28 23  1  0
 21 12  1  0
 20 15  1  0
  1 29  1  0
  1 30  1  0
  2 31  1  1
  3 32  1  0
  3 33  1  0
  4 34  1  0
  4 35  1  0
  8 36  1  0
  8 37  1  0
  9 38  1  0
 13 39  1  0
 14 40  1  0
 16 41  1  0
 17 42  1  0
 18 43  1  0
 19 44  1  0
 22 45  1  6
 24 46  1  0
 25 47  1  0
 26 48  1  0
 27 49  1  0
 28 50  1  0
M  END
>  <smiles>  (4) 
N[C@@H]1CCN(C(=O)CNC(=O)c2ccc3ccccc3n2)[C@H]1c1ccccc1

>  <score_type>  (4) 
oracle

>  <origin>  (4) 
autodockgpu

>  <m_score__min__energy>  (4) 
-8.8699999999999992

>  <m_primary>  (4) 
energy

>  <rmsd>  (4) 
2.847911833380478

>  <m_score__min__rmsd>  (4) 
2.847911833380478

>  <meeko>  (4) 
{"free_energy": -8.56, "intermolecular_energy": -10.35, "internal_energy": -1.3, "cluster_size": 3, "cluster_id": 4, "rank_in_cluster": 2}

>  <energy>  (4) 
-8.8

>  <cluster_rmsd>  (4) 
0.15

>  <cluster>  (4) 
1

$$$$

     RDKit          3D

 50 53  0  0  0  0  0  0  0  0999 V2000
  142.6970   79.1550  222.6670 N   0  0  0  0  0  0  0  0  0  0  0  0
  141.4070   78.8310  222.0990 C   0  0  2  0  0  0  0  0  0  0  0  0
  140.3720   78.5930  223.2080 C   0  0  0  0  0  0  0  0  0  0  0  0
  139.3130   77.8740  222.3390 C   0  0  0  0  0  0  0  0  0  0  0  0
  140.0610   76.9330  221.5300 N   0  0  0  0  0  0  0  0  0  0  0  0
  139.7040   75.7220  220.9150 C   0  0  0  0  0  0  0  0  0  0  0  0
  138.6840   75.7590  220.1100 O   0  0  0  0  0  0  0  0  0  0  0  0
  140.3220   74.4090  221.0430 C   0  0  0  0  0  0  0  0  0  0  0  0
  140.1180   73.6530  222.2230 N   0  0  0  0  0  0  0  0  0  0  0  0
  140.5450   72.2960  222.3460 C   0  0  0  0  0  0  0  0  0  0  0  0
  141.1470   71.6940  221.3910 O   0  0  0  0  0  0  0  0  0  0  0  0
  140.2890   71.5630  223.6060 C   0  0  0  0  0  0  0  0  0  0  0  0
  139.5170   70.4200  223.5750 C   0  0  0  0  0  0  0  0  0  0  0  0
  139.2560   69.7060  224.7460 C   0  0  0  0  0  0  0  0  0  0  0  0
  139.8000   70.1850  225.9320 C   0  0  0  0  0  0  0  0  0  0  0  0
  139.5930   69.5410  227.1410 C   0  0  0  0  0  0  0  0  0  0  0  0
  140.1530   70.0520  228.3000 C   0  0  0  0  0  0  0  0  0  0  0  0
  140.9260   71.2030  228.3050 C   0  0  0  0  0  0  0  0  0  0  0  0
  141.1250   71.8360  227.0970 C   0  0  0  0  0  0  0  0  0  0  0  0
  140.5720   71.3340  225.9380 C   0  0  0  0  0  0  0  0  0  0  0  0
  140.7960   71.9910  224.7820 N   0  0  0  0  0  0  0  0  0  0  0  0
  141.4000   77.5050  221.4370 C   0  0  1  0  0  0  0  0  0  0  0  0
  141.9510   77.4780  220.0760 C   0  0  0  0  0  0  0  0  0  0  0  0
  141.6810   78.4790  219.1530 C   0  0  0  0  0  0  0  0  0  0  0  0
  142.2090   78.4340  217.8820 C   0  0  0  0  0  0  0  0  0  0  0  0
  143.0270   77.4020  217.4620 C   0  0  0  0  0  0  0  0  0  0  0  0
  143.3020   76.4000  218.3710 C   0  0  0  0  0  0  0  0  0  0  0  0
  142.7700   76.4520  219.6420 C   0  0  0  0  0  0  0  0  0  0  0  0
  143.3910   79.4600  221.9460 H   0  0  0  0  0  0  0  0  0  0  0  0
  143.0490   78.2580  223.1040 H   0  0  0  0  0  0  0  0  0  0  0  0
  141.1906   79.6693  221.4205 H   0  0  0  0  0  0  0  0  0  0  0  0
  140.7598   77.9514  224.0129 H   0  0  0  0  0  0  0  0  0  0  0  0
  140.0312   79.4826  223.7580 H   0  0  0  0  0  0  0  0  0  0  0  0
  138.5873   77.3450  222.9742 H   0  0  0  0  0  0  0  0  0  0  0  0
  138.7385   78.5808  221.7222 H   0  0  0  0  0  0  0  0  0  0  0  0
  139.9536   73.7992  220.2049 H   0  0  0  0  0  0  0  0  0  0  0  0
  141.3990   74.6319  221.0627 H   0  0  0  0  0  0  0  0  0  0  0  0
  139.6380   74.0550  223.0810 H   0  0  0  0  0  0  0  0  0  0  0  0
  139.1032   70.0679  222.6186 H   0  0  0  0  0  0  0  0  0  0  0  0
  138.6403   68.7946  224.7306 H   0  0  0  0  0  0  0  0  0  0  0  0
  138.9848   68.6253  227.1803 H   0  0  0  0  0  0  0  0  0  0  0  0
  139.9783   69.5261  229.2502 H   0  0  0  0  0  0  0  0  0  0  0  0
  141.3627   71.5951  229.2353 H   0  0  0  0  0  0  0  0  0  0  0  0
  141.7321   72.7524  227.0571 H   0  0  0  0  0  0  0  0  0  0  0  0
  142.1086   76.8670  221.9855 H   0  0  0  0  0  0  0  0  0  0  0  0
  141.0351   79.3214  219.4414 H   0  0  0  0  0  0  0  0  0  0  0  0
  141.9721   79.2455  217.1782 H   0  0  0  0  0  0  0  0  0  0  0  0
  143.4424   77.3800  216.4437 H   0  0  0  0  0  0  0  0  0  0  0  0
  143.9473   75.5579  218.0805 H   0  0  0  0  0  0  0  0  0  0  0  0
  143.0083   75.6391  220.3437 H   0  0  0  0  0  0  0  0  0  0  0  0
  1  2  1  0
  2  3  1  0
  3  4  1  0
  4  5  1  0
  5  6  1  0
  6  7  2  0
  6  8  1  0
  8  9  1  0
  9 10  1  0
 10 11  2  0
 10 12  1  0
 12 13  2  0
 13 14  1  0
 14 15  2  0
 15 16  1  0
 16 17  2  0
 17 18  1  0
 18 19  2  0
 19 20  1  0
 20 21  2  0
  5 22  1  0
 22 23  1  0
 23 24  2  0
 24 25  1  0
 25 26  2  0
 26 27  1  0
 27 28  2  0
 22  2  1  0
 28 23  1  0
 21 12  1  0
 20 15  1  0
  1 29  1  0
  1 30  1  0
  2 31  1  6
  3 32  1  0
  3 33  1  0
  4 34  1  0
  4 35  1  0
  8 36  1  0
  8 37  1  0
  9 38  1  0
 13 39  1  0
 14 40  1  0
 16 41  1  0
 17 42  1  0
 18 43  1  0
 19 44  1  0
 22 45  1  1
 24 46  1  0
 25 47  1  0
 26 48  1  0
 27 49  1  0
 28 50  1  0
M  END
>  <smiles>  (5) 
N[C@@H]1CCN(C(=O)CNC(=O)c2ccc3ccccc3n2)[C@H]1c1ccccc1

>  <score_type>  (5) 
oracle

>  <origin>  (5) 
autodockgpu

>  <m_score__min__energy>  (5) 
-8.8699999999999992

>  <m_primary>  (5) 
energy

>  <rmsd>  (5) 
2.4275284864740585

>  <m_score__min__rmsd>  (5) 
2.4275284864740585

>  <meeko>  (5) 
{"free_energy": -8.58, "intermolecular_energy": -10.37, "internal_energy": -1.33, "cluster_size": 9, "cluster_id": 1, "rank_in_cluster": 8}

>  <energy>  (5) 
-8.79

>  <cluster_rmsd>  (5) 
0.27

>  <cluster>  (5) 
1

$$$$

     RDKit          3D

 50 53  0  0  0  0  0  0  0  0999 V2000
  145.7530   74.4760  220.4540 N   0  0  0  0  0  0  0  0  0  0  0  0
  144.6010   73.7340  220.9170 C   0  0  2  0  0  0  0  0  0  0  0  0
  144.7940   72.2300  220.6770 C   0  0  0  0  0  0  0  0  0  0  0  0
  143.3140   71.8110  220.8440 C   0  0  0  0  0  0  0  0  0  0  0  0
  142.5560   72.7950  220.0990 N   0  0  0  0  0  0  0  0  0  0  0  0
  141.2940   72.7490  219.4830 C   0  0  0  0  0  0  0  0  0  0  0  0
  141.1380   73.4860  218.4240 O   0  0  0  0  0  0  0  0  0  0  0  0
  140.1160   71.9790  219.8590 C   0  0  0  0  0  0  0  0  0  0  0  0
  140.0700   71.3440  221.1230 N   0  0  0  0  0  0  0  0  0  0  0  0
  139.9330   72.0750  222.3430 C   0  0  0  0  0  0  0  0  0  0  0  0
  139.8360   73.3500  222.3510 O   0  0  0  0  0  0  0  0  0  0  0  0
  139.9030   71.3460  223.6300 C   0  0  0  0  0  0  0  0  0  0  0  0
  139.2720   70.1210  223.6960 C   0  0  0  0  0  0  0  0  0  0  0  0
  139.2250   69.4070  224.8940 C   0  0  0  0  0  0  0  0  0  0  0  0
  139.8350   69.9720  226.0080 C   0  0  0  0  0  0  0  0  0  0  0  0
  139.8370   69.3350  227.2390 C   0  0  0  0  0  0  0  0  0  0  0  0
  140.4560   69.9320  228.3240 C   0  0  0  0  0  0  0  0  0  0  0  0
  141.0850   71.1650  228.2330 C   0  0  0  0  0  0  0  0  0  0  0  0
  141.0760   71.7900  227.0050 C   0  0  0  0  0  0  0  0  0  0  0  0
  140.4630   71.2020  225.9190 C   0  0  0  0  0  0  0  0  0  0  0  0
  140.4810   71.8550  224.7400 N   0  0  0  0  0  0  0  0  0  0  0  0
  143.3990   73.9860  220.0880 C   0  0  1  0  0  0  0  0  0  0  0  0
  142.6680   75.2210  220.3980 C   0  0  0  0  0  0  0  0  0  0  0  0
  142.9100   76.4090  219.7240 C   0  0  0  0  0  0  0  0  0  0  0  0
  142.2120   77.5560  220.0310 C   0  0  0  0  0  0  0  0  0  0  0  0
  141.2430   77.5840  221.0170 C   0  0  0  0  0  0  0  0  0  0  0  0
  140.9930   76.4080  221.6950 C   0  0  0  0  0  0  0  0  0  0  0  0
  141.6970   75.2640  221.3810 C   0  0  0  0  0  0  0  0  0  0  0  0
  145.6100   75.5110  220.4940 H   0  0  0  0  0  0  0  0  0  0  0  0
  145.8810   74.1990  219.4400 H   0  0  0  0  0  0  0  0  0  0  0  0
  144.4883   74.0352  221.9690 H   0  0  0  0  0  0  0  0  0  0  0  0
  145.1804   72.0122  219.6704 H   0  0  0  0  0  0  0  0  0  0  0  0
  145.5223   71.7210  221.3254 H   0  0  0  0  0  0  0  0  0  0  0  0
  143.1490   70.8043  220.4326 H   0  0  0  0  0  0  0  0  0  0  0  0
  143.0133   71.7739  221.9015 H   0  0  0  0  0  0  0  0  0  0  0  0
  139.2580   72.6659  219.8152 H   0  0  0  0  0  0  0  0  0  0  0  0
  140.1206   71.1388  219.1491 H   0  0  0  0  0  0  0  0  0  0  0  0
  140.1330   70.2900  221.2340 H   0  0  0  0  0  0  0  0  0  0  0  0
  138.8008   69.7025  222.7944 H   0  0  0  0  0  0  0  0  0  0  0  0
  138.7224   68.4304  224.9548 H   0  0  0  0  0  0  0  0  0  0  0  0
  139.3475   68.3566  227.3537 H   0  0  0  0  0  0  0  0  0  0  0  0
  140.4487   69.4102  229.2923 H   0  0  0  0  0  0  0  0  0  0  0  0
  141.5713   71.6252  229.1058 H   0  0  0  0  0  0  0  0  0  0  0  0
  141.5635   72.7693  226.8898 H   0  0  0  0  0  0  0  0  0  0  0  0
  143.7475   74.1773  219.0623 H   0  0  0  0  0  0  0  0  0  0  0  0
  143.6720   76.4355  218.9312 H   0  0  0  0  0  0  0  0  0  0  0  0
  142.4324   78.4788  219.4743 H   0  0  0  0  0  0  0  0  0  0  0  0
  140.6930   78.5072  221.2518 H   0  0  0  0  0  0  0  0  0  0  0  0
  140.2306   76.3830  222.4876 H   0  0  0  0  0  0  0  0  0  0  0  0
  141.4753   74.3424  221.9392 H   0  0  0  0  0  0  0  0  0  0  0  0
  1  2  1  0
  2  3  1  0
  3  4  1  0
  4  5  1  0
  5  6  1  0
  6  7  2  0
  6  8  1  0
  8  9  1  0
  9 10  1  0
 10 11  2  0
 10 12  1  0
 12 13  2  0
 13 14  1  0
 14 15  2  0
 15 16  1  0
 16 17  2  0
 17 18  1  0
 18 19  2  0
 19 20  1  0
 20 21  2  0
  5 22  1  0
 22 23  1  0
 23 24  2  0
 24 25  1  0
 25 26  2  0
 26 27  1  0
 27 28  2  0
 22  2  1  0
 28 23  1  0
 21 12  1  0
 20 15  1  0
  1 29  1  0
  1 30  1  0
  2 31  1  1
  3 32  1  0
  3 33  1  0
  4 34  1  0
  4 35  1  0
  8 36  1  0
  8 37  1  0
  9 38  1  0
 13 39  1  0
 14 40  1  0
 16 41  1  0
 17 42  1  0
 18 43  1  0
 19 44  1  0
 22 45  1  6
 24 46  1  0
 25 47  1  0
 26 48  1  0
 27 49  1  0
 28 50  1  0
M  END
>  <smiles>  (6) 
N[C@@H]1CCN(C(=O)CNC(=O)c2ccc3ccccc3n2)[C@H]1c1ccccc1

>  <score_type>  (6) 
oracle

>  <origin>  (6) 
autodockgpu

>  <m_score__min__energy>  (6) 
-8.8699999999999992

>  <m_primary>  (6) 
energy

>  <rmsd>  (6) 
3.2037364140560194

>  <m_score__min__rmsd>  (6) 
3.2037364140560194

>  <meeko>  (6) 
{"free_energy": -8.13, "intermolecular_energy": -9.92, "internal_energy": -1.67, "cluster_size": 11, "cluster_id": 2, "rank_in_cluster": 8}

>  <energy>  (6) 
-8.72

>  <cluster_rmsd>  (6) 
0.52

>  <cluster>  (6) 
1

$$$$

     RDKit          3D

 50 53  0  0  0  0  0  0  0  0999 V2000
  145.8960   73.7830  219.6720 N   0  0  0  0  0  0  0  0  0  0  0  0
  144.5720   73.7520  220.2550 C   0  0  2  0  0  0  0  0  0  0  0  0
  144.2520   72.3500  220.7930 C   0  0  0  0  0  0  0  0  0  0  0  0
  142.7200   72.5310  220.9170 C   0  0  0  0  0  0  0  0  0  0  0  0
  142.3160   73.1850  219.6890 N   0  0  0  0  0  0  0  0  0  0  0  0
  141.0980   73.2140  218.9900 C   0  0  0  0  0  0  0  0  0  0  0  0
  141.0520   72.5460  217.8770 O   0  0  0  0  0  0  0  0  0  0  0  0
  139.8550   73.8910  219.3370 C   0  0  0  0  0  0  0  0  0  0  0  0
  139.9010   75.1550  219.9720 N   0  0  0  0  0  0  0  0  0  0  0  0
  140.1490   75.3000  221.3720 C   0  0  0  0  0  0  0  0  0  0  0  0
  140.3530   74.2860  222.1240 O   0  0  0  0  0  0  0  0  0  0  0  0
  140.1730   76.6530  221.9700 C   0  0  0  0  0  0  0  0  0  0  0  0
  138.9860   77.2390  222.3580 C   0  0  0  0  0  0  0  0  0  0  0  0
  138.9720   78.5140  222.9250 C   0  0  0  0  0  0  0  0  0  0  0  0
  140.1910   79.1640  223.0850 C   0  0  0  0  0  0  0  0  0  0  0  0
  140.2730   80.4320  223.6390 C   0  0  0  0  0  0  0  0  0  0  0  0
  141.5070   81.0450  223.7800 C   0  0  0  0  0  0  0  0  0  0  0  0
  142.6870   80.4340  223.3830 C   0  0  0  0  0  0  0  0  0  0  0  0
  142.5930   79.1750  222.8330 C   0  0  0  0  0  0  0  0  0  0  0  0
  141.3690   78.5570  222.6890 C   0  0  0  0  0  0  0  0  0  0  0  0
  141.3320   77.3240  222.1450 N   0  0  0  0  0  0  0  0  0  0  0  0
  143.5050   73.9000  219.2380 C   0  0  1  0  0  0  0  0  0  0  0  0
  143.2300   75.2770  218.8100 C   0  0  0  0  0  0  0  0  0  0  0  0
  143.3090   75.6640  217.4800 C   0  0  0  0  0  0  0  0  0  0  0  0
  143.0470   76.9620  217.1010 C   0  0  0  0  0  0  0  0  0  0  0  0
  142.6940   77.9370  218.0150 C   0  0  0  0  0  0  0  0  0  0  0  0
  142.6120   77.5640  219.3420 C   0  0  0  0  0  0  0  0  0  0  0  0
  142.8770   76.2620  219.7130 C   0  0  0  0  0  0  0  0  0  0  0  0
  146.5160   74.4990  220.1160 H   0  0  0  0  0  0  0  0  0  0  0  0
  145.7540   74.0530  218.6590 H   0  0  0  0  0  0  0  0  0  0  0  0
  144.5859   74.5561  221.0055 H   0  0  0  0  0  0  0  0  0  0  0  0
  144.5244   71.5558  220.0823 H   0  0  0  0  0  0  0  0  0  0  0  0
  144.7838   72.0432  221.7057 H   0  0  0  0  0  0  0  0  0  0  0  0
  142.2227   71.5549  221.0162 H   0  0  0  0  0  0  0  0  0  0  0  0
  142.4452   73.1178  221.8059 H   0  0  0  0  0  0  0  0  0  0  0  0
  139.2916   74.0238  218.4016 H   0  0  0  0  0  0  0  0  0  0  0  0
  139.4097   73.2358  220.1002 H   0  0  0  0  0  0  0  0  0  0  0  0
  139.7550   76.0640  219.4430 H   0  0  0  0  0  0  0  0  0  0  0  0
  138.0400   76.6952  222.2189 H   0  0  0  0  0  0  0  0  0  0  0  0
  138.0292   78.9886  223.2347 H   0  0  0  0  0  0  0  0  0  0  0  0
  139.3597   80.9505  223.9661 H   0  0  0  0  0  0  0  0  0  0  0  0
  141.5527   82.0512  224.2221 H   0  0  0  0  0  0  0  0  0  0  0  0
  143.6590   80.9349  223.5026 H   0  0  0  0  0  0  0  0  0  0  0  0
  143.5056   78.6561  222.5045 H   0  0  0  0  0  0  0  0  0  0  0  0
  143.8769   73.4413  218.3100 H   0  0  0  0  0  0  0  0  0  0  0  0
  143.5853   74.9224  216.7160 H   0  0  0  0  0  0  0  0  0  0  0  0
  143.1210   77.2313  216.0370 H   0  0  0  0  0  0  0  0  0  0  0  0
  142.4865   78.9696  217.6977 H   0  0  0  0  0  0  0  0  0  0  0  0
  142.3348   78.3065  220.1048 H   0  0  0  0  0  0  0  0  0  0  0  0
  142.8039   75.9952  220.7776 H   0  0  0  0  0  0  0  0  0  0  0  0
  1  2  1  0
  2  3  1  0
  3  4  1  0
  4  5  1  0
  5  6  1  0
  6  7  2  0
  6  8  1  0
  8  9  1  0
  9 10  1  0
 10 11  2  0
 10 12  1  0
 12 13  2  0
 13 14  1  0
 14 15  2  0
 15 16  1  0
 16 17  2  0
 17 18  1  0
 18 19  2  0
 19 20  1  0
 20 21  2  0
  5 22  1  0
 22 23  1  0
 23 24  2  0
 24 25  1  0
 25 26  2  0
 26 27  1  0
 27 28  2  0
 22  2  1  0
 28 23  1  0
 21 12  1  0
 20 15  1  0
  1 29  1  0
  1 30  1  0
  2 31  1  1
  3 32  1  0
  3 33  1  0
  4 34  1  0
  4 35  1  0
  8 36  1  0
  8 37  1  0
  9 38  1  0
 13 39  1  0
 14 40  1  0
 16 41  1  0
 17 42  1  0
 18 43  1  0
 19 44  1  0
 22 45  1  6
 24 46  1  0
 25 47  1  0
 26 48  1  0
 27 49  1  0
 28 50  1  0
M  END
>  <smiles>  (7) 
N[C@@H]1CCN(C(=O)CNC(=O)c2ccc3ccccc3n2)[C@H]1c1ccccc1

>  <score_type>  (7) 
oracle

>  <origin>  (7) 
autodockgpu

>  <m_score__min__energy>  (7) 
-8.8699999999999992

>  <m_primary>  (7) 
energy

>  <rmsd>  (7) 
7.170393972011794

>  <m_score__min__rmsd>  (7) 
7.170393972011794

>  <meeko>  (7) 
{"free_energy": -7.46, "intermolecular_energy": -9.25, "internal_energy": -2.29, "cluster_size": 13, "cluster_id": 7, "rank_in_cluster": 13}

>  <energy>  (7) 
-8.71

>  <cluster_rmsd>  (7) 
0.52

>  <cluster>  (7) 
1

$$$$

     RDKit          3D

 50 53  0  0  0  0  0  0  0  0999 V2000
  143.0440   78.2560  218.4110 N   0  0  0  0  0  0  0  0  0  0  0  0
  141.9460   77.3180  218.5000 C   0  0  2  0  0  0  0  0  0  0  0  0
  140.6390   78.0480  218.8400 C   0  0  0  0  0  0  0  0  0  0  0  0
  139.8290   76.8060  219.2820 C   0  0  0  0  0  0  0  0  0  0  0  0
  140.7300   76.0450  220.1230 N   0  0  0  0  0  0  0  0  0  0  0  0
  140.5050   75.1240  221.1590 C   0  0  0  0  0  0  0  0  0  0  0  0
  140.2040   75.6200  222.3220 O   0  0  0  0  0  0  0  0  0  0  0  0
  140.5570   73.6680  221.1210 C   0  0  0  0  0  0  0  0  0  0  0  0
  140.3790   72.9310  222.3170 N   0  0  0  0  0  0  0  0  0  0  0  0
  140.3300   71.5040  222.3370 C   0  0  0  0  0  0  0  0  0  0  0  0
  140.4540   70.8150  221.2660 O   0  0  0  0  0  0  0  0  0  0  0  0
  140.1300   70.8000  223.6230 C   0  0  0  0  0  0  0  0  0  0  0  0
  139.5190   69.5630  223.6270 C   0  0  0  0  0  0  0  0  0  0  0  0
  139.3150   68.8730  224.8230 C   0  0  0  0  0  0  0  0  0  0  0  0
  139.7500   69.4730  225.9990 C   0  0  0  0  0  0  0  0  0  0  0  0
  139.5890   68.8610  227.2310 C   0  0  0  0  0  0  0  0  0  0  0  0
  140.0370   69.4930  228.3800 C   0  0  0  0  0  0  0  0  0  0  0  0
  140.6500   70.7370  228.3500 C   0  0  0  0  0  0  0  0  0  0  0  0
  140.8030   71.3360  227.1190 C   0  0  0  0  0  0  0  0  0  0  0  0
  140.3620   70.7140  225.9710 C   0  0  0  0  0  0  0  0  0  0  0  0
  140.5360   71.3430  224.7910 N   0  0  0  0  0  0  0  0  0  0  0  0
  142.0660   76.4210  219.6740 C   0  0  1  0  0  0  0  0  0  0  0  0
  142.9660   75.2740  219.4990 C   0  0  0  0  0  0  0  0  0  0  0  0
  143.9080   74.9250  220.4580 C   0  0  0  0  0  0  0  0  0  0  0  0
  144.7420   73.8450  220.2740 C   0  0  0  0  0  0  0  0  0  0  0  0
  144.6880   73.0600  219.1380 C   0  0  0  0  0  0  0  0  0  0  0  0
  143.7560   73.3980  218.1770 C   0  0  0  0  0  0  0  0  0  0  0  0
  142.9240   74.4810  218.3690 C   0  0  0  0  0  0  0  0  0  0  0  0
  143.4390   78.3250  217.4450 H   0  0  0  0  0  0  0  0  0  0  0  0
  143.7970   77.8740  219.0490 H   0  0  0  0  0  0  0  0  0  0  0  0
  141.9577   76.7917  217.5341 H   0  0  0  0  0  0  0  0  0  0  0  0
  140.7654   78.7777  219.6534 H   0  0  0  0  0  0  0  0  0  0  0  0
  140.1981   78.6604  218.0396 H   0  0  0  0  0  0  0  0  0  0  0  0
  138.9362   77.1093  219.8484 H   0  0  0  0  0  0  0  0  0  0  0  0
  139.4745   76.2188  218.4220 H   0  0  0  0  0  0  0  0  0  0  0  0
  139.7735   73.3383  220.4228 H   0  0  0  0  0  0  0  0  0  0  0  0
  141.5988   73.4547  220.8397 H   0  0  0  0  0  0  0  0  0  0  0  0
  140.2740   73.3990  223.2640 H   0  0  0  0  0  0  0  0  0  0  0  0
  139.1892   69.1159  222.6776 H   0  0  0  0  0  0  0  0  0  0  0  0
  138.8264   67.8875  224.8346 H   0  0  0  0  0  0  0  0  0  0  0  0
  139.1063   67.8748  227.2973 H   0  0  0  0  0  0  0  0  0  0  0  0
  139.9019   68.9908  229.3493 H   0  0  0  0  0  0  0  0  0  0  0  0
  140.9996   71.2252  229.2716 H   0  0  0  0  0  0  0  0  0  0  0  0
  141.2833   72.3233  227.0515 H   0  0  0  0  0  0  0  0  0  0  0  0
  142.5709   76.9914  220.4675 H   0  0  0  0  0  0  0  0  0  0  0  0
  143.9891   75.5208  221.3791 H   0  0  0  0  0  0  0  0  0  0  0  0
  145.4749   73.5991  221.0565 H   0  0  0  0  0  0  0  0  0  0  0  0
  145.3608   72.2000  219.0046 H   0  0  0  0  0  0  0  0  0  0  0  0
  143.6769   72.8019  217.2559 H   0  0  0  0  0  0  0  0  0  0  0  0
  142.1921   74.7248  217.5849 H   0  0  0  0  0  0  0  0  0  0  0  0
  1  2  1  0
  2  3  1  0
  3  4  1  0
  4  5  1  0
  5  6  1  0
  6  7  2  0
  6  8  1  0
  8  9  1  0
  9 10  1  0
 10 11  2  0
 10 12  1  0
 12 13  2  0
 13 14  1  0
 14 15  2  0
 15 16  1  0
 16 17  2  0
 17 18  1  0
 18 19  2  0
 19 20  1  0
 20 21  2  0
  5 22  1  0
 22 23  1  0
 23 24  2  0
 24 25  1  0
 25 26  2  0
 26 27  1  0
 27 28  2  0
 22  2  1  0
 28 23  1  0
 21 12  1  0
 20 15  1  0
  1 29  1  0
  1 30  1  0
  2 31  1  6
  3 32  1  0
  3 33  1  0
  4 34  1  0
  4 35  1  0
  8 36  1  0
  8 37  1  0
  9 38  1  0
 13 39  1  0
 14 40  1  0
 16 41  1  0
 17 42  1  0
 18 43  1  0
 19 44  1  0
 22 45  1  1
 24 46  1  0
 25 47  1  0
 26 48  1  0
 27 49  1  0
 28 50  1  0
M  END
>  <smiles>  (8) 
N[C@@H]1CCN(C(=O)CNC(=O)c2ccc3ccccc3n2)[C@H]1c1ccccc1

>  <score_type>  (8) 
oracle

>  <origin>  (8) 
autodockgpu

>  <m_score__min__energy>  (8) 
-8.8699999999999992

>  <m_primary>  (8) 
energy

>  <rmsd>  (8) 
2.308928723140004

>  <m_score__min__rmsd>  (8) 
2.308928723140004

>  <meeko>  (8) 
{"free_energy": -7.53, "intermolecular_energy": -9.32, "internal_energy": -1.93, "cluster_size": 9, "cluster_id": 5, "rank_in_cluster": 9}

>  <energy>  (8) 
-8.58

>  <cluster_rmsd>  (8) 
0.52

>  <cluster>  (8) 
1

$$$$

     RDKit          3D

 50 53  0  0  0  0  0  0  0  0999 V2000
  146.2120   73.4080  218.2130 N   0  0  0  0  0  0  0  0  0  0  0  0
  145.4190   73.4260  219.4220 C   0  0  2  0  0  0  0  0  0  0  0  0
  145.4080   72.0400  220.0830 C   0  0  0  0  0  0  0  0  0  0  0  0
  144.1950   72.2750  221.0150 C   0  0  0  0  0  0  0  0  0  0  0  0
  143.2040   72.9340  220.1890 N   0  0  0  0  0  0  0  0  0  0  0  0
  141.8030   73.0000  220.2630 C   0  0  0  0  0  0  0  0  0  0  0  0
  141.1460   72.5690  219.2280 O   0  0  0  0  0  0  0  0  0  0  0  0
  140.9630   73.4840  221.3500 C   0  0  0  0  0  0  0  0  0  0  0  0
  141.0780   74.8290  221.7770 N   0  0  0  0  0  0  0  0  0  0  0  0
  139.9390   75.6660  221.9890 C   0  0  0  0  0  0  0  0  0  0  0  0
  138.7490   75.2330  221.8110 O   0  0  0  0  0  0  0  0  0  0  0  0
  140.1360   77.0660  222.4240 C   0  0  0  0  0  0  0  0  0  0  0  0
  139.0330   77.8420  222.7120 C   0  0  0  0  0  0  0  0  0  0  0  0
  139.1820   79.1670  223.1250 C   0  0  0  0  0  0  0  0  0  0  0  0
  140.4740   79.6690  223.2360 C   0  0  0  0  0  0  0  0  0  0  0  0
  140.7180   80.9720  223.6380 C   0  0  0  0  0  0  0  0  0  0  0  0
  142.0210   81.4320  223.7360 C   0  0  0  0  0  0  0  0  0  0  0  0
  143.1140   80.6310  223.4420 C   0  0  0  0  0  0  0  0  0  0  0  0
  142.8590   79.3380  223.0420 C   0  0  0  0  0  0  0  0  0  0  0  0
  141.5660   78.8710  222.9430 C   0  0  0  0  0  0  0  0  0  0  0  0
  141.3710   77.5970  222.5460 N   0  0  0  0  0  0  0  0  0  0  0  0
  143.9740   73.6030  219.1460 C   0  0  1  0  0  0  0  0  0  0  0  0
  143.5450   74.9860  218.9020 C   0  0  0  0  0  0  0  0  0  0  0  0
  143.4370   75.5090  217.6200 C   0  0  0  0  0  0  0  0  0  0  0  0
  143.0330   76.8080  217.4140 C   0  0  0  0  0  0  0  0  0  0  0  0
  142.7150   77.6540  218.4610 C   0  0  0  0  0  0  0  0  0  0  0  0
  142.8190   77.1460  219.7410 C   0  0  0  0  0  0  0  0  0  0  0  0
  143.2250   75.8430  219.9390 C   0  0  0  0  0  0  0  0  0  0  0  0
  147.1320   73.8930  218.3260 H   0  0  0  0  0  0  0  0  0  0  0  0
  145.6460   73.9380  217.4930 H   0  0  0  0  0  0  0  0  0  0  0  0
  145.8600   74.2345  220.0235 H   0  0  0  0  0  0  0  0  0  0  0  0
  145.2300   71.2314  219.3588 H   0  0  0  0  0  0  0  0  0  0  0  0
  146.3428   71.7219  220.5677 H   0  0  0  0  0  0  0  0  0  0  0  0
  143.8074   71.3173  221.3927 H   0  0  0  0  0  0  0  0  0  0  0  0
  144.4633   72.8776  221.8953 H   0  0  0  0  0  0  0  0  0  0  0  0
  139.9189   73.3364  221.0370 H   0  0  0  0  0  0  0  0  0  0  0  0
  141.3104   72.9073  222.2199 H   0  0  0  0  0  0  0  0  0  0  0  0
  142.0170   75.2890  221.9630 H   0  0  0  0  0  0  0  0  0  0  0  0
  138.0251   77.4123  222.6153 H   0  0  0  0  0  0  0  0  0  0  0  0
  138.3071   79.7928  223.3549 H   0  0  0  0  0  0  0  0  0  0  0  0
  139.8783   81.6404  223.8791 H   0  0  0  0  0  0  0  0  0  0  0  0
  142.1947   82.4693  224.0584 H   0  0  0  0  0  0  0  0  0  0  0  0
  144.1424   81.0125  223.5248 H   0  0  0  0  0  0  0  0  0  0  0  0
  143.6979   78.6695  222.7985 H   0  0  0  0  0  0  0  0  0  0  0  0
  143.7694   73.1236  218.1773 H   0  0  0  0  0  0  0  0  0  0  0  0
  143.6785   74.8741  216.7548 H   0  0  0  0  0  0  0  0  0  0  0  0
  142.9606   77.1859  216.3835 H   0  0  0  0  0  0  0  0  0  0  0  0
  142.3921   78.6901  218.2813 H   0  0  0  0  0  0  0  0  0  0  0  0
  142.5773   77.7825  220.6050 H   0  0  0  0  0  0  0  0  0  0  0  0
  143.2977   75.4677  220.9704 H   0  0  0  0  0  0  0  0  0  0  0  0
  1  2  1  0
  2  3  1  0
  3  4  1  0
  4  5  1  0
  5  6  1  0
  6  7  2  0
  6  8  1  0
  8  9  1  0
  9 10  1  0
 10 11  2  0
 10 12  1  0
 12 13  2  0
 13 14  1  0
 14 15  2  0
 15 16  1  0
 16 17  2  0
 17 18  1  0
 18 19  2  0
 19 20  1  0
 20 21  2  0
  5 22  1  0
 22 23  1  0
 23 24  2  0
 24 25  1  0
 25 26  2  0
 26 27  1  0
 27 28  2  0
 22  2  1  0
 28 23  1  0
 21 12  1  0
 20 15  1  0
  1 29  1  0
  1 30  1  0
  2 31  1  1
  3 32  1  0
  3 33  1  0
  4 34  1  0
  4 35  1  0
  8 36  1  0
  8 37  1  0
  9 38  1  0
 13 39  1  0
 14 40  1  0
 16 41  1  0
 17 42  1  0
 18 43  1  0
 19 44  1  0
 22 45  1  6
 24 46  1  0
 25 47  1  0
 26 48  1  0
 27 49  1  0
 28 50  1  0
M  END
>  <smiles>  (9) 
N[C@@H]1CCN(C(=O)CNC(=O)c2ccc3ccccc3n2)[C@H]1c1ccccc1

>  <score_type>  (9) 
oracle

>  <origin>  (9) 
autodockgpu

>  <m_score__min__energy>  (9) 
-8.8699999999999992

>  <m_primary>  (9) 
energy

>  <rmsd>  (9) 
7.608349008791709

>  <m_score__min__rmsd>  (9) 
7.608349008791709

>  <meeko>  (9) 
{"free_energy": -7.87, "intermolecular_energy": -9.66, "internal_energy": -2.18, "cluster_size": 13, "cluster_id": 7, "rank_in_cluster": 4}

>  <energy>  (9) 
-8.5

>  <cluster_rmsd>  (9) 
0.28

>  <cluster>  (9) 
1

$$$$

     RDKit          3D

 50 53  0  0  0  0  0  0  0  0999 V2000
  143.9710   76.0720  216.9980 N   0  0  0  0  0  0  0  0  0  0  0  0
  142.9250   75.1920  217.4700 C   0  0  2  0  0  0  0  0  0  0  0  0
  141.5430   75.7470  217.0970 C   0  0  0  0  0  0  0  0  0  0  0  0
  140.7120   74.8790  218.0730 C   0  0  0  0  0  0  0  0  0  0  0  0
  141.4370   74.9190  219.3260 N   0  0  0  0  0  0  0  0  0  0  0  0
  141.0290   74.7530  220.6600 C   0  0  0  0  0  0  0  0  0  0  0  0
  141.9450   74.9000  221.5690 O   0  0  0  0  0  0  0  0  0  0  0  0
  139.7060   74.4390  221.1840 C   0  0  0  0  0  0  0  0  0  0  0  0
  139.5830   73.5710  222.2960 N   0  0  0  0  0  0  0  0  0  0  0  0
  140.3980   72.4090  222.4540 C   0  0  0  0  0  0  0  0  0  0  0  0
  141.2950   72.0990  221.5960 O   0  0  0  0  0  0  0  0  0  0  0  0
  140.2070   71.5400  223.6370 C   0  0  0  0  0  0  0  0  0  0  0  0
  139.5470   70.3380  223.4900 C   0  0  0  0  0  0  0  0  0  0  0  0
  139.3490   69.4960  224.5850 C   0  0  0  0  0  0  0  0  0  0  0  0
  139.8390   69.9100  225.8180 C   0  0  0  0  0  0  0  0  0  0  0  0
  139.6880   69.1390  226.9590 C   0  0  0  0  0  0  0  0  0  0  0  0
  140.1920   69.5890  228.1680 C   0  0  0  0  0  0  0  0  0  0  0  0
  140.8540   70.8020  228.2900 C   0  0  0  0  0  0  0  0  0  0  0  0
  140.9970   71.5610  227.1490 C   0  0  0  0  0  0  0  0  0  0  0  0
  140.4990   71.1200  225.9410 C   0  0  0  0  0  0  0  0  0  0  0  0
  140.6660   71.9010  224.8550 N   0  0  0  0  0  0  0  0  0  0  0  0
  142.8210   75.1830  218.9490 C   0  0  1  0  0  0  0  0  0  0  0  0
  143.7890   74.3250  219.6430 C   0  0  0  0  0  0  0  0  0  0  0  0
  143.7780   72.9430  219.5060 C   0  0  0  0  0  0  0  0  0  0  0  0
  144.6950   72.1570  220.1650 C   0  0  0  0  0  0  0  0  0  0  0  0
  145.6660   72.6950  220.9910 C   0  0  0  0  0  0  0  0  0  0  0  0
  145.6860   74.0680  221.1350 C   0  0  0  0  0  0  0  0  0  0  0  0
  144.7630   74.8480  220.4710 C   0  0  0  0  0  0  0  0  0  0  0  0
  144.1180   76.0070  215.9640 H   0  0  0  0  0  0  0  0  0  0  0  0
  144.8560   75.7450  217.4770 H   0  0  0  0  0  0  0  0  0  0  0  0
  143.1758   74.2132  217.0352 H   0  0  0  0  0  0  0  0  0  0  0  0
  141.4513   76.8223  217.3099 H   0  0  0  0  0  0  0  0  0  0  0  0
  141.2641   75.6919  216.0344 H   0  0  0  0  0  0  0  0  0  0  0  0
  139.7024   75.2974  218.1977 H   0  0  0  0  0  0  0  0  0  0  0  0
  140.5851   73.8507  217.7034 H   0  0  0  0  0  0  0  0  0  0  0  0
  139.2409   75.3937  221.4707 H   0  0  0  0  0  0  0  0  0  0  0  0
  139.2312   73.8781  220.3655 H   0  0  0  0  0  0  0  0  0  0  0  0
  138.8780   73.7360  223.0730 H   0  0  0  0  0  0  0  0  0  0  0  0
  139.1728   70.0400  222.4995 H   0  0  0  0  0  0  0  0  0  0  0  0
  138.8225   68.5363  224.4760 H   0  0  0  0  0  0  0  0  0  0  0  0
  139.1686   68.1709  226.9049 H   0  0  0  0  0  0  0  0  0  0  0  0
  140.0628   68.9626  229.0629 H   0  0  0  0  0  0  0  0  0  0  0  0
  141.2487   71.1439  229.2582 H   0  0  0  0  0  0  0  0  0  0  0  0
  141.5145   72.5302  227.2023 H   0  0  0  0  0  0  0  0  0  0  0  0
  143.1102   76.1845  219.3001 H   0  0  0  0  0  0  0  0  0  0  0  0
  143.0240   72.4692  218.8602 H   0  0  0  0  0  0  0  0  0  0  0  0
  144.6549   71.0659  220.0309 H   0  0  0  0  0  0  0  0  0  0  0  0
  146.3928   72.0545  221.5120 H   0  0  0  0  0  0  0  0  0  0  0  0
  146.4403   74.5409  221.7811 H   0  0  0  0  0  0  0  0  0  0  0  0
  144.8043   75.9388  220.6072 H   0  0  0  0  0  0  0  0  0  0  0  0
  1  2  1  0
  2  3  1  0
  3  4  1  0
  4  5  1  0
  5  6  1  0
  6  7  2  0
  6  8  1  0
  8  9  1  0
  9 10  1  0
 10 11  2  0
 10 12  1  0
 12 13  2  0
 13 14  1  0
 14 15  2  0
 15 16  1  0
 16 17  2  0
 17 18  1  0
 18 19  2  0
 19 20  1  0
 20 21  2  0
  5 22  1  0
 22 23  1  0
 23 24  2  0
 24 25  1  0
 25 26  2  0
 26 27  1  0
 27 28  2  0
 22  2  1  0
 28 23  1  0
 21 12  1  0
 20 15  1  0
  1 29  1  0
  1 30  1  0
  2 31  1  6
  3 32  1  0
  3 33  1  0
  4 34  1  0
  4 35  1  0
  8 36  1  0
  8 37  1  0
  9 38  1  0
 13 39  1  0
 14 40  1  0
 16 41  1  0
 17 42  1  0
 18 43  1  0
 19 44  1  0
 22 45  1  1
 24 46  1  0
 25 47  1  0
 26 48  1  0
 27 49  1  0
 28 50  1  0
M  END
>  <smiles>  (10) 
N[C@@H]1CCN(C(=O)CNC(=O)c2ccc3ccccc3n2)[C@H]1c1ccccc1

>  <score_type>  (10) 
oracle

>  <origin>  (10) 
autodockgpu

>  <m_score__min__energy>  (10) 
-8.8699999999999992

>  <m_primary>  (10) 
energy

>  <rmsd>  (10) 
2.6492093491217226

>  <m_score__min__rmsd>  (10) 
2.6492093491217226

>  <meeko>  (10) 
{"free_energy": -8.19, "intermolecular_energy": -9.98, "internal_energy": -1.45, "cluster_size": 9, "cluster_id": 5, "rank_in_cluster": 5}

>  <energy>  (10) 
-8.75

>  <cluster_rmsd>  (10) 
0.0

>  <cluster>  (10) 
2

$$$$

     RDKit          3D

 50 53  0  0  0  0  0  0  0  0999 V2000
  146.0580   73.4310  219.0570 N   0  0  0  0  0  0  0  0  0  0  0  0
  144.8180   73.3030  219.7910 C   0  0  2  0  0  0  0  0  0  0  0  0
  144.5460   71.8320  220.1390 C   0  0  0  0  0  0  0  0  0  0  0  0
  143.0450   71.9850  220.4820 C   0  0  0  0  0  0  0  0  0  0  0  0
  142.5000   72.8230  219.4330 N   0  0  0  0  0  0  0  0  0  0  0  0
  141.2050   72.9560  218.9070 C   0  0  0  0  0  0  0  0  0  0  0  0
  141.0560   72.6620  217.6500 O   0  0  0  0  0  0  0  0  0  0  0  0
  139.9800   73.3770  219.5750 C   0  0  0  0  0  0  0  0  0  0  0  0
  139.9010   74.6750  220.1350 N   0  0  0  0  0  0  0  0  0  0  0  0
  140.1030   74.9220  221.5270 C   0  0  0  0  0  0  0  0  0  0  0  0
  140.3770   73.9750  222.3420 O   0  0  0  0  0  0  0  0  0  0  0  0
  139.9940   76.3040  222.0450 C   0  0  0  0  0  0  0  0  0  0  0  0
  138.7440   76.8430  222.2680 C   0  0  0  0  0  0  0  0  0  0  0  0
  138.6060   78.1440  222.7550 C   0  0  0  0  0  0  0  0  0  0  0  0
  139.7660   78.8680  223.0070 C   0  0  0  0  0  0  0  0  0  0  0  0
  139.7240   80.1650  223.4910 C   0  0  0  0  0  0  0  0  0  0  0  0
  140.9040   80.8510  223.7290 C   0  0  0  0  0  0  0  0  0  0  0  0
  142.1490   80.2870  223.4980 C   0  0  0  0  0  0  0  0  0  0  0  0
  142.1780   78.9960  223.0150 C   0  0  0  0  0  0  0  0  0  0  0  0
  141.0090   78.3050  222.7760 C   0  0  0  0  0  0  0  0  0  0  0  0
  141.0920   77.0460  222.3040 N   0  0  0  0  0  0  0  0  0  0  0  0
  143.6340   73.6040  218.9520 C   0  0  1  0  0  0  0  0  0  0  0  0
  143.3290   75.0300  218.7830 C   0  0  0  0  0  0  0  0  0  0  0  0
  143.4190   75.6610  217.5500 C   0  0  0  0  0  0  0  0  0  0  0  0
  143.1280   77.0000  217.4140 C   0  0  0  0  0  0  0  0  0  0  0  0
  142.7350   77.7790  218.4860 C   0  0  0  0  0  0  0  0  0  0  0  0
  142.6420   77.1630  219.7190 C   0  0  0  0  0  0  0  0  0  0  0  0
  142.9350   75.8210  219.8460 C   0  0  0  0  0  0  0  0  0  0  0  0
  146.7240   74.1040  219.5030 H   0  0  0  0  0  0  0  0  0  0  0  0
  145.7890   73.8130  218.1080 H   0  0  0  0  0  0  0  0  0  0  0  0
  144.9386   73.9790  220.6504 H   0  0  0  0  0  0  0  0  0  0  0  0
  144.7147   71.1606  219.2842 H   0  0  0  0  0  0  0  0  0  0  0  0
  145.1831   71.3876  220.9179 H   0  0  0  0  0  0  0  0  0  0  0  0
  142.5487   71.0034  220.4887 H   0  0  0  0  0  0  0  0  0  0  0  0
  142.8934   72.4234  221.4794 H   0  0  0  0  0  0  0  0  0  0  0  0
  139.1693   73.2978  218.8358 H   0  0  0  0  0  0  0  0  0  0  0  0
  139.9231   72.7143  220.4511 H   0  0  0  0  0  0  0  0  0  0  0  0
  139.6870   75.5360  219.5500 H   0  0  0  0  0  0  0  0  0  0  0  0
  137.8468   76.2416  222.0600 H   0  0  0  0  0  0  0  0  0  0  0  0
  137.6128   78.5817  222.9334 H   0  0  0  0  0  0  0  0  0  0  0  0
  138.7559   80.6494  223.6860 H   0  0  0  0  0  0  0  0  0  0  0  0
  140.8510   81.8797  224.1150 H   0  0  0  0  0  0  0  0  0  0  0  0
  143.0759   80.8466  223.6921 H   0  0  0  0  0  0  0  0  0  0  0  0
  143.1456   78.5113  222.8179 H   0  0  0  0  0  0  0  0  0  0  0  0
  143.8793   73.2976  217.9244 H   0  0  0  0  0  0  0  0  0  0  0  0
  143.7278   75.0820  216.6672 H   0  0  0  0  0  0  0  0  0  0  0  0
  143.2110   77.4646  216.4204 H   0  0  0  0  0  0  0  0  0  0  0  0
  142.5053   78.8476  218.3622 H   0  0  0  0  0  0  0  0  0  0  0  0
  142.3338   77.7436  220.6010 H   0  0  0  0  0  0  0  0  0  0  0  0
  142.8511   75.3583  220.8404 H   0  0  0  0  0  0  0  0  0  0  0  0
  1  2  1  0
  2  3  1  0
  3  4  1  0
  4  5  1  0
  5  6  1  0
  6  7  2  0
  6  8  1  0
  8  9  1  0
  9 10  1  0
 10 11  2  0
 10 12  1  0
 12 13  2  0
 13 14  1  0
 14 15  2  0
 15 16  1  0
 16 17  2  0
 17 18  1  0
 18 19  2  0
 19 20  1  0
 20 21  2  0
  5 22  1  0
 22 23  1  0
 23 24  2  0
 24 25  1  0
 25 26  2  0
 26 27  1  0
 27 28  2  0
 22  2  1  0
 28 23  1  0
 21 12  1  0
 20 15  1  0
  1 29  1  0
  1 30  1  0
  2 31  1  1
  3 32  1  0
  3 33  1  0
  4 34  1  0
  4 35  1  0
  8 36  1  0
  8 37  1  0
  9 38  1  0
 13 39  1  0
 14 40  1  0
 16 41  1  0
 17 42  1  0
 18 43  1  0
 19 44  1  0
 22 45  1  6
 24 46  1  0
 25 47  1  0
 26 48  1  0
 27 49  1  0
 28 50  1  0
M  END
>  <smiles>  (11) 
N[C@@H]1CCN(C(=O)CNC(=O)c2ccc3ccccc3n2)[C@H]1c1ccccc1

>  <score_type>  (11) 
oracle

>  <origin>  (11) 
autodockgpu

>  <m_score__min__energy>  (11) 
-8.8699999999999992

>  <m_primary>  (11) 
energy

>  <rmsd>  (11) 
7.073002621466992

>  <m_score__min__rmsd>  (11) 
7.073002621466992

>  <meeko>  (11) 
{"free_energy": -7.72, "intermolecular_energy": -9.51, "internal_energy": -2.18, "cluster_size": 13, "cluster_id": 7, "rank_in_cluster": 12}

>  <energy>  (11) 
-8.74

>  <cluster_rmsd>  (11) 
0.86

>  <cluster>  (11) 
2

$$$$

     RDKit          3D

 50 53  0  0  0  0  0  0  0  0999 V2000
  142.9560   79.3520  222.6990 N   0  0  0  0  0  0  0  0  0  0  0  0
  141.6030   79.1350  222.2360 C   0  0  2  0  0  0  0  0  0  0  0  0
  140.6260   79.1010  223.4200 C   0  0  0  0  0  0  0  0  0  0  0  0
  139.4380   78.4440  222.6760 C   0  0  0  0  0  0  0  0  0  0  0  0
  140.0230   77.3670  221.9050 N   0  0  0  0  0  0  0  0  0  0  0  0
  139.4950   76.1620  221.4120 C   0  0  0  0  0  0  0  0  0  0  0  0
  138.2720   76.2000  220.9750 O   0  0  0  0  0  0  0  0  0  0  0  0
  140.1290   74.8540  221.3120 C   0  0  0  0  0  0  0  0  0  0  0  0
  139.9080   73.8910  222.3250 N   0  0  0  0  0  0  0  0  0  0  0  0
  140.5960   72.6390  222.3570 C   0  0  0  0  0  0  0  0  0  0  0  0
  141.4620   72.3300  221.4680 O   0  0  0  0  0  0  0  0  0  0  0  0
  140.3060   71.6750  223.4410 C   0  0  0  0  0  0  0  0  0  0  0  0
  139.5940   70.5300  223.1510 C   0  0  0  0  0  0  0  0  0  0  0  0
  139.3030   69.6000  224.1510 C   0  0  0  0  0  0  0  0  0  0  0  0
  139.7540   69.8700  225.4380 C   0  0  0  0  0  0  0  0  0  0  0  0
  139.5120   69.0040  226.4910 C   0  0  0  0  0  0  0  0  0  0  0  0
  139.9800   69.3110  227.7590 C   0  0  0  0  0  0  0  0  0  0  0  0
  140.6940   70.4690  228.0250 C   0  0  0  0  0  0  0  0  0  0  0  0
  140.9290   71.3230  226.9700 C   0  0  0  0  0  0  0  0  0  0  0  0
  140.4680   71.0260  225.7050 C   0  0  0  0  0  0  0  0  0  0  0  0
  140.7240   71.8950  224.7070 N   0  0  0  0  0  0  0  0  0  0  0  0
  141.4070   77.7730  221.6860 C   0  0  1  0  0  0  0  0  0  0  0  0
  141.8580   77.5830  220.3020 C   0  0  0  0  0  0  0  0  0  0  0  0
  141.5480   78.4870  219.2950 C   0  0  0  0  0  0  0  0  0  0  0  0
  141.9820   78.2890  218.0040 C   0  0  0  0  0  0  0  0  0  0  0  0
  142.7420   77.1910  217.6440 C   0  0  0  0  0  0  0  0  0  0  0  0
  143.0560   76.2840  218.6370 C   0  0  0  0  0  0  0  0  0  0  0  0
  142.6170   76.4900  219.9280 C   0  0  0  0  0  0  0  0  0  0  0  0
  143.5590   79.8160  221.9810 H   0  0  0  0  0  0  0  0  0  0  0  0
  143.3500   78.3880  222.8870 H   0  0  0  0  0  0  0  0  0  0  0  0
  141.4335   79.9388  221.5044 H   0  0  0  0  0  0  0  0  0  0  0  0
  140.9950   78.4816  224.2508 H   0  0  0  0  0  0  0  0  0  0  0  0
  140.4225   80.0623  223.9144 H   0  0  0  0  0  0  0  0  0  0  0  0
  138.7035   78.0500  223.3938 H   0  0  0  0  0  0  0  0  0  0  0  0
  138.9033   79.1633  222.0383 H   0  0  0  0  0  0  0  0  0  0  0  0
  139.7902   74.4062  220.3661 H   0  0  0  0  0  0  0  0  0  0  0  0
  141.2017   75.0805  221.4019 H   0  0  0  0  0  0  0  0  0  0  0  0
  139.2180   74.0460  223.1180 H   0  0  0  0  0  0  0  0  0  0  0  0
  139.2519   70.3476  222.1216 H   0  0  0  0  0  0  0  0  0  0  0  0
  138.7358   68.6843  223.9279 H   0  0  0  0  0  0  0  0  0  0  0  0
  138.9494   68.0741  226.3215 H   0  0  0  0  0  0  0  0  0  0  0  0
  139.7777   68.6111  228.5832 H   0  0  0  0  0  0  0  0  0  0  0  0
  141.0582   70.6968  229.0376 H   0  0  0  0  0  0  0  0  0  0  0  0
  141.4913   72.2532  227.1388 H   0  0  0  0  0  0  0  0  0  0  0  0
  142.0772   77.0999  222.2408 H   0  0  0  0  0  0  0  0  0  0  0  0
  140.9456   79.3761  219.5328 H   0  0  0  0  0  0  0  0  0  0  0  0
  141.7158   79.0278  217.2337 H   0  0  0  0  0  0  0  0  0  0  0  0
  143.0827   77.0459  216.6082 H   0  0  0  0  0  0  0  0  0  0  0  0
  143.6578   75.3949  218.3975 H   0  0  0  0  0  0  0  0  0  0  0  0
  142.8835   75.7494  220.6965 H   0  0  0  0  0  0  0  0  0  0  0  0
  1  2  1  0
  2  3  1  0
  3  4  1  0
  4  5  1  0
  5  6  1  0
  6  7  2  0
  6  8  1  0
  8  9  1  0
  9 10  1  0
 10 11  2  0
 10 12  1  0
 12 13  2  0
 13 14  1  0
 14 15  2  0
 15 16  1  0
 16 17  2  0
 17 18  1  0
 18 19  2  0
 19 20  1  0
 20 21  2  0
  5 22  1  0
 22 23  1  0
 23 24  2  0
 24 25  1  0
 25 26  2  0
 26 27  1  0
 27 28  2  0
 22  2  1  0
 28 23  1  0
 21 12  1  0
 20 15  1  0
  1 29  1  0
  1 30  1  0
  2 31  1  6
  3 32  1  0
  3 33  1  0
  4 34  1  0
  4 35  1  0
  8 36  1  0
  8 37  1  0
  9 38  1  0
 13 39  1  0
 14 40  1  0
 16 41  1  0
 17 42  1  0
 18 43  1  0
 19 44  1  0
 22 45  1  1
 24 46  1  0
 25 47  1  0
 26 48  1  0
 27 49  1  0
 28 50  1  0
M  END
>  <smiles>  (12) 
N[C@@H]1CCN(C(=O)CNC(=O)c2ccc3ccccc3n2)[C@H]1c1ccccc1

>  <score_type>  (12) 
oracle

>  <origin>  (12) 
autodockgpu

>  <m_score__min__energy>  (12) 
-8.8699999999999992

>  <m_primary>  (12) 
energy

>  <rmsd>  (12) 
2.591919267249987

>  <m_score__min__rmsd>  (12) 
2.591919267249987

>  <meeko>  (12) 
{"free_energy": -8.86, "intermolecular_energy": -10.65, "internal_energy": -1.31, "cluster_size": 9, "cluster_id": 1, "rank_in_cluster": 3}

>  <energy>  (12) 
-8.73

>  <cluster_rmsd>  (12) 
0.05

>  <cluster>  (12) 
2

$$$$

     RDKit          3D

 50 53  0  0  0  0  0  0  0  0999 V2000
  145.9910   73.3920  218.7240 N   0  0  0  0  0  0  0  0  0  0  0  0
  144.9320   73.3280  219.7080 C   0  0  2  0  0  0  0  0  0  0  0  0
  144.7220   71.8830  220.1830 C   0  0  0  0  0  0  0  0  0  0  0  0
  143.3290   72.0860  220.8250 C   0  0  0  0  0  0  0  0  0  0  0  0
  142.5850   72.8820  219.8710 N   0  0  0  0  0  0  0  0  0  0  0  0
  141.2090   73.0180  219.6220 C   0  0  0  0  0  0  0  0  0  0  0  0
  140.8270   72.8840  218.3880 O   0  0  0  0  0  0  0  0  0  0  0  0
  140.1280   73.2880  220.5610 C   0  0  0  0  0  0  0  0  0  0  0  0
  140.1740   72.7290  221.8600 N   0  0  0  0  0  0  0  0  0  0  0  0
  139.9140   71.3470  222.1090 C   0  0  0  0  0  0  0  0  0  0  0  0
  139.6330   70.5380  221.1590 O   0  0  0  0  0  0  0  0  0  0  0  0
  139.9700   70.8330  223.4960 C   0  0  0  0  0  0  0  0  0  0  0  0
  139.4980   69.5650  223.7640 C   0  0  0  0  0  0  0  0  0  0  0  0
  139.5350   69.0500  225.0610 C   0  0  0  0  0  0  0  0  0  0  0  0
  140.0630   69.8570  226.0620 C   0  0  0  0  0  0  0  0  0  0  0  0
  140.1400   69.4290  227.3770 C   0  0  0  0  0  0  0  0  0  0  0  0
  140.6730   70.2640  228.3460 C   0  0  0  0  0  0  0  0  0  0  0  0
  141.1420   71.5350  228.0510 C   0  0  0  0  0  0  0  0  0  0  0  0
  141.0600   71.9510  226.7400 C   0  0  0  0  0  0  0  0  0  0  0  0
  140.5310   71.1260  225.7700 C   0  0  0  0  0  0  0  0  0  0  0  0
  140.4730   71.5800  224.5020 N   0  0  0  0  0  0  0  0  0  0  0  0
  143.6010   73.6130  219.1220 C   0  0  1  0  0  0  0  0  0  0  0  0
  143.2840   75.0360  218.9450 C   0  0  0  0  0  0  0  0  0  0  0  0
  142.8760   75.8370  220.0030 C   0  0  0  0  0  0  0  0  0  0  0  0
  142.5840   77.1690  219.8150 C   0  0  0  0  0  0  0  0  0  0  0  0
  142.6800   77.7740  218.5760 C   0  0  0  0  0  0  0  0  0  0  0  0
  143.0840   76.9880  217.5150 C   0  0  0  0  0  0  0  0  0  0  0  0
  143.3750   75.6540  217.7120 C   0  0  0  0  0  0  0  0  0  0  0  0
  146.8650   73.8280  219.0990 H   0  0  0  0  0  0  0  0  0  0  0  0
  145.6210   74.0080  217.9480 H   0  0  0  0  0  0  0  0  0  0  0  0
  145.2395   74.0429  220.4854 H   0  0  0  0  0  0  0  0  0  0  0  0
  144.6988   71.1665  219.3487 H   0  0  0  0  0  0  0  0  0  0  0  0
  145.5037   71.4637  220.8335 H   0  0  0  0  0  0  0  0  0  0  0  0
  142.8344   71.1171  220.9882 H   0  0  0  0  0  0  0  0  0  0  0  0
  143.3959   72.5768  221.8072 H   0  0  0  0  0  0  0  0  0  0  0  0
  140.0778   74.3799  220.6848 H   0  0  0  0  0  0  0  0  0  0  0  0
  139.2586   72.7962  220.1003 H   0  0  0  0  0  0  0  0  0  0  0  0
  140.4060   73.3070  222.7210 H   0  0  0  0  0  0  0  0  0  0  0  0
  139.0880   68.9530  222.9470 H   0  0  0  0  0  0  0  0  0  0  0  0
  139.1593   68.0403  225.2832 H   0  0  0  0  0  0  0  0  0  0  0  0
  139.7784   68.4272  227.6519 H   0  0  0  0  0  0  0  0  0  0  0  0
  140.7258   69.9062  229.3848 H   0  0  0  0  0  0  0  0  0  0  0  0
  141.5627   72.1852  228.8322 H   0  0  0  0  0  0  0  0  0  0  0  0
  141.4207   72.9528  226.4640 H   0  0  0  0  0  0  0  0  0  0  0  0
  143.6198   73.2502  218.0837 H   0  0  0  0  0  0  0  0  0  0  0  0
  142.7846   75.3999  221.0083 H   0  0  0  0  0  0  0  0  0  0  0  0
  142.2641   77.7710  220.6783 H   0  0  0  0  0  0  0  0  0  0  0  0
  142.4438   78.8398  218.4405 H   0  0  0  0  0  0  0  0  0  0  0  0
  143.1740   77.4266  216.5103 H   0  0  0  0  0  0  0  0  0  0  0  0
  143.6945   75.0539  216.8472 H   0  0  0  0  0  0  0  0  0  0  0  0
  1  2  1  0
  2  3  1  0
  3  4  1  0
  4  5  1  0
  5  6  1  0
  6  7  2  0
  6  8  1  0
  8  9  1  0
  9 10  1  0
 10 11  2  0
 10 12  1  0
 12 13  2  0
 13 14  1  0
 14 15  2  0
 15 16  1  0
 16 17  2  0
 17 18  1  0
 18 19  2  0
 19 20  1  0
 20 21  2  0
  5 22  1  0
 22 23  1  0
 23 24  2  0
 24 25  1  0
 25 26  2  0
 26 27  1  0
 27 28  2  0
 22  2  1  0
 28 23  1  0
 21 12  1  0
 20 15  1  0
  1 29  1  0
  1 30  1  0
  2 31  1  1
  3 32  1  0
  3 33  1  0
  4 34  1  0
  4 35  1  0
  8 36  1  0
  8 37  1  0
  9 38  1  0
 13 39  1  0
 14 40  1  0
 16 41  1  0
 17 42  1  0
 18 43  1  0
 19 44  1  0
 22 45  1  6
 24 46  1  0
 25 47  1  0
 26 48  1  0
 27 49  1  0
 28 50  1  0
M  END
>  <smiles>  (13) 
N[C@@H]1CCN(C(=O)CNC(=O)c2ccc3ccccc3n2)[C@H]1c1ccccc1

>  <score_type>  (13) 
oracle

>  <origin>  (13) 
autodockgpu

>  <m_score__min__energy>  (13) 
-8.8699999999999992

>  <m_primary>  (13) 
energy

>  <rmsd>  (13) 
3.3164176128445657

>  <m_score__min__rmsd>  (13) 
3.3164176128445657

>  <meeko>  (13) 
{"free_energy": -8.12, "intermolecular_energy": -9.91, "internal_energy": -1.77, "cluster_size": 11, "cluster_id": 2, "rank_in_cluster": 10}

>  <energy>  (13) 
-8.71

>  <cluster_rmsd>  (13) 
0.12

>  <cluster>  (13) 
2

$$$$

     RDKit          3D

 50 53  0  0  0  0  0  0  0  0999 V2000
  146.1410   73.4870  219.2780 N   0  0  0  0  0  0  0  0  0  0  0  0
  144.8730   73.4520  219.9730 C   0  0  2  0  0  0  0  0  0  0  0  0
  144.5610   72.0280  220.4560 C   0  0  0  0  0  0  0  0  0  0  0  0
  143.0510   72.2370  220.7240 C   0  0  0  0  0  0  0  0  0  0  0  0
  142.5600   72.9720  219.5770 N   0  0  0  0  0  0  0  0  0  0  0  0
  141.2880   73.0700  218.9900 C   0  0  0  0  0  0  0  0  0  0  0  0
  141.1690   72.6090  217.7810 O   0  0  0  0  0  0  0  0  0  0  0  0
  140.0590   73.6180  219.5490 C   0  0  0  0  0  0  0  0  0  0  0  0
  140.0650   74.9160  220.1120 N   0  0  0  0  0  0  0  0  0  0  0  0
  140.2080   75.1420  221.5150 C   0  0  0  0  0  0  0  0  0  0  0  0
  140.3500   74.1730  222.3380 O   0  0  0  0  0  0  0  0  0  0  0  0
  140.1950   76.5280  222.0350 C   0  0  0  0  0  0  0  0  0  0  0  0
  138.9910   77.1060  222.3800 C   0  0  0  0  0  0  0  0  0  0  0  0
  138.9440   78.4110  222.8730 C   0  0  0  0  0  0  0  0  0  0  0  0
  140.1450   79.0990  223.0030 C   0  0  0  0  0  0  0  0  0  0  0  0
  140.1920   80.3970  223.4830 C   0  0  0  0  0  0  0  0  0  0  0  0
  141.4110   81.0470  223.5970 C   0  0  0  0  0  0  0  0  0  0  0  0
  142.6080   80.4430  223.2440 C   0  0  0  0  0  0  0  0  0  0  0  0
  142.5490   79.1520  222.7670 C   0  0  0  0  0  0  0  0  0  0  0  0
  141.3410   78.4980  222.6510 C   0  0  0  0  0  0  0  0  0  0  0  0
  141.3370   77.2350  222.1780 N   0  0  0  0  0  0  0  0  0  0  0  0
  143.7260   73.6840  219.0640 C   0  0  1  0  0  0  0  0  0  0  0  0
  143.4540   75.0900  218.7410 C   0  0  0  0  0  0  0  0  0  0  0  0
  143.0600   76.0050  219.7080 C   0  0  0  0  0  0  0  0  0  0  0  0
  142.8100   77.3190  219.3840 C   0  0  0  0  0  0  0  0  0  0  0  0
  142.9370   77.7940  218.0910 C   0  0  0  0  0  0  0  0  0  0  0  0
  143.3270   76.8930  217.1200 C   0  0  0  0  0  0  0  0  0  0  0  0
  143.5760   75.5780  217.4540 C   0  0  0  0  0  0  0  0  0  0  0  0
  146.8190   74.1570  219.7090 H   0  0  0  0  0  0  0  0  0  0  0  0
  145.9200   73.8250  218.3000 H   0  0  0  0  0  0  0  0  0  0  0  0
  144.9751   74.2096  220.7640 H   0  0  0  0  0  0  0  0  0  0  0  0
  144.7485   71.2713  219.6799 H   0  0  0  0  0  0  0  0  0  0  0  0
  145.1606   71.6551  221.2995 H   0  0  0  0  0  0  0  0  0  0  0  0
  142.5369   71.2684  220.8104 H   0  0  0  0  0  0  0  0  0  0  0  0
  142.8714   72.7765  221.6656 H   0  0  0  0  0  0  0  0  0  0  0  0
  139.3148   73.6246  218.7390 H   0  0  0  0  0  0  0  0  0  0  0  0
  139.8548   72.9651  220.4104 H   0  0  0  0  0  0  0  0  0  0  0  0
  139.9640   75.7940  219.5220 H   0  0  0  0  0  0  0  0  0  0  0  0
  138.0590   76.5330  222.2655 H   0  0  0  0  0  0  0  0  0  0  0  0
  137.9880   78.8797  223.1496 H   0  0  0  0  0  0  0  0  0  0  0  0
  139.2639   80.9112  223.7732 H   0  0  0  0  0  0  0  0  0  0  0  0
  141.4293   82.0777  223.9808 H   0  0  0  0  0  0  0  0  0  0  0  0
  143.5667   80.9736  223.3410 H   0  0  0  0  0  0  0  0  0  0  0  0
  143.4763   78.6371  222.4754 H   0  0  0  0  0  0  0  0  0  0  0  0
  144.0029   73.2713  218.0827 H   0  0  0  0  0  0  0  0  0  0  0  0
  142.9457   75.6741  220.7508 H   0  0  0  0  0  0  0  0  0  0  0  0
  142.4993   78.0136  220.1784 H   0  0  0  0  0  0  0  0  0  0  0  0
  142.7354   78.8473  217.8461 H   0  0  0  0  0  0  0  0  0  0  0  0
  143.4394   77.2248  216.0773 H   0  0  0  0  0  0  0  0  0  0  0  0
  143.8864   74.8850  216.6581 H   0  0  0  0  0  0  0  0  0  0  0  0
  1  2  1  0
  2  3  1  0
  3  4  1  0
  4  5  1  0
  5  6  1  0
  6  7  2  0
  6  8  1  0
  8  9  1  0
  9 10  1  0
 10 11  2  0
 10 12  1  0
 12 13  2  0
 13 14  1  0
 14 15  2  0
 15 16  1  0
 16 17  2  0
 17 18  1  0
 18 19  2  0
 19 20  1  0
 20 21  2  0
  5 22  1  0
 22 23  1  0
 23 24  2  0
 24 25  1  0
 25 26  2  0
 26 27  1  0
 27 28  2  0
 22  2  1  0
 28 23  1  0
 21 12  1  0
 20 15  1  0
  1 29  1  0
  1 30  1  0
  2 31  1  1
  3 32  1  0
  3 33  1  0
  4 34  1  0
  4 35  1  0
  8 36  1  0
  8 37  1  0
  9 38  1  0
 13 39  1  0
 14 40  1  0
 16 41  1  0
 17 42  1  0
 18 43  1  0
 19 44  1  0
 22 45  1  6
 24 46  1  0
 25 47  1  0
 26 48  1  0
 27 49  1  0
 28 50  1  0
M  END
>  <smiles>  (14) 
N[C@@H]1CCN(C(=O)CNC(=O)c2ccc3ccccc3n2)[C@H]1c1ccccc1

>  <score_type>  (14) 
oracle

>  <origin>  (14) 
autodockgpu

>  <m_score__min__energy>  (14) 
-8.8699999999999992

>  <m_primary>  (14) 
energy

>  <rmsd>  (14) 
7.254937702989018

>  <m_score__min__rmsd>  (14) 
7.254937702989018

>  <meeko>  (14) 
{"free_energy": -7.75, "intermolecular_energy": -9.54, "internal_energy": -2.19, "cluster_size": 13, "cluster_id": 7, "rank_in_cluster": 9}

>  <energy>  (14) 
-8.53

>  <cluster_rmsd>  (14) 
0.56

>  <cluster>  (14) 
2

$$$$

     RDKit          3D

 50 53  0  0  0  0  0  0  0  0999 V2000
  142.1120   79.0880  218.0090 N   0  0  0  0  0  0  0  0  0  0  0  0
  142.5680   78.1160  218.9780 C   0  0  2  0  0  0  0  0  0  0  0  0
  142.8990   76.7830  218.2920 C   0  0  0  0  0  0  0  0  0  0  0  0
  142.9090   75.9030  219.5640 C   0  0  0  0  0  0  0  0  0  0  0  0
  141.7410   76.3110  220.3170 N   0  0  0  0  0  0  0  0  0  0  0  0
  140.9460   75.6460  221.2650 C   0  0  0  0  0  0  0  0  0  0  0  0
  140.7890   76.2400  222.4100 O   0  0  0  0  0  0  0  0  0  0  0  0
  140.2560   74.3680  221.1500 C   0  0  0  0  0  0  0  0  0  0  0  0
  140.0590   73.5740  222.3050 N   0  0  0  0  0  0  0  0  0  0  0  0
  140.5190   72.2240  222.3960 C   0  0  0  0  0  0  0  0  0  0  0  0
  141.1460   71.6660  221.4310 O   0  0  0  0  0  0  0  0  0  0  0  0
  140.2680   71.4500  223.6320 C   0  0  0  0  0  0  0  0  0  0  0  0
  139.5900   70.2530  223.5500 C   0  0  0  0  0  0  0  0  0  0  0  0
  139.3360   69.4980  224.6960 C   0  0  0  0  0  0  0  0  0  0  0  0
  139.7910   69.9950  225.9120 C   0  0  0  0  0  0  0  0  0  0  0  0
  139.5840   69.3130  227.1000 C   0  0  0  0  0  0  0  0  0  0  0  0
  140.0550   69.8430  228.2910 C   0  0  0  0  0  0  0  0  0  0  0  0
  140.7350   71.0500  228.3470 C   0  0  0  0  0  0  0  0  0  0  0  0
  140.9340   71.7190  227.1590 C   0  0  0  0  0  0  0  0  0  0  0  0
  140.4710   71.1990  225.9700 C   0  0  0  0  0  0  0  0  0  0  0  0
  140.6910   71.8930  224.8350 N   0  0  0  0  0  0  0  0  0  0  0  0
  141.4870   77.6850  219.8950 C   0  0  1  0  0  0  0  0  0  0  0  0
  141.2100   78.5960  221.0130 C   0  0  0  0  0  0  0  0  0  0  0  0
  139.9290   79.0520  221.2900 C   0  0  0  0  0  0  0  0  0  0  0  0
  139.6910   79.9060  222.3440 C   0  0  0  0  0  0  0  0  0  0  0  0
  140.7040   80.3490  223.1730 C   0  0  0  0  0  0  0  0  0  0  0  0
  141.9830   79.9020  222.9070 C   0  0  0  0  0  0  0  0  0  0  0  0
  142.2130   79.0470  221.8500 C   0  0  0  0  0  0  0  0  0  0  0  0
  142.8640   79.3770  217.3410 H   0  0  0  0  0  0  0  0  0  0  0  0
  141.8260   79.9380  218.5710 H   0  0  0  0  0  0  0  0  0  0  0  0
  143.4103   78.6107  219.4837 H   0  0  0  0  0  0  0  0  0  0  0  0
  142.1228   76.4759  217.5757 H   0  0  0  0  0  0  0  0  0  0  0  0
  143.8104   76.7629  217.6764 H   0  0  0  0  0  0  0  0  0  0  0  0
  142.8431   74.8380  219.2968 H   0  0  0  0  0  0  0  0  0  0  0  0
  143.8358   76.0278  220.1431 H   0  0  0  0  0  0  0  0  0  0  0  0
  139.2600   74.5789  220.7335 H   0  0  0  0  0  0  0  0  0  0  0  0
  140.9370   73.7622  220.5342 H   0  0  0  0  0  0  0  0  0  0  0  0
  139.5590   73.9390  223.1690 H   0  0  0  0  0  0  0  0  0  0  0  0
  139.2454   69.8888  222.5709 H   0  0  0  0  0  0  0  0  0  0  0  0
  138.7943   68.5423  224.6390 H   0  0  0  0  0  0  0  0  0  0  0  0
  139.0470   68.3530  227.0981 H   0  0  0  0  0  0  0  0  0  0  0  0
  139.8833   69.2866  229.2243 H   0  0  0  0  0  0  0  0  0  0  0  0
  141.1008   71.4570  229.3012 H   0  0  0  0  0  0  0  0  0  0  0  0
  141.4691   72.6801  227.1598 H   0  0  0  0  0  0  0  0  0  0  0  0
  140.5458   77.7246  219.3270 H   0  0  0  0  0  0  0  0  0  0  0  0
  139.0901   78.7261  220.6575 H   0  0  0  0  0  0  0  0  0  0  0  0
  138.6619   80.2462  222.5319 H   0  0  0  0  0  0  0  0  0  0  0  0
  140.4995   81.0308  224.0117 H   0  0  0  0  0  0  0  0  0  0  0  0
  142.8210   80.2290  223.5402 H   0  0  0  0  0  0  0  0  0  0  0  0
  143.2429   78.7080  221.6643 H   0  0  0  0  0  0  0  0  0  0  0  0
  1  2  1  0
  2  3  1  0
  3  4  1  0
  4  5  1  0
  5  6  1  0
  6  7  2  0
  6  8  1  0
  8  9  1  0
  9 10  1  0
 10 11  2  0
 10 12  1  0
 12 13  2  0
 13 14  1  0
 14 15  2  0
 15 16  1  0
 16 17  2  0
 17 18  1  0
 18 19  2  0
 19 20  1  0
 20 21  2  0
  5 22  1  0
 22 23  1  0
 23 24  2  0
 24 25  1  0
 25 26  2  0
 26 27  1  0
 27 28  2  0
 22  2  1  0
 28 23  1  0
 21 12  1  0
 20 15  1  0
  1 29  1  0
  1 30  1  0
  2 31  1  1
  3 32  1  0
  3 33  1  0
  4 34  1  0
  4 35  1  0
  8 36  1  0
  8 37  1  0
  9 38  1  0
 13 39  1  0
 14 40  1  0
 16 41  1  0
 17 42  1  0
 18 43  1  0
 19 44  1  0
 22 45  1  6
 24 46  1  0
 25 47  1  0
 26 48  1  0
 27 49  1  0
 28 50  1  0
M  END
>  <smiles>  (15) 
N[C@@H]1CCN(C(=O)CNC(=O)c2ccc3ccccc3n2)[C@H]1c1ccccc1

>  <score_type>  (15) 
oracle

>  <origin>  (15) 
autodockgpu

>  <m_score__min__energy>  (15) 
-8.8699999999999992

>  <m_primary>  (15) 
energy

>  <rmsd>  (15) 
2.717220675713733

>  <m_score__min__rmsd>  (15) 
2.717220675713733

>  <meeko>  (15) 
{"free_energy": -8.6, "intermolecular_energy": -10.39, "internal_energy": -1.36, "cluster_size": 3, "cluster_id": 4, "rank_in_cluster": 1}

>  <energy>  (15) 
-8.2

>  <cluster_rmsd>  (15) 
1.19

>  <cluster>  (15) 
2

$$$$

     RDKit          3D

 50 53  0  0  0  0  0  0  0  0999 V2000
  146.0160   73.4310  218.9360 N   0  0  0  0  0  0  0  0  0  0  0  0
  145.0430   72.7260  219.7410 C   0  0  2  0  0  0  0  0  0  0  0  0
  145.1970   71.2080  219.5700 C   0  0  0  0  0  0  0  0  0  0  0  0
  143.8220   70.8020  220.1540 C   0  0  0  0  0  0  0  0  0  0  0  0
  142.8740   71.7250  219.5660 N   0  0  0  0  0  0  0  0  0  0  0  0
  141.4960   71.6310  219.3110 C   0  0  0  0  0  0  0  0  0  0  0  0
  141.1500   71.3090  218.1010 O   0  0  0  0  0  0  0  0  0  0  0  0
  140.3770   71.8410  220.2210 C   0  0  0  0  0  0  0  0  0  0  0  0
  140.3820   71.2150  221.4910 N   0  0  0  0  0  0  0  0  0  0  0  0
  140.3260   71.9570  222.7100 C   0  0  0  0  0  0  0  0  0  0  0  0
  140.2580   73.2340  222.7140 O   0  0  0  0  0  0  0  0  0  0  0  0
  140.3450   71.2360  224.0030 C   0  0  0  0  0  0  0  0  0  0  0  0
  140.7780   71.8940  225.1340 C   0  0  0  0  0  0  0  0  0  0  0  0
  140.8100   71.2430  226.3690 C   0  0  0  0  0  0  0  0  0  0  0  0
  140.3900   69.9190  226.4130 C   0  0  0  0  0  0  0  0  0  0  0  0
  140.3870   69.1950  227.5940 C   0  0  0  0  0  0  0  0  0  0  0  0
  139.9610   67.8770  227.5950 C   0  0  0  0  0  0  0  0  0  0  0  0
  139.5290   67.2370  226.4430 C   0  0  0  0  0  0  0  0  0  0  0  0
  139.5370   67.9660  225.2740 C   0  0  0  0  0  0  0  0  0  0  0  0
  139.9590   69.2790  225.2640 C   0  0  0  0  0  0  0  0  0  0  0  0
  139.9470   69.9480  224.0950 N   0  0  0  0  0  0  0  0  0  0  0  0
  143.6590   72.9120  219.2440 C   0  0  1  0  0  0  0  0  0  0  0  0
  143.0100   74.1670  219.6460 C   0  0  0  0  0  0  0  0  0  0  0  0
  142.3050   74.2830  220.8360 C   0  0  0  0  0  0  0  0  0  0  0  0
  141.7050   75.4690  221.1940 C   0  0  0  0  0  0  0  0  0  0  0  0
  141.7710   76.5960  220.3960 C   0  0  0  0  0  0  0  0  0  0  0  0
  142.4690   76.4930  219.2080 C   0  0  0  0  0  0  0  0  0  0  0  0
  143.0670   75.3010  218.8580 C   0  0  0  0  0  0  0  0  0  0  0  0
  146.6150   74.0770  219.5000 H   0  0  0  0  0  0  0  0  0  0  0  0
  145.4530   74.0130  218.2550 H   0  0  0  0  0  0  0  0  0  0  0  0
  145.2061   73.1076  220.7597 H   0  0  0  0  0  0  0  0  0  0  0  0
  145.3082   70.9139  218.5159 H   0  0  0  0  0  0  0  0  0  0  0  0
  146.0812   70.7506  220.0380 H   0  0  0  0  0  0  0  0  0  0  0  0
  143.5754   69.7665  219.8767 H   0  0  0  0  0  0  0  0  0  0  0  0
  143.8122   70.8462  221.2531 H   0  0  0  0  0  0  0  0  0  0  0  0
  140.3088   72.9244  220.3990 H   0  0  0  0  0  0  0  0  0  0  0  0
  139.5311   71.3656  219.7029 H   0  0  0  0  0  0  0  0  0  0  0  0
  140.4260   70.1600  221.6060 H   0  0  0  0  0  0  0  0  0  0  0  0
  141.1017   72.9429  225.0631 H   0  0  0  0  0  0  0  0  0  0  0  0
  141.1558   71.7605  227.2760 H   0  0  0  0  0  0  0  0  0  0  0  0
  140.7224   69.6661  228.5297 H   0  0  0  0  0  0  0  0  0  0  0  0
  139.9655   67.3184  228.5426 H   0  0  0  0  0  0  0  0  0  0  0  0
  139.1935   66.1896  226.4619 H   0  0  0  0  0  0  0  0  0  0  0  0
  139.2029   67.4953  224.3376 H   0  0  0  0  0  0  0  0  0  0  0  0
  143.7197   73.0235  218.1514 H   0  0  0  0  0  0  0  0  0  0  0  0
  142.2244   73.4128  221.5040 H   0  0  0  0  0  0  0  0  0  0  0  0
  141.1555   75.5217  222.1454 H   0  0  0  0  0  0  0  0  0  0  0  0
  141.2870   77.5375  220.6950 H   0  0  0  0  0  0  0  0  0  0  0  0
  142.5477   77.3636  218.5402 H   0  0  0  0  0  0  0  0  0  0  0  0
  143.6158   75.2501  217.9060 H   0  0  0  0  0  0  0  0  0  0  0  0
  1  2  1  0
  2  3  1  0
  3  4  1  0
  4  5  1  0
  5  6  1  0
  6  7  2  0
  6  8  1  0
  8  9  1  0
  9 10  1  0
 10 11  2  0
 10 12  1  0
 12 13  2  0
 13 14  1  0
 14 15  2  0
 15 16  1  0
 16 17  2  0
 17 18  1  0
 18 19  2  0
 19 20  1  0
 20 21  2  0
  5 22  1  0
 22 23  1  0
 23 24  2  0
 24 25  1  0
 25 26  2  0
 26 27  1  0
 27 28  2  0
 22  2  1  0
 28 23  1  0
 21 12  1  0
 20 15  1  0
  1 29  1  0
  1 30  1  0
  2 31  1  1
  3 32  1  0
  3 33  1  0
  4 34  1  0
  4 35  1  0
  8 36  1  0
  8 37  1  0
  9 38  1  0
 13 39  1  0
 14 40  1  0
 16 41  1  0
 17 42  1  0
 18 43  1  0
 19 44  1  0
 22 45  1  6
 24 46  1  0
 25 47  1  0
 26 48  1  0
 27 49  1  0
 28 50  1  0
M  END
>  <smiles>  (16) 
N[C@@H]1CCN(C(=O)CNC(=O)c2ccc3ccccc3n2)[C@H]1c1ccccc1

>  <score_type>  (16) 
oracle

>  <origin>  (16) 
autodockgpu

>  <m_score__min__energy>  (16) 
-8.8699999999999992

>  <m_primary>  (16) 
energy

>  <rmsd>  (16) 
4.403195912728179

>  <m_score__min__rmsd>  (16) 
4.403195912728179

>  <meeko>  (16) 
{"free_energy": -8.06, "intermolecular_energy": -9.85, "internal_energy": -1.76, "cluster_size": 11, "cluster_id": 2, "rank_in_cluster": 11}

>  <energy>  (16) 
-8.19

>  <cluster_rmsd>  (16) 
0.93

>  <cluster>  (16) 
2

$$$$

     RDKit          3D

 50 53  0  0  0  0  0  0  0  0999 V2000
  146.1080   73.5160  219.2370 N   0  0  0  0  0  0  0  0  0  0  0  0
  144.8470   73.4770  219.9460 C   0  0  2  0  0  0  0  0  0  0  0  0
  144.5550   72.0570  220.4510 C   0  0  0  0  0  0  0  0  0  0  0  0
  143.0460   72.2540  220.7320 C   0  0  0  0  0  0  0  0  0  0  0  0
  142.5360   72.9690  219.5800 N   0  0  0  0  0  0  0  0  0  0  0  0
  141.2560   73.0460  219.0060 C   0  0  0  0  0  0  0  0  0  0  0  0
  141.1130   72.5050  217.8340 O   0  0  0  0  0  0  0  0  0  0  0  0
  140.0440   73.6520  219.5420 C   0  0  0  0  0  0  0  0  0  0  0  0
  140.1030   74.9440  220.1160 N   0  0  0  0  0  0  0  0  0  0  0  0
  140.0370   75.1600  221.5260 C   0  0  0  0  0  0  0  0  0  0  0  0
  139.9320   74.1860  222.3470 O   0  0  0  0  0  0  0  0  0  0  0  0
  140.0940   76.5410  222.0550 C   0  0  0  0  0  0  0  0  0  0  0  0
  138.9320   77.1440  222.4900 C   0  0  0  0  0  0  0  0  0  0  0  0
  138.9500   78.4450  222.9940 C   0  0  0  0  0  0  0  0  0  0  0  0
  140.1740   79.1040  223.0420 C   0  0  0  0  0  0  0  0  0  0  0  0
  140.2860   80.3970  223.5260 C   0  0  0  0  0  0  0  0  0  0  0  0
  141.5250   81.0170  223.5570 C   0  0  0  0  0  0  0  0  0  0  0  0
  142.6790   80.3890  223.1150 C   0  0  0  0  0  0  0  0  0  0  0  0
  142.5550   79.1040  222.6350 C   0  0  0  0  0  0  0  0  0  0  0  0
  141.3270   78.4780  222.6010 C   0  0  0  0  0  0  0  0  0  0  0  0
  141.2590   77.2210  222.1210 N   0  0  0  0  0  0  0  0  0  0  0  0
  143.6880   73.6860  219.0460 C   0  0  1  0  0  0  0  0  0  0  0  0
  143.3990   75.0850  218.7070 C   0  0  0  0  0  0  0  0  0  0  0  0
  143.0150   76.0100  219.6670 C   0  0  0  0  0  0  0  0  0  0  0  0
  142.7490   77.3180  219.3280 C   0  0  0  0  0  0  0  0  0  0  0  0
  142.8480   77.7740  218.0260 C   0  0  0  0  0  0  0  0  0  0  0  0
  143.2280   76.8620  217.0620 C   0  0  0  0  0  0  0  0  0  0  0  0
  143.4930   75.5540  217.4110 C   0  0  0  0  0  0  0  0  0  0  0  0
  146.8110   74.1390  219.6970 H   0  0  0  0  0  0  0  0  0  0  0  0
  145.8860   73.9160  218.2830 H   0  0  0  0  0  0  0  0  0  0  0  0
  144.9494   74.2458  220.7261 H   0  0  0  0  0  0  0  0  0  0  0  0
  144.7423   71.2919  219.6832 H   0  0  0  0  0  0  0  0  0  0  0  0
  145.1671   71.7017  221.2930 H   0  0  0  0  0  0  0  0  0  0  0  0
  142.5428   71.2814  220.8364 H   0  0  0  0  0  0  0  0  0  0  0  0
  142.8702   72.8038  221.6684 H   0  0  0  0  0  0  0  0  0  0  0  0
  139.3198   73.7024  218.7156 H   0  0  0  0  0  0  0  0  0  0  0  0
  139.7875   73.0041  220.3932 H   0  0  0  0  0  0  0  0  0  0  0  0
  140.1990   75.8240  219.5280 H   0  0  0  0  0  0  0  0  0  0  0  0
  137.9811   76.5933  222.4390 H   0  0  0  0  0  0  0  0  0  0  0  0
  138.0275   78.9330  223.3416 H   0  0  0  0  0  0  0  0  0  0  0  0
  139.3935   80.9305  223.8849 H   0  0  0  0  0  0  0  0  0  0  0  0
  141.5952   82.0435  223.9460 H   0  0  0  0  0  0  0  0  0  0  0  0
  143.6545   80.8964  223.1464 H   0  0  0  0  0  0  0  0  0  0  0  0
  143.4468   78.5705  222.2743 H   0  0  0  0  0  0  0  0  0  0  0  0
  143.9582   73.2638  218.0669 H   0  0  0  0  0  0  0  0  0  0  0  0
  142.9215   75.6934  220.7163 H   0  0  0  0  0  0  0  0  0  0  0  0
  142.4483   78.0223  220.1176 H   0  0  0  0  0  0  0  0  0  0  0  0
  142.6325   78.8216  217.7690 H   0  0  0  0  0  0  0  0  0  0  0  0
  143.3197   77.1791  216.0127 H   0  0  0  0  0  0  0  0  0  0  0  0
  143.7934   74.8512  216.6199 H   0  0  0  0  0  0  0  0  0  0  0  0
  1  2  1  0
  2  3  1  0
  3  4  1  0
  4  5  1  0
  5  6  1  0
  6  7  2  0
  6  8  1  0
  8  9  1  0
  9 10  1  0
 10 11  2  0
 10 12  1  0
 12 13  2  0
 13 14  1  0
 14 15  2  0
 15 16  1  0
 16 17  2  0
 17 18  1  0
 18 19  2  0
 19 20  1  0
 20 21  2  0
  5 22  1  0
 22 23  1  0
 23 24  2  0
 24 25  1  0
 25 26  2  0
 26 27  1  0
 27 28  2  0
 22  2  1  0
 28 23  1  0
 21 12  1  0
 20 15  1  0
  1 29  1  0
  1 30  1  0
  2 31  1  1
  3 32  1  0
  3 33  1  0
  4 34  1  0
  4 35  1  0
  8 36  1  0
  8 37  1  0
  9 38  1  0
 13 39  1  0
 14 40  1  0
 16 41  1  0
 17 42  1  0
 18 43  1  0
 19 44  1  0
 22 45  1  6
 24 46  1  0
 25 47  1  0
 26 48  1  0
 27 49  1  0
 28 50  1  0
M  END
>  <smiles>  (17) 
N[C@@H]1CCN(C(=O)CNC(=O)c2ccc3ccccc3n2)[C@H]1c1ccccc1

>  <score_type>  (17) 
oracle

>  <origin>  (17) 
autodockgpu

>  <m_score__min__energy>  (17) 
-8.8699999999999992

>  <m_primary>  (17) 
energy

>  <rmsd>  (17) 
7.255651013808542

>  <m_score__min__rmsd>  (17) 
7.255651013808542

>  <meeko>  (17) 
{"free_energy": -7.73, "intermolecular_energy": -9.52, "internal_energy": -2.18, "cluster_size": 13, "cluster_id": 7, "rank_in_cluster": 11}

>  <energy>  (17) 
-8.13

>  <cluster_rmsd>  (17) 
0.94

>  <cluster>  (17) 
2

$$$$

     RDKit          3D

 50 53  0  0  0  0  0  0  0  0999 V2000
  142.6180   79.0910  222.6480 N   0  0  0  0  0  0  0  0  0  0  0  0
  141.3360   78.7730  222.0590 C   0  0  2  0  0  0  0  0  0  0  0  0
  140.2550   78.6620  223.1440 C   0  0  0  0  0  0  0  0  0  0  0  0
  139.1970   77.9190  222.2940 C   0  0  0  0  0  0  0  0  0  0  0  0
  139.9330   76.8900  221.5870 N   0  0  0  0  0  0  0  0  0  0  0  0
  139.5480   75.6500  221.0530 C   0  0  0  0  0  0  0  0  0  0  0  0
  138.4430   75.6310  220.3690 O   0  0  0  0  0  0  0  0  0  0  0  0
  140.2190   74.3600  221.1490 C   0  0  0  0  0  0  0  0  0  0  0  0
  140.0500   73.5700  222.3120 N   0  0  0  0  0  0  0  0  0  0  0  0
  140.5120   72.2210  222.3940 C   0  0  0  0  0  0  0  0  0  0  0  0
  141.1130   71.6580  221.4160 O   0  0  0  0  0  0  0  0  0  0  0  0
  140.2920   71.4510  223.6390 C   0  0  0  0  0  0  0  0  0  0  0  0
  139.5970   70.2610  223.5810 C   0  0  0  0  0  0  0  0  0  0  0  0
  139.3720   69.5100  224.7360 C   0  0  0  0  0  0  0  0  0  0  0  0
  139.8710   70.0030  225.9360 C   0  0  0  0  0  0  0  0  0  0  0  0
  139.6950   69.3260  227.1310 C   0  0  0  0  0  0  0  0  0  0  0  0
  140.2090   69.8520  228.3050 C   0  0  0  0  0  0  0  0  0  0  0  0
  140.9050   71.0510  228.3380 C   0  0  0  0  0  0  0  0  0  0  0  0
  141.0730   71.7160  227.1430 C   0  0  0  0  0  0  0  0  0  0  0  0
  140.5660   71.2000  225.9700 C   0  0  0  0  0  0  0  0  0  0  0  0
  140.7580   71.8900  224.8280 N   0  0  0  0  0  0  0  0  0  0  0  0
  141.2970   77.4010  221.5000 C   0  0  1  0  0  0  0  0  0  0  0  0
  141.8920   77.2480  220.1660 C   0  0  0  0  0  0  0  0  0  0  0  0
  142.7330   76.1900  219.8520 C   0  0  0  0  0  0  0  0  0  0  0  0
  143.2800   76.0650  218.5950 C   0  0  0  0  0  0  0  0  0  0  0  0
  143.0240   76.9780  217.5890 C   0  0  0  0  0  0  0  0  0  0  0  0
  142.1900   78.0360  217.8890 C   0  0  0  0  0  0  0  0  0  0  0  0
  141.6460   78.1530  219.1510 C   0  0  0  0  0  0  0  0  0  0  0  0
  143.3290   79.3810  221.9370 H   0  0  0  0  0  0  0  0  0  0  0  0
  142.9520   78.1950  223.1020 H   0  0  0  0  0  0  0  0  0  0  0  0
  141.1773   79.5635  221.3107 H   0  0  0  0  0  0  0  0  0  0  0  0
  140.5885   78.0704  224.0093 H   0  0  0  0  0  0  0  0  0  0  0  0
  139.9329   79.6042  223.6115 H   0  0  0  0  0  0  0  0  0  0  0  0
  138.4292   77.4691  222.9406 H   0  0  0  0  0  0  0  0  0  0  0  0
  138.6729   78.5972  221.6046 H   0  0  0  0  0  0  0  0  0  0  0  0
  139.8721   73.7550  220.2983 H   0  0  0  0  0  0  0  0  0  0  0  0
  141.2863   74.6254  221.1704 H   0  0  0  0  0  0  0  0  0  0  0  0
  139.5730   73.9380  223.1860 H   0  0  0  0  0  0  0  0  0  0  0  0
  139.2160   69.8999  222.6143 H   0  0  0  0  0  0  0  0  0  0  0  0
  138.8185   68.5602  224.6978 H   0  0  0  0  0  0  0  0  0  0  0  0
  139.1479   68.3719  227.1481 H   0  0  0  0  0  0  0  0  0  0  0  0
  140.0598   69.2991  229.2442 H   0  0  0  0  0  0  0  0  0  0  0  0
  141.3064   71.4545  229.2793 H   0  0  0  0  0  0  0  0  0  0  0  0
  141.6187   72.6709  227.1250 H   0  0  0  0  0  0  0  0  0  0  0  0
  141.9598   76.7803  222.1208 H   0  0  0  0  0  0  0  0  0  0  0  0
  142.9666   75.4384  220.6205 H   0  0  0  0  0  0  0  0  0  0  0  0
  143.9416   75.2118  218.3844 H   0  0  0  0  0  0  0  0  0  0  0  0
  143.4676   76.8657  216.5887 H   0  0  0  0  0  0  0  0  0  0  0  0
  141.9587   78.7876  217.1199 H   0  0  0  0  0  0  0  0  0  0  0  0
  140.9850   79.0072  219.3595 H   0  0  0  0  0  0  0  0  0  0  0  0
  1  2  1  0
  2  3  1  0
  3  4  1  0
  4  5  1  0
  5  6  1  0
  6  7  2  0
  6  8  1  0
  8  9  1  0
  9 10  1  0
 10 11  2  0
 10 12  1  0
 12 13  2  0
 13 14  1  0
 14 15  2  0
 15 16  1  0
 16 17  2  0
 17 18  1  0
 18 19  2  0
 19 20  1  0
 20 21  2  0
  5 22  1  0
 22 23  1  0
 23 24  2  0
 24 25  1  0
 25 26  2  0
 26 27  1  0
 27 28  2  0
 22  2  1  0
 28 23  1  0
 21 12  1  0
 20 15  1  0
  1 29  1  0
  1 30  1  0
  2 31  1  6
  3 32  1  0
  3 33  1  0
  4 34  1  0
  4 35  1  0
  8 36  1  0
  8 37  1  0
  9 38  1  0
 13 39  1  0
 14 40  1  0
 16 41  1  0
 17 42  1  0
 18 43  1  0
 19 44  1  0
 22 45  1  1
 24 46  1  0
 25 47  1  0
 26 48  1  0
 27 49  1  0
 28 50  1  0
M  END
>  <smiles>  (18) 
N[C@@H]1CCN(C(=O)CNC(=O)c2ccc3ccccc3n2)[C@H]1c1ccccc1

>  <score_type>  (18) 
oracle

>  <origin>  (18) 
autodockgpu

>  <m_score__min__energy>  (18) 
-8.8699999999999992

>  <m_primary>  (18) 
energy

>  <rmsd>  (18) 
2.3875149731848904

>  <m_score__min__rmsd>  (18) 
2.3875149731848904

>  <meeko>  (18) 
{"free_energy": -8.71, "intermolecular_energy": -10.5, "internal_energy": -1.34, "cluster_size": 9, "cluster_id": 1, "rank_in_cluster": 7}

>  <energy>  (18) 
-8.12

>  <cluster_rmsd>  (18) 
1.38

>  <cluster>  (18) 
2

$$$$

     RDKit          3D

 50 53  0  0  0  0  0  0  0  0999 V2000
  146.1640   72.6680  221.5820 N   0  0  0  0  0  0  0  0  0  0  0  0
  145.3790   72.9140  220.3930 C   0  0  2  0  0  0  0  0  0  0  0  0
  144.6230   74.2460  220.5100 C   0  0  0  0  0  0  0  0  0  0  0  0
  143.6080   73.9980  219.3690 C   0  0  0  0  0  0  0  0  0  0  0  0
  143.1520   72.6360  219.5570 N   0  0  0  0  0  0  0  0  0  0  0  0
  141.9670   71.9770  219.1910 C   0  0  0  0  0  0  0  0  0  0  0  0
  142.0200   71.2390  218.1230 O   0  0  0  0  0  0  0  0  0  0  0  0
  140.6660   71.9950  219.8460 C   0  0  0  0  0  0  0  0  0  0  0  0
  140.5070   71.3630  221.1030 N   0  0  0  0  0  0  0  0  0  0  0  0
  140.4000   72.0990  222.3230 C   0  0  0  0  0  0  0  0  0  0  0  0
  140.4320   73.3780  222.3360 O   0  0  0  0  0  0  0  0  0  0  0  0
  140.2470   71.3720  223.6020 C   0  0  0  0  0  0  0  0  0  0  0  0
  139.6270   70.1400  223.6060 C   0  0  0  0  0  0  0  0  0  0  0  0
  139.4660   69.4280  224.7960 C   0  0  0  0  0  0  0  0  0  0  0  0
  139.9510   70.0020  225.9650 C   0  0  0  0  0  0  0  0  0  0  0  0
  139.8350   69.3670  227.1910 C   0  0  0  0  0  0  0  0  0  0  0  0
  140.3330   69.9740  228.3320 C   0  0  0  0  0  0  0  0  0  0  0  0
  140.9530   71.2130  228.3020 C   0  0  0  0  0  0  0  0  0  0  0  0
  141.0620   71.8360  227.0780 C   0  0  0  0  0  0  0  0  0  0  0  0
  140.5700   71.2390  225.9360 C   0  0  0  0  0  0  0  0  0  0  0  0
  140.7020   71.8900  224.7630 N   0  0  0  0  0  0  0  0  0  0  0  0
  144.2420   71.9720  220.2620 C   0  0  1  0  0  0  0  0  0  0  0  0
  144.5780   70.6540  219.7080 C   0  0  0  0  0  0  0  0  0  0  0  0
  143.8870   69.5060  220.0690 C   0  0  0  0  0  0  0  0  0  0  0  0
  144.2180   68.2800  219.5360 C   0  0  0  0  0  0  0  0  0  0  0  0
  145.2460   68.1290  218.6240 C   0  0  0  0  0  0  0  0  0  0  0  0
  145.9420   69.2650  218.2580 C   0  0  0  0  0  0  0  0  0  0  0  0
  145.6030   70.4880  218.7960 C   0  0  0  0  0  0  0  0  0  0  0  0
  146.9340   71.9780  221.4220 H   0  0  0  0  0  0  0  0  0  0  0  0
  145.4910   72.2530  222.2860 H   0  0  0  0  0  0  0  0  0  0  0  0
  146.1064   72.8515  219.5702 H   0  0  0  0  0  0  0  0  0  0  0  0
  144.1337   74.3661  221.4878 H   0  0  0  0  0  0  0  0  0  0  0  0
  145.2293   75.1607  220.4350 H   0  0  0  0  0  0  0  0  0  0  0  0
  142.7651   74.7009  219.4428 H   0  0  0  0  0  0  0  0  0  0  0  0
  144.0592   74.1477  218.3770 H   0  0  0  0  0  0  0  0  0  0  0  0
  140.3917   73.0515  219.9826 H   0  0  0  0  0  0  0  0  0  0  0  0
  140.0320   71.3966  219.1752 H   0  0  0  0  0  0  0  0  0  0  0  0
  140.4590   70.3070  221.2080 H   0  0  0  0  0  0  0  0  0  0  0  0
  139.2557   69.7142  222.6622 H   0  0  0  0  0  0  0  0  0  0  0  0
  138.9717   68.4454  224.8079 H   0  0  0  0  0  0  0  0  0  0  0  0
  139.3484   68.3828  227.2580 H   0  0  0  0  0  0  0  0  0  0  0  0
  140.2328   69.4542  229.2962 H   0  0  0  0  0  0  0  0  0  0  0  0
  141.3424   71.6802  229.2185 H   0  0  0  0  0  0  0  0  0  0  0  0
  141.5470   72.8210  227.0107 H   0  0  0  0  0  0  0  0  0  0  0  0
  143.9146   71.7168  221.2807 H   0  0  0  0  0  0  0  0  0  0  0  0
  143.0615   69.5764  220.7926 H   0  0  0  0  0  0  0  0  0  0  0  0
  143.6463   67.3928  219.8458 H   0  0  0  0  0  0  0  0  0  0  0  0
  145.4997   67.1435  218.2063 H   0  0  0  0  0  0  0  0  0  0  0  0
  146.7685   69.1933  217.5357 H   0  0  0  0  0  0  0  0  0  0  0  0
  146.1756   71.3741  218.4846 H   0  0  0  0  0  0  0  0  0  0  0  0
  1  2  1  0
  2  3  1  0
  3  4  1  0
  4  5  1  0
  5  6  1  0
  6  7  2  0
  6  8  1  0
  8  9  1  0
  9 10  1  0
 10 11  2  0
 10 12  1  0
 12 13  2  0
 13 14  1  0
 14 15  2  0
 15 16  1  0
 16 17  2  0
 17 18  1  0
 18 19  2  0
 19 20  1  0
 20 21  2  0
  5 22  1  0
 22 23  1  0
 23 24  2  0
 24 25  1  0
 25 26  2  0
 26 27  1  0
 27 28  2  0
 22  2  1  0
 28 23  1  0
 21 12  1  0
 20 15  1  0
  1 29  1  0
  1 30  1  0
  2 31  1  6
  3 32  1  0
  3 33  1  0
  4 34  1  0
  4 35  1  0
  8 36  1  0
  8 37  1  0
  9 38  1  0
 13 39  1  0
 14 40  1  0
 16 41  1  0
 17 42  1  0
 18 43  1  0
 19 44  1  0
 22 45  1  1
 24 46  1  0
 25 47  1  0
 26 48  1  0
 27 49  1  0
 28 50  1  0
M  END
>  <smiles>  (19) 
N[C@@H]1CCN(C(=O)CNC(=O)c2ccc3ccccc3n2)[C@H]1c1ccccc1

>  <score_type>  (19) 
oracle

>  <origin>  (19) 
autodockgpu

>  <m_score__min__energy>  (19) 
-8.8699999999999992

>  <m_primary>  (19) 
energy

>  <rmsd>  (19) 
4.287462812058919

>  <m_score__min__rmsd>  (19) 
4.287462812058919

>  <meeko>  (19) 
{"free_energy": -8.59, "intermolecular_energy": -10.38, "internal_energy": -1.48, "cluster_size": 3, "cluster_id": 3, "rank_in_cluster": 2}

>  <energy>  (19) 
-8.12

>  <cluster_rmsd>  (19) 
1.18

>  <cluster>  (19) 
2

$$$$

     RDKit          3D

 50 53  0  0  0  0  0  0  0  0999 V2000
  142.9500   79.3390  222.7070 N   0  0  0  0  0  0  0  0  0  0  0  0
  141.6020   79.1060  222.2380 C   0  0  2  0  0  0  0  0  0  0  0  0
  140.6340   78.9680  223.4220 C   0  0  0  0  0  0  0  0  0  0  0  0
  139.4630   78.3180  222.6460 C   0  0  0  0  0  0  0  0  0  0  0  0
  140.0790   77.3090  221.8080 N   0  0  0  0  0  0  0  0  0  0  0  0
  139.5880   76.1190  221.2460 C   0  0  0  0  0  0  0  0  0  0  0  0
  138.4320   76.1900  220.6560 O   0  0  0  0  0  0  0  0  0  0  0  0
  140.1960   74.7950  221.2210 C   0  0  0  0  0  0  0  0  0  0  0  0
  139.9360   73.8870  222.2760 N   0  0  0  0  0  0  0  0  0  0  0  0
  140.5370   72.5930  222.3390 C   0  0  0  0  0  0  0  0  0  0  0  0
  141.3550   72.1920  221.4410 O   0  0  0  0  0  0  0  0  0  0  0  0
  140.2110   71.6920  223.4660 C   0  0  0  0  0  0  0  0  0  0  0  0
  139.3930   70.6040  223.2430 C   0  0  0  0  0  0  0  0  0  0  0  0
  139.0660   69.7340  224.2850 C   0  0  0  0  0  0  0  0  0  0  0  0
  139.5910   70.0040  225.5430 C   0  0  0  0  0  0  0  0  0  0  0  0
  139.3200   69.1960  226.6350 C   0  0  0  0  0  0  0  0  0  0  0  0
  139.8640   69.5000  227.8720 C   0  0  0  0  0  0  0  0  0  0  0  0
  140.6850   70.5990  228.0700 C   0  0  0  0  0  0  0  0  0  0  0  0
  140.9480   71.3970  226.9780 C   0  0  0  0  0  0  0  0  0  0  0  0
  140.4110   71.1020  225.7430 C   0  0  0  0  0  0  0  0  0  0  0  0
  140.6980   71.9140  224.7060 N   0  0  0  0  0  0  0  0  0  0  0  0
  141.4470   77.7740  221.6080 C   0  0  1  0  0  0  0  0  0  0  0  0
  141.8960   77.6820  220.2130 C   0  0  0  0  0  0  0  0  0  0  0  0
  142.6420   76.6070  219.7490 C   0  0  0  0  0  0  0  0  0  0  0  0
  143.0520   76.5410  218.4370 C   0  0  0  0  0  0  0  0  0  0  0  0
  142.7460   77.5300  217.5200 C   0  0  0  0  0  0  0  0  0  0  0  0
  142.0050   78.6040  217.9700 C   0  0  0  0  0  0  0  0  0  0  0  0
  141.5980   78.6630  219.2860 C   0  0  0  0  0  0  0  0  0  0  0  0
  143.5600   79.7810  221.9810 H   0  0  0  0  0  0  0  0  0  0  0  0
  143.3430   78.3820  222.9300 H   0  0  0  0  0  0  0  0  0  0  0  0
  141.4018   79.9467  221.5574 H   0  0  0  0  0  0  0  0  0  0  0  0
  141.0287   78.3123  224.2121 H   0  0  0  0  0  0  0  0  0  0  0  0
  140.4022   79.8908  223.9741 H   0  0  0  0  0  0  0  0  0  0  0  0
  138.7470   77.8571  223.3423 H   0  0  0  0  0  0  0  0  0  0  0  0
  138.8998   79.0560  222.0559 H   0  0  0  0  0  0  0  0  0  0  0  0
  139.8647   74.3086  220.2917 H   0  0  0  0  0  0  0  0  0  0  0  0
  141.2716   75.0034  221.3195 H   0  0  0  0  0  0  0  0  0  0  0  0
  139.2810   74.1200  223.0790 H   0  0  0  0  0  0  0  0  0  0  0  0
  138.9944   70.4199  222.2344 H   0  0  0  0  0  0  0  0  0  0  0  0
  138.4146   68.8640  224.1158 H   0  0  0  0  0  0  0  0  0  0  0  0
  138.6733   68.3137  226.5199 H   0  0  0  0  0  0  0  0  0  0  0  0
  139.6365   68.8464  228.7270 H   0  0  0  0  0  0  0  0  0  0  0  0
  141.1096   70.8251  229.0593 H   0  0  0  0  0  0  0  0  0  0  0  0
  141.5940   72.2799  227.0929 H   0  0  0  0  0  0  0  0  0  0  0  0
  142.1423   77.0918  222.1191 H   0  0  0  0  0  0  0  0  0  0  0  0
  142.9096   75.7950  220.4411 H   0  0  0  0  0  0  0  0  0  0  0  0
  143.6423   75.6735  218.1069 H   0  0  0  0  0  0  0  0  0  0  0  0
  143.0798   77.4634  216.4740 H   0  0  0  0  0  0  0  0  0  0  0  0
  141.7384   79.4153  217.2766 H   0  0  0  0  0  0  0  0  0  0  0  0
  141.0083   79.5318  219.6137 H   0  0  0  0  0  0  0  0  0  0  0  0
  1  2  1  0
  2  3  1  0
  3  4  1  0
  4  5  1  0
  5  6  1  0
  6  7  2  0
  6  8  1  0
  8  9  1  0
  9 10  1  0
 10 11  2  0
 10 12  1  0
 12 13  2  0
 13 14  1  0
 14 15  2  0
 15 16  1  0
 16 17  2  0
 17 18  1  0
 18 19  2  0
 19 20  1  0
 20 21  2  0
  5 22  1  0
 22 23  1  0
 23 24  2  0
 24 25  1  0
 25 26  2  0
 26 27  1  0
 27 28  2  0
 22  2  1  0
 28 23  1  0
 21 12  1  0
 20 15  1  0
  1 29  1  0
  1 30  1  0
  2 31  1  6
  3 32  1  0
  3 33  1  0
  4 34  1  0
  4 35  1  0
  8 36  1  0
  8 37  1  0
  9 38  1  0
 13 39  1  0
 14 40  1  0
 16 41  1  0
 17 42  1  0
 18 43  1  0
 19 44  1  0
 22 45  1  1
 24 46  1  0
 25 47  1  0
 26 48  1  0
 27 49  1  0
 28 50  1  0
M  END
>  <smiles>  (20) 
N[C@@H]1CCN(C(=O)CNC(=O)c2ccc3ccccc3n2)[C@H]1c1ccccc1

>  <score_type>  (20) 
oracle

>  <origin>  (20) 
autodockgpu

>  <m_score__min__energy>  (20) 
-8.8699999999999992

>  <m_primary>  (20) 
energy

>  <rmsd>  (20) 
2.564689191516826

>  <m_score__min__rmsd>  (20) 
2.564689191516826

>  <meeko>  (20) 
{"free_energy": -8.87, "intermolecular_energy": -10.66, "internal_energy": -1.3, "cluster_size": 9, "cluster_id": 1, "rank_in_cluster": 2}

>  <energy>  (20) 
-8.06

>  <cluster_rmsd>  (20) 
0.81

>  <cluster>  (20) 
2

$$$$

     RDKit          3D

 50 53  0  0  0  0  0  0  0  0999 V2000
  142.9020   79.2570  222.5930 N   0  0  0  0  0  0  0  0  0  0  0  0
  141.5890   79.0030  222.0440 C   0  0  2  0  0  0  0  0  0  0  0  0
  140.5250   79.0350  223.1510 C   0  0  0  0  0  0  0  0  0  0  0  0
  139.3980   78.3250  222.3620 C   0  0  0  0  0  0  0  0  0  0  0  0
  140.0420   77.2060  221.7060 N   0  0  0  0  0  0  0  0  0  0  0  0
  139.5560   75.9690  221.2510 C   0  0  0  0  0  0  0  0  0  0  0  0
  138.3520   75.9630  220.7630 O   0  0  0  0  0  0  0  0  0  0  0  0
  140.2160   74.6700  221.2410 C   0  0  0  0  0  0  0  0  0  0  0  0
  140.0090   73.7740  222.3170 N   0  0  0  0  0  0  0  0  0  0  0  0
  140.5620   72.4560  222.3330 C   0  0  0  0  0  0  0  0  0  0  0  0
  141.2840   72.0220  221.3710 O   0  0  0  0  0  0  0  0  0  0  0  0
  140.2950   71.5690  223.4870 C   0  0  0  0  0  0  0  0  0  0  0  0
  139.6170   70.3850  223.2840 C   0  0  0  0  0  0  0  0  0  0  0  0
  139.3490   69.5260  224.3500 C   0  0  0  0  0  0  0  0  0  0  0  0
  139.7890   69.9040  225.6130 C   0  0  0  0  0  0  0  0  0  0  0  0
  139.5670   69.1140  226.7290 C   0  0  0  0  0  0  0  0  0  0  0  0
  140.0230   69.5280  227.9700 C   0  0  0  0  0  0  0  0  0  0  0  0
  140.7040   70.7230  228.1490 C   0  0  0  0  0  0  0  0  0  0  0  0
  140.9170   71.5010  227.0320 C   0  0  0  0  0  0  0  0  0  0  0  0
  140.4680   71.0960  225.7930 C   0  0  0  0  0  0  0  0  0  0  0  0
  140.7030   71.8950  224.7330 N   0  0  0  0  0  0  0  0  0  0  0  0
  141.4380   77.6080  221.5670 C   0  0  1  0  0  0  0  0  0  0  0  0
  141.9930   77.3350  220.2360 C   0  0  0  0  0  0  0  0  0  0  0  0
  142.7850   76.2230  219.9820 C   0  0  0  0  0  0  0  0  0  0  0  0
  143.2960   75.9860  218.7260 C   0  0  0  0  0  0  0  0  0  0  0  0
  143.0500   76.8330  217.6610 C   0  0  0  0  0  0  0  0  0  0  0  0
  142.2640   77.9420  217.9010 C   0  0  0  0  0  0  0  0  0  0  0  0
  141.7560   78.1720  219.1620 C   0  0  0  0  0  0  0  0  0  0  0  0
  143.5090   79.8140  221.9480 H   0  0  0  0  0  0  0  0  0  0  0  0
  143.3450   78.3050  222.7230 H   0  0  0  0  0  0  0  0  0  0  0  0
  141.4737   79.7591  221.2534 H   0  0  0  0  0  0  0  0  0  0  0  0
  140.8316   78.4706  224.0440 H   0  0  0  0  0  0  0  0  0  0  0  0
  140.2824   80.0236  223.5680 H   0  0  0  0  0  0  0  0  0  0  0  0
  138.6121   77.9714  223.0456 H   0  0  0  0  0  0  0  0  0  0  0  0
  138.9116   78.9997  221.6421 H   0  0  0  0  0  0  0  0  0  0  0  0
  139.8898   74.1526  220.3267 H   0  0  0  0  0  0  0  0  0  0  0  0
  141.2839   74.9226  221.3174 H   0  0  0  0  0  0  0  0  0  0  0  0
  139.4330   74.0320  223.1720 H   0  0  0  0  0  0  0  0  0  0  0  0
  139.2842   70.1153  222.2708 H   0  0  0  0  0  0  0  0  0  0  0  0
  138.8075   68.5810  224.1961 H   0  0  0  0  0  0  0  0  0  0  0  0
  139.0295   68.1594  226.6300 H   0  0  0  0  0  0  0  0  0  0  0  0
  139.8385   68.8864  228.8442 H   0  0  0  0  0  0  0  0  0  0  0  0
  141.0593   71.0366  229.1417 H   0  0  0  0  0  0  0  0  0  0  0  0
  141.4520   72.4571  227.1300 H   0  0  0  0  0  0  0  0  0  0  0  0
  142.0658   76.9759  222.2122 H   0  0  0  0  0  0  0  0  0  0  0  0
  143.0077   75.5198  220.7981 H   0  0  0  0  0  0  0  0  0  0  0  0
  143.9198   75.0945  218.5644 H   0  0  0  0  0  0  0  0  0  0  0  0
  143.4642   76.6310  216.6622 H   0  0  0  0  0  0  0  0  0  0  0  0
  142.0423   78.6443  217.0839 H   0  0  0  0  0  0  0  0  0  0  0  0
  141.1324   79.0641  219.3208 H   0  0  0  0  0  0  0  0  0  0  0  0
  1  2  1  0
  2  3  1  0
  3  4  1  0
  4  5  1  0
  5  6  1  0
  6  7  2  0
  6  8  1  0
  8  9  1  0
  9 10  1  0
 10 11  2  0
 10 12  1  0
 12 13  2  0
 13 14  1  0
 14 15  2  0
 15 16  1  0
 16 17  2  0
 17 18  1  0
 18 19  2  0
 19 20  1  0
 20 21  2  0
  5 22  1  0
 22 23  1  0
 23 24  2  0
 24 25  1  0
 25 26  2  0
 26 27  1  0
 27 28  2  0
 22  2  1  0
 28 23  1  0
 21 12  1  0
 20 15  1  0
  1 29  1  0
  1 30  1  0
  2 31  1  6
  3 32  1  0
  3 33  1  0
  4 34  1  0
  4 35  1  0
  8 36  1  0
  8 37  1  0
  9 38  1  0
 13 39  1  0
 14 40  1  0
 16 41  1  0
 17 42  1  0
 18 43  1  0
 19 44  1  0
 22 45  1  1
 24 46  1  0
 25 47  1  0
 26 48  1  0
 27 49  1  0
 28 50  1  0
M  END
>  <smiles>  (21) 
N[C@@H]1CCN(C(=O)CNC(=O)c2ccc3ccccc3n2)[C@H]1c1ccccc1

>  <score_type>  (21) 
oracle

>  <origin>  (21) 
autodockgpu

>  <m_score__min__energy>  (21) 
-8.8699999999999992

>  <m_primary>  (21) 
energy

>  <rmsd>  (21) 
2.5090064053490715

>  <m_score__min__rmsd>  (21) 
2.5090064053490715

>  <meeko>  (21) 
{"free_energy": -8.79, "intermolecular_energy": -10.58, "internal_energy": -1.33, "cluster_size": 9, "cluster_id": 1, "rank_in_cluster": 5}

>  <energy>  (21) 
-8.7

>  <cluster_rmsd>  (21) 
0.0

>  <cluster>  (21) 
3

$$$$

     RDKit          3D

 50 53  0  0  0  0  0  0  0  0999 V2000
  146.0880   73.3890  218.5760 N   0  0  0  0  0  0  0  0  0  0  0  0
  145.0590   73.3450  219.5920 C   0  0  2  0  0  0  0  0  0  0  0  0
  144.8820   71.9150  220.1220 C   0  0  0  0  0  0  0  0  0  0  0  0
  143.5060   72.1230  220.7970 C   0  0  0  0  0  0  0  0  0  0  0  0
  142.7230   72.8770  219.8390 N   0  0  0  0  0  0  0  0  0  0  0  0
  141.3400   72.9870  219.6260 C   0  0  0  0  0  0  0  0  0  0  0  0
  140.9130   74.1230  219.1620 O   0  0  0  0  0  0  0  0  0  0  0  0
  140.2940   71.9960  219.8480 C   0  0  0  0  0  0  0  0  0  0  0  0
  140.1840   71.3680  221.1110 N   0  0  0  0  0  0  0  0  0  0  0  0
  140.2150   72.1000  222.3370 C   0  0  0  0  0  0  0  0  0  0  0  0
  140.3360   73.3740  222.3520 O   0  0  0  0  0  0  0  0  0  0  0  0
  140.1050   71.3750  223.6220 C   0  0  0  0  0  0  0  0  0  0  0  0
  139.4630   70.1550  223.6540 C   0  0  0  0  0  0  0  0  0  0  0  0
  139.3410   69.4450  224.8500 C   0  0  0  0  0  0  0  0  0  0  0  0
  139.8880   70.0100  225.9960 C   0  0  0  0  0  0  0  0  0  0  0  0
  139.8140   69.3770  227.2260 C   0  0  0  0  0  0  0  0  0  0  0  0
  140.3720   69.9740  228.3450 C   0  0  0  0  0  0  0  0  0  0  0  0
  141.0130   71.2020  228.2870 C   0  0  0  0  0  0  0  0  0  0  0  0
  141.0800   71.8230  227.0590 C   0  0  0  0  0  0  0  0  0  0  0  0
  140.5280   71.2360  225.9400 C   0  0  0  0  0  0  0  0  0  0  0  0
  140.6200   71.8840  224.7620 N   0  0  0  0  0  0  0  0  0  0  0  0
  143.7080   73.5940  219.0360 C   0  0  1  0  0  0  0  0  0  0  0  0
  143.3670   75.0060  218.8210 C   0  0  0  0  0  0  0  0  0  0  0  0
  143.3600   75.5770  217.5560 C   0  0  0  0  0  0  0  0  0  0  0  0
  143.0360   76.9030  217.3770 C   0  0  0  0  0  0  0  0  0  0  0  0
  142.7050   77.7290  218.4360 C   0  0  0  0  0  0  0  0  0  0  0  0
  142.7090   77.1720  219.7000 C   0  0  0  0  0  0  0  0  0  0  0  0
  143.0340   75.8420  219.8700 C   0  0  0  0  0  0  0  0  0  0  0  0
  146.9820   73.8050  218.9250 H   0  0  0  0  0  0  0  0  0  0  0  0
  145.7080   74.0160  217.8130 H   0  0  0  0  0  0  0  0  0  0  0  0
  145.3796   74.0894  220.3357 H   0  0  0  0  0  0  0  0  0  0  0  0
  144.8442   71.1699  219.3137 H   0  0  0  0  0  0  0  0  0  0  0  0
  145.6877   71.5280  220.7632 H   0  0  0  0  0  0  0  0  0  0  0  0
  143.0293   71.1543  221.0076 H   0  0  0  0  0  0  0  0  0  0  0  0
  143.5953   72.6484  221.7593 H   0  0  0  0  0  0  0  0  0  0  0  0
  139.3336   72.4963  219.6551 H   0  0  0  0  0  0  0  0  0  0  0  0
  140.5724   71.1723  219.1742 H   0  0  0  0  0  0  0  0  0  0  0  0
  140.0700   70.3170  221.2170 H   0  0  0  0  0  0  0  0  0  0  0  0
  139.0426   69.7368  222.7275 H   0  0  0  0  0  0  0  0  0  0  0  0
  138.8295   68.4718  224.8841 H   0  0  0  0  0  0  0  0  0  0  0  0
  139.3129   68.4017  227.3142 H   0  0  0  0  0  0  0  0  0  0  0  0
  140.3041   69.4557  229.3129 H   0  0  0  0  0  0  0  0  0  0  0  0
  141.4505   71.6620  229.1853 H   0  0  0  0  0  0  0  0  0  0  0  0
  141.5799   72.7988  226.9701 H   0  0  0  0  0  0  0  0  0  0  0  0
  143.7023   73.1962  218.0105 H   0  0  0  0  0  0  0  0  0  0  0  0
  143.6175   74.9601  216.6824 H   0  0  0  0  0  0  0  0  0  0  0  0
  143.0405   77.3191  216.3588 H   0  0  0  0  0  0  0  0  0  0  0  0
  142.4489   78.7870  218.2779 H   0  0  0  0  0  0  0  0  0  0  0  0
  142.4525   77.7902  220.5730 H   0  0  0  0  0  0  0  0  0  0  0  0
  143.0278   75.4273  220.8888 H   0  0  0  0  0  0  0  0  0  0  0  0
  1  2  1  0
  2  3  1  0
  3  4  1  0
  4  5  1  0
  5  6  1  0
  6  7  2  0
  6  8  1  0
  8  9  1  0
  9 10  1  0
 10 11  2  0
 10 12  1  0
 12 13  2  0
 13 14  1  0
 14 15  2  0
 15 16  1  0
 16 17  2  0
 17 18  1  0
 18 19  2  0
 19 20  1  0
 20 21  2  0
  5 22  1  0
 22 23  1  0
 23 24  2  0
 24 25  1  0
 25 26  2  0
 26 27  1  0
 27 28  2  0
 22  2  1  0
 28 23  1  0
 21 12  1  0
 20 15  1  0
  1 29  1  0
  1 30  1  0
  2 31  1  1
  3 32  1  0
  3 33  1  0
  4 34  1  0
  4 35  1  0
  8 36  1  0
  8 37  1  0
  9 38  1  0
 13 39  1  0
 14 40  1  0
 16 41  1  0
 17 42  1  0
 18 43  1  0
 19 44  1  0
 22 45  1  6
 24 46  1  0
 25 47  1  0
 26 48  1  0
 27 49  1  0
 28 50  1  0
M  END
>  <smiles>  (22) 
N[C@@H]1CCN(C(=O)CNC(=O)c2ccc3ccccc3n2)[C@H]1c1ccccc1

>  <score_type>  (22) 
oracle

>  <origin>  (22) 
autodockgpu

>  <m_score__min__energy>  (22) 
-8.8699999999999992

>  <m_primary>  (22) 
energy

>  <rmsd>  (22) 
3.412049529024921

>  <m_score__min__rmsd>  (22) 
3.412049529024921

>  <meeko>  (22) 
{"free_energy": -8.74, "intermolecular_energy": -10.53, "internal_energy": -1.17, "cluster_size": 11, "cluster_id": 2, "rank_in_cluster": 2}

>  <energy>  (22) 
-8.59

>  <cluster_rmsd>  (22) 
0.17

>  <cluster>  (22) 
3

$$$$

     RDKit          3D

 50 53  0  0  0  0  0  0  0  0999 V2000
  143.6920   76.9970  218.6100 N   0  0  0  0  0  0  0  0  0  0  0  0
  142.4060   76.3350  218.6170 C   0  0  2  0  0  0  0  0  0  0  0  0
  141.2680   77.3660  218.6020 C   0  0  0  0  0  0  0  0  0  0  0  0
  140.1330   76.4130  219.0480 C   0  0  0  0  0  0  0  0  0  0  0  0
  140.6920   75.6410  220.1390 N   0  0  0  0  0  0  0  0  0  0  0  0
  140.1030   74.9810  221.2290 C   0  0  0  0  0  0  0  0  0  0  0  0
  140.0710   75.6320  222.3540 O   0  0  0  0  0  0  0  0  0  0  0  0
  139.5080   73.6520  221.2860 C   0  0  0  0  0  0  0  0  0  0  0  0
  139.6180   72.8870  222.4730 N   0  0  0  0  0  0  0  0  0  0  0  0
  139.6850   71.4600  222.4610 C   0  0  0  0  0  0  0  0  0  0  0  0
  139.6580   70.7990  221.3670 O   0  0  0  0  0  0  0  0  0  0  0  0
  139.7890   70.7250  223.7410 C   0  0  0  0  0  0  0  0  0  0  0  0
  139.3830   69.4080  223.7960 C   0  0  0  0  0  0  0  0  0  0  0  0
  139.4670   68.6870  224.9880 C   0  0  0  0  0  0  0  0  0  0  0  0
  139.9720   69.3400  226.1060 C   0  0  0  0  0  0  0  0  0  0  0  0
  140.0920   68.7020  227.3300 C   0  0  0  0  0  0  0  0  0  0  0  0
  140.6000   69.3890  228.4200 C   0  0  0  0  0  0  0  0  0  0  0  0
  141.0030   70.7140  228.3390 C   0  0  0  0  0  0  0  0  0  0  0  0
  140.8780   71.3380  227.1170 C   0  0  0  0  0  0  0  0  0  0  0  0
  140.3740   70.6620  226.0270 C   0  0  0  0  0  0  0  0  0  0  0  0
  140.2730   71.3180  224.8540 N   0  0  0  0  0  0  0  0  0  0  0  0
  142.1320   75.6510  219.9030 C   0  0  1  0  0  0  0  0  0  0  0  0
  142.7560   74.3310  220.0590 C   0  0  0  0  0  0  0  0  0  0  0  0
  142.1560   73.1720  219.5860 C   0  0  0  0  0  0  0  0  0  0  0  0
  142.7600   71.9450  219.7430 C   0  0  0  0  0  0  0  0  0  0  0  0
  143.9830   71.8020  220.3720 C   0  0  0  0  0  0  0  0  0  0  0  0
  144.5900   72.9480  220.8470 C   0  0  0  0  0  0  0  0  0  0  0  0
  143.9780   74.1740  220.6860 C   0  0  0  0  0  0  0  0  0  0  0  0
  144.4690   76.3660  218.3040 H   0  0  0  0  0  0  0  0  0  0  0  0
  143.8720   77.2800  219.6140 H   0  0  0  0  0  0  0  0  0  0  0  0
  142.4434   75.6575  217.7512 H   0  0  0  0  0  0  0  0  0  0  0  0
  141.4340   78.1846  219.3178 H   0  0  0  0  0  0  0  0  0  0  0  0
  141.1100   77.9067  217.6572 H   0  0  0  0  0  0  0  0  0  0  0  0
  139.2592   76.9872  219.3898 H   0  0  0  0  0  0  0  0  0  0  0  0
  139.7880   75.7707  218.2243 H   0  0  0  0  0  0  0  0  0  0  0  0
  138.4338   73.7738  221.0827 H   0  0  0  0  0  0  0  0  0  0  0  0
  140.0930   73.0764  220.5536 H   0  0  0  0  0  0  0  0  0  0  0  0
  139.6580   73.3330  223.4360 H   0  0  0  0  0  0  0  0  0  0  0  0
  138.9892   68.9212  222.8916 H   0  0  0  0  0  0  0  0  0  0  0  0
  139.1442   67.6368  225.0408 H   0  0  0  0  0  0  0  0  0  0  0  0
  139.7842   67.6513  227.4359 H   0  0  0  0  0  0  0  0  0  0  0  0
  140.6870   68.8657  229.3837 H   0  0  0  0  0  0  0  0  0  0  0  0
  141.4058   71.2446  229.2144 H   0  0  0  0  0  0  0  0  0  0  0  0
  141.1844   72.3890  227.0101 H   0  0  0  0  0  0  0  0  0  0  0  0
  142.6279   76.2355  220.6919 H   0  0  0  0  0  0  0  0  0  0  0  0
  141.1825   73.2351  219.0777 H   0  0  0  0  0  0  0  0  0  0  0  0
  142.2531   71.0490  219.3554 H   0  0  0  0  0  0  0  0  0  0  0  0
  144.4538   70.8148  220.4894 H   0  0  0  0  0  0  0  0  0  0  0  0
  145.5636   72.8831  221.3548 H   0  0  0  0  0  0  0  0  0  0  0  0
  144.4863   75.0686  221.0749 H   0  0  0  0  0  0  0  0  0  0  0  0
  1  2  1  0
  2  3  1  0
  3  4  1  0
  4  5  1  0
  5  6  1  0
  6  7  2  0
  6  8  1  0
  8  9  1  0
  9 10  1  0
 10 11  2  0
 10 12  1  0
 12 13  2  0
 13 14  1  0
 14 15  2  0
 15 16  1  0
 16 17  2  0
 17 18  1  0
 18 19  2  0
 19 20  1  0
 20 21  2  0
  5 22  1  0
 22 23  1  0
 23 24  2  0
 24 25  1  0
 25 26  2  0
 26 27  1  0
 27 28  2  0
 22  2  1  0
 28 23  1  0
 21 12  1  0
 20 15  1  0
  1 29  1  0
  1 30  1  0
  2 31  1  6
  3 32  1  0
  3 33  1  0
  4 34  1  0
  4 35  1  0
  8 36  1  0
  8 37  1  0
  9 38  1  0
 13 39  1  0
 14 40  1  0
 16 41  1  0
 17 42  1  0
 18 43  1  0
 19 44  1  0
 22 45  1  1
 24 46  1  0
 25 47  1  0
 26 48  1  0
 27 49  1  0
 28 50  1  0
M  END
>  <smiles>  (23) 
N[C@@H]1CCN(C(=O)CNC(=O)c2ccc3ccccc3n2)[C@H]1c1ccccc1

>  <score_type>  (23) 
oracle

>  <origin>  (23) 
autodockgpu

>  <m_score__min__energy>  (23) 
-8.8699999999999992

>  <m_primary>  (23) 
energy

>  <rmsd>  (23) 
2.0001979181925917

>  <m_score__min__rmsd>  (23) 
2.0001979181925917

>  <meeko>  (23) 
{"free_energy": -8.14, "intermolecular_energy": -9.93, "internal_energy": -1.95, "cluster_size": 9, "cluster_id": 5, "rank_in_cluster": 7}

>  <energy>  (23) 
-8.04

>  <cluster_rmsd>  (23) 
0.94

>  <cluster>  (23) 
3

$$$$

     RDKit          3D

 50 53  0  0  0  0  0  0  0  0999 V2000
  146.0170   73.3150  217.9090 N   0  0  0  0  0  0  0  0  0  0  0  0
  145.3170   73.3500  219.1750 C   0  0  2  0  0  0  0  0  0  0  0  0
  145.3040   71.9590  219.8240 C   0  0  0  0  0  0  0  0  0  0  0  0
  144.1730   72.2280  220.8450 C   0  0  0  0  0  0  0  0  0  0  0  0
  143.1480   72.9300  220.1000 N   0  0  0  0  0  0  0  0  0  0  0  0
  141.7600   73.0450  220.2780 C   0  0  0  0  0  0  0  0  0  0  0  0
  141.0150   72.7110  219.2670 O   0  0  0  0  0  0  0  0  0  0  0  0
  141.0180   73.4880  221.4520 C   0  0  0  0  0  0  0  0  0  0  0  0
  141.1010   74.8400  221.8620 N   0  0  0  0  0  0  0  0  0  0  0  0
  139.9470   75.6690  222.0060 C   0  0  0  0  0  0  0  0  0  0  0  0
  138.7700   75.2220  221.7790 O   0  0  0  0  0  0  0  0  0  0  0  0
  140.1100   77.0780  222.4290 C   0  0  0  0  0  0  0  0  0  0  0  0
  138.9870   77.8460  222.6600 C   0  0  0  0  0  0  0  0  0  0  0  0
  139.1060   79.1780  223.0580 C   0  0  0  0  0  0  0  0  0  0  0  0
  140.3860   79.6960  223.2140 C   0  0  0  0  0  0  0  0  0  0  0  0
  140.5990   81.0070  223.6070 C   0  0  0  0  0  0  0  0  0  0  0  0
  141.8920   81.4840  223.7500 C   0  0  0  0  0  0  0  0  0  0  0  0
  143.0050   80.6920  223.5130 C   0  0  0  0  0  0  0  0  0  0  0  0
  142.7810   79.3890  223.1220 C   0  0  0  0  0  0  0  0  0  0  0  0
  141.4980   78.9060  222.9780 C   0  0  0  0  0  0  0  0  0  0  0  0
  141.3330   77.6250  222.5930 N   0  0  0  0  0  0  0  0  0  0  0  0
  143.8630   73.5810  219.0070 C   0  0  1  0  0  0  0  0  0  0  0  0
  143.4680   74.9810  218.8050 C   0  0  0  0  0  0  0  0  0  0  0  0
  143.3290   75.5320  217.5380 C   0  0  0  0  0  0  0  0  0  0  0  0
  142.9570   76.8470  217.3720 C   0  0  0  0  0  0  0  0  0  0  0  0
  142.7040   77.6800  218.4450 C   0  0  0  0  0  0  0  0  0  0  0  0
  142.8400   77.1440  219.7110 C   0  0  0  0  0  0  0  0  0  0  0  0
  143.2130   75.8260  219.8690 C   0  0  0  0  0  0  0  0  0  0  0  0
  146.2920   74.2660  217.5730 H   0  0  0  0  0  0  0  0  0  0  0  0
  145.3310   72.9040  217.2160 H   0  0  0  0  0  0  0  0  0  0  0  0
  145.8303   74.1357  219.7487 H   0  0  0  0  0  0  0  0  0  0  0  0
  145.0433   71.1649  219.1088 H   0  0  0  0  0  0  0  0  0  0  0  0
  146.2597   71.6023  220.2355 H   0  0  0  0  0  0  0  0  0  0  0  0
  143.7799   71.2811  221.2436 H   0  0  0  0  0  0  0  0  0  0  0  0
  144.5276   72.8121  221.7070 H   0  0  0  0  0  0  0  0  0  0  0  0
  139.9560   73.2779  221.2568 H   0  0  0  0  0  0  0  0  0  0  0  0
  141.4925   72.9388  222.2786 H   0  0  0  0  0  0  0  0  0  0  0  0
  142.0260   75.3120  222.0850 H   0  0  0  0  0  0  0  0  0  0  0  0
  137.9883   77.4038  222.5291 H   0  0  0  0  0  0  0  0  0  0  0  0
  138.2160   79.7976  223.2422 H   0  0  0  0  0  0  0  0  0  0  0  0
  139.7428   81.6686  223.8053 H   0  0  0  0  0  0  0  0  0  0  0  0
  142.0407   82.5281  224.0627 H   0  0  0  0  0  0  0  0  0  0  0  0
  144.0247   81.0869  223.6320 H   0  0  0  0  0  0  0  0  0  0  0  0
  143.6364   78.7269  222.9225 H   0  0  0  0  0  0  0  0  0  0  0  0
  143.5703   73.1185  218.0528 H   0  0  0  0  0  0  0  0  0  0  0  0
  143.5192   74.9076  216.6526 H   0  0  0  0  0  0  0  0  0  0  0  0
  142.8580   77.2475  216.3523 H   0  0  0  0  0  0  0  0  0  0  0  0
  142.4061   78.7285  218.2970 H   0  0  0  0  0  0  0  0  0  0  0  0
  142.6502   77.7702  220.5952 H   0  0  0  0  0  0  0  0  0  0  0  0
  143.3123   75.4282  220.8897 H   0  0  0  0  0  0  0  0  0  0  0  0
  1  2  1  0
  2  3  1  0
  3  4  1  0
  4  5  1  0
  5  6  1  0
  6  7  2  0
  6  8  1  0
  8  9  1  0
  9 10  1  0
 10 11  2  0
 10 12  1  0
 12 13  2  0
 13 14  1  0
 14 15  2  0
 15 16  1  0
 16 17  2  0
 17 18  1  0
 18 19  2  0
 19 20  1  0
 20 21  2  0
  5 22  1  0
 22 23  1  0
 23 24  2  0
 24 25  1  0
 25 26  2  0
 26 27  1  0
 27 28  2  0
 22  2  1  0
 28 23  1  0
 21 12  1  0
 20 15  1  0
  1 29  1  0
  1 30  1  0
  2 31  1  1
  3 32  1  0
  3 33  1  0
  4 34  1  0
  4 35  1  0
  8 36  1  0
  8 37  1  0
  9 38  1  0
 13 39  1  0
 14 40  1  0
 16 41  1  0
 17 42  1  0
 18 43  1  0
 19 44  1  0
 22 45  1  6
 24 46  1  0
 25 47  1  0
 26 48  1  0
 27 49  1  0
 28 50  1  0
M  END
>  <smiles>  (24) 
N[C@@H]1CCN(C(=O)CNC(=O)c2ccc3ccccc3n2)[C@H]1c1ccccc1

>  <score_type>  (24) 
oracle

>  <origin>  (24) 
autodockgpu

>  <m_score__min__energy>  (24) 
-8.8699999999999992

>  <m_primary>  (24) 
energy

>  <rmsd>  (24) 
7.6003591345121295

>  <m_score__min__rmsd>  (24) 
7.6003591345121295

>  <meeko>  (24) 
{"free_energy": -7.78, "intermolecular_energy": -9.57, "internal_energy": -2.18, "cluster_size": 13, "cluster_id": 7, "rank_in_cluster": 5}

>  <energy>  (24) 
-8.6

>  <cluster_rmsd>  (24) 
0.0

>  <cluster>  (24) 
4

$$$$

     RDKit          3D

 50 53  0  0  0  0  0  0  0  0999 V2000
  146.3110   73.3900  219.0780 N   0  0  0  0  0  0  0  0  0  0  0  0
  145.2170   72.7720  219.7940 C   0  0  2  0  0  0  0  0  0  0  0  0
  145.2870   71.2430  219.6740 C   0  0  0  0  0  0  0  0  0  0  0  0
  143.8370   70.9420  220.1220 C   0  0  0  0  0  0  0  0  0  0  0  0
  143.0160   71.9070  219.4190 N   0  0  0  0  0  0  0  0  0  0  0  0
  141.6670   71.8930  219.0260 C   0  0  0  0  0  0  0  0  0  0  0  0
  141.4320   71.6850  217.7650 O   0  0  0  0  0  0  0  0  0  0  0  0
  140.4720   72.0760  219.8390 C   0  0  0  0  0  0  0  0  0  0  0  0
  140.3690   71.4180  221.0880 N   0  0  0  0  0  0  0  0  0  0  0  0
  140.2880   72.1300  222.3240 C   0  0  0  0  0  0  0  0  0  0  0  0
  140.2960   73.4090  222.3610 O   0  0  0  0  0  0  0  0  0  0  0  0
  140.1930   71.3770  223.5940 C   0  0  0  0  0  0  0  0  0  0  0  0
  139.5990   70.1320  223.5960 C   0  0  0  0  0  0  0  0  0  0  0  0
  139.4920   69.3950  224.7760 C   0  0  0  0  0  0  0  0  0  0  0  0
  140.0050   69.9580  225.9390 C   0  0  0  0  0  0  0  0  0  0  0  0
  139.9430   69.2990  227.1560 C   0  0  0  0  0  0  0  0  0  0  0  0
  140.4670   69.8950  228.2920 C   0  0  0  0  0  0  0  0  0  0  0  0
  141.0610   71.1480  228.2640 C   0  0  0  0  0  0  0  0  0  0  0  0
  141.1160   71.7950  227.0490 C   0  0  0  0  0  0  0  0  0  0  0  0
  140.5980   71.2080  225.9130 C   0  0  0  0  0  0  0  0  0  0  0  0
  140.6770   71.8830  224.7490 N   0  0  0  0  0  0  0  0  0  0  0  0
  143.9060   73.0320  219.1540 C   0  0  1  0  0  0  0  0  0  0  0  0
  143.3040   74.3360  219.4590 C   0  0  0  0  0  0  0  0  0  0  0  0
  143.5660   75.4640  218.6940 C   0  0  0  0  0  0  0  0  0  0  0  0
  142.9900   76.6770  218.9980 C   0  0  0  0  0  0  0  0  0  0  0  0
  142.1300   76.8350  220.0690 C   0  0  0  0  0  0  0  0  0  0  0  0
  141.8630   75.7200  220.8380 C   0  0  0  0  0  0  0  0  0  0  0  0
  142.4430   74.5080  220.5260 C   0  0  0  0  0  0  0  0  0  0  0  0
  146.8000   74.1240  219.6420 H   0  0  0  0  0  0  0  0  0  0  0  0
  145.8720   73.8580  218.2370 H   0  0  0  0  0  0  0  0  0  0  0  0
  145.3009   73.1715  220.8155 H   0  0  0  0  0  0  0  0  0  0  0  0
  145.4848   70.9119  218.6438 H   0  0  0  0  0  0  0  0  0  0  0  0
  146.0871   70.7444  220.2408 H   0  0  0  0  0  0  0  0  0  0  0  0
  143.5518   69.9168  219.8434 H   0  0  0  0  0  0  0  0  0  0  0  0
  143.7189   71.0179  221.2130 H   0  0  0  0  0  0  0  0  0  0  0  0
  140.3826   73.1542  220.0375 H   0  0  0  0  0  0  0  0  0  0  0  0
  139.6774   71.6112  219.2369 H   0  0  0  0  0  0  0  0  0  0  0  0
  140.3440   70.3600  221.1750 H   0  0  0  0  0  0  0  0  0  0  0  0
  139.2053   69.7156  222.6570 H   0  0  0  0  0  0  0  0  0  0  0  0
  139.0179   68.4024  224.7857 H   0  0  0  0  0  0  0  0  0  0  0  0
  139.4784   68.3040  227.2205 H   0  0  0  0  0  0  0  0  0  0  0  0
  140.4099   69.3557  229.2490 H   0  0  0  0  0  0  0  0  0  0  0  0
  141.4718   71.6068  229.1755 H   0  0  0  0  0  0  0  0  0  0  0  0
  141.5782   72.7910  226.9839 H   0  0  0  0  0  0  0  0  0  0  0  0
  144.0845   73.1092  218.0713 H   0  0  0  0  0  0  0  0  0  0  0  0
  144.2443   75.3877  217.8314 H   0  0  0  0  0  0  0  0  0  0  0  0
  143.2215   77.5487  218.3684 H   0  0  0  0  0  0  0  0  0  0  0  0
  141.6765   77.8104  220.2992 H   0  0  0  0  0  0  0  0  0  0  0  0
  141.1862   75.7983  221.7016 H   0  0  0  0  0  0  0  0  0  0  0  0
  142.2091   73.6374  221.1563 H   0  0  0  0  0  0  0  0  0  0  0  0
  1  2  1  0
  2  3  1  0
  3  4  1  0
  4  5  1  0
  5  6  1  0
  6  7  2  0
  6  8  1  0
  8  9  1  0
  9 10  1  0
 10 11  2  0
 10 12  1  0
 12 13  2  0
 13 14  1  0
 14 15  2  0
 15 16  1  0
 16 17  2  0
 17 18  1  0
 18 19  2  0
 19 20  1  0
 20 21  2  0
  5 22  1  0
 22 23  1  0
 23 24  2  0
 24 25  1  0
 25 26  2  0
 26 27  1  0
 27 28  2  0
 22  2  1  0
 28 23  1  0
 21 12  1  0
 20 15  1  0
  1 29  1  0
  1 30  1  0
  2 31  1  1
  3 32  1  0
  3 33  1  0
  4 34  1  0
  4 35  1  0
  8 36  1  0
  8 37  1  0
  9 38  1  0
 13 39  1  0
 14 40  1  0
 16 41  1  0
 17 42  1  0
 18 43  1  0
 19 44  1  0
 22 45  1  6
 24 46  1  0
 25 47  1  0
 26 48  1  0
 27 49  1  0
 28 50  1  0
M  END
>  <smiles>  (25) 
N[C@@H]1CCN(C(=O)CNC(=O)c2ccc3ccccc3n2)[C@H]1c1ccccc1

>  <score_type>  (25) 
oracle

>  <origin>  (25) 
autodockgpu

>  <m_score__min__energy>  (25) 
-8.8699999999999992

>  <m_primary>  (25) 
energy

>  <rmsd>  (25) 
3.7086102297944574

>  <m_score__min__rmsd>  (25) 
3.7086102297944574

>  <meeko>  (25) 
{"free_energy": -8.71, "intermolecular_energy": -10.5, "internal_energy": -1.48, "cluster_size": 11, "cluster_id": 2, "rank_in_cluster": 4}

>  <energy>  (25) 
-8.56

>  <cluster_rmsd>  (25) 
0.6

>  <cluster>  (25) 
4

$$$$

     RDKit          3D

 50 53  0  0  0  0  0  0  0  0999 V2000
  142.9460   79.3630  222.7020 N   0  0  0  0  0  0  0  0  0  0  0  0
  141.6000   79.1430  222.2210 C   0  0  2  0  0  0  0  0  0  0  0  0
  140.6050   79.1210  223.3910 C   0  0  0  0  0  0  0  0  0  0  0  0
  139.4270   78.4580  222.6370 C   0  0  0  0  0  0  0  0  0  0  0  0
  140.0220   77.3730  221.8840 N   0  0  0  0  0  0  0  0  0  0  0  0
  139.5010   76.1640  221.3950 C   0  0  0  0  0  0  0  0  0  0  0  0
  138.2830   76.1980  220.9440 O   0  0  0  0  0  0  0  0  0  0  0  0
  140.1370   74.8560  221.3120 C   0  0  0  0  0  0  0  0  0  0  0  0
  139.8880   73.8930  222.3200 N   0  0  0  0  0  0  0  0  0  0  0  0
  140.5920   72.6520  222.3840 C   0  0  0  0  0  0  0  0  0  0  0  0
  141.4950   72.3510  221.5310 O   0  0  0  0  0  0  0  0  0  0  0  0
  140.2720   71.6880  223.4600 C   0  0  0  0  0  0  0  0  0  0  0  0
  139.5200   70.5710  223.1620 C   0  0  0  0  0  0  0  0  0  0  0  0
  139.2000   69.6420  224.1540 C   0  0  0  0  0  0  0  0  0  0  0  0
  139.6660   69.8830  225.4410 C   0  0  0  0  0  0  0  0  0  0  0  0
  139.3970   69.0160  226.4880 C   0  0  0  0  0  0  0  0  0  0  0  0
  139.8800   69.2940  227.7560 C   0  0  0  0  0  0  0  0  0  0  0  0
  140.6350   70.4240  228.0310 C   0  0  0  0  0  0  0  0  0  0  0  0
  140.8950   71.2800  226.9820 C   0  0  0  0  0  0  0  0  0  0  0  0
  140.4190   71.0110  225.7170 C   0  0  0  0  0  0  0  0  0  0  0  0
  140.7020   71.8800  224.7260 N   0  0  0  0  0  0  0  0  0  0  0  0
  141.4100   77.7760  221.6820 C   0  0  1  0  0  0  0  0  0  0  0  0
  141.8820   77.5720  220.3060 C   0  0  0  0  0  0  0  0  0  0  0  0
  141.5940   78.4710  219.2880 C   0  0  0  0  0  0  0  0  0  0  0  0
  142.0470   78.2600  218.0050 C   0  0  0  0  0  0  0  0  0  0  0  0
  142.8040   77.1540  217.6660 C   0  0  0  0  0  0  0  0  0  0  0  0
  143.0960   76.2520  218.6700 C   0  0  0  0  0  0  0  0  0  0  0  0
  142.6380   76.4710  219.9520 C   0  0  0  0  0  0  0  0  0  0  0  0
  143.5570   79.8300  221.9930 H   0  0  0  0  0  0  0  0  0  0  0  0
  143.3400   78.4000  222.8940 H   0  0  0  0  0  0  0  0  0  0  0  0
  141.4429   79.9399  221.4792 H   0  0  0  0  0  0  0  0  0  0  0  0
  140.9613   78.5094  224.2330 H   0  0  0  0  0  0  0  0  0  0  0  0
  140.3952   80.0875  223.8726 H   0  0  0  0  0  0  0  0  0  0  0  0
  138.6823   78.0713  223.3482 H   0  0  0  0  0  0  0  0  0  0  0  0
  138.9017   79.1717  221.9853 H   0  0  0  0  0  0  0  0  0  0  0  0
  139.8234   74.4081  220.3575 H   0  0  0  0  0  0  0  0  0  0  0  0
  141.2071   75.0818  221.4300 H   0  0  0  0  0  0  0  0  0  0  0  0
  139.1660   74.0420  223.0850 H   0  0  0  0  0  0  0  0  0  0  0  0
  139.1687   70.4103  222.1321 H   0  0  0  0  0  0  0  0  0  0  0  0
  138.5993   68.7495  223.9247 H   0  0  0  0  0  0  0  0  0  0  0  0
  138.8008   68.1084  226.3124 H   0  0  0  0  0  0  0  0  0  0  0  0
  139.6567   68.5933  228.5740 H   0  0  0  0  0  0  0  0  0  0  0  0
  141.0109   70.6290  229.0442 H   0  0  0  0  0  0  0  0  0  0  0  0
  141.4896   72.1887  227.1569 H   0  0  0  0  0  0  0  0  0  0  0  0
  142.0703   77.1077  222.2541 H   0  0  0  0  0  0  0  0  0  0  0  0
  140.9944   79.3661  219.5099 H   0  0  0  0  0  0  0  0  0  0  0  0
  141.7987   78.9948  217.2250 H   0  0  0  0  0  0  0  0  0  0  0  0
  143.1598   76.9986  216.6368 H   0  0  0  0  0  0  0  0  0  0  0  0
  143.6952   75.3570  218.4466 H   0  0  0  0  0  0  0  0  0  0  0  0
  142.8863   75.7341  220.7300 H   0  0  0  0  0  0  0  0  0  0  0  0
  1  2  1  0
  2  3  1  0
  3  4  1  0
  4  5  1  0
  5  6  1  0
  6  7  2  0
  6  8  1  0
  8  9  1  0
  9 10  1  0
 10 11  2  0
 10 12  1  0
 12 13  2  0
 13 14  1  0
 14 15  2  0
 15 16  1  0
 16 17  2  0
 17 18  1  0
 18 19  2  0
 19 20  1  0
 20 21  2  0
  5 22  1  0
 22 23  1  0
 23 24  2  0
 24 25  1  0
 25 26  2  0
 26 27  1  0
 27 28  2  0
 22  2  1  0
 28 23  1  0
 21 12  1  0
 20 15  1  0
  1 29  1  0
  1 30  1  0
  2 31  1  6
  3 32  1  0
  3 33  1  0
  4 34  1  0
  4 35  1  0
  8 36  1  0
  8 37  1  0
  9 38  1  0
 13 39  1  0
 14 40  1  0
 16 41  1  0
 17 42  1  0
 18 43  1  0
 19 44  1  0
 22 45  1  1
 24 46  1  0
 25 47  1  0
 26 48  1  0
 27 49  1  0
 28 50  1  0
M  END
>  <smiles>  (26) 
N[C@@H]1CCN(C(=O)CNC(=O)c2ccc3ccccc3n2)[C@H]1c1ccccc1

>  <score_type>  (26) 
oracle

>  <origin>  (26) 
autodockgpu

>  <m_score__min__energy>  (26) 
-8.8699999999999992

>  <m_primary>  (26) 
energy

>  <rmsd>  (26) 
2.594711666914926

>  <m_score__min__rmsd>  (26) 
2.594711666914926

>  <meeko>  (26) 
{"free_energy": -8.87, "intermolecular_energy": -10.66, "internal_energy": -1.31, "cluster_size": 9, "cluster_id": 1, "rank_in_cluster": 1}

>  <energy>  (26) 
-8.48

>  <cluster_rmsd>  (26) 
0.59

>  <cluster>  (26) 
4

$$$$

     RDKit          3D

 50 53  0  0  0  0  0  0  0  0999 V2000
  146.1280   73.4240  218.1450 N   0  0  0  0  0  0  0  0  0  0  0  0
  145.3600   73.4420  219.3700 C   0  0  2  0  0  0  0  0  0  0  0  0
  145.3590   72.0550  220.0280 C   0  0  0  0  0  0  0  0  0  0  0  0
  144.1650   72.2910  220.9850 C   0  0  0  0  0  0  0  0  0  0  0  0
  143.1600   72.9530  220.1800 N   0  0  0  0  0  0  0  0  0  0  0  0
  141.7610   73.0220  220.2830 C   0  0  0  0  0  0  0  0  0  0  0  0
  141.0820   72.5780  219.2680 O   0  0  0  0  0  0  0  0  0  0  0  0
  140.9440   73.5230  221.3810 C   0  0  0  0  0  0  0  0  0  0  0  0
  141.0770   74.8710  221.7920 N   0  0  0  0  0  0  0  0  0  0  0  0
  139.9490   75.7240  221.9980 C   0  0  0  0  0  0  0  0  0  0  0  0
  138.7530   75.3040  221.8280 O   0  0  0  0  0  0  0  0  0  0  0  0
  140.1640   77.1270  222.4180 C   0  0  0  0  0  0  0  0  0  0  0  0
  139.0710   77.9310  222.6620 C   0  0  0  0  0  0  0  0  0  0  0  0
  139.2380   79.2590  223.0600 C   0  0  0  0  0  0  0  0  0  0  0  0
  140.5370   79.7340  223.1990 C   0  0  0  0  0  0  0  0  0  0  0  0
  140.7980   81.0380  223.5890 C   0  0  0  0  0  0  0  0  0  0  0  0
  142.1070   81.4710  223.7170 C   0  0  0  0  0  0  0  0  0  0  0  0
  143.1900   80.6420  223.4660 C   0  0  0  0  0  0  0  0  0  0  0  0
  142.9190   79.3480  223.0780 C   0  0  0  0  0  0  0  0  0  0  0  0
  141.6190   78.9080  222.9490 C   0  0  0  0  0  0  0  0  0  0  0  0
  141.4070   77.6330  222.5670 N   0  0  0  0  0  0  0  0  0  0  0  0
  143.9100   73.6230  219.1230 C   0  0  1  0  0  0  0  0  0  0  0  0
  143.4790   75.0070  218.8900 C   0  0  0  0  0  0  0  0  0  0  0  0
  143.3710   75.5400  217.6130 C   0  0  0  0  0  0  0  0  0  0  0  0
  142.9640   76.8410  217.4170 C   0  0  0  0  0  0  0  0  0  0  0  0
  142.6470   77.6780  218.4710 C   0  0  0  0  0  0  0  0  0  0  0  0
  142.7520   77.1590  219.7470 C   0  0  0  0  0  0  0  0  0  0  0  0
  143.1590   75.8550  219.9340 C   0  0  0  0  0  0  0  0  0  0  0  0
  147.1150   73.7420  218.2820 H   0  0  0  0  0  0  0  0  0  0  0  0
  145.6480   74.1090  217.4970 H   0  0  0  0  0  0  0  0  0  0  0  0
  145.8149   74.2481  219.9643 H   0  0  0  0  0  0  0  0  0  0  0  0
  145.1646   71.2483  219.3059 H   0  0  0  0  0  0  0  0  0  0  0  0
  146.3026   71.7337  220.4932 H   0  0  0  0  0  0  0  0  0  0  0  0
  143.7829   71.3336  221.3688 H   0  0  0  0  0  0  0  0  0  0  0  0
  144.4519   72.8914  221.8609 H   0  0  0  0  0  0  0  0  0  0  0  0
  139.8932   73.3802  221.0885 H   0  0  0  0  0  0  0  0  0  0  0  0
  141.3026   72.9521  222.2502 H   0  0  0  0  0  0  0  0  0  0  0  0
  142.0220   75.3220  221.9710 H   0  0  0  0  0  0  0  0  0  0  0  0
  138.0569   77.5222  222.5419 H   0  0  0  0  0  0  0  0  0  0  0  0
  138.3713   79.9071  223.2568 H   0  0  0  0  0  0  0  0  0  0  0  0
  139.9667   81.7279  223.7965 H   0  0  0  0  0  0  0  0  0  0  0  0
  142.2944   82.5091  224.0287 H   0  0  0  0  0  0  0  0  0  0  0  0
  144.2236   81.0029  223.5724 H   0  0  0  0  0  0  0  0  0  0  0  0
  143.7497   78.6580  222.8687 H   0  0  0  0  0  0  0  0  0  0  0  0
  143.6848   73.1467  218.1574 H   0  0  0  0  0  0  0  0  0  0  0  0
  143.6146   74.9127  216.7429 H   0  0  0  0  0  0  0  0  0  0  0  0
  142.8887   77.2265  216.3895 H   0  0  0  0  0  0  0  0  0  0  0  0
  142.3241   78.7156  218.3003 H   0  0  0  0  0  0  0  0  0  0  0  0
  142.5102   77.7880  220.6164 H   0  0  0  0  0  0  0  0  0  0  0  0
  143.2326   75.4713  220.9623 H   0  0  0  0  0  0  0  0  0  0  0  0
  1  2  1  0
  2  3  1  0
  3  4  1  0
  4  5  1  0
  5  6  1  0
  6  7  2  0
  6  8  1  0
  8  9  1  0
  9 10  1  0
 10 11  2  0
 10 12  1  0
 12 13  2  0
 13 14  1  0
 14 15  2  0
 15 16  1  0
 16 17  2  0
 17 18  1  0
 18 19  2  0
 19 20  1  0
 20 21  2  0
  5 22  1  0
 22 23  1  0
 23 24  2  0
 24 25  1  0
 25 26  2  0
 26 27  1  0
 27 28  2  0
 22  2  1  0
 28 23  1  0
 21 12  1  0
 20 15  1  0
  1 29  1  0
  1 30  1  0
  2 31  1  1
  3 32  1  0
  3 33  1  0
  4 34  1  0
  4 35  1  0
  8 36  1  0
  8 37  1  0
  9 38  1  0
 13 39  1  0
 14 40  1  0
 16 41  1  0
 17 42  1  0
 18 43  1  0
 19 44  1  0
 22 45  1  6
 24 46  1  0
 25 47  1  0
 26 48  1  0
 27 49  1  0
 28 50  1  0
M  END
>  <smiles>  (27) 
N[C@@H]1CCN(C(=O)CNC(=O)c2ccc3ccccc3n2)[C@H]1c1ccccc1

>  <score_type>  (27) 
oracle

>  <origin>  (27) 
autodockgpu

>  <m_score__min__energy>  (27) 
-8.8699999999999992

>  <m_primary>  (27) 
energy

>  <rmsd>  (27) 
7.6358994887094065

>  <m_score__min__rmsd>  (27) 
7.6358994887094065

>  <meeko>  (27) 
{"free_energy": -7.89, "intermolecular_energy": -9.68, "internal_energy": -2.17, "cluster_size": 13, "cluster_id": 7, "rank_in_cluster": 1}

>  <energy>  (27) 
-8.48

>  <cluster_rmsd>  (27) 
0.0

>  <cluster>  (27) 
5

$$$$

     RDKit          3D

 50 53  0  0  0  0  0  0  0  0999 V2000
  146.0280   73.4100  218.4800 N   0  0  0  0  0  0  0  0  0  0  0  0
  145.0270   73.3990  219.5240 C   0  0  2  0  0  0  0  0  0  0  0  0
  144.9040   71.9990  220.1410 C   0  0  0  0  0  0  0  0  0  0  0  0
  143.5400   72.2090  220.8400 C   0  0  0  0  0  0  0  0  0  0  0  0
  142.7130   72.8840  219.8600 N   0  0  0  0  0  0  0  0  0  0  0  0
  141.3210   72.9440  219.6780 C   0  0  0  0  0  0  0  0  0  0  0  0
  140.6450   71.8880  220.0190 O   0  0  0  0  0  0  0  0  0  0  0  0
  140.5090   74.0370  219.1590 C   0  0  0  0  0  0  0  0  0  0  0  0
  140.4800   75.2740  219.8460 N   0  0  0  0  0  0  0  0  0  0  0  0
  140.3580   75.3580  221.2670 C   0  0  0  0  0  0  0  0  0  0  0  0
  140.2780   74.3090  221.9950 O   0  0  0  0  0  0  0  0  0  0  0  0
  140.3230   76.6870  221.9180 C   0  0  0  0  0  0  0  0  0  0  0  0
  139.1230   77.1710  222.3960 C   0  0  0  0  0  0  0  0  0  0  0  0
  139.0550   78.4210  223.0140 C   0  0  0  0  0  0  0  0  0  0  0  0
  140.2330   79.1500  223.1300 C   0  0  0  0  0  0  0  0  0  0  0  0
  140.2600   80.3990  223.7290 C   0  0  0  0  0  0  0  0  0  0  0  0
  141.4550   81.0940  223.8240 C   0  0  0  0  0  0  0  0  0  0  0  0
  142.6480   80.5850  223.3360 C   0  0  0  0  0  0  0  0  0  0  0  0
  142.6100   79.3420  222.7410 C   0  0  0  0  0  0  0  0  0  0  0  0
  141.4250   78.6440  222.6430 C   0  0  0  0  0  0  0  0  0  0  0  0
  141.4410   77.4320  222.0530 N   0  0  0  0  0  0  0  0  0  0  0  0
  143.6560   73.5790  218.9910 C   0  0  1  0  0  0  0  0  0  0  0  0
  143.2690   74.9660  218.7020 C   0  0  0  0  0  0  0  0  0  0  0  0
  143.3180   75.9600  219.6700 C   0  0  0  0  0  0  0  0  0  0  0  0
  142.9510   77.2540  219.3780 C   0  0  0  0  0  0  0  0  0  0  0  0
  142.5200   77.6300  218.1190 C   0  0  0  0  0  0  0  0  0  0  0  0
  142.4670   76.6490  217.1480 C   0  0  0  0  0  0  0  0  0  0  0  0
  142.8360   75.3550  217.4490 C   0  0  0  0  0  0  0  0  0  0  0  0
  146.9490   73.7840  218.8070 H   0  0  0  0  0  0  0  0  0  0  0  0
  145.6540   74.0610  217.7340 H   0  0  0  0  0  0  0  0  0  0  0  0
  145.3451   74.1943  220.2141 H   0  0  0  0  0  0  0  0  0  0  0  0
  144.8669   71.2067  219.3788 H   0  0  0  0  0  0  0  0  0  0  0  0
  145.7364   71.6725  220.7818 H   0  0  0  0  0  0  0  0  0  0  0  0
  143.0963   71.2420  221.1192 H   0  0  0  0  0  0  0  0  0  0  0  0
  143.6380   72.7917  221.7678 H   0  0  0  0  0  0  0  0  0  0  0  0
  140.8679   74.2457  218.1403 H   0  0  0  0  0  0  0  0  0  0  0  0
  139.4795   73.6628  219.2598 H   0  0  0  0  0  0  0  0  0  0  0  0
  140.5470   76.2070  219.3430 H   0  0  0  0  0  0  0  0  0  0  0  0
  138.2105   76.5660  222.2892 H   0  0  0  0  0  0  0  0  0  0  0  0
  138.1019   78.8156  223.3961 H   0  0  0  0  0  0  0  0  0  0  0  0
  139.3341   80.8383  224.1286 H   0  0  0  0  0  0  0  0  0  0  0  0
  141.4568   82.0840  224.3034 H   0  0  0  0  0  0  0  0  0  0  0  0
  143.5879   81.1503  223.4201 H   0  0  0  0  0  0  0  0  0  0  0  0
  143.5351   78.9023  222.3401 H   0  0  0  0  0  0  0  0  0  0  0  0
  143.6361   73.1222  217.9905 H   0  0  0  0  0  0  0  0  0  0  0  0
  143.6555   75.7094  220.6865 H   0  0  0  0  0  0  0  0  0  0  0  0
  143.0022   78.0137  220.1719 H   0  0  0  0  0  0  0  0  0  0  0  0
  142.2310   78.6684  217.8996 H   0  0  0  0  0  0  0  0  0  0  0  0
  142.1295   76.9008  216.1318 H   0  0  0  0  0  0  0  0  0  0  0  0
  142.7831   74.5966  216.6540 H   0  0  0  0  0  0  0  0  0  0  0  0
  1  2  1  0
  2  3  1  0
  3  4  1  0
  4  5  1  0
  5  6  1  0
  6  7  2  0
  6  8  1  0
  8  9  1  0
  9 10  1  0
 10 11  2  0
 10 12  1  0
 12 13  2  0
 13 14  1  0
 14 15  2  0
 15 16  1  0
 16 17  2  0
 17 18  1  0
 18 19  2  0
 19 20  1  0
 20 21  2  0
  5 22  1  0
 22 23  1  0
 23 24  2  0
 24 25  1  0
 25 26  2  0
 26 27  1  0
 27 28  2  0
 22  2  1  0
 28 23  1  0
 21 12  1  0
 20 15  1  0
  1 29  1  0
  1 30  1  0
  2 31  1  1
  3 32  1  0
  3 33  1  0
  4 34  1  0
  4 35  1  0
  8 36  1  0
  8 37  1  0
  9 38  1  0
 13 39  1  0
 14 40  1  0
 16 41  1  0
 17 42  1  0
 18 43  1  0
 19 44  1  0
 22 45  1  6
 24 46  1  0
 25 47  1  0
 26 48  1  0
 27 49  1  0
 28 50  1  0
M  END
>  <smiles>  (28) 
N[C@@H]1CCN(C(=O)CNC(=O)c2ccc3ccccc3n2)[C@H]1c1ccccc1

>  <score_type>  (28) 
oracle

>  <origin>  (28) 
autodockgpu

>  <m_score__min__energy>  (28) 
-8.8699999999999992

>  <m_primary>  (28) 
energy

>  <rmsd>  (28) 
7.374218461582023

>  <m_score__min__rmsd>  (28) 
7.374218461582023

>  <meeko>  (28) 
{"free_energy": -7.73, "intermolecular_energy": -9.52, "internal_energy": -1.85, "cluster_size": 13, "cluster_id": 7, "rank_in_cluster": 10}

>  <energy>  (28) 
-8.37

>  <cluster_rmsd>  (28) 
0.76

>  <cluster>  (28) 
5

$$$$

     RDKit          3D

 50 53  0  0  0  0  0  0  0  0999 V2000
  142.9510   79.3470  222.7980 N   0  0  0  0  0  0  0  0  0  0  0  0
  141.6060   79.1250  222.3150 C   0  0  2  0  0  0  0  0  0  0  0  0
  140.6190   79.0360  223.4880 C   0  0  0  0  0  0  0  0  0  0  0  0
  139.4480   78.3860  222.7120 C   0  0  0  0  0  0  0  0  0  0  0  0
  140.0570   77.3450  221.9100 N   0  0  0  0  0  0  0  0  0  0  0  0
  139.5530   76.1490  221.3730 C   0  0  0  0  0  0  0  0  0  0  0  0
  138.3600   76.2010  220.8590 O   0  0  0  0  0  0  0  0  0  0  0  0
  140.1820   74.8370  221.3010 C   0  0  0  0  0  0  0  0  0  0  0  0
  139.9370   73.8870  222.3220 N   0  0  0  0  0  0  0  0  0  0  0  0
  140.6040   72.6250  222.3700 C   0  0  0  0  0  0  0  0  0  0  0  0
  141.4700   72.2920  221.4890 O   0  0  0  0  0  0  0  0  0  0  0  0
  140.2910   71.6760  223.4610 C   0  0  0  0  0  0  0  0  0  0  0  0
  139.5450   70.5500  223.1820 C   0  0  0  0  0  0  0  0  0  0  0  0
  139.2310   69.6360  224.1880 C   0  0  0  0  0  0  0  0  0  0  0  0
  139.6960   69.9010  225.4710 C   0  0  0  0  0  0  0  0  0  0  0  0
  139.4330   69.0490  226.5320 C   0  0  0  0  0  0  0  0  0  0  0  0
  139.9150   69.3490  227.7950 C   0  0  0  0  0  0  0  0  0  0  0  0
  140.6640   70.4880  228.0510 C   0  0  0  0  0  0  0  0  0  0  0  0
  140.9190   71.3280  226.9890 C   0  0  0  0  0  0  0  0  0  0  0  0
  140.4430   71.0370  225.7280 C   0  0  0  0  0  0  0  0  0  0  0  0
  140.7200   71.8920  224.7230 N   0  0  0  0  0  0  0  0  0  0  0  0
  141.4360   77.7800  221.7180 C   0  0  1  0  0  0  0  0  0  0  0  0
  141.9030   77.6420  220.3330 C   0  0  0  0  0  0  0  0  0  0  0  0
  142.6210   76.5350  219.9050 C   0  0  0  0  0  0  0  0  0  0  0  0
  143.0490   76.4260  218.6000 C   0  0  0  0  0  0  0  0  0  0  0  0
  142.7890   77.4030  217.6580 C   0  0  0  0  0  0  0  0  0  0  0  0
  142.0750   78.5110  218.0720 C   0  0  0  0  0  0  0  0  0  0  0  0
  141.6500   78.6110  219.3810 C   0  0  0  0  0  0  0  0  0  0  0  0
  143.1490   80.3560  222.9930 H   0  0  0  0  0  0  0  0  0  0  0  0
  143.5900   79.0310  222.0150 H   0  0  0  0  0  0  0  0  0  0  0  0
  141.4308   79.9503  221.6092 H   0  0  0  0  0  0  0  0  0  0  0  0
  140.9905   78.3949  224.3010 H   0  0  0  0  0  0  0  0  0  0  0  0
  140.3959   79.9771  224.0120 H   0  0  0  0  0  0  0  0  0  0  0  0
  138.7141   77.9562  223.4096 H   0  0  0  0  0  0  0  0  0  0  0  0
  138.9068   79.1179  222.0944 H   0  0  0  0  0  0  0  0  0  0  0  0
  139.8588   74.3792  220.3544 H   0  0  0  0  0  0  0  0  0  0  0  0
  141.2539   75.0594  221.4084 H   0  0  0  0  0  0  0  0  0  0  0  0
  139.2450   74.0620  223.1080 H   0  0  0  0  0  0  0  0  0  0  0  0
  139.1938   70.3707  222.1551 H   0  0  0  0  0  0  0  0  0  0  0  0
  138.6357   68.7362  223.9734 H   0  0  0  0  0  0  0  0  0  0  0  0
  138.8420   68.1354  226.3710 H   0  0  0  0  0  0  0  0  0  0  0  0
  139.6963   68.6600  228.6241 H   0  0  0  0  0  0  0  0  0  0  0  0
  141.0391   70.7115  229.0606 H   0  0  0  0  0  0  0  0  0  0  0  0
  141.5096   72.2421  227.1491 H   0  0  0  0  0  0  0  0  0  0  0  0
  142.1119   77.0998  222.2570 H   0  0  0  0  0  0  0  0  0  0  0  0
  142.8524   75.7311  220.6192 H   0  0  0  0  0  0  0  0  0  0  0  0
  143.6157   75.5328  218.2983 H   0  0  0  0  0  0  0  0  0  0  0  0
  143.1368   77.3025  216.6193 H   0  0  0  0  0  0  0  0  0  0  0  0
  141.8450   79.3147  217.3570 H   0  0  0  0  0  0  0  0  0  0  0  0
  141.0829   79.5046  219.6809 H   0  0  0  0  0  0  0  0  0  0  0  0
  1  2  1  0
  2  3  1  0
  3  4  1  0
  4  5  1  0
  5  6  1  0
  6  7  2  0
  6  8  1  0
  8  9  1  0
  9 10  1  0
 10 11  2  0
 10 12  1  0
 12 13  2  0
 13 14  1  0
 14 15  2  0
 15 16  1  0
 16 17  2  0
 17 18  1  0
 18 19  2  0
 19 20  1  0
 20 21  2  0
  5 22  1  0
 22 23  1  0
 23 24  2  0
 24 25  1  0
 25 26  2  0
 26 27  1  0
 27 28  2  0
 22  2  1  0
 28 23  1  0
 21 12  1  0
 20 15  1  0
  1 29  1  0
  1 30  1  0
  2 31  1  6
  3 32  1  0
  3 33  1  0
  4 34  1  0
  4 35  1  0
  8 36  1  0
  8 37  1  0
  9 38  1  0
 13 39  1  0
 14 40  1  0
 16 41  1  0
 17 42  1  0
 18 43  1  0
 19 44  1  0
 22 45  1  1
 24 46  1  0
 25 47  1  0
 26 48  1  0
 27 49  1  0
 28 50  1  0
M  END
>  <smiles>  (29) 
N[C@@H]1CCN(C(=O)CNC(=O)c2ccc3ccccc3n2)[C@H]1c1ccccc1

>  <score_type>  (29) 
oracle

>  <origin>  (29) 
autodockgpu

>  <m_score__min__energy>  (29) 
-8.8699999999999992

>  <m_primary>  (29) 
energy

>  <rmsd>  (29) 
2.6227428042526952

>  <m_score__min__rmsd>  (29) 
2.6227428042526952

>  <meeko>  (29) 
{"free_energy": -8.5, "intermolecular_energy": -10.29, "internal_energy": -1.29, "cluster_size": 9, "cluster_id": 1, "rank_in_cluster": 9}

>  <energy>  (29) 
-8.29

>  <cluster_rmsd>  (29) 
0.4

>  <cluster>  (29) 
5

$$$$

     RDKit          3D

 50 53  0  0  0  0  0  0  0  0999 V2000
  146.1650   73.3950  218.2000 N   0  0  0  0  0  0  0  0  0  0  0  0
  145.3740   73.4180  219.4110 C   0  0  2  0  0  0  0  0  0  0  0  0
  145.3600   72.0330  220.0740 C   0  0  0  0  0  0  0  0  0  0  0  0
  144.1490   72.2740  221.0080 C   0  0  0  0  0  0  0  0  0  0  0  0
  143.1590   72.9340  220.1820 N   0  0  0  0  0  0  0  0  0  0  0  0
  141.7590   73.0040  220.2590 C   0  0  0  0  0  0  0  0  0  0  0  0
  141.0980   72.5500  219.2360 O   0  0  0  0  0  0  0  0  0  0  0  0
  140.9220   73.5160  221.3360 C   0  0  0  0  0  0  0  0  0  0  0  0
  141.0670   74.8610  221.7550 N   0  0  0  0  0  0  0  0  0  0  0  0
  139.9470   75.7180  221.9790 C   0  0  0  0  0  0  0  0  0  0  0  0
  138.7470   75.3060  221.8190 O   0  0  0  0  0  0  0  0  0  0  0  0
  140.1740   77.1170  222.4060 C   0  0  0  0  0  0  0  0  0  0  0  0
  139.0880   77.9290  222.6570 C   0  0  0  0  0  0  0  0  0  0  0  0
  139.2680   79.2530  223.0610 C   0  0  0  0  0  0  0  0  0  0  0  0
  140.5710   79.7170  223.2000 C   0  0  0  0  0  0  0  0  0  0  0  0
  140.8430   81.0160  223.5960 C   0  0  0  0  0  0  0  0  0  0  0  0
  142.1570   81.4380  223.7230 C   0  0  0  0  0  0  0  0  0  0  0  0
  143.2320   80.6020  223.4640 C   0  0  0  0  0  0  0  0  0  0  0  0
  142.9490   79.3120  223.0700 C   0  0  0  0  0  0  0  0  0  0  0  0
  141.6450   78.8830  222.9430 C   0  0  0  0  0  0  0  0  0  0  0  0
  141.4220   77.6120  222.5540 N   0  0  0  0  0  0  0  0  0  0  0  0
  143.9290   73.5990  219.1360 C   0  0  1  0  0  0  0  0  0  0  0  0
  143.5040   74.9830  218.8900 C   0  0  0  0  0  0  0  0  0  0  0  0
  143.3880   75.5000  217.6070 C   0  0  0  0  0  0  0  0  0  0  0  0
  142.9870   76.8010  217.3990 C   0  0  0  0  0  0  0  0  0  0  0  0
  142.6820   77.6520  218.4450 C   0  0  0  0  0  0  0  0  0  0  0  0
  142.7940   77.1490  219.7260 C   0  0  0  0  0  0  0  0  0  0  0  0
  143.1960   75.8450  219.9260 C   0  0  0  0  0  0  0  0  0  0  0  0
  147.1350   73.7600  218.3440 H   0  0  0  0  0  0  0  0  0  0  0  0
  145.6680   74.0370  217.5230 H   0  0  0  0  0  0  0  0  0  0  0  0
  145.8181   74.2260  220.0110 H   0  0  0  0  0  0  0  0  0  0  0  0
  145.1781   71.2238  219.3515 H   0  0  0  0  0  0  0  0  0  0  0  0
  146.2946   71.7124  220.5574 H   0  0  0  0  0  0  0  0  0  0  0  0
  143.7590   71.3185  221.3886 H   0  0  0  0  0  0  0  0  0  0  0  0
  144.4206   72.8777  221.8865 H   0  0  0  0  0  0  0  0  0  0  0  0
  139.8771   73.3921  221.0151 H   0  0  0  0  0  0  0  0  0  0  0  0
  141.2476   72.9367  222.2126 H   0  0  0  0  0  0  0  0  0  0  0  0
  142.0170   75.3040  221.9270 H   0  0  0  0  0  0  0  0  0  0  0  0
  138.0701   77.5295  222.5377 H   0  0  0  0  0  0  0  0  0  0  0  0
  138.4072   79.9075  223.2627 H   0  0  0  0  0  0  0  0  0  0  0  0
  140.0178   81.7114  223.8093 H   0  0  0  0  0  0  0  0  0  0  0  0
  142.3538   82.4726  224.0405 H   0  0  0  0  0  0  0  0  0  0  0  0
  144.2689   80.9540  223.5687 H   0  0  0  0  0  0  0  0  0  0  0  0
  143.7734   78.6164  222.8543 H   0  0  0  0  0  0  0  0  0  0  0  0
  143.7211   73.1190  218.1684 H   0  0  0  0  0  0  0  0  0  0  0  0
  143.6201   74.8604  216.7427 H   0  0  0  0  0  0  0  0  0  0  0  0
  142.9068   77.1750  216.3676 H   0  0  0  0  0  0  0  0  0  0  0  0
  142.3627   78.6889  218.2639 H   0  0  0  0  0  0  0  0  0  0  0  0
  142.5620   77.7900  220.5893 H   0  0  0  0  0  0  0  0  0  0  0  0
  143.2753   75.4734  220.9583 H   0  0  0  0  0  0  0  0  0  0  0  0
  1  2  1  0
  2  3  1  0
  3  4  1  0
  4  5  1  0
  5  6  1  0
  6  7  2  0
  6  8  1  0
  8  9  1  0
  9 10  1  0
 10 11  2  0
 10 12  1  0
 12 13  2  0
 13 14  1  0
 14 15  2  0
 15 16  1  0
 16 17  2  0
 17 18  1  0
 18 19  2  0
 19 20  1  0
 20 21  2  0
  5 22  1  0
 22 23  1  0
 23 24  2  0
 24 25  1  0
 25 26  2  0
 26 27  1  0
 27 28  2  0
 22  2  1  0
 28 23  1  0
 21 12  1  0
 20 15  1  0
  1 29  1  0
  1 30  1  0
  2 31  1  1
  3 32  1  0
  3 33  1  0
  4 34  1  0
  4 35  1  0
  8 36  1  0
  8 37  1  0
  9 38  1  0
 13 39  1  0
 14 40  1  0
 16 41  1  0
 17 42  1  0
 18 43  1  0
 19 44  1  0
 22 45  1  6
 24 46  1  0
 25 47  1  0
 26 48  1  0
 27 49  1  0
 28 50  1  0
M  END
>  <smiles>  (30) 
N[C@@H]1CCN(C(=O)CNC(=O)c2ccc3ccccc3n2)[C@H]1c1ccccc1

>  <score_type>  (30) 
oracle

>  <origin>  (30) 
autodockgpu

>  <m_score__min__energy>  (30) 
-8.8699999999999992

>  <m_primary>  (30) 
energy

>  <rmsd>  (30) 
7.6288286904297475

>  <m_score__min__rmsd>  (30) 
7.6288286904297475

>  <meeko>  (30) 
{"free_energy": -7.89, "intermolecular_energy": -9.68, "internal_energy": -2.18, "cluster_size": 13, "cluster_id": 7, "rank_in_cluster": 2}

>  <energy>  (30) 
-8.2

>  <cluster_rmsd>  (30) 
0.38

>  <cluster>  (30) 
5

$$$$

     RDKit          3D

 50 53  0  0  0  0  0  0  0  0999 V2000
  142.6230   79.0690  222.6790 N   0  0  0  0  0  0  0  0  0  0  0  0
  141.3470   78.7760  222.0630 C   0  0  2  0  0  0  0  0  0  0  0  0
  140.2330   78.7380  223.1200 C   0  0  0  0  0  0  0  0  0  0  0  0
  139.1740   78.0030  222.2630 C   0  0  0  0  0  0  0  0  0  0  0  0
  139.8930   76.9270  221.6120 N   0  0  0  0  0  0  0  0  0  0  0  0
  139.4800   75.6840  221.1070 C   0  0  0  0  0  0  0  0  0  0  0  0
  138.3470   75.6640  220.4710 O   0  0  0  0  0  0  0  0  0  0  0  0
  140.1480   74.3910  221.1870 C   0  0  0  0  0  0  0  0  0  0  0  0
  139.9830   73.5910  222.3430 N   0  0  0  0  0  0  0  0  0  0  0  0
  140.4260   72.2340  222.4050 C   0  0  0  0  0  0  0  0  0  0  0  0
  141.0080   71.6750  221.4120 O   0  0  0  0  0  0  0  0  0  0  0  0
  140.2110   71.4530  223.6430 C   0  0  0  0  0  0  0  0  0  0  0  0
  139.5270   70.2570  223.5750 C   0  0  0  0  0  0  0  0  0  0  0  0
  139.3070   69.4960  224.7240 C   0  0  0  0  0  0  0  0  0  0  0  0
  139.8000   69.9850  225.9290 C   0  0  0  0  0  0  0  0  0  0  0  0
  139.6270   69.2970  227.1190 C   0  0  0  0  0  0  0  0  0  0  0  0
  140.1350   69.8190  228.2980 C   0  0  0  0  0  0  0  0  0  0  0  0
  140.8200   71.0240  228.3400 C   0  0  0  0  0  0  0  0  0  0  0  0
  140.9840   71.7000  227.1510 C   0  0  0  0  0  0  0  0  0  0  0  0
  140.4840   71.1870  225.9730 C   0  0  0  0  0  0  0  0  0  0  0  0
  140.6710   71.8880  224.8360 N   0  0  0  0  0  0  0  0  0  0  0  0
  141.2760   77.3880  221.5480 C   0  0  1  0  0  0  0  0  0  0  0  0
  141.9030   77.1710  220.2380 C   0  0  0  0  0  0  0  0  0  0  0  0
  142.7320   76.0860  219.9900 C   0  0  0  0  0  0  0  0  0  0  0  0
  143.3090   75.9000  218.7540 C   0  0  0  0  0  0  0  0  0  0  0  0
  143.0960   76.7760  217.7050 C   0  0  0  0  0  0  0  0  0  0  0  0
  142.2730   77.8600  217.9400 C   0  0  0  0  0  0  0  0  0  0  0  0
  141.6990   78.0370  219.1810 C   0  0  0  0  0  0  0  0  0  0  0  0
  143.3540   79.3440  221.9830 H   0  0  0  0  0  0  0  0  0  0  0  0
  142.9300   78.1670  223.1410 H   0  0  0  0  0  0  0  0  0  0  0  0
  141.2366   79.5460  221.2852 H   0  0  0  0  0  0  0  0  0  0  0  0
  140.5215   78.1645  224.0132 H   0  0  0  0  0  0  0  0  0  0  0  0
  139.9309   79.7053  223.5479 H   0  0  0  0  0  0  0  0  0  0  0  0
  138.3728   77.6012  222.9007 H   0  0  0  0  0  0  0  0  0  0  0  0
  138.6939   78.6753  221.5367 H   0  0  0  0  0  0  0  0  0  0  0  0
  139.7947   73.7951  220.3326 H   0  0  0  0  0  0  0  0  0  0  0  0
  141.2162   74.6531  221.2048 H   0  0  0  0  0  0  0  0  0  0  0  0
  139.5220   73.9550  223.2280 H   0  0  0  0  0  0  0  0  0  0  0  0
  139.1510   69.8994  222.6051 H   0  0  0  0  0  0  0  0  0  0  0  0
  138.7621   68.5416  224.6781 H   0  0  0  0  0  0  0  0  0  0  0  0
  139.0875   68.3384  227.1280 H   0  0  0  0  0  0  0  0  0  0  0  0
  139.9898   69.2580  229.2330 H   0  0  0  0  0  0  0  0  0  0  0  0
  141.2165   71.4240  229.2849 H   0  0  0  0  0  0  0  0  0  0  0  0
  141.5202   72.6604  227.1413 H   0  0  0  0  0  0  0  0  0  0  0  0
  141.8987   76.7655  222.2074 H   0  0  0  0  0  0  0  0  0  0  0  0
  142.9313   75.3626  220.7944 H   0  0  0  0  0  0  0  0  0  0  0  0
  143.9598   75.0274  218.5957 H   0  0  0  0  0  0  0  0  0  0  0  0
  143.5636   76.6157  216.7223 H   0  0  0  0  0  0  0  0  0  0  0  0
  142.0751   78.5836  217.1354 H   0  0  0  0  0  0  0  0  0  0  0  0
  141.0475   78.9094  219.3370 H   0  0  0  0  0  0  0  0  0  0  0  0
  1  2  1  0
  2  3  1  0
  3  4  1  0
  4  5  1  0
  5  6  1  0
  6  7  2  0
  6  8  1  0
  8  9  1  0
  9 10  1  0
 10 11  2  0
 10 12  1  0
 12 13  2  0
 13 14  1  0
 14 15  2  0
 15 16  1  0
 16 17  2  0
 17 18  1  0
 18 19  2  0
 19 20  1  0
 20 21  2  0
  5 22  1  0
 22 23  1  0
 23 24  2  0
 24 25  1  0
 25 26  2  0
 26 27  1  0
 27 28  2  0
 22  2  1  0
 28 23  1  0
 21 12  1  0
 20 15  1  0
  1 29  1  0
  1 30  1  0
  2 31  1  6
  3 32  1  0
  3 33  1  0
  4 34  1  0
  4 35  1  0
  8 36  1  0
  8 37  1  0
  9 38  1  0
 13 39  1  0
 14 40  1  0
 16 41  1  0
 17 42  1  0
 18 43  1  0
 19 44  1  0
 22 45  1  1
 24 46  1  0
 25 47  1  0
 26 48  1  0
 27 49  1  0
 28 50  1  0
M  END
>  <smiles>  (31) 
N[C@@H]1CCN(C(=O)CNC(=O)c2ccc3ccccc3n2)[C@H]1c1ccccc1

>  <score_type>  (31) 
oracle

>  <origin>  (31) 
autodockgpu

>  <m_score__min__energy>  (31) 
-8.8699999999999992

>  <m_primary>  (31) 
energy

>  <rmsd>  (31) 
2.3976070090386346

>  <m_score__min__rmsd>  (31) 
2.3976070090386346

>  <meeko>  (31) 
{"free_energy": -8.72, "intermolecular_energy": -10.51, "internal_energy": -1.35, "cluster_size": 9, "cluster_id": 1, "rank_in_cluster": 6}

>  <energy>  (31) 
-8.19

>  <cluster_rmsd>  (31) 
1.0

>  <cluster>  (31) 
5

$$$$

     RDKit          3D

 50 53  0  0  0  0  0  0  0  0999 V2000
  143.6250   76.9290  217.7500 N   0  0  0  0  0  0  0  0  0  0  0  0
  142.5250   76.0140  217.9630 C   0  0  2  0  0  0  0  0  0  0  0  0
  141.1810   76.7240  217.7440 C   0  0  0  0  0  0  0  0  0  0  0  0
  140.2870   75.6740  218.4470 C   0  0  0  0  0  0  0  0  0  0  0  0
  140.9870   75.3370  219.6690 N   0  0  0  0  0  0  0  0  0  0  0  0
  140.5440   74.8440  220.9070 C   0  0  0  0  0  0  0  0  0  0  0  0
  141.0860   75.3650  221.9670 O   0  0  0  0  0  0  0  0  0  0  0  0
  139.5460   73.8180  221.1840 C   0  0  0  0  0  0  0  0  0  0  0  0
  139.6380   73.0570  222.3740 N   0  0  0  0  0  0  0  0  0  0  0  0
  139.8630   71.6460  222.3660 C   0  0  0  0  0  0  0  0  0  0  0  0
  140.0020   70.9980  221.2720 O   0  0  0  0  0  0  0  0  0  0  0  0
  139.9370   70.9130  223.6490 C   0  0  0  0  0  0  0  0  0  0  0  0
  139.5110   69.6020  223.7000 C   0  0  0  0  0  0  0  0  0  0  0  0
  139.5670   68.8820  224.8950 C   0  0  0  0  0  0  0  0  0  0  0  0
  140.0650   69.5300  226.0190 C   0  0  0  0  0  0  0  0  0  0  0  0
  140.1570   68.8930  227.2460 C   0  0  0  0  0  0  0  0  0  0  0  0
  140.6590   69.5760  228.3420 C   0  0  0  0  0  0  0  0  0  0  0  0
  141.0820   70.8940  228.2640 C   0  0  0  0  0  0  0  0  0  0  0  0
  140.9840   71.5180  227.0390 C   0  0  0  0  0  0  0  0  0  0  0  0
  140.4870   70.8460  225.9430 C   0  0  0  0  0  0  0  0  0  0  0  0
  140.4130   71.5010  224.7670 N   0  0  0  0  0  0  0  0  0  0  0  0
  142.3900   75.6160  219.3840 C   0  0  1  0  0  0  0  0  0  0  0  0
  143.2980   74.5510  219.8280 C   0  0  0  0  0  0  0  0  0  0  0  0
  144.5210   74.8270  220.4250 C   0  0  0  0  0  0  0  0  0  0  0  0
  145.3560   73.8120  220.8340 C   0  0  0  0  0  0  0  0  0  0  0  0
  145.0270   72.4790  220.6750 C   0  0  0  0  0  0  0  0  0  0  0  0
  143.8130   72.1920  220.0820 C   0  0  0  0  0  0  0  0  0  0  0  0
  142.9820   73.2150  219.6750 C   0  0  0  0  0  0  0  0  0  0  0  0
  143.6110   77.3620  216.7980 H   0  0  0  0  0  0  0  0  0  0  0  0
  144.5020   76.3430  217.8320 H   0  0  0  0  0  0  0  0  0  0  0  0
  142.7341   75.1747  217.2834 H   0  0  0  0  0  0  0  0  0  0  0  0
  141.1405   77.7068  218.2365 H   0  0  0  0  0  0  0  0  0  0  0  0
  140.9213   76.9702  216.7038 H   0  0  0  0  0  0  0  0  0  0  0  0
  139.2980   76.0990  218.6736 H   0  0  0  0  0  0  0  0  0  0  0  0
  140.1151   74.7906  217.8145 H   0  0  0  0  0  0  0  0  0  0  0  0
  138.5675   74.3202  221.2007 H   0  0  0  0  0  0  0  0  0  0  0  0
  139.7130   73.0753  220.3899 H   0  0  0  0  0  0  0  0  0  0  0  0
  139.5460   73.4940  223.3380 H   0  0  0  0  0  0  0  0  0  0  0  0
  139.1235   69.1192  222.7907 H   0  0  0  0  0  0  0  0  0  0  0  0
  139.2282   67.8367  224.9451 H   0  0  0  0  0  0  0  0  0  0  0  0
  139.8322   67.8472  227.3498 H   0  0  0  0  0  0  0  0  0  0  0  0
  140.7242   69.0541  229.3081 H   0  0  0  0  0  0  0  0  0  0  0  0
  141.4797   71.4204  229.1442 H   0  0  0  0  0  0  0  0  0  0  0  0
  141.3062   72.5646  226.9348 H   0  0  0  0  0  0  0  0  0  0  0  0
  142.7227   76.4703  219.9919 H   0  0  0  0  0  0  0  0  0  0  0  0
  144.8273   75.8730  220.5734 H   0  0  0  0  0  0  0  0  0  0  0  0
  146.3169   74.0703  221.3029 H   0  0  0  0  0  0  0  0  0  0  0  0
  145.7047   71.6789  221.0074 H   0  0  0  0  0  0  0  0  0  0  0  0
  143.5082   71.1455  219.9340 H   0  0  0  0  0  0  0  0  0  0  0  0
  142.0216   72.9544  219.2061 H   0  0  0  0  0  0  0  0  0  0  0  0
  1  2  1  0
  2  3  1  0
  3  4  1  0
  4  5  1  0
  5  6  1  0
  6  7  2  0
  6  8  1  0
  8  9  1  0
  9 10  1  0
 10 11  2  0
 10 12  1  0
 12 13  2  0
 13 14  1  0
 14 15  2  0
 15 16  1  0
 16 17  2  0
 17 18  1  0
 18 19  2  0
 19 20  1  0
 20 21  2  0
  5 22  1  0
 22 23  1  0
 23 24  2  0
 24 25  1  0
 25 26  2  0
 26 27  1  0
 27 28  2  0
 22  2  1  0
 28 23  1  0
 21 12  1  0
 20 15  1  0
  1 29  1  0
  1 30  1  0
  2 31  1  6
  3 32  1  0
  3 33  1  0
  4 34  1  0
  4 35  1  0
  8 36  1  0
  8 37  1  0
  9 38  1  0
 13 39  1  0
 14 40  1  0
 16 41  1  0
 17 42  1  0
 18 43  1  0
 19 44  1  0
 22 45  1  1
 24 46  1  0
 25 47  1  0
 26 48  1  0
 27 49  1  0
 28 50  1  0
M  END
>  <smiles>  (32) 
N[C@@H]1CCN(C(=O)CNC(=O)c2ccc3ccccc3n2)[C@H]1c1ccccc1

>  <score_type>  (32) 
oracle

>  <origin>  (32) 
autodockgpu

>  <m_score__min__energy>  (32) 
-8.8699999999999992

>  <m_primary>  (32) 
energy

>  <rmsd>  (32) 
2.395260433633953

>  <m_score__min__rmsd>  (32) 
2.395260433633953

>  <meeko>  (32) 
{"free_energy": -8.2, "intermolecular_energy": -9.99, "internal_energy": -1.75, "cluster_size": 9, "cluster_id": 5, "rank_in_cluster": 4}

>  <energy>  (32) 
-8.15

>  <cluster_rmsd>  (32) 
0.42

>  <cluster>  (32) 
5

$$$$

     RDKit          3D

 50 53  0  0  0  0  0  0  0  0999 V2000
  141.6910   79.4730  218.4280 N   0  0  0  0  0  0  0  0  0  0  0  0
  142.1990   78.3760  219.2220 C   0  0  2  0  0  0  0  0  0  0  0  0
  142.3390   77.1090  218.3660 C   0  0  0  0  0  0  0  0  0  0  0  0
  142.4520   76.0950  219.5300 C   0  0  0  0  0  0  0  0  0  0  0  0
  141.4250   76.4860  220.4740 N   0  0  0  0  0  0  0  0  0  0  0  0
  140.7160   75.7690  221.4510 C   0  0  0  0  0  0  0  0  0  0  0  0
  140.9710   76.0680  222.6900 O   0  0  0  0  0  0  0  0  0  0  0  0
  139.7150   74.7240  221.2780 C   0  0  0  0  0  0  0  0  0  0  0  0
  139.5200   73.7670  222.3020 N   0  0  0  0  0  0  0  0  0  0  0  0
  140.4310   72.6900  222.5290 C   0  0  0  0  0  0  0  0  0  0  0  0
  141.4820   72.5430  221.8170 O   0  0  0  0  0  0  0  0  0  0  0  0
  140.1570   71.7200  223.6130 C   0  0  0  0  0  0  0  0  0  0  0  0
  139.3540   70.6290  223.3520 C   0  0  0  0  0  0  0  0  0  0  0  0
  139.0750   69.6950  224.3520 C   0  0  0  0  0  0  0  0  0  0  0  0
  139.6340   69.9050  225.6080 C   0  0  0  0  0  0  0  0  0  0  0  0
  139.4110   69.0310  226.6590 C   0  0  0  0  0  0  0  0  0  0  0  0
  139.9870   69.2770  227.8950 C   0  0  0  0  0  0  0  0  0  0  0  0
  140.7910   70.3810  228.1310 C   0  0  0  0  0  0  0  0  0  0  0  0
  141.0040   71.2440  227.0790 C   0  0  0  0  0  0  0  0  0  0  0  0
  140.4360   71.0070  225.8450 C   0  0  0  0  0  0  0  0  0  0  0  0
  140.6770   71.8820  224.8480 N   0  0  0  0  0  0  0  0  0  0  0  0
  141.2190   77.9100  220.2320 C   0  0  1  0  0  0  0  0  0  0  0  0
  141.1570   78.7080  221.4630 C   0  0  0  0  0  0  0  0  0  0  0  0
  139.9600   78.9590  222.1190 C   0  0  0  0  0  0  0  0  0  0  0  0
  139.9250   79.7090  223.2720 C   0  0  0  0  0  0  0  0  0  0  0  0
  141.0680   80.2480  223.8340 C   0  0  0  0  0  0  0  0  0  0  0  0
  142.2660   80.0060  223.1900 C   0  0  0  0  0  0  0  0  0  0  0  0
  142.2920   79.2530  222.0350 C   0  0  0  0  0  0  0  0  0  0  0  0
  142.3560   79.7700  217.6770 H   0  0  0  0  0  0  0  0  0  0  0  0
  141.5730   80.2800  219.1010 H   0  0  0  0  0  0  0  0  0  0  0  0
  143.1340   78.7628  219.6536 H   0  0  0  0  0  0  0  0  0  0  0  0
  141.4551   76.9283  217.7367 H   0  0  0  0  0  0  0  0  0  0  0  0
  143.1577   77.1033  217.6313 H   0  0  0  0  0  0  0  0  0  0  0  0
  142.2745   75.0713  219.1687 H   0  0  0  0  0  0  0  0  0  0  0  0
  143.4533   76.1010  219.9853 H   0  0  0  0  0  0  0  0  0  0  0  0
  138.7497   75.2285  221.1241 H   0  0  0  0  0  0  0  0  0  0  0  0
  140.1068   74.1284  220.4403 H   0  0  0  0  0  0  0  0  0  0  0  0
  138.6850   73.7980  222.9590 H   0  0  0  0  0  0  0  0  0  0  0  0
  138.9294   70.4935  222.3464 H   0  0  0  0  0  0  0  0  0  0  0  0
  138.4349   68.8229  224.1530 H   0  0  0  0  0  0  0  0  0  0  0  0
  138.7779   68.1434  226.5128 H   0  0  0  0  0  0  0  0  0  0  0  0
  139.7996   68.5713  228.7178 H   0  0  0  0  0  0  0  0  0  0  0  0
  141.2408   70.5607  229.1186 H   0  0  0  0  0  0  0  0  0  0  0  0
  141.6349   72.1332  227.2249 H   0  0  0  0  0  0  0  0  0  0  0  0
  140.2168   78.0658  219.8062 H   0  0  0  0  0  0  0  0  0  0  0  0
  139.0236   78.5515  221.7103 H   0  0  0  0  0  0  0  0  0  0  0  0
  138.9565   79.8856  223.7627 H   0  0  0  0  0  0  0  0  0  0  0  0
  141.0249   80.8454  224.7567 H   0  0  0  0  0  0  0  0  0  0  0  0
  143.2014   80.4149  223.5995 H   0  0  0  0  0  0  0  0  0  0  0  0
  143.2614   79.0776  221.5456 H   0  0  0  0  0  0  0  0  0  0  0  0
  1  2  1  0
  2  3  1  0
  3  4  1  0
  4  5  1  0
  5  6  1  0
  6  7  2  0
  6  8  1  0
  8  9  1  0
  9 10  1  0
 10 11  2  0
 10 12  1  0
 12 13  2  0
 13 14  1  0
 14 15  2  0
 15 16  1  0
 16 17  2  0
 17 18  1  0
 18 19  2  0
 19 20  1  0
 20 21  2  0
  5 22  1  0
 22 23  1  0
 23 24  2  0
 24 25  1  0
 25 26  2  0
 26 27  1  0
 27 28  2  0
 22  2  1  0
 28 23  1  0
 21 12  1  0
 20 15  1  0
  1 29  1  0
  1 30  1  0
  2 31  1  1
  3 32  1  0
  3 33  1  0
  4 34  1  0
  4 35  1  0
  8 36  1  0
  8 37  1  0
  9 38  1  0
 13 39  1  0
 14 40  1  0
 16 41  1  0
 17 42  1  0
 18 43  1  0
 19 44  1  0
 22 45  1  6
 24 46  1  0
 25 47  1  0
 26 48  1  0
 27 49  1  0
 28 50  1  0
M  END
>  <smiles>  (33) 
N[C@@H]1CCN(C(=O)CNC(=O)c2ccc3ccccc3n2)[C@H]1c1ccccc1

>  <score_type>  (33) 
oracle

>  <origin>  (33) 
autodockgpu

>  <m_score__min__energy>  (33) 
-8.8699999999999992

>  <m_primary>  (33) 
energy

>  <rmsd>  (33) 
2.770469329728782

>  <m_score__min__rmsd>  (33) 
2.770469329728782

>  <meeko>  (33) 
{"free_energy": -8.48, "intermolecular_energy": -10.27, "internal_energy": -1.31, "cluster_size": 3, "cluster_id": 4, "rank_in_cluster": 3}

>  <energy>  (33) 
-8.14

>  <cluster_rmsd>  (33) 
0.46

>  <cluster>  (33) 
5

$$$$

     RDKit          3D

 50 53  0  0  0  0  0  0  0  0999 V2000
  143.6240   77.0620  218.1000 N   0  0  0  0  0  0  0  0  0  0  0  0
  142.4820   76.1860  218.2530 C   0  0  2  0  0  0  0  0  0  0  0  0
  141.1740   76.9640  218.0520 C   0  0  0  0  0  0  0  0  0  0  0  0
  140.2240   75.9210  218.6890 C   0  0  0  0  0  0  0  0  0  0  0  0
  140.8900   75.4940  219.9020 N   0  0  0  0  0  0  0  0  0  0  0  0
  140.4080   74.9590  221.1080 C   0  0  0  0  0  0  0  0  0  0  0  0
  140.8240   75.5250  222.2010 O   0  0  0  0  0  0  0  0  0  0  0  0
  139.4890   73.8470  221.3180 C   0  0  0  0  0  0  0  0  0  0  0  0
  139.6010   73.0600  222.4880 N   0  0  0  0  0  0  0  0  0  0  0  0
  139.7170   71.6370  222.4470 C   0  0  0  0  0  0  0  0  0  0  0  0
  139.7350   71.0000  221.3380 O   0  0  0  0  0  0  0  0  0  0  0  0
  139.8200   70.8760  223.7120 C   0  0  0  0  0  0  0  0  0  0  0  0
  139.4220   69.5560  223.7380 C   0  0  0  0  0  0  0  0  0  0  0  0
  139.5050   68.8110  224.9160 C   0  0  0  0  0  0  0  0  0  0  0  0
  140.0010   69.4440  226.0490 C   0  0  0  0  0  0  0  0  0  0  0  0
  140.1190   68.7820  227.2600 C   0  0  0  0  0  0  0  0  0  0  0  0
  140.6190   69.4500  228.3670 C   0  0  0  0  0  0  0  0  0  0  0  0
  141.0130   70.7790  228.3140 C   0  0  0  0  0  0  0  0  0  0  0  0
  140.8900   71.4270  227.1050 C   0  0  0  0  0  0  0  0  0  0  0  0
  140.3950   70.7700  225.9990 C   0  0  0  0  0  0  0  0  0  0  0  0
  140.2950   71.4490  224.8390 N   0  0  0  0  0  0  0  0  0  0  0  0
  142.3090   75.7250  219.6500 C   0  0  1  0  0  0  0  0  0  0  0  0
  143.1630   74.6010  220.0530 C   0  0  0  0  0  0  0  0  0  0  0  0
  142.7060   73.2900  220.0490 C   0  0  0  0  0  0  0  0  0  0  0  0
  143.5240   72.2510  220.4300 C   0  0  0  0  0  0  0  0  0  0  0  0
  144.8310   72.4540  220.8320 C   0  0  0  0  0  0  0  0  0  0  0  0
  145.2980   73.7540  220.8400 C   0  0  0  0  0  0  0  0  0  0  0  0
  144.4710   74.7890  220.4570 C   0  0  0  0  0  0  0  0  0  0  0  0
  144.5000   76.5450  217.8550 H   0  0  0  0  0  0  0  0  0  0  0  0
  143.7620   77.5160  219.0460 H   0  0  0  0  0  0  0  0  0  0  0  0
  142.6647   75.3726  217.5354 H   0  0  0  0  0  0  0  0  0  0  0  0
  141.1684   77.9219  218.5927 H   0  0  0  0  0  0  0  0  0  0  0  0
  140.9417   77.2726  217.0220 H   0  0  0  0  0  0  0  0  0  0  0  0
  139.2509   76.3774  218.9231 H   0  0  0  0  0  0  0  0  0  0  0  0
  140.0234   75.0784  218.0109 H   0  0  0  0  0  0  0  0  0  0  0  0
  138.4724   74.2670  221.3115 H   0  0  0  0  0  0  0  0  0  0  0  0
  139.7450   73.1454  220.5103 H   0  0  0  0  0  0  0  0  0  0  0  0
  139.6060   73.4840  223.4620 H   0  0  0  0  0  0  0  0  0  0  0  0
  139.0354   69.0854  222.8220 H   0  0  0  0  0  0  0  0  0  0  0  0
  139.1883   67.7580  224.9460 H   0  0  0  0  0  0  0  0  0  0  0  0
  139.8164   67.7277  227.3431 H   0  0  0  0  0  0  0  0  0  0  0  0
  140.7063   68.9077  229.3200 H   0  0  0  0  0  0  0  0  0  0  0  0
  141.4078   71.2945  229.2019 H   0  0  0  0  0  0  0  0  0  0  0  0
  141.1905   72.4818  227.0210 H   0  0  0  0  0  0  0  0  0  0  0  0
  142.6698   76.5327  220.3038 H   0  0  0  0  0  0  0  0  0  0  0  0
  141.6729   73.0783  219.7361 H   0  0  0  0  0  0  0  0  0  0  0  0
  143.1250   71.2260  220.4141 H   0  0  0  0  0  0  0  0  0  0  0  0
  145.4736   71.6137  221.1335 H   0  0  0  0  0  0  0  0  0  0  0  0
  146.3316   73.9641  221.1525 H   0  0  0  0  0  0  0  0  0  0  0  0
  144.8718   75.8133  220.4739 H   0  0  0  0  0  0  0  0  0  0  0  0
  1  2  1  0
  2  3  1  0
  3  4  1  0
  4  5  1  0
  5  6  1  0
  6  7  2  0
  6  8  1  0
  8  9  1  0
  9 10  1  0
 10 11  2  0
 10 12  1  0
 12 13  2  0
 13 14  1  0
 14 15  2  0
 15 16  1  0
 16 17  2  0
 17 18  1  0
 18 19  2  0
 19 20  1  0
 20 21  2  0
  5 22  1  0
 22 23  1  0
 23 24  2  0
 24 25  1  0
 25 26  2  0
 26 27  1  0
 27 28  2  0
 22  2  1  0
 28 23  1  0
 21 12  1  0
 20 15  1  0
  1 29  1  0
  1 30  1  0
  2 31  1  6
  3 32  1  0
  3 33  1  0
  4 34  1  0
  4 35  1  0
  8 36  1  0
  8 37  1  0
  9 38  1  0
 13 39  1  0
 14 40  1  0
 16 41  1  0
 17 42  1  0
 18 43  1  0
 19 44  1  0
 22 45  1  1
 24 46  1  0
 25 47  1  0
 26 48  1  0
 27 49  1  0
 28 50  1  0
M  END
>  <smiles>  (34) 
N[C@@H]1CCN(C(=O)CNC(=O)c2ccc3ccccc3n2)[C@H]1c1ccccc1

>  <score_type>  (34) 
oracle

>  <origin>  (34) 
autodockgpu

>  <m_score__min__energy>  (34) 
-8.8699999999999992

>  <m_primary>  (34) 
energy

>  <rmsd>  (34) 
2.1244939999424495

>  <m_score__min__rmsd>  (34) 
2.1244939999424495

>  <meeko>  (34) 
{"free_energy": -8.48, "intermolecular_energy": -10.27, "internal_energy": -1.78, "cluster_size": 9, "cluster_id": 5, "rank_in_cluster": 1}

>  <energy>  (34) 
-8.14

>  <cluster_rmsd>  (34) 
0.46

>  <cluster>  (34) 
5

$$$$

     RDKit          3D

 50 53  0  0  0  0  0  0  0  0999 V2000
  145.5590   73.6340  219.0620 N   0  0  0  0  0  0  0  0  0  0  0  0
  144.4800   73.6730  220.0240 C   0  0  2  0  0  0  0  0  0  0  0  0
  144.1840   72.2660  220.5620 C   0  0  0  0  0  0  0  0  0  0  0  0
  142.7910   72.5730  221.1630 C   0  0  0  0  0  0  0  0  0  0  0  0
  142.1090   73.3600  220.1560 N   0  0  0  0  0  0  0  0  0  0  0  0
  140.7480   73.5550  219.8700 C   0  0  0  0  0  0  0  0  0  0  0  0
  140.4220   73.6140  218.6140 O   0  0  0  0  0  0  0  0  0  0  0  0
  139.6280   73.7000  220.7900 C   0  0  0  0  0  0  0  0  0  0  0  0
  139.6740   73.0620  222.0530 N   0  0  0  0  0  0  0  0  0  0  0  0
  139.8750   71.6550  222.1940 C   0  0  0  0  0  0  0  0  0  0  0  0
  140.0340   70.8970  221.1760 O   0  0  0  0  0  0  0  0  0  0  0  0
  139.9010   71.0550  223.5470 C   0  0  0  0  0  0  0  0  0  0  0  0
  139.3930   69.7860  223.7300 C   0  0  0  0  0  0  0  0  0  0  0  0
  139.4020   69.1900  224.9920 C   0  0  0  0  0  0  0  0  0  0  0  0
  139.9390   69.9190  226.0480 C   0  0  0  0  0  0  0  0  0  0  0  0
  139.9890   69.4070  227.3340 C   0  0  0  0  0  0  0  0  0  0  0  0
  140.5330   70.1660  228.3580 C   0  0  0  0  0  0  0  0  0  0  0  0
  141.0380   71.4400  228.1480 C   0  0  0  0  0  0  0  0  0  0  0  0
  140.9820   71.9390  226.8650 C   0  0  0  0  0  0  0  0  0  0  0  0
  140.4430   71.1900  225.8400 C   0  0  0  0  0  0  0  0  0  0  0  0
  140.4120   71.7240  224.6020 N   0  0  0  0  0  0  0  0  0  0  0  0
  143.1780   73.9990  219.3950 C   0  0  1  0  0  0  0  0  0  0  0  0
  142.9400   75.4260  219.1440 C   0  0  0  0  0  0  0  0  0  0  0  0
  142.4250   76.2700  220.1190 C   0  0  0  0  0  0  0  0  0  0  0  0
  142.2110   77.6050  219.8620 C   0  0  0  0  0  0  0  0  0  0  0  0
  142.4940   78.1720  218.6330 C   0  0  0  0  0  0  0  0  0  0  0  0
  143.0070   77.3420  217.6540 C   0  0  0  0  0  0  0  0  0  0  0  0
  143.2190   76.0060  217.9210 C   0  0  0  0  0  0  0  0  0  0  0  0
  146.4280   74.1030  219.4090 H   0  0  0  0  0  0  0  0  0  0  0  0
  145.2100   74.1690  218.2190 H   0  0  0  0  0  0  0  0  0  0  0  0
  144.8098   74.4071  220.7739 H   0  0  0  0  0  0  0  0  0  0  0  0
  144.1388   71.5121  219.7622 H   0  0  0  0  0  0  0  0  0  0  0  0
  144.9293   71.8381  221.2486 H   0  0  0  0  0  0  0  0  0  0  0  0
  142.2422   71.6405  221.3611 H   0  0  0  0  0  0  0  0  0  0  0  0
  142.8651   73.1067  222.1220 H   0  0  0  0  0  0  0  0  0  0  0  0
  139.5079   74.7768  220.9801 H   0  0  0  0  0  0  0  0  0  0  0  0
  138.8025   73.1887  220.2732 H   0  0  0  0  0  0  0  0  0  0  0  0
  139.5620   73.5960  222.9650 H   0  0  0  0  0  0  0  0  0  0  0  0
  138.9763   69.2377  222.8722 H   0  0  0  0  0  0  0  0  0  0  0  0
  138.9983   68.1785  225.1463 H   0  0  0  0  0  0  0  0  0  0  0  0
  139.5978   68.4002  227.5421 H   0  0  0  0  0  0  0  0  0  0  0  0
  140.5653   69.7429  229.3729 H   0  0  0  0  0  0  0  0  0  0  0  0
  141.4662   72.0288  228.9726 H   0  0  0  0  0  0  0  0  0  0  0  0
  141.3716   72.9462  226.6558 H   0  0  0  0  0  0  0  0  0  0  0  0
  143.1992   73.5858  218.3758 H   0  0  0  0  0  0  0  0  0  0  0  0
  142.1842   75.8650  221.1130 H   0  0  0  0  0  0  0  0  0  0  0  0
  141.8015   78.2416  220.6602 H   0  0  0  0  0  0  0  0  0  0  0  0
  142.3179   79.2409  218.4420 H   0  0  0  0  0  0  0  0  0  0  0  0
  143.2466   77.7480  216.6601 H   0  0  0  0  0  0  0  0  0  0  0  0
  143.6300   75.3712  217.1221 H   0  0  0  0  0  0  0  0  0  0  0  0
  1  2  1  0
  2  3  1  0
  3  4  1  0
  4  5  1  0
  5  6  1  0
  6  7  2  0
  6  8  1  0
  8  9  1  0
  9 10  1  0
 10 11  2  0
 10 12  1  0
 12 13  2  0
 13 14  1  0
 14 15  2  0
 15 16  1  0
 16 17  2  0
 17 18  1  0
 18 19  2  0
 19 20  1  0
 20 21  2  0
  5 22  1  0
 22 23  1  0
 23 24  2  0
 24 25  1  0
 25 26  2  0
 26 27  1  0
 27 28  2  0
 22  2  1  0
 28 23  1  0
 21 12  1  0
 20 15  1  0
  1 29  1  0
  1 30  1  0
  2 31  1  1
  3 32  1  0
  3 33  1  0
  4 34  1  0
  4 35  1  0
  8 36  1  0
  8 37  1  0
  9 38  1  0
 13 39  1  0
 14 40  1  0
 16 41  1  0
 17 42  1  0
 18 43  1  0
 19 44  1  0
 22 45  1  6
 24 46  1  0
 25 47  1  0
 26 48  1  0
 27 49  1  0
 28 50  1  0
M  END
>  <smiles>  (35) 
N[C@@H]1CCN(C(=O)CNC(=O)c2ccc3ccccc3n2)[C@H]1c1ccccc1

>  <score_type>  (35) 
oracle

>  <origin>  (35) 
autodockgpu

>  <m_score__min__energy>  (35) 
-8.8699999999999992

>  <m_primary>  (35) 
energy

>  <rmsd>  (35) 
3.0109114457514323

>  <m_score__min__rmsd>  (35) 
3.0109114457514323

>  <meeko>  (35) 
{"free_energy": -8.12, "intermolecular_energy": -9.91, "internal_energy": -1.66, "cluster_size": 11, "cluster_id": 2, "rank_in_cluster": 9}

>  <energy>  (35) 
-7.53

>  <cluster_rmsd>  (35) 
0.95

>  <cluster>  (35) 
5

$$$$

     RDKit          3D

 50 53  0  0  0  0  0  0  0  0999 V2000
  146.1850   73.4730  219.2750 N   0  0  0  0  0  0  0  0  0  0  0  0
  144.9180   73.4260  219.9730 C   0  0  2  0  0  0  0  0  0  0  0  0
  144.6190   71.9990  220.4550 C   0  0  0  0  0  0  0  0  0  0  0  0
  143.1080   72.1950  220.7270 C   0  0  0  0  0  0  0  0  0  0  0  0
  142.6090   72.9270  219.5810 N   0  0  0  0  0  0  0  0  0  0  0  0
  141.3350   73.0160  218.9980 C   0  0  0  0  0  0  0  0  0  0  0  0
  141.2040   72.5060  217.8100 O   0  0  0  0  0  0  0  0  0  0  0  0
  140.1150   73.6010  219.5390 C   0  0  0  0  0  0  0  0  0  0  0  0
  140.1550   74.8960  220.1100 N   0  0  0  0  0  0  0  0  0  0  0  0
  140.0620   75.1150  221.5180 C   0  0  0  0  0  0  0  0  0  0  0  0
  139.9470   74.1420  222.3400 O   0  0  0  0  0  0  0  0  0  0  0  0
  140.1000   76.4980  222.0440 C   0  0  0  0  0  0  0  0  0  0  0  0
  138.9240   77.1000  222.4390 C   0  0  0  0  0  0  0  0  0  0  0  0
  138.9240   78.4030  222.9390 C   0  0  0  0  0  0  0  0  0  0  0  0
  140.1440   79.0630  223.0250 C   0  0  0  0  0  0  0  0  0  0  0  0
  140.2400   80.3580  223.5080 C   0  0  0  0  0  0  0  0  0  0  0  0
  141.4760   80.9800  223.5770 C   0  0  0  0  0  0  0  0  0  0  0  0
  142.6450   80.3530  223.1750 C   0  0  0  0  0  0  0  0  0  0  0  0
  142.5380   79.0650  222.6940 C   0  0  0  0  0  0  0  0  0  0  0  0
  141.3120   78.4380  222.6230 C   0  0  0  0  0  0  0  0  0  0  0  0
  141.2610   77.1790  222.1460 N   0  0  0  0  0  0  0  0  0  0  0  0
  143.7670   73.6500  219.0670 C   0  0  1  0  0  0  0  0  0  0  0  0
  143.4830   75.0540  218.7460 C   0  0  0  0  0  0  0  0  0  0  0  0
  143.0960   75.9670  219.7170 C   0  0  0  0  0  0  0  0  0  0  0  0
  142.8340   77.2800  219.3940 C   0  0  0  0  0  0  0  0  0  0  0  0
  142.9420   77.7540  218.1000 C   0  0  0  0  0  0  0  0  0  0  0  0
  143.3260   76.8550  217.1250 C   0  0  0  0  0  0  0  0  0  0  0  0
  143.5860   75.5410  217.4570 C   0  0  0  0  0  0  0  0  0  0  0  0
  146.8570   74.1520  219.7030 H   0  0  0  0  0  0  0  0  0  0  0  0
  145.9580   73.8050  218.2970 H   0  0  0  0  0  0  0  0  0  0  0  0
  145.0155   74.1832  220.7649 H   0  0  0  0  0  0  0  0  0  0  0  0
  144.8109   71.2448  219.6776 H   0  0  0  0  0  0  0  0  0  0  0  0
  145.2237   71.6301  221.2966 H   0  0  0  0  0  0  0  0  0  0  0  0
  142.6021   71.2221  220.8137 H   0  0  0  0  0  0  0  0  0  0  0  0
  142.9256   72.7318  221.6696 H   0  0  0  0  0  0  0  0  0  0  0  0
  139.3856   73.6367  218.7164 H   0  0  0  0  0  0  0  0  0  0  0  0
  139.8737   72.9504  220.3925 H   0  0  0  0  0  0  0  0  0  0  0  0
  140.2560   75.7750  219.5220 H   0  0  0  0  0  0  0  0  0  0  0  0
  137.9761   76.5476  222.3592 H   0  0  0  0  0  0  0  0  0  0  0  0
  137.9900   78.8911  223.2543 H   0  0  0  0  0  0  0  0  0  0  0  0
  139.3359   80.8917  223.8363 H   0  0  0  0  0  0  0  0  0  0  0  0
  141.5316   82.0080  223.9646 H   0  0  0  0  0  0  0  0  0  0  0  0
  143.6182   80.8619  223.2371 H   0  0  0  0  0  0  0  0  0  0  0  0
  143.4413   78.5316  222.3631 H   0  0  0  0  0  0  0  0  0  0  0  0
  144.0448   73.2416  218.0841 H   0  0  0  0  0  0  0  0  0  0  0  0
  142.9969   75.6366  220.7615 H   0  0  0  0  0  0  0  0  0  0  0  0
  142.5290   77.9737  220.1913 H   0  0  0  0  0  0  0  0  0  0  0  0
  142.7304   78.8057  217.8567 H   0  0  0  0  0  0  0  0  0  0  0  0
  143.4249   77.1870  216.0810 H   0  0  0  0  0  0  0  0  0  0  0  0
  143.8895   74.8487  216.6579 H   0  0  0  0  0  0  0  0  0  0  0  0
  1  2  1  0
  2  3  1  0
  3  4  1  0
  4  5  1  0
  5  6  1  0
  6  7  2  0
  6  8  1  0
  8  9  1  0
  9 10  1  0
 10 11  2  0
 10 12  1  0
 12 13  2  0
 13 14  1  0
 14 15  2  0
 15 16  1  0
 16 17  2  0
 17 18  1  0
 18 19  2  0
 19 20  1  0
 20 21  2  0
  5 22  1  0
 22 23  1  0
 23 24  2  0
 24 25  1  0
 25 26  2  0
 26 27  1  0
 27 28  2  0
 22  2  1  0
 28 23  1  0
 21 12  1  0
 20 15  1  0
  1 29  1  0
  1 30  1  0
  2 31  1  1
  3 32  1  0
  3 33  1  0
  4 34  1  0
  4 35  1  0
  8 36  1  0
  8 37  1  0
  9 38  1  0
 13 39  1  0
 14 40  1  0
 16 41  1  0
 17 42  1  0
 18 43  1  0
 19 44  1  0
 22 45  1  6
 24 46  1  0
 25 47  1  0
 26 48  1  0
 27 49  1  0
 28 50  1  0
M  END
>  <smiles>  (36) 
N[C@@H]1CCN(C(=O)CNC(=O)c2ccc3ccccc3n2)[C@H]1c1ccccc1

>  <score_type>  (36) 
oracle

>  <origin>  (36) 
autodockgpu

>  <m_score__min__energy>  (36) 
-8.8699999999999992

>  <m_primary>  (36) 
energy

>  <rmsd>  (36) 
7.2482508595007165

>  <m_score__min__rmsd>  (36) 
7.2482508595007165

>  <meeko>  (36) 
{"free_energy": -7.77, "intermolecular_energy": -9.56, "internal_energy": -2.17, "cluster_size": 13, "cluster_id": 7, "rank_in_cluster": 6}

>  <energy>  (36) 
-8.23

>  <cluster_rmsd>  (36) 
0.0

>  <cluster>  (36) 
6

$$$$

     RDKit          3D

 50 53  0  0  0  0  0  0  0  0999 V2000
  146.3300   72.6420  221.5430 N   0  0  0  0  0  0  0  0  0  0  0  0
  145.5410   72.9090  220.3600 C   0  0  2  0  0  0  0  0  0  0  0  0
  144.8400   74.2700  220.4740 C   0  0  0  0  0  0  0  0  0  0  0  0
  143.8020   74.0520  219.3470 C   0  0  0  0  0  0  0  0  0  0  0  0
  143.2960   72.7110  219.5510 N   0  0  0  0  0  0  0  0  0  0  0  0
  142.0830   72.0950  219.2040 C   0  0  0  0  0  0  0  0  0  0  0  0
  142.0760   71.4040  218.1040 O   0  0  0  0  0  0  0  0  0  0  0  0
  140.8080   72.1130  219.9100 C   0  0  0  0  0  0  0  0  0  0  0  0
  140.6900   71.4490  221.1550 N   0  0  0  0  0  0  0  0  0  0  0  0
  140.3210   72.1320  222.3550 C   0  0  0  0  0  0  0  0  0  0  0  0
  140.0670   73.3850  222.3600 O   0  0  0  0  0  0  0  0  0  0  0  0
  140.2270   71.3760  223.6240 C   0  0  0  0  0  0  0  0  0  0  0  0
  139.6400   70.1270  223.6220 C   0  0  0  0  0  0  0  0  0  0  0  0
  139.5350   69.3880  224.8010 C   0  0  0  0  0  0  0  0  0  0  0  0
  140.0410   69.9530  225.9660 C   0  0  0  0  0  0  0  0  0  0  0  0
  139.9800   69.2920  227.1820 C   0  0  0  0  0  0  0  0  0  0  0  0
  140.4960   69.8900  228.3200 C   0  0  0  0  0  0  0  0  0  0  0  0
  141.0820   71.1460  228.2960 C   0  0  0  0  0  0  0  0  0  0  0  0
  141.1360   71.7950  227.0820 C   0  0  0  0  0  0  0  0  0  0  0  0
  140.6260   71.2070  225.9440 C   0  0  0  0  0  0  0  0  0  0  0  0
  140.7030   71.8840  224.7810 N   0  0  0  0  0  0  0  0  0  0  0  0
  144.3680   72.0100  220.2510 C   0  0  1  0  0  0  0  0  0  0  0  0
  144.6460   70.6760  219.7040 C   0  0  0  0  0  0  0  0  0  0  0  0
  145.7020   70.4430  218.8340 C   0  0  0  0  0  0  0  0  0  0  0  0
  145.9450   69.1830  218.3330 C   0  0  0  0  0  0  0  0  0  0  0  0
  145.1600   68.0960  218.6670 C   0  0  0  0  0  0  0  0  0  0  0  0
  144.1050   68.3160  219.5310 C   0  0  0  0  0  0  0  0  0  0  0  0
  143.8690   69.5800  220.0280 C   0  0  0  0  0  0  0  0  0  0  0  0
  147.0730   71.9240  221.3800 H   0  0  0  0  0  0  0  0  0  0  0  0
  145.6500   72.2560  222.2570 H   0  0  0  0  0  0  0  0  0  0  0  0
  146.2549   72.8121  219.5288 H   0  0  0  0  0  0  0  0  0  0  0  0
  144.3678   74.4177  221.4564 H   0  0  0  0  0  0  0  0  0  0  0  0
  145.4808   75.1595  220.3837 H   0  0  0  0  0  0  0  0  0  0  0  0
  142.9878   74.7875  219.4250 H   0  0  0  0  0  0  0  0  0  0  0  0
  144.2470   74.1760  218.3487 H   0  0  0  0  0  0  0  0  0  0  0  0
  140.5546   73.1689  220.0855 H   0  0  0  0  0  0  0  0  0  0  0  0
  140.1391   71.5424  219.2490 H   0  0  0  0  0  0  0  0  0  0  0  0
  140.8680   70.4080  221.2650 H   0  0  0  0  0  0  0  0  0  0  0  0
  139.2509   69.7098  222.6815 H   0  0  0  0  0  0  0  0  0  0  0  0
  139.0677   68.3922  224.8083 H   0  0  0  0  0  0  0  0  0  0  0  0
  139.5224   68.2936  227.2438 H   0  0  0  0  0  0  0  0  0  0  0  0
  140.4387   69.3492  229.2762 H   0  0  0  0  0  0  0  0  0  0  0  0
  141.4875   71.6059  229.2093 H   0  0  0  0  0  0  0  0  0  0  0  0
  141.5915   72.7943  227.0199 H   0  0  0  0  0  0  0  0  0  0  0  0
  144.0437   71.7752  221.2756 H   0  0  0  0  0  0  0  0  0  0  0  0
  146.3553   71.2777  218.5399 H   0  0  0  0  0  0  0  0  0  0  0  0
  146.7910   69.0376  217.6451 H   0  0  0  0  0  0  0  0  0  0  0  0
  145.3671   67.0949  218.2609 H   0  0  0  0  0  0  0  0  0  0  0  0
  143.4516   67.4807  219.8232 H   0  0  0  0  0  0  0  0  0  0  0  0
  143.0220   69.7230  220.7151 H   0  0  0  0  0  0  0  0  0  0  0  0
  1  2  1  0
  2  3  1  0
  3  4  1  0
  4  5  1  0
  5  6  1  0
  6  7  2  0
  6  8  1  0
  8  9  1  0
  9 10  1  0
 10 11  2  0
 10 12  1  0
 12 13  2  0
 13 14  1  0
 14 15  2  0
 15 16  1  0
 16 17  2  0
 17 18  1  0
 18 19  2  0
 19 20  1  0
 20 21  2  0
  5 22  1  0
 22 23  1  0
 23 24  2  0
 24 25  1  0
 25 26  2  0
 26 27  1  0
 27 28  2  0
 22  2  1  0
 28 23  1  0
 21 12  1  0
 20 15  1  0
  1 29  1  0
  1 30  1  0
  2 31  1  6
  3 32  1  0
  3 33  1  0
  4 34  1  0
  4 35  1  0
  8 36  1  0
  8 37  1  0
  9 38  1  0
 13 39  1  0
 14 40  1  0
 16 41  1  0
 17 42  1  0
 18 43  1  0
 19 44  1  0
 22 45  1  1
 24 46  1  0
 25 47  1  0
 26 48  1  0
 27 49  1  0
 28 50  1  0
M  END
>  <smiles>  (37) 
N[C@@H]1CCN(C(=O)CNC(=O)c2ccc3ccccc3n2)[C@H]1c1ccccc1

>  <score_type>  (37) 
oracle

>  <origin>  (37) 
autodockgpu

>  <m_score__min__energy>  (37) 
-8.8699999999999992

>  <m_primary>  (37) 
energy

>  <rmsd>  (37) 
4.316263906340161

>  <m_score__min__rmsd>  (37) 
4.316263906340161

>  <meeko>  (37) 
{"free_energy": -8.7, "intermolecular_energy": -10.49, "internal_energy": -1.41, "cluster_size": 3, "cluster_id": 3, "rank_in_cluster": 1}

>  <energy>  (37) 
-7.71

>  <cluster_rmsd>  (37) 
1.52

>  <cluster>  (37) 
6

$$$$

     RDKit          3D

 50 53  0  0  0  0  0  0  0  0999 V2000
  143.6650   76.8660  217.7270 N   0  0  0  0  0  0  0  0  0  0  0  0
  142.5930   75.9230  217.9590 C   0  0  2  0  0  0  0  0  0  0  0  0
  141.2300   76.5790  217.6920 C   0  0  0  0  0  0  0  0  0  0  0  0
  140.3590   75.5280  218.4210 C   0  0  0  0  0  0  0  0  0  0  0  0
  141.0500   75.2620  219.6660 N   0  0  0  0  0  0  0  0  0  0  0  0
  140.6030   74.8020  220.9160 C   0  0  0  0  0  0  0  0  0  0  0  0
  141.1760   75.3170  221.9630 O   0  0  0  0  0  0  0  0  0  0  0  0
  139.5710   73.8190  221.2180 C   0  0  0  0  0  0  0  0  0  0  0  0
  139.6570   73.0570  222.4080 N   0  0  0  0  0  0  0  0  0  0  0  0
  139.8860   71.6470  222.4000 C   0  0  0  0  0  0  0  0  0  0  0  0
  140.0340   71.0000  221.3070 O   0  0  0  0  0  0  0  0  0  0  0  0
  139.9540   70.9130  223.6830 C   0  0  0  0  0  0  0  0  0  0  0  0
  139.5330   69.6010  223.7320 C   0  0  0  0  0  0  0  0  0  0  0  0
  139.5830   68.8800  224.9260 C   0  0  0  0  0  0  0  0  0  0  0  0
  140.0720   69.5290  226.0540 C   0  0  0  0  0  0  0  0  0  0  0  0
  140.1590   68.8920  227.2810 C   0  0  0  0  0  0  0  0  0  0  0  0
  140.6520   69.5760  228.3800 C   0  0  0  0  0  0  0  0  0  0  0  0
  141.0710   70.8950  228.3060 C   0  0  0  0  0  0  0  0  0  0  0  0
  140.9800   71.5190  227.0800 C   0  0  0  0  0  0  0  0  0  0  0  0
  140.4910   70.8460  225.9810 C   0  0  0  0  0  0  0  0  0  0  0  0
  140.4220   71.5020  224.8050 N   0  0  0  0  0  0  0  0  0  0  0  0
  142.4480   75.5770  219.3920 C   0  0  1  0  0  0  0  0  0  0  0  0
  143.3830   74.5610  219.8920 C   0  0  0  0  0  0  0  0  0  0  0  0
  143.0780   73.2070  219.8720 C   0  0  0  0  0  0  0  0  0  0  0  0
  143.9700   72.2710  220.3450 C   0  0  0  0  0  0  0  0  0  0  0  0
  145.2040   72.6260  220.8600 C   0  0  0  0  0  0  0  0  0  0  0  0
  145.5180   73.9700  220.8860 C   0  0  0  0  0  0  0  0  0  0  0  0
  144.6180   74.9010  220.4100 C   0  0  0  0  0  0  0  0  0  0  0  0
  143.6260   77.2970  216.7740 H   0  0  0  0  0  0  0  0  0  0  0  0
  144.5590   76.3040  217.7980 H   0  0  0  0  0  0  0  0  0  0  0  0
  142.8407   75.0652  217.3165 H   0  0  0  0  0  0  0  0  0  0  0  0
  141.1493   77.5780  218.1454 H   0  0  0  0  0  0  0  0  0  0  0  0
  140.9799   76.7763  216.6391 H   0  0  0  0  0  0  0  0  0  0  0  0
  139.3531   75.9283  218.6157 H   0  0  0  0  0  0  0  0  0  0  0  0
  140.2259   74.6158  217.8209 H   0  0  0  0  0  0  0  0  0  0  0  0
  138.6145   74.3611  221.2544 H   0  0  0  0  0  0  0  0  0  0  0  0
  139.6908   73.0682  220.4230 H   0  0  0  0  0  0  0  0  0  0  0  0
  139.5580   73.4930  223.3710 H   0  0  0  0  0  0  0  0  0  0  0  0
  139.1535   69.1171  222.8199 H   0  0  0  0  0  0  0  0  0  0  0  0
  139.2468   67.8337  224.9729 H   0  0  0  0  0  0  0  0  0  0  0  0
  139.8372   67.8450  227.3824 H   0  0  0  0  0  0  0  0  0  0  0  0
  140.7131   69.0536  229.3461 H   0  0  0  0  0  0  0  0  0  0  0  0
  141.4603   71.4224  229.1893 H   0  0  0  0  0  0  0  0  0  0  0  0
  141.3013   72.5660  226.9777 H   0  0  0  0  0  0  0  0  0  0  0  0
  142.7425   76.4651  219.9704 H   0  0  0  0  0  0  0  0  0  0  0  0
  142.1081   72.8766  219.4718 H   0  0  0  0  0  0  0  0  0  0  0  0
  143.6927   71.2070  220.3124 H   0  0  0  0  0  0  0  0  0  0  0  0
  145.9072   71.8673  221.2340 H   0  0  0  0  0  0  0  0  0  0  0  0
  146.4879   74.2994  221.2871 H   0  0  0  0  0  0  0  0  0  0  0  0
  144.8968   75.9645  220.4445 H   0  0  0  0  0  0  0  0  0  0  0  0
  1  2  1  0
  2  3  1  0
  3  4  1  0
  4  5  1  0
  5  6  1  0
  6  7  2  0
  6  8  1  0
  8  9  1  0
  9 10  1  0
 10 11  2  0
 10 12  1  0
 12 13  2  0
 13 14  1  0
 14 15  2  0
 15 16  1  0
 16 17  2  0
 17 18  1  0
 18 19  2  0
 19 20  1  0
 20 21  2  0
  5 22  1  0
 22 23  1  0
 23 24  2  0
 24 25  1  0
 25 26  2  0
 26 27  1  0
 27 28  2  0
 22  2  1  0
 28 23  1  0
 21 12  1  0
 20 15  1  0
  1 29  1  0
  1 30  1  0
  2 31  1  6
  3 32  1  0
  3 33  1  0
  4 34  1  0
  4 35  1  0
  8 36  1  0
  8 37  1  0
  9 38  1  0
 13 39  1  0
 14 40  1  0
 16 41  1  0
 17 42  1  0
 18 43  1  0
 19 44  1  0
 22 45  1  1
 24 46  1  0
 25 47  1  0
 26 48  1  0
 27 49  1  0
 28 50  1  0
M  END
>  <smiles>  (38) 
N[C@@H]1CCN(C(=O)CNC(=O)c2ccc3ccccc3n2)[C@H]1c1ccccc1

>  <score_type>  (38) 
oracle

>  <origin>  (38) 
autodockgpu

>  <m_score__min__energy>  (38) 
-8.8699999999999992

>  <m_primary>  (38) 
energy

>  <rmsd>  (38) 
2.237566997568669

>  <m_score__min__rmsd>  (38) 
2.237566997568669

>  <meeko>  (38) 
{"free_energy": -8.29, "intermolecular_energy": -10.08, "internal_energy": -1.7, "cluster_size": 9, "cluster_id": 5, "rank_in_cluster": 3}

>  <energy>  (38) 
-7.89

>  <cluster_rmsd>  (38) 
0.0

>  <cluster>  (38) 
7

$$$$

     RDKit          3D

 50 53  0  0  0  0  0  0  0  0999 V2000
  140.5360   72.6410  223.0480 N   0  0  0  0  0  0  0  0  0  0  0  0
  139.8830   71.3530  222.9720 C   0  0  2  0  0  0  0  0  0  0  0  0
  138.8270   71.3470  221.8580 C   0  0  0  0  0  0  0  0  0  0  0  0
  138.0610   70.0840  222.3180 C   0  0  0  0  0  0  0  0  0  0  0  0
  137.9180   70.2280  223.7520 N   0  0  0  0  0  0  0  0  0  0  0  0
  136.9820   69.7160  224.6650 C   0  0  0  0  0  0  0  0  0  0  0  0
  137.4630   69.1070  225.7080 O   0  0  0  0  0  0  0  0  0  0  0  0
  135.5270   69.7710  224.6180 C   0  0  0  0  0  0  0  0  0  0  0  0
  134.8550   70.9210  225.0960 N   0  0  0  0  0  0  0  0  0  0  0  0
  133.9090   70.8680  226.1650 C   0  0  0  0  0  0  0  0  0  0  0  0
  133.6290   69.7680  226.7550 O   0  0  0  0  0  0  0  0  0  0  0  0
  133.2360   72.1100  226.6050 C   0  0  0  0  0  0  0  0  0  0  0  0
  132.0050   72.0270  227.2210 C   0  0  0  0  0  0  0  0  0  0  0  0
  131.3430   73.1790  227.6480 C   0  0  0  0  0  0  0  0  0  0  0  0
  131.9670   74.4020  227.4320 C   0  0  0  0  0  0  0  0  0  0  0  0
  131.3840   75.5960  227.8220 C   0  0  0  0  0  0  0  0  0  0  0  0
  132.0410   76.7940  227.5890 C   0  0  0  0  0  0  0  0  0  0  0  0
  133.2790   76.8510  226.9690 C   0  0  0  0  0  0  0  0  0  0  0  0
  133.8490   75.6570  226.5840 C   0  0  0  0  0  0  0  0  0  0  0  0
  133.2040   74.4610  226.8130 C   0  0  0  0  0  0  0  0  0  0  0  0
  133.8040   73.3210  226.4170 N   0  0  0  0  0  0  0  0  0  0  0  0
  139.0290   71.0850  224.1530 C   0  0  1  0  0  0  0  0  0  0  0  0
  139.7370   70.6010  225.3450 C   0  0  0  0  0  0  0  0  0  0  0  0
  139.9820   71.4190  226.4390 C   0  0  0  0  0  0  0  0  0  0  0  0
  140.6480   70.9440  227.5460 C   0  0  0  0  0  0  0  0  0  0  0  0
  141.1040   69.6410  227.6280 C   0  0  0  0  0  0  0  0  0  0  0  0
  140.8660   68.8170  226.5450 C   0  0  0  0  0  0  0  0  0  0  0  0
  140.1980   69.3010  225.4390 C   0  0  0  0  0  0  0  0  0  0  0  0
  139.9210   73.3840  223.4530 H   0  0  0  0  0  0  0  0  0  0  0  0
  140.7580   72.9070  222.0480 H   0  0  0  0  0  0  0  0  0  0  0  0
  140.7080   70.6364  222.8463 H   0  0  0  0  0  0  0  0  0  0  0  0
  138.1967   72.2484  221.8729 H   0  0  0  0  0  0  0  0  0  0  0  0
  139.2058   71.3401  220.8253 H   0  0  0  0  0  0  0  0  0  0  0  0
  137.0740   70.0342  221.8350 H   0  0  0  0  0  0  0  0  0  0  0  0
  138.5929   69.1596  222.0486 H   0  0  0  0  0  0  0  0  0  0  0  0
  135.2365   69.6461  223.5644 H   0  0  0  0  0  0  0  0  0  0  0  0
  135.2171   68.9821  225.3191 H   0  0  0  0  0  0  0  0  0  0  0  0
  135.0170   71.8880  224.6850 H   0  0  0  0  0  0  0  0  0  0  0  0
  131.5400   71.0425  227.3774 H   0  0  0  0  0  0  0  0  0  0  0  0
  130.3604   73.1210  228.1390 H   0  0  0  0  0  0  0  0  0  0  0  0
  130.4011   75.5937  228.3159 H   0  0  0  0  0  0  0  0  0  0  0  0
  131.5630   77.7322  227.9073 H   0  0  0  0  0  0  0  0  0  0  0  0
  133.7863   77.8107  226.7913 H   0  0  0  0  0  0  0  0  0  0  0  0
  134.8308   75.6586  226.0879 H   0  0  0  0  0  0  0  0  0  0  0  0
  138.6377   72.0543  224.4955 H   0  0  0  0  0  0  0  0  0  0  0  0
  139.6384   72.4638  226.4212 H   0  0  0  0  0  0  0  0  0  0  0  0
  140.8233   71.6232  228.3933 H   0  0  0  0  0  0  0  0  0  0  0  0
  141.6347   69.2755  228.5195 H   0  0  0  0  0  0  0  0  0  0  0  0
  141.2099   67.7723  226.5645 H   0  0  0  0  0  0  0  0  0  0  0  0
  140.0241   68.6206  224.5923 H   0  0  0  0  0  0  0  0  0  0  0  0
  1  2  1  0
  2  3  1  0
  3  4  1  0
  4  5  1  0
  5  6  1  0
  6  7  2  0
  6  8  1  0
  8  9  1  0
  9 10  1  0
 10 11  2  0
 10 12  1  0
 12 13  2  0
 13 14  1  0
 14 15  2  0
 15 16  1  0
 16 17  2  0
 17 18  1  0
 18 19  2  0
 19 20  1  0
 20 21  2  0
  5 22  1  0
 22 23  1  0
 23 24  2  0
 24 25  1  0
 25 26  2  0
 26 27  1  0
 27 28  2  0
 22  2  1  0
 28 23  1  0
 21 12  1  0
 20 15  1  0
  1 29  1  0
  1 30  1  0
  2 31  1  6
  3 32  1  0
  3 33  1  0
  4 34  1  0
  4 35  1  0
  8 36  1  0
  8 37  1  0
  9 38  1  0
 13 39  1  0
 14 40  1  0
 16 41  1  0
 17 42  1  0
 18 43  1  0
 19 44  1  0
 22 45  1  1
 24 46  1  0
 25 47  1  0
 26 48  1  0
 27 49  1  0
 28 50  1  0
M  END
>  <smiles>  (39) 
N[C@@H]1CCN(C(=O)CNC(=O)c2ccc3ccccc3n2)[C@H]1c1ccccc1

>  <score_type>  (39) 
oracle

>  <origin>  (39) 
autodockgpu

>  <m_score__min__energy>  (39) 
-8.8699999999999992

>  <m_primary>  (39) 
energy

>  <rmsd>  (39) 
8.245672300670885

>  <m_score__min__rmsd>  (39) 
8.245672300670885

>  <meeko>  (39) 
{"free_energy": -8.23, "intermolecular_energy": -10.02, "internal_energy": -1.3, "cluster_size": 2, "cluster_id": 6, "rank_in_cluster": 1}

>  <energy>  (39) 
-7.89

>  <cluster_rmsd>  (39) 
0.04

>  <cluster>  (39) 
7

$$$$

     RDKit          3D

 50 53  0  0  0  0  0  0  0  0999 V2000
  146.2810   73.4030  219.1120 N   0  0  0  0  0  0  0  0  0  0  0  0
  145.0710   73.1120  219.8500 C   0  0  2  0  0  0  0  0  0  0  0  0
  144.9280   71.6000  220.0780 C   0  0  0  0  0  0  0  0  0  0  0  0
  143.4270   71.5990  220.4530 C   0  0  0  0  0  0  0  0  0  0  0  0
  142.7930   72.4700  219.4850 N   0  0  0  0  0  0  0  0  0  0  0  0
  141.4810   72.5370  218.9890 C   0  0  0  0  0  0  0  0  0  0  0  0
  141.3530   72.6580  217.7020 O   0  0  0  0  0  0  0  0  0  0  0  0
  140.2200   72.4860  219.7170 C   0  0  0  0  0  0  0  0  0  0  0  0
  140.1360   71.7420  220.9190 N   0  0  0  0  0  0  0  0  0  0  0  0
  140.2030   72.3560  222.2060 C   0  0  0  0  0  0  0  0  0  0  0  0
  140.3340   73.6220  222.3370 O   0  0  0  0  0  0  0  0  0  0  0  0
  140.1200   71.5140  223.4210 C   0  0  0  0  0  0  0  0  0  0  0  0
  139.5290   70.2710  223.3380 C   0  0  0  0  0  0  0  0  0  0  0  0
  139.4330   69.4520  224.4640 C   0  0  0  0  0  0  0  0  0  0  0  0
  139.9530   69.9330  225.6610 C   0  0  0  0  0  0  0  0  0  0  0  0
  139.9020   69.1890  226.8280 C   0  0  0  0  0  0  0  0  0  0  0  0
  140.4330   69.7050  227.9990 C   0  0  0  0  0  0  0  0  0  0  0  0
  141.0230   70.9580  228.0560 C   0  0  0  0  0  0  0  0  0  0  0  0
  141.0670   71.6890  226.8890 C   0  0  0  0  0  0  0  0  0  0  0  0
  140.5430   71.1830  225.7190 C   0  0  0  0  0  0  0  0  0  0  0  0
  140.6110   71.9390  224.6050 N   0  0  0  0  0  0  0  0  0  0  0  0
  143.8490   73.3810  219.0550 C   0  0  1  0  0  0  0  0  0  0  0  0
  143.4250   74.7850  219.0100 C   0  0  0  0  0  0  0  0  0  0  0  0
  142.8940   75.4300  220.1180 C   0  0  0  0  0  0  0  0  0  0  0  0
  142.5030   76.7490  220.0530 C   0  0  0  0  0  0  0  0  0  0  0  0
  142.6160   77.4930  218.8930 C   0  0  0  0  0  0  0  0  0  0  0  0
  143.1430   76.8620  217.7840 C   0  0  0  0  0  0  0  0  0  0  0  0
  143.5320   75.5410  217.8570 C   0  0  0  0  0  0  0  0  0  0  0  0
  146.8860   74.1110  219.5900 H   0  0  0  0  0  0  0  0  0  0  0  0
  145.9610   73.8120  218.1900 H   0  0  0  0  0  0  0  0  0  0  0  0
  145.1533   73.7228  220.7611 H   0  0  0  0  0  0  0  0  0  0  0  0
  145.1335   71.0171  219.1680 H   0  0  0  0  0  0  0  0  0  0  0  0
  145.6153   71.1479  220.8082 H   0  0  0  0  0  0  0  0  0  0  0  0
  143.0134   70.5820  220.3859 H   0  0  0  0  0  0  0  0  0  0  0  0
  143.2609   71.9416  221.4850 H   0  0  0  0  0  0  0  0  0  0  0  0
  139.9516   73.5237  219.9641 H   0  0  0  0  0  0  0  0  0  0  0  0
  139.5495   71.9457  219.0326 H   0  0  0  0  0  0  0  0  0  0  0  0
  140.0180   70.6860  220.9280 H   0  0  0  0  0  0  0  0  0  0  0  0
  139.1292   69.9214  222.3747 H   0  0  0  0  0  0  0  0  0  0  0  0
  138.9620   68.4596  224.4067 H   0  0  0  0  0  0  0  0  0  0  0  0
  139.4408   68.1904  226.8252 H   0  0  0  0  0  0  0  0  0  0  0  0
  140.3847   69.0990  228.9158 H   0  0  0  0  0  0  0  0  0  0  0  0
  141.4391   71.3526  228.9947 H   0  0  0  0  0  0  0  0  0  0  0  0
  141.5259   72.6887  226.8911 H   0  0  0  0  0  0  0  0  0  0  0  0
  144.0967   73.1820  218.0019 H   0  0  0  0  0  0  0  0  0  0  0  0
  142.7836   74.8789  221.0635 H   0  0  0  0  0  0  0  0  0  0  0  0
  142.0874   77.2260  220.9529 H   0  0  0  0  0  0  0  0  0  0  0  0
  142.2987   78.5456  218.8554 H   0  0  0  0  0  0  0  0  0  0  0  0
  143.2530   77.4146  216.8393 H   0  0  0  0  0  0  0  0  0  0  0  0
  143.9469   75.0663  216.9556 H   0  0  0  0  0  0  0  0  0  0  0  0
  1  2  1  0
  2  3  1  0
  3  4  1  0
  4  5  1  0
  5  6  1  0
  6  7  2  0
  6  8  1  0
  8  9  1  0
  9 10  1  0
 10 11  2  0
 10 12  1  0
 12 13  2  0
 13 14  1  0
 14 15  2  0
 15 16  1  0
 16 17  2  0
 17 18  1  0
 18 19  2  0
 19 20  1  0
 20 21  2  0
  5 22  1  0
 22 23  1  0
 23 24  2  0
 24 25  1  0
 25 26  2  0
 26 27  1  0
 27 28  2  0
 22  2  1  0
 28 23  1  0
 21 12  1  0
 20 15  1  0
  1 29  1  0
  1 30  1  0
  2 31  1  1
  3 32  1  0
  3 33  1  0
  4 34  1  0
  4 35  1  0
  8 36  1  0
  8 37  1  0
  9 38  1  0
 13 39  1  0
 14 40  1  0
 16 41  1  0
 17 42  1  0
 18 43  1  0
 19 44  1  0
 22 45  1  6
 24 46  1  0
 25 47  1  0
 26 48  1  0
 27 49  1  0
 28 50  1  0
M  END
>  <smiles>  (40) 
N[C@@H]1CCN(C(=O)CNC(=O)c2ccc3ccccc3n2)[C@H]1c1ccccc1

>  <score_type>  (40) 
oracle

>  <origin>  (40) 
autodockgpu

>  <m_score__min__energy>  (40) 
-8.8699999999999992

>  <m_primary>  (40) 
energy

>  <rmsd>  (40) 
3.5472249453889653

>  <m_score__min__rmsd>  (40) 
3.5472249453889653

>  <meeko>  (40) 
{"free_energy": -8.53, "intermolecular_energy": -10.32, "internal_energy": -1.55, "cluster_size": 11, "cluster_id": 2, "rank_in_cluster": 5}

>  <energy>  (40) 
-7.88

>  <cluster_rmsd>  (40) 
0.12

>  <cluster>  (40) 
7

$$$$

     RDKit          3D

 50 53  0  0  0  0  0  0  0  0999 V2000
  146.2500   73.3820  219.0850 N   0  0  0  0  0  0  0  0  0  0  0  0
  145.1500   72.7690  219.7970 C   0  0  2  0  0  0  0  0  0  0  0  0
  145.1960   71.2410  219.6510 C   0  0  0  0  0  0  0  0  0  0  0  0
  143.7430   70.9550  220.1010 C   0  0  0  0  0  0  0  0  0  0  0  0
  142.9340   71.9440  219.4180 N   0  0  0  0  0  0  0  0  0  0  0  0
  141.5840   71.9570  219.0320 C   0  0  0  0  0  0  0  0  0  0  0  0
  141.3420   71.8330  217.7610 O   0  0  0  0  0  0  0  0  0  0  0  0
  140.3920   72.0870  219.8610 C   0  0  0  0  0  0  0  0  0  0  0  0
  140.3360   71.4270  221.1120 N   0  0  0  0  0  0  0  0  0  0  0  0
  140.1330   72.1280  222.3400 C   0  0  0  0  0  0  0  0  0  0  0  0
  139.9820   73.3980  222.3680 O   0  0  0  0  0  0  0  0  0  0  0  0
  140.0960   71.3730  223.6120 C   0  0  0  0  0  0  0  0  0  0  0  0
  139.5210   70.1200  223.6350 C   0  0  0  0  0  0  0  0  0  0  0  0
  139.4690   69.3810  224.8180 C   0  0  0  0  0  0  0  0  0  0  0  0
  140.0140   69.9520  225.9620 C   0  0  0  0  0  0  0  0  0  0  0  0
  140.0070   69.2920  227.1800 C   0  0  0  0  0  0  0  0  0  0  0  0
  140.5620   69.8970  228.2960 C   0  0  0  0  0  0  0  0  0  0  0  0
  141.1340   71.1580  228.2480 C   0  0  0  0  0  0  0  0  0  0  0  0
  141.1350   71.8060  227.0320 C   0  0  0  0  0  0  0  0  0  0  0  0
  140.5860   71.2110  225.9150 C   0  0  0  0  0  0  0  0  0  0  0  0
  140.6130   71.8870  224.7490 N   0  0  0  0  0  0  0  0  0  0  0  0
  143.8400   73.0590  219.1670 C   0  0  1  0  0  0  0  0  0  0  0  0
  143.2600   74.3670  219.4960 C   0  0  0  0  0  0  0  0  0  0  0  0
  142.3670   74.5330  220.5460 C   0  0  0  0  0  0  0  0  0  0  0  0
  141.8350   75.7690  220.8380 C   0  0  0  0  0  0  0  0  0  0  0  0
  142.1580   76.8990  220.1090 C   0  0  0  0  0  0  0  0  0  0  0  0
  143.0460   76.7460  219.0610 C   0  0  0  0  0  0  0  0  0  0  0  0
  143.5740   75.5040  218.7760 C   0  0  0  0  0  0  0  0  0  0  0  0
  146.7260   74.1280  219.6430 H   0  0  0  0  0  0  0  0  0  0  0  0
  145.8200   73.8330  218.2300 H   0  0  0  0  0  0  0  0  0  0  0  0
  145.2448   73.1503  220.8244 H   0  0  0  0  0  0  0  0  0  0  0  0
  145.3840   70.9243  218.6145 H   0  0  0  0  0  0  0  0  0  0  0  0
  145.9909   70.7206  220.2054 H   0  0  0  0  0  0  0  0  0  0  0  0
  143.4407   69.9391  219.8069 H   0  0  0  0  0  0  0  0  0  0  0  0
  143.6310   71.0146  221.1937 H   0  0  0  0  0  0  0  0  0  0  0  0
  140.2562   73.1604  220.0595 H   0  0  0  0  0  0  0  0  0  0  0  0
  139.6113   71.5857  219.2701 H   0  0  0  0  0  0  0  0  0  0  0  0
  140.4390   70.3740  221.2060 H   0  0  0  0  0  0  0  0  0  0  0  0
  139.0987   69.6982  222.7110 H   0  0  0  0  0  0  0  0  0  0  0  0
  139.0122   68.3807  224.8440 H   0  0  0  0  0  0  0  0  0  0  0  0
  139.5616   68.2895  227.2609 H   0  0  0  0  0  0  0  0  0  0  0  0
  140.5480   69.3570  229.2542 H   0  0  0  0  0  0  0  0  0  0  0  0
  141.5698   71.6231  229.1445 H   0  0  0  0  0  0  0  0  0  0  0  0
  141.5786   72.8093  226.9510 H   0  0  0  0  0  0  0  0  0  0  0  0
  144.0146   73.1503  218.0848 H   0  0  0  0  0  0  0  0  0  0  0  0
  142.0798   73.6629  221.1546 H   0  0  0  0  0  0  0  0  0  0  0  0
  141.1306   75.8605  221.6779 H   0  0  0  0  0  0  0  0  0  0  0  0
  141.7254   77.8804  220.3535 H   0  0  0  0  0  0  0  0  0  0  0  0
  143.3323   77.6167  218.4528 H   0  0  0  0  0  0  0  0  0  0  0  0
  144.2784   75.4143  217.9359 H   0  0  0  0  0  0  0  0  0  0  0  0
  1  2  1  0
  2  3  1  0
  3  4  1  0
  4  5  1  0
  5  6  1  0
  6  7  2  0
  6  8  1  0
  8  9  1  0
  9 10  1  0
 10 11  2  0
 10 12  1  0
 12 13  2  0
 13 14  1  0
 14 15  2  0
 15 16  1  0
 16 17  2  0
 17 18  1  0
 18 19  2  0
 19 20  1  0
 20 21  2  0
  5 22  1  0
 22 23  1  0
 23 24  2  0
 24 25  1  0
 25 26  2  0
 26 27  1  0
 27 28  2  0
 22  2  1  0
 28 23  1  0
 21 12  1  0
 20 15  1  0
  1 29  1  0
  1 30  1  0
  2 31  1  1
  3 32  1  0
  3 33  1  0
  4 34  1  0
  4 35  1  0
  8 36  1  0
  8 37  1  0
  9 38  1  0
 13 39  1  0
 14 40  1  0
 16 41  1  0
 17 42  1  0
 18 43  1  0
 19 44  1  0
 22 45  1  6
 24 46  1  0
 25 47  1  0
 26 48  1  0
 27 49  1  0
 28 50  1  0
M  END
>  <smiles>  (41) 
N[C@@H]1CCN(C(=O)CNC(=O)c2ccc3ccccc3n2)[C@H]1c1ccccc1

>  <score_type>  (41) 
oracle

>  <origin>  (41) 
autodockgpu

>  <m_score__min__energy>  (41) 
-8.8699999999999992

>  <m_primary>  (41) 
energy

>  <rmsd>  (41) 
3.7294953796677084

>  <m_score__min__rmsd>  (41) 
3.7294953796677084

>  <meeko>  (41) 
{"free_energy": -8.73, "intermolecular_energy": -10.52, "internal_energy": -1.46, "cluster_size": 11, "cluster_id": 2, "rank_in_cluster": 3}

>  <energy>  (41) 
-7.87

>  <cluster_rmsd>  (41) 
0.09

>  <cluster>  (41) 
7

$$$$

     RDKit          3D

 50 53  0  0  0  0  0  0  0  0999 V2000
  146.1740   73.3930  218.1500 N   0  0  0  0  0  0  0  0  0  0  0  0
  145.3810   73.3890  219.3600 C   0  0  2  0  0  0  0  0  0  0  0  0
  145.3560   71.9870  219.9850 C   0  0  0  0  0  0  0  0  0  0  0  0
  144.1450   72.2100  220.9230 C   0  0  0  0  0  0  0  0  0  0  0  0
  143.1610   72.9000  220.1140 N   0  0  0  0  0  0  0  0  0  0  0  0
  141.7610   72.9790  220.1910 C   0  0  0  0  0  0  0  0  0  0  0  0
  141.0990   72.5760  219.1480 O   0  0  0  0  0  0  0  0  0  0  0  0
  140.9260   73.4490  221.2890 C   0  0  0  0  0  0  0  0  0  0  0  0
  141.0340   74.7930  221.7230 N   0  0  0  0  0  0  0  0  0  0  0  0
  139.8900   75.6120  221.9700 C   0  0  0  0  0  0  0  0  0  0  0  0
  138.7020   75.1640  221.8200 O   0  0  0  0  0  0  0  0  0  0  0  0
  140.0790   77.0120  222.4120 C   0  0  0  0  0  0  0  0  0  0  0  0
  138.9720   77.7820  222.6990 C   0  0  0  0  0  0  0  0  0  0  0  0
  139.1140   79.1060  223.1180 C   0  0  0  0  0  0  0  0  0  0  0  0
  140.4030   79.6120  223.2350 C   0  0  0  0  0  0  0  0  0  0  0  0
  140.6390   80.9150  223.6430 C   0  0  0  0  0  0  0  0  0  0  0  0
  141.9400   81.3810  223.7470 C   0  0  0  0  0  0  0  0  0  0  0  0
  143.0380   80.5860  223.4540 C   0  0  0  0  0  0  0  0  0  0  0  0
  142.7910   79.2930  223.0480 C   0  0  0  0  0  0  0  0  0  0  0  0
  141.4990   78.8200  222.9420 C   0  0  0  0  0  0  0  0  0  0  0  0
  141.3120   77.5470  222.5410 N   0  0  0  0  0  0  0  0  0  0  0  0
  143.9380   73.5880  219.0880 C   0  0  1  0  0  0  0  0  0  0  0  0
  143.5230   74.9810  218.8800 C   0  0  0  0  0  0  0  0  0  0  0  0
  143.2490   75.8340  219.9400 C   0  0  0  0  0  0  0  0  0  0  0  0
  142.8620   77.1370  219.7220 C   0  0  0  0  0  0  0  0  0  0  0  0
  142.7280   77.6610  218.4500 C   0  0  0  0  0  0  0  0  0  0  0  0
  142.9970   76.8220  217.3870 C   0  0  0  0  0  0  0  0  0  0  0  0
  143.3840   75.5180  217.6140 C   0  0  0  0  0  0  0  0  0  0  0  0
  147.1400   73.7660  218.3010 H   0  0  0  0  0  0  0  0  0  0  0  0
  145.6700   74.0420  217.4820 H   0  0  0  0  0  0  0  0  0  0  0  0
  145.8298   74.1772  219.9823 H   0  0  0  0  0  0  0  0  0  0  0  0
  145.1701   71.1991  219.2403 H   0  0  0  0  0  0  0  0  0  0  0  0
  146.2875   71.6473  220.4614 H   0  0  0  0  0  0  0  0  0  0  0  0
  143.7477   71.2469  221.2758 H   0  0  0  0  0  0  0  0  0  0  0  0
  144.4190   72.7869  221.8186 H   0  0  0  0  0  0  0  0  0  0  0  0
  139.8804   73.2945  220.9843 H   0  0  0  0  0  0  0  0  0  0  0  0
  141.2853   72.8697  222.1523 H   0  0  0  0  0  0  0  0  0  0  0  0
  141.9710   75.2640  221.8890 H   0  0  0  0  0  0  0  0  0  0  0  0
  137.9662   77.3485  222.5968 H   0  0  0  0  0  0  0  0  0  0  0  0
  138.2358   79.7274  223.3476 H   0  0  0  0  0  0  0  0  0  0  0  0
  139.7952   81.5783  223.8839 H   0  0  0  0  0  0  0  0  0  0  0  0
  142.1077   82.4180  224.0734 H   0  0  0  0  0  0  0  0  0  0  0  0
  144.0642   80.9722  223.5422 H   0  0  0  0  0  0  0  0  0  0  0  0
  143.6341   78.6294  222.8053 H   0  0  0  0  0  0  0  0  0  0  0  0
  143.7290   73.1363  218.1070 H   0  0  0  0  0  0  0  0  0  0  0  0
  143.3426   75.4628  220.9712 H   0  0  0  0  0  0  0  0  0  0  0  0
  142.6526   77.7820  220.5881 H   0  0  0  0  0  0  0  0  0  0  0  0
  142.4194   78.7048  218.2910 H   0  0  0  0  0  0  0  0  0  0  0  0
  142.9024   77.1947  216.3564 H   0  0  0  0  0  0  0  0  0  0  0  0
  143.5920   74.8747  216.7463 H   0  0  0  0  0  0  0  0  0  0  0  0
  1  2  1  0
  2  3  1  0
  3  4  1  0
  4  5  1  0
  5  6  1  0
  6  7  2  0
  6  8  1  0
  8  9  1  0
  9 10  1  0
 10 11  2  0
 10 12  1  0
 12 13  2  0
 13 14  1  0
 14 15  2  0
 15 16  1  0
 16 17  2  0
 17 18  1  0
 18 19  2  0
 19 20  1  0
 20 21  2  0
  5 22  1  0
 22 23  1  0
 23 24  2  0
 24 25  1  0
 25 26  2  0
 26 27  1  0
 27 28  2  0
 22  2  1  0
 28 23  1  0
 21 12  1  0
 20 15  1  0
  1 29  1  0
  1 30  1  0
  2 31  1  1
  3 32  1  0
  3 33  1  0
  4 34  1  0
  4 35  1  0
  8 36  1  0
  8 37  1  0
  9 38  1  0
 13 39  1  0
 14 40  1  0
 16 41  1  0
 17 42  1  0
 18 43  1  0
 19 44  1  0
 22 45  1  6
 24 46  1  0
 25 47  1  0
 26 48  1  0
 27 49  1  0
 28 50  1  0
M  END
>  <smiles>  (42) 
N[C@@H]1CCN(C(=O)CNC(=O)c2ccc3ccccc3n2)[C@H]1c1ccccc1

>  <score_type>  (42) 
oracle

>  <origin>  (42) 
autodockgpu

>  <m_score__min__energy>  (42) 
-8.8699999999999992

>  <m_primary>  (42) 
energy

>  <rmsd>  (42) 
7.61742553422617

>  <m_score__min__rmsd>  (42) 
7.61742553422617

>  <meeko>  (42) 
{"free_energy": -7.88, "intermolecular_energy": -9.67, "internal_energy": -2.19, "cluster_size": 13, "cluster_id": 7, "rank_in_cluster": 3}

>  <energy>  (42) 
-7.78

>  <cluster_rmsd>  (42) 
0.29

>  <cluster>  (42) 
7

$$$$

     RDKit          3D

 50 53  0  0  0  0  0  0  0  0999 V2000
  145.9560   73.3900  218.5830 N   0  0  0  0  0  0  0  0  0  0  0  0
  144.9380   73.3230  219.6080 C   0  0  2  0  0  0  0  0  0  0  0  0
  144.7490   71.8770  220.0880 C   0  0  0  0  0  0  0  0  0  0  0  0
  143.3820   72.0770  220.7860 C   0  0  0  0  0  0  0  0  0  0  0  0
  142.5990   72.8740  219.8640 N   0  0  0  0  0  0  0  0  0  0  0  0
  141.2150   73.0090  219.6710 C   0  0  0  0  0  0  0  0  0  0  0  0
  140.7730   72.7880  218.4690 O   0  0  0  0  0  0  0  0  0  0  0  0
  140.1820   73.3610  220.6360 C   0  0  0  0  0  0  0  0  0  0  0  0
  140.1930   72.7650  221.9200 N   0  0  0  0  0  0  0  0  0  0  0  0
  139.8420   71.3970  222.1320 C   0  0  0  0  0  0  0  0  0  0  0  0
  139.5080   70.6340  221.1620 O   0  0  0  0  0  0  0  0  0  0  0  0
  139.8660   70.8430  223.5050 C   0  0  0  0  0  0  0  0  0  0  0  0
  139.3500   69.5840  223.7320 C   0  0  0  0  0  0  0  0  0  0  0  0
  139.3560   69.0330  225.0140 C   0  0  0  0  0  0  0  0  0  0  0  0
  139.8980   69.7940  226.0430 C   0  0  0  0  0  0  0  0  0  0  0  0
  139.9460   69.3270  227.3470 C   0  0  0  0  0  0  0  0  0  0  0  0
  140.4950   70.1170  228.3440 C   0  0  0  0  0  0  0  0  0  0  0  0
  141.0080   71.3800  228.0900 C   0  0  0  0  0  0  0  0  0  0  0  0
  140.9550   71.8350  226.7900 C   0  0  0  0  0  0  0  0  0  0  0  0
  140.4110   71.0540  225.7910 C   0  0  0  0  0  0  0  0  0  0  0  0
  140.3820   71.5450  224.5360 N   0  0  0  0  0  0  0  0  0  0  0  0
  143.5840   73.6080  219.0760 C   0  0  1  0  0  0  0  0  0  0  0  0
  143.2580   75.0300  218.9150 C   0  0  0  0  0  0  0  0  0  0  0  0
  142.8410   75.8160  219.9810 C   0  0  0  0  0  0  0  0  0  0  0  0
  142.5410   77.1480  219.8080 C   0  0  0  0  0  0  0  0  0  0  0  0
  142.6380   77.7690  218.5760 C   0  0  0  0  0  0  0  0  0  0  0  0
  143.0520   76.9980  217.5080 C   0  0  0  0  0  0  0  0  0  0  0  0
  143.3510   75.6640  217.6900 C   0  0  0  0  0  0  0  0  0  0  0  0
  146.8620   73.7760  218.9380 H   0  0  0  0  0  0  0  0  0  0  0  0
  145.5790   74.0540  217.8510 H   0  0  0  0  0  0  0  0  0  0  0  0
  145.2755   74.0366  220.3741 H   0  0  0  0  0  0  0  0  0  0  0  0
  144.6933   71.1621  219.2538 H   0  0  0  0  0  0  0  0  0  0  0  0
  145.5566   71.4574  220.7057 H   0  0  0  0  0  0  0  0  0  0  0  0
  142.8956   71.1072  220.9671 H   0  0  0  0  0  0  0  0  0  0  0  0
  143.4877   72.5661  221.7656 H   0  0  0  0  0  0  0  0  0  0  0  0
  140.2440   74.4487  220.7880 H   0  0  0  0  0  0  0  0  0  0  0  0
  139.2599   72.9720  220.1795 H   0  0  0  0  0  0  0  0  0  0  0  0
  140.4630   73.3030  222.7960 H   0  0  0  0  0  0  0  0  0  0  0  0
  138.9296   69.0086  222.8940 H   0  0  0  0  0  0  0  0  0  0  0  0
  138.9456   68.0302  225.2038 H   0  0  0  0  0  0  0  0  0  0  0  0
  139.5487   68.3305  227.5901 H   0  0  0  0  0  0  0  0  0  0  0  0
  140.5250   69.7288  229.3728 H   0  0  0  0  0  0  0  0  0  0  0  0
  141.4400   71.9942  228.8938 H   0  0  0  0  0  0  0  0  0  0  0  0
  141.3508   72.8319  226.5462 H   0  0  0  0  0  0  0  0  0  0  0  0
  143.5625   73.2477  218.0369 H   0  0  0  0  0  0  0  0  0  0  0  0
  142.7489   75.3664  220.9807 H   0  0  0  0  0  0  0  0  0  0  0  0
  142.2137   77.7374  220.6772 H   0  0  0  0  0  0  0  0  0  0  0  0
  142.3950   78.8346  218.4519 H   0  0  0  0  0  0  0  0  0  0  0  0
  143.1436   77.4491  216.5089 H   0  0  0  0  0  0  0  0  0  0  0  0
  143.6789   75.0769  216.8195 H   0  0  0  0  0  0  0  0  0  0  0  0
  1  2  1  0
  2  3  1  0
  3  4  1  0
  4  5  1  0
  5  6  1  0
  6  7  2  0
  6  8  1  0
  8  9  1  0
  9 10  1  0
 10 11  2  0
 10 12  1  0
 12 13  2  0
 13 14  1  0
 14 15  2  0
 15 16  1  0
 16 17  2  0
 17 18  1  0
 18 19  2  0
 19 20  1  0
 20 21  2  0
  5 22  1  0
 22 23  1  0
 23 24  2  0
 24 25  1  0
 25 26  2  0
 26 27  1  0
 27 28  2  0
 22  2  1  0
 28 23  1  0
 21 12  1  0
 20 15  1  0
  1 29  1  0
  1 30  1  0
  2 31  1  1
  3 32  1  0
  3 33  1  0
  4 34  1  0
  4 35  1  0
  8 36  1  0
  8 37  1  0
  9 38  1  0
 13 39  1  0
 14 40  1  0
 16 41  1  0
 17 42  1  0
 18 43  1  0
 19 44  1  0
 22 45  1  6
 24 46  1  0
 25 47  1  0
 26 48  1  0
 27 49  1  0
 28 50  1  0
M  END
>  <smiles>  (43) 
N[C@@H]1CCN(C(=O)CNC(=O)c2ccc3ccccc3n2)[C@H]1c1ccccc1

>  <score_type>  (43) 
oracle

>  <origin>  (43) 
autodockgpu

>  <m_score__min__energy>  (43) 
-8.8699999999999992

>  <m_primary>  (43) 
energy

>  <rmsd>  (43) 
3.3116794750348575

>  <m_score__min__rmsd>  (43) 
3.3116794750348575

>  <meeko>  (43) 
{"free_energy": -8.2, "intermolecular_energy": -9.99, "internal_energy": -1.75, "cluster_size": 11, "cluster_id": 2, "rank_in_cluster": 6}

>  <energy>  (43) 
-7.77

>  <cluster_rmsd>  (43) 
1.1

>  <cluster>  (43) 
7

$$$$

     RDKit          3D

 50 53  0  0  0  0  0  0  0  0999 V2000
  145.8810   72.6800  221.5280 N   0  0  0  0  0  0  0  0  0  0  0  0
  144.9430   72.8350  220.4380 C   0  0  2  0  0  0  0  0  0  0  0  0
  143.9850   74.0040  220.7110 C   0  0  0  0  0  0  0  0  0  0  0  0
  142.9120   73.6300  219.6610 C   0  0  0  0  0  0  0  0  0  0  0  0
  142.7220   72.2010  219.8060 N   0  0  0  0  0  0  0  0  0  0  0  0
  141.6370   71.3570  219.5160 C   0  0  0  0  0  0  0  0  0  0  0  0
  141.7810   70.5530  218.5060 O   0  0  0  0  0  0  0  0  0  0  0  0
  140.3530   71.2450  220.1960 C   0  0  0  0  0  0  0  0  0  0  0  0
  140.3070   70.7740  221.5300 N   0  0  0  0  0  0  0  0  0  0  0  0
  140.4230   71.6470  222.6550 C   0  0  0  0  0  0  0  0  0  0  0  0
  140.5650   72.9100  222.5100 O   0  0  0  0  0  0  0  0  0  0  0  0
  140.3770   71.0830  224.0230 C   0  0  0  0  0  0  0  0  0  0  0  0
  140.7140   71.8840  225.0930 C   0  0  0  0  0  0  0  0  0  0  0  0
  140.6820   71.3830  226.3960 C   0  0  0  0  0  0  0  0  0  0  0  0
  140.2990   70.0580  226.5710 C   0  0  0  0  0  0  0  0  0  0  0  0
  140.2390   69.4770  227.8270 C   0  0  0  0  0  0  0  0  0  0  0  0
  139.8520   68.1530  227.9570 C   0  0  0  0  0  0  0  0  0  0  0  0
  139.5170   67.3680  226.8650 C   0  0  0  0  0  0  0  0  0  0  0  0
  139.5820   67.9560  225.6200 C   0  0  0  0  0  0  0  0  0  0  0  0
  139.9650   69.2730  225.4810 C   0  0  0  0  0  0  0  0  0  0  0  0
  140.0120   69.8010  224.2420 N   0  0  0  0  0  0  0  0  0  0  0  0
  143.9800   71.7120  220.3600 C   0  0  1  0  0  0  0  0  0  0  0  0
  144.4780   70.5020  219.6940 C   0  0  0  0  0  0  0  0  0  0  0  0
  144.0370   69.2330  220.0450 C   0  0  0  0  0  0  0  0  0  0  0  0
  144.5170   68.1120  219.4070 C   0  0  0  0  0  0  0  0  0  0  0  0
  145.4540   68.1880  218.3930 C   0  0  0  0  0  0  0  0  0  0  0  0
  145.9010   69.4440  218.0350 C   0  0  0  0  0  0  0  0  0  0  0  0
  145.4150   70.5620  218.6790 C   0  0  0  0  0  0  0  0  0  0  0  0
  146.6660   72.0280  221.2960 H   0  0  0  0  0  0  0  0  0  0  0  0
  145.3260   72.2580  222.3230 H   0  0  0  0  0  0  0  0  0  0  0  0
  145.5778   72.9407  219.5459 H   0  0  0  0  0  0  0  0  0  0  0  0
  143.5897   73.9913  221.7374 H   0  0  0  0  0  0  0  0  0  0  0  0
  144.4126   75.0146  220.6346 H   0  0  0  0  0  0  0  0  0  0  0  0
  141.9728   74.1665  219.8611 H   0  0  0  0  0  0  0  0  0  0  0  0
  143.2214   73.9027  218.6412 H   0  0  0  0  0  0  0  0  0  0  0  0
  139.9028   72.2487  220.1959 H   0  0  0  0  0  0  0  0  0  0  0  0
  139.8289   70.4619  219.6285 H   0  0  0  0  0  0  0  0  0  0  0  0
  140.1840   69.7460  221.7680 H   0  0  0  0  0  0  0  0  0  0  0  0
  141.0112   72.9286  224.9186 H   0  0  0  0  0  0  0  0  0  0  0  0
  140.9508   72.0153  227.2550 H   0  0  0  0  0  0  0  0  0  0  0  0
  140.4981   70.0656  228.7194 H   0  0  0  0  0  0  0  0  0  0  0  0
  139.8091   67.7091  228.9626 H   0  0  0  0  0  0  0  0  0  0  0  0
  139.2116   66.3183  226.9869 H   0  0  0  0  0  0  0  0  0  0  0  0
  139.3253   67.3675  224.7269 H   0  0  0  0  0  0  0  0  0  0  0  0
  143.8128   71.3577  221.3879 H   0  0  0  0  0  0  0  0  0  0  0  0
  143.2916   69.1218  220.8463 H   0  0  0  0  0  0  0  0  0  0  0  0
  144.1433   67.1239  219.7135 H   0  0  0  0  0  0  0  0  0  0  0  0
  145.8284   67.2834  217.8915 H   0  0  0  0  0  0  0  0  0  0  0  0
  146.6469   69.5532  217.2339 H   0  0  0  0  0  0  0  0  0  0  0  0
  145.7906   71.5488  218.3706 H   0  0  0  0  0  0  0  0  0  0  0  0
  1  2  1  0
  2  3  1  0
  3  4  1  0
  4  5  1  0
  5  6  1  0
  6  7  2  0
  6  8  1  0
  8  9  1  0
  9 10  1  0
 10 11  2  0
 10 12  1  0
 12 13  2  0
 13 14  1  0
 14 15  2  0
 15 16  1  0
 16 17  2  0
 17 18  1  0
 18 19  2  0
 19 20  1  0
 20 21  2  0
  5 22  1  0
 22 23  1  0
 23 24  2  0
 24 25  1  0
 25 26  2  0
 26 27  1  0
 27 28  2  0
 22  2  1  0
 28 23  1  0
 21 12  1  0
 20 15  1  0
  1 29  1  0
  1 30  1  0
  2 31  1  6
  3 32  1  0
  3 33  1  0
  4 34  1  0
  4 35  1  0
  8 36  1  0
  8 37  1  0
  9 38  1  0
 13 39  1  0
 14 40  1  0
 16 41  1  0
 17 42  1  0
 18 43  1  0
 19 44  1  0
 22 45  1  1
 24 46  1  0
 25 47  1  0
 26 48  1  0
 27 49  1  0
 28 50  1  0
M  END
>  <smiles>  (44) 
N[C@@H]1CCN(C(=O)CNC(=O)c2ccc3ccccc3n2)[C@H]1c1ccccc1

>  <score_type>  (44) 
oracle

>  <origin>  (44) 
autodockgpu

>  <m_score__min__energy>  (44) 
-8.8699999999999992

>  <m_primary>  (44) 
energy

>  <rmsd>  (44) 
4.826758970418117

>  <m_score__min__rmsd>  (44) 
4.826758970418117

>  <meeko>  (44) 
{"free_energy": -8.04, "intermolecular_energy": -9.83, "internal_energy": -1.84, "cluster_size": 3, "cluster_id": 3, "rank_in_cluster": 3}

>  <energy>  (44) 
-7.76

>  <cluster_rmsd>  (44) 
1.11

>  <cluster>  (44) 
7

$$$$

     RDKit          3D

 50 53  0  0  0  0  0  0  0  0999 V2000
  143.5390   76.8670  217.7120 N   0  0  0  0  0  0  0  0  0  0  0  0
  142.4930   75.8980  217.9540 C   0  0  2  0  0  0  0  0  0  0  0  0
  141.1120   76.5170  217.6910 C   0  0  0  0  0  0  0  0  0  0  0  0
  140.2720   75.4470  218.4300 C   0  0  0  0  0  0  0  0  0  0  0  0
  140.9760   75.2050  219.6730 N   0  0  0  0  0  0  0  0  0  0  0  0
  140.5480   74.7390  220.9270 C   0  0  0  0  0  0  0  0  0  0  0  0
  141.1060   75.2790  221.9680 O   0  0  0  0  0  0  0  0  0  0  0  0
  139.5490   73.7250  221.2380 C   0  0  0  0  0  0  0  0  0  0  0  0
  139.6760   72.9590  222.4220 N   0  0  0  0  0  0  0  0  0  0  0  0
  139.5310   71.5380  222.4340 C   0  0  0  0  0  0  0  0  0  0  0  0
  139.2870   70.8810  221.3640 O   0  0  0  0  0  0  0  0  0  0  0  0
  139.6670   70.8020  223.7110 C   0  0  0  0  0  0  0  0  0  0  0  0
  139.2550   69.4880  223.7780 C   0  0  0  0  0  0  0  0  0  0  0  0
  139.3680   68.7660  224.9680 C   0  0  0  0  0  0  0  0  0  0  0  0
  139.9090   69.4170  226.0710 C   0  0  0  0  0  0  0  0  0  0  0  0
  140.0590   68.7790  227.2910 C   0  0  0  0  0  0  0  0  0  0  0  0
  140.6030   69.4630  228.3660 C   0  0  0  0  0  0  0  0  0  0  0  0
  141.0110   70.7850  228.2730 C   0  0  0  0  0  0  0  0  0  0  0  0
  140.8560   71.4100  227.0540 C   0  0  0  0  0  0  0  0  0  0  0  0
  140.3170   70.7360  225.9790 C   0  0  0  0  0  0  0  0  0  0  0  0
  140.1860   71.3930  224.8090 N   0  0  0  0  0  0  0  0  0  0  0  0
  142.3640   75.5540  219.3900 C   0  0  1  0  0  0  0  0  0  0  0  0
  143.3270   74.5650  219.8890 C   0  0  0  0  0  0  0  0  0  0  0  0
  144.5700   74.9330  220.3860 C   0  0  0  0  0  0  0  0  0  0  0  0
  145.4580   73.9880  220.8500 C   0  0  0  0  0  0  0  0  0  0  0  0
  145.1630   72.6370  220.8440 C   0  0  0  0  0  0  0  0  0  0  0  0
  143.9300   72.2590  220.3510 C   0  0  0  0  0  0  0  0  0  0  0  0
  143.0460   73.2110  219.8890 C   0  0  0  0  0  0  0  0  0  0  0  0
  143.5020   77.2690  216.7480 H   0  0  0  0  0  0  0  0  0  0  0  0
  144.4480   76.3340  217.8130 H   0  0  0  0  0  0  0  0  0  0  0  0
  142.7599   75.0441  217.3140 H   0  0  0  0  0  0  0  0  0  0  0  0
  141.0077   77.5158  218.1399 H   0  0  0  0  0  0  0  0  0  0  0  0
  140.8514   76.7024  216.6385 H   0  0  0  0  0  0  0  0  0  0  0  0
  139.2571   75.8221  218.6280 H   0  0  0  0  0  0  0  0  0  0  0  0
  140.1597   74.5287  217.8350 H   0  0  0  0  0  0  0  0  0  0  0  0
  138.5780   74.2391  221.2926 H   0  0  0  0  0  0  0  0  0  0  0  0
  139.6770   72.9829  220.4362 H   0  0  0  0  0  0  0  0  0  0  0  0
  139.8870   73.3990  223.3650 H   0  0  0  0  0  0  0  0  0  0  0  0
  138.8331   69.0035  222.8851 H   0  0  0  0  0  0  0  0  0  0  0  0
  139.0401   67.7179  225.0306 H   0  0  0  0  0  0  0  0  0  0  0  0
  139.7467   67.7306  227.4063 H   0  0  0  0  0  0  0  0  0  0  0  0
  140.7152   68.9391  229.3267 H   0  0  0  0  0  0  0  0  0  0  0  0
  141.4408   71.3135  229.1367 H   0  0  0  0  0  0  0  0  0  0  0  0
  141.1661   72.4590  226.9378 H   0  0  0  0  0  0  0  0  0  0  0  0
  142.6386   76.4517  219.9633 H   0  0  0  0  0  0  0  0  0  0  0  0
  144.8502   75.9965  220.4096 H   0  0  0  0  0  0  0  0  0  0  0  0
  146.4329   74.3184  221.2377 H   0  0  0  0  0  0  0  0  0  0  0  0
  145.8822   71.8930  221.2172 H   0  0  0  0  0  0  0  0  0  0  0  0
  143.6520   71.1950  220.3267 H   0  0  0  0  0  0  0  0  0  0  0  0
  142.0716   72.8778  219.5023 H   0  0  0  0  0  0  0  0  0  0  0  0
  1  2  1  0
  2  3  1  0
  3  4  1  0
  4  5  1  0
  5  6  1  0
  6  7  2  0
  6  8  1  0
  8  9  1  0
  9 10  1  0
 10 11  2  0
 10 12  1  0
 12 13  2  0
 13 14  1  0
 14 15  2  0
 15 16  1  0
 16 17  2  0
 17 18  1  0
 18 19  2  0
 19 20  1  0
 20 21  2  0
  5 22  1  0
 22 23  1  0
 23 24  2  0
 24 25  1  0
 25 26  2  0
 26 27  1  0
 27 28  2  0
 22  2  1  0
 28 23  1  0
 21 12  1  0
 20 15  1  0
  1 29  1  0
  1 30  1  0
  2 31  1  6
  3 32  1  0
  3 33  1  0
  4 34  1  0
  4 35  1  0
  8 36  1  0
  8 37  1  0
  9 38  1  0
 13 39  1  0
 14 40  1  0
 16 41  1  0
 17 42  1  0
 18 43  1  0
 19 44  1  0
 22 45  1  1
 24 46  1  0
 25 47  1  0
 26 48  1  0
 27 49  1  0
 28 50  1  0
M  END
>  <smiles>  (45) 
N[C@@H]1CCN(C(=O)CNC(=O)c2ccc3ccccc3n2)[C@H]1c1ccccc1

>  <score_type>  (45) 
oracle

>  <origin>  (45) 
autodockgpu

>  <m_score__min__energy>  (45) 
-8.8699999999999992

>  <m_primary>  (45) 
energy

>  <rmsd>  (45) 
2.3773732607612184

>  <m_score__min__rmsd>  (45) 
2.3773732607612184

>  <meeko>  (45) 
{"free_energy": -8.15, "intermolecular_energy": -9.94, "internal_energy": -1.78, "cluster_size": 9, "cluster_id": 5, "rank_in_cluster": 6}

>  <energy>  (45) 
-7.76

>  <cluster_rmsd>  (45) 
1.15

>  <cluster>  (45) 
7

$$$$

     RDKit          3D

 50 53  0  0  0  0  0  0  0  0999 V2000
  146.2450   73.3860  219.0710 N   0  0  0  0  0  0  0  0  0  0  0  0
  145.1460   72.7810  219.7920 C   0  0  2  0  0  0  0  0  0  0  0  0
  145.1900   71.2520  219.6600 C   0  0  0  0  0  0  0  0  0  0  0  0
  143.7380   70.9720  220.1170 C   0  0  0  0  0  0  0  0  0  0  0  0
  142.9280   71.9550  219.4270 N   0  0  0  0  0  0  0  0  0  0  0  0
  141.5770   71.9650  219.0440 C   0  0  0  0  0  0  0  0  0  0  0  0
  141.3320   71.8300  217.7750 O   0  0  0  0  0  0  0  0  0  0  0  0
  140.3880   72.1040  219.8750 C   0  0  0  0  0  0  0  0  0  0  0  0
  140.3250   71.4380  221.1230 N   0  0  0  0  0  0  0  0  0  0  0  0
  140.1190   72.1340  222.3530 C   0  0  0  0  0  0  0  0  0  0  0  0
  139.9700   73.4040  222.3860 O   0  0  0  0  0  0  0  0  0  0  0  0
  140.0750   71.3730  223.6220 C   0  0  0  0  0  0  0  0  0  0  0  0
  139.5340   70.1050  223.6280 C   0  0  0  0  0  0  0  0  0  0  0  0
  139.4760   69.3610  224.8070 C   0  0  0  0  0  0  0  0  0  0  0  0
  139.9830   69.9410  225.9640 C   0  0  0  0  0  0  0  0  0  0  0  0
  139.9680   69.2760  227.1800 C   0  0  0  0  0  0  0  0  0  0  0  0
  140.4840   69.8910  228.3090 C   0  0  0  0  0  0  0  0  0  0  0  0
  141.0240   71.1670  228.2770 C   0  0  0  0  0  0  0  0  0  0  0  0
  141.0330   71.8200  227.0630 C   0  0  0  0  0  0  0  0  0  0  0  0
  140.5230   71.2150  225.9340 C   0  0  0  0  0  0  0  0  0  0  0  0
  140.5550   71.8960  224.7710 N   0  0  0  0  0  0  0  0  0  0  0  0
  143.8350   73.0670  219.1630 C   0  0  1  0  0  0  0  0  0  0  0  0
  143.2560   74.3780  219.4810 C   0  0  0  0  0  0  0  0  0  0  0  0
  142.3070   74.5410  220.4800 C   0  0  0  0  0  0  0  0  0  0  0  0
  141.7780   75.7810  220.7620 C   0  0  0  0  0  0  0  0  0  0  0  0
  142.1600   76.9170  220.0730 C   0  0  0  0  0  0  0  0  0  0  0  0
  143.1040   76.7670  219.0760 C   0  0  0  0  0  0  0  0  0  0  0  0
  143.6290   75.5220  218.8000 C   0  0  0  0  0  0  0  0  0  0  0  0
  146.7350   74.1240  219.6280 H   0  0  0  0  0  0  0  0  0  0  0  0
  145.8100   73.8470  218.2240 H   0  0  0  0  0  0  0  0  0  0  0  0
  145.2439   73.1715  220.8157 H   0  0  0  0  0  0  0  0  0  0  0  0
  145.3745   70.9255  218.6259 H   0  0  0  0  0  0  0  0  0  0  0  0
  145.9860   70.7358  220.2167 H   0  0  0  0  0  0  0  0  0  0  0  0
  143.4338   69.9536  219.8337 H   0  0  0  0  0  0  0  0  0  0  0  0
  143.6293   71.0424  221.2094 H   0  0  0  0  0  0  0  0  0  0  0  0
  140.2649   73.1778  220.0794 H   0  0  0  0  0  0  0  0  0  0  0  0
  139.6013   71.6144  219.2822 H   0  0  0  0  0  0  0  0  0  0  0  0
  140.4270   70.3840  221.2120 H   0  0  0  0  0  0  0  0  0  0  0  0
  139.1440   69.6753  222.6935 H   0  0  0  0  0  0  0  0  0  0  0  0
  139.0436   68.3496  224.8204 H   0  0  0  0  0  0  0  0  0  0  0  0
  139.5472   68.2620  227.2484 H   0  0  0  0  0  0  0  0  0  0  0  0
  140.4644   69.3472  229.2650 H   0  0  0  0  0  0  0  0  0  0  0  0
  141.4291   71.6397  229.1839 H   0  0  0  0  0  0  0  0  0  0  0  0
  141.4517   72.8349  226.9943 H   0  0  0  0  0  0  0  0  0  0  0  0
  144.0082   73.1488  218.0798 H   0  0  0  0  0  0  0  0  0  0  0  0
  141.9718   73.6659  221.0560 H   0  0  0  0  0  0  0  0  0  0  0  0
  141.0274   75.8703  221.5611 H   0  0  0  0  0  0  0  0  0  0  0  0
  141.7293   77.9012  220.3094 H   0  0  0  0  0  0  0  0  0  0  0  0
  143.4380   77.6430  218.5006 H   0  0  0  0  0  0  0  0  0  0  0  0
  144.3796   75.4350  218.0006 H   0  0  0  0  0  0  0  0  0  0  0  0
  1  2  1  0
  2  3  1  0
  3  4  1  0
  4  5  1  0
  5  6  1  0
  6  7  2  0
  6  8  1  0
  8  9  1  0
  9 10  1  0
 10 11  2  0
 10 12  1  0
 12 13  2  0
 13 14  1  0
 14 15  2  0
 15 16  1  0
 16 17  2  0
 17 18  1  0
 18 19  2  0
 19 20  1  0
 20 21  2  0
  5 22  1  0
 22 23  1  0
 23 24  2  0
 24 25  1  0
 25 26  2  0
 26 27  1  0
 27 28  2  0
 22  2  1  0
 28 23  1  0
 21 12  1  0
 20 15  1  0
  1 29  1  0
  1 30  1  0
  2 31  1  1
  3 32  1  0
  3 33  1  0
  4 34  1  0
  4 35  1  0
  8 36  1  0
  8 37  1  0
  9 38  1  0
 13 39  1  0
 14 40  1  0
 16 41  1  0
 17 42  1  0
 18 43  1  0
 19 44  1  0
 22 45  1  6
 24 46  1  0
 25 47  1  0
 26 48  1  0
 27 49  1  0
 28 50  1  0
M  END
>  <smiles>  (46) 
N[C@@H]1CCN(C(=O)CNC(=O)c2ccc3ccccc3n2)[C@H]1c1ccccc1

>  <score_type>  (46) 
oracle

>  <origin>  (46) 
autodockgpu

>  <m_score__min__energy>  (46) 
-8.8699999999999992

>  <m_primary>  (46) 
energy

>  <rmsd>  (46) 
3.7131032082655744

>  <m_score__min__rmsd>  (46) 
3.7131032082655744

>  <meeko>  (46) 
{"free_energy": -8.75, "intermolecular_energy": -10.54, "internal_energy": -1.4, "cluster_size": 11, "cluster_id": 2, "rank_in_cluster": 1}

>  <energy>  (46) 
-7.75

>  <cluster_rmsd>  (46) 
1.13

>  <cluster>  (46) 
7

$$$$

     RDKit          3D

 50 53  0  0  0  0  0  0  0  0999 V2000
  142.9280   79.3140  222.6860 N   0  0  0  0  0  0  0  0  0  0  0  0
  141.5960   79.0820  222.1720 C   0  0  2  0  0  0  0  0  0  0  0  0
  140.5700   79.0760  223.3150 C   0  0  0  0  0  0  0  0  0  0  0  0
  139.4150   78.3960  222.5410 C   0  0  0  0  0  0  0  0  0  0  0  0
  140.0340   77.3000  221.8230 N   0  0  0  0  0  0  0  0  0  0  0  0
  139.5290   76.0810  221.3420 C   0  0  0  0  0  0  0  0  0  0  0  0
  138.3170   76.0990  220.8730 O   0  0  0  0  0  0  0  0  0  0  0  0
  140.1770   74.7770  221.2840 C   0  0  0  0  0  0  0  0  0  0  0  0
  139.9790   73.8510  222.3360 N   0  0  0  0  0  0  0  0  0  0  0  0
  140.5380   72.5370  222.3160 C   0  0  0  0  0  0  0  0  0  0  0  0
  141.2590   72.1320  221.3400 O   0  0  0  0  0  0  0  0  0  0  0  0
  140.2800   71.6180  223.4470 C   0  0  0  0  0  0  0  0  0  0  0  0
  139.5980   70.4410  223.2160 C   0  0  0  0  0  0  0  0  0  0  0  0
  139.3380   69.5530  224.2600 C   0  0  0  0  0  0  0  0  0  0  0  0
  139.7900   69.8950  225.5300 C   0  0  0  0  0  0  0  0  0  0  0  0
  139.5770   69.0740  226.6250 C   0  0  0  0  0  0  0  0  0  0  0  0
  140.0440   69.4530  227.8730 C   0  0  0  0  0  0  0  0  0  0  0  0
  140.7270   70.6410  228.0790 C   0  0  0  0  0  0  0  0  0  0  0  0
  140.9330   71.4510  226.9830 C   0  0  0  0  0  0  0  0  0  0  0  0
  140.4720   71.0810  225.7370 C   0  0  0  0  0  0  0  0  0  0  0  0
  140.6990   71.9080  224.6970 N   0  0  0  0  0  0  0  0  0  0  0  0
  141.4250   77.7050  221.6520 C   0  0  1  0  0  0  0  0  0  0  0  0
  141.9340   77.4780  220.2930 C   0  0  0  0  0  0  0  0  0  0  0  0
  142.7000   76.3670  219.9700 C   0  0  0  0  0  0  0  0  0  0  0  0
  143.1670   76.1740  218.6890 C   0  0  0  0  0  0  0  0  0  0  0  0
  142.9020   77.0670  217.6680 C   0  0  0  0  0  0  0  0  0  0  0  0
  142.1410   78.1780  217.9780 C   0  0  0  0  0  0  0  0  0  0  0  0
  141.6770   78.3630  219.2630 C   0  0  0  0  0  0  0  0  0  0  0  0
  143.5470   79.8000  221.9960 H   0  0  0  0  0  0  0  0  0  0  0  0
  143.3320   78.3550  222.8730 H   0  0  0  0  0  0  0  0  0  0  0  0
  141.4566   79.8657  221.4128 H   0  0  0  0  0  0  0  0  0  0  0  0
  140.9055   78.4800  224.1765 H   0  0  0  0  0  0  0  0  0  0  0  0
  140.3441   80.0496  223.7743 H   0  0  0  0  0  0  0  0  0  0  0  0
  138.6525   78.0188  223.2384 H   0  0  0  0  0  0  0  0  0  0  0  0
  138.9052   79.0965  221.8631 H   0  0  0  0  0  0  0  0  0  0  0  0
  139.8322   74.2896  220.3601 H   0  0  0  0  0  0  0  0  0  0  0  0
  141.2480   75.0185  221.3518 H   0  0  0  0  0  0  0  0  0  0  0  0
  139.4050   74.0840  223.1990 H   0  0  0  0  0  0  0  0  0  0  0  0
  139.2559   70.2005  222.1986 H   0  0  0  0  0  0  0  0  0  0  0  0
  138.7935   68.6134  224.0845 H   0  0  0  0  0  0  0  0  0  0  0  0
  139.0380   68.1228  226.5039 H   0  0  0  0  0  0  0  0  0  0  0  0
  139.8664   68.7875  228.7306 H   0  0  0  0  0  0  0  0  0  0  0  0
  141.0903   70.9262  229.0773 H   0  0  0  0  0  0  0  0  0  0  0  0
  141.4709   72.4029  227.1035 H   0  0  0  0  0  0  0  0  0  0  0  0
  142.0724   77.0504  222.2539 H   0  0  0  0  0  0  0  0  0  0  0  0
  142.9380   75.6285  220.7498 H   0  0  0  0  0  0  0  0  0  0  0  0
  143.7704   75.2804  218.4714 H   0  0  0  0  0  0  0  0  0  0  0  0
  143.2817   76.9000  216.6492 H   0  0  0  0  0  0  0  0  0  0  0  0
  141.9049   78.9165  217.1977 H   0  0  0  0  0  0  0  0  0  0  0  0
  141.0738   79.2572  219.4787 H   0  0  0  0  0  0  0  0  0  0  0  0
  1  2  1  0
  2  3  1  0
  3  4  1  0
  4  5  1  0
  5  6  1  0
  6  7  2  0
  6  8  1  0
  8  9  1  0
  9 10  1  0
 10 11  2  0
 10 12  1  0
 12 13  2  0
 13 14  1  0
 14 15  2  0
 15 16  1  0
 16 17  2  0
 17 18  1  0
 18 19  2  0
 19 20  1  0
 20 21  2  0
  5 22  1  0
 22 23  1  0
 23 24  2  0
 24 25  1  0
 25 26  2  0
 26 27  1  0
 27 28  2  0
 22  2  1  0
 28 23  1  0
 21 12  1  0
 20 15  1  0
  1 29  1  0
  1 30  1  0
  2 31  1  6
  3 32  1  0
  3 33  1  0
  4 34  1  0
  4 35  1  0
  8 36  1  0
  8 37  1  0
  9 38  1  0
 13 39  1  0
 14 40  1  0
 16 41  1  0
 17 42  1  0
 18 43  1  0
 19 44  1  0
 22 45  1  1
 24 46  1  0
 25 47  1  0
 26 48  1  0
 27 49  1  0
 28 50  1  0
M  END
>  <smiles>  (47) 
N[C@@H]1CCN(C(=O)CNC(=O)c2ccc3ccccc3n2)[C@H]1c1ccccc1

>  <score_type>  (47) 
oracle

>  <origin>  (47) 
autodockgpu

>  <m_score__min__energy>  (47) 
-8.8699999999999992

>  <m_primary>  (47) 
energy

>  <rmsd>  (47) 
2.554860537913789

>  <m_score__min__rmsd>  (47) 
2.554860537913789

>  <meeko>  (47) 
{"free_energy": -8.8, "intermolecular_energy": -10.59, "internal_energy": -1.33, "cluster_size": 9, "cluster_id": 1, "rank_in_cluster": 4}

>  <energy>  (47) 
-7.73

>  <cluster_rmsd>  (47) 
1.0

>  <cluster>  (47) 
7

$$$$

     RDKit          3D

 50 53  0  0  0  0  0  0  0  0999 V2000
  146.1880   73.4700  219.2830 N   0  0  0  0  0  0  0  0  0  0  0  0
  144.9200   73.4270  219.9780 C   0  0  2  0  0  0  0  0  0  0  0  0
  144.6230   72.0040  220.4720 C   0  0  0  0  0  0  0  0  0  0  0  0
  143.1110   72.1990  220.7390 C   0  0  0  0  0  0  0  0  0  0  0  0
  142.6120   72.9210  219.5860 N   0  0  0  0  0  0  0  0  0  0  0  0
  141.3390   73.0020  218.9990 C   0  0  0  0  0  0  0  0  0  0  0  0
  141.2150   72.4940  217.8090 O   0  0  0  0  0  0  0  0  0  0  0  0
  140.1140   73.5770  219.5380 C   0  0  0  0  0  0  0  0  0  0  0  0
  140.1390   74.8780  220.0950 N   0  0  0  0  0  0  0  0  0  0  0  0
  140.1350   75.1070  221.5050 C   0  0  0  0  0  0  0  0  0  0  0  0
  140.1170   74.1380  222.3400 O   0  0  0  0  0  0  0  0  0  0  0  0
  140.1510   76.4950  222.0180 C   0  0  0  0  0  0  0  0  0  0  0  0
  138.9630   77.0930  222.3830 C   0  0  0  0  0  0  0  0  0  0  0  0
  138.9430   78.4010  222.8690 C   0  0  0  0  0  0  0  0  0  0  0  0
  140.1570   79.0710  222.9720 C   0  0  0  0  0  0  0  0  0  0  0  0
  140.2320   80.3720  223.4440 C   0  0  0  0  0  0  0  0  0  0  0  0
  141.4620   81.0040  223.5320 C   0  0  0  0  0  0  0  0  0  0  0  0
  142.6430   80.3820  223.1590 C   0  0  0  0  0  0  0  0  0  0  0  0
  142.5560   79.0890  222.6900 C   0  0  0  0  0  0  0  0  0  0  0  0
  141.3370   78.4510  222.6010 C   0  0  0  0  0  0  0  0  0  0  0  0
  141.3050   77.1870  222.1350 N   0  0  0  0  0  0  0  0  0  0  0  0
  143.7700   73.6410  219.0670 C   0  0  1  0  0  0  0  0  0  0  0  0
  143.4840   75.0420  218.7340 C   0  0  0  0  0  0  0  0  0  0  0  0
  143.1010   75.9640  219.6980 C   0  0  0  0  0  0  0  0  0  0  0  0
  142.8380   77.2740  219.3640 C   0  0  0  0  0  0  0  0  0  0  0  0
  142.9400   77.7350  218.0640 C   0  0  0  0  0  0  0  0  0  0  0  0
  143.3190   76.8260  217.0960 C   0  0  0  0  0  0  0  0  0  0  0  0
  143.5810   75.5160  217.4400 C   0  0  0  0  0  0  0  0  0  0  0  0
  146.8560   74.1560  219.7040 H   0  0  0  0  0  0  0  0  0  0  0  0
  145.9620   73.7910  218.3000 H   0  0  0  0  0  0  0  0  0  0  0  0
  145.0140   74.1916  220.7632 H   0  0  0  0  0  0  0  0  0  0  0  0
  144.8182   71.2433  219.7017 H   0  0  0  0  0  0  0  0  0  0  0  0
  145.2267   71.6441  221.3182 H   0  0  0  0  0  0  0  0  0  0  0  0
  142.6071   71.2257  220.8325 H   0  0  0  0  0  0  0  0  0  0  0  0
  142.9258   72.7432  221.6768 H   0  0  0  0  0  0  0  0  0  0  0  0
  139.3813   73.5946  218.7177 H   0  0  0  0  0  0  0  0  0  0  0  0
  139.8843   72.9325  220.3993 H   0  0  0  0  0  0  0  0  0  0  0  0
  140.1640   75.7550  219.4960 H   0  0  0  0  0  0  0  0  0  0  0  0
  138.0209   76.5328  222.2900 H   0  0  0  0  0  0  0  0  0  0  0  0
  137.9993   78.8853  223.1606 H   0  0  0  0  0  0  0  0  0  0  0  0
  139.3171   80.9017  223.7481 H   0  0  0  0  0  0  0  0  0  0  0  0
  141.5025   82.0357  223.9113 H   0  0  0  0  0  0  0  0  0  0  0  0
  143.6108   80.8995  223.2342 H   0  0  0  0  0  0  0  0  0  0  0  0
  143.4701   78.5596  222.3830 H   0  0  0  0  0  0  0  0  0  0  0  0
  144.0503   73.2244  218.0883 H   0  0  0  0  0  0  0  0  0  0  0  0
  143.0059   75.6433  220.7459 H   0  0  0  0  0  0  0  0  0  0  0  0
  142.5374   77.9757  220.1560 H   0  0  0  0  0  0  0  0  0  0  0  0
  142.7276   78.7843  217.8111 H   0  0  0  0  0  0  0  0  0  0  0  0
  143.4122   77.1473  216.0481 H   0  0  0  0  0  0  0  0  0  0  0  0
  143.8813   74.8158  216.6465 H   0  0  0  0  0  0  0  0  0  0  0  0
  1  2  1  0
  2  3  1  0
  3  4  1  0
  4  5  1  0
  5  6  1  0
  6  7  2  0
  6  8  1  0
  8  9  1  0
  9 10  1  0
 10 11  2  0
 10 12  1  0
 12 13  2  0
 13 14  1  0
 14 15  2  0
 15 16  1  0
 16 17  2  0
 17 18  1  0
 18 19  2  0
 19 20  1  0
 20 21  2  0
  5 22  1  0
 22 23  1  0
 23 24  2  0
 24 25  1  0
 25 26  2  0
 26 27  1  0
 27 28  2  0
 22  2  1  0
 28 23  1  0
 21 12  1  0
 20 15  1  0
  1 29  1  0
  1 30  1  0
  2 31  1  1
  3 32  1  0
  3 33  1  0
  4 34  1  0
  4 35  1  0
  8 36  1  0
  8 37  1  0
  9 38  1  0
 13 39  1  0
 14 40  1  0
 16 41  1  0
 17 42  1  0
 18 43  1  0
 19 44  1  0
 22 45  1  6
 24 46  1  0
 25 47  1  0
 26 48  1  0
 27 49  1  0
 28 50  1  0
M  END
>  <smiles>  (48) 
N[C@@H]1CCN(C(=O)CNC(=O)c2ccc3ccccc3n2)[C@H]1c1ccccc1

>  <score_type>  (48) 
oracle

>  <origin>  (48) 
autodockgpu

>  <m_score__min__energy>  (48) 
-8.8699999999999992

>  <m_primary>  (48) 
energy

>  <rmsd>  (48) 
7.260026098363944

>  <m_score__min__rmsd>  (48) 
7.260026098363944

>  <meeko>  (48) 
{"free_energy": -7.76, "intermolecular_energy": -9.55, "internal_energy": -2.18, "cluster_size": 13, "cluster_id": 7, "rank_in_cluster": 7}

>  <energy>  (48) 
-7.73

>  <cluster_rmsd>  (48) 
1.1

>  <cluster>  (48) 
7

$$$$

     RDKit          3D

 50 53  0  0  0  0  0  0  0  0999 V2000
  144.0540   76.1060  217.2610 N   0  0  0  0  0  0  0  0  0  0  0  0
  142.9630   75.2350  217.6400 C   0  0  2  0  0  0  0  0  0  0  0  0
  141.6230   75.8020  217.1470 C   0  0  0  0  0  0  0  0  0  0  0  0
  140.7020   74.9430  218.0460 C   0  0  0  0  0  0  0  0  0  0  0  0
  141.3150   74.9770  219.3580 N   0  0  0  0  0  0  0  0  0  0  0  0
  140.7910   74.8150  220.6510 C   0  0  0  0  0  0  0  0  0  0  0  0
  141.4560   75.3690  221.6200 O   0  0  0  0  0  0  0  0  0  0  0  0
  139.5890   74.1080  221.0740 C   0  0  0  0  0  0  0  0  0  0  0  0
  139.6070   73.3520  222.2700 N   0  0  0  0  0  0  0  0  0  0  0  0
  140.1410   72.0290  222.3330 C   0  0  0  0  0  0  0  0  0  0  0  0
  140.6430   71.4610  221.3020 O   0  0  0  0  0  0  0  0  0  0  0  0
  140.1170   71.2930  223.6160 C   0  0  0  0  0  0  0  0  0  0  0  0
  139.6090   70.0110  223.6480 C   0  0  0  0  0  0  0  0  0  0  0  0
  139.5710   69.2890  224.8420 C   0  0  0  0  0  0  0  0  0  0  0  0
  140.0610   69.9060  225.9870 C   0  0  0  0  0  0  0  0  0  0  0  0
  140.0630   69.2660  227.2160 C   0  0  0  0  0  0  0  0  0  0  0  0
  140.5610   69.9170  228.3330 C   0  0  0  0  0  0  0  0  0  0  0  0
  141.0680   71.2060  228.2750 C   0  0  0  0  0  0  0  0  0  0  0  0
  141.0600   71.8340  227.0480 C   0  0  0  0  0  0  0  0  0  0  0  0
  140.5670   71.1930  225.9310 C   0  0  0  0  0  0  0  0  0  0  0  0
  140.5820   71.8510  224.7540 N   0  0  0  0  0  0  0  0  0  0  0  0
  142.7290   75.2290  219.1030 C   0  0  1  0  0  0  0  0  0  0  0  0
  143.6250   74.3620  219.8790 C   0  0  0  0  0  0  0  0  0  0  0  0
  144.7910   74.8400  220.4610 C   0  0  0  0  0  0  0  0  0  0  0  0
  145.6160   74.0100  221.1850 C   0  0  0  0  0  0  0  0  0  0  0  0
  145.3330   72.6690  221.3690 C   0  0  0  0  0  0  0  0  0  0  0  0
  144.1760   72.1810  220.7930 C   0  0  0  0  0  0  0  0  0  0  0  0
  143.3540   73.0200  220.0700 C   0  0  0  0  0  0  0  0  0  0  0  0
  144.9320   75.5810  217.0420 H   0  0  0  0  0  0  0  0  0  0  0  0
  144.2370   76.7170  218.1050 H   0  0  0  0  0  0  0  0  0  0  0  0
  143.2430   74.2536  217.2295 H   0  0  0  0  0  0  0  0  0  0  0  0
  141.5226   76.8783  217.3507 H   0  0  0  0  0  0  0  0  0  0  0  0
  141.4379   75.7480  216.0640 H   0  0  0  0  0  0  0  0  0  0  0  0
  139.6893   75.3711  218.0819 H   0  0  0  0  0  0  0  0  0  0  0  0
  140.5982   73.9157  217.6666 H   0  0  0  0  0  0  0  0  0  0  0  0
  138.7968   74.8630  221.1853 H   0  0  0  0  0  0  0  0  0  0  0  0
  139.4490   73.3478  220.2914 H   0  0  0  0  0  0  0  0  0  0  0  0
  139.2240   73.7280  223.1870 H   0  0  0  0  0  0  0  0  0  0  0  0
  139.2298   69.5527  222.7227 H   0  0  0  0  0  0  0  0  0  0  0  0
  139.1670   68.2664  224.8756 H   0  0  0  0  0  0  0  0  0  0  0  0
  139.6698   68.2425  227.3047 H   0  0  0  0  0  0  0  0  0  0  0  0
  140.5539   69.3926  229.2999 H   0  0  0  0  0  0  0  0  0  0  0  0
  141.4608   71.7073  229.1719 H   0  0  0  0  0  0  0  0  0  0  0  0
  141.4513   72.8582  226.9588 H   0  0  0  0  0  0  0  0  0  0  0  0
  142.9941   76.2288  219.4774 H   0  0  0  0  0  0  0  0  0  0  0  0
  145.0600   75.8999  220.3415 H   0  0  0  0  0  0  0  0  0  0  0  0
  146.5305   74.4269  221.6320 H   0  0  0  0  0  0  0  0  0  0  0  0
  146.0019   72.0174  221.9503 H   0  0  0  0  0  0  0  0  0  0  0  0
  143.9096   71.1203  220.9113 H   0  0  0  0  0  0  0  0  0  0  0  0
  142.4396   72.6015  219.6243 H   0  0  0  0  0  0  0  0  0  0  0  0
  1  2  1  0
  2  3  1  0
  3  4  1  0
  4  5  1  0
  5  6  1  0
  6  7  2  0
  6  8  1  0
  8  9  1  0
  9 10  1  0
 10 11  2  0
 10 12  1  0
 12 13  2  0
 13 14  1  0
 14 15  2  0
 15 16  1  0
 16 17  2  0
 17 18  1  0
 18 19  2  0
 19 20  1  0
 20 21  2  0
  5 22  1  0
 22 23  1  0
 23 24  2  0
 24 25  1  0
 25 26  2  0
 26 27  1  0
 27 28  2  0
 22  2  1  0
 28 23  1  0
 21 12  1  0
 20 15  1  0
  1 29  1  0
  1 30  1  0
  2 31  1  6
  3 32  1  0
  3 33  1  0
  4 34  1  0
  4 35  1  0
  8 36  1  0
  8 37  1  0
  9 38  1  0
 13 39  1  0
 14 40  1  0
 16 41  1  0
 17 42  1  0
 18 43  1  0
 19 44  1  0
 22 45  1  1
 24 46  1  0
 25 47  1  0
 26 48  1  0
 27 49  1  0
 28 50  1  0
M  END
>  <smiles>  (49) 
N[C@@H]1CCN(C(=O)CNC(=O)c2ccc3ccccc3n2)[C@H]1c1ccccc1

>  <score_type>  (49) 
oracle

>  <origin>  (49) 
autodockgpu

>  <m_score__min__energy>  (49) 
-8.8699999999999992

>  <m_primary>  (49) 
energy

>  <rmsd>  (49) 
2.6776845534453906

>  <m_score__min__rmsd>  (49) 
2.6776845534453906

>  <meeko>  (49) 
{"free_energy": -8.37, "intermolecular_energy": -10.16, "internal_energy": -1.69, "cluster_size": 9, "cluster_id": 5, "rank_in_cluster": 2}

>  <energy>  (49) 
-7.72

>  <cluster_rmsd>  (49) 
1.19

>  <cluster>  (49) 
7

$$$$

     RDKit          3D

 50 53  0  0  0  0  0  0  0  0999 V2000
  140.1200   73.1780  222.6970 N   0  0  0  0  0  0  0  0  0  0  0  0
  140.2830   71.7630  222.4430 C   0  0  2  0  0  0  0  0  0  0  0  0
  139.8580   71.4180  221.0090 C   0  0  0  0  0  0  0  0  0  0  0  0
  139.7280   69.8880  221.2040 C   0  0  0  0  0  0  0  0  0  0  0  0
  139.0260   69.7240  222.4600 N   0  0  0  0  0  0  0  0  0  0  0  0
  138.2210   68.6910  222.9660 C   0  0  0  0  0  0  0  0  0  0  0  0
  138.8330   67.6030  223.3290 O   0  0  0  0  0  0  0  0  0  0  0  0
  136.7760   68.6590  223.1510 C   0  0  0  0  0  0  0  0  0  0  0  0
  136.1320   69.7320  223.8120 N   0  0  0  0  0  0  0  0  0  0  0  0
  135.1160   69.5280  224.7960 C   0  0  0  0  0  0  0  0  0  0  0  0
  134.7430   68.3530  225.1370 O   0  0  0  0  0  0  0  0  0  0  0  0
  134.4790   70.6980  225.4390 C   0  0  0  0  0  0  0  0  0  0  0  0
  133.5010   70.4940  226.3890 C   0  0  0  0  0  0  0  0  0  0  0  0
  132.8790   71.5760  227.0150 C   0  0  0  0  0  0  0  0  0  0  0  0
  133.2810   72.8550  226.6470 C   0  0  0  0  0  0  0  0  0  0  0  0
  132.7180   73.9870  227.2150 C   0  0  0  0  0  0  0  0  0  0  0  0
  133.1480   75.2430  226.8200 C   0  0  0  0  0  0  0  0  0  0  0  0
  134.1340   75.4220  225.8620 C   0  0  0  0  0  0  0  0  0  0  0  0
  134.6860   74.2900  225.3030 C   0  0  0  0  0  0  0  0  0  0  0  0
  134.2650   73.0350  225.6910 C   0  0  0  0  0  0  0  0  0  0  0  0
  134.8360   71.9590  225.1140 N   0  0  0  0  0  0  0  0  0  0  0  0
  139.3230   70.9380  223.2140 C   0  0  1  0  0  0  0  0  0  0  0  0
  139.6940   70.6810  224.6110 C   0  0  0  0  0  0  0  0  0  0  0  0
  138.9010   69.9140  225.4540 C   0  0  0  0  0  0  0  0  0  0  0  0
  139.2680   69.6850  226.7610 C   0  0  0  0  0  0  0  0  0  0  0  0
  140.4340   70.2000  227.2980 C   0  0  0  0  0  0  0  0  0  0  0  0
  141.2310   70.9650  226.4690 C   0  0  0  0  0  0  0  0  0  0  0  0
  140.8550   71.1890  225.1610 C   0  0  0  0  0  0  0  0  0  0  0  0
  139.2090   73.4030  223.1590 H   0  0  0  0  0  0  0  0  0  0  0  0
  140.1310   73.6400  221.7450 H   0  0  0  0  0  0  0  0  0  0  0  0
  141.3372   71.5632  222.6854 H   0  0  0  0  0  0  0  0  0  0  0  0
  138.9033   71.8879  220.7300 H   0  0  0  0  0  0  0  0  0  0  0  0
  140.5304   71.7533  220.2056 H   0  0  0  0  0  0  0  0  0  0  0  0
  139.1529   69.4415  220.3794 H   0  0  0  0  0  0  0  0  0  0  0  0
  140.7086   69.3897  221.2128 H   0  0  0  0  0  0  0  0  0  0  0  0
  136.3272   68.5853  222.1494 H   0  0  0  0  0  0  0  0  0  0  0  0
  136.6225   67.8084  223.8314 H   0  0  0  0  0  0  0  0  0  0  0  0
  136.3700   70.7490  223.6140 H   0  0  0  0  0  0  0  0  0  0  0  0
  133.2077   69.4682  226.6566 H   0  0  0  0  0  0  0  0  0  0  0  0
  132.0975   71.4217  227.7735 H   0  0  0  0  0  0  0  0  0  0  0  0
  131.9315   73.8882  227.9777 H   0  0  0  0  0  0  0  0  0  0  0  0
  132.6909   76.1300  227.2829 H   0  0  0  0  0  0  0  0  0  0  0  0
  134.4625   76.4275  225.5602 H   0  0  0  0  0  0  0  0  0  0  0  0
  135.4711   74.3882  224.5388 H   0  0  0  0  0  0  0  0  0  0  0  0
  138.4038   71.5317  223.3264 H   0  0  0  0  0  0  0  0  0  0  0  0
  137.9644   69.4823  225.0714 H   0  0  0  0  0  0  0  0  0  0  0  0
  138.6131   69.0730  227.3985 H   0  0  0  0  0  0  0  0  0  0  0  0
  140.7154   70.0079  228.3439 H   0  0  0  0  0  0  0  0  0  0  0  0
  142.1673   71.3964  226.8526 H   0  0  0  0  0  0  0  0  0  0  0  0
  141.5111   71.8016  224.5252 H   0  0  0  0  0  0  0  0  0  0  0  0
  1  2  1  0
  2  3  1  0
  3  4  1  0
  4  5  1  0
  5  6  1  0
  6  7  2  0
  6  8  1  0
  8  9  1  0
  9 10  1  0
 10 11  2  0
 10 12  1  0
 12 13  2  0
 13 14  1  0
 14 15  2  0
 15 16  1  0
 16 17  2  0
 17 18  1  0
 18 19  2  0
 19 20  1  0
 20 21  2  0
  5 22  1  0
 22 23  1  0
 23 24  2  0
 24 25  1  0
 25 26  2  0
 26 27  1  0
 27 28  2  0
 22  2  1  0
 28 23  1  0
 21 12  1  0
 20 15  1  0
  1 29  1  0
  1 30  1  0
  2 31  1  6
  3 32  1  0
  3 33  1  0
  4 34  1  0
  4 35  1  0
  8 36  1  0
  8 37  1  0
  9 38  1  0
 13 39  1  0
 14 40  1  0
 16 41  1  0
 17 42  1  0
 18 43  1  0
 19 44  1  0
 22 45  1  1
 24 46  1  0
 25 47  1  0
 26 48  1  0
 27 49  1  0
 28 50  1  0
M  END
>  <smiles>  (50) 
N[C@@H]1CCN(C(=O)CNC(=O)c2ccc3ccccc3n2)[C@H]1c1ccccc1

>  <score_type>  (50) 
oracle

>  <origin>  (50) 
autodockgpu

>  <m_score__min__energy>  (50) 
-8.8699999999999992

>  <m_primary>  (50) 
energy

>  <rmsd>  (50) 
7.261368573817874

>  <m_score__min__rmsd>  (50) 
7.261368573817874

>  <meeko>  (50) 
{"free_energy": -7.71, "intermolecular_energy": -9.5, "internal_energy": -1.62, "cluster_size": 2, "cluster_id": 6, "rank_in_cluster": 2}

>  <energy>  (50) 
-7.46

>  <cluster_rmsd>  (50) 
1.25

>  <cluster>  (50) 
7

$$$$
