
     RDKit          3D

 47 50  0  0  0  0  0  0  0  0999 V2000
  138.7950   75.4060  221.9510 O   0  0  0  0  0  0  0  0  0  0  0  0
  139.9670   75.8500  221.9150 C   0  0  0  0  0  0  0  0  0  0  0  0
  141.0840   75.1100  221.4510 N   0  0  0  0  0  0  0  0  0  0  0  0
  140.9270   73.7240  220.9650 C   0  0  0  0  0  0  0  0  0  0  0  0
  142.2250   73.0490  220.9260 C   0  0  0  0  0  0  0  0  0  0  0  0
  142.2590   71.8920  221.5060 O   0  0  0  0  0  0  0  0  0  0  0  0
  143.4330   73.4620  220.3590 N   0  0  0  0  0  0  0  0  0  0  0  0
  144.6280   72.5580  220.4730 C   0  0  0  0  0  0  0  0  0  0  0  0
  145.3460   72.7710  219.1590 C   0  0  2  0  0  0  0  0  0  0  0  0
  146.6230   73.3230  219.3800 O   0  0  0  0  0  0  0  0  0  0  0  0
  144.5330   73.8000  218.4050 C   0  0  0  0  0  0  0  0  0  0  0  0
  143.9390   74.5670  219.6160 C   0  0  1  0  0  0  0  0  0  0  0  0
  143.0330   75.6080  219.1660 C   0  0  0  0  0  0  0  0  0  0  0  0
  142.9920   76.7600  219.9220 N   0  0  0  0  0  0  0  0  0  0  0  0
  142.1850   77.7830  219.6330 C   0  0  0  0  0  0  0  0  0  0  0  0
  141.3430   77.7250  218.5430 C   0  0  0  0  0  0  0  0  0  0  0  0
  141.3680   76.5810  217.7730 C   0  0  0  0  0  0  0  0  0  0  0  0
  142.2080   75.5930  218.1270 N   0  0  0  0  0  0  0  0  0  0  0  0
  140.2020   77.2280  222.3850 C   0  0  0  0  0  0  0  0  0  0  0  0
  139.1530   78.0650  222.6930 C   0  0  0  0  0  0  0  0  0  0  0  0
  139.2930   79.3530  223.1330 C   0  0  0  0  0  0  0  0  0  0  0  0
  140.5780   79.8380  223.2760 C   0  0  0  0  0  0  0  0  0  0  0  0
  140.7520   81.1370  223.7190 C   0  0  0  0  0  0  0  0  0  0  0  0
  142.0180   81.6360  223.8670 C   0  0  0  0  0  0  0  0  0  0  0  0
  143.1120   80.8360  223.5700 C   0  0  0  0  0  0  0  0  0  0  0  0
  142.9030   79.5340  223.1270 C   0  0  0  0  0  0  0  0  0  0  0  0
  141.6410   79.0040  222.9680 C   0  0  0  0  0  0  0  0  0  0  0  0
  141.4420   77.7290  222.5330 N   0  0  0  0  0  0  0  0  0  0  0  0
  142.0360   75.5570  221.4540 H   0  0  0  0  0  0  0  0  0  0  0  0
  140.2536   73.1766  221.6409 H   0  0  0  0  0  0  0  0  0  0  0  0
  140.5050   73.7467  219.9494 H   0  0  0  0  0  0  0  0  0  0  0  0
  145.2638   72.8492  221.3221 H   0  0  0  0  0  0  0  0  0  0  0  0
  144.3592   71.5067  220.6533 H   0  0  0  0  0  0  0  0  0  0  0  0
  145.4540   71.8184  218.6197 H   0  0  0  0  0  0  0  0  0  0  0  0
  146.5680   74.3310  219.3720 H   0  0  0  0  0  0  0  0  0  0  0  0
  145.1640   74.4454  217.7762 H   0  0  0  0  0  0  0  0  0  0  0  0
  143.7990   73.3961  217.6922 H   0  0  0  0  0  0  0  0  0  0  0  0
  144.6001   75.1797  220.2465 H   0  0  0  0  0  0  0  0  0  0  0  0
  142.1918   78.6799  220.2698 H   0  0  0  0  0  0  0  0  0  0  0  0
  140.6741   78.5625  218.2958 H   0  0  0  0  0  0  0  0  0  0  0  0
  140.7173   76.4797  216.8919 H   0  0  0  0  0  0  0  0  0  0  0  0
  138.1324   77.6712  222.5774 H   0  0  0  0  0  0  0  0  0  0  0  0
  138.4170   79.9771  223.3636 H   0  0  0  0  0  0  0  0  0  0  0  0
  139.8789   81.7646  223.9507 H   0  0  0  0  0  0  0  0  0  0  0  0
  142.1674   82.6671  224.2200 H   0  0  0  0  0  0  0  0  0  0  0  0
  144.1338   81.2272  223.6836 H   0  0  0  0  0  0  0  0  0  0  0  0
  143.7756   78.9056  222.8955 H   0  0  0  0  0  0  0  0  0  0  0  0
  1  2  2  0
  2  3  1  0
  3  4  1  0
  4  5  1  0
  5  6  2  0
  5  7  1  0
  7  8  1  0
  8  9  1  0
  9 10  1  0
  9 11  1  0
 11 12  1  0
 12 13  1  0
 13 14  2  0
 14 15  1  0
 15 16  2  0
 16 17  1  0
 17 18  2  0
  2 19  1  0
 19 20  2  0
 20 21  1  0
 21 22  2  0
 22 23  1  0
 23 24  2  0
 24 25  1  0
 25 26  2  0
 26 27  1  0
 27 28  2  0
 12  7  1  0
 18 13  1  0
 28 19  1  0
 27 22  1  0
  3 29  1  0
  4 30  1  0
  4 31  1  0
  8 32  1  0
  8 33  1  0
  9 34  1  6
 10 35  1  0
 11 36  1  0
 11 37  1  0
 12 38  1  1
 15 39  1  0
 16 40  1  0
 17 41  1  0
 20 42  1  0
 21 43  1  0
 23 44  1  0
 24 45  1  0
 25 46  1  0
 26 47  1  0
M  END
>  <smiles>  (1) 
O=C(NCC(=O)N1C[C@H](O)C[C@H]1c1ncccn1)c1ccc2ccccc2n1

>  <score_type>  (1) 
oracle

>  <origin>  (1) 
autodockgpu

>  <m_score__min__energy>  (1) 
-8.4700000000000006

>  <m_primary>  (1) 
energy

>  <rmsd>  (1) 
7.387002596571763

>  <m_score__min__rmsd>  (1) 
7.387002596571763

>  <meeko>  (1) 
{"free_energy": -7.45, "intermolecular_energy": -9.24, "internal_energy": -2.82, "cluster_size": 40, "cluster_id": 3, "rank_in_cluster": 8}

>  <energy>  (1) 
-8.47

>  <cluster_rmsd>  (1) 
0.0

>  <cluster>  (1) 
1

$$$$

     RDKit          3D

 47 50  0  0  0  0  0  0  0  0999 V2000
  138.8620   75.2130  222.1710 O   0  0  0  0  0  0  0  0  0  0  0  0
  140.0190   75.6930  222.0970 C   0  0  0  0  0  0  0  0  0  0  0  0
  141.1610   74.9550  221.6930 N   0  0  0  0  0  0  0  0  0  0  0  0
  141.0520   73.5300  221.3220 C   0  0  0  0  0  0  0  0  0  0  0  0
  141.7710   73.2730  220.0740 C   0  0  0  0  0  0  0  0  0  0  0  0
  141.0740   72.6920  219.1490 O   0  0  0  0  0  0  0  0  0  0  0  0
  143.0930   73.5580  219.7260 N   0  0  0  0  0  0  0  0  0  0  0  0
  144.0890   72.4330  219.6980 C   0  0  0  0  0  0  0  0  0  0  0  0
  144.9910   72.8030  218.5420 C   0  0  2  0  0  0  0  0  0  0  0  0
  146.3070   73.0210  218.9940 O   0  0  0  0  0  0  0  0  0  0  0  0
  144.4710   74.1220  218.0150 C   0  0  0  0  0  0  0  0  0  0  0  0
  143.8730   74.6840  219.3320 C   0  0  1  0  0  0  0  0  0  0  0  0
  143.2250   75.9610  219.0950 C   0  0  0  0  0  0  0  0  0  0  0  0
  143.3600   76.4970  217.8320 N   0  0  0  0  0  0  0  0  0  0  0  0
  142.8340   77.6750  217.4890 C   0  0  0  0  0  0  0  0  0  0  0  0
  142.1200   78.4170  218.4060 C   0  0  0  0  0  0  0  0  0  0  0  0
  141.9730   77.8990  219.6760 C   0  0  0  0  0  0  0  0  0  0  0  0
  142.5310   76.7050  219.9450 N   0  0  0  0  0  0  0  0  0  0  0  0
  140.2050   77.1120  222.4510 C   0  0  0  0  0  0  0  0  0  0  0  0
  139.1280   77.9500  222.6270 C   0  0  0  0  0  0  0  0  0  0  0  0
  139.2230   79.2750  222.9560 C   0  0  0  0  0  0  0  0  0  0  0  0
  140.4900   79.7990  223.1210 C   0  0  0  0  0  0  0  0  0  0  0  0
  140.6200   81.1350  223.4520 C   0  0  0  0  0  0  0  0  0  0  0  0
  141.8680   81.6720  223.6200 C   0  0  0  0  0  0  0  0  0  0  0  0
  142.9890   80.8720  223.4530 C   0  0  0  0  0  0  0  0  0  0  0  0
  142.8250   79.5320  223.1190 C   0  0  0  0  0  0  0  0  0  0  0  0
  141.5820   78.9620  222.9440 C   0  0  0  0  0  0  0  0  0  0  0  0
  141.4280   77.6500  222.6170 N   0  0  0  0  0  0  0  0  0  0  0  0
  142.0970   75.4330  221.6580 H   0  0  0  0  0  0  0  0  0  0  0  0
  141.4840   72.9125  222.1233 H   0  0  0  0  0  0  0  0  0  0  0  0
  139.9907   73.2773  221.1817 H   0  0  0  0  0  0  0  0  0  0  0  0
  144.6547   72.3828  220.6400 H   0  0  0  0  0  0  0  0  0  0  0  0
  143.6215   71.4440  219.5826 H   0  0  0  0  0  0  0  0  0  0  0  0
  144.9970   72.0024  217.7877 H   0  0  0  0  0  0  0  0  0  0  0  0
  146.5210   74.0070  218.9670 H   0  0  0  0  0  0  0  0  0  0  0  0
  145.2785   74.7579  217.6232 H   0  0  0  0  0  0  0  0  0  0  0  0
  143.7731   74.0532  217.1675 H   0  0  0  0  0  0  0  0  0  0  0  0
  144.5471   74.9858  220.1471 H   0  0  0  0  0  0  0  0  0  0  0  0
  142.9713   78.0568  216.4666 H   0  0  0  0  0  0  0  0  0  0  0  0
  141.6825   79.3889  218.1341 H   0  0  0  0  0  0  0  0  0  0  0  0
  141.4142   78.4479  220.4484 H   0  0  0  0  0  0  0  0  0  0  0  0
  138.1218   77.5259  222.4942 H   0  0  0  0  0  0  0  0  0  0  0  0
  138.3255   79.8981  223.0840 H   0  0  0  0  0  0  0  0  0  0  0  0
  139.7258   81.7628  223.5796 H   0  0  0  0  0  0  0  0  0  0  0  0
  141.9814   82.7332  223.8862 H   0  0  0  0  0  0  0  0  0  0  0  0
  143.9968   81.2931  223.5834 H   0  0  0  0  0  0  0  0  0  0  0  0
  143.7191   78.9044  222.9898 H   0  0  0  0  0  0  0  0  0  0  0  0
  1  2  2  0
  2  3  1  0
  3  4  1  0
  4  5  1  0
  5  6  2  0
  5  7  1  0
  7  8  1  0
  8  9  1  0
  9 10  1  0
  9 11  1  0
 11 12  1  0
 12 13  1  0
 13 14  2  0
 14 15  1  0
 15 16  2  0
 16 17  1  0
 17 18  2  0
  2 19  1  0
 19 20  2  0
 20 21  1  0
 21 22  2  0
 22 23  1  0
 23 24  2  0
 24 25  1  0
 25 26  2  0
 26 27  1  0
 27 28  2  0
 12  7  1  0
 18 13  1  0
 28 19  1  0
 27 22  1  0
  3 29  1  0
  4 30  1  0
  4 31  1  0
  8 32  1  0
  8 33  1  0
  9 34  1  6
 10 35  1  0
 11 36  1  0
 11 37  1  0
 12 38  1  1
 15 39  1  0
 16 40  1  0
 17 41  1  0
 20 42  1  0
 21 43  1  0
 23 44  1  0
 24 45  1  0
 25 46  1  0
 26 47  1  0
M  END
>  <smiles>  (2) 
O=C(NCC(=O)N1C[C@H](O)C[C@H]1c1ncccn1)c1ccc2ccccc2n1

>  <score_type>  (2) 
oracle

>  <origin>  (2) 
autodockgpu

>  <m_score__min__energy>  (2) 
-8.4700000000000006

>  <m_primary>  (2) 
energy

>  <rmsd>  (2) 
7.346422815564408

>  <m_score__min__rmsd>  (2) 
7.346422815564408

>  <meeko>  (2) 
{"free_energy": -7.48, "intermolecular_energy": -9.27, "internal_energy": -2.71, "cluster_size": 40, "cluster_id": 3, "rank_in_cluster": 5}

>  <energy>  (2) 
-8.41

>  <cluster_rmsd>  (2) 
0.1

>  <cluster>  (2) 
1

$$$$

     RDKit          3D

 47 50  0  0  0  0  0  0  0  0999 V2000
  139.5380   74.5200  222.6360 O   0  0  0  0  0  0  0  0  0  0  0  0
  140.0600   75.3450  221.8480 C   0  0  0  0  0  0  0  0  0  0  0  0
  140.5710   75.0090  220.5680 N   0  0  0  0  0  0  0  0  0  0  0  0
  140.5170   73.6200  220.0700 C   0  0  0  0  0  0  0  0  0  0  0  0
  141.8120   72.9640  220.2560 C   0  0  0  0  0  0  0  0  0  0  0  0
  141.7680   71.8310  220.8810 O   0  0  0  0  0  0  0  0  0  0  0  0
  143.0880   73.3730  219.8610 N   0  0  0  0  0  0  0  0  0  0  0  0
  144.1910   72.3530  219.8220 C   0  0  0  0  0  0  0  0  0  0  0  0
  145.0160   72.7840  218.6310 C   0  0  2  0  0  0  0  0  0  0  0  0
  146.3170   73.1430  219.0370 O   0  0  0  0  0  0  0  0  0  0  0  0
  144.3500   74.0320  218.0950 C   0  0  0  0  0  0  0  0  0  0  0  0
  143.7380   74.5610  219.4190 C   0  0  1  0  0  0  0  0  0  0  0  0
  142.9580   75.7610  219.1770 C   0  0  0  0  0  0  0  0  0  0  0  0
  142.1510   75.7590  218.0590 N   0  0  0  0  0  0  0  0  0  0  0  0
  141.4010   76.8060  217.7090 C   0  0  0  0  0  0  0  0  0  0  0  0
  141.4050   77.9550  218.4700 C   0  0  0  0  0  0  0  0  0  0  0  0
  142.2050   77.9790  219.5940 C   0  0  0  0  0  0  0  0  0  0  0  0
  142.9310   76.8850  219.8810 N   0  0  0  0  0  0  0  0  0  0  0  0
  140.1470   76.7540  222.2760 C   0  0  0  0  0  0  0  0  0  0  0  0
  139.0150   77.5070  222.4850 C   0  0  0  0  0  0  0  0  0  0  0  0
  139.0180   78.8170  222.8830 C   0  0  0  0  0  0  0  0  0  0  0  0
  140.2460   79.4150  223.0860 C   0  0  0  0  0  0  0  0  0  0  0  0
  140.2820   80.7380  223.4870 C   0  0  0  0  0  0  0  0  0  0  0  0
  141.4900   81.3480  223.6950 C   0  0  0  0  0  0  0  0  0  0  0  0
  142.6640   80.6350  223.4980 C   0  0  0  0  0  0  0  0  0  0  0  0
  142.5940   79.3060  223.0940 C   0  0  0  0  0  0  0  0  0  0  0  0
  141.3930   78.6640  222.8780 C   0  0  0  0  0  0  0  0  0  0  0  0
  141.3300   77.3640  222.4820 N   0  0  0  0  0  0  0  0  0  0  0  0
  140.9930   75.7630  219.9680 H   0  0  0  0  0  0  0  0  0  0  0  0
  139.7460   73.0652  220.6247 H   0  0  0  0  0  0  0  0  0  0  0  0
  140.2729   73.6332  218.9975 H   0  0  0  0  0  0  0  0  0  0  0  0
  144.7872   72.3808  220.7460 H   0  0  0  0  0  0  0  0  0  0  0  0
  143.8215   71.3201  219.7405 H   0  0  0  0  0  0  0  0  0  0  0  0
  145.0804   71.9711  217.8927 H   0  0  0  0  0  0  0  0  0  0  0  0
  146.4240   74.1470  218.9980 H   0  0  0  0  0  0  0  0  0  0  0  0
  145.0772   74.7366  217.6652 H   0  0  0  0  0  0  0  0  0  0  0  0
  143.6376   73.8743  217.2718 H   0  0  0  0  0  0  0  0  0  0  0  0
  144.4025   74.9471  220.2060 H   0  0  0  0  0  0  0  0  0  0  0  0
  140.7749   76.7514  216.8062 H   0  0  0  0  0  0  0  0  0  0  0  0
  140.7910   78.8239  218.1907 H   0  0  0  0  0  0  0  0  0  0  0  0
  142.2474   78.8698  220.2380 H   0  0  0  0  0  0  0  0  0  0  0  0
  138.0406   77.0236  222.3211 H   0  0  0  0  0  0  0  0  0  0  0  0
  138.0799   79.3709  223.0349 H   0  0  0  0  0  0  0  0  0  0  0  0
  139.3464   81.2965  223.6378 H   0  0  0  0  0  0  0  0  0  0  0  0
  141.5297   82.3991  224.0170 H   0  0  0  0  0  0  0  0  0  0  0  0
  143.6400   81.1159  223.6597 H   0  0  0  0  0  0  0  0  0  0  0  0
  143.5294   78.7476  222.9415 H   0  0  0  0  0  0  0  0  0  0  0  0
  1  2  2  0
  2  3  1  0
  3  4  1  0
  4  5  1  0
  5  6  2  0
  5  7  1  0
  7  8  1  0
  8  9  1  0
  9 10  1  0
  9 11  1  0
 11 12  1  0
 12 13  1  0
 13 14  2  0
 14 15  1  0
 15 16  2  0
 16 17  1  0
 17 18  2  0
  2 19  1  0
 19 20  2  0
 20 21  1  0
 21 22  2  0
 22 23  1  0
 23 24  2  0
 24 25  1  0
 25 26  2  0
 26 27  1  0
 27 28  2  0
 12  7  1  0
 18 13  1  0
 28 19  1  0
 27 22  1  0
  3 29  1  0
  4 30  1  0
  4 31  1  0
  8 32  1  0
  8 33  1  0
  9 34  1  6
 10 35  1  0
 11 36  1  0
 11 37  1  0
 12 38  1  1
 15 39  1  0
 16 40  1  0
 17 41  1  0
 20 42  1  0
 21 43  1  0
 23 44  1  0
 24 45  1  0
 25 46  1  0
 26 47  1  0
M  END
>  <smiles>  (3) 
O=C(NCC(=O)N1C[C@H](O)C[C@H]1c1ncccn1)c1ccc2ccccc2n1

>  <score_type>  (3) 
oracle

>  <origin>  (3) 
autodockgpu

>  <m_score__min__energy>  (3) 
-8.4700000000000006

>  <m_primary>  (3) 
energy

>  <rmsd>  (3) 
7.134455405345973

>  <m_score__min__rmsd>  (3) 
7.134455405345973

>  <meeko>  (3) 
{"free_energy": -6.99, "intermolecular_energy": -8.78, "internal_energy": -3.05, "cluster_size": 40, "cluster_id": 3, "rank_in_cluster": 33}

>  <energy>  (3) 
-8.36

>  <cluster_rmsd>  (3) 
0.25

>  <cluster>  (3) 
1

$$$$

     RDKit          3D

 47 50  0  0  0  0  0  0  0  0999 V2000
  140.8070   71.5710  221.3390 O   0  0  0  0  0  0  0  0  0  0  0  0
  140.3250   72.1610  222.3360 C   0  0  0  0  0  0  0  0  0  0  0  0
  139.9330   73.5240  222.3420 N   0  0  0  0  0  0  0  0  0  0  0  0
  140.0730   74.3590  221.1320 C   0  0  0  0  0  0  0  0  0  0  0  0
  140.6360   75.6650  221.4780 C   0  0  0  0  0  0  0  0  0  0  0  0
  140.3550   76.0850  222.6710 O   0  0  0  0  0  0  0  0  0  0  0  0
  141.4290   76.5280  220.7190 N   0  0  0  0  0  0  0  0  0  0  0  0
  142.0350   76.0140  219.4440 C   0  0  0  0  0  0  0  0  0  0  0  0
  141.9940   77.2210  218.5340 C   0  0  2  0  0  0  0  0  0  0  0  0
  143.2990   77.6100  218.1720 O   0  0  0  0  0  0  0  0  0  0  0  0
  141.4020   78.3420  219.3590 C   0  0  0  0  0  0  0  0  0  0  0  0
  141.8760   77.8810  220.7620 C   0  0  1  0  0  0  0  0  0  0  0  0
  141.3720   78.7720  221.7900 C   0  0  0  0  0  0  0  0  0  0  0  0
  142.3010   79.5660  222.4280 N   0  0  0  0  0  0  0  0  0  0  0  0
  141.9750   80.4120  223.4080 C   0  0  0  0  0  0  0  0  0  0  0  0
  140.6670   80.5250  223.8280 C   0  0  0  0  0  0  0  0  0  0  0  0
  139.7210   79.7400  223.2030 C   0  0  0  0  0  0  0  0  0  0  0  0
  140.1270   78.9130  222.2240 N   0  0  0  0  0  0  0  0  0  0  0  0
  140.1550   71.3900  223.5820 C   0  0  0  0  0  0  0  0  0  0  0  0
  139.5580   70.1500  223.5770 C   0  0  0  0  0  0  0  0  0  0  0  0
  139.3660   69.3780  224.6910 C   0  0  0  0  0  0  0  0  0  0  0  0
  139.8040   69.8850  225.8970 C   0  0  0  0  0  0  0  0  0  0  0  0
  139.6240   69.1300  227.0410 C   0  0  0  0  0  0  0  0  0  0  0  0
  140.0520   69.6160  228.2470 C   0  0  0  0  0  0  0  0  0  0  0  0
  140.6590   70.8610  228.3100 C   0  0  0  0  0  0  0  0  0  0  0  0
  140.8260   71.5970  227.1420 C   0  0  0  0  0  0  0  0  0  0  0  0
  140.4060   71.1340  225.9130 C   0  0  0  0  0  0  0  0  0  0  0  0
  140.5710   71.8590  224.7730 N   0  0  0  0  0  0  0  0  0  0  0  0
  139.5380   73.9420  223.2220 H   0  0  0  0  0  0  0  0  0  0  0  0
  140.7401   73.8540  220.4179 H   0  0  0  0  0  0  0  0  0  0  0  0
  139.0801   74.5055  220.6817 H   0  0  0  0  0  0  0  0  0  0  0  0
  143.0694   75.6767  219.6063 H   0  0  0  0  0  0  0  0  0  0  0  0
  141.5028   75.1438  219.0323 H   0  0  0  0  0  0  0  0  0  0  0  0
  141.4192   76.9970  217.6233 H   0  0  0  0  0  0  0  0  0  0  0  0
  143.8130   77.8950  218.9930 H   0  0  0  0  0  0  0  0  0  0  0  0
  141.8185   79.3221  219.0836 H   0  0  0  0  0  0  0  0  0  0  0  0
  140.3176   78.4905  219.2494 H   0  0  0  0  0  0  0  0  0  0  0  0
  142.9463   77.9227  221.0124 H   0  0  0  0  0  0  0  0  0  0  0  0
  142.7560   81.0234  223.8838 H   0  0  0  0  0  0  0  0  0  0  0  0
  140.3871   81.2183  224.6349 H   0  0  0  0  0  0  0  0  0  0  0  0
  138.6624   79.7892  223.4977 H   0  0  0  0  0  0  0  0  0  0  0  0
  139.2114   69.7521  222.6118 H   0  0  0  0  0  0  0  0  0  0  0  0
  138.8817   68.3924  224.6271 H   0  0  0  0  0  0  0  0  0  0  0  0
  139.1395   68.1442  226.9825 H   0  0  0  0  0  0  0  0  0  0  0  0
  139.9150   69.0214  229.1622 H   0  0  0  0  0  0  0  0  0  0  0  0
  141.0049   71.2624  229.2740 H   0  0  0  0  0  0  0  0  0  0  0  0
  141.3101   72.5830  227.2006 H   0  0  0  0  0  0  0  0  0  0  0  0
  1  2  2  0
  2  3  1  0
  3  4  1  0
  4  5  1  0
  5  6  2  0
  5  7  1  0
  7  8  1  0
  8  9  1  0
  9 10  1  0
  9 11  1  0
 11 12  1  0
 12 13  1  0
 13 14  2  0
 14 15  1  0
 15 16  2  0
 16 17  1  0
 17 18  2  0
  2 19  1  0
 19 20  2  0
 20 21  1  0
 21 22  2  0
 22 23  1  0
 23 24  2  0
 24 25  1  0
 25 26  2  0
 26 27  1  0
 27 28  2  0
 12  7  1  0
 18 13  1  0
 28 19  1  0
 27 22  1  0
  3 29  1  0
  4 30  1  0
  4 31  1  0
  8 32  1  0
  8 33  1  0
  9 34  1  6
 10 35  1  0
 11 36  1  0
 11 37  1  0
 12 38  1  6
 15 39  1  0
 16 40  1  0
 17 41  1  0
 20 42  1  0
 21 43  1  0
 23 44  1  0
 24 45  1  0
 25 46  1  0
 26 47  1  0
M  END
>  <smiles>  (4) 
O=C(NCC(=O)N1C[C@H](O)C[C@H]1c1ncccn1)c1ccc2ccccc2n1

>  <score_type>  (4) 
oracle

>  <origin>  (4) 
autodockgpu

>  <m_score__min__energy>  (4) 
-8.4700000000000006

>  <m_primary>  (4) 
energy

>  <rmsd>  (4) 
2.004177579643386

>  <m_score__min__rmsd>  (4) 
2.004177579643386

>  <meeko>  (4) 
{"free_energy": -8.41, "intermolecular_energy": -10.2, "internal_energy": -1.62, "cluster_size": 5, "cluster_id": 1, "rank_in_cluster": 2}

>  <energy>  (4) 
-8.33

>  <cluster_rmsd>  (4) 
0.59

>  <cluster>  (4) 
1

$$$$

     RDKit          3D

 47 50  0  0  0  0  0  0  0  0999 V2000
  139.0610   74.9350  222.3330 O   0  0  0  0  0  0  0  0  0  0  0  0
  140.0250   75.6000  221.8850 C   0  0  0  0  0  0  0  0  0  0  0  0
  140.9590   75.1080  220.9360 N   0  0  0  0  0  0  0  0  0  0  0  0
  140.8450   73.7360  220.4020 C   0  0  0  0  0  0  0  0  0  0  0  0
  141.9880   72.9280  220.8300 C   0  0  0  0  0  0  0  0  0  0  0  0
  141.7460   72.1060  221.8000 O   0  0  0  0  0  0  0  0  0  0  0  0
  143.3000   72.9080  220.3500 N   0  0  0  0  0  0  0  0  0  0  0  0
  144.1160   71.6600  220.5390 C   0  0  0  0  0  0  0  0  0  0  0  0
  144.9510   71.6030  219.2790 C   0  0  2  0  0  0  0  0  0  0  0  0
  146.3210   71.7020  219.5910 O   0  0  0  0  0  0  0  0  0  0  0  0
  144.5800   72.8320  218.4800 C   0  0  0  0  0  0  0  0  0  0  0  0
  144.1940   73.7710  219.6530 C   0  0  1  0  0  0  0  0  0  0  0  0
  143.7170   75.0470  219.1510 C   0  0  0  0  0  0  0  0  0  0  0  0
  143.6800   75.1970  217.7810 N   0  0  0  0  0  0  0  0  0  0  0  0
  143.2860   76.3270  217.1900 C   0  0  0  0  0  0  0  0  0  0  0  0
  142.8920   77.4110  217.9450 C   0  0  0  0  0  0  0  0  0  0  0  0
  142.9220   77.2830  219.3180 C   0  0  0  0  0  0  0  0  0  0  0  0
  143.3300   76.1120  219.8390 N   0  0  0  0  0  0  0  0  0  0  0  0
  140.2020   76.9800  222.3730 C   0  0  0  0  0  0  0  0  0  0  0  0
  139.1230   77.7490  222.7440 C   0  0  0  0  0  0  0  0  0  0  0  0
  139.2100   79.0350  223.2050 C   0  0  0  0  0  0  0  0  0  0  0  0
  140.4700   79.5900  223.3020 C   0  0  0  0  0  0  0  0  0  0  0  0
  140.5900   80.8880  223.7640 C   0  0  0  0  0  0  0  0  0  0  0  0
  141.8310   81.4560  223.8680 C   0  0  0  0  0  0  0  0  0  0  0  0
  142.9540   80.7270  223.5060 C   0  0  0  0  0  0  0  0  0  0  0  0
  142.8000   79.4230  223.0450 C   0  0  0  0  0  0  0  0  0  0  0  0
  141.5640   78.8240  222.9300 C   0  0  0  0  0  0  0  0  0  0  0  0
  141.4180   77.5490  222.4770 N   0  0  0  0  0  0  0  0  0  0  0  0
  141.7410   75.7320  220.6120 H   0  0  0  0  0  0  0  0  0  0  0  0
  139.9169   73.2777  220.7741 H   0  0  0  0  0  0  0  0  0  0  0  0
  140.8291   73.7798  219.3030 H   0  0  0  0  0  0  0  0  0  0  0  0
  144.7534   71.7363  221.4322 H   0  0  0  0  0  0  0  0  0  0  0  0
  143.5017   70.7604  220.6921 H   0  0  0  0  0  0  0  0  0  0  0  0
  144.7716   70.6607  218.7406 H   0  0  0  0  0  0  0  0  0  0  0  0
  146.4660   71.4960  220.5690 H   0  0  0  0  0  0  0  0  0  0  0  0
  145.4310   73.2214  217.9019 H   0  0  0  0  0  0  0  0  0  0  0  0
  143.8036   72.6843  217.7149 H   0  0  0  0  0  0  0  0  0  0  0  0
  144.9775   74.1389  220.3318 H   0  0  0  0  0  0  0  0  0  0  0  0
  143.2756   76.3938  216.0921 H   0  0  0  0  0  0  0  0  0  0  0  0
  142.5646   78.3468  217.4684 H   0  0  0  0  0  0  0  0  0  0  0  0
  142.6203   78.1164  219.9695 H   0  0  0  0  0  0  0  0  0  0  0  0
  138.1221   77.2997  222.6647 H   0  0  0  0  0  0  0  0  0  0  0  0
  138.3115   79.6035  223.4869 H   0  0  0  0  0  0  0  0  0  0  0  0
  139.6939   81.4602  224.0461 H   0  0  0  0  0  0  0  0  0  0  0  0
  141.9372   82.4867  224.2373 H   0  0  0  0  0  0  0  0  0  0  0  0
  143.9558   81.1748  223.5825 H   0  0  0  0  0  0  0  0  0  0  0  0
  143.6958   78.8505  222.7626 H   0  0  0  0  0  0  0  0  0  0  0  0
  1  2  2  0
  2  3  1  0
  3  4  1  0
  4  5  1  0
  5  6  2  0
  5  7  1  0
  7  8  1  0
  8  9  1  0
  9 10  1  0
  9 11  1  0
 11 12  1  0
 12 13  1  0
 13 14  2  0
 14 15  1  0
 15 16  2  0
 16 17  1  0
 17 18  2  0
  2 19  1  0
 19 20  2  0
 20 21  1  0
 21 22  2  0
 22 23  1  0
 23 24  2  0
 24 25  1  0
 25 26  2  0
 26 27  1  0
 27 28  2  0
 12  7  1  0
 18 13  1  0
 28 19  1  0
 27 22  1  0
  3 29  1  0
  4 30  1  0
  4 31  1  0
  8 32  1  0
  8 33  1  0
  9 34  1  6
 10 35  1  0
 11 36  1  0
 11 37  1  0
 12 38  1  1
 15 39  1  0
 16 40  1  0
 17 41  1  0
 20 42  1  0
 21 43  1  0
 23 44  1  0
 24 45  1  0
 25 46  1  0
 26 47  1  0
M  END
>  <smiles>  (5) 
O=C(NCC(=O)N1C[C@H](O)C[C@H]1c1ncccn1)c1ccc2ccccc2n1

>  <score_type>  (5) 
oracle

>  <origin>  (5) 
autodockgpu

>  <m_score__min__energy>  (5) 
-8.4700000000000006

>  <m_primary>  (5) 
energy

>  <rmsd>  (5) 
7.485028484845443

>  <m_score__min__rmsd>  (5) 
7.485028484845443

>  <meeko>  (5) 
{"free_energy": -7.21, "intermolecular_energy": -9.0, "internal_energy": -2.49, "cluster_size": 40, "cluster_id": 3, "rank_in_cluster": 27}

>  <energy>  (5) 
-8.19

>  <cluster_rmsd>  (5) 
0.37

>  <cluster>  (5) 
1

$$$$

     RDKit          3D

 47 50  0  0  0  0  0  0  0  0999 V2000
  139.2200   74.7380  222.6360 O   0  0  0  0  0  0  0  0  0  0  0  0
  140.0270   75.4420  221.9840 C   0  0  0  0  0  0  0  0  0  0  0  0
  140.8360   74.9510  220.9260 N   0  0  0  0  0  0  0  0  0  0  0  0
  140.7720   73.5340  220.5170 C   0  0  0  0  0  0  0  0  0  0  0  0
  142.1050   72.9310  220.5660 C   0  0  0  0  0  0  0  0  0  0  0  0
  142.2050   71.8810  221.3170 O   0  0  0  0  0  0  0  0  0  0  0  0
  143.2850   73.3140  219.9250 N   0  0  0  0  0  0  0  0  0  0  0  0
  144.3760   72.2940  219.7550 C   0  0  0  0  0  0  0  0  0  0  0  0
  144.9710   72.6490  218.4110 C   0  0  2  0  0  0  0  0  0  0  0  0
  146.3190   73.0340  218.5550 O   0  0  0  0  0  0  0  0  0  0  0  0
  144.2060   73.8600  217.9260 C   0  0  0  0  0  0  0  0  0  0  0  0
  143.8330   74.4720  219.3010 C   0  0  1  0  0  0  0  0  0  0  0  0
  143.0080   75.6540  219.1280 C   0  0  0  0  0  0  0  0  0  0  0  0
  141.9590   75.5500  218.2390 N   0  0  0  0  0  0  0  0  0  0  0  0
  141.1390   76.5680  217.9700 C   0  0  0  0  0  0  0  0  0  0  0  0
  141.3150   77.7900  218.5840 C   0  0  0  0  0  0  0  0  0  0  0  0
  142.3580   77.9160  219.4770 C   0  0  0  0  0  0  0  0  0  0  0  0
  143.1400   76.8440  219.6970 N   0  0  0  0  0  0  0  0  0  0  0  0
  140.1450   76.8690  222.3360 C   0  0  0  0  0  0  0  0  0  0  0  0
  139.0280   77.6550  222.5080 C   0  0  0  0  0  0  0  0  0  0  0  0
  139.0600   78.9840  222.8350 C   0  0  0  0  0  0  0  0  0  0  0  0
  140.3000   79.5670  223.0010 C   0  0  0  0  0  0  0  0  0  0  0  0
  140.3650   80.9080  223.3310 C   0  0  0  0  0  0  0  0  0  0  0  0
  141.5850   81.5050  223.5000 C   0  0  0  0  0  0  0  0  0  0  0  0
  142.7440   80.7590  223.3370 C   0  0  0  0  0  0  0  0  0  0  0  0
  142.6450   79.4120  223.0060 C   0  0  0  0  0  0  0  0  0  0  0  0
  141.4310   78.7840  222.8290 C   0  0  0  0  0  0  0  0  0  0  0  0
  141.3400   77.4650  222.5040 N   0  0  0  0  0  0  0  0  0  0  0  0
  141.4890   75.6090  220.4300 H   0  0  0  0  0  0  0  0  0  0  0  0
  140.1020   72.9894  221.1985 H   0  0  0  0  0  0  0  0  0  0  0  0
  140.3901   73.4755  219.4871 H   0  0  0  0  0  0  0  0  0  0  0  0
  145.1264   72.3814  220.5546 H   0  0  0  0  0  0  0  0  0  0  0  0
  144.0108   71.2577  219.8060 H   0  0  0  0  0  0  0  0  0  0  0  0
  144.9125   71.7907  217.7254 H   0  0  0  0  0  0  0  0  0  0  0  0
  146.3760   74.0280  218.7220 H   0  0  0  0  0  0  0  0  0  0  0  0
  144.8370   74.5360  217.3303 H   0  0  0  0  0  0  0  0  0  0  0  0
  143.3603   73.6498  217.2547 H   0  0  0  0  0  0  0  0  0  0  0  0
  144.6226   74.9078  219.9307 H   0  0  0  0  0  0  0  0  0  0  0  0
  140.3163   76.4311  217.2528 H   0  0  0  0  0  0  0  0  0  0  0  0
  140.6457   78.6360  218.3686 H   0  0  0  0  0  0  0  0  0  0  0  0
  142.5455   78.8678  219.9956 H   0  0  0  0  0  0  0  0  0  0  0  0
  138.0433   77.1834  222.3736 H   0  0  0  0  0  0  0  0  0  0  0  0
  138.1340   79.5643  222.9605 H   0  0  0  0  0  0  0  0  0  0  0  0
  139.4413   81.4919  223.4570 H   0  0  0  0  0  0  0  0  0  0  0  0
  141.6466   82.5711  223.7638 H   0  0  0  0  0  0  0  0  0  0  0  0
  143.7302   81.2282  223.4682 H   0  0  0  0  0  0  0  0  0  0  0  0
  143.5682   78.8271  222.8810 H   0  0  0  0  0  0  0  0  0  0  0  0
  1  2  2  0
  2  3  1  0
  3  4  1  0
  4  5  1  0
  5  6  2  0
  5  7  1  0
  7  8  1  0
  8  9  1  0
  9 10  1  0
  9 11  1  0
 11 12  1  0
 12 13  1  0
 13 14  2  0
 14 15  1  0
 15 16  2  0
 16 17  1  0
 17 18  2  0
  2 19  1  0
 19 20  2  0
 20 21  1  0
 21 22  2  0
 22 23  1  0
 23 24  2  0
 24 25  1  0
 25 26  2  0
 26 27  1  0
 27 28  2  0
 12  7  1  0
 18 13  1  0
 28 19  1  0
 27 22  1  0
  3 29  1  0
  4 30  1  0
  4 31  1  0
  8 32  1  0
  8 33  1  0
  9 34  1  6
 10 35  1  0
 11 36  1  0
 11 37  1  0
 12 38  1  1
 15 39  1  0
 16 40  1  0
 17 41  1  0
 20 42  1  0
 21 43  1  0
 23 44  1  0
 24 45  1  0
 25 46  1  0
 26 47  1  0
M  END
>  <smiles>  (6) 
O=C(NCC(=O)N1C[C@H](O)C[C@H]1c1ncccn1)c1ccc2ccccc2n1

>  <score_type>  (6) 
oracle

>  <origin>  (6) 
autodockgpu

>  <m_score__min__energy>  (6) 
-8.4700000000000006

>  <m_primary>  (6) 
energy

>  <rmsd>  (6) 
7.241581998582242

>  <m_score__min__rmsd>  (6) 
7.241581998582242

>  <meeko>  (6) 
{"free_energy": -6.91, "intermolecular_energy": -8.7, "internal_energy": -3.05, "cluster_size": 40, "cluster_id": 3, "rank_in_cluster": 35}

>  <energy>  (6) 
-8.1

>  <cluster_rmsd>  (6) 
0.0

>  <cluster>  (6) 
2

$$$$

     RDKit          3D

 47 50  0  0  0  0  0  0  0  0999 V2000
  140.7790   71.5360  221.3260 O   0  0  0  0  0  0  0  0  0  0  0  0
  140.3300   72.1350  222.3330 C   0  0  0  0  0  0  0  0  0  0  0  0
  139.9370   73.4990  222.3380 N   0  0  0  0  0  0  0  0  0  0  0  0
  140.0380   74.3220  221.1160 C   0  0  0  0  0  0  0  0  0  0  0  0
  140.5590   75.6500  221.4400 C   0  0  0  0  0  0  0  0  0  0  0  0
  140.1930   76.1180  222.5910 O   0  0  0  0  0  0  0  0  0  0  0  0
  141.3910   76.4920  220.6980 N   0  0  0  0  0  0  0  0  0  0  0  0
  141.9930   75.9680  219.4240 C   0  0  0  0  0  0  0  0  0  0  0  0
  142.0050   77.1840  218.5250 C   0  0  2  0  0  0  0  0  0  0  0  0
  143.3270   77.5290  218.1810 O   0  0  0  0  0  0  0  0  0  0  0  0
  141.4430   78.3170  219.3530 C   0  0  0  0  0  0  0  0  0  0  0  0
  141.8840   77.8270  220.7570 C   0  0  1  0  0  0  0  0  0  0  0  0
  141.4010   78.7270  221.7880 C   0  0  0  0  0  0  0  0  0  0  0  0
  142.3470   79.4990  222.4280 N   0  0  0  0  0  0  0  0  0  0  0  0
  142.0400   80.3490  223.4110 C   0  0  0  0  0  0  0  0  0  0  0  0
  140.7350   80.4900  223.8320 C   0  0  0  0  0  0  0  0  0  0  0  0
  139.7710   79.7280  223.2040 C   0  0  0  0  0  0  0  0  0  0  0  0
  140.1590   78.8940  222.2230 N   0  0  0  0  0  0  0  0  0  0  0  0
  140.2000   71.3770  223.5900 C   0  0  0  0  0  0  0  0  0  0  0  0
  139.6060   70.1350  223.6160 C   0  0  0  0  0  0  0  0  0  0  0  0
  139.4510   69.3740  224.7430 C   0  0  0  0  0  0  0  0  0  0  0  0
  139.9250   69.8940  225.9300 C   0  0  0  0  0  0  0  0  0  0  0  0
  139.7820   69.1500  227.0870 C   0  0  0  0  0  0  0  0  0  0  0  0
  140.2460   69.6490  228.2740 C   0  0  0  0  0  0  0  0  0  0  0  0
  140.8520   70.8960  228.3060 C   0  0  0  0  0  0  0  0  0  0  0  0
  140.9800   71.6210  227.1260 C   0  0  0  0  0  0  0  0  0  0  0  0
  140.5240   71.1450  225.9150 C   0  0  0  0  0  0  0  0  0  0  0  0
  140.6510   71.8590  224.7630 N   0  0  0  0  0  0  0  0  0  0  0  0
  139.5710   73.9260  223.2260 H   0  0  0  0  0  0  0  0  0  0  0  0
  140.7157   73.8305  220.4024 H   0  0  0  0  0  0  0  0  0  0  0  0
  139.0370   74.4287  220.6727 H   0  0  0  0  0  0  0  0  0  0  0  0
  143.0129   75.5927  219.5943 H   0  0  0  0  0  0  0  0  0  0  0  0
  141.4349   75.1210  218.9984 H   0  0  0  0  0  0  0  0  0  0  0  0
  141.4332   76.9892  217.6057 H   0  0  0  0  0  0  0  0  0  0  0  0
  143.8050   77.9030  218.9880 H   0  0  0  0  0  0  0  0  0  0  0  0
  141.8967   79.2844  219.0916 H   0  0  0  0  0  0  0  0  0  0  0  0
  140.3658   78.5045  219.2322 H   0  0  0  0  0  0  0  0  0  0  0  0
  142.9523   77.8284  221.0190 H   0  0  0  0  0  0  0  0  0  0  0  0
  142.8345   80.9412  223.8885 H   0  0  0  0  0  0  0  0  0  0  0  0
  140.4709   81.1865  224.6414 H   0  0  0  0  0  0  0  0  0  0  0  0
  138.7135   79.8008  223.4980 H   0  0  0  0  0  0  0  0  0  0  0  0
  139.2304   69.7266  222.6662 H   0  0  0  0  0  0  0  0  0  0  0  0
  138.9676   68.3867  224.7040 H   0  0  0  0  0  0  0  0  0  0  0  0
  139.2981   68.1627  227.0535 H   0  0  0  0  0  0  0  0  0  0  0  0
  140.1387   69.0633  229.1989 H   0  0  0  0  0  0  0  0  0  0  0  0
  141.2275   71.3073  229.2546 H   0  0  0  0  0  0  0  0  0  0  0  0
  141.4621   72.6091  227.1601 H   0  0  0  0  0  0  0  0  0  0  0  0
  1  2  2  0
  2  3  1  0
  3  4  1  0
  4  5  1  0
  5  6  2  0
  5  7  1  0
  7  8  1  0
  8  9  1  0
  9 10  1  0
  9 11  1  0
 11 12  1  0
 12 13  1  0
 13 14  2  0
 14 15  1  0
 15 16  2  0
 16 17  1  0
 17 18  2  0
  2 19  1  0
 19 20  2  0
 20 21  1  0
 21 22  2  0
 22 23  1  0
 23 24  2  0
 24 25  1  0
 25 26  2  0
 26 27  1  0
 27 28  2  0
 12  7  1  0
 18 13  1  0
 28 19  1  0
 27 22  1  0
  3 29  1  0
  4 30  1  0
  4 31  1  0
  8 32  1  0
  8 33  1  0
  9 34  1  6
 10 35  1  0
 11 36  1  0
 11 37  1  0
 12 38  1  6
 15 39  1  0
 16 40  1  0
 17 41  1  0
 20 42  1  0
 21 43  1  0
 23 44  1  0
 24 45  1  0
 25 46  1  0
 26 47  1  0
M  END
>  <smiles>  (7) 
O=C(NCC(=O)N1C[C@H](O)C[C@H]1c1ncccn1)c1ccc2ccccc2n1

>  <score_type>  (7) 
oracle

>  <origin>  (7) 
autodockgpu

>  <m_score__min__energy>  (7) 
-8.4700000000000006

>  <m_primary>  (7) 
energy

>  <rmsd>  (7) 
1.985722948606172

>  <m_score__min__rmsd>  (7) 
1.985722948606172

>  <meeko>  (7) 
{"free_energy": -8.47, "intermolecular_energy": -10.25, "internal_energy": -1.59, "cluster_size": 5, "cluster_id": 1, "rank_in_cluster": 1}

>  <energy>  (7) 
-8.06

>  <cluster_rmsd>  (7) 
0.39

>  <cluster>  (7) 
2

$$$$

     RDKit          3D

 47 50  0  0  0  0  0  0  0  0999 V2000
  139.2240   74.7950  222.3740 O   0  0  0  0  0  0  0  0  0  0  0  0
  140.0070   75.5560  221.7570 C   0  0  0  0  0  0  0  0  0  0  0  0
  140.7250   75.1850  220.5910 N   0  0  0  0  0  0  0  0  0  0  0  0
  140.5870   73.8330  220.0150 C   0  0  0  0  0  0  0  0  0  0  0  0
  141.7090   72.9880  220.4270 C   0  0  0  0  0  0  0  0  0  0  0  0
  141.3790   71.8210  220.8810 O   0  0  0  0  0  0  0  0  0  0  0  0
  143.0810   73.2470  220.4060 N   0  0  0  0  0  0  0  0  0  0  0  0
  144.0250   72.1700  220.8600 C   0  0  0  0  0  0  0  0  0  0  0  0
  145.2160   72.3480  219.9450 C   0  0  2  0  0  0  0  0  0  0  0  0
  146.3620   72.6890  220.6890 O   0  0  0  0  0  0  0  0  0  0  0  0
  144.8840   73.5290  219.0600 C   0  0  0  0  0  0  0  0  0  0  0  0
  143.9610   74.3050  220.0350 C   0  0  1  0  0  0  0  0  0  0  0  0
  143.4270   75.4940  219.3960 C   0  0  0  0  0  0  0  0  0  0  0  0
  143.3480   75.4730  218.0200 N   0  0  0  0  0  0  0  0  0  0  0  0
  142.8990   76.5090  217.3070 C   0  0  0  0  0  0  0  0  0  0  0  0
  142.4880   77.6650  217.9360 C   0  0  0  0  0  0  0  0  0  0  0  0
  142.5580   77.7070  219.3130 C   0  0  0  0  0  0  0  0  0  0  0  0
  143.0210   76.6230  219.9600 N   0  0  0  0  0  0  0  0  0  0  0  0
  140.1950   76.9240  222.2750 C   0  0  0  0  0  0  0  0  0  0  0  0
  139.1270   77.6730  222.7160 C   0  0  0  0  0  0  0  0  0  0  0  0
  139.2250   78.9460  223.2080 C   0  0  0  0  0  0  0  0  0  0  0  0
  140.4830   79.5100  223.2630 C   0  0  0  0  0  0  0  0  0  0  0  0
  140.6140   80.7960  223.7550 C   0  0  0  0  0  0  0  0  0  0  0  0
  141.8540   81.3720  223.8180 C   0  0  0  0  0  0  0  0  0  0  0  0
  142.9660   80.6640  223.3860 C   0  0  0  0  0  0  0  0  0  0  0  0
  142.8010   79.3720  222.8960 C   0  0  0  0  0  0  0  0  0  0  0  0
  141.5650   78.7650  222.8210 C   0  0  0  0  0  0  0  0  0  0  0  0
  141.4100   77.5010  222.3400 N   0  0  0  0  0  0  0  0  0  0  0  0
  141.3630   75.8850  220.1350 H   0  0  0  0  0  0  0  0  0  0  0  0
  139.6463   73.3835  220.3658 H   0  0  0  0  0  0  0  0  0  0  0  0
  140.5817   73.9105  218.9177 H   0  0  0  0  0  0  0  0  0  0  0  0
  144.3109   72.3137  221.9124 H   0  0  0  0  0  0  0  0  0  0  0  0
  143.5874   71.1621  220.8082 H   0  0  0  0  0  0  0  0  0  0  0  0
  145.4135   71.4224  219.3844 H   0  0  0  0  0  0  0  0  0  0  0  0
  146.3740   72.1720  221.5570 H   0  0  0  0  0  0  0  0  0  0  0  0
  145.7797   74.1078  218.7901 H   0  0  0  0  0  0  0  0  0  0  0  0
  144.4419   73.2812  218.0837 H   0  0  0  0  0  0  0  0  0  0  0  0
  144.3932   74.7744  220.9310 H   0  0  0  0  0  0  0  0  0  0  0  0
  142.8567   76.4396  216.2100 H   0  0  0  0  0  0  0  0  0  0  0  0
  142.1168   78.5249  217.3592 H   0  0  0  0  0  0  0  0  0  0  0  0
  142.2434   78.6036  219.8672 H   0  0  0  0  0  0  0  0  0  0  0  0
  138.1271   77.2169  222.6696 H   0  0  0  0  0  0  0  0  0  0  0  0
  138.3358   79.4981  223.5464 H   0  0  0  0  0  0  0  0  0  0  0  0
  139.7274   81.3522  224.0935 H   0  0  0  0  0  0  0  0  0  0  0  0
  141.9685   82.3934  224.2100 H   0  0  0  0  0  0  0  0  0  0  0  0
  143.9667   81.1186  223.4303 H   0  0  0  0  0  0  0  0  0  0  0  0
  143.6872   78.8156  222.5567 H   0  0  0  0  0  0  0  0  0  0  0  0
  1  2  2  0
  2  3  1  0
  3  4  1  0
  4  5  1  0
  5  6  2  0
  5  7  1  0
  7  8  1  0
  8  9  1  0
  9 10  1  0
  9 11  1  0
 11 12  1  0
 12 13  1  0
 13 14  2  0
 14 15  1  0
 15 16  2  0
 16 17  1  0
 17 18  2  0
  2 19  1  0
 19 20  2  0
 20 21  1  0
 21 22  2  0
 22 23  1  0
 23 24  2  0
 24 25  1  0
 25 26  2  0
 26 27  1  0
 27 28  2  0
 12  7  1  0
 18 13  1  0
 28 19  1  0
 27 22  1  0
  3 29  1  0
  4 30  1  0
  4 31  1  0
  8 32  1  0
  8 33  1  0
  9 34  1  6
 10 35  1  0
 11 36  1  0
 11 37  1  0
 12 38  1  1
 15 39  1  0
 16 40  1  0
 17 41  1  0
 20 42  1  0
 21 43  1  0
 23 44  1  0
 24 45  1  0
 25 46  1  0
 26 47  1  0
M  END
>  <smiles>  (8) 
O=C(NCC(=O)N1C[C@H](O)C[C@H]1c1ncccn1)c1ccc2ccccc2n1

>  <score_type>  (8) 
oracle

>  <origin>  (8) 
autodockgpu

>  <m_score__min__energy>  (8) 
-8.4700000000000006

>  <m_primary>  (8) 
energy

>  <rmsd>  (8) 
7.371843245622103

>  <m_score__min__rmsd>  (8) 
7.371843245622103

>  <meeko>  (8) 
{"free_energy": -7.15, "intermolecular_energy": -8.94, "internal_energy": -2.6, "cluster_size": 40, "cluster_id": 3, "rank_in_cluster": 28}

>  <energy>  (8) 
-8.04

>  <cluster_rmsd>  (8) 
0.39

>  <cluster>  (8) 
2

$$$$

     RDKit          3D

 47 50  0  0  0  0  0  0  0  0999 V2000
  138.8120   75.2910  222.3170 O   0  0  0  0  0  0  0  0  0  0  0  0
  139.9770   75.7430  222.2040 C   0  0  0  0  0  0  0  0  0  0  0  0
  141.0890   74.9780  221.7680 N   0  0  0  0  0  0  0  0  0  0  0  0
  140.9360   73.5540  221.4100 C   0  0  0  0  0  0  0  0  0  0  0  0
  141.7450   73.2360  220.2320 C   0  0  0  0  0  0  0  0  0  0  0  0
  141.1390   72.5470  219.3190 O   0  0  0  0  0  0  0  0  0  0  0  0
  143.0710   73.5640  219.9420 N   0  0  0  0  0  0  0  0  0  0  0  0
  144.1100   72.4790  219.9970 C   0  0  0  0  0  0  0  0  0  0  0  0
  145.0540   72.8520  218.8760 C   0  0  2  0  0  0  0  0  0  0  0  0
  146.3360   73.1340  219.3860 O   0  0  0  0  0  0  0  0  0  0  0  0
  144.5110   74.1340  218.2850 C   0  0  0  0  0  0  0  0  0  0  0  0
  143.8260   74.7080  219.5530 C   0  0  1  0  0  0  0  0  0  0  0  0
  143.1430   75.9510  219.2460 C   0  0  0  0  0  0  0  0  0  0  0  0
  143.2050   76.3840  217.9380 N   0  0  0  0  0  0  0  0  0  0  0  0
  142.6400   77.5210  217.5280 C   0  0  0  0  0  0  0  0  0  0  0  0
  141.9580   78.3250  218.4170 C   0  0  0  0  0  0  0  0  0  0  0  0
  141.8830   77.9110  219.7300 C   0  0  0  0  0  0  0  0  0  0  0  0
  142.4770   76.7520  220.0670 N   0  0  0  0  0  0  0  0  0  0  0  0
  140.2070   77.1600  222.5440 C   0  0  0  0  0  0  0  0  0  0  0  0
  139.1560   78.0360  222.6950 C   0  0  0  0  0  0  0  0  0  0  0  0
  139.2920   79.3610  223.0100 C   0  0  0  0  0  0  0  0  0  0  0  0
  140.5740   79.8430  223.1870 C   0  0  0  0  0  0  0  0  0  0  0  0
  140.7440   81.1780  223.5040 C   0  0  0  0  0  0  0  0  0  0  0  0
  142.0070   81.6740  223.6840 C   0  0  0  0  0  0  0  0  0  0  0  0
  143.1030   80.8350  223.5420 C   0  0  0  0  0  0  0  0  0  0  0  0
  142.8980   79.4970  223.2220 C   0  0  0  0  0  0  0  0  0  0  0  0
  141.6390   78.9680  223.0360 C   0  0  0  0  0  0  0  0  0  0  0  0
  141.4440   77.6580  222.7220 N   0  0  0  0  0  0  0  0  0  0  0  0
  142.0340   75.4340  221.7020 H   0  0  0  0  0  0  0  0  0  0  0  0
  141.2642   72.9303  222.2546 H   0  0  0  0  0  0  0  0  0  0  0  0
  139.8786   73.3542  221.1822 H   0  0  0  0  0  0  0  0  0  0  0  0
  144.6292   72.4780  220.9668 H   0  0  0  0  0  0  0  0  0  0  0  0
  143.6873   71.4693  219.8887 H   0  0  0  0  0  0  0  0  0  0  0  0
  145.1286   72.0320  218.1466 H   0  0  0  0  0  0  0  0  0  0  0  0
  146.5240   74.1240  219.3140 H   0  0  0  0  0  0  0  0  0  0  0  0
  145.3123   74.7905  217.9150 H   0  0  0  0  0  0  0  0  0  0  0  0
  143.8601   74.0138  217.4065 H   0  0  0  0  0  0  0  0  0  0  0  0
  144.4459   75.0588  220.3912 H   0  0  0  0  0  0  0  0  0  0  0  0
  142.7188   77.8196  216.4722 H   0  0  0  0  0  0  0  0  0  0  0  0
  141.4896   79.2649  218.0896 H   0  0  0  0  0  0  0  0  0  0  0  0
  141.3515   78.5125  220.4821 H   0  0  0  0  0  0  0  0  0  0  0  0
  138.1378   77.6446  222.5529 H   0  0  0  0  0  0  0  0  0  0  0  0
  138.4149   80.0160  223.1179 H   0  0  0  0  0  0  0  0  0  0  0  0
  139.8699   81.8372  223.6109 H   0  0  0  0  0  0  0  0  0  0  0  0
  142.1526   82.7338  223.9403 H   0  0  0  0  0  0  0  0  0  0  0  0
  144.1226   81.2237  223.6810 H   0  0  0  0  0  0  0  0  0  0  0  0
  143.7718   78.8376  223.1135 H   0  0  0  0  0  0  0  0  0  0  0  0
  1  2  2  0
  2  3  1  0
  3  4  1  0
  4  5  1  0
  5  6  2  0
  5  7  1  0
  7  8  1  0
  8  9  1  0
  9 10  1  0
  9 11  1  0
 11 12  1  0
 12 13  1  0
 13 14  2  0
 14 15  1  0
 15 16  2  0
 16 17  1  0
 17 18  2  0
  2 19  1  0
 19 20  2  0
 20 21  1  0
 21 22  2  0
 22 23  1  0
 23 24  2  0
 24 25  1  0
 25 26  2  0
 26 27  1  0
 27 28  2  0
 12  7  1  0
 18 13  1  0
 28 19  1  0
 27 22  1  0
  3 29  1  0
  4 30  1  0
  4 31  1  0
  8 32  1  0
  8 33  1  0
  9 34  1  6
 10 35  1  0
 11 36  1  0
 11 37  1  0
 12 38  1  1
 15 39  1  0
 16 40  1  0
 17 41  1  0
 20 42  1  0
 21 43  1  0
 23 44  1  0
 24 45  1  0
 25 46  1  0
 26 47  1  0
M  END
>  <smiles>  (9) 
O=C(NCC(=O)N1C[C@H](O)C[C@H]1c1ncccn1)c1ccc2ccccc2n1

>  <score_type>  (9) 
oracle

>  <origin>  (9) 
autodockgpu

>  <m_score__min__energy>  (9) 
-8.4700000000000006

>  <m_primary>  (9) 
energy

>  <rmsd>  (9) 
7.356076168962863

>  <m_score__min__rmsd>  (9) 
7.356076168962863

>  <meeko>  (9) 
{"free_energy": -7.35, "intermolecular_energy": -9.14, "internal_energy": -2.72, "cluster_size": 40, "cluster_id": 3, "rank_in_cluster": 17}

>  <energy>  (9) 
-7.86

>  <cluster_rmsd>  (9) 
0.52

>  <cluster>  (9) 
2

$$$$

     RDKit          3D

 47 50  0  0  0  0  0  0  0  0999 V2000
  138.7810   75.1590  222.4100 O   0  0  0  0  0  0  0  0  0  0  0  0
  139.9430   75.6120  222.2810 C   0  0  0  0  0  0  0  0  0  0  0  0
  141.0630   74.8320  221.8940 N   0  0  0  0  0  0  0  0  0  0  0  0
  140.9210   73.3900  221.6090 C   0  0  0  0  0  0  0  0  0  0  0  0
  141.8010   73.0010  220.5060 C   0  0  0  0  0  0  0  0  0  0  0  0
  141.3120   72.1120  219.7010 O   0  0  0  0  0  0  0  0  0  0  0  0
  143.0870   73.4430  220.1870 N   0  0  0  0  0  0  0  0  0  0  0  0
  144.2220   72.4610  220.2510 C   0  0  0  0  0  0  0  0  0  0  0  0
  145.1130   72.8910  219.1070 C   0  0  2  0  0  0  0  0  0  0  0  0
  146.3700   73.3030  219.5910 O   0  0  0  0  0  0  0  0  0  0  0  0
  144.4450   74.1020  218.4950 C   0  0  0  0  0  0  0  0  0  0  0  0
  143.7270   74.6420  219.7600 C   0  0  1  0  0  0  0  0  0  0  0  0
  142.9270   75.8080  219.4350 C   0  0  0  0  0  0  0  0  0  0  0  0
  143.5590   76.8160  218.7370 N   0  0  0  0  0  0  0  0  0  0  0  0
  142.9450   77.9510  218.3970 C   0  0  0  0  0  0  0  0  0  0  0  0
  141.6260   78.1640  218.7380 C   0  0  0  0  0  0  0  0  0  0  0  0
  140.9740   77.1680  219.4350 C   0  0  0  0  0  0  0  0  0  0  0  0
  141.6600   76.0520  219.7420 N   0  0  0  0  0  0  0  0  0  0  0  0
  140.1620   77.0450  222.5490 C   0  0  0  0  0  0  0  0  0  0  0  0
  139.1050   77.9220  222.6480 C   0  0  0  0  0  0  0  0  0  0  0  0
  139.2310   79.2620  222.8940 C   0  0  0  0  0  0  0  0  0  0  0  0
  140.5090   79.7610  223.0540 C   0  0  0  0  0  0  0  0  0  0  0  0
  140.6690   81.1110  223.3030 C   0  0  0  0  0  0  0  0  0  0  0  0
  141.9270   81.6240  223.4640 C   0  0  0  0  0  0  0  0  0  0  0  0
  143.0290   80.7860  223.3740 C   0  0  0  0  0  0  0  0  0  0  0  0
  142.8350   79.4320  223.1220 C   0  0  0  0  0  0  0  0  0  0  0  0
  141.5800   78.8860  222.9550 C   0  0  0  0  0  0  0  0  0  0  0  0
  141.3960   77.5600  222.7080 N   0  0  0  0  0  0  0  0  0  0  0  0
  142.0060   75.2900  221.8100 H   0  0  0  0  0  0  0  0  0  0  0  0
  141.1890   72.8145  222.5073 H   0  0  0  0  0  0  0  0  0  0  0  0
  139.8787   73.1823  221.3254 H   0  0  0  0  0  0  0  0  0  0  0  0
  144.7518   72.5321  221.2124 H   0  0  0  0  0  0  0  0  0  0  0  0
  143.8929   71.4143  220.1727 H   0  0  0  0  0  0  0  0  0  0  0  0
  145.2545   72.0638  218.3959 H   0  0  0  0  0  0  0  0  0  0  0  0
  146.4900   74.2940  219.4360 H   0  0  0  0  0  0  0  0  0  0  0  0
  145.1766   74.8204  218.0967 H   0  0  0  0  0  0  0  0  0  0  0  0
  143.7958   73.9000  217.6303 H   0  0  0  0  0  0  0  0  0  0  0  0
  144.3231   75.0698  220.5796 H   0  0  0  0  0  0  0  0  0  0  0  0
  143.4958   78.7232  217.8400 H   0  0  0  0  0  0  0  0  0  0  0  0
  141.1112   79.0965  218.4635 H   0  0  0  0  0  0  0  0  0  0  0  0
  139.9211   77.2831  219.7319 H   0  0  0  0  0  0  0  0  0  0  0  0
  138.0900   77.5176  222.5206 H   0  0  0  0  0  0  0  0  0  0  0  0
  138.3493   79.9162  222.9617 H   0  0  0  0  0  0  0  0  0  0  0  0
  139.7902   81.7690  223.3713 H   0  0  0  0  0  0  0  0  0  0  0  0
  142.0642   82.6969  223.6641 H   0  0  0  0  0  0  0  0  0  0  0  0
  144.0451   81.1880  223.5005 H   0  0  0  0  0  0  0  0  0  0  0  0
  143.7136   78.7737  223.0535 H   0  0  0  0  0  0  0  0  0  0  0  0
  1  2  2  0
  2  3  1  0
  3  4  1  0
  4  5  1  0
  5  6  2  0
  5  7  1  0
  7  8  1  0
  8  9  1  0
  9 10  1  0
  9 11  1  0
 11 12  1  0
 12 13  1  0
 13 14  2  0
 14 15  1  0
 15 16  2  0
 16 17  1  0
 17 18  2  0
  2 19  1  0
 19 20  2  0
 20 21  1  0
 21 22  2  0
 22 23  1  0
 23 24  2  0
 24 25  1  0
 25 26  2  0
 26 27  1  0
 27 28  2  0
 12  7  1  0
 18 13  1  0
 28 19  1  0
 27 22  1  0
  3 29  1  0
  4 30  1  0
  4 31  1  0
  8 32  1  0
  8 33  1  0
  9 34  1  6
 10 35  1  0
 11 36  1  0
 11 37  1  0
 12 38  1  1
 15 39  1  0
 16 40  1  0
 17 41  1  0
 20 42  1  0
 21 43  1  0
 23 44  1  0
 24 45  1  0
 25 46  1  0
 26 47  1  0
M  END
>  <smiles>  (10) 
O=C(NCC(=O)N1C[C@H](O)C[C@H]1c1ncccn1)c1ccc2ccccc2n1

>  <score_type>  (10) 
oracle

>  <origin>  (10) 
autodockgpu

>  <m_score__min__energy>  (10) 
-8.4700000000000006

>  <m_primary>  (10) 
energy

>  <rmsd>  (10) 
7.3198741776739755

>  <m_score__min__rmsd>  (10) 
7.3198741776739755

>  <meeko>  (10) 
{"free_energy": -7.09, "intermolecular_energy": -8.88, "internal_energy": -2.61, "cluster_size": 40, "cluster_id": 3, "rank_in_cluster": 29}

>  <energy>  (10) 
-7.5

>  <cluster_rmsd>  (10) 
0.0

>  <cluster>  (10) 
3

$$$$

     RDKit          3D

 47 50  0  0  0  0  0  0  0  0999 V2000
  138.8620   75.2590  222.1190 O   0  0  0  0  0  0  0  0  0  0  0  0
  140.0250   75.7270  222.0790 C   0  0  0  0  0  0  0  0  0  0  0  0
  141.1650   74.9920  221.6640 N   0  0  0  0  0  0  0  0  0  0  0  0
  141.0450   73.5830  221.2400 C   0  0  0  0  0  0  0  0  0  0  0  0
  141.7490   73.3720  219.9740 C   0  0  0  0  0  0  0  0  0  0  0  0
  141.0270   72.8730  219.0210 O   0  0  0  0  0  0  0  0  0  0  0  0
  143.0790   73.6280  219.6350 N   0  0  0  0  0  0  0  0  0  0  0  0
  144.0650   72.4940  219.6820 C   0  0  0  0  0  0  0  0  0  0  0  0
  144.9900   72.7950  218.5240 C   0  0  2  0  0  0  0  0  0  0  0  0
  146.3000   73.0250  218.9870 O   0  0  0  0  0  0  0  0  0  0  0  0
  144.4910   74.0890  217.9200 C   0  0  0  0  0  0  0  0  0  0  0  0
  143.8760   74.7240  219.1950 C   0  0  1  0  0  0  0  0  0  0  0  0
  143.2440   75.9920  218.8810 C   0  0  0  0  0  0  0  0  0  0  0  0
  142.6240   76.6490  219.9220 N   0  0  0  0  0  0  0  0  0  0  0  0
  141.9860   77.8100  219.7640 C   0  0  0  0  0  0  0  0  0  0  0  0
  141.9200   78.4100  218.5240 C   0  0  0  0  0  0  0  0  0  0  0  0
  142.5340   77.7700  217.4680 C   0  0  0  0  0  0  0  0  0  0  0  0
  143.1590   76.6030  217.7060 N   0  0  0  0  0  0  0  0  0  0  0  0
  140.2220   77.1300  222.4880 C   0  0  0  0  0  0  0  0  0  0  0  0
  139.1510   77.9620  222.7240 C   0  0  0  0  0  0  0  0  0  0  0  0
  139.2560   79.2720  223.1060 C   0  0  0  0  0  0  0  0  0  0  0  0
  140.5270   79.7860  223.2640 C   0  0  0  0  0  0  0  0  0  0  0  0
  140.6670   81.1070  223.6480 C   0  0  0  0  0  0  0  0  0  0  0  0
  141.9190   81.6350  223.8100 C   0  0  0  0  0  0  0  0  0  0  0  0
  143.0350   80.8420  223.5850 C   0  0  0  0  0  0  0  0  0  0  0  0
  142.8610   79.5170  223.1990 C   0  0  0  0  0  0  0  0  0  0  0  0
  141.6130   78.9570  223.0280 C   0  0  0  0  0  0  0  0  0  0  0  0
  141.4490   77.6600  222.6500 N   0  0  0  0  0  0  0  0  0  0  0  0
  142.1070   75.4600  221.6600 H   0  0  0  0  0  0  0  0  0  0  0  0
  141.4834   72.9332  222.0117 H   0  0  0  0  0  0  0  0  0  0  0  0
  139.9810   73.3399  221.1028 H   0  0  0  0  0  0  0  0  0  0  0  0
  144.6145   72.4878  220.6349 H   0  0  0  0  0  0  0  0  0  0  0  0
  143.5897   71.5047  219.6096 H   0  0  0  0  0  0  0  0  0  0  0  0
  145.0016   71.9561  217.8126 H   0  0  0  0  0  0  0  0  0  0  0  0
  146.5070   74.0130  218.9570 H   0  0  0  0  0  0  0  0  0  0  0  0
  145.3108   74.6969  217.5097 H   0  0  0  0  0  0  0  0  0  0  0  0
  143.8069   73.9817  217.0653 H   0  0  0  0  0  0  0  0  0  0  0  0
  144.5400   75.0621  220.0042 H   0  0  0  0  0  0  0  0  0  0  0  0
  141.5088   78.2925  220.6297 H   0  0  0  0  0  0  0  0  0  0  0  0
  141.3955   79.3664  218.3821 H   0  0  0  0  0  0  0  0  0  0  0  0
  142.5132   78.2028  216.4569 H   0  0  0  0  0  0  0  0  0  0  0  0
  138.1410   77.5451  222.5968 H   0  0  0  0  0  0  0  0  0  0  0  0
  138.3631   79.8904  223.2801 H   0  0  0  0  0  0  0  0  0  0  0  0
  139.7772   81.7298  223.8222 H   0  0  0  0  0  0  0  0  0  0  0  0
  142.0402   82.6842  224.1174 H   0  0  0  0  0  0  0  0  0  0  0  0
  144.0462   81.2565  223.7105 H   0  0  0  0  0  0  0  0  0  0  0  0
  143.7506   78.8941  223.0240 H   0  0  0  0  0  0  0  0  0  0  0  0
  1  2  2  0
  2  3  1  0
  3  4  1  0
  4  5  1  0
  5  6  2  0
  5  7  1  0
  7  8  1  0
  8  9  1  0
  9 10  1  0
  9 11  1  0
 11 12  1  0
 12 13  1  0
 13 14  2  0
 14 15  1  0
 15 16  2  0
 16 17  1  0
 17 18  2  0
  2 19  1  0
 19 20  2  0
 20 21  1  0
 21 22  2  0
 22 23  1  0
 23 24  2  0
 24 25  1  0
 25 26  2  0
 26 27  1  0
 27 28  2  0
 12  7  1  0
 18 13  1  0
 28 19  1  0
 27 22  1  0
  3 29  1  0
  4 30  1  0
  4 31  1  0
  8 32  1  0
  8 33  1  0
  9 34  1  6
 10 35  1  0
 11 36  1  0
 11 37  1  0
 12 38  1  1
 15 39  1  0
 16 40  1  0
 17 41  1  0
 20 42  1  0
 21 43  1  0
 23 44  1  0
 24 45  1  0
 25 46  1  0
 26 47  1  0
M  END
>  <smiles>  (11) 
O=C(NCC(=O)N1C[C@H](O)C[C@H]1c1ncccn1)c1ccc2ccccc2n1

>  <score_type>  (11) 
oracle

>  <origin>  (11) 
autodockgpu

>  <m_score__min__energy>  (11) 
-8.4700000000000006

>  <m_primary>  (11) 
energy

>  <rmsd>  (11) 
7.242937247311868

>  <m_score__min__rmsd>  (11) 
7.242937247311868

>  <meeko>  (11) 
{"free_energy": -7.42, "intermolecular_energy": -9.21, "internal_energy": -2.7, "cluster_size": 40, "cluster_id": 3, "rank_in_cluster": 11}

>  <energy>  (11) 
-7.5

>  <cluster_rmsd>  (11) 
0.05

>  <cluster>  (11) 
3

$$$$

     RDKit          3D

 47 50  0  0  0  0  0  0  0  0999 V2000
  138.8090   75.4260  221.9980 O   0  0  0  0  0  0  0  0  0  0  0  0
  139.9800   75.8730  221.9440 C   0  0  0  0  0  0  0  0  0  0  0  0
  141.0900   75.1400  221.4510 N   0  0  0  0  0  0  0  0  0  0  0  0
  140.9260   73.7590  220.9540 C   0  0  0  0  0  0  0  0  0  0  0  0
  142.2260   73.0920  220.8700 C   0  0  0  0  0  0  0  0  0  0  0  0
  142.3430   72.0240  221.5930 O   0  0  0  0  0  0  0  0  0  0  0  0
  143.3600   73.4310  220.1270 N   0  0  0  0  0  0  0  0  0  0  0  0
  144.4380   72.4000  219.9490 C   0  0  0  0  0  0  0  0  0  0  0  0
  144.9410   72.6670  218.5480 C   0  0  2  0  0  0  0  0  0  0  0  0
  146.2940   73.0570  218.5760 O   0  0  0  0  0  0  0  0  0  0  0  0
  144.1410   73.8460  218.0390 C   0  0  0  0  0  0  0  0  0  0  0  0
  143.8610   74.5460  219.3950 C   0  0  1  0  0  0  0  0  0  0  0  0
  143.0240   75.7150  219.2030 C   0  0  0  0  0  0  0  0  0  0  0  0
  142.1780   75.6980  218.1140 N   0  0  0  0  0  0  0  0  0  0  0  0
  141.3740   76.7190  217.8100 C   0  0  0  0  0  0  0  0  0  0  0  0
  141.3580   77.8550  218.5910 C   0  0  0  0  0  0  0  0  0  0  0  0
  142.1960   77.8940  219.6860 C   0  0  0  0  0  0  0  0  0  0  0  0
  142.9770   76.8260  219.9280 N   0  0  0  0  0  0  0  0  0  0  0  0
  140.2200   77.2470  222.4220 C   0  0  0  0  0  0  0  0  0  0  0  0
  139.1750   78.0810  222.7490 C   0  0  0  0  0  0  0  0  0  0  0  0
  139.3210   79.3660  223.1990 C   0  0  0  0  0  0  0  0  0  0  0  0
  140.6070   79.8500  223.3310 C   0  0  0  0  0  0  0  0  0  0  0  0
  140.7880   81.1440  223.7820 C   0  0  0  0  0  0  0  0  0  0  0  0
  142.0550   81.6420  223.9190 C   0  0  0  0  0  0  0  0  0  0  0  0
  143.1460   80.8450  223.6030 C   0  0  0  0  0  0  0  0  0  0  0  0
  142.9310   79.5460  223.1510 C   0  0  0  0  0  0  0  0  0  0  0  0
  141.6670   79.0180  223.0030 C   0  0  0  0  0  0  0  0  0  0  0  0
  141.4630   77.7470  222.5600 N   0  0  0  0  0  0  0  0  0  0  0  0
  142.0400   75.5890  221.4400 H   0  0  0  0  0  0  0  0  0  0  0  0
  140.2752   73.2003  221.6427 H   0  0  0  0  0  0  0  0  0  0  0  0
  140.4745   73.7906  219.9514 H   0  0  0  0  0  0  0  0  0  0  0  0
  145.2404   72.5360  220.6891 H   0  0  0  0  0  0  0  0  0  0  0  0
  144.0784   71.3701  220.0901 H   0  0  0  0  0  0  0  0  0  0  0  0
  144.8393   71.7669  217.9239 H   0  0  0  0  0  0  0  0  0  0  0  0
  146.3610   74.0560  218.7090 H   0  0  0  0  0  0  0  0  0  0  0  0
  144.7280   74.4813  217.3594 H   0  0  0  0  0  0  0  0  0  0  0  0
  143.2521   73.5946  217.4417 H   0  0  0  0  0  0  0  0  0  0  0  0
  144.6900   75.0201  219.9409 H   0  0  0  0  0  0  0  0  0  0  0  0
  140.7186   76.6536  216.9290 H   0  0  0  0  0  0  0  0  0  0  0  0
  140.6991   78.7019  218.3491 H   0  0  0  0  0  0  0  0  0  0  0  0
  142.2248   78.7751  220.3438 H   0  0  0  0  0  0  0  0  0  0  0  0
  138.1530   77.6886  222.6415 H   0  0  0  0  0  0  0  0  0  0  0  0
  138.4479   79.9880  223.4456 H   0  0  0  0  0  0  0  0  0  0  0  0
  139.9181   81.7701  224.0294 H   0  0  0  0  0  0  0  0  0  0  0  0
  142.2081   82.6703  224.2783 H   0  0  0  0  0  0  0  0  0  0  0  0
  144.1691   81.2352  223.7084 H   0  0  0  0  0  0  0  0  0  0  0  0
  143.8005   78.9193  222.9034 H   0  0  0  0  0  0  0  0  0  0  0  0
  1  2  2  0
  2  3  1  0
  3  4  1  0
  4  5  1  0
  5  6  2  0
  5  7  1  0
  7  8  1  0
  8  9  1  0
  9 10  1  0
  9 11  1  0
 11 12  1  0
 12 13  1  0
 13 14  2  0
 14 15  1  0
 15 16  2  0
 16 17  1  0
 17 18  2  0
  2 19  1  0
 19 20  2  0
 20 21  1  0
 21 22  2  0
 22 23  1  0
 23 24  2  0
 24 25  1  0
 25 26  2  0
 26 27  1  0
 27 28  2  0
 12  7  1  0
 18 13  1  0
 28 19  1  0
 27 22  1  0
  3 29  1  0
  4 30  1  0
  4 31  1  0
  8 32  1  0
  8 33  1  0
  9 34  1  6
 10 35  1  0
 11 36  1  0
 11 37  1  0
 12 38  1  1
 15 39  1  0
 16 40  1  0
 17 41  1  0
 20 42  1  0
 21 43  1  0
 23 44  1  0
 24 45  1  0
 25 46  1  0
 26 47  1  0
M  END
>  <smiles>  (12) 
O=C(NCC(=O)N1C[C@H](O)C[C@H]1c1ncccn1)c1ccc2ccccc2n1

>  <score_type>  (12) 
oracle

>  <origin>  (12) 
autodockgpu

>  <m_score__min__energy>  (12) 
-8.4700000000000006

>  <m_primary>  (12) 
energy

>  <rmsd>  (12) 
7.365040272854572

>  <m_score__min__rmsd>  (12) 
7.365040272854572

>  <meeko>  (12) 
{"free_energy": -7.41, "intermolecular_energy": -9.2, "internal_energy": -2.8, "cluster_size": 40, "cluster_id": 3, "rank_in_cluster": 12}

>  <energy>  (12) 
-7.5

>  <cluster_rmsd>  (12) 
0.79

>  <cluster>  (12) 
3

$$$$

     RDKit          3D

 47 50  0  0  0  0  0  0  0  0999 V2000
  138.7000   75.2360  222.2990 O   0  0  0  0  0  0  0  0  0  0  0  0
  139.8750   75.6650  222.2120 C   0  0  0  0  0  0  0  0  0  0  0  0
  140.9900   74.8650  221.8500 N   0  0  0  0  0  0  0  0  0  0  0  0
  140.8250   73.4300  221.5430 C   0  0  0  0  0  0  0  0  0  0  0  0
  141.6930   73.0460  220.4290 C   0  0  0  0  0  0  0  0  0  0  0  0
  141.1000   72.4270  219.4590 O   0  0  0  0  0  0  0  0  0  0  0  0
  143.0650   73.2460  220.2520 N   0  0  0  0  0  0  0  0  0  0  0  0
  143.9960   72.0890  220.4770 C   0  0  0  0  0  0  0  0  0  0  0  0
  145.0700   72.3040  219.4340 C   0  0  2  0  0  0  0  0  0  0  0  0
  146.3180   72.5190  220.0500 O   0  0  0  0  0  0  0  0  0  0  0  0
  144.6960   73.5800  218.7130 C   0  0  0  0  0  0  0  0  0  0  0  0
  143.9480   74.2960  219.8680 C   0  0  1  0  0  0  0  0  0  0  0  0
  143.4060   75.5640  219.4170 C   0  0  0  0  0  0  0  0  0  0  0  0
  143.6920   75.9320  218.1200 N   0  0  0  0  0  0  0  0  0  0  0  0
  143.2750   77.0840  217.5890 C   0  0  0  0  0  0  0  0  0  0  0  0
  142.5250   77.9680  218.3350 C   0  0  0  0  0  0  0  0  0  0  0  0
  142.2270   77.6200  219.6350 C   0  0  0  0  0  0  0  0  0  0  0  0
  142.6820   76.4420  220.0990 N   0  0  0  0  0  0  0  0  0  0  0  0
  140.1170   77.0900  222.5030 C   0  0  0  0  0  0  0  0  0  0  0  0
  139.0730   77.9790  222.6310 C   0  0  0  0  0  0  0  0  0  0  0  0
  139.2200   79.3120  222.9010 C   0  0  0  0  0  0  0  0  0  0  0  0
  140.5050   79.7910  223.0540 C   0  0  0  0  0  0  0  0  0  0  0  0
  140.6860   81.1340  223.3260 C   0  0  0  0  0  0  0  0  0  0  0  0
  141.9540   81.6280  223.4810 C   0  0  0  0  0  0  0  0  0  0  0  0
  143.0430   80.7770  223.3620 C   0  0  0  0  0  0  0  0  0  0  0  0
  142.8280   79.4300  223.0880 C   0  0  0  0  0  0  0  0  0  0  0  0
  141.5630   78.9040  222.9260 C   0  0  0  0  0  0  0  0  0  0  0  0
  141.3590   77.5860  222.6570 N   0  0  0  0  0  0  0  0  0  0  0  0
  141.9440   75.3040  221.8010 H   0  0  0  0  0  0  0  0  0  0  0  0
  141.0894   72.8363  222.4305 H   0  0  0  0  0  0  0  0  0  0  0  0
  139.7781   73.2421  221.2622 H   0  0  0  0  0  0  0  0  0  0  0  0
  144.4202   72.1152  221.4916 H   0  0  0  0  0  0  0  0  0  0  0  0
  143.4991   71.1114  220.3904 H   0  0  0  0  0  0  0  0  0  0  0  0
  145.1428   71.4307  218.7691 H   0  0  0  0  0  0  0  0  0  0  0  0
  146.4170   71.9090  220.8490 H   0  0  0  0  0  0  0  0  0  0  0  0
  145.5816   74.1428  218.3828 H   0  0  0  0  0  0  0  0  0  0  0  0
  144.1212   73.4494  217.7843 H   0  0  0  0  0  0  0  0  0  0  0  0
  144.5147   74.6559  220.7394 H   0  0  0  0  0  0  0  0  0  0  0  0
  143.5320   77.3296  216.5480 H   0  0  0  0  0  0  0  0  0  0  0  0
  142.1760   78.9194  217.9071 H   0  0  0  0  0  0  0  0  0  0  0  0
  141.6329   78.2878  220.2761 H   0  0  0  0  0  0  0  0  0  0  0  0
  138.0512   77.5907  222.5077 H   0  0  0  0  0  0  0  0  0  0  0  0
  138.3479   79.9761  222.9926 H   0  0  0  0  0  0  0  0  0  0  0  0
  139.8169   81.8021  223.4174 H   0  0  0  0  0  0  0  0  0  0  0  0
  142.1082   82.6951  223.6989 H   0  0  0  0  0  0  0  0  0  0  0  0
  144.0659   81.1631  223.4830 H   0  0  0  0  0  0  0  0  0  0  0  0
  143.6967   78.7613  222.9974 H   0  0  0  0  0  0  0  0  0  0  0  0
  1  2  2  0
  2  3  1  0
  3  4  1  0
  4  5  1  0
  5  6  2  0
  5  7  1  0
  7  8  1  0
  8  9  1  0
  9 10  1  0
  9 11  1  0
 11 12  1  0
 12 13  1  0
 13 14  2  0
 14 15  1  0
 15 16  2  0
 16 17  1  0
 17 18  2  0
  2 19  1  0
 19 20  2  0
 20 21  1  0
 21 22  2  0
 22 23  1  0
 23 24  2  0
 24 25  1  0
 25 26  2  0
 26 27  1  0
 27 28  2  0
 12  7  1  0
 18 13  1  0
 28 19  1  0
 27 22  1  0
  3 29  1  0
  4 30  1  0
  4 31  1  0
  8 32  1  0
  8 33  1  0
  9 34  1  6
 10 35  1  0
 11 36  1  0
 11 37  1  0
 12 38  1  1
 15 39  1  0
 16 40  1  0
 17 41  1  0
 20 42  1  0
 21 43  1  0
 23 44  1  0
 24 45  1  0
 25 46  1  0
 26 47  1  0
M  END
>  <smiles>  (13) 
O=C(NCC(=O)N1C[C@H](O)C[C@H]1c1ncccn1)c1ccc2ccccc2n1

>  <score_type>  (13) 
oracle

>  <origin>  (13) 
autodockgpu

>  <m_score__min__energy>  (13) 
-8.4700000000000006

>  <m_primary>  (13) 
energy

>  <rmsd>  (13) 
7.441315805480919

>  <m_score__min__rmsd>  (13) 
7.441315805480919

>  <meeko>  (13) 
{"free_energy": -7.27, "intermolecular_energy": -9.06, "internal_energy": -2.73, "cluster_size": 40, "cluster_id": 3, "rank_in_cluster": 22}

>  <energy>  (13) 
-7.48

>  <cluster_rmsd>  (13) 
0.8

>  <cluster>  (13) 
3

$$$$

     RDKit          3D

 47 50  0  0  0  0  0  0  0  0999 V2000
  138.5200   75.2770  222.2160 O   0  0  0  0  0  0  0  0  0  0  0  0
  139.6370   75.7450  221.8880 C   0  0  0  0  0  0  0  0  0  0  0  0
  140.5790   75.0620  221.0780 N   0  0  0  0  0  0  0  0  0  0  0  0
  140.2920   73.7110  220.5550 C   0  0  0  0  0  0  0  0  0  0  0  0
  141.5080   73.1080  220.0080 C   0  0  0  0  0  0  0  0  0  0  0  0
  141.3130   72.1330  219.1800 O   0  0  0  0  0  0  0  0  0  0  0  0
  142.8480   73.4240  220.2440 N   0  0  0  0  0  0  0  0  0  0  0  0
  143.7340   72.3850  220.8700 C   0  0  0  0  0  0  0  0  0  0  0  0
  145.0670   72.6170  220.1940 C   0  0  2  0  0  0  0  0  0  0  0  0
  146.0380   73.0010  221.1390 O   0  0  0  0  0  0  0  0  0  0  0  0
  144.8580   73.7870  219.2590 C   0  0  0  0  0  0  0  0  0  0  0  0
  143.7370   74.5200  220.0410 C   0  0  1  0  0  0  0  0  0  0  0  0
  143.2830   75.6880  219.3100 C   0  0  0  0  0  0  0  0  0  0  0  0
  142.6890   76.6880  220.0490 N   0  0  0  0  0  0  0  0  0  0  0  0
  142.2070   77.8040  219.4980 C   0  0  0  0  0  0  0  0  0  0  0  0
  142.2870   78.0020  218.1360 C   0  0  0  0  0  0  0  0  0  0  0  0
  142.8780   77.0150  217.3760 C   0  0  0  0  0  0  0  0  0  0  0  0
  143.3410   75.9190  218.0050 N   0  0  0  0  0  0  0  0  0  0  0  0
  139.9940   77.0910  222.3730 C   0  0  0  0  0  0  0  0  0  0  0  0
  139.0290   77.9730  222.8060 C   0  0  0  0  0  0  0  0  0  0  0  0
  139.2850   79.2350  223.2690 C   0  0  0  0  0  0  0  0  0  0  0  0
  140.6030   79.6440  223.3010 C   0  0  0  0  0  0  0  0  0  0  0  0
  140.8930   80.9150  223.7630 C   0  0  0  0  0  0  0  0  0  0  0  0
  142.1940   81.3380  223.8030 C   0  0  0  0  0  0  0  0  0  0  0  0
  143.2070   80.4910  223.3770 C   0  0  0  0  0  0  0  0  0  0  0  0
  142.8820   79.2190  222.9180 C   0  0  0  0  0  0  0  0  0  0  0  0
  141.5820   78.7640  222.8670 C   0  0  0  0  0  0  0  0  0  0  0  0
  141.2700   77.5180  222.4160 N   0  0  0  0  0  0  0  0  0  0  0  0
  141.4950   75.5260  220.8490 H   0  0  0  0  0  0  0  0  0  0  0  0
  139.9096   73.0800  221.3708 H   0  0  0  0  0  0  0  0  0  0  0  0
  139.5411   73.7896  219.7550 H   0  0  0  0  0  0  0  0  0  0  0  0
  143.8112   72.5351  221.9570 H   0  0  0  0  0  0  0  0  0  0  0  0
  143.3563   71.3601  220.7400 H   0  0  0  0  0  0  0  0  0  0  0  0
  145.4047   71.7034  219.6828 H   0  0  0  0  0  0  0  0  0  0  0  0
  146.2890   72.2100  221.7140 H   0  0  0  0  0  0  0  0  0  0  0  0
  145.7636   74.4035  219.1600 H   0  0  0  0  0  0  0  0  0  0  0  0
  144.6173   73.5255  218.2180 H   0  0  0  0  0  0  0  0  0  0  0  0
  143.9738   75.0034  221.0003 H   0  0  0  0  0  0  0  0  0  0  0  0
  141.7427   78.5712  220.1351 H   0  0  0  0  0  0  0  0  0  0  0  0
  141.8923   78.9173  217.6709 H   0  0  0  0  0  0  0  0  0  0  0  0
  142.9686   77.1205  216.2848 H   0  0  0  0  0  0  0  0  0  0  0  0
  137.9809   77.6403  222.7777 H   0  0  0  0  0  0  0  0  0  0  0  0
  138.4726   79.8974  223.6025 H   0  0  0  0  0  0  0  0  0  0  0  0
  140.0836   81.5813  224.0960 H   0  0  0  0  0  0  0  0  0  0  0  0
  142.4357   82.3459  224.1715 H   0  0  0  0  0  0  0  0  0  0  0  0
  144.2557   80.8219  223.4020 H   0  0  0  0  0  0  0  0  0  0  0  0
  143.6909   78.5527  222.5839 H   0  0  0  0  0  0  0  0  0  0  0  0
  1  2  2  0
  2  3  1  0
  3  4  1  0
  4  5  1  0
  5  6  2  0
  5  7  1  0
  7  8  1  0
  8  9  1  0
  9 10  1  0
  9 11  1  0
 11 12  1  0
 12 13  1  0
 13 14  2  0
 14 15  1  0
 15 16  2  0
 16 17  1  0
 17 18  2  0
  2 19  1  0
 19 20  2  0
 20 21  1  0
 21 22  2  0
 22 23  1  0
 23 24  2  0
 24 25  1  0
 25 26  2  0
 26 27  1  0
 27 28  2  0
 12  7  1  0
 18 13  1  0
 28 19  1  0
 27 22  1  0
  3 29  1  0
  4 30  1  0
  4 31  1  0
  8 32  1  0
  8 33  1  0
  9 34  1  6
 10 35  1  0
 11 36  1  0
 11 37  1  0
 12 38  1  1
 15 39  1  0
 16 40  1  0
 17 41  1  0
 20 42  1  0
 21 43  1  0
 23 44  1  0
 24 45  1  0
 25 46  1  0
 26 47  1  0
M  END
>  <smiles>  (14) 
O=C(NCC(=O)N1C[C@H](O)C[C@H]1c1ncccn1)c1ccc2ccccc2n1

>  <score_type>  (14) 
oracle

>  <origin>  (14) 
autodockgpu

>  <m_score__min__energy>  (14) 
-8.4700000000000006

>  <m_primary>  (14) 
energy

>  <rmsd>  (14) 
7.272687021931404

>  <m_score__min__rmsd>  (14) 
7.272687021931404

>  <meeko>  (14) 
{"free_energy": -6.81, "intermolecular_energy": -8.6, "internal_energy": -2.76, "cluster_size": 40, "cluster_id": 3, "rank_in_cluster": 37}

>  <energy>  (14) 
-7.48

>  <cluster_rmsd>  (14) 
0.05

>  <cluster>  (14) 
3

$$$$

     RDKit          3D

 47 50  0  0  0  0  0  0  0  0999 V2000
  138.7760   75.2040  222.2380 O   0  0  0  0  0  0  0  0  0  0  0  0
  139.9500   75.6440  222.2040 C   0  0  0  0  0  0  0  0  0  0  0  0
  141.0860   74.8570  221.8830 N   0  0  0  0  0  0  0  0  0  0  0  0
  140.9480   73.4230  221.5580 C   0  0  0  0  0  0  0  0  0  0  0  0
  141.7480   73.0900  220.3790 C   0  0  0  0  0  0  0  0  0  0  0  0
  141.0800   72.6090  219.3800 O   0  0  0  0  0  0  0  0  0  0  0  0
  143.1240   73.2120  220.1670 N   0  0  0  0  0  0  0  0  0  0  0  0
  144.0020   72.0230  220.4380 C   0  0  0  0  0  0  0  0  0  0  0  0
  145.0630   72.1290  219.3650 C   0  0  2  0  0  0  0  0  0  0  0  0
  146.3330   72.3150  219.9460 O   0  0  0  0  0  0  0  0  0  0  0  0
  144.7370   73.3810  218.5820 C   0  0  0  0  0  0  0  0  0  0  0  0
  144.0490   74.1950  219.7100 C   0  0  1  0  0  0  0  0  0  0  0  0
  143.5590   75.4620  219.2000 C   0  0  0  0  0  0  0  0  0  0  0  0
  142.8360   76.2420  220.0760 N   0  0  0  0  0  0  0  0  0  0  0  0
  142.3080   77.4180  219.7280 C   0  0  0  0  0  0  0  0  0  0  0  0
  142.4720   77.9070  218.4500 C   0  0  0  0  0  0  0  0  0  0  0  0
  143.1930   77.1430  217.5570 C   0  0  0  0  0  0  0  0  0  0  0  0
  143.6940   75.9700  217.9820 N   0  0  0  0  0  0  0  0  0  0  0  0
  140.1660   77.0690  222.5170 C   0  0  0  0  0  0  0  0  0  0  0  0
  139.1060   77.9330  222.6710 C   0  0  0  0  0  0  0  0  0  0  0  0
  139.2290   79.2650  222.9620 C   0  0  0  0  0  0  0  0  0  0  0  0
  140.5070   79.7670  223.1090 C   0  0  0  0  0  0  0  0  0  0  0  0
  140.6640   81.1090  223.4020 C   0  0  0  0  0  0  0  0  0  0  0  0
  141.9230   81.6250  223.5520 C   0  0  0  0  0  0  0  0  0  0  0  0
  143.0270   80.7990  223.4070 C   0  0  0  0  0  0  0  0  0  0  0  0
  142.8360   79.4530  223.1120 C   0  0  0  0  0  0  0  0  0  0  0  0
  141.5810   78.9040  222.9550 C   0  0  0  0  0  0  0  0  0  0  0  0
  141.4000   77.5870  222.6660 N   0  0  0  0  0  0  0  0  0  0  0  0
  142.0380   75.3040  221.8780 H   0  0  0  0  0  0  0  0  0  0  0  0
  141.2935   72.8224  222.4124 H   0  0  0  0  0  0  0  0  0  0  0  0
  139.8909   73.2043  221.3464 H   0  0  0  0  0  0  0  0  0  0  0  0
  144.4481   72.0820  221.4418 H   0  0  0  0  0  0  0  0  0  0  0  0
  143.4565   71.0681  220.4142 H   0  0  0  0  0  0  0  0  0  0  0  0
  145.0789   71.2189  218.7474 H   0  0  0  0  0  0  0  0  0  0  0  0
  146.3700   71.8580  220.8460 H   0  0  0  0  0  0  0  0  0  0  0  0
  145.6420   73.8801  218.2053 H   0  0  0  0  0  0  0  0  0  0  0  0
  144.1372   73.2294  217.6725 H   0  0  0  0  0  0  0  0  0  0  0  0
  144.6511   74.5730  220.5494 H   0  0  0  0  0  0  0  0  0  0  0  0
  141.7380   78.0007  220.4667 H   0  0  0  0  0  0  0  0  0  0  0  0
  142.0420   78.8747  218.1523 H   0  0  0  0  0  0  0  0  0  0  0  0
  143.3541   77.4843  216.5238 H   0  0  0  0  0  0  0  0  0  0  0  0
  138.0911   77.5257  222.5522 H   0  0  0  0  0  0  0  0  0  0  0  0
  138.3449   79.9098  223.0743 H   0  0  0  0  0  0  0  0  0  0  0  0
  139.7829   81.7579  223.5138 H   0  0  0  0  0  0  0  0  0  0  0  0
  142.0583   82.6911  223.7867 H   0  0  0  0  0  0  0  0  0  0  0  0
  144.0431   81.2037  223.5240 H   0  0  0  0  0  0  0  0  0  0  0  0
  143.7170   78.8040  223.0001 H   0  0  0  0  0  0  0  0  0  0  0  0
  1  2  2  0
  2  3  1  0
  3  4  1  0
  4  5  1  0
  5  6  2  0
  5  7  1  0
  7  8  1  0
  8  9  1  0
  9 10  1  0
  9 11  1  0
 11 12  1  0
 12 13  1  0
 13 14  2  0
 14 15  1  0
 15 16  2  0
 16 17  1  0
 17 18  2  0
  2 19  1  0
 19 20  2  0
 20 21  1  0
 21 22  2  0
 22 23  1  0
 23 24  2  0
 24 25  1  0
 25 26  2  0
 26 27  1  0
 27 28  2  0
 12  7  1  0
 18 13  1  0
 28 19  1  0
 27 22  1  0
  3 29  1  0
  4 30  1  0
  4 31  1  0
  8 32  1  0
  8 33  1  0
  9 34  1  6
 10 35  1  0
 11 36  1  0
 11 37  1  0
 12 38  1  1
 15 39  1  0
 16 40  1  0
 17 41  1  0
 20 42  1  0
 21 43  1  0
 23 44  1  0
 24 45  1  0
 25 46  1  0
 26 47  1  0
M  END
>  <smiles>  (15) 
O=C(NCC(=O)N1C[C@H](O)C[C@H]1c1ncccn1)c1ccc2ccccc2n1

>  <score_type>  (15) 
oracle

>  <origin>  (15) 
autodockgpu

>  <m_score__min__energy>  (15) 
-8.4700000000000006

>  <m_primary>  (15) 
energy

>  <rmsd>  (15) 
7.380345879037896

>  <m_score__min__rmsd>  (15) 
7.380345879037896

>  <meeko>  (15) 
{"free_energy": -7.36, "intermolecular_energy": -9.15, "internal_energy": -2.71, "cluster_size": 40, "cluster_id": 3, "rank_in_cluster": 15}

>  <energy>  (15) 
-7.47

>  <cluster_rmsd>  (15) 
0.79

>  <cluster>  (15) 
3

$$$$

     RDKit          3D

 47 50  0  0  0  0  0  0  0  0999 V2000
  139.3640   74.7790  222.4030 O   0  0  0  0  0  0  0  0  0  0  0  0
  140.1060   75.5680  221.7690 C   0  0  0  0  0  0  0  0  0  0  0  0
  140.8200   75.2190  220.5940 N   0  0  0  0  0  0  0  0  0  0  0  0
  140.7290   73.8580  220.0280 C   0  0  0  0  0  0  0  0  0  0  0  0
  141.8270   73.0280  220.5230 C   0  0  0  0  0  0  0  0  0  0  0  0
  141.4880   72.1320  221.3940 O   0  0  0  0  0  0  0  0  0  0  0  0
  143.1860   73.0530  220.1990 N   0  0  0  0  0  0  0  0  0  0  0  0
  144.0330   71.8640  220.5540 C   0  0  0  0  0  0  0  0  0  0  0  0
  145.0110   71.7830  219.4040 C   0  0  2  0  0  0  0  0  0  0  0  0
  146.3290   71.9750  219.8640 O   0  0  0  0  0  0  0  0  0  0  0  0
  144.6780   72.9450  218.4940 C   0  0  0  0  0  0  0  0  0  0  0  0
  144.1130   73.9240  219.5560 C   0  0  1  0  0  0  0  0  0  0  0  0
  143.6380   75.1420  218.9270 C   0  0  0  0  0  0  0  0  0  0  0  0
  143.3940   76.2130  219.7600 N   0  0  0  0  0  0  0  0  0  0  0  0
  142.9320   77.3830  219.3130 C   0  0  0  0  0  0  0  0  0  0  0  0
  142.6750   77.5680  217.9710 C   0  0  0  0  0  0  0  0  0  0  0  0
  142.9120   76.5100  217.1200 C   0  0  0  0  0  0  0  0  0  0  0  0
  143.3790   75.3630  217.6450 N   0  0  0  0  0  0  0  0  0  0  0  0
  140.2450   76.9460  222.2760 C   0  0  0  0  0  0  0  0  0  0  0  0
  139.1460   77.6770  222.6660 C   0  0  0  0  0  0  0  0  0  0  0  0
  139.1980   78.9580  223.1450 C   0  0  0  0  0  0  0  0  0  0  0  0
  140.4410   79.5500  223.2400 C   0  0  0  0  0  0  0  0  0  0  0  0
  140.5270   80.8440  223.7200 C   0  0  0  0  0  0  0  0  0  0  0  0
  141.7510   81.4480  223.8220 C   0  0  0  0  0  0  0  0  0  0  0  0
  142.8920   80.7580  223.4410 C   0  0  0  0  0  0  0  0  0  0  0  0
  142.7730   79.4570  222.9620 C   0  0  0  0  0  0  0  0  0  0  0  0
  141.5550   78.8220  222.8490 C   0  0  0  0  0  0  0  0  0  0  0  0
  141.4440   77.5500  222.3790 N   0  0  0  0  0  0  0  0  0  0  0  0
  141.4210   75.9410  220.1230 H   0  0  0  0  0  0  0  0  0  0  0  0
  139.7707   73.4057  220.3229 H   0  0  0  0  0  0  0  0  0  0  0  0
  140.7943   73.9212  218.9318 H   0  0  0  0  0  0  0  0  0  0  0  0
  144.5574   72.0236  221.5077 H   0  0  0  0  0  0  0  0  0  0  0  0
  143.4484   70.9421  220.6897 H   0  0  0  0  0  0  0  0  0  0  0  0
  144.9411   70.8039  218.9075 H   0  0  0  0  0  0  0  0  0  0  0  0
  146.3780   71.7820  220.8540 H   0  0  0  0  0  0  0  0  0  0  0  0
  145.5713   73.3478  217.9944 H   0  0  0  0  0  0  0  0  0  0  0  0
  144.0047   72.7137  217.6554 H   0  0  0  0  0  0  0  0  0  0  0  0
  144.7934   74.3707  220.2959 H   0  0  0  0  0  0  0  0  0  0  0  0
  142.7549   78.2061  220.0210 H   0  0  0  0  0  0  0  0  0  0  0  0
  142.2936   78.5278  217.5923 H   0  0  0  0  0  0  0  0  0  0  0  0
  142.7242   76.6012  216.0400 H   0  0  0  0  0  0  0  0  0  0  0  0
  138.1584   77.1990  222.5873 H   0  0  0  0  0  0  0  0  0  0  0  0
  138.2850   79.4946  223.4425 H   0  0  0  0  0  0  0  0  0  0  0  0
  139.6168   81.3849  224.0182 H   0  0  0  0  0  0  0  0  0  0  0  0
  141.8293   82.4763  224.2046 H   0  0  0  0  0  0  0  0  0  0  0  0
  143.8807   81.2342  223.5166 H   0  0  0  0  0  0  0  0  0  0  0  0
  143.6831   78.9163  222.6630 H   0  0  0  0  0  0  0  0  0  0  0  0
  1  2  2  0
  2  3  1  0
  3  4  1  0
  4  5  1  0
  5  6  2  0
  5  7  1  0
  7  8  1  0
  8  9  1  0
  9 10  1  0
  9 11  1  0
 11 12  1  0
 12 13  1  0
 13 14  2  0
 14 15  1  0
 15 16  2  0
 16 17  1  0
 17 18  2  0
  2 19  1  0
 19 20  2  0
 20 21  1  0
 21 22  2  0
 22 23  1  0
 23 24  2  0
 24 25  1  0
 25 26  2  0
 26 27  1  0
 27 28  2  0
 12  7  1  0
 18 13  1  0
 28 19  1  0
 27 22  1  0
  3 29  1  0
  4 30  1  0
  4 31  1  0
  8 32  1  0
  8 33  1  0
  9 34  1  6
 10 35  1  0
 11 36  1  0
 11 37  1  0
 12 38  1  1
 15 39  1  0
 16 40  1  0
 17 41  1  0
 20 42  1  0
 21 43  1  0
 23 44  1  0
 24 45  1  0
 25 46  1  0
 26 47  1  0
M  END
>  <smiles>  (16) 
O=C(NCC(=O)N1C[C@H](O)C[C@H]1c1ncccn1)c1ccc2ccccc2n1

>  <score_type>  (16) 
oracle

>  <origin>  (16) 
autodockgpu

>  <m_score__min__energy>  (16) 
-8.4700000000000006

>  <m_primary>  (16) 
energy

>  <rmsd>  (16) 
7.384413769277339

>  <m_score__min__rmsd>  (16) 
7.384413769277339

>  <meeko>  (16) 
{"free_energy": -7.21, "intermolecular_energy": -9.0, "internal_energy": -2.49, "cluster_size": 40, "cluster_id": 3, "rank_in_cluster": 26}

>  <energy>  (16) 
-7.47

>  <cluster_rmsd>  (16) 
0.8

>  <cluster>  (16) 
3

$$$$

     RDKit          3D

 47 50  0  0  0  0  0  0  0  0999 V2000
  138.9820   75.0580  222.1120 O   0  0  0  0  0  0  0  0  0  0  0  0
  140.1180   75.5860  222.0430 C   0  0  0  0  0  0  0  0  0  0  0  0
  141.2890   74.9030  221.6220 N   0  0  0  0  0  0  0  0  0  0  0  0
  141.2370   73.4820  221.2270 C   0  0  0  0  0  0  0  0  0  0  0  0
  141.8510   73.2980  219.9110 C   0  0  0  0  0  0  0  0  0  0  0  0
  141.0710   72.8020  219.0050 O   0  0  0  0  0  0  0  0  0  0  0  0
  143.1520   73.5750  219.4840 N   0  0  0  0  0  0  0  0  0  0  0  0
  144.1210   72.4350  219.3370 C   0  0  0  0  0  0  0  0  0  0  0  0
  144.9470   72.8390  218.1370 C   0  0  2  0  0  0  0  0  0  0  0  0
  146.2950   73.0140  218.5040 O   0  0  0  0  0  0  0  0  0  0  0  0
  144.4170   74.1880  217.7040 C   0  0  0  0  0  0  0  0  0  0  0  0
  143.9250   74.7030  219.0820 C   0  0  1  0  0  0  0  0  0  0  0  0
  143.2880   76.0000  218.9460 C   0  0  0  0  0  0  0  0  0  0  0  0
  143.3980   76.6160  217.7180 N   0  0  0  0  0  0  0  0  0  0  0  0
  142.8790   77.8200  217.4660 C   0  0  0  0  0  0  0  0  0  0  0  0
  142.1980   78.5080  218.4480 C   0  0  0  0  0  0  0  0  0  0  0  0
  142.0760   77.9100  219.6840 C   0  0  0  0  0  0  0  0  0  0  0  0
  142.6250   76.6950  219.8610 N   0  0  0  0  0  0  0  0  0  0  0  0
  140.2470   77.0050  222.4220 C   0  0  0  0  0  0  0  0  0  0  0  0
  139.1370   77.7980  222.6050 C   0  0  0  0  0  0  0  0  0  0  0  0
  139.1790   79.1200  222.9560 C   0  0  0  0  0  0  0  0  0  0  0  0
  140.4240   79.6890  223.1380 C   0  0  0  0  0  0  0  0  0  0  0  0
  140.4990   81.0230  223.4930 C   0  0  0  0  0  0  0  0  0  0  0  0
  141.7240   81.6050  223.6780 C   0  0  0  0  0  0  0  0  0  0  0  0
  142.8760   80.8530  223.5060 C   0  0  0  0  0  0  0  0  0  0  0  0
  142.7670   79.5120  223.1490 C   0  0  0  0  0  0  0  0  0  0  0  0
  141.5480   78.8990  222.9560 C   0  0  0  0  0  0  0  0  0  0  0  0
  141.4470   77.5870  222.6050 N   0  0  0  0  0  0  0  0  0  0  0  0
  142.2040   75.4200  221.5930 H   0  0  0  0  0  0  0  0  0  0  0  0
  141.7811   72.8790  221.9688 H   0  0  0  0  0  0  0  0  0  0  0  0
  140.1857   73.1620  221.1794 H   0  0  0  0  0  0  0  0  0  0  0  0
  144.7504   72.3337  220.2335 H   0  0  0  0  0  0  0  0  0  0  0  0
  143.6262   71.4605  219.2128 H   0  0  0  0  0  0  0  0  0  0  0  0
  144.8849   72.0724  217.3506 H   0  0  0  0  0  0  0  0  0  0  0  0
  146.4810   73.9920  218.6730 H   0  0  0  0  0  0  0  0  0  0  0  0
  145.2072   74.8265  217.2822 H   0  0  0  0  0  0  0  0  0  0  0  0
  143.6596   74.1672  216.9066 H   0  0  0  0  0  0  0  0  0  0  0  0
  144.6615   74.9578  219.8583 H   0  0  0  0  0  0  0  0  0  0  0  0
  142.9955   78.2665  216.4675 H   0  0  0  0  0  0  0  0  0  0  0  0
  141.7666   79.5007  218.2517 H   0  0  0  0  0  0  0  0  0  0  0  0
  141.5435   78.4135  220.5043 H   0  0  0  0  0  0  0  0  0  0  0  0
  138.1486   77.3377  222.4591 H   0  0  0  0  0  0  0  0  0  0  0  0
  138.2576   79.7062  223.0879 H   0  0  0  0  0  0  0  0  0  0  0  0
  139.5801   81.6129  223.6259 H   0  0  0  0  0  0  0  0  0  0  0  0
  141.7942   82.6654  223.9621 H   0  0  0  0  0  0  0  0  0  0  0  0
  143.8656   81.3112  223.6501 H   0  0  0  0  0  0  0  0  0  0  0  0
  143.6854   78.9213  223.0164 H   0  0  0  0  0  0  0  0  0  0  0  0
  1  2  2  0
  2  3  1  0
  3  4  1  0
  4  5  1  0
  5  6  2  0
  5  7  1  0
  7  8  1  0
  8  9  1  0
  9 10  1  0
  9 11  1  0
 11 12  1  0
 12 13  1  0
 13 14  2  0
 14 15  1  0
 15 16  2  0
 16 17  1  0
 17 18  2  0
  2 19  1  0
 19 20  2  0
 20 21  1  0
 21 22  2  0
 22 23  1  0
 23 24  2  0
 24 25  1  0
 25 26  2  0
 26 27  1  0
 27 28  2  0
 12  7  1  0
 18 13  1  0
 28 19  1  0
 27 22  1  0
  3 29  1  0
  4 30  1  0
  4 31  1  0
  8 32  1  0
  8 33  1  0
  9 34  1  6
 10 35  1  0
 11 36  1  0
 11 37  1  0
 12 38  1  1
 15 39  1  0
 16 40  1  0
 17 41  1  0
 20 42  1  0
 21 43  1  0
 23 44  1  0
 24 45  1  0
 25 46  1  0
 26 47  1  0
M  END
>  <smiles>  (17) 
O=C(NCC(=O)N1C[C@H](O)C[C@H]1c1ncccn1)c1ccc2ccccc2n1

>  <score_type>  (17) 
oracle

>  <origin>  (17) 
autodockgpu

>  <m_score__min__energy>  (17) 
-8.4700000000000006

>  <m_primary>  (17) 
energy

>  <rmsd>  (17) 
7.291679235977964

>  <m_score__min__rmsd>  (17) 
7.291679235977964

>  <meeko>  (17) 
{"free_energy": -7.45, "intermolecular_energy": -9.24, "internal_energy": -2.7, "cluster_size": 40, "cluster_id": 3, "rank_in_cluster": 9}

>  <energy>  (17) 
-7.45

>  <cluster_rmsd>  (17) 
0.8

>  <cluster>  (17) 
3

$$$$

     RDKit          3D

 47 50  0  0  0  0  0  0  0  0999 V2000
  138.8690   75.2010  222.1020 O   0  0  0  0  0  0  0  0  0  0  0  0
  140.0290   75.6760  222.0640 C   0  0  0  0  0  0  0  0  0  0  0  0
  141.1810   74.9360  221.6910 N   0  0  0  0  0  0  0  0  0  0  0  0
  141.0780   73.5130  221.3120 C   0  0  0  0  0  0  0  0  0  0  0  0
  141.7880   73.2700  220.0560 C   0  0  0  0  0  0  0  0  0  0  0  0
  141.0850   72.6990  219.1300 O   0  0  0  0  0  0  0  0  0  0  0  0
  143.1080   73.5590  219.7020 N   0  0  0  0  0  0  0  0  0  0  0  0
  144.1010   72.4330  219.6430 C   0  0  0  0  0  0  0  0  0  0  0  0
  144.9930   72.8230  218.4860 C   0  0  2  0  0  0  0  0  0  0  0  0
  146.3140   73.0290  218.9310 O   0  0  0  0  0  0  0  0  0  0  0  0
  144.4710   74.1520  217.9890 C   0  0  0  0  0  0  0  0  0  0  0  0
  143.8860   74.6900  219.3210 C   0  0  1  0  0  0  0  0  0  0  0  0
  143.2380   75.9720  219.1130 C   0  0  0  0  0  0  0  0  0  0  0  0
  143.3670   76.5340  217.8610 N   0  0  0  0  0  0  0  0  0  0  0  0
  142.8410   77.7200  217.5450 C   0  0  0  0  0  0  0  0  0  0  0  0
  142.1330   78.4430  218.4810 C   0  0  0  0  0  0  0  0  0  0  0  0
  141.9910   77.9000  219.7410 C   0  0  0  0  0  0  0  0  0  0  0  0
  142.5490   76.7000  219.9830 N   0  0  0  0  0  0  0  0  0  0  0  0
  140.2100   77.0930  222.4300 C   0  0  0  0  0  0  0  0  0  0  0  0
  139.1290   77.9290  222.5980 C   0  0  0  0  0  0  0  0  0  0  0  0
  139.2200   79.2530  222.9370 C   0  0  0  0  0  0  0  0  0  0  0  0
  140.4840   79.7760  223.1200 C   0  0  0  0  0  0  0  0  0  0  0  0
  140.6080   81.1100  223.4620 C   0  0  0  0  0  0  0  0  0  0  0  0
  141.8530   81.6470  223.6480 C   0  0  0  0  0  0  0  0  0  0  0  0
  142.9770   80.8500  223.4900 C   0  0  0  0  0  0  0  0  0  0  0  0
  142.8190   79.5110  223.1450 C   0  0  0  0  0  0  0  0  0  0  0  0
  141.5780   78.9420  222.9520 C   0  0  0  0  0  0  0  0  0  0  0  0
  141.4300   77.6320  222.6140 N   0  0  0  0  0  0  0  0  0  0  0  0
  142.1190   75.4120  221.6860 H   0  0  0  0  0  0  0  0  0  0  0  0
  141.5212   72.8931  222.1053 H   0  0  0  0  0  0  0  0  0  0  0  0
  140.0173   73.2535  221.1797 H   0  0  0  0  0  0  0  0  0  0  0  0
  144.6754   72.3636  220.5786 H   0  0  0  0  0  0  0  0  0  0  0  0
  143.6301   71.4474  219.5130 H   0  0  0  0  0  0  0  0  0  0  0  0
  144.9906   72.0375  217.7159 H   0  0  0  0  0  0  0  0  0  0  0  0
  146.5340   74.0150  218.9080 H   0  0  0  0  0  0  0  0  0  0  0  0
  145.2762   74.7938  217.6021 H   0  0  0  0  0  0  0  0  0  0  0  0
  143.7654   74.1003  217.1467 H   0  0  0  0  0  0  0  0  0  0  0  0
  144.5682   74.9754  220.1353 H   0  0  0  0  0  0  0  0  0  0  0  0
  142.9737   78.1231  216.5301 H   0  0  0  0  0  0  0  0  0  0  0  0
  141.6956   79.4209  218.2313 H   0  0  0  0  0  0  0  0  0  0  0  0
  141.4364   78.4338  220.5268 H   0  0  0  0  0  0  0  0  0  0  0  0
  138.1248   77.5051  222.4501 H   0  0  0  0  0  0  0  0  0  0  0  0
  138.3209   79.8750  223.0586 H   0  0  0  0  0  0  0  0  0  0  0  0
  139.7116   81.7357  223.5838 H   0  0  0  0  0  0  0  0  0  0  0  0
  141.9618   82.7068  223.9218 H   0  0  0  0  0  0  0  0  0  0  0  0
  143.9825   81.2716  223.6358 H   0  0  0  0  0  0  0  0  0  0  0  0
  143.7151   78.8850  223.0221 H   0  0  0  0  0  0  0  0  0  0  0  0
  1  2  2  0
  2  3  1  0
  3  4  1  0
  4  5  1  0
  5  6  2  0
  5  7  1  0
  7  8  1  0
  8  9  1  0
  9 10  1  0
  9 11  1  0
 11 12  1  0
 12 13  1  0
 13 14  2  0
 14 15  1  0
 15 16  2  0
 16 17  1  0
 17 18  2  0
  2 19  1  0
 19 20  2  0
 20 21  1  0
 21 22  2  0
 22 23  1  0
 23 24  2  0
 24 25  1  0
 25 26  2  0
 26 27  1  0
 27 28  2  0
 12  7  1  0
 18 13  1  0
 28 19  1  0
 27 22  1  0
  3 29  1  0
  4 30  1  0
  4 31  1  0
  8 32  1  0
  8 33  1  0
  9 34  1  6
 10 35  1  0
 11 36  1  0
 11 37  1  0
 12 38  1  1
 15 39  1  0
 16 40  1  0
 17 41  1  0
 20 42  1  0
 21 43  1  0
 23 44  1  0
 24 45  1  0
 25 46  1  0
 26 47  1  0
M  END
>  <smiles>  (18) 
O=C(NCC(=O)N1C[C@H](O)C[C@H]1c1ncccn1)c1ccc2ccccc2n1

>  <score_type>  (18) 
oracle

>  <origin>  (18) 
autodockgpu

>  <m_score__min__energy>  (18) 
-8.4700000000000006

>  <m_primary>  (18) 
energy

>  <rmsd>  (18) 
7.327578106556706

>  <m_score__min__rmsd>  (18) 
7.327578106556706

>  <meeko>  (18) 
{"free_energy": -7.5, "intermolecular_energy": -9.29, "internal_energy": -2.69, "cluster_size": 40, "cluster_id": 3, "rank_in_cluster": 2}

>  <energy>  (18) 
-7.45

>  <cluster_rmsd>  (18) 
0.21

>  <cluster>  (18) 
3

$$$$

     RDKit          3D

 47 50  0  0  0  0  0  0  0  0999 V2000
  138.6550   75.7400  221.6380 O   0  0  0  0  0  0  0  0  0  0  0  0
  139.8590   76.0770  221.7370 C   0  0  0  0  0  0  0  0  0  0  0  0
  140.9500   75.2600  221.3440 N   0  0  0  0  0  0  0  0  0  0  0  0
  140.7240   73.9170  220.7740 C   0  0  0  0  0  0  0  0  0  0  0  0
  141.8700   73.0490  221.0480 C   0  0  0  0  0  0  0  0  0  0  0  0
  141.6260   72.0480  221.8320 O   0  0  0  0  0  0  0  0  0  0  0  0
  143.1880   73.1360  220.5930 N   0  0  0  0  0  0  0  0  0  0  0  0
  144.1050   71.9650  220.8130 C   0  0  0  0  0  0  0  0  0  0  0  0
  144.9650   71.9640  219.5700 C   0  0  2  0  0  0  0  0  0  0  0  0
  146.3150   72.1850  219.9060 O   0  0  0  0  0  0  0  0  0  0  0  0
  144.5050   73.1470  218.7470 C   0  0  0  0  0  0  0  0  0  0  0  0
  144.0180   74.0640  219.9000 C   0  0  1  0  0  0  0  0  0  0  0  0
  143.4440   75.2870  219.3720 C   0  0  0  0  0  0  0  0  0  0  0  0
  143.2980   75.3620  218.0030 N   0  0  0  0  0  0  0  0  0  0  0  0
  142.8060   76.4390  217.3880 C   0  0  0  0  0  0  0  0  0  0  0  0
  142.4170   77.5440  218.1150 C   0  0  0  0  0  0  0  0  0  0  0  0
  142.5540   77.4910  219.4860 C   0  0  0  0  0  0  0  0  0  0  0  0
  143.0570   76.3700  220.0330 N   0  0  0  0  0  0  0  0  0  0  0  0
  140.1630   77.4070  222.2980 C   0  0  0  0  0  0  0  0  0  0  0  0
  139.1580   78.2550  222.7040 C   0  0  0  0  0  0  0  0  0  0  0  0
  139.3620   79.5010  223.2330 C   0  0  0  0  0  0  0  0  0  0  0  0
  140.6690   79.9280  223.3640 C   0  0  0  0  0  0  0  0  0  0  0  0
  140.9080   81.1820  223.8940 C   0  0  0  0  0  0  0  0  0  0  0  0
  142.1970   81.6230  224.0320 C   0  0  0  0  0  0  0  0  0  0  0  0
  143.2480   80.8090  223.6380 C   0  0  0  0  0  0  0  0  0  0  0  0
  142.9750   79.5520  223.1080 C   0  0  0  0  0  0  0  0  0  0  0  0
  141.6880   79.0810  222.9570 C   0  0  0  0  0  0  0  0  0  0  0  0
  141.4260   77.8500  222.4370 N   0  0  0  0  0  0  0  0  0  0  0  0
  141.9310   75.6190  221.4620 H   0  0  0  0  0  0  0  0  0  0  0  0
  139.8212   73.4789  221.2245 H   0  0  0  0  0  0  0  0  0  0  0  0
  140.5962   74.0075  219.6852 H   0  0  0  0  0  0  0  0  0  0  0  0
  144.7167   72.1068  221.7162 H   0  0  0  0  0  0  0  0  0  0  0  0
  143.5671   71.0179  220.9671 H   0  0  0  0  0  0  0  0  0  0  0  0
  144.8777   71.0032  219.0415 H   0  0  0  0  0  0  0  0  0  0  0  0
  146.4980   71.8410  220.8380 H   0  0  0  0  0  0  0  0  0  0  0  0
  145.3302   73.6008  218.1786 H   0  0  0  0  0  0  0  0  0  0  0  0
  143.7587   72.9237  217.9704 H   0  0  0  0  0  0  0  0  0  0  0  0
  144.7540   74.5061  220.5877 H   0  0  0  0  0  0  0  0  0  0  0  0
  142.7100   76.4454  216.2922 H   0  0  0  0  0  0  0  0  0  0  0  0
  142.0111   78.4375  217.6182 H   0  0  0  0  0  0  0  0  0  0  0  0
  142.2596   78.3433  220.1159 H   0  0  0  0  0  0  0  0  0  0  0  0
  138.1198   77.9079  222.5960 H   0  0  0  0  0  0  0  0  0  0  0  0
  138.5189   80.1366  223.5414 H   0  0  0  0  0  0  0  0  0  0  0  0
  140.0681   81.8216  224.2030 H   0  0  0  0  0  0  0  0  0  0  0  0
  142.3978   82.6189  224.4537 H   0  0  0  0  0  0  0  0  0  0  0  0
  144.2873   81.1536  223.7434 H   0  0  0  0  0  0  0  0  0  0  0  0
  143.8146   78.9121  222.7989 H   0  0  0  0  0  0  0  0  0  0  0  0
  1  2  2  0
  2  3  1  0
  3  4  1  0
  4  5  1  0
  5  6  2  0
  5  7  1  0
  7  8  1  0
  8  9  1  0
  9 10  1  0
  9 11  1  0
 11 12  1  0
 12 13  1  0
 13 14  2  0
 14 15  1  0
 15 16  2  0
 16 17  1  0
 17 18  2  0
  2 19  1  0
 19 20  2  0
 20 21  1  0
 21 22  2  0
 22 23  1  0
 23 24  2  0
 24 25  1  0
 25 26  2  0
 26 27  1  0
 27 28  2  0
 12  7  1  0
 18 13  1  0
 28 19  1  0
 27 22  1  0
  3 29  1  0
  4 30  1  0
  4 31  1  0
  8 32  1  0
  8 33  1  0
  9 34  1  6
 10 35  1  0
 11 36  1  0
 11 37  1  0
 12 38  1  1
 15 39  1  0
 16 40  1  0
 17 41  1  0
 20 42  1  0
 21 43  1  0
 23 44  1  0
 24 45  1  0
 25 46  1  0
 26 47  1  0
M  END
>  <smiles>  (19) 
O=C(NCC(=O)N1C[C@H](O)C[C@H]1c1ncccn1)c1ccc2ccccc2n1

>  <score_type>  (19) 
oracle

>  <origin>  (19) 
autodockgpu

>  <m_score__min__energy>  (19) 
-8.4700000000000006

>  <m_primary>  (19) 
energy

>  <rmsd>  (19) 
7.555304141780752

>  <m_score__min__rmsd>  (19) 
7.555304141780752

>  <meeko>  (19) 
{"free_energy": -7.37, "intermolecular_energy": -9.16, "internal_energy": -2.63, "cluster_size": 40, "cluster_id": 3, "rank_in_cluster": 14}

>  <energy>  (19) 
-7.45

>  <cluster_rmsd>  (19) 
0.79

>  <cluster>  (19) 
3

$$$$

     RDKit          3D

 47 50  0  0  0  0  0  0  0  0999 V2000
  140.2240   71.2040  221.2330 O   0  0  0  0  0  0  0  0  0  0  0  0
  140.0120   71.9010  222.2550 C   0  0  0  0  0  0  0  0  0  0  0  0
  139.7460   73.2940  222.2280 N   0  0  0  0  0  0  0  0  0  0  0  0
  139.7010   74.0320  220.9500 C   0  0  0  0  0  0  0  0  0  0  0  0
  140.6870   75.1130  220.9520 C   0  0  0  0  0  0  0  0  0  0  0  0
  140.8630   75.6940  222.0970 O   0  0  0  0  0  0  0  0  0  0  0  0
  141.4690   75.6140  219.9090 N   0  0  0  0  0  0  0  0  0  0  0  0
  140.9530   76.7850  219.1210 C   0  0  0  0  0  0  0  0  0  0  0  0
  142.2090   77.5690  218.8080 C   0  0  2  0  0  0  0  0  0  0  0  0
  142.4210   77.6240  217.4170 O   0  0  0  0  0  0  0  0  0  0  0  0
  143.3500   76.7780  219.4080 C   0  0  0  0  0  0  0  0  0  0  0  0
  142.7350   75.3580  219.3070 C   0  0  1  0  0  0  0  0  0  0  0  0
  143.6240   74.3720  219.8930 C   0  0  0  0  0  0  0  0  0  0  0  0
  144.8240   74.8390  220.3860 N   0  0  0  0  0  0  0  0  0  0  0  0
  145.7420   74.0350  220.9280 C   0  0  0  0  0  0  0  0  0  0  0  0
  145.5190   72.6780  221.0190 C   0  0  0  0  0  0  0  0  0  0  0  0
  144.3240   72.1900  220.5320 C   0  0  0  0  0  0  0  0  0  0  0  0
  143.4490   73.0620  220.0000 N   0  0  0  0  0  0  0  0  0  0  0  0
  140.0420   71.2310  223.5680 C   0  0  0  0  0  0  0  0  0  0  0  0
  139.5680   69.9480  223.7250 C   0  0  0  0  0  0  0  0  0  0  0  0
  139.5630   69.2630  224.9100 C   0  0  0  0  0  0  0  0  0  0  0  0
  140.0700   69.9110  226.0190 C   0  0  0  0  0  0  0  0  0  0  0  0
  140.0770   69.2460  227.2320 C   0  0  0  0  0  0  0  0  0  0  0  0
  140.5760   69.8720  228.3420 C   0  0  0  0  0  0  0  0  0  0  0  0
  141.0660   71.1660  228.2420 C   0  0  0  0  0  0  0  0  0  0  0  0
  141.0440   71.8080  227.0080 C   0  0  0  0  0  0  0  0  0  0  0  0
  140.5490   71.2040  225.8720 C   0  0  0  0  0  0  0  0  0  0  0  0
  140.5290   71.8370  224.6670 N   0  0  0  0  0  0  0  0  0  0  0  0
  139.5800   73.8040  223.1320 H   0  0  0  0  0  0  0  0  0  0  0  0
  139.9226   73.3404  220.1238 H   0  0  0  0  0  0  0  0  0  0  0  0
  138.6974   74.4637  220.8217 H   0  0  0  0  0  0  0  0  0  0  0  0
  140.4555   76.4516  218.1983 H   0  0  0  0  0  0  0  0  0  0  0  0
  140.2002   77.3741  219.6652 H   0  0  0  0  0  0  0  0  0  0  0  0
  142.1323   78.5936  219.2009 H   0  0  0  0  0  0  0  0  0  0  0  0
  143.0880   78.3500  217.2000 H   0  0  0  0  0  0  0  0  0  0  0  0
  144.2731   76.8714  218.8170 H   0  0  0  0  0  0  0  0  0  0  0  0
  143.6644   77.0884  220.4154 H   0  0  0  0  0  0  0  0  0  0  0  0
  142.6009   74.8964  218.3176 H   0  0  0  0  0  0  0  0  0  0  0  0
  146.6842   74.4593  221.3051 H   0  0  0  0  0  0  0  0  0  0  0  0
  146.2681   72.0070  221.4646 H   0  0  0  0  0  0  0  0  0  0  0  0
  144.0928   71.1155  220.5776 H   0  0  0  0  0  0  0  0  0  0  0  0
  139.1656   69.4384  222.8371 H   0  0  0  0  0  0  0  0  0  0  0  0
  139.1708   68.2374  224.9763 H   0  0  0  0  0  0  0  0  0  0  0  0
  139.6842   68.2211  227.3039 H   0  0  0  0  0  0  0  0  0  0  0  0
  140.5885   69.3507  229.3105 H   0  0  0  0  0  0  0  0  0  0  0  0
  141.4674   71.6787  229.1286 H   0  0  0  0  0  0  0  0  0  0  0  0
  141.4353   72.8335  226.9362 H   0  0  0  0  0  0  0  0  0  0  0  0
  1  2  2  0
  2  3  1  0
  3  4  1  0
  4  5  1  0
  5  6  2  0
  5  7  1  0
  7  8  1  0
  8  9  1  0
  9 10  1  0
  9 11  1  0
 11 12  1  0
 12 13  1  0
 13 14  2  0
 14 15  1  0
 15 16  2  0
 16 17  1  0
 17 18  2  0
  2 19  1  0
 19 20  2  0
 20 21  1  0
 21 22  2  0
 22 23  1  0
 23 24  2  0
 24 25  1  0
 25 26  2  0
 26 27  1  0
 27 28  2  0
 12  7  1  0
 18 13  1  0
 28 19  1  0
 27 22  1  0
  3 29  1  0
  4 30  1  0
  4 31  1  0
  8 32  1  0
  8 33  1  0
  9 34  1  1
 10 35  1  0
 11 36  1  0
 11 37  1  0
 12 38  1  6
 15 39  1  0
 16 40  1  0
 17 41  1  0
 20 42  1  0
 21 43  1  0
 23 44  1  0
 24 45  1  0
 25 46  1  0
 26 47  1  0
M  END
>  <smiles>  (20) 
O=C(NCC(=O)N1C[C@H](O)C[C@H]1c1ncccn1)c1ccc2ccccc2n1

>  <score_type>  (20) 
oracle

>  <origin>  (20) 
autodockgpu

>  <m_score__min__energy>  (20) 
-8.4700000000000006

>  <m_primary>  (20) 
energy

>  <rmsd>  (20) 
3.692952339310399

>  <m_score__min__rmsd>  (20) 
3.692952339310399

>  <meeko>  (20) 
{"free_energy": -8.06, "intermolecular_energy": -9.85, "internal_energy": -1.77, "cluster_size": 4, "cluster_id": 2, "rank_in_cluster": 2}

>  <energy>  (20) 
-7.42

>  <cluster_rmsd>  (20) 
0.15

>  <cluster>  (20) 
3

$$$$

     RDKit          3D

 47 50  0  0  0  0  0  0  0  0999 V2000
  138.7110   75.1870  222.2490 O   0  0  0  0  0  0  0  0  0  0  0  0
  139.8880   75.6190  222.1940 C   0  0  0  0  0  0  0  0  0  0  0  0
  141.0160   74.8170  221.8820 N   0  0  0  0  0  0  0  0  0  0  0  0
  140.8670   73.3770  221.5940 C   0  0  0  0  0  0  0  0  0  0  0  0
  141.7140   72.9940  220.4640 C   0  0  0  0  0  0  0  0  0  0  0  0
  141.1030   72.3800  219.5030 O   0  0  0  0  0  0  0  0  0  0  0  0
  143.0830   73.1910  220.2640 N   0  0  0  0  0  0  0  0  0  0  0  0
  144.0150   72.0310  220.4720 C   0  0  0  0  0  0  0  0  0  0  0  0
  145.0710   72.2450  219.4110 C   0  0  2  0  0  0  0  0  0  0  0  0
  146.3310   72.4560  220.0060 O   0  0  0  0  0  0  0  0  0  0  0  0
  144.6890   73.5230  218.6980 C   0  0  0  0  0  0  0  0  0  0  0  0
  143.9630   74.2390  219.8660 C   0  0  1  0  0  0  0  0  0  0  0  0
  143.4160   75.5090  219.4260 C   0  0  0  0  0  0  0  0  0  0  0  0
  143.7050   75.8920  218.1330 N   0  0  0  0  0  0  0  0  0  0  0  0
  143.2840   77.0460  217.6120 C   0  0  0  0  0  0  0  0  0  0  0  0
  142.5280   77.9200  218.3640 C   0  0  0  0  0  0  0  0  0  0  0  0
  142.2270   77.5570  219.6600 C   0  0  0  0  0  0  0  0  0  0  0  0
  142.6860   76.3770  220.1140 N   0  0  0  0  0  0  0  0  0  0  0  0
  140.1140   77.0500  222.4690 C   0  0  0  0  0  0  0  0  0  0  0  0
  139.0640   77.9360  222.5440 C   0  0  0  0  0  0  0  0  0  0  0  0
  139.1970   79.2750  222.7960 C   0  0  0  0  0  0  0  0  0  0  0  0
  140.4750   79.7610  222.9860 C   0  0  0  0  0  0  0  0  0  0  0  0
  140.6430   81.1100  223.2410 C   0  0  0  0  0  0  0  0  0  0  0  0
  141.9020   81.6100  223.4330 C   0  0  0  0  0  0  0  0  0  0  0  0
  142.9970   80.7610  223.3670 C   0  0  0  0  0  0  0  0  0  0  0  0
  142.7960   79.4090  223.1080 C   0  0  0  0  0  0  0  0  0  0  0  0
  141.5400   78.8760  222.9110 C   0  0  0  0  0  0  0  0  0  0  0  0
  141.3490   77.5520  222.6580 N   0  0  0  0  0  0  0  0  0  0  0  0
  141.9700   75.2590  221.8570 H   0  0  0  0  0  0  0  0  0  0  0  0
  141.1618   72.7973  222.4811 H   0  0  0  0  0  0  0  0  0  0  0  0
  139.8169   73.1701  221.3399 H   0  0  0  0  0  0  0  0  0  0  0  0
  144.4566   72.0549  221.4792 H   0  0  0  0  0  0  0  0  0  0  0  0
  143.5145   71.0547  220.3932 H   0  0  0  0  0  0  0  0  0  0  0  0
  145.1291   71.3724  218.7437 H   0  0  0  0  0  0  0  0  0  0  0  0
  146.4080   71.9080  220.8510 H   0  0  0  0  0  0  0  0  0  0  0  0
  145.5707   74.0836  218.3539 H   0  0  0  0  0  0  0  0  0  0  0  0
  144.0984   73.3956  217.7788 H   0  0  0  0  0  0  0  0  0  0  0  0
  144.5463   74.5959  220.7276 H   0  0  0  0  0  0  0  0  0  0  0  0
  143.5422   77.3022  216.5739 H   0  0  0  0  0  0  0  0  0  0  0  0
  142.1769   78.8743  217.9445 H   0  0  0  0  0  0  0  0  0  0  0  0
  141.6272   78.2153  220.3056 H   0  0  0  0  0  0  0  0  0  0  0  0
  138.0486   77.5416  222.3911 H   0  0  0  0  0  0  0  0  0  0  0  0
  138.3202   79.9374  222.8452 H   0  0  0  0  0  0  0  0  0  0  0  0
  139.7696   81.7769  223.2892 H   0  0  0  0  0  0  0  0  0  0  0  0
  142.0453   82.6810  223.6389 H   0  0  0  0  0  0  0  0  0  0  0  0
  144.0137   81.1527  223.5179 H   0  0  0  0  0  0  0  0  0  0  0  0
  143.6695   78.7422  223.0587 H   0  0  0  0  0  0  0  0  0  0  0  0
  1  2  2  0
  2  3  1  0
  3  4  1  0
  4  5  1  0
  5  6  2  0
  5  7  1  0
  7  8  1  0
  8  9  1  0
  9 10  1  0
  9 11  1  0
 11 12  1  0
 12 13  1  0
 13 14  2  0
 14 15  1  0
 15 16  2  0
 16 17  1  0
 17 18  2  0
  2 19  1  0
 19 20  2  0
 20 21  1  0
 21 22  2  0
 22 23  1  0
 23 24  2  0
 24 25  1  0
 25 26  2  0
 26 27  1  0
 27 28  2  0
 12  7  1  0
 18 13  1  0
 28 19  1  0
 27 22  1  0
  3 29  1  0
  4 30  1  0
  4 31  1  0
  8 32  1  0
  8 33  1  0
  9 34  1  6
 10 35  1  0
 11 36  1  0
 11 37  1  0
 12 38  1  1
 15 39  1  0
 16 40  1  0
 17 41  1  0
 20 42  1  0
 21 43  1  0
 23 44  1  0
 24 45  1  0
 25 46  1  0
 26 47  1  0
M  END
>  <smiles>  (21) 
O=C(NCC(=O)N1C[C@H](O)C[C@H]1c1ncccn1)c1ccc2ccccc2n1

>  <score_type>  (21) 
oracle

>  <origin>  (21) 
autodockgpu

>  <m_score__min__energy>  (21) 
-8.4700000000000006

>  <m_primary>  (21) 
energy

>  <rmsd>  (21) 
7.438943319980853

>  <m_score__min__rmsd>  (21) 
7.438943319980853

>  <meeko>  (21) 
{"free_energy": -7.27, "intermolecular_energy": -9.06, "internal_energy": -2.73, "cluster_size": 40, "cluster_id": 3, "rank_in_cluster": 23}

>  <energy>  (21) 
-7.41

>  <cluster_rmsd>  (21) 
0.75

>  <cluster>  (21) 
3

$$$$

     RDKit          3D

 47 50  0  0  0  0  0  0  0  0999 V2000
  138.7790   75.2480  222.2190 O   0  0  0  0  0  0  0  0  0  0  0  0
  139.9520   75.6920  222.1890 C   0  0  0  0  0  0  0  0  0  0  0  0
  141.0920   74.9050  221.8850 N   0  0  0  0  0  0  0  0  0  0  0  0
  140.9620   73.4680  221.5740 C   0  0  0  0  0  0  0  0  0  0  0  0
  141.7410   73.1330  220.3820 C   0  0  0  0  0  0  0  0  0  0  0  0
  141.0520   72.6690  219.3880 O   0  0  0  0  0  0  0  0  0  0  0  0
  143.1150   73.2360  220.1510 N   0  0  0  0  0  0  0  0  0  0  0  0
  143.9820   72.0370  220.4140 C   0  0  0  0  0  0  0  0  0  0  0  0
  145.0300   72.1260  219.3280 C   0  0  2  0  0  0  0  0  0  0  0  0
  146.3100   72.2970  219.8920 O   0  0  0  0  0  0  0  0  0  0  0  0
  144.7100   73.3810  218.5460 C   0  0  0  0  0  0  0  0  0  0  0  0
  144.0470   74.2060  219.6810 C   0  0  1  0  0  0  0  0  0  0  0  0
  143.5680   75.4780  219.1750 C   0  0  0  0  0  0  0  0  0  0  0  0
  142.8540   76.2640  220.0540 N   0  0  0  0  0  0  0  0  0  0  0  0
  142.3360   77.4450  219.7090 C   0  0  0  0  0  0  0  0  0  0  0  0
  142.5000   77.9350  218.4310 C   0  0  0  0  0  0  0  0  0  0  0  0
  143.2120   77.1650  217.5350 C   0  0  0  0  0  0  0  0  0  0  0  0
  143.7030   75.9870  217.9570 N   0  0  0  0  0  0  0  0  0  0  0  0
  140.1600   77.1210  222.4880 C   0  0  0  0  0  0  0  0  0  0  0  0
  139.0970   77.9860  222.6110 C   0  0  0  0  0  0  0  0  0  0  0  0
  139.2130   79.3210  222.8880 C   0  0  0  0  0  0  0  0  0  0  0  0
  140.4870   79.8270  223.0520 C   0  0  0  0  0  0  0  0  0  0  0  0
  140.6370   81.1730  223.3310 C   0  0  0  0  0  0  0  0  0  0  0  0
  141.8920   81.6920  223.4980 C   0  0  0  0  0  0  0  0  0  0  0  0
  143.0000   80.8660  223.3830 C   0  0  0  0  0  0  0  0  0  0  0  0
  142.8160   79.5160  223.1020 C   0  0  0  0  0  0  0  0  0  0  0  0
  141.5640   78.9640  222.9290 C   0  0  0  0  0  0  0  0  0  0  0  0
  141.3900   77.6420  222.6530 N   0  0  0  0  0  0  0  0  0  0  0  0
  142.0420   75.3560  221.8810 H   0  0  0  0  0  0  0  0  0  0  0  0
  141.3307   72.8778  222.4259 H   0  0  0  0  0  0  0  0  0  0  0  0
  139.9031   73.2376  221.3853 H   0  0  0  0  0  0  0  0  0  0  0  0
  144.4417   72.0934  221.4118 H   0  0  0  0  0  0  0  0  0  0  0  0
  143.4243   71.0890  220.3997 H   0  0  0  0  0  0  0  0  0  0  0  0
  145.0263   71.2141  218.7129 H   0  0  0  0  0  0  0  0  0  0  0  0
  146.3300   71.9030  220.8220 H   0  0  0  0  0  0  0  0  0  0  0  0
  145.6164   73.8677  218.1567 H   0  0  0  0  0  0  0  0  0  0  0  0
  144.0968   73.2353  217.6445 H   0  0  0  0  0  0  0  0  0  0  0  0
  144.6642   74.5775  220.5123 H   0  0  0  0  0  0  0  0  0  0  0  0
  141.7738   78.0318  220.4504 H   0  0  0  0  0  0  0  0  0  0  0  0
  142.0775   78.9068  218.1358 H   0  0  0  0  0  0  0  0  0  0  0  0
  143.3738   77.5061  216.5018 H   0  0  0  0  0  0  0  0  0  0  0  0
  138.0849   77.5764  222.4775 H   0  0  0  0  0  0  0  0  0  0  0  0
  138.3261   79.9656  222.9765 H   0  0  0  0  0  0  0  0  0  0  0  0
  139.7533   81.8222  223.4181 H   0  0  0  0  0  0  0  0  0  0  0  0
  142.0216   82.7610  223.7228 H   0  0  0  0  0  0  0  0  0  0  0  0
  144.0134   81.2738  223.5125 H   0  0  0  0  0  0  0  0  0  0  0  0
  143.6995   78.8665  223.0148 H   0  0  0  0  0  0  0  0  0  0  0  0
  1  2  2  0
  2  3  1  0
  3  4  1  0
  4  5  1  0
  5  6  2  0
  5  7  1  0
  7  8  1  0
  8  9  1  0
  9 10  1  0
  9 11  1  0
 11 12  1  0
 12 13  1  0
 13 14  2  0
 14 15  1  0
 15 16  2  0
 16 17  1  0
 17 18  2  0
  2 19  1  0
 19 20  2  0
 20 21  1  0
 21 22  2  0
 22 23  1  0
 23 24  2  0
 24 25  1  0
 25 26  2  0
 26 27  1  0
 27 28  2  0
 12  7  1  0
 18 13  1  0
 28 19  1  0
 27 22  1  0
  3 29  1  0
  4 30  1  0
  4 31  1  0
  8 32  1  0
  8 33  1  0
  9 34  1  6
 10 35  1  0
 11 36  1  0
 11 37  1  0
 12 38  1  1
 15 39  1  0
 16 40  1  0
 17 41  1  0
 20 42  1  0
 21 43  1  0
 23 44  1  0
 24 45  1  0
 25 46  1  0
 26 47  1  0
M  END
>  <smiles>  (22) 
O=C(NCC(=O)N1C[C@H](O)C[C@H]1c1ncccn1)c1ccc2ccccc2n1

>  <score_type>  (22) 
oracle

>  <origin>  (22) 
autodockgpu

>  <m_score__min__energy>  (22) 
-8.4700000000000006

>  <m_primary>  (22) 
energy

>  <rmsd>  (22) 
7.410124974734393

>  <m_score__min__rmsd>  (22) 
7.410124974734393

>  <meeko>  (22) 
{"free_energy": -7.32, "intermolecular_energy": -9.11, "internal_energy": -2.69, "cluster_size": 40, "cluster_id": 3, "rank_in_cluster": 20}

>  <energy>  (22) 
-7.38

>  <cluster_rmsd>  (22) 
0.18

>  <cluster>  (22) 
3

$$$$

     RDKit          3D

 47 50  0  0  0  0  0  0  0  0999 V2000
  139.5720   74.5610  222.7120 O   0  0  0  0  0  0  0  0  0  0  0  0
  140.1040   75.3510  221.8960 C   0  0  0  0  0  0  0  0  0  0  0  0
  140.6370   74.9600  220.6420 N   0  0  0  0  0  0  0  0  0  0  0  0
  140.5960   73.5500  220.2070 C   0  0  0  0  0  0  0  0  0  0  0  0
  141.9010   72.9180  220.4070 C   0  0  0  0  0  0  0  0  0  0  0  0
  141.8750   71.7950  221.0500 O   0  0  0  0  0  0  0  0  0  0  0  0
  143.1720   73.3420  220.0100 N   0  0  0  0  0  0  0  0  0  0  0  0
  144.3210   72.3810  220.1270 C   0  0  0  0  0  0  0  0  0  0  0  0
  145.1710   72.7130  218.9220 C   0  0  2  0  0  0  0  0  0  0  0  0
  146.4370   73.1810  219.3260 O   0  0  0  0  0  0  0  0  0  0  0  0
  144.4700   73.8570  218.2230 C   0  0  0  0  0  0  0  0  0  0  0  0
  143.7840   74.5030  219.4550 C   0  0  1  0  0  0  0  0  0  0  0  0
  142.9590   75.6270  219.0500 C   0  0  0  0  0  0  0  0  0  0  0  0
  143.0030   76.7460  219.8530 N   0  0  0  0  0  0  0  0  0  0  0  0
  142.2760   77.8390  219.6070 C   0  0  0  0  0  0  0  0  0  0  0  0
  141.4350   77.8890  218.5160 C   0  0  0  0  0  0  0  0  0  0  0  0
  141.3760   76.7790  217.6990 C   0  0  0  0  0  0  0  0  0  0  0  0
  142.1390   75.7170  218.0120 N   0  0  0  0  0  0  0  0  0  0  0  0
  140.1800   76.7780  222.2620 C   0  0  0  0  0  0  0  0  0  0  0  0
  139.0430   77.5430  222.3870 C   0  0  0  0  0  0  0  0  0  0  0  0
  139.0350   78.8700  222.7230 C   0  0  0  0  0  0  0  0  0  0  0  0
  140.2560   79.4740  222.9510 C   0  0  0  0  0  0  0  0  0  0  0  0
  140.2810   80.8140  223.2920 C   0  0  0  0  0  0  0  0  0  0  0  0
  141.4820   81.4290  223.5220 C   0  0  0  0  0  0  0  0  0  0  0  0
  142.6600   80.7060  223.4090 C   0  0  0  0  0  0  0  0  0  0  0  0
  142.6000   79.3590  223.0650 C   0  0  0  0  0  0  0  0  0  0  0  0
  141.4070   78.7110  222.8270 C   0  0  0  0  0  0  0  0  0  0  0  0
  141.3550   77.3930  222.4900 N   0  0  0  0  0  0  0  0  0  0  0  0
  141.0670   75.6870  220.0160 H   0  0  0  0  0  0  0  0  0  0  0  0
  139.8381   73.0110  220.7944 H   0  0  0  0  0  0  0  0  0  0  0  0
  140.3409   73.5130  219.1376 H   0  0  0  0  0  0  0  0  0  0  0  0
  144.8789   72.5447  221.0608 H   0  0  0  0  0  0  0  0  0  0  0  0
  144.0027   71.3284  220.1543 H   0  0  0  0  0  0  0  0  0  0  0  0
  145.3010   71.8248  218.2862 H   0  0  0  0  0  0  0  0  0  0  0  0
  146.4610   74.1890  219.2840 H   0  0  0  0  0  0  0  0  0  0  0  0
  145.1805   74.5430  217.7386 H   0  0  0  0  0  0  0  0  0  0  0  0
  143.7978   73.5709  217.4007 H   0  0  0  0  0  0  0  0  0  0  0  0
  144.3996   75.0096  220.2129 H   0  0  0  0  0  0  0  0  0  0  0  0
  142.3489   78.7059  220.2801 H   0  0  0  0  0  0  0  0  0  0  0  0
  140.8313   78.7838  218.3040 H   0  0  0  0  0  0  0  0  0  0  0  0
  140.7220   76.7631  216.8147 H   0  0  0  0  0  0  0  0  0  0  0  0
  138.0743   77.0548  222.2044 H   0  0  0  0  0  0  0  0  0  0  0  0
  138.0937   79.4328  222.8080 H   0  0  0  0  0  0  0  0  0  0  0  0
  139.3426   81.3815  223.3778 H   0  0  0  0  0  0  0  0  0  0  0  0
  141.5127   82.4939  223.7958 H   0  0  0  0  0  0  0  0  0  0  0  0
  143.6304   81.1916  223.5892 H   0  0  0  0  0  0  0  0  0  0  0  0
  143.5382   78.7910  222.9800 H   0  0  0  0  0  0  0  0  0  0  0  0
  1  2  2  0
  2  3  1  0
  3  4  1  0
  4  5  1  0
  5  6  2  0
  5  7  1  0
  7  8  1  0
  8  9  1  0
  9 10  1  0
  9 11  1  0
 11 12  1  0
 12 13  1  0
 13 14  2  0
 14 15  1  0
 15 16  2  0
 16 17  1  0
 17 18  2  0
  2 19  1  0
 19 20  2  0
 20 21  1  0
 21 22  2  0
 22 23  1  0
 23 24  2  0
 24 25  1  0
 25 26  2  0
 26 27  1  0
 27 28  2  0
 12  7  1  0
 18 13  1  0
 28 19  1  0
 27 22  1  0
  3 29  1  0
  4 30  1  0
  4 31  1  0
  8 32  1  0
  8 33  1  0
  9 34  1  6
 10 35  1  0
 11 36  1  0
 11 37  1  0
 12 38  1  1
 15 39  1  0
 16 40  1  0
 17 41  1  0
 20 42  1  0
 21 43  1  0
 23 44  1  0
 24 45  1  0
 25 46  1  0
 26 47  1  0
M  END
>  <smiles>  (23) 
O=C(NCC(=O)N1C[C@H](O)C[C@H]1c1ncccn1)c1ccc2ccccc2n1

>  <score_type>  (23) 
oracle

>  <origin>  (23) 
autodockgpu

>  <m_score__min__energy>  (23) 
-8.4700000000000006

>  <m_primary>  (23) 
energy

>  <rmsd>  (23) 
7.17925850836574

>  <m_score__min__rmsd>  (23) 
7.17925850836574

>  <meeko>  (23) 
{"free_energy": -6.95, "intermolecular_energy": -8.74, "internal_energy": -3.04, "cluster_size": 40, "cluster_id": 3, "rank_in_cluster": 34}

>  <energy>  (23) 
-7.37

>  <cluster_rmsd>  (23) 
1.02

>  <cluster>  (23) 
3

$$$$

     RDKit          3D

 47 50  0  0  0  0  0  0  0  0999 V2000
  140.8510   71.4440  221.3740 O   0  0  0  0  0  0  0  0  0  0  0  0
  140.3580   72.0670  222.3440 C   0  0  0  0  0  0  0  0  0  0  0  0
  139.9680   73.4300  222.3000 N   0  0  0  0  0  0  0  0  0  0  0  0
  140.1260   74.2240  221.0660 C   0  0  0  0  0  0  0  0  0  0  0  0
  140.5270   75.5940  221.3910 C   0  0  0  0  0  0  0  0  0  0  0  0
  140.0540   76.0550  222.5040 O   0  0  0  0  0  0  0  0  0  0  0  0
  141.3440   76.4800  220.6830 N   0  0  0  0  0  0  0  0  0  0  0  0
  141.9360   76.0280  219.3780 C   0  0  0  0  0  0  0  0  0  0  0  0
  141.9260   77.2880  218.5420 C   0  0  2  0  0  0  0  0  0  0  0  0
  143.2410   77.6630  218.2020 O   0  0  0  0  0  0  0  0  0  0  0  0
  141.3640   78.3730  219.4340 C   0  0  0  0  0  0  0  0  0  0  0  0
  141.8260   77.8150  220.8060 C   0  0  1  0  0  0  0  0  0  0  0  0
  141.3460   78.6560  221.8870 C   0  0  0  0  0  0  0  0  0  0  0  0
  139.9850   78.8640  221.9520 N   0  0  0  0  0  0  0  0  0  0  0  0
  139.4160   79.6350  222.8810 C   0  0  0  0  0  0  0  0  0  0  0  0
  140.1870   80.2680  223.8330 C   0  0  0  0  0  0  0  0  0  0  0  0
  141.5520   80.0740  223.7870 C   0  0  0  0  0  0  0  0  0  0  0  0
  142.0500   79.2820  222.8210 N   0  0  0  0  0  0  0  0  0  0  0  0
  140.1690   71.3370  223.6120 C   0  0  0  0  0  0  0  0  0  0  0  0
  139.5120   70.1280  223.6480 C   0  0  0  0  0  0  0  0  0  0  0  0
  139.3000   69.3960  224.7850 C   0  0  0  0  0  0  0  0  0  0  0  0
  139.7810   69.9110  225.9710 C   0  0  0  0  0  0  0  0  0  0  0  0
  139.5820   69.1950  227.1370 C   0  0  0  0  0  0  0  0  0  0  0  0
  140.0520   69.6900  228.3230 C   0  0  0  0  0  0  0  0  0  0  0  0
  140.7210   70.9050  228.3450 C   0  0  0  0  0  0  0  0  0  0  0  0
  140.9060   71.6020  227.1550 C   0  0  0  0  0  0  0  0  0  0  0  0
  140.4440   71.1290  225.9450 C   0  0  0  0  0  0  0  0  0  0  0  0
  140.6260   71.8150  224.7840 N   0  0  0  0  0  0  0  0  0  0  0  0
  139.5620   73.8780  223.1610 H   0  0  0  0  0  0  0  0  0  0  0  0
  140.8970   73.7608  220.4327 H   0  0  0  0  0  0  0  0  0  0  0  0
  139.1649   74.2498  220.5316 H   0  0  0  0  0  0  0  0  0  0  0  0
  142.9613   75.6550  219.5177 H   0  0  0  0  0  0  0  0  0  0  0  0
  141.3812   75.1982  218.9159 H   0  0  0  0  0  0  0  0  0  0  0  0
  141.3449   77.1346  217.6207 H   0  0  0  0  0  0  0  0  0  0  0  0
  143.7550   77.9070  219.0360 H   0  0  0  0  0  0  0  0  0  0  0  0
  141.8066   79.3565  219.2176 H   0  0  0  0  0  0  0  0  0  0  0  0
  140.2840   78.5572  219.3353 H   0  0  0  0  0  0  0  0  0  0  0  0
  142.8972   77.8127  221.0561 H   0  0  0  0  0  0  0  0  0  0  0  0
  138.3239   79.7665  222.8873 H   0  0  0  0  0  0  0  0  0  0  0  0
  139.7290   80.9061  224.6031 H   0  0  0  0  0  0  0  0  0  0  0  0
  142.2156   80.5544  224.5211 H   0  0  0  0  0  0  0  0  0  0  0  0
  139.1316   69.7227  222.6988 H   0  0  0  0  0  0  0  0  0  0  0  0
  138.7668   68.4344  224.7543 H   0  0  0  0  0  0  0  0  0  0  0  0
  139.0490   68.2331  227.1114 H   0  0  0  0  0  0  0  0  0  0  0  0
  139.8999   69.1266  229.2554 H   0  0  0  0  0  0  0  0  0  0  0  0
  141.1012   71.3131  229.2931 H   0  0  0  0  0  0  0  0  0  0  0  0
  141.4393   72.5637  227.1804 H   0  0  0  0  0  0  0  0  0  0  0  0
  1  2  2  0
  2  3  1  0
  3  4  1  0
  4  5  1  0
  5  6  2  0
  5  7  1  0
  7  8  1  0
  8  9  1  0
  9 10  1  0
  9 11  1  0
 11 12  1  0
 12 13  1  0
 13 14  2  0
 14 15  1  0
 15 16  2  0
 16 17  1  0
 17 18  2  0
  2 19  1  0
 19 20  2  0
 20 21  1  0
 21 22  2  0
 22 23  1  0
 23 24  2  0
 24 25  1  0
 25 26  2  0
 26 27  1  0
 27 28  2  0
 12  7  1  0
 18 13  1  0
 28 19  1  0
 27 22  1  0
  3 29  1  0
  4 30  1  0
  4 31  1  0
  8 32  1  0
  8 33  1  0
  9 34  1  6
 10 35  1  0
 11 36  1  0
 11 37  1  0
 12 38  1  6
 15 39  1  0
 16 40  1  0
 17 41  1  0
 20 42  1  0
 21 43  1  0
 23 44  1  0
 24 45  1  0
 25 46  1  0
 26 47  1  0
M  END
>  <smiles>  (24) 
O=C(NCC(=O)N1C[C@H](O)C[C@H]1c1ncccn1)c1ccc2ccccc2n1

>  <score_type>  (24) 
oracle

>  <origin>  (24) 
autodockgpu

>  <m_score__min__energy>  (24) 
-8.4700000000000006

>  <m_primary>  (24) 
energy

>  <rmsd>  (24) 
1.970188936109721

>  <m_score__min__rmsd>  (24) 
1.970188936109721

>  <meeko>  (24) 
{"free_energy": -8.36, "intermolecular_energy": -10.15, "internal_energy": -1.65, "cluster_size": 5, "cluster_id": 1, "rank_in_cluster": 3}

>  <energy>  (24) 
-7.36

>  <cluster_rmsd>  (24) 
0.71

>  <cluster>  (24) 
3

$$$$

     RDKit          3D

 47 50  0  0  0  0  0  0  0  0999 V2000
  140.1510   70.7940  221.2610 O   0  0  0  0  0  0  0  0  0  0  0  0
  139.9880   71.5290  222.2650 C   0  0  0  0  0  0  0  0  0  0  0  0
  139.8190   72.9360  222.2030 N   0  0  0  0  0  0  0  0  0  0  0  0
  139.8240   73.6440  220.9080 C   0  0  0  0  0  0  0  0  0  0  0  0
  140.6300   74.8620  220.9980 C   0  0  0  0  0  0  0  0  0  0  0  0
  140.6190   75.4430  222.1550 O   0  0  0  0  0  0  0  0  0  0  0  0
  141.4100   75.4940  220.0260 N   0  0  0  0  0  0  0  0  0  0  0  0
  140.8560   76.7080  219.3350 C   0  0  0  0  0  0  0  0  0  0  0  0
  142.0780   77.5740  219.1310 C   0  0  2  0  0  0  0  0  0  0  0  0
  142.3190   77.7690  217.7560 O   0  0  0  0  0  0  0  0  0  0  0  0
  143.2430   76.7850  219.6860 C   0  0  0  0  0  0  0  0  0  0  0  0
  142.7000   75.3530  219.4370 C   0  0  1  0  0  0  0  0  0  0  0  0
  143.6230   74.3600  219.9550 C   0  0  0  0  0  0  0  0  0  0  0  0
  144.8270   74.8260  220.4360 N   0  0  0  0  0  0  0  0  0  0  0  0
  145.7730   74.0170  220.9170 C   0  0  0  0  0  0  0  0  0  0  0  0
  145.5770   72.6530  220.9510 C   0  0  0  0  0  0  0  0  0  0  0  0
  144.3790   72.1640  220.4740 C   0  0  0  0  0  0  0  0  0  0  0  0
  143.4750   73.0430  220.0060 N   0  0  0  0  0  0  0  0  0  0  0  0
  139.9710   70.8910  223.5950 C   0  0  0  0  0  0  0  0  0  0  0  0
  139.4730   69.6190  223.7690 C   0  0  0  0  0  0  0  0  0  0  0  0
  139.4260   68.9650  224.9700 C   0  0  0  0  0  0  0  0  0  0  0  0
  139.9110   69.6320  226.0770 C   0  0  0  0  0  0  0  0  0  0  0  0
  139.8760   68.9970  227.3040 C   0  0  0  0  0  0  0  0  0  0  0  0
  140.3530   69.6430  228.4130 C   0  0  0  0  0  0  0  0  0  0  0  0
  140.8650   70.9260  228.2950 C   0  0  0  0  0  0  0  0  0  0  0  0
  140.8870   71.5380  227.0460 C   0  0  0  0  0  0  0  0  0  0  0  0
  140.4140   70.9130  225.9110 C   0  0  0  0  0  0  0  0  0  0  0  0
  140.4370   71.5170  224.6910 N   0  0  0  0  0  0  0  0  0  0  0  0
  139.6890   73.4780  223.0940 H   0  0  0  0  0  0  0  0  0  0  0  0
  140.2475   72.9849  220.1358 H   0  0  0  0  0  0  0  0  0  0  0  0
  138.7912   73.9170  220.6456 H   0  0  0  0  0  0  0  0  0  0  0  0
  140.3972   76.4393  218.3720 H   0  0  0  0  0  0  0  0  0  0  0  0
  140.0626   77.2083  219.9097 H   0  0  0  0  0  0  0  0  0  0  0  0
  141.9422   78.5522  219.6155 H   0  0  0  0  0  0  0  0  0  0  0  0
  143.0930   78.4060  217.6300 H   0  0  0  0  0  0  0  0  0  0  0  0
  144.1735   76.9764  219.1314 H   0  0  0  0  0  0  0  0  0  0  0  0
  143.5195   77.0140  220.7258 H   0  0  0  0  0  0  0  0  0  0  0  0
  142.6106   74.9791  218.4064 H   0  0  0  0  0  0  0  0  0  0  0  0
  146.7168   74.4420  221.2894 H   0  0  0  0  0  0  0  0  0  0  0  0
  146.3502   71.9772  221.3454 H   0  0  0  0  0  0  0  0  0  0  0  0
  144.1685   71.0843  220.4762 H   0  0  0  0  0  0  0  0  0  0  0  0
  139.0871   69.0934  222.8831 H   0  0  0  0  0  0  0  0  0  0  0  0
  139.0174   67.9468  225.0503 H   0  0  0  0  0  0  0  0  0  0  0  0
  139.4676   67.9792  227.3891 H   0  0  0  0  0  0  0  0  0  0  0  0
  140.3301   69.1459  229.3940 H   0  0  0  0  0  0  0  0  0  0  0  0
  141.2498   71.4544  229.1797 H   0  0  0  0  0  0  0  0  0  0  0  0
  141.2958   72.5557  226.9605 H   0  0  0  0  0  0  0  0  0  0  0  0
  1  2  2  0
  2  3  1  0
  3  4  1  0
  4  5  1  0
  5  6  2  0
  5  7  1  0
  7  8  1  0
  8  9  1  0
  9 10  1  0
  9 11  1  0
 11 12  1  0
 12 13  1  0
 13 14  2  0
 14 15  1  0
 15 16  2  0
 16 17  1  0
 17 18  2  0
  2 19  1  0
 19 20  2  0
 20 21  1  0
 21 22  2  0
 22 23  1  0
 23 24  2  0
 24 25  1  0
 25 26  2  0
 26 27  1  0
 27 28  2  0
 12  7  1  0
 18 13  1  0
 28 19  1  0
 27 22  1  0
  3 29  1  0
  4 30  1  0
  4 31  1  0
  8 32  1  0
  8 33  1  0
  9 34  1  1
 10 35  1  0
 11 36  1  0
 11 37  1  0
 12 38  1  6
 15 39  1  0
 16 40  1  0
 17 41  1  0
 20 42  1  0
 21 43  1  0
 23 44  1  0
 24 45  1  0
 25 46  1  0
 26 47  1  0
M  END
>  <smiles>  (25) 
O=C(NCC(=O)N1C[C@H](O)C[C@H]1c1ncccn1)c1ccc2ccccc2n1

>  <score_type>  (25) 
oracle

>  <origin>  (25) 
autodockgpu

>  <m_score__min__energy>  (25) 
-8.4700000000000006

>  <m_primary>  (25) 
energy

>  <rmsd>  (25) 
3.6907427686183794

>  <m_score__min__rmsd>  (25) 
3.6907427686183794

>  <meeko>  (25) 
{"free_energy": -7.86, "intermolecular_energy": -9.65, "internal_energy": -1.87, "cluster_size": 4, "cluster_id": 2, "rank_in_cluster": 4}

>  <energy>  (25) 
-7.36

>  <cluster_rmsd>  (25) 
0.7

>  <cluster>  (25) 
3

$$$$

     RDKit          3D

 47 50  0  0  0  0  0  0  0  0999 V2000
  138.7990   75.4560  221.9100 O   0  0  0  0  0  0  0  0  0  0  0  0
  139.9800   75.8800  221.9120 C   0  0  0  0  0  0  0  0  0  0  0  0
  141.0970   75.1240  221.4750 N   0  0  0  0  0  0  0  0  0  0  0  0
  140.9310   73.7450  220.9740 C   0  0  0  0  0  0  0  0  0  0  0  0
  142.2240   73.0600  220.9350 C   0  0  0  0  0  0  0  0  0  0  0  0
  142.2470   71.9000  221.5100 O   0  0  0  0  0  0  0  0  0  0  0  0
  143.4360   73.4650  220.3720 N   0  0  0  0  0  0  0  0  0  0  0  0
  144.6270   72.5560  220.4950 C   0  0  0  0  0  0  0  0  0  0  0  0
  145.3510   72.7600  219.1830 C   0  0  2  0  0  0  0  0  0  0  0  0
  146.6300   73.3070  219.4070 O   0  0  0  0  0  0  0  0  0  0  0  0
  144.5470   73.7890  218.4210 C   0  0  0  0  0  0  0  0  0  0  0  0
  143.9500   74.5640  219.6250 C   0  0  1  0  0  0  0  0  0  0  0  0
  143.0510   75.6070  219.1670 C   0  0  0  0  0  0  0  0  0  0  0  0
  142.9750   76.7430  219.9430 N   0  0  0  0  0  0  0  0  0  0  0  0
  142.1700   77.7660  219.6480 C   0  0  0  0  0  0  0  0  0  0  0  0
  141.3640   77.7230  218.5310 C   0  0  0  0  0  0  0  0  0  0  0  0
  141.4240   76.5950  217.7390 C   0  0  0  0  0  0  0  0  0  0  0  0
  142.2610   75.6060  218.1020 N   0  0  0  0  0  0  0  0  0  0  0  0
  140.2230   77.2510  222.3990 C   0  0  0  0  0  0  0  0  0  0  0  0
  139.1810   78.0780  222.7510 C   0  0  0  0  0  0  0  0  0  0  0  0
  139.3300   79.3590  223.2100 C   0  0  0  0  0  0  0  0  0  0  0  0
  140.6170   79.8460  223.3260 C   0  0  0  0  0  0  0  0  0  0  0  0
  140.8000   81.1370  223.7860 C   0  0  0  0  0  0  0  0  0  0  0  0
  142.0680   81.6370  223.9080 C   0  0  0  0  0  0  0  0  0  0  0  0
  143.1550   80.8470  223.5660 C   0  0  0  0  0  0  0  0  0  0  0  0
  142.9380   79.5520  223.1060 C   0  0  0  0  0  0  0  0  0  0  0  0
  141.6730   79.0200  222.9730 C   0  0  0  0  0  0  0  0  0  0  0  0
  141.4660   77.7530  222.5220 N   0  0  0  0  0  0  0  0  0  0  0  0
  142.0560   75.5550  221.5110 H   0  0  0  0  0  0  0  0  0  0  0  0
  140.2495   73.1962  221.6406 H   0  0  0  0  0  0  0  0  0  0  0  0
  140.5144   73.7815  219.9566 H   0  0  0  0  0  0  0  0  0  0  0  0
  145.2607   72.8483  221.3453 H   0  0  0  0  0  0  0  0  0  0  0  0
  144.3530   71.5067  220.6791 H   0  0  0  0  0  0  0  0  0  0  0  0
  145.4561   71.8044  218.6484 H   0  0  0  0  0  0  0  0  0  0  0  0
  146.5850   74.3150  219.3620 H   0  0  0  0  0  0  0  0  0  0  0  0
  145.1842   74.4288  217.7928 H   0  0  0  0  0  0  0  0  0  0  0  0
  143.8149   73.3852  217.7062 H   0  0  0  0  0  0  0  0  0  0  0  0
  144.6111   75.1771  220.2550 H   0  0  0  0  0  0  0  0  0  0  0  0
  142.1498   78.6505  220.3017 H   0  0  0  0  0  0  0  0  0  0  0  0
  140.6956   78.5596  218.2795 H   0  0  0  0  0  0  0  0  0  0  0  0
  140.8040   76.5065  216.8347 H   0  0  0  0  0  0  0  0  0  0  0  0
  138.1587   77.6828  222.6572 H   0  0  0  0  0  0  0  0  0  0  0  0
  138.4590   79.9760  223.4759 H   0  0  0  0  0  0  0  0  0  0  0  0
  139.9320   81.7581  224.0521 H   0  0  0  0  0  0  0  0  0  0  0  0
  142.2243   82.6618  224.2760 H   0  0  0  0  0  0  0  0  0  0  0  0
  144.1783   81.2401  223.6574 H   0  0  0  0  0  0  0  0  0  0  0  0
  143.8058   78.9310  222.8392 H   0  0  0  0  0  0  0  0  0  0  0  0
  1  2  2  0
  2  3  1  0
  3  4  1  0
  4  5  1  0
  5  6  2  0
  5  7  1  0
  7  8  1  0
  8  9  1  0
  9 10  1  0
  9 11  1  0
 11 12  1  0
 12 13  1  0
 13 14  2  0
 14 15  1  0
 15 16  2  0
 16 17  1  0
 17 18  2  0
  2 19  1  0
 19 20  2  0
 20 21  1  0
 21 22  2  0
 22 23  1  0
 23 24  2  0
 24 25  1  0
 25 26  2  0
 26 27  1  0
 27 28  2  0
 12  7  1  0
 18 13  1  0
 28 19  1  0
 27 22  1  0
  3 29  1  0
  4 30  1  0
  4 31  1  0
  8 32  1  0
  8 33  1  0
  9 34  1  6
 10 35  1  0
 11 36  1  0
 11 37  1  0
 12 38  1  1
 15 39  1  0
 16 40  1  0
 17 41  1  0
 20 42  1  0
 21 43  1  0
 23 44  1  0
 24 45  1  0
 25 46  1  0
 26 47  1  0
M  END
>  <smiles>  (26) 
O=C(NCC(=O)N1C[C@H](O)C[C@H]1c1ncccn1)c1ccc2ccccc2n1

>  <score_type>  (26) 
oracle

>  <origin>  (26) 
autodockgpu

>  <m_score__min__energy>  (26) 
-8.4700000000000006

>  <m_primary>  (26) 
energy

>  <rmsd>  (26) 
7.394544919018329

>  <m_score__min__rmsd>  (26) 
7.394544919018329

>  <meeko>  (26) 
{"free_energy": -7.48, "intermolecular_energy": -9.27, "internal_energy": -2.8, "cluster_size": 40, "cluster_id": 3, "rank_in_cluster": 4}

>  <energy>  (26) 
-7.35

>  <cluster_rmsd>  (26) 
0.21

>  <cluster>  (26) 
3

$$$$

     RDKit          3D

 47 50  0  0  0  0  0  0  0  0999 V2000
  138.8030   75.6650  221.3140 O   0  0  0  0  0  0  0  0  0  0  0  0
  139.9660   75.9350  221.7000 C   0  0  0  0  0  0  0  0  0  0  0  0
  141.0570   75.0310  221.6310 N   0  0  0  0  0  0  0  0  0  0  0  0
  140.8820   73.6710  221.0820 C   0  0  0  0  0  0  0  0  0  0  0  0
  142.1790   73.0110  220.9360 C   0  0  0  0  0  0  0  0  0  0  0  0
  142.3080   71.9030  221.5940 O   0  0  0  0  0  0  0  0  0  0  0  0
  143.3010   73.3930  220.1970 N   0  0  0  0  0  0  0  0  0  0  0  0
  144.4670   72.4480  220.1160 C   0  0  0  0  0  0  0  0  0  0  0  0
  144.9830   72.6590  218.7100 C   0  0  2  0  0  0  0  0  0  0  0  0
  146.2980   73.1640  218.7400 O   0  0  0  0  0  0  0  0  0  0  0  0
  144.1030   73.7280  218.1020 C   0  0  0  0  0  0  0  0  0  0  0  0
  143.7280   74.4930  219.3980 C   0  0  1  0  0  0  0  0  0  0  0  0
  142.8010   75.5710  219.1050 C   0  0  0  0  0  0  0  0  0  0  0  0
  143.0850   76.7990  219.6630 N   0  0  0  0  0  0  0  0  0  0  0  0
  142.3030   77.8670  219.4930 C   0  0  0  0  0  0  0  0  0  0  0  0
  141.1540   77.7800  218.7350 C   0  0  0  0  0  0  0  0  0  0  0  0
  140.8510   76.5600  218.1660 C   0  0  0  0  0  0  0  0  0  0  0  0
  141.6890   75.5310  218.3830 N   0  0  0  0  0  0  0  0  0  0  0  0
  140.2180   77.2760  222.2600 C   0  0  0  0  0  0  0  0  0  0  0  0
  139.1810   78.0790  222.6800 C   0  0  0  0  0  0  0  0  0  0  0  0
  139.3380   79.3310  223.2090 C   0  0  0  0  0  0  0  0  0  0  0  0
  140.6260   79.8140  223.3270 C   0  0  0  0  0  0  0  0  0  0  0  0
  140.8170   81.0770  223.8580 C   0  0  0  0  0  0  0  0  0  0  0  0
  142.0860   81.5720  223.9830 C   0  0  0  0  0  0  0  0  0  0  0  0
  143.1680   80.8060  223.5750 C   0  0  0  0  0  0  0  0  0  0  0  0
  142.9430   79.5390  223.0450 C   0  0  0  0  0  0  0  0  0  0  0  0
  141.6760   79.0130  222.9070 C   0  0  0  0  0  0  0  0  0  0  0  0
  141.4620   77.7730  222.3870 N   0  0  0  0  0  0  0  0  0  0  0  0
  142.0020   75.3360  221.9770 H   0  0  0  0  0  0  0  0  0  0  0  0
  140.2505   73.0829  221.7642 H   0  0  0  0  0  0  0  0  0  0  0  0
  140.4043   73.7431  220.0938 H   0  0  0  0  0  0  0  0  0  0  0  0
  145.2349   72.7037  220.8609 H   0  0  0  0  0  0  0  0  0  0  0  0
  144.1919   71.4033  220.3232 H   0  0  0  0  0  0  0  0  0  0  0  0
  144.9726   71.7128  218.1491 H   0  0  0  0  0  0  0  0  0  0  0  0
  146.2870   74.1360  219.0150 H   0  0  0  0  0  0  0  0  0  0  0  0
  144.6541   74.3626  217.3924 H   0  0  0  0  0  0  0  0  0  0  0  0
  143.2550   73.3618  217.5046 H   0  0  0  0  0  0  0  0  0  0  0  0
  144.4997   75.0720  219.9263 H   0  0  0  0  0  0  0  0  0  0  0  0
  142.5769   78.8240  219.9610 H   0  0  0  0  0  0  0  0  0  0  0  0
  140.5014   78.6534  218.5890 H   0  0  0  0  0  0  0  0  0  0  0  0
  139.9478   76.4326  217.5512 H   0  0  0  0  0  0  0  0  0  0  0  0
  138.1576   77.6875  222.5837 H   0  0  0  0  0  0  0  0  0  0  0  0
  138.4718   79.9294  223.5279 H   0  0  0  0  0  0  0  0  0  0  0  0
  139.9539   81.6794  224.1777 H   0  0  0  0  0  0  0  0  0  0  0  0
  142.2479   82.5745  224.4058 H   0  0  0  0  0  0  0  0  0  0  0  0
  144.1924   81.1956  223.6693 H   0  0  0  0  0  0  0  0  0  0  0  0
  143.8058   78.9364  222.7251 H   0  0  0  0  0  0  0  0  0  0  0  0
  1  2  2  0
  2  3  1  0
  3  4  1  0
  4  5  1  0
  5  6  2  0
  5  7  1  0
  7  8  1  0
  8  9  1  0
  9 10  1  0
  9 11  1  0
 11 12  1  0
 12 13  1  0
 13 14  2  0
 14 15  1  0
 15 16  2  0
 16 17  1  0
 17 18  2  0
  2 19  1  0
 19 20  2  0
 20 21  1  0
 21 22  2  0
 22 23  1  0
 23 24  2  0
 24 25  1  0
 25 26  2  0
 26 27  1  0
 27 28  2  0
 12  7  1  0
 18 13  1  0
 28 19  1  0
 27 22  1  0
  3 29  1  0
  4 30  1  0
  4 31  1  0
  8 32  1  0
  8 33  1  0
  9 34  1  6
 10 35  1  0
 11 36  1  0
 11 37  1  0
 12 38  1  1
 15 39  1  0
 16 40  1  0
 17 41  1  0
 20 42  1  0
 21 43  1  0
 23 44  1  0
 24 45  1  0
 25 46  1  0
 26 47  1  0
M  END
>  <smiles>  (27) 
O=C(NCC(=O)N1C[C@H](O)C[C@H]1c1ncccn1)c1ccc2ccccc2n1

>  <score_type>  (27) 
oracle

>  <origin>  (27) 
autodockgpu

>  <m_score__min__energy>  (27) 
-8.4700000000000006

>  <m_primary>  (27) 
energy

>  <rmsd>  (27) 
7.328975493291915

>  <m_score__min__rmsd>  (27) 
7.328975493291915

>  <meeko>  (27) 
{"free_energy": -7.27, "intermolecular_energy": -9.06, "internal_energy": -2.39, "cluster_size": 40, "cluster_id": 3, "rank_in_cluster": 24}

>  <energy>  (27) 
-7.35

>  <cluster_rmsd>  (27) 
0.77

>  <cluster>  (27) 
3

$$$$

     RDKit          3D

 47 50  0  0  0  0  0  0  0  0999 V2000
  138.7830   75.4170  221.9870 O   0  0  0  0  0  0  0  0  0  0  0  0
  139.9560   75.8550  221.9260 C   0  0  0  0  0  0  0  0  0  0  0  0
  141.0620   75.1050  221.4490 N   0  0  0  0  0  0  0  0  0  0  0  0
  140.8900   73.7160  220.9790 C   0  0  0  0  0  0  0  0  0  0  0  0
  142.1810   73.0270  220.9490 C   0  0  0  0  0  0  0  0  0  0  0  0
  142.1980   71.8670  221.5240 O   0  0  0  0  0  0  0  0  0  0  0  0
  143.3980   73.4290  220.3930 N   0  0  0  0  0  0  0  0  0  0  0  0
  144.5530   72.4670  220.4170 C   0  0  0  0  0  0  0  0  0  0  0  0
  145.2610   72.7490  219.1110 C   0  0  2  0  0  0  0  0  0  0  0  0
  146.5650   73.2250  219.3500 O   0  0  0  0  0  0  0  0  0  0  0  0
  144.4850   73.8670  218.4520 C   0  0  0  0  0  0  0  0  0  0  0  0
  143.9430   74.5640  219.7270 C   0  0  1  0  0  0  0  0  0  0  0  0
  143.0780   75.6750  219.3740 C   0  0  0  0  0  0  0  0  0  0  0  0
  142.2930   75.5140  218.2520 N   0  0  0  0  0  0  0  0  0  0  0  0
  141.4720   76.4670  217.8040 C   0  0  0  0  0  0  0  0  0  0  0  0
  141.3760   77.6740  218.4620 C   0  0  0  0  0  0  0  0  0  0  0  0
  142.1530   77.8570  219.5870 C   0  0  0  0  0  0  0  0  0  0  0  0
  142.9550   76.8500  219.9760 N   0  0  0  0  0  0  0  0  0  0  0  0
  140.2050   77.2370  222.3780 C   0  0  0  0  0  0  0  0  0  0  0  0
  139.1650   78.0890  222.6710 C   0  0  0  0  0  0  0  0  0  0  0  0
  139.3180   79.3810  223.0950 C   0  0  0  0  0  0  0  0  0  0  0  0
  140.6080   79.8540  223.2370 C   0  0  0  0  0  0  0  0  0  0  0  0
  140.7950   81.1550  223.6640 C   0  0  0  0  0  0  0  0  0  0  0  0
  142.0660   81.6420  223.8110 C   0  0  0  0  0  0  0  0  0  0  0  0
  143.1520   80.8260  223.5290 C   0  0  0  0  0  0  0  0  0  0  0  0
  142.9300   79.5210  223.1020 C   0  0  0  0  0  0  0  0  0  0  0  0
  141.6620   79.0030  222.9450 C   0  0  0  0  0  0  0  0  0  0  0  0
  141.4510   77.7250  222.5260 N   0  0  0  0  0  0  0  0  0  0  0  0
  142.0160   75.5480  221.4320 H   0  0  0  0  0  0  0  0  0  0  0  0
  140.2102   73.1837  221.6606 H   0  0  0  0  0  0  0  0  0  0  0  0
  140.4686   73.7313  219.9630 H   0  0  0  0  0  0  0  0  0  0  0  0
  145.2131   72.6638  221.2746 H   0  0  0  0  0  0  0  0  0  0  0  0
  144.2398   71.4177  220.5214 H   0  0  0  0  0  0  0  0  0  0  0  0
  145.3180   71.8367  218.4990 H   0  0  0  0  0  0  0  0  0  0  0  0
  146.5710   74.2350  219.3240 H   0  0  0  0  0  0  0  0  0  0  0  0
  145.1356   74.5304  217.8633 H   0  0  0  0  0  0  0  0  0  0  0  0
  143.7237   73.5513  217.7234 H   0  0  0  0  0  0  0  0  0  0  0  0
  144.6404   75.0972  220.3898 H   0  0  0  0  0  0  0  0  0  0  0  0
  140.8676   76.2872  216.9027 H   0  0  0  0  0  0  0  0  0  0  0  0
  140.7021   78.4654  218.1020 H   0  0  0  0  0  0  0  0  0  0  0  0
  142.1176   78.8010  220.1506 H   0  0  0  0  0  0  0  0  0  0  0  0
  138.1405   77.7052  222.5566 H   0  0  0  0  0  0  0  0  0  0  0  0
  138.4482   80.0177  223.3141 H   0  0  0  0  0  0  0  0  0  0  0  0
  139.9281   81.7952  223.8844 H   0  0  0  0  0  0  0  0  0  0  0  0
  142.2255   82.6758  224.1512 H   0  0  0  0  0  0  0  0  0  0  0  0
  144.1777   81.2070  223.6419 H   0  0  0  0  0  0  0  0  0  0  0  0
  143.7963   78.8799  222.8819 H   0  0  0  0  0  0  0  0  0  0  0  0
  1  2  2  0
  2  3  1  0
  3  4  1  0
  4  5  1  0
  5  6  2  0
  5  7  1  0
  7  8  1  0
  8  9  1  0
  9 10  1  0
  9 11  1  0
 11 12  1  0
 12 13  1  0
 13 14  2  0
 14 15  1  0
 15 16  2  0
 16 17  1  0
 17 18  2  0
  2 19  1  0
 19 20  2  0
 20 21  1  0
 21 22  2  0
 22 23  1  0
 23 24  2  0
 24 25  1  0
 25 26  2  0
 26 27  1  0
 27 28  2  0
 12  7  1  0
 18 13  1  0
 28 19  1  0
 27 22  1  0
  3 29  1  0
  4 30  1  0
  4 31  1  0
  8 32  1  0
  8 33  1  0
  9 34  1  6
 10 35  1  0
 11 36  1  0
 11 37  1  0
 12 38  1  1
 15 39  1  0
 16 40  1  0
 17 41  1  0
 20 42  1  0
 21 43  1  0
 23 44  1  0
 24 45  1  0
 25 46  1  0
 26 47  1  0
M  END
>  <smiles>  (28) 
O=C(NCC(=O)N1C[C@H](O)C[C@H]1c1ncccn1)c1ccc2ccccc2n1

>  <score_type>  (28) 
oracle

>  <origin>  (28) 
autodockgpu

>  <m_score__min__energy>  (28) 
-8.4700000000000006

>  <m_primary>  (28) 
energy

>  <rmsd>  (28) 
7.422666812114058

>  <m_score__min__rmsd>  (28) 
7.422666812114058

>  <meeko>  (28) 
{"free_energy": -7.45, "intermolecular_energy": -9.24, "internal_energy": -2.82, "cluster_size": 40, "cluster_id": 3, "rank_in_cluster": 10}

>  <energy>  (28) 
-7.35

>  <cluster_rmsd>  (28) 
0.71

>  <cluster>  (28) 
3

$$$$

     RDKit          3D

 47 50  0  0  0  0  0  0  0  0999 V2000
  138.8330   75.3330  222.0550 O   0  0  0  0  0  0  0  0  0  0  0  0
  139.9730   75.8400  221.9230 C   0  0  0  0  0  0  0  0  0  0  0  0
  141.0750   75.1770  221.3240 N   0  0  0  0  0  0  0  0  0  0  0  0
  140.9400   73.8020  220.8030 C   0  0  0  0  0  0  0  0  0  0  0  0
  142.2210   73.1000  220.8830 C   0  0  0  0  0  0  0  0  0  0  0  0
  142.2090   72.0130  221.5870 O   0  0  0  0  0  0  0  0  0  0  0  0
  143.4560   73.4230  220.3150 N   0  0  0  0  0  0  0  0  0  0  0  0
  144.5980   72.4590  220.4780 C   0  0  0  0  0  0  0  0  0  0  0  0
  145.3400   72.5810  219.1660 C   0  0  2  0  0  0  0  0  0  0  0  0
  146.6430   73.0690  219.3810 O   0  0  0  0  0  0  0  0  0  0  0  0
  144.5940   73.6240  218.3640 C   0  0  0  0  0  0  0  0  0  0  0  0
  144.0310   74.4690  219.5370 C   0  0  1  0  0  0  0  0  0  0  0  0
  143.1890   75.5400  219.0370 C   0  0  0  0  0  0  0  0  0  0  0  0
  143.0260   76.6330  219.8610 N   0  0  0  0  0  0  0  0  0  0  0  0
  142.2600   77.6760  219.5330 C   0  0  0  0  0  0  0  0  0  0  0  0
  141.5860   77.6980  218.3300 C   0  0  0  0  0  0  0  0  0  0  0  0
  141.7350   76.6140  217.4900 C   0  0  0  0  0  0  0  0  0  0  0  0
  142.5250   75.6020  217.8910 N   0  0  0  0  0  0  0  0  0  0  0  0
  140.1830   77.2130  222.4200 C   0  0  0  0  0  0  0  0  0  0  0  0
  139.1190   78.0310  222.7270 C   0  0  0  0  0  0  0  0  0  0  0  0
  139.2370   79.3120  223.1920 C   0  0  0  0  0  0  0  0  0  0  0  0
  140.5130   79.8110  223.3630 C   0  0  0  0  0  0  0  0  0  0  0  0
  140.6650   81.1030  223.8310 C   0  0  0  0  0  0  0  0  0  0  0  0
  141.9220   81.6140  224.0080 C   0  0  0  0  0  0  0  0  0  0  0  0
  143.0300   80.8340  223.7130 C   0  0  0  0  0  0  0  0  0  0  0  0
  142.8450   79.5370  223.2440 C   0  0  0  0  0  0  0  0  0  0  0  0
  141.5910   78.9950  223.0560 C   0  0  0  0  0  0  0  0  0  0  0  0
  141.4150   77.7260  222.5960 N   0  0  0  0  0  0  0  0  0  0  0  0
  141.9980   75.6740  221.2530 H   0  0  0  0  0  0  0  0  0  0  0  0
  140.1914   73.2599  221.3995 H   0  0  0  0  0  0  0  0  0  0  0  0
  140.6226   73.8479  219.7508 H   0  0  0  0  0  0  0  0  0  0  0  0
  145.2404   72.7471  221.3232 H   0  0  0  0  0  0  0  0  0  0  0  0
  144.2692   71.4319  220.6948 H   0  0  0  0  0  0  0  0  0  0  0  0
  145.3997   71.6037  218.6648 H   0  0  0  0  0  0  0  0  0  0  0  0
  146.6560   74.0730  219.2740 H   0  0  0  0  0  0  0  0  0  0  0  0
  145.2668   74.2086  217.7194 H   0  0  0  0  0  0  0  0  0  0  0  0
  143.8459   73.2343  217.6579 H   0  0  0  0  0  0  0  0  0  0  0  0
  144.7190   75.0682  220.1515 H   0  0  0  0  0  0  0  0  0  0  0  0
  142.1657   78.5240  220.2273 H   0  0  0  0  0  0  0  0  0  0  0  0
  140.9509   78.5513  218.0497 H   0  0  0  0  0  0  0  0  0  0  0  0
  141.2213   76.5782  216.5180 H   0  0  0  0  0  0  0  0  0  0  0  0
  138.1052   77.6270  222.5890 H   0  0  0  0  0  0  0  0  0  0  0  0
  138.3499   79.9209  223.4208 H   0  0  0  0  0  0  0  0  0  0  0  0
  139.7810   81.7164  224.0596 H   0  0  0  0  0  0  0  0  0  0  0  0
  142.0531   82.6398  224.3829 H   0  0  0  0  0  0  0  0  0  0  0  0
  144.0448   81.2364  223.8484 H   0  0  0  0  0  0  0  0  0  0  0  0
  143.7289   78.9234  223.0155 H   0  0  0  0  0  0  0  0  0  0  0  0
  1  2  2  0
  2  3  1  0
  3  4  1  0
  4  5  1  0
  5  6  2  0
  5  7  1  0
  7  8  1  0
  8  9  1  0
  9 10  1  0
  9 11  1  0
 11 12  1  0
 12 13  1  0
 13 14  2  0
 14 15  1  0
 15 16  2  0
 16 17  1  0
 17 18  2  0
  2 19  1  0
 19 20  2  0
 20 21  1  0
 21 22  2  0
 22 23  1  0
 23 24  2  0
 24 25  1  0
 25 26  2  0
 26 27  1  0
 27 28  2  0
 12  7  1  0
 18 13  1  0
 28 19  1  0
 27 22  1  0
  3 29  1  0
  4 30  1  0
  4 31  1  0
  8 32  1  0
  8 33  1  0
  9 34  1  6
 10 35  1  0
 11 36  1  0
 11 37  1  0
 12 38  1  1
 15 39  1  0
 16 40  1  0
 17 41  1  0
 20 42  1  0
 21 43  1  0
 23 44  1  0
 24 45  1  0
 25 46  1  0
 26 47  1  0
M  END
>  <smiles>  (29) 
O=C(NCC(=O)N1C[C@H](O)C[C@H]1c1ncccn1)c1ccc2ccccc2n1

>  <score_type>  (29) 
oracle

>  <origin>  (29) 
autodockgpu

>  <m_score__min__energy>  (29) 
-8.4700000000000006

>  <m_primary>  (29) 
energy

>  <rmsd>  (29) 
7.39041419458879

>  <m_score__min__rmsd>  (29) 
7.39041419458879

>  <meeko>  (29) 
{"free_energy": -7.35, "intermolecular_energy": -9.14, "internal_energy": -2.72, "cluster_size": 40, "cluster_id": 3, "rank_in_cluster": 18}

>  <energy>  (29) 
-7.32

>  <cluster_rmsd>  (29) 
0.7

>  <cluster>  (29) 
3

$$$$

     RDKit          3D

 47 50  0  0  0  0  0  0  0  0999 V2000
  140.9340   71.5340  221.3520 O   0  0  0  0  0  0  0  0  0  0  0  0
  140.4250   72.1490  222.3200 C   0  0  0  0  0  0  0  0  0  0  0  0
  140.0190   73.5070  222.2740 N   0  0  0  0  0  0  0  0  0  0  0  0
  140.1760   74.3050  221.0420 C   0  0  0  0  0  0  0  0  0  0  0  0
  140.7260   75.6240  221.3580 C   0  0  0  0  0  0  0  0  0  0  0  0
  140.4400   76.0700  222.5390 O   0  0  0  0  0  0  0  0  0  0  0  0
  141.5120   76.4770  220.5790 N   0  0  0  0  0  0  0  0  0  0  0  0
  142.0360   75.9720  219.2640 C   0  0  0  0  0  0  0  0  0  0  0  0
  141.9940   77.2010  218.3840 C   0  0  2  0  0  0  0  0  0  0  0  0
  143.2930   77.5520  217.9660 O   0  0  0  0  0  0  0  0  0  0  0  0
  141.4840   78.3220  219.2620 C   0  0  0  0  0  0  0  0  0  0  0  0
  142.0090   77.8120  220.6290 C   0  0  1  0  0  0  0  0  0  0  0  0
  141.5890   78.6960  221.7000 C   0  0  0  0  0  0  0  0  0  0  0  0
  142.5840   79.3990  222.3470 N   0  0  0  0  0  0  0  0  0  0  0  0
  142.3370   80.2270  223.3640 C   0  0  0  0  0  0  0  0  0  0  0  0
  141.0480   80.4140  223.8170 C   0  0  0  0  0  0  0  0  0  0  0  0
  140.0370   79.7210  223.1850 C   0  0  0  0  0  0  0  0  0  0  0  0
  140.3650   78.9060  222.1660 N   0  0  0  0  0  0  0  0  0  0  0  0
  140.2350   71.4160  223.5850 C   0  0  0  0  0  0  0  0  0  0  0  0
  139.5570   70.2180  223.6210 C   0  0  0  0  0  0  0  0  0  0  0  0
  139.3440   69.4830  224.7550 C   0  0  0  0  0  0  0  0  0  0  0  0
  139.8450   69.9830  225.9400 C   0  0  0  0  0  0  0  0  0  0  0  0
  139.6440   69.2640  227.1030 C   0  0  0  0  0  0  0  0  0  0  0  0
  140.1350   69.7430  228.2880 C   0  0  0  0  0  0  0  0  0  0  0  0
  140.8250   70.9460  228.3100 C   0  0  0  0  0  0  0  0  0  0  0  0
  141.0100   71.6470  227.1230 C   0  0  0  0  0  0  0  0  0  0  0  0
  140.5290   71.1890  225.9150 C   0  0  0  0  0  0  0  0  0  0  0  0
  140.7120   71.8790  224.7560 N   0  0  0  0  0  0  0  0  0  0  0  0
  139.6000   73.9490  223.1320 H   0  0  0  0  0  0  0  0  0  0  0  0
  140.8583   73.7823  220.3555 H   0  0  0  0  0  0  0  0  0  0  0  0
  139.1906   74.4319  220.5698 H   0  0  0  0  0  0  0  0  0  0  0  0
  143.0642   75.5950  219.3671 H   0  0  0  0  0  0  0  0  0  0  0  0
  141.4533   75.1308  218.8604 H   0  0  0  0  0  0  0  0  0  0  0  0
  141.3674   77.0194  217.4983 H   0  0  0  0  0  0  0  0  0  0  0  0
  143.2510   78.3510  217.3500 H   0  0  0  0  0  0  0  0  0  0  0  0
  141.9215   79.2932  218.9877 H   0  0  0  0  0  0  0  0  0  0  0  0
  140.4015   78.5107  219.2098 H   0  0  0  0  0  0  0  0  0  0  0  0
  143.0911   77.8102  220.8267 H   0  0  0  0  0  0  0  0  0  0  0  0
  143.1678   80.7644  223.8446 H   0  0  0  0  0  0  0  0  0  0  0  0
  140.8333   81.0936  224.6549 H   0  0  0  0  0  0  0  0  0  0  0  0
  138.9905   79.8316  223.5054 H   0  0  0  0  0  0  0  0  0  0  0  0
  139.1596   69.8253  222.6735 H   0  0  0  0  0  0  0  0  0  0  0  0
  138.7947   68.5305  224.7237 H   0  0  0  0  0  0  0  0  0  0  0  0
  139.0928   68.3124  227.0768 H   0  0  0  0  0  0  0  0  0  0  0  0
  139.9829   69.1763  229.2184 H   0  0  0  0  0  0  0  0  0  0  0  0
  141.2219   71.3416  229.2565 H   0  0  0  0  0  0  0  0  0  0  0  0
  141.5591   72.5998  227.1491 H   0  0  0  0  0  0  0  0  0  0  0  0
  1  2  2  0
  2  3  1  0
  3  4  1  0
  4  5  1  0
  5  6  2  0
  5  7  1  0
  7  8  1  0
  8  9  1  0
  9 10  1  0
  9 11  1  0
 11 12  1  0
 12 13  1  0
 13 14  2  0
 14 15  1  0
 15 16  2  0
 16 17  1  0
 17 18  2  0
  2 19  1  0
 19 20  2  0
 20 21  1  0
 21 22  2  0
 22 23  1  0
 23 24  2  0
 24 25  1  0
 25 26  2  0
 26 27  1  0
 27 28  2  0
 12  7  1  0
 18 13  1  0
 28 19  1  0
 27 22  1  0
  3 29  1  0
  4 30  1  0
  4 31  1  0
  8 32  1  0
  8 33  1  0
  9 34  1  6
 10 35  1  0
 11 36  1  0
 11 37  1  0
 12 38  1  6
 15 39  1  0
 16 40  1  0
 17 41  1  0
 20 42  1  0
 21 43  1  0
 23 44  1  0
 24 45  1  0
 25 46  1  0
 26 47  1  0
M  END
>  <smiles>  (30) 
O=C(NCC(=O)N1C[C@H](O)C[C@H]1c1ncccn1)c1ccc2ccccc2n1

>  <score_type>  (30) 
oracle

>  <origin>  (30) 
autodockgpu

>  <m_score__min__energy>  (30) 
-8.4700000000000006

>  <m_primary>  (30) 
energy

>  <rmsd>  (30) 
2.009057699821036

>  <m_score__min__rmsd>  (30) 
2.009057699821036

>  <meeko>  (30) 
{"free_energy": -8.19, "intermolecular_energy": -9.98, "internal_energy": -1.59, "cluster_size": 5, "cluster_id": 1, "rank_in_cluster": 5}

>  <energy>  (30) 
-7.31

>  <cluster_rmsd>  (30) 
0.8

>  <cluster>  (30) 
3

$$$$

     RDKit          3D

 47 50  0  0  0  0  0  0  0  0999 V2000
  140.1780   71.1870  221.2350 O   0  0  0  0  0  0  0  0  0  0  0  0
  139.9680   71.8800  222.2590 C   0  0  0  0  0  0  0  0  0  0  0  0
  139.7270   73.2780  222.2390 N   0  0  0  0  0  0  0  0  0  0  0  0
  139.7090   74.0260  220.9670 C   0  0  0  0  0  0  0  0  0  0  0  0
  140.7410   75.0630  220.9720 C   0  0  0  0  0  0  0  0  0  0  0  0
  140.9870   75.5870  222.1300 O   0  0  0  0  0  0  0  0  0  0  0  0
  141.5020   75.5740  219.9180 N   0  0  0  0  0  0  0  0  0  0  0  0
  140.9670   76.7460  219.1450 C   0  0  0  0  0  0  0  0  0  0  0  0
  142.2120   77.5390  218.8160 C   0  0  2  0  0  0  0  0  0  0  0  0
  142.4000   77.6030  217.4210 O   0  0  0  0  0  0  0  0  0  0  0  0
  143.3680   76.7520  219.3920 C   0  0  0  0  0  0  0  0  0  0  0  0
  142.7590   75.3280  219.2930 C   0  0  1  0  0  0  0  0  0  0  0  0
  143.6640   74.3450  219.8600 C   0  0  0  0  0  0  0  0  0  0  0  0
  144.8220   74.8280  220.4300 N   0  0  0  0  0  0  0  0  0  0  0  0
  145.7500   74.0300  220.9650 C   0  0  0  0  0  0  0  0  0  0  0  0
  145.5800   72.6620  220.9660 C   0  0  0  0  0  0  0  0  0  0  0  0
  144.4270   72.1570  220.4000 C   0  0  0  0  0  0  0  0  0  0  0  0
  143.5400   73.0250  219.8830 N   0  0  0  0  0  0  0  0  0  0  0  0
  139.9710   71.2000  223.5680 C   0  0  0  0  0  0  0  0  0  0  0  0
  139.4820   69.9210  223.7080 C   0  0  0  0  0  0  0  0  0  0  0  0
  139.4520   69.2280  224.8880 C   0  0  0  0  0  0  0  0  0  0  0  0
  139.9490   69.8630  226.0090 C   0  0  0  0  0  0  0  0  0  0  0  0
  139.9320   69.1890  227.2170 C   0  0  0  0  0  0  0  0  0  0  0  0
  140.4210   69.8020  228.3390 C   0  0  0  0  0  0  0  0  0  0  0  0
  140.9250   71.0910  228.2550 C   0  0  0  0  0  0  0  0  0  0  0  0
  140.9280   71.7420  227.0260 C   0  0  0  0  0  0  0  0  0  0  0  0
  140.4430   71.1520  225.8780 C   0  0  0  0  0  0  0  0  0  0  0  0
  140.4480   71.7930  224.6780 N   0  0  0  0  0  0  0  0  0  0  0  0
  139.5600   73.7840  223.1460 H   0  0  0  0  0  0  0  0  0  0  0  0
  139.8969   73.3313  220.1351 H   0  0  0  0  0  0  0  0  0  0  0  0
  138.7247   74.5019  220.8462 H   0  0  0  0  0  0  0  0  0  0  0  0
  140.4566   76.4145  218.2287 H   0  0  0  0  0  0  0  0  0  0  0  0
  140.2199   77.3277  219.7049 H   0  0  0  0  0  0  0  0  0  0  0  0
  142.1358   78.5607  219.2164 H   0  0  0  0  0  0  0  0  0  0  0  0
  143.0990   78.2980  217.2010 H   0  0  0  0  0  0  0  0  0  0  0  0
  144.2803   76.8543  218.7860 H   0  0  0  0  0  0  0  0  0  0  0  0
  143.6980   77.0586  220.3955 H   0  0  0  0  0  0  0  0  0  0  0  0
  142.6106   74.8705  218.3037 H   0  0  0  0  0  0  0  0  0  0  0  0
  146.6567   74.4677  221.4081 H   0  0  0  0  0  0  0  0  0  0  0  0
  146.3378   71.9953  221.4032 H   0  0  0  0  0  0  0  0  0  0  0  0
  144.2389   71.0736  220.3726 H   0  0  0  0  0  0  0  0  0  0  0  0
  139.0885   69.4217  222.8103 H   0  0  0  0  0  0  0  0  0  0  0  0
  139.0482   68.2062  224.9412 H   0  0  0  0  0  0  0  0  0  0  0  0
  139.5283   68.1674  227.2755 H   0  0  0  0  0  0  0  0  0  0  0  0
  140.4141   69.2739  229.3039 H   0  0  0  0  0  0  0  0  0  0  0  0
  141.3183   71.5934  229.1510 H   0  0  0  0  0  0  0  0  0  0  0  0
  141.3315   72.7636  226.9677 H   0  0  0  0  0  0  0  0  0  0  0  0
  1  2  2  0
  2  3  1  0
  3  4  1  0
  4  5  1  0
  5  6  2  0
  5  7  1  0
  7  8  1  0
  8  9  1  0
  9 10  1  0
  9 11  1  0
 11 12  1  0
 12 13  1  0
 13 14  2  0
 14 15  1  0
 15 16  2  0
 16 17  1  0
 17 18  2  0
  2 19  1  0
 19 20  2  0
 20 21  1  0
 21 22  2  0
 22 23  1  0
 23 24  2  0
 24 25  1  0
 25 26  2  0
 26 27  1  0
 27 28  2  0
 12  7  1  0
 18 13  1  0
 28 19  1  0
 27 22  1  0
  3 29  1  0
  4 30  1  0
  4 31  1  0
  8 32  1  0
  8 33  1  0
  9 34  1  1
 10 35  1  0
 11 36  1  0
 11 37  1  0
 12 38  1  6
 15 39  1  0
 16 40  1  0
 17 41  1  0
 20 42  1  0
 21 43  1  0
 23 44  1  0
 24 45  1  0
 25 46  1  0
 26 47  1  0
M  END
>  <smiles>  (31) 
O=C(NCC(=O)N1C[C@H](O)C[C@H]1c1ncccn1)c1ccc2ccccc2n1

>  <score_type>  (31) 
oracle

>  <origin>  (31) 
autodockgpu

>  <m_score__min__energy>  (31) 
-8.4700000000000006

>  <m_primary>  (31) 
energy

>  <rmsd>  (31) 
3.697144385259928

>  <m_score__min__rmsd>  (31) 
3.697144385259928

>  <meeko>  (31) 
{"free_energy": -8.04, "intermolecular_energy": -9.83, "internal_energy": -1.74, "cluster_size": 4, "cluster_id": 2, "rank_in_cluster": 3}

>  <energy>  (31) 
-7.27

>  <cluster_rmsd>  (31) 
0.72

>  <cluster>  (31) 
3

$$$$

     RDKit          3D

 47 50  0  0  0  0  0  0  0  0999 V2000
  139.5230   74.6460  222.7190 O   0  0  0  0  0  0  0  0  0  0  0  0
  140.0770   75.4450  221.9270 C   0  0  0  0  0  0  0  0  0  0  0  0
  140.6130   75.0730  220.6670 N   0  0  0  0  0  0  0  0  0  0  0  0
  140.5480   73.6750  220.1980 C   0  0  0  0  0  0  0  0  0  0  0  0
  141.8380   73.0130  220.3920 C   0  0  0  0  0  0  0  0  0  0  0  0
  141.7830   71.8660  220.9900 O   0  0  0  0  0  0  0  0  0  0  0  0
  143.1220   73.4300  220.0310 N   0  0  0  0  0  0  0  0  0  0  0  0
  144.2430   72.4300  220.0770 C   0  0  0  0  0  0  0  0  0  0  0  0
  145.1070   72.8300  218.9020 C   0  0  2  0  0  0  0  0  0  0  0  0
  146.3840   73.2290  219.3430 O   0  0  0  0  0  0  0  0  0  0  0  0
  144.4410   74.0420  218.2910 C   0  0  0  0  0  0  0  0  0  0  0  0
  143.7680   74.6120  219.5670 C   0  0  1  0  0  0  0  0  0  0  0  0
  142.9770   75.7860  219.2470 C   0  0  0  0  0  0  0  0  0  0  0  0
  142.1780   75.7060  218.1270 N   0  0  0  0  0  0  0  0  0  0  0  0
  141.4200   76.7220  217.7080 C   0  0  0  0  0  0  0  0  0  0  0  0
  141.4070   77.9160  218.3960 C   0  0  0  0  0  0  0  0  0  0  0  0
  142.1990   78.0180  219.5210 C   0  0  0  0  0  0  0  0  0  0  0  0
  142.9350   76.9510  219.8800 N   0  0  0  0  0  0  0  0  0  0  0  0
  140.1780   76.8600  222.3280 C   0  0  0  0  0  0  0  0  0  0  0  0
  139.0520   77.6310  222.5140 C   0  0  0  0  0  0  0  0  0  0  0  0
  139.0680   78.9480  222.8860 C   0  0  0  0  0  0  0  0  0  0  0  0
  140.3010   79.5360  223.0850 C   0  0  0  0  0  0  0  0  0  0  0  0
  140.3500   80.8660  223.4600 C   0  0  0  0  0  0  0  0  0  0  0  0
  141.5630   81.4670  223.6620 C   0  0  0  0  0  0  0  0  0  0  0  0
  142.7300   80.7380  223.4870 C   0  0  0  0  0  0  0  0  0  0  0  0
  142.6480   79.4010  223.1090 C   0  0  0  0  0  0  0  0  0  0  0  0
  141.4410   78.7690  222.8980 C   0  0  0  0  0  0  0  0  0  0  0  0
  141.3650   77.4610  222.5280 N   0  0  0  0  0  0  0  0  0  0  0  0
  141.0620   75.8070  220.0620 H   0  0  0  0  0  0  0  0  0  0  0  0
  139.7752   73.1372  220.7667 H   0  0  0  0  0  0  0  0  0  0  0  0
  140.3006   73.6687  219.1262 H   0  0  0  0  0  0  0  0  0  0  0  0
  144.8013   72.5057  221.0217 H   0  0  0  0  0  0  0  0  0  0  0  0
  143.8955   71.3877  220.0235 H   0  0  0  0  0  0  0  0  0  0  0  0
  145.2148   71.9902  218.1998 H   0  0  0  0  0  0  0  0  0  0  0  0
  146.4650   74.2350  219.2960 H   0  0  0  0  0  0  0  0  0  0  0  0
  145.1721   74.7426  217.8613 H   0  0  0  0  0  0  0  0  0  0  0  0
  143.7643   73.8376  217.4482 H   0  0  0  0  0  0  0  0  0  0  0  0
  144.3940   75.0425  220.3625 H   0  0  0  0  0  0  0  0  0  0  0  0
  140.8008   76.6051  216.8063 H   0  0  0  0  0  0  0  0  0  0  0  0
  140.7860   78.7593  218.0595 H   0  0  0  0  0  0  0  0  0  0  0  0
  142.2278   78.9473  220.1088 H   0  0  0  0  0  0  0  0  0  0  0  0
  138.0731   77.1559  222.3526 H   0  0  0  0  0  0  0  0  0  0  0  0
  138.1354   79.5154  223.0210 H   0  0  0  0  0  0  0  0  0  0  0  0
  139.4199   81.4375  223.5952 H   0  0  0  0  0  0  0  0  0  0  0  0
  141.6122   82.5242  223.9620 H   0  0  0  0  0  0  0  0  0  0  0  0
  143.7101   81.2116  223.6453 H   0  0  0  0  0  0  0  0  0  0  0  0
  143.5779   78.8291  222.9740 H   0  0  0  0  0  0  0  0  0  0  0  0
  1  2  2  0
  2  3  1  0
  3  4  1  0
  4  5  1  0
  5  6  2  0
  5  7  1  0
  7  8  1  0
  8  9  1  0
  9 10  1  0
  9 11  1  0
 11 12  1  0
 12 13  1  0
 13 14  2  0
 14 15  1  0
 15 16  2  0
 16 17  1  0
 17 18  2  0
  2 19  1  0
 19 20  2  0
 20 21  1  0
 21 22  2  0
 22 23  1  0
 23 24  2  0
 24 25  1  0
 25 26  2  0
 26 27  1  0
 27 28  2  0
 12  7  1  0
 18 13  1  0
 28 19  1  0
 27 22  1  0
  3 29  1  0
  4 30  1  0
  4 31  1  0
  8 32  1  0
  8 33  1  0
  9 34  1  6
 10 35  1  0
 11 36  1  0
 11 37  1  0
 12 38  1  1
 15 39  1  0
 16 40  1  0
 17 41  1  0
 20 42  1  0
 21 43  1  0
 23 44  1  0
 24 45  1  0
 25 46  1  0
 26 47  1  0
M  END
>  <smiles>  (32) 
O=C(NCC(=O)N1C[C@H](O)C[C@H]1c1ncccn1)c1ccc2ccccc2n1

>  <score_type>  (32) 
oracle

>  <origin>  (32) 
autodockgpu

>  <m_score__min__energy>  (32) 
-8.4700000000000006

>  <m_primary>  (32) 
energy

>  <rmsd>  (32) 
7.210133004392418

>  <m_score__min__rmsd>  (32) 
7.210133004392418

>  <meeko>  (32) 
{"free_energy": -6.99, "intermolecular_energy": -8.78, "internal_energy": -3.05, "cluster_size": 40, "cluster_id": 3, "rank_in_cluster": 31}

>  <energy>  (32) 
-7.27

>  <cluster_rmsd>  (32) 
0.73

>  <cluster>  (32) 
3

$$$$

     RDKit          3D

 47 50  0  0  0  0  0  0  0  0999 V2000
  139.5680   74.6830  222.7190 O   0  0  0  0  0  0  0  0  0  0  0  0
  140.1110   75.4850  221.9230 C   0  0  0  0  0  0  0  0  0  0  0  0
  140.6160   75.1220  220.6480 N   0  0  0  0  0  0  0  0  0  0  0  0
  140.5280   73.7290  220.1660 C   0  0  0  0  0  0  0  0  0  0  0  0
  141.8100   73.0470  220.3460 C   0  0  0  0  0  0  0  0  0  0  0  0
  141.7390   71.8840  220.9090 O   0  0  0  0  0  0  0  0  0  0  0  0
  143.1000   73.4590  220.0020 N   0  0  0  0  0  0  0  0  0  0  0  0
  144.2150   72.4540  220.0540 C   0  0  0  0  0  0  0  0  0  0  0  0
  145.0950   72.8560  218.8920 C   0  0  2  0  0  0  0  0  0  0  0  0
  146.3690   73.2460  219.3500 O   0  0  0  0  0  0  0  0  0  0  0  0
  144.4420   74.0760  218.2810 C   0  0  0  0  0  0  0  0  0  0  0  0
  143.7570   74.6410  219.5530 C   0  0  1  0  0  0  0  0  0  0  0  0
  142.9760   75.8210  219.2310 C   0  0  0  0  0  0  0  0  0  0  0  0
  142.1770   75.7470  218.1100 N   0  0  0  0  0  0  0  0  0  0  0  0
  141.4280   76.7680  217.6900 C   0  0  0  0  0  0  0  0  0  0  0  0
  141.4240   77.9630  218.3770 C   0  0  0  0  0  0  0  0  0  0  0  0
  142.2160   78.0600  219.5020 C   0  0  0  0  0  0  0  0  0  0  0  0
  142.9430   76.9870  219.8630 N   0  0  0  0  0  0  0  0  0  0  0  0
  140.2340   76.8960  222.3360 C   0  0  0  0  0  0  0  0  0  0  0  0
  139.1200   77.6690  222.5710 C   0  0  0  0  0  0  0  0  0  0  0  0
  139.1570   78.9820  222.9570 C   0  0  0  0  0  0  0  0  0  0  0  0
  140.3990   79.5620  223.1180 C   0  0  0  0  0  0  0  0  0  0  0  0
  140.4690   80.8870  223.5050 C   0  0  0  0  0  0  0  0  0  0  0  0
  141.6910   81.4800  223.6710 C   0  0  0  0  0  0  0  0  0  0  0  0
  142.8470   80.7470  223.4450 C   0  0  0  0  0  0  0  0  0  0  0  0
  142.7440   79.4160  223.0560 C   0  0  0  0  0  0  0  0  0  0  0  0
  141.5270   78.7920  222.8820 C   0  0  0  0  0  0  0  0  0  0  0  0
  141.4320   77.4880  222.5000 N   0  0  0  0  0  0  0  0  0  0  0  0
  141.0590   75.8580  220.0400 H   0  0  0  0  0  0  0  0  0  0  0  0
  139.7510   73.1968  220.7344 H   0  0  0  0  0  0  0  0  0  0  0  0
  140.2739   73.7362  219.0958 H   0  0  0  0  0  0  0  0  0  0  0  0
  144.7627   72.5210  221.0056 H   0  0  0  0  0  0  0  0  0  0  0  0
  143.8625   71.4140  219.9893 H   0  0  0  0  0  0  0  0  0  0  0  0
  145.2070   72.0196  218.1864 H   0  0  0  0  0  0  0  0  0  0  0  0
  146.4400   74.2530  219.3510 H   0  0  0  0  0  0  0  0  0  0  0  0
  145.1816   74.7757  217.8645 H   0  0  0  0  0  0  0  0  0  0  0  0
  143.7742   73.8807  217.4290 H   0  0  0  0  0  0  0  0  0  0  0  0
  144.3754   75.0631  220.3589 H   0  0  0  0  0  0  0  0  0  0  0  0
  140.8085   76.6553  216.7880 H   0  0  0  0  0  0  0  0  0  0  0  0
  140.8098   78.8108  218.0394 H   0  0  0  0  0  0  0  0  0  0  0  0
  142.2523   78.9899  220.0885 H   0  0  0  0  0  0  0  0  0  0  0  0
  138.1335   77.2004  222.4399 H   0  0  0  0  0  0  0  0  0  0  0  0
  138.2329   79.5525  223.1320 H   0  0  0  0  0  0  0  0  0  0  0  0
  139.5473   81.4618  223.6786 H   0  0  0  0  0  0  0  0  0  0  0  0
  141.7564   82.5330  223.9822 H   0  0  0  0  0  0  0  0  0  0  0  0
  143.8348   81.2139  223.5722 H   0  0  0  0  0  0  0  0  0  0  0  0
  143.6653   78.8411  222.8810 H   0  0  0  0  0  0  0  0  0  0  0  0
  1  2  2  0
  2  3  1  0
  3  4  1  0
  4  5  1  0
  5  6  2  0
  5  7  1  0
  7  8  1  0
  8  9  1  0
  9 10  1  0
  9 11  1  0
 11 12  1  0
 12 13  1  0
 13 14  2  0
 14 15  1  0
 15 16  2  0
 16 17  1  0
 17 18  2  0
  2 19  1  0
 19 20  2  0
 20 21  1  0
 21 22  2  0
 22 23  1  0
 23 24  2  0
 24 25  1  0
 25 26  2  0
 26 27  1  0
 27 28  2  0
 12  7  1  0
 18 13  1  0
 28 19  1  0
 27 22  1  0
  3 29  1  0
  4 30  1  0
  4 31  1  0
  8 32  1  0
  8 33  1  0
  9 34  1  6
 10 35  1  0
 11 36  1  0
 11 37  1  0
 12 38  1  1
 15 39  1  0
 16 40  1  0
 17 41  1  0
 20 42  1  0
 21 43  1  0
 23 44  1  0
 24 45  1  0
 25 46  1  0
 26 47  1  0
M  END
>  <smiles>  (33) 
O=C(NCC(=O)N1C[C@H](O)C[C@H]1c1ncccn1)c1ccc2ccccc2n1

>  <score_type>  (33) 
oracle

>  <origin>  (33) 
autodockgpu

>  <m_score__min__energy>  (33) 
-8.4700000000000006

>  <m_primary>  (33) 
energy

>  <rmsd>  (33) 
7.221920476539045

>  <m_score__min__rmsd>  (33) 
7.221920476539045

>  <meeko>  (33) 
{"free_energy": -7.0, "intermolecular_energy": -8.79, "internal_energy": -3.06, "cluster_size": 40, "cluster_id": 3, "rank_in_cluster": 30}

>  <energy>  (33) 
-7.27

>  <cluster_rmsd>  (33) 
0.88

>  <cluster>  (33) 
3

$$$$

     RDKit          3D

 47 50  0  0  0  0  0  0  0  0999 V2000
  138.9400   75.1890  222.3150 O   0  0  0  0  0  0  0  0  0  0  0  0
  140.0800   75.6670  222.1020 C   0  0  0  0  0  0  0  0  0  0  0  0
  141.2110   74.8930  221.7350 N   0  0  0  0  0  0  0  0  0  0  0  0
  141.1100   73.4280  221.5780 C   0  0  0  0  0  0  0  0  0  0  0  0
  141.8610   72.9900  220.4010 C   0  0  0  0  0  0  0  0  0  0  0  0
  141.2610   72.1120  219.6620 O   0  0  0  0  0  0  0  0  0  0  0  0
  143.1270   73.3750  219.9520 N   0  0  0  0  0  0  0  0  0  0  0  0
  144.2110   72.3370  219.8790 C   0  0  0  0  0  0  0  0  0  0  0  0
  144.9950   72.7460  218.6520 C   0  0  2  0  0  0  0  0  0  0  0  0
  146.3160   73.0870  219.0020 O   0  0  0  0  0  0  0  0  0  0  0  0
  144.3270   74.0000  218.1330 C   0  0  0  0  0  0  0  0  0  0  0  0
  143.7770   74.5500  219.4750 C   0  0  1  0  0  0  0  0  0  0  0  0
  143.0070   75.7600  219.2550 C   0  0  0  0  0  0  0  0  0  0  0  0
  142.3780   75.8780  218.0340 N   0  0  0  0  0  0  0  0  0  0  0  0
  141.6590   76.9500  217.6950 C   0  0  0  0  0  0  0  0  0  0  0  0
  141.5150   78.0030  218.5730 C   0  0  0  0  0  0  0  0  0  0  0  0
  142.1360   77.9060  219.8000 C   0  0  0  0  0  0  0  0  0  0  0  0
  142.8430   76.7940  220.0690 N   0  0  0  0  0  0  0  0  0  0  0  0
  140.2570   77.1240  222.2390 C   0  0  0  0  0  0  0  0  0  0  0  0
  139.3180   78.0060  221.7550 C   0  0  0  0  0  0  0  0  0  0  0  0
  139.4140   79.3680  221.8460 C   0  0  0  0  0  0  0  0  0  0  0  0
  140.5330   79.8840  222.4680 C   0  0  0  0  0  0  0  0  0  0  0  0
  140.6600   81.2570  222.5740 C   0  0  0  0  0  0  0  0  0  0  0  0
  141.7630   81.7880  223.1880 C   0  0  0  0  0  0  0  0  0  0  0  0
  142.7420   80.9460  223.6940 C   0  0  0  0  0  0  0  0  0  0  0  0
  142.5850   79.5690  223.5700 C   0  0  0  0  0  0  0  0  0  0  0  0
  141.4860   79.0050  222.9580 C   0  0  0  0  0  0  0  0  0  0  0  0
  141.3380   77.6570  222.8400 N   0  0  0  0  0  0  0  0  0  0  0  0
  142.1330   75.3730  221.5750 H   0  0  0  0  0  0  0  0  0  0  0  0
  141.5204   72.9380  222.4733 H   0  0  0  0  0  0  0  0  0  0  0  0
  140.0524   73.1541  221.4497 H   0  0  0  0  0  0  0  0  0  0  0  0
  144.8436   72.3626  220.7785 H   0  0  0  0  0  0  0  0  0  0  0  0
  143.8227   71.3094  219.8215 H   0  0  0  0  0  0  0  0  0  0  0  0
  145.0176   71.9265  217.9185 H   0  0  0  0  0  0  0  0  0  0  0  0
  146.4400   74.0870  218.9420 H   0  0  0  0  0  0  0  0  0  0  0  0
  145.0470   74.6895  217.6680 H   0  0  0  0  0  0  0  0  0  0  0  0
  143.5793   73.8464  217.3409 H   0  0  0  0  0  0  0  0  0  0  0  0
  144.4780   74.9328  220.2313 H   0  0  0  0  0  0  0  0  0  0  0  0
  141.1774   76.9937  216.7070 H   0  0  0  0  0  0  0  0  0  0  0  0
  140.9243   78.8910  218.3035 H   0  0  0  0  0  0  0  0  0  0  0  0
  142.0554   78.7165  220.5393 H   0  0  0  0  0  0  0  0  0  0  0  0
  138.4289   77.5872  221.2609 H   0  0  0  0  0  0  0  0  0  0  0  0
  138.6310   80.0252  221.4398 H   0  0  0  0  0  0  0  0  0  0  0  0
  139.8803   81.9182  222.1679 H   0  0  0  0  0  0  0  0  0  0  0  0
  141.8721   82.8787  223.2795 H   0  0  0  0  0  0  0  0  0  0  0  0
  143.6326   81.3620  224.1878 H   0  0  0  0  0  0  0  0  0  0  0  0
  143.3651   78.9073  223.9745 H   0  0  0  0  0  0  0  0  0  0  0  0
  1  2  2  0
  2  3  1  0
  3  4  1  0
  4  5  1  0
  5  6  2  0
  5  7  1  0
  7  8  1  0
  8  9  1  0
  9 10  1  0
  9 11  1  0
 11 12  1  0
 12 13  1  0
 13 14  2  0
 14 15  1  0
 15 16  2  0
 16 17  1  0
 17 18  2  0
  2 19  1  0
 19 20  2  0
 20 21  1  0
 21 22  2  0
 22 23  1  0
 23 24  2  0
 24 25  1  0
 25 26  2  0
 26 27  1  0
 27 28  2  0
 12  7  1  0
 18 13  1  0
 28 19  1  0
 27 22  1  0
  3 29  1  0
  4 30  1  0
  4 31  1  0
  8 32  1  0
  8 33  1  0
  9 34  1  6
 10 35  1  0
 11 36  1  0
 11 37  1  0
 12 38  1  1
 15 39  1  0
 16 40  1  0
 17 41  1  0
 20 42  1  0
 21 43  1  0
 23 44  1  0
 24 45  1  0
 25 46  1  0
 26 47  1  0
M  END
>  <smiles>  (34) 
O=C(NCC(=O)N1C[C@H](O)C[C@H]1c1ncccn1)c1ccc2ccccc2n1

>  <score_type>  (34) 
oracle

>  <origin>  (34) 
autodockgpu

>  <m_score__min__energy>  (34) 
-8.4700000000000006

>  <m_primary>  (34) 
energy

>  <rmsd>  (34) 
7.4144319557641944

>  <m_score__min__rmsd>  (34) 
7.4144319557641944

>  <meeko>  (34) 
{"free_energy": -6.99, "intermolecular_energy": -8.78, "internal_energy": -2.76, "cluster_size": 40, "cluster_id": 3, "rank_in_cluster": 32}

>  <energy>  (34) 
-7.25

>  <cluster_rmsd>  (34) 
0.71

>  <cluster>  (34) 
3

$$$$

     RDKit          3D

 47 50  0  0  0  0  0  0  0  0999 V2000
  138.7820   75.4980  221.8280 O   0  0  0  0  0  0  0  0  0  0  0  0
  139.9660   75.9130  221.8600 C   0  0  0  0  0  0  0  0  0  0  0  0
  141.0870   75.1500  221.4430 N   0  0  0  0  0  0  0  0  0  0  0  0
  140.9210   73.7770  220.9270 C   0  0  0  0  0  0  0  0  0  0  0  0
  142.2090   73.0820  220.9090 C   0  0  0  0  0  0  0  0  0  0  0  0
  142.2180   71.9270  221.4930 O   0  0  0  0  0  0  0  0  0  0  0  0
  143.4310   73.4750  220.3570 N   0  0  0  0  0  0  0  0  0  0  0  0
  144.6140   72.5590  220.5010 C   0  0  0  0  0  0  0  0  0  0  0  0
  145.3550   72.7480  219.1970 C   0  0  2  0  0  0  0  0  0  0  0  0
  146.6350   73.2880  219.4320 O   0  0  0  0  0  0  0  0  0  0  0  0
  144.5670   73.7760  218.4170 C   0  0  0  0  0  0  0  0  0  0  0  0
  143.9620   74.5650  219.6080 C   0  0  1  0  0  0  0  0  0  0  0  0
  143.0740   75.6100  219.1310 C   0  0  0  0  0  0  0  0  0  0  0  0
  142.9660   76.7350  219.9190 N   0  0  0  0  0  0  0  0  0  0  0  0
  142.1670   77.7590  219.6090 C   0  0  0  0  0  0  0  0  0  0  0  0
  141.4030   77.7270  218.4620 C   0  0  0  0  0  0  0  0  0  0  0  0
  141.4960   76.6100  217.6580 C   0  0  0  0  0  0  0  0  0  0  0  0
  142.3240   75.6200  218.0380 N   0  0  0  0  0  0  0  0  0  0  0  0
  140.2100   77.2770  222.3630 C   0  0  0  0  0  0  0  0  0  0  0  0
  139.1670   78.1050  222.7110 C   0  0  0  0  0  0  0  0  0  0  0  0
  139.3150   79.3810  223.1850 C   0  0  0  0  0  0  0  0  0  0  0  0
  140.6030   79.8620  223.3190 C   0  0  0  0  0  0  0  0  0  0  0  0
  140.7860   81.1470  223.7940 C   0  0  0  0  0  0  0  0  0  0  0  0
  142.0540   81.6420  223.9340 C   0  0  0  0  0  0  0  0  0  0  0  0
  143.1430   80.8500  223.5960 C   0  0  0  0  0  0  0  0  0  0  0  0
  142.9250   79.5610  223.1210 C   0  0  0  0  0  0  0  0  0  0  0  0
  141.6600   79.0360  222.9700 C   0  0  0  0  0  0  0  0  0  0  0  0
  141.4530   77.7730  222.5040 N   0  0  0  0  0  0  0  0  0  0  0  0
  142.0480   75.5730  221.5030 H   0  0  0  0  0  0  0  0  0  0  0  0
  140.2215   73.2281  221.5746 H   0  0  0  0  0  0  0  0  0  0  0  0
  140.5261   73.8254  219.9015 H   0  0  0  0  0  0  0  0  0  0  0  0
  145.2394   72.8533  221.3568 H   0  0  0  0  0  0  0  0  0  0  0  0
  144.3304   71.5130  220.6894 H   0  0  0  0  0  0  0  0  0  0  0  0
  145.4603   71.7875  218.6713 H   0  0  0  0  0  0  0  0  0  0  0  0
  146.6090   74.2920  219.3210 H   0  0  0  0  0  0  0  0  0  0  0  0
  145.2158   74.4060  217.7908 H   0  0  0  0  0  0  0  0  0  0  0  0
  143.8403   73.3714  217.6971 H   0  0  0  0  0  0  0  0  0  0  0  0
  144.6205   75.1786  220.2404 H   0  0  0  0  0  0  0  0  0  0  0  0
  142.1181   78.6342  220.2735 H   0  0  0  0  0  0  0  0  0  0  0  0
  140.7411   78.5645  218.1967 H   0  0  0  0  0  0  0  0  0  0  0  0
  140.9090   76.5308  216.7311 H   0  0  0  0  0  0  0  0  0  0  0  0
  138.1444   77.7149  222.6007 H   0  0  0  0  0  0  0  0  0  0  0  0
  138.4434   79.9982  223.4485 H   0  0  0  0  0  0  0  0  0  0  0  0
  139.9174   81.7682  224.0580 H   0  0  0  0  0  0  0  0  0  0  0  0
  142.2098   82.6629  224.3127 H   0  0  0  0  0  0  0  0  0  0  0  0
  144.1669   81.2376  223.7026 H   0  0  0  0  0  0  0  0  0  0  0  0
  143.7928   78.9389  222.8566 H   0  0  0  0  0  0  0  0  0  0  0  0
  1  2  2  0
  2  3  1  0
  3  4  1  0
  4  5  1  0
  5  6  2  0
  5  7  1  0
  7  8  1  0
  8  9  1  0
  9 10  1  0
  9 11  1  0
 11 12  1  0
 12 13  1  0
 13 14  2  0
 14 15  1  0
 15 16  2  0
 16 17  1  0
 17 18  2  0
  2 19  1  0
 19 20  2  0
 20 21  1  0
 21 22  2  0
 22 23  1  0
 23 24  2  0
 24 25  1  0
 25 26  2  0
 26 27  1  0
 27 28  2  0
 12  7  1  0
 18 13  1  0
 28 19  1  0
 27 22  1  0
  3 29  1  0
  4 30  1  0
  4 31  1  0
  8 32  1  0
  8 33  1  0
  9 34  1  6
 10 35  1  0
 11 36  1  0
 11 37  1  0
 12 38  1  1
 15 39  1  0
 16 40  1  0
 17 41  1  0
 20 42  1  0
 21 43  1  0
 23 44  1  0
 24 45  1  0
 25 46  1  0
 26 47  1  0
M  END
>  <smiles>  (35) 
O=C(NCC(=O)N1C[C@H](O)C[C@H]1c1ncccn1)c1ccc2ccccc2n1

>  <score_type>  (35) 
oracle

>  <origin>  (35) 
autodockgpu

>  <m_score__min__energy>  (35) 
-8.4700000000000006

>  <m_primary>  (35) 
energy

>  <rmsd>  (35) 
7.403653323210385

>  <m_score__min__rmsd>  (35) 
7.403653323210385

>  <meeko>  (35) 
{"free_energy": -7.5, "intermolecular_energy": -9.29, "internal_energy": -2.78, "cluster_size": 40, "cluster_id": 3, "rank_in_cluster": 3}

>  <energy>  (35) 
-7.21

>  <cluster_rmsd>  (35) 
1.05

>  <cluster>  (35) 
3

$$$$

     RDKit          3D

 47 50  0  0  0  0  0  0  0  0999 V2000
  138.7550   75.3760  222.1930 O   0  0  0  0  0  0  0  0  0  0  0  0
  139.9350   75.7940  222.1200 C   0  0  0  0  0  0  0  0  0  0  0  0
  141.0340   75.0040  221.6920 N   0  0  0  0  0  0  0  0  0  0  0  0
  140.8450   73.5950  221.2950 C   0  0  0  0  0  0  0  0  0  0  0  0
  141.6420   73.2910  220.1060 C   0  0  0  0  0  0  0  0  0  0  0  0
  141.0120   72.6580  219.1680 O   0  0  0  0  0  0  0  0  0  0  0  0
  142.9800   73.5800  219.8270 N   0  0  0  0  0  0  0  0  0  0  0  0
  143.9830   72.4620  219.8690 C   0  0  0  0  0  0  0  0  0  0  0  0
  144.9450   72.8200  218.7590 C   0  0  2  0  0  0  0  0  0  0  0  0
  146.2330   73.0540  219.2790 O   0  0  0  0  0  0  0  0  0  0  0  0
  144.4460   74.1280  218.1850 C   0  0  0  0  0  0  0  0  0  0  0  0
  143.7740   74.7050  219.4580 C   0  0  1  0  0  0  0  0  0  0  0  0
  143.1320   75.9740  219.1670 C   0  0  0  0  0  0  0  0  0  0  0  0
  143.2840   76.4640  217.8870 N   0  0  0  0  0  0  0  0  0  0  0  0
  142.7660   77.6300  217.4950 C   0  0  0  0  0  0  0  0  0  0  0  0
  142.0420   78.4060  218.3760 C   0  0  0  0  0  0  0  0  0  0  0  0
  141.8770   77.9340  219.6620 C   0  0  0  0  0  0  0  0  0  0  0  0
  142.4290   76.7500  219.9810 N   0  0  0  0  0  0  0  0  0  0  0  0
  140.2010   77.1930  222.5010 C   0  0  0  0  0  0  0  0  0  0  0  0
  139.1710   78.0780  222.7300 C   0  0  0  0  0  0  0  0  0  0  0  0
  139.3400   79.3880  223.0870 C   0  0  0  0  0  0  0  0  0  0  0  0
  140.6350   79.8460  223.2240 C   0  0  0  0  0  0  0  0  0  0  0  0
  140.8390   81.1660  223.5820 C   0  0  0  0  0  0  0  0  0  0  0  0
  142.1160   81.6380  223.7230 C   0  0  0  0  0  0  0  0  0  0  0  0
  143.1920   80.7910  223.5030 C   0  0  0  0  0  0  0  0  0  0  0  0
  142.9540   79.4680  223.1430 C   0  0  0  0  0  0  0  0  0  0  0  0
  141.6800   78.9640  222.9940 C   0  0  0  0  0  0  0  0  0  0  0  0
  141.4520   77.6690  222.6410 N   0  0  0  0  0  0  0  0  0  0  0  0
  141.9940   75.4320  221.6600 H   0  0  0  0  0  0  0  0  0  0  0  0
  141.1604   72.9400  222.1205 H   0  0  0  0  0  0  0  0  0  0  0  0
  139.7823   73.4273  221.0658 H   0  0  0  0  0  0  0  0  0  0  0  0
  144.4968   72.4292  220.8411 H   0  0  0  0  0  0  0  0  0  0  0  0
  143.5278   71.4687  219.7420 H   0  0  0  0  0  0  0  0  0  0  0  0
  144.9979   72.0082  218.0186 H   0  0  0  0  0  0  0  0  0  0  0  0
  146.4640   74.0330  219.1960 H   0  0  0  0  0  0  0  0  0  0  0  0
  145.2697   74.7637  217.8282 H   0  0  0  0  0  0  0  0  0  0  0  0
  143.7955   74.0418  217.3021 H   0  0  0  0  0  0  0  0  0  0  0  0
  144.4016   75.0233  220.3035 H   0  0  0  0  0  0  0  0  0  0  0  0
  142.9177   77.9747  216.4615 H   0  0  0  0  0  0  0  0  0  0  0  0
  141.6107   79.3686  218.0639 H   0  0  0  0  0  0  0  0  0  0  0  0
  141.3089   78.5110  220.4066 H   0  0  0  0  0  0  0  0  0  0  0  0
  138.1418   77.7062  222.6182 H   0  0  0  0  0  0  0  0  0  0  0  0
  138.4782   80.0499  223.2581 H   0  0  0  0  0  0  0  0  0  0  0  0
  139.9806   81.8324  223.7524 H   0  0  0  0  0  0  0  0  0  0  0  0
  142.2884   82.6858  224.0099 H   0  0  0  0  0  0  0  0  0  0  0  0
  144.2222   81.1609  223.6119 H   0  0  0  0  0  0  0  0  0  0  0  0
  143.8122   78.8016  222.9715 H   0  0  0  0  0  0  0  0  0  0  0  0
  1  2  2  0
  2  3  1  0
  3  4  1  0
  4  5  1  0
  5  6  2  0
  5  7  1  0
  7  8  1  0
  8  9  1  0
  9 10  1  0
  9 11  1  0
 11 12  1  0
 12 13  1  0
 13 14  2  0
 14 15  1  0
 15 16  2  0
 16 17  1  0
 17 18  2  0
  2 19  1  0
 19 20  2  0
 20 21  1  0
 21 22  2  0
 22 23  1  0
 23 24  2  0
 24 25  1  0
 25 26  2  0
 26 27  1  0
 27 28  2  0
 12  7  1  0
 18 13  1  0
 28 19  1  0
 27 22  1  0
  3 29  1  0
  4 30  1  0
  4 31  1  0
  8 32  1  0
  8 33  1  0
  9 34  1  6
 10 35  1  0
 11 36  1  0
 11 37  1  0
 12 38  1  1
 15 39  1  0
 16 40  1  0
 17 41  1  0
 20 42  1  0
 21 43  1  0
 23 44  1  0
 24 45  1  0
 25 46  1  0
 26 47  1  0
M  END
>  <smiles>  (36) 
O=C(NCC(=O)N1C[C@H](O)C[C@H]1c1ncccn1)c1ccc2ccccc2n1

>  <score_type>  (36) 
oracle

>  <origin>  (36) 
autodockgpu

>  <m_score__min__energy>  (36) 
-8.4700000000000006

>  <m_primary>  (36) 
energy

>  <rmsd>  (36) 
7.342895907298789

>  <m_score__min__rmsd>  (36) 
7.342895907298789

>  <meeko>  (36) 
{"free_energy": -7.38, "intermolecular_energy": -9.17, "internal_energy": -2.72, "cluster_size": 40, "cluster_id": 3, "rank_in_cluster": 13}

>  <energy>  (36) 
-7.21

>  <cluster_rmsd>  (36) 
1.09

>  <cluster>  (36) 
3

$$$$

     RDKit          3D

 47 50  0  0  0  0  0  0  0  0999 V2000
  139.2290   74.5060  222.3410 O   0  0  0  0  0  0  0  0  0  0  0  0
  139.9120   75.2950  221.6440 C   0  0  0  0  0  0  0  0  0  0  0  0
  140.5540   74.9340  220.4320 N   0  0  0  0  0  0  0  0  0  0  0  0
  140.4520   73.5600  219.9000 C   0  0  0  0  0  0  0  0  0  0  0  0
  141.6420   72.7870  220.2570 C   0  0  0  0  0  0  0  0  0  0  0  0
  141.4270   71.5390  220.5250 O   0  0  0  0  0  0  0  0  0  0  0  0
  142.9760   73.1900  220.3520 N   0  0  0  0  0  0  0  0  0  0  0  0
  143.9980   72.1940  220.8230 C   0  0  0  0  0  0  0  0  0  0  0  0
  145.2230   72.5480  220.0110 C   0  0  2  0  0  0  0  0  0  0  0  0
  146.2700   72.9640  220.8560 O   0  0  0  0  0  0  0  0  0  0  0  0
  144.8280   73.7360  219.1620 C   0  0  0  0  0  0  0  0  0  0  0  0
  143.7590   74.3540  220.1020 C   0  0  1  0  0  0  0  0  0  0  0  0
  143.1450   75.5150  219.4830 C   0  0  0  0  0  0  0  0  0  0  0  0
  142.5900   75.3290  218.2350 N   0  0  0  0  0  0  0  0  0  0  0  0
  142.0160   76.3180  217.5470 C   0  0  0  0  0  0  0  0  0  0  0  0
  141.9560   77.5920  218.0700 C   0  0  0  0  0  0  0  0  0  0  0  0
  142.5050   77.8010  219.3180 C   0  0  0  0  0  0  0  0  0  0  0  0
  143.0650   76.7540  219.9500 N   0  0  0  0  0  0  0  0  0  0  0  0
  140.0580   76.6860  222.1130 C   0  0  0  0  0  0  0  0  0  0  0  0
  138.9620   77.4320  222.4830 C   0  0  0  0  0  0  0  0  0  0  0  0
  139.0200   78.7250  222.9280 C   0  0  0  0  0  0  0  0  0  0  0  0
  140.2670   79.3140  223.0060 C   0  0  0  0  0  0  0  0  0  0  0  0
  140.3580   80.6200  223.4500 C   0  0  0  0  0  0  0  0  0  0  0  0
  141.5850   81.2200  223.5360 C   0  0  0  0  0  0  0  0  0  0  0  0
  142.7240   80.5150  223.1740 C   0  0  0  0  0  0  0  0  0  0  0  0
  142.5980   79.2020  222.7310 C   0  0  0  0  0  0  0  0  0  0  0  0
  141.3770   78.5700  222.6350 C   0  0  0  0  0  0  0  0  0  0  0  0
  141.2600   77.2860  222.2000 N   0  0  0  0  0  0  0  0  0  0  0  0
  141.1090   75.6570  219.9080 H   0  0  0  0  0  0  0  0  0  0  0  0
  139.5618   73.0721  220.3237 H   0  0  0  0  0  0  0  0  0  0  0  0
  140.3710   73.6060  218.8039 H   0  0  0  0  0  0  0  0  0  0  0  0
  144.1921   72.3069  221.8998 H   0  0  0  0  0  0  0  0  0  0  0  0
  143.6777   71.1502  220.6889 H   0  0  0  0  0  0  0  0  0  0  0  0
  145.5586   71.6818  219.4218 H   0  0  0  0  0  0  0  0  0  0  0  0
  146.4290   72.2720  221.5740 H   0  0  0  0  0  0  0  0  0  0  0  0
  145.6721   74.4200  218.9898 H   0  0  0  0  0  0  0  0  0  0  0  0
  144.4857   73.4995  218.1437 H   0  0  0  0  0  0  0  0  0  0  0  0
  144.0730   74.8141  221.0506 H   0  0  0  0  0  0  0  0  0  0  0  0
  141.5873   76.1149  216.5545 H   0  0  0  0  0  0  0  0  0  0  0  0
  141.4860   78.4144  217.5108 H   0  0  0  0  0  0  0  0  0  0  0  0
  142.4854   78.7973  219.7839 H   0  0  0  0  0  0  0  0  0  0  0  0
  137.9722   76.9567  222.4165 H   0  0  0  0  0  0  0  0  0  0  0  0
  138.1098   79.2733  223.2122 H   0  0  0  0  0  0  0  0  0  0  0  0
  139.4502   81.1733  223.7323 H   0  0  0  0  0  0  0  0  0  0  0  0
  141.6680   82.2578  223.8910 H   0  0  0  0  0  0  0  0  0  0  0  0
  143.7149   80.9885  223.2365 H   0  0  0  0  0  0  0  0  0  0  0  0
  143.5054   78.6486  222.4473 H   0  0  0  0  0  0  0  0  0  0  0  0
  1  2  2  0
  2  3  1  0
  3  4  1  0
  4  5  1  0
  5  6  2  0
  5  7  1  0
  7  8  1  0
  8  9  1  0
  9 10  1  0
  9 11  1  0
 11 12  1  0
 12 13  1  0
 13 14  2  0
 14 15  1  0
 15 16  2  0
 16 17  1  0
 17 18  2  0
  2 19  1  0
 19 20  2  0
 20 21  1  0
 21 22  2  0
 22 23  1  0
 23 24  2  0
 24 25  1  0
 25 26  2  0
 26 27  1  0
 27 28  2  0
 12  7  1  0
 18 13  1  0
 28 19  1  0
 27 22  1  0
  3 29  1  0
  4 30  1  0
  4 31  1  0
  8 32  1  0
  8 33  1  0
  9 34  1  6
 10 35  1  0
 11 36  1  0
 11 37  1  0
 12 38  1  1
 15 39  1  0
 16 40  1  0
 17 41  1  0
 20 42  1  0
 21 43  1  0
 23 44  1  0
 24 45  1  0
 25 46  1  0
 26 47  1  0
M  END
>  <smiles>  (37) 
O=C(NCC(=O)N1C[C@H](O)C[C@H]1c1ncccn1)c1ccc2ccccc2n1

>  <score_type>  (37) 
oracle

>  <origin>  (37) 
autodockgpu

>  <m_score__min__energy>  (37) 
-8.4700000000000006

>  <m_primary>  (37) 
energy

>  <rmsd>  (37) 
7.241773353965191

>  <m_score__min__rmsd>  (37) 
7.241773353965191

>  <meeko>  (37) 
{"free_energy": -6.78, "intermolecular_energy": -8.56, "internal_energy": -3.03, "cluster_size": 40, "cluster_id": 3, "rank_in_cluster": 39}

>  <energy>  (37) 
-7.15

>  <cluster_rmsd>  (37) 
1.06

>  <cluster>  (37) 
3

$$$$

     RDKit          3D

 47 50  0  0  0  0  0  0  0  0999 V2000
  138.7740   75.4700  221.9190 O   0  0  0  0  0  0  0  0  0  0  0  0
  139.9560   75.8910  221.9150 C   0  0  0  0  0  0  0  0  0  0  0  0
  141.0700   75.1320  221.4710 N   0  0  0  0  0  0  0  0  0  0  0  0
  140.8970   73.7540  220.9700 C   0  0  0  0  0  0  0  0  0  0  0  0
  142.1830   73.0560  220.9490 C   0  0  0  0  0  0  0  0  0  0  0  0
  142.1820   71.8860  221.5050 O   0  0  0  0  0  0  0  0  0  0  0  0
  143.4120   73.4580  220.4210 N   0  0  0  0  0  0  0  0  0  0  0  0
  144.5970   72.5470  220.5770 C   0  0  0  0  0  0  0  0  0  0  0  0
  145.3590   72.7500  219.2870 C   0  0  2  0  0  0  0  0  0  0  0  0
  146.6320   73.2940  219.5480 O   0  0  0  0  0  0  0  0  0  0  0  0
  144.5790   73.7820  218.5030 C   0  0  0  0  0  0  0  0  0  0  0  0
  143.9500   74.5570  219.6910 C   0  0  1  0  0  0  0  0  0  0  0  0
  143.0670   75.6020  219.2080 C   0  0  0  0  0  0  0  0  0  0  0  0
  142.9900   76.7480  219.9720 N   0  0  0  0  0  0  0  0  0  0  0  0
  142.1970   77.7740  219.6540 C   0  0  0  0  0  0  0  0  0  0  0  0
  141.4080   77.7260  218.5250 C   0  0  0  0  0  0  0  0  0  0  0  0
  141.4700   76.5890  217.7460 C   0  0  0  0  0  0  0  0  0  0  0  0
  142.2930   75.5980  218.1310 N   0  0  0  0  0  0  0  0  0  0  0  0
  140.2060   77.2600  222.4020 C   0  0  0  0  0  0  0  0  0  0  0  0
  139.1670   78.0940  222.7490 C   0  0  0  0  0  0  0  0  0  0  0  0
  139.3220   79.3740  223.2070 C   0  0  0  0  0  0  0  0  0  0  0  0
  140.6110   79.8540  223.3270 C   0  0  0  0  0  0  0  0  0  0  0  0
  140.8010   81.1440  223.7860 C   0  0  0  0  0  0  0  0  0  0  0  0
  142.0710   81.6370  223.9120 C   0  0  0  0  0  0  0  0  0  0  0  0
  143.1550   80.8400  223.5750 C   0  0  0  0  0  0  0  0  0  0  0  0
  142.9320   79.5460  223.1160 C   0  0  0  0  0  0  0  0  0  0  0  0
  141.6640   79.0220  222.9790 C   0  0  0  0  0  0  0  0  0  0  0  0
  141.4510   77.7550  222.5280 N   0  0  0  0  0  0  0  0  0  0  0  0
  142.0290   75.5600  221.5020 H   0  0  0  0  0  0  0  0  0  0  0  0
  140.2013   73.2132  221.6284 H   0  0  0  0  0  0  0  0  0  0  0  0
  140.4944   73.7931  219.9471 H   0  0  0  0  0  0  0  0  0  0  0  0
  145.2066   72.8374  221.4454 H   0  0  0  0  0  0  0  0  0  0  0  0
  144.3155   71.4981  220.7520 H   0  0  0  0  0  0  0  0  0  0  0  0
  145.4776   71.7946  218.7550 H   0  0  0  0  0  0  0  0  0  0  0  0
  146.6440   74.2730  219.3000 H   0  0  0  0  0  0  0  0  0  0  0  0
  145.2352   74.4210  217.8938 H   0  0  0  0  0  0  0  0  0  0  0  0
  143.8666   73.3808  217.7671 H   0  0  0  0  0  0  0  0  0  0  0  0
  144.5940   75.1675  220.3410 H   0  0  0  0  0  0  0  0  0  0  0  0
  142.1732   78.6651  220.2985 H   0  0  0  0  0  0  0  0  0  0  0  0
  140.7511   78.5657  218.2542 H   0  0  0  0  0  0  0  0  0  0  0  0
  140.8621   76.4957  216.8340 H   0  0  0  0  0  0  0  0  0  0  0  0
  138.1428   77.7049  222.6514 H   0  0  0  0  0  0  0  0  0  0  0  0
  138.4537   79.9962  223.4693 H   0  0  0  0  0  0  0  0  0  0  0  0
  139.9359   81.7707  224.0485 H   0  0  0  0  0  0  0  0  0  0  0  0
  142.2318   82.6614  224.2791 H   0  0  0  0  0  0  0  0  0  0  0  0
  144.1802   81.2272  223.6697 H   0  0  0  0  0  0  0  0  0  0  0  0
  143.7969   78.9192  222.8533 H   0  0  0  0  0  0  0  0  0  0  0  0
  1  2  2  0
  2  3  1  0
  3  4  1  0
  4  5  1  0
  5  6  2  0
  5  7  1  0
  7  8  1  0
  8  9  1  0
  9 10  1  0
  9 11  1  0
 11 12  1  0
 12 13  1  0
 13 14  2  0
 14 15  1  0
 15 16  2  0
 16 17  1  0
 17 18  2  0
  2 19  1  0
 19 20  2  0
 20 21  1  0
 21 22  2  0
 22 23  1  0
 23 24  2  0
 24 25  1  0
 25 26  2  0
 26 27  1  0
 27 28  2  0
 12  7  1  0
 18 13  1  0
 28 19  1  0
 27 22  1  0
  3 29  1  0
  4 30  1  0
  4 31  1  0
  8 32  1  0
  8 33  1  0
  9 34  1  6
 10 35  1  0
 11 36  1  0
 11 37  1  0
 12 38  1  1
 15 39  1  0
 16 40  1  0
 17 41  1  0
 20 42  1  0
 21 43  1  0
 23 44  1  0
 24 45  1  0
 25 46  1  0
 26 47  1  0
M  END
>  <smiles>  (38) 
O=C(NCC(=O)N1C[C@H](O)C[C@H]1c1ncccn1)c1ccc2ccccc2n1

>  <score_type>  (38) 
oracle

>  <origin>  (38) 
autodockgpu

>  <m_score__min__energy>  (38) 
-8.4700000000000006

>  <m_primary>  (38) 
energy

>  <rmsd>  (38) 
7.398648792626547

>  <m_score__min__rmsd>  (38) 
7.398648792626547

>  <meeko>  (38) 
{"free_energy": -7.47, "intermolecular_energy": -9.26, "internal_energy": -2.81, "cluster_size": 40, "cluster_id": 3, "rank_in_cluster": 7}

>  <energy>  (38) 
-7.09

>  <cluster_rmsd>  (38) 
0.53

>  <cluster>  (38) 
3

$$$$

     RDKit          3D

 47 50  0  0  0  0  0  0  0  0999 V2000
  139.9360   75.5390  222.6960 O   0  0  0  0  0  0  0  0  0  0  0  0
  140.5050   76.1680  221.7720 C   0  0  0  0  0  0  0  0  0  0  0  0
  140.8920   75.5880  220.5360 N   0  0  0  0  0  0  0  0  0  0  0  0
  140.6400   74.1600  220.2570 C   0  0  0  0  0  0  0  0  0  0  0  0
  141.8720   73.3860  220.4140 C   0  0  0  0  0  0  0  0  0  0  0  0
  141.7620   72.3200  221.1410 O   0  0  0  0  0  0  0  0  0  0  0  0
  143.1500   73.6220  219.9010 N   0  0  0  0  0  0  0  0  0  0  0  0
  144.1900   72.5450  220.0350 C   0  0  0  0  0  0  0  0  0  0  0  0
  144.9820   72.6710  218.7530 C   0  0  2  0  0  0  0  0  0  0  0  0
  146.3180   73.0190  219.0320 O   0  0  0  0  0  0  0  0  0  0  0  0
  144.3640   73.8250  217.9960 C   0  0  0  0  0  0  0  0  0  0  0  0
  143.8450   74.6510  219.2020 C   0  0  1  0  0  0  0  0  0  0  0  0
  143.1240   75.8240  218.7450 C   0  0  0  0  0  0  0  0  0  0  0  0
  142.1410   75.6180  217.8010 N   0  0  0  0  0  0  0  0  0  0  0  0
  141.4210   76.6130  217.2810 C   0  0  0  0  0  0  0  0  0  0  0  0
  141.6380   77.9160  217.6760 C   0  0  0  0  0  0  0  0  0  0  0  0
  142.6170   78.1460  218.6200 C   0  0  0  0  0  0  0  0  0  0  0  0
  143.3000   77.0910  219.0990 N   0  0  0  0  0  0  0  0  0  0  0  0
  140.7890   77.6000  221.9790 C   0  0  0  0  0  0  0  0  0  0  0  0
  141.1990   78.0750  223.2040 C   0  0  0  0  0  0  0  0  0  0  0  0
  141.4810   79.3880  223.4710 C   0  0  0  0  0  0  0  0  0  0  0  0
  141.3420   80.2900  222.4350 C   0  0  0  0  0  0  0  0  0  0  0  0
  141.6180   81.6240  222.6730 C   0  0  0  0  0  0  0  0  0  0  0  0
  141.4870   82.5330  221.6580 C   0  0  0  0  0  0  0  0  0  0  0  0
  141.0750   82.1090  220.4030 C   0  0  0  0  0  0  0  0  0  0  0  0
  140.8050   80.7600  220.1950 C   0  0  0  0  0  0  0  0  0  0  0  0
  140.9290   79.8210  221.1970 C   0  0  0  0  0  0  0  0  0  0  0  0
  140.6620   78.5020  220.9890 N   0  0  0  0  0  0  0  0  0  0  0  0
  141.3660   76.1860  219.8130 H   0  0  0  0  0  0  0  0  0  0  0  0
  139.8820   73.7816  220.9586 H   0  0  0  0  0  0  0  0  0  0  0  0
  140.2817   74.0557  219.2222 H   0  0  0  0  0  0  0  0  0  0  0  0
  144.8292   72.7205  220.9128 H   0  0  0  0  0  0  0  0  0  0  0  0
  143.7588   71.5435  220.1800 H   0  0  0  0  0  0  0  0  0  0  0  0
  144.9655   71.7230  218.1953 H   0  0  0  0  0  0  0  0  0  0  0  0
  146.4320   74.0210  218.9730 H   0  0  0  0  0  0  0  0  0  0  0  0
  145.1095   74.3787  217.4063 H   0  0  0  0  0  0  0  0  0  0  0  0
  143.6060   73.5500  217.2478 H   0  0  0  0  0  0  0  0  0  0  0  0
  144.5659   75.1457  219.8695 H   0  0  0  0  0  0  0  0  0  0  0  0
  140.6475   76.3922  216.5307 H   0  0  0  0  0  0  0  0  0  0  0  0
  141.0504   78.7440  217.2527 H   0  0  0  0  0  0  0  0  0  0  0  0
  142.8335   79.1655  218.9718 H   0  0  0  0  0  0  0  0  0  0  0  0
  141.3075   77.3504  224.0245 H   0  0  0  0  0  0  0  0  0  0  0  0
  141.8054   79.7113  224.4711 H   0  0  0  0  0  0  0  0  0  0  0  0
  141.9408   81.9526  223.6719 H   0  0  0  0  0  0  0  0  0  0  0  0
  141.7076   83.5957  221.8368 H   0  0  0  0  0  0  0  0  0  0  0  0
  140.9630   82.8315  219.5812 H   0  0  0  0  0  0  0  0  0  0  0  0
  140.4813   80.4312  219.1964 H   0  0  0  0  0  0  0  0  0  0  0  0
  1  2  2  0
  2  3  1  0
  3  4  1  0
  4  5  1  0
  5  6  2  0
  5  7  1  0
  7  8  1  0
  8  9  1  0
  9 10  1  0
  9 11  1  0
 11 12  1  0
 12 13  1  0
 13 14  2  0
 14 15  1  0
 15 16  2  0
 16 17  1  0
 17 18  2  0
  2 19  1  0
 19 20  2  0
 20 21  1  0
 21 22  2  0
 22 23  1  0
 23 24  2  0
 24 25  1  0
 25 26  2  0
 26 27  1  0
 27 28  2  0
 12  7  1  0
 18 13  1  0
 28 19  1  0
 27 22  1  0
  3 29  1  0
  4 30  1  0
  4 31  1  0
  8 32  1  0
  8 33  1  0
  9 34  1  6
 10 35  1  0
 11 36  1  0
 11 37  1  0
 12 38  1  1
 15 39  1  0
 16 40  1  0
 17 41  1  0
 20 42  1  0
 21 43  1  0
 23 44  1  0
 24 45  1  0
 25 46  1  0
 26 47  1  0
M  END
>  <smiles>  (39) 
O=C(NCC(=O)N1C[C@H](O)C[C@H]1c1ncccn1)c1ccc2ccccc2n1

>  <score_type>  (39) 
oracle

>  <origin>  (39) 
autodockgpu

>  <m_score__min__energy>  (39) 
-8.4700000000000006

>  <m_primary>  (39) 
energy

>  <rmsd>  (39) 
8.035778780354887

>  <m_score__min__rmsd>  (39) 
8.035778780354887

>  <meeko>  (39) 
{"free_energy": -6.37, "intermolecular_energy": -8.16, "internal_energy": -3.1, "cluster_size": 40, "cluster_id": 3, "rank_in_cluster": 40}

>  <energy>  (39) 
-7.0

>  <cluster_rmsd>  (39) 
0.81

>  <cluster>  (39) 
3

$$$$

     RDKit          3D

 47 50  0  0  0  0  0  0  0  0999 V2000
  138.7500   75.2280  222.2710 O   0  0  0  0  0  0  0  0  0  0  0  0
  139.9220   75.6750  222.2400 C   0  0  0  0  0  0  0  0  0  0  0  0
  141.0630   74.8940  221.9200 N   0  0  0  0  0  0  0  0  0  0  0  0
  140.9330   73.4610  221.5920 C   0  0  0  0  0  0  0  0  0  0  0  0
  141.7360   73.1340  220.4120 C   0  0  0  0  0  0  0  0  0  0  0  0
  141.0690   72.6550  219.4110 O   0  0  0  0  0  0  0  0  0  0  0  0
  143.1110   73.2620  220.2010 N   0  0  0  0  0  0  0  0  0  0  0  0
  143.9930   72.0740  220.4670 C   0  0  0  0  0  0  0  0  0  0  0  0
  145.0540   72.1880  219.3960 C   0  0  2  0  0  0  0  0  0  0  0  0
  146.3230   72.3750  219.9780 O   0  0  0  0  0  0  0  0  0  0  0  0
  144.7250   73.4430  218.6180 C   0  0  0  0  0  0  0  0  0  0  0  0
  144.0330   74.2490  219.7490 C   0  0  1  0  0  0  0  0  0  0  0  0
  143.5400   75.5170  219.2450 C   0  0  0  0  0  0  0  0  0  0  0  0
  142.8100   76.2900  220.1230 N   0  0  0  0  0  0  0  0  0  0  0  0
  142.2790   77.4650  219.7800 C   0  0  0  0  0  0  0  0  0  0  0  0
  142.4450   77.9620  218.5050 C   0  0  0  0  0  0  0  0  0  0  0  0
  143.1720   77.2060  217.6090 C   0  0  0  0  0  0  0  0  0  0  0  0
  143.6760   76.0320  218.0300 N   0  0  0  0  0  0  0  0  0  0  0  0
  140.1300   77.1000  222.5550 C   0  0  0  0  0  0  0  0  0  0  0  0
  139.0650   77.9600  222.7010 C   0  0  0  0  0  0  0  0  0  0  0  0
  139.1800   79.2920  222.9930 C   0  0  0  0  0  0  0  0  0  0  0  0
  140.4540   79.8000  223.1520 C   0  0  0  0  0  0  0  0  0  0  0  0
  140.6030   81.1420  223.4470 C   0  0  0  0  0  0  0  0  0  0  0  0
  141.8580   81.6630  223.6080 C   0  0  0  0  0  0  0  0  0  0  0  0
  142.9670   80.8420  223.4720 C   0  0  0  0  0  0  0  0  0  0  0  0
  142.7840   79.4950  223.1740 C   0  0  0  0  0  0  0  0  0  0  0  0
  141.5330   78.9410  223.0070 C   0  0  0  0  0  0  0  0  0  0  0  0
  141.3590   77.6230  222.7150 N   0  0  0  0  0  0  0  0  0  0  0  0
  142.0120   75.3470  221.9170 H   0  0  0  0  0  0  0  0  0  0  0  0
  141.2811   72.8605  222.4454 H   0  0  0  0  0  0  0  0  0  0  0  0
  139.8772   73.2374  221.3790 H   0  0  0  0  0  0  0  0  0  0  0  0
  144.4382   72.1297  221.4714 H   0  0  0  0  0  0  0  0  0  0  0  0
  143.4504   71.1176  220.4381 H   0  0  0  0  0  0  0  0  0  0  0  0
  145.0728   71.2805  218.7746 H   0  0  0  0  0  0  0  0  0  0  0  0
  146.3720   71.8850  220.8600 H   0  0  0  0  0  0  0  0  0  0  0  0
  145.6289   73.9469  218.2450 H   0  0  0  0  0  0  0  0  0  0  0  0
  144.1271   73.2939  217.7068 H   0  0  0  0  0  0  0  0  0  0  0  0
  144.6333   74.6244  220.5908 H   0  0  0  0  0  0  0  0  0  0  0  0
  141.7045   78.0414  220.5201 H   0  0  0  0  0  0  0  0  0  0  0  0
  142.0120   78.9297  218.2117 H   0  0  0  0  0  0  0  0  0  0  0  0
  143.3351   77.5537  216.5782 H   0  0  0  0  0  0  0  0  0  0  0  0
  138.0528   77.5485  222.5744 H   0  0  0  0  0  0  0  0  0  0  0  0
  138.2921   79.9330  223.0970 H   0  0  0  0  0  0  0  0  0  0  0  0
  139.7183   81.7872  223.5517 H   0  0  0  0  0  0  0  0  0  0  0  0
  141.9866   82.7295  223.8445 H   0  0  0  0  0  0  0  0  0  0  0  0
  143.9803   81.2509  223.5983 H   0  0  0  0  0  0  0  0  0  0  0  0
  143.6686   78.8499  223.0680 H   0  0  0  0  0  0  0  0  0  0  0  0
  1  2  2  0
  2  3  1  0
  3  4  1  0
  4  5  1  0
  5  6  2  0
  5  7  1  0
  7  8  1  0
  8  9  1  0
  9 10  1  0
  9 11  1  0
 11 12  1  0
 12 13  1  0
 13 14  2  0
 14 15  1  0
 15 16  2  0
 16 17  1  0
 17 18  2  0
  2 19  1  0
 19 20  2  0
 20 21  1  0
 21 22  2  0
 22 23  1  0
 23 24  2  0
 24 25  1  0
 25 26  2  0
 26 27  1  0
 27 28  2  0
 12  7  1  0
 18 13  1  0
 28 19  1  0
 27 22  1  0
  3 29  1  0
  4 30  1  0
  4 31  1  0
  8 32  1  0
  8 33  1  0
  9 34  1  6
 10 35  1  0
 11 36  1  0
 11 37  1  0
 12 38  1  1
 15 39  1  0
 16 40  1  0
 17 41  1  0
 20 42  1  0
 21 43  1  0
 23 44  1  0
 24 45  1  0
 25 46  1  0
 26 47  1  0
M  END
>  <smiles>  (40) 
O=C(NCC(=O)N1C[C@H](O)C[C@H]1c1ncccn1)c1ccc2ccccc2n1

>  <score_type>  (40) 
oracle

>  <origin>  (40) 
autodockgpu

>  <m_score__min__energy>  (40) 
-8.4700000000000006

>  <m_primary>  (40) 
energy

>  <rmsd>  (40) 
7.3725789961661565

>  <m_score__min__rmsd>  (40) 
7.3725789961661565

>  <meeko>  (40) 
{"free_energy": -7.35, "intermolecular_energy": -9.14, "internal_energy": -2.71, "cluster_size": 40, "cluster_id": 3, "rank_in_cluster": 19}

>  <energy>  (40) 
-6.99

>  <cluster_rmsd>  (40) 
0.82

>  <cluster>  (40) 
3

$$$$

     RDKit          3D

 47 50  0  0  0  0  0  0  0  0999 V2000
  139.3540   74.5310  222.3540 O   0  0  0  0  0  0  0  0  0  0  0  0
  139.9890   75.3320  221.6270 C   0  0  0  0  0  0  0  0  0  0  0  0
  140.5940   74.9790  220.3930 N   0  0  0  0  0  0  0  0  0  0  0  0
  140.5100   73.5990  219.8750 C   0  0  0  0  0  0  0  0  0  0  0  0
  141.6860   72.8300  220.2850 C   0  0  0  0  0  0  0  0  0  0  0  0
  141.4510   71.5980  220.6090 O   0  0  0  0  0  0  0  0  0  0  0  0
  143.0230   73.2210  220.3790 N   0  0  0  0  0  0  0  0  0  0  0  0
  144.0360   72.2150  220.8490 C   0  0  0  0  0  0  0  0  0  0  0  0
  145.2640   72.5580  220.0350 C   0  0  2  0  0  0  0  0  0  0  0  0
  146.3160   72.9650  220.8790 O   0  0  0  0  0  0  0  0  0  0  0  0
  144.8790   73.7490  219.1860 C   0  0  0  0  0  0  0  0  0  0  0  0
  143.8160   74.3770  220.1260 C   0  0  1  0  0  0  0  0  0  0  0  0
  143.2120   75.5430  219.5080 C   0  0  0  0  0  0  0  0  0  0  0  0
  142.7160   75.3790  218.2330 N   0  0  0  0  0  0  0  0  0  0  0  0
  142.1580   76.3760  217.5420 C   0  0  0  0  0  0  0  0  0  0  0  0
  142.0540   77.6360  218.0920 C   0  0  0  0  0  0  0  0  0  0  0  0
  142.5430   77.8220  219.3680 C   0  0  0  0  0  0  0  0  0  0  0  0
  143.0910   76.7690  220.0000 N   0  0  0  0  0  0  0  0  0  0  0  0
  140.1140   76.7300  222.0800 C   0  0  0  0  0  0  0  0  0  0  0  0
  139.0040   77.4790  222.3980 C   0  0  0  0  0  0  0  0  0  0  0  0
  139.0430   78.7790  222.8240 C   0  0  0  0  0  0  0  0  0  0  0  0
  140.2840   79.3720  222.9410 C   0  0  0  0  0  0  0  0  0  0  0  0
  140.3560   80.6840  223.3690 C   0  0  0  0  0  0  0  0  0  0  0  0
  141.5780   81.2890  223.4910 C   0  0  0  0  0  0  0  0  0  0  0  0
  142.7300   80.5810  223.1820 C   0  0  0  0  0  0  0  0  0  0  0  0
  142.6240   79.2620  222.7550 C   0  0  0  0  0  0  0  0  0  0  0  0
  141.4080   78.6260  222.6220 C   0  0  0  0  0  0  0  0  0  0  0  0
  141.3100   77.3350  222.2020 N   0  0  0  0  0  0  0  0  0  0  0  0
  141.1090   75.7120  219.8440 H   0  0  0  0  0  0  0  0  0  0  0  0
  139.6046   73.1168  220.2722 H   0  0  0  0  0  0  0  0  0  0  0  0
  140.4687   73.6311  218.7762 H   0  0  0  0  0  0  0  0  0  0  0  0
  144.2324   72.3259  221.9256 H   0  0  0  0  0  0  0  0  0  0  0  0
  143.7057   71.1743  220.7154 H   0  0  0  0  0  0  0  0  0  0  0  0
  145.5911   71.6886  219.4457 H   0  0  0  0  0  0  0  0  0  0  0  0
  146.4710   72.2690  221.5940 H   0  0  0  0  0  0  0  0  0  0  0  0
  145.7291   74.4254  219.0131 H   0  0  0  0  0  0  0  0  0  0  0  0
  144.5340   73.5150  218.1681 H   0  0  0  0  0  0  0  0  0  0  0  0
  144.1354   74.8351  221.0737 H   0  0  0  0  0  0  0  0  0  0  0  0
  141.7784   76.1907  216.5263 H   0  0  0  0  0  0  0  0  0  0  0  0
  141.5965   78.4649  217.5320 H   0  0  0  0  0  0  0  0  0  0  0  0
  142.4863   78.8061  219.8562 H   0  0  0  0  0  0  0  0  0  0  0  0
  138.0183   77.0001  222.3033 H   0  0  0  0  0  0  0  0  0  0  0  0
  138.1215   79.3298  223.0638 H   0  0  0  0  0  0  0  0  0  0  0  0
  139.4372   81.2387  223.6102 H   0  0  0  0  0  0  0  0  0  0  0  0
  141.6460   82.3324  223.8327 H   0  0  0  0  0  0  0  0  0  0  0  0
  143.7170   81.0579  223.2738 H   0  0  0  0  0  0  0  0  0  0  0  0
  143.5425   78.7065  222.5149 H   0  0  0  0  0  0  0  0  0  0  0  0
  1  2  2  0
  2  3  1  0
  3  4  1  0
  4  5  1  0
  5  6  2  0
  5  7  1  0
  7  8  1  0
  8  9  1  0
  9 10  1  0
  9 11  1  0
 11 12  1  0
 12 13  1  0
 13 14  2  0
 14 15  1  0
 15 16  2  0
 16 17  1  0
 17 18  2  0
  2 19  1  0
 19 20  2  0
 20 21  1  0
 21 22  2  0
 22 23  1  0
 23 24  2  0
 24 25  1  0
 25 26  2  0
 26 27  1  0
 27 28  2  0
 12  7  1  0
 18 13  1  0
 28 19  1  0
 27 22  1  0
  3 29  1  0
  4 30  1  0
  4 31  1  0
  8 32  1  0
  8 33  1  0
  9 34  1  6
 10 35  1  0
 11 36  1  0
 11 37  1  0
 12 38  1  1
 15 39  1  0
 16 40  1  0
 17 41  1  0
 20 42  1  0
 21 43  1  0
 23 44  1  0
 24 45  1  0
 25 46  1  0
 26 47  1  0
M  END
>  <smiles>  (41) 
O=C(NCC(=O)N1C[C@H](O)C[C@H]1c1ncccn1)c1ccc2ccccc2n1

>  <score_type>  (41) 
oracle

>  <origin>  (41) 
autodockgpu

>  <m_score__min__energy>  (41) 
-8.4700000000000006

>  <m_primary>  (41) 
energy

>  <rmsd>  (41) 
7.2834001326091675

>  <m_score__min__rmsd>  (41) 
7.2834001326091675

>  <meeko>  (41) 
{"free_energy": -6.81, "intermolecular_energy": -8.6, "internal_energy": -2.99, "cluster_size": 40, "cluster_id": 3, "rank_in_cluster": 38}

>  <energy>  (41) 
-6.99

>  <cluster_rmsd>  (41) 
0.55

>  <cluster>  (41) 
3

$$$$

     RDKit          3D

 47 50  0  0  0  0  0  0  0  0999 V2000
  138.6290   75.4790  222.3190 O   0  0  0  0  0  0  0  0  0  0  0  0
  139.7950   75.8910  222.1090 C   0  0  0  0  0  0  0  0  0  0  0  0
  140.8210   75.1100  221.5180 N   0  0  0  0  0  0  0  0  0  0  0  0
  140.5670   73.7180  221.0990 C   0  0  0  0  0  0  0  0  0  0  0  0
  141.8320   73.0240  220.8480 C   0  0  0  0  0  0  0  0  0  0  0  0
  141.7760   71.7330  220.9310 O   0  0  0  0  0  0  0  0  0  0  0  0
  143.0900   73.5430  220.5330 N   0  0  0  0  0  0  0  0  0  0  0  0
  144.3060   72.7060  220.8180 C   0  0  0  0  0  0  0  0  0  0  0  0
  145.2310   73.0420  219.6700 C   0  0  2  0  0  0  0  0  0  0  0  0
  146.4060   73.6540  220.1470 O   0  0  0  0  0  0  0  0  0  0  0  0
  144.4960   74.0650  218.8320 C   0  0  0  0  0  0  0  0  0  0  0  0
  143.6430   74.7200  219.9500 C   0  0  1  0  0  0  0  0  0  0  0  0
  142.7620   75.7300  219.3950 C   0  0  0  0  0  0  0  0  0  0  0  0
  142.7380   76.9500  220.0380 N   0  0  0  0  0  0  0  0  0  0  0  0
  141.9540   77.9560  219.6450 C   0  0  0  0  0  0  0  0  0  0  0  0
  141.1200   77.8100  218.5570 C   0  0  0  0  0  0  0  0  0  0  0  0
  141.1280   76.5980  217.8990 C   0  0  0  0  0  0  0  0  0  0  0  0
  141.9460   75.6320  218.3540 N   0  0  0  0  0  0  0  0  0  0  0  0
  140.1220   77.2750  222.5010 C   0  0  0  0  0  0  0  0  0  0  0  0
  139.1320   78.1940  222.7650 C   0  0  0  0  0  0  0  0  0  0  0  0
  139.3590   79.4920  223.1340 C   0  0  0  0  0  0  0  0  0  0  0  0
  140.6730   79.9000  223.2470 C   0  0  0  0  0  0  0  0  0  0  0  0
  140.9350   81.2060  223.6160 C   0  0  0  0  0  0  0  0  0  0  0  0
  142.2320   81.6280  223.7340 C   0  0  0  0  0  0  0  0  0  0  0  0
  143.2690   80.7430  223.4780 C   0  0  0  0  0  0  0  0  0  0  0  0
  142.9730   79.4360  223.1080 C   0  0  0  0  0  0  0  0  0  0  0  0
  141.6770   78.9810  222.9820 C   0  0  0  0  0  0  0  0  0  0  0  0
  141.3930   77.7000  222.6190 N   0  0  0  0  0  0  0  0  0  0  0  0
  141.7730   75.5330  221.3770 H   0  0  0  0  0  0  0  0  0  0  0  0
  140.0173   73.1940  221.8948 H   0  0  0  0  0  0  0  0  0  0  0  0
  139.9732   73.7257  220.1731 H   0  0  0  0  0  0  0  0  0  0  0  0
  144.7576   72.9814  221.7825 H   0  0  0  0  0  0  0  0  0  0  0  0
  144.0831   71.6314  220.8931 H   0  0  0  0  0  0  0  0  0  0  0  0
  145.5003   72.1324  219.1131 H   0  0  0  0  0  0  0  0  0  0  0  0
  146.6140   74.4750  219.5960 H   0  0  0  0  0  0  0  0  0  0  0  0
  145.1827   74.7840  218.3614 H   0  0  0  0  0  0  0  0  0  0  0  0
  143.9312   73.6621  217.9784 H   0  0  0  0  0  0  0  0  0  0  0  0
  144.1368   75.3317  220.7194 H   0  0  0  0  0  0  0  0  0  0  0  0
  141.9734   78.9093  220.1936 H   0  0  0  0  0  0  0  0  0  0  0  0
  140.4698   78.6328  218.2248 H   0  0  0  0  0  0  0  0  0  0  0  0
  140.4825   76.4258  217.0251 H   0  0  0  0  0  0  0  0  0  0  0  0
  138.0872   77.8625  222.6731 H   0  0  0  0  0  0  0  0  0  0  0  0
  138.5269   80.1834  223.3329 H   0  0  0  0  0  0  0  0  0  0  0  0
  140.1065   81.9020  223.8136 H   0  0  0  0  0  0  0  0  0  0  0  0
  142.4508   82.6644  224.0305 H   0  0  0  0  0  0  0  0  0  0  0  0
  144.3149   81.0720  223.5668 H   0  0  0  0  0  0  0  0  0  0  0  0
  143.8014   78.7403  222.9087 H   0  0  0  0  0  0  0  0  0  0  0  0
  1  2  2  0
  2  3  1  0
  3  4  1  0
  4  5  1  0
  5  6  2  0
  5  7  1  0
  7  8  1  0
  8  9  1  0
  9 10  1  0
  9 11  1  0
 11 12  1  0
 12 13  1  0
 13 14  2  0
 14 15  1  0
 15 16  2  0
 16 17  1  0
 17 18  2  0
  2 19  1  0
 19 20  2  0
 20 21  1  0
 21 22  2  0
 22 23  1  0
 23 24  2  0
 24 25  1  0
 25 26  2  0
 26 27  1  0
 27 28  2  0
 12  7  1  0
 18 13  1  0
 28 19  1  0
 27 22  1  0
  3 29  1  0
  4 30  1  0
  4 31  1  0
  8 32  1  0
  8 33  1  0
  9 34  1  6
 10 35  1  0
 11 36  1  0
 11 37  1  0
 12 38  1  1
 15 39  1  0
 16 40  1  0
 17 41  1  0
 20 42  1  0
 21 43  1  0
 23 44  1  0
 24 45  1  0
 25 46  1  0
 26 47  1  0
M  END
>  <smiles>  (42) 
O=C(NCC(=O)N1C[C@H](O)C[C@H]1c1ncccn1)c1ccc2ccccc2n1

>  <score_type>  (42) 
oracle

>  <origin>  (42) 
autodockgpu

>  <m_score__min__energy>  (42) 
-8.4700000000000006

>  <m_primary>  (42) 
energy

>  <rmsd>  (42) 
7.358285083558967

>  <m_score__min__rmsd>  (42) 
7.358285083558967

>  <meeko>  (42) 
{"free_energy": -6.83, "intermolecular_energy": -8.62, "internal_energy": -2.85, "cluster_size": 40, "cluster_id": 3, "rank_in_cluster": 36}

>  <energy>  (42) 
-6.99

>  <cluster_rmsd>  (42) 
0.83

>  <cluster>  (42) 
3

$$$$

     RDKit          3D

 47 50  0  0  0  0  0  0  0  0999 V2000
  138.8730   75.1640  222.1700 O   0  0  0  0  0  0  0  0  0  0  0  0
  140.0300   75.6430  222.1060 C   0  0  0  0  0  0  0  0  0  0  0  0
  141.1760   74.9050  221.7130 N   0  0  0  0  0  0  0  0  0  0  0  0
  141.0700   73.4800  221.3420 C   0  0  0  0  0  0  0  0  0  0  0  0
  141.7790   73.2280  220.0870 C   0  0  0  0  0  0  0  0  0  0  0  0
  141.0790   72.6380  219.1700 O   0  0  0  0  0  0  0  0  0  0  0  0
  143.0950   73.5250  219.7260 N   0  0  0  0  0  0  0  0  0  0  0  0
  144.1000   72.4090  219.6810 C   0  0  0  0  0  0  0  0  0  0  0  0
  144.9860   72.7900  218.5160 C   0  0  2  0  0  0  0  0  0  0  0  0
  146.3050   73.0170  218.9550 O   0  0  0  0  0  0  0  0  0  0  0  0
  144.4480   74.1070  218.0010 C   0  0  0  0  0  0  0  0  0  0  0  0
  143.8610   74.6590  219.3270 C   0  0  1  0  0  0  0  0  0  0  0  0
  143.2000   75.9310  219.1020 C   0  0  0  0  0  0  0  0  0  0  0  0
  143.3250   76.4790  217.8430 N   0  0  0  0  0  0  0  0  0  0  0  0
  142.7860   77.6540  217.5120 C   0  0  0  0  0  0  0  0  0  0  0  0
  142.0690   78.3820  218.4380 C   0  0  0  0  0  0  0  0  0  0  0  0
  141.9310   77.8520  219.7040 C   0  0  0  0  0  0  0  0  0  0  0  0
  142.5020   76.6620  219.9610 N   0  0  0  0  0  0  0  0  0  0  0  0
  140.2140   77.0620  222.4620 C   0  0  0  0  0  0  0  0  0  0  0  0
  139.1340   77.8980  222.6400 C   0  0  0  0  0  0  0  0  0  0  0  0
  139.2270   79.2230  222.9700 C   0  0  0  0  0  0  0  0  0  0  0  0
  140.4930   79.7490  223.1340 C   0  0  0  0  0  0  0  0  0  0  0  0
  140.6200   81.0850  223.4670 C   0  0  0  0  0  0  0  0  0  0  0  0
  141.8660   81.6250  223.6340 C   0  0  0  0  0  0  0  0  0  0  0  0
  142.9890   80.8280  223.4660 C   0  0  0  0  0  0  0  0  0  0  0  0
  142.8290   79.4870  223.1310 C   0  0  0  0  0  0  0  0  0  0  0  0
  141.5860   78.9160  222.9560 C   0  0  0  0  0  0  0  0  0  0  0  0
  141.4350   77.6030  222.6270 N   0  0  0  0  0  0  0  0  0  0  0  0
  142.1120   75.3830  221.6870 H   0  0  0  0  0  0  0  0  0  0  0  0
  141.5122   72.8637  222.1387 H   0  0  0  0  0  0  0  0  0  0  0  0
  140.0086   73.2222  221.2114 H   0  0  0  0  0  0  0  0  0  0  0  0
  144.6772   72.3597  220.6161 H   0  0  0  0  0  0  0  0  0  0  0  0
  143.6388   71.4170  219.5664 H   0  0  0  0  0  0  0  0  0  0  0  0
  144.9911   71.9930  217.7579 H   0  0  0  0  0  0  0  0  0  0  0  0
  146.5060   74.0070  218.9420 H   0  0  0  0  0  0  0  0  0  0  0  0
  145.2453   74.7514  217.6021 H   0  0  0  0  0  0  0  0  0  0  0  0
  143.7403   74.0353  217.1619 H   0  0  0  0  0  0  0  0  0  0  0  0
  144.5419   74.9633  220.1355 H   0  0  0  0  0  0  0  0  0  0  0  0
  142.9147   78.0451  216.4920 H   0  0  0  0  0  0  0  0  0  0  0  0
  141.6223   79.3525  218.1760 H   0  0  0  0  0  0  0  0  0  0  0  0
  141.3688   78.3885  220.4826 H   0  0  0  0  0  0  0  0  0  0  0  0
  138.1285   77.4719  222.5080 H   0  0  0  0  0  0  0  0  0  0  0  0
  138.3286   79.8443  223.0995 H   0  0  0  0  0  0  0  0  0  0  0  0
  139.7243   81.7102  223.5969 H   0  0  0  0  0  0  0  0  0  0  0  0
  141.9768   82.6865  223.9003 H   0  0  0  0  0  0  0  0  0  0  0  0
  143.9957   81.2519  223.5963 H   0  0  0  0  0  0  0  0  0  0  0  0
  143.7243   78.8612  223.0014 H   0  0  0  0  0  0  0  0  0  0  0  0
  1  2  2  0
  2  3  1  0
  3  4  1  0
  4  5  1  0
  5  6  2  0
  5  7  1  0
  7  8  1  0
  8  9  1  0
  9 10  1  0
  9 11  1  0
 11 12  1  0
 12 13  1  0
 13 14  2  0
 14 15  1  0
 15 16  2  0
 16 17  1  0
 17 18  2  0
  2 19  1  0
 19 20  2  0
 20 21  1  0
 21 22  2  0
 22 23  1  0
 23 24  2  0
 24 25  1  0
 25 26  2  0
 26 27  1  0
 27 28  2  0
 12  7  1  0
 18 13  1  0
 28 19  1  0
 27 22  1  0
  3 29  1  0
  4 30  1  0
  4 31  1  0
  8 32  1  0
  8 33  1  0
  9 34  1  6
 10 35  1  0
 11 36  1  0
 11 37  1  0
 12 38  1  1
 15 39  1  0
 16 40  1  0
 17 41  1  0
 20 42  1  0
 21 43  1  0
 23 44  1  0
 24 45  1  0
 25 46  1  0
 26 47  1  0
M  END
>  <smiles>  (43) 
O=C(NCC(=O)N1C[C@H](O)C[C@H]1c1ncccn1)c1ccc2ccccc2n1

>  <score_type>  (43) 
oracle

>  <origin>  (43) 
autodockgpu

>  <m_score__min__energy>  (43) 
-8.4700000000000006

>  <m_primary>  (43) 
energy

>  <rmsd>  (43) 
7.320485150358017

>  <m_score__min__rmsd>  (43) 
7.320485150358017

>  <meeko>  (43) 
{"free_energy": -7.5, "intermolecular_energy": -9.29, "internal_energy": -2.71, "cluster_size": 40, "cluster_id": 3, "rank_in_cluster": 1}

>  <energy>  (43) 
-6.95

>  <cluster_rmsd>  (43) 
0.85

>  <cluster>  (43) 
3

$$$$

     RDKit          3D

 47 50  0  0  0  0  0  0  0  0999 V2000
  135.8720   77.4460  222.9250 O   0  0  0  0  0  0  0  0  0  0  0  0
  136.3760   76.3380  223.2290 C   0  0  0  0  0  0  0  0  0  0  0  0
  137.6720   75.9170  222.8330 N   0  0  0  0  0  0  0  0  0  0  0  0
  138.5340   76.7900  222.0120 C   0  0  0  0  0  0  0  0  0  0  0  0
  139.8440   76.1680  221.8130 C   0  0  0  0  0  0  0  0  0  0  0  0
  139.9620   74.9710  222.2930 O   0  0  0  0  0  0  0  0  0  0  0  0
  140.9870   76.6670  221.1830 N   0  0  0  0  0  0  0  0  0  0  0  0
  141.6040   75.8670  220.0710 C   0  0  0  0  0  0  0  0  0  0  0  0
  142.1020   76.9310  219.1180 C   0  0  2  0  0  0  0  0  0  0  0  0
  143.5040   76.8660  218.9970 O   0  0  0  0  0  0  0  0  0  0  0  0
  141.7650   78.2560  219.7650 C   0  0  0  0  0  0  0  0  0  0  0  0
  141.8250   77.8170  221.2510 C   0  0  1  0  0  0  0  0  0  0  0  0
  141.4650   78.9200  222.1240 C   0  0  0  0  0  0  0  0  0  0  0  0
  142.4840   79.7670  222.5020 N   0  0  0  0  0  0  0  0  0  0  0  0
  142.2940   80.8050  223.3200 C   0  0  0  0  0  0  0  0  0  0  0  0
  141.0410   81.0730  223.8300 C   0  0  0  0  0  0  0  0  0  0  0  0
  140.0060   80.2380  223.4650 C   0  0  0  0  0  0  0  0  0  0  0  0
  140.2770   79.2140  222.6360 N   0  0  0  0  0  0  0  0  0  0  0  0
  135.5730   75.4120  224.0490 C   0  0  0  0  0  0  0  0  0  0  0  0
  135.6380   74.0510  223.8590 C   0  0  0  0  0  0  0  0  0  0  0  0
  134.9240   73.1330  224.5810 C   0  0  0  0  0  0  0  0  0  0  0  0
  134.0840   73.6140  225.5650 C   0  0  0  0  0  0  0  0  0  0  0  0
  133.3480   72.7110  226.3100 C   0  0  0  0  0  0  0  0  0  0  0  0
  132.5100   73.1690  227.2910 C   0  0  0  0  0  0  0  0  0  0  0  0
  132.4040   74.5320  227.5250 C   0  0  0  0  0  0  0  0  0  0  0  0
  133.1580   75.4150  226.7580 C   0  0  0  0  0  0  0  0  0  0  0  0
  134.0100   74.9840  225.7640 C   0  0  0  0  0  0  0  0  0  0  0  0
  134.7450   75.8520  225.0150 N   0  0  0  0  0  0  0  0  0  0  0  0
  138.0190   74.9710  223.1310 H   0  0  0  0  0  0  0  0  0  0  0  0
  138.0579   76.9541  221.0341 H   0  0  0  0  0  0  0  0  0  0  0  0
  138.6689   77.7503  222.5312 H   0  0  0  0  0  0  0  0  0  0  0  0
  142.4351   75.2497  220.4428 H   0  0  0  0  0  0  0  0  0  0  0  0
  140.9003   75.1627  219.6032 H   0  0  0  0  0  0  0  0  0  0  0  0
  141.6487   76.8016  218.1241 H   0  0  0  0  0  0  0  0  0  0  0  0
  143.9360   77.4630  219.6870 H   0  0  0  0  0  0  0  0  0  0  0  0
  142.5104   79.0308  219.5326 H   0  0  0  0  0  0  0  0  0  0  0  0
  140.8183   78.7144  219.4432 H   0  0  0  0  0  0  0  0  0  0  0  0
  142.7948   77.5560  221.6997 H   0  0  0  0  0  0  0  0  0  0  0  0
  143.1428   81.4509  223.5890 H   0  0  0  0  0  0  0  0  0  0  0  0
  140.8727   81.9246  224.5056 H   0  0  0  0  0  0  0  0  0  0  0  0
  138.9861   80.4049  223.8417 H   0  0  0  0  0  0  0  0  0  0  0  0
  136.3096   73.6748  223.0732 H   0  0  0  0  0  0  0  0  0  0  0  0
  135.0160   72.0546  224.3847 H   0  0  0  0  0  0  0  0  0  0  0  0
  133.4353   71.6318  226.1157 H   0  0  0  0  0  0  0  0  0  0  0  0
  131.9229   72.4586  227.8915 H   0  0  0  0  0  0  0  0  0  0  0  0
  131.7312   74.9109  228.3084 H   0  0  0  0  0  0  0  0  0  0  0  0
  133.0710   76.4943  226.9517 H   0  0  0  0  0  0  0  0  0  0  0  0
  1  2  2  0
  2  3  1  0
  3  4  1  0
  4  5  1  0
  5  6  2  0
  5  7  1  0
  7  8  1  0
  8  9  1  0
  9 10  1  0
  9 11  1  0
 11 12  1  0
 12 13  1  0
 13 14  2  0
 14 15  1  0
 15 16  2  0
 16 17  1  0
 17 18  2  0
  2 19  1  0
 19 20  2  0
 20 21  1  0
 21 22  2  0
 22 23  1  0
 23 24  2  0
 24 25  1  0
 25 26  2  0
 26 27  1  0
 27 28  2  0
 12  7  1  0
 18 13  1  0
 28 19  1  0
 27 22  1  0
  3 29  1  0
  4 30  1  0
  4 31  1  0
  8 32  1  0
  8 33  1  0
  9 34  1  6
 10 35  1  0
 11 36  1  0
 11 37  1  0
 12 38  1  1
 15 39  1  0
 16 40  1  0
 17 41  1  0
 20 42  1  0
 21 43  1  0
 23 44  1  0
 24 45  1  0
 25 46  1  0
 26 47  1  0
M  END
>  <smiles>  (44) 
O=C(NCC(=O)N1C[C@H](O)C[C@H]1c1ncccn1)c1ccc2ccccc2n1

>  <score_type>  (44) 
oracle

>  <origin>  (44) 
autodockgpu

>  <m_score__min__energy>  (44) 
-8.4700000000000006

>  <m_primary>  (44) 
energy

>  <rmsd>  (44) 
5.272130542777902

>  <m_score__min__rmsd>  (44) 
5.272130542777902

>  <meeko>  (44) 
{"free_energy": -7.33, "intermolecular_energy": -9.12, "internal_energy": -1.73, "cluster_size": 1, "cluster_id": 4, "rank_in_cluster": 1}

>  <energy>  (44) 
-6.91

>  <cluster_rmsd>  (44) 
0.84

>  <cluster>  (44) 
3

$$$$

     RDKit          3D

 47 50  0  0  0  0  0  0  0  0999 V2000
  138.7490   75.2520  222.1880 O   0  0  0  0  0  0  0  0  0  0  0  0
  139.9290   75.6780  222.1960 C   0  0  0  0  0  0  0  0  0  0  0  0
  141.0650   74.8800  221.9040 N   0  0  0  0  0  0  0  0  0  0  0  0
  140.9190   73.4510  221.5620 C   0  0  0  0  0  0  0  0  0  0  0  0
  141.7440   73.1200  220.3990 C   0  0  0  0  0  0  0  0  0  0  0  0
  141.1020   72.6090  219.3980 O   0  0  0  0  0  0  0  0  0  0  0  0
  143.1190   73.2720  220.2040 N   0  0  0  0  0  0  0  0  0  0  0  0
  144.0200   72.1010  220.4810 C   0  0  0  0  0  0  0  0  0  0  0  0
  145.0910   72.2350  219.4220 C   0  0  2  0  0  0  0  0  0  0  0  0
  146.3500   72.4440  220.0190 O   0  0  0  0  0  0  0  0  0  0  0  0
  144.7480   73.4830  218.6410 C   0  0  0  0  0  0  0  0  0  0  0  0
  144.0290   74.2760  219.7630 C   0  0  1  0  0  0  0  0  0  0  0  0
  143.5190   75.5350  219.2530 C   0  0  0  0  0  0  0  0  0  0  0  0
  142.7500   76.2860  220.1160 N   0  0  0  0  0  0  0  0  0  0  0  0
  142.2000   77.4510  219.7660 C   0  0  0  0  0  0  0  0  0  0  0  0
  142.3850   77.9580  218.4970 C   0  0  0  0  0  0  0  0  0  0  0  0
  143.1520   77.2240  217.6170 C   0  0  0  0  0  0  0  0  0  0  0  0
  143.6730   76.0600  218.0440 N   0  0  0  0  0  0  0  0  0  0  0  0
  140.1520   77.0970  222.5280 C   0  0  0  0  0  0  0  0  0  0  0  0
  139.0970   77.9670  222.6840 C   0  0  0  0  0  0  0  0  0  0  0  0
  139.2260   79.2940  222.9930 C   0  0  0  0  0  0  0  0  0  0  0  0
  140.5060   79.7860  223.1560 C   0  0  0  0  0  0  0  0  0  0  0  0
  140.6700   81.1230  223.4660 C   0  0  0  0  0  0  0  0  0  0  0  0
  141.9310   81.6290  223.6320 C   0  0  0  0  0  0  0  0  0  0  0  0
  143.0310   80.7970  223.4850 C   0  0  0  0  0  0  0  0  0  0  0  0
  142.8330   79.4560  223.1720 C   0  0  0  0  0  0  0  0  0  0  0  0
  141.5760   78.9180  222.9990 C   0  0  0  0  0  0  0  0  0  0  0  0
  141.3880   77.6050  222.6920 N   0  0  0  0  0  0  0  0  0  0  0  0
  142.0210   75.3150  221.9330 H   0  0  0  0  0  0  0  0  0  0  0  0
  141.2370   72.8386  222.4186 H   0  0  0  0  0  0  0  0  0  0  0  0
  139.8650   73.2462  221.3229 H   0  0  0  0  0  0  0  0  0  0  0  0
  144.4524   72.1654  221.4904 H   0  0  0  0  0  0  0  0  0  0  0  0
  143.4961   71.1344  220.4465 H   0  0  0  0  0  0  0  0  0  0  0  0
  145.1336   71.3286  218.8001 H   0  0  0  0  0  0  0  0  0  0  0  0
  146.4300   71.8870  220.8580 H   0  0  0  0  0  0  0  0  0  0  0  0
  145.6466   74.0033  218.2781 H   0  0  0  0  0  0  0  0  0  0  0  0
  144.1631   73.3229  217.7233 H   0  0  0  0  0  0  0  0  0  0  0  0
  144.6126   74.6621  220.6117 H   0  0  0  0  0  0  0  0  0  0  0  0
  141.5951   78.0103  220.4949 H   0  0  0  0  0  0  0  0  0  0  0  0
  141.9357   78.9161  218.1967 H   0  0  0  0  0  0  0  0  0  0  0  0
  143.3330   77.5812  216.5925 H   0  0  0  0  0  0  0  0  0  0  0  0
  138.0804   77.5684  222.5512 H   0  0  0  0  0  0  0  0  0  0  0  0
  138.3451   79.9429  223.1070 H   0  0  0  0  0  0  0  0  0  0  0  0
  139.7924   81.7765  223.5786 H   0  0  0  0  0  0  0  0  0  0  0  0
  142.0714   82.6912  223.8810 H   0  0  0  0  0  0  0  0  0  0  0  0
  144.0490   81.1932  223.6145 H   0  0  0  0  0  0  0  0  0  0  0  0
  143.7104   78.8023  223.0586 H   0  0  0  0  0  0  0  0  0  0  0  0
  1  2  2  0
  2  3  1  0
  3  4  1  0
  4  5  1  0
  5  6  2  0
  5  7  1  0
  7  8  1  0
  8  9  1  0
  9 10  1  0
  9 11  1  0
 11 12  1  0
 12 13  1  0
 13 14  2  0
 14 15  1  0
 15 16  2  0
 16 17  1  0
 17 18  2  0
  2 19  1  0
 19 20  2  0
 20 21  1  0
 21 22  2  0
 22 23  1  0
 23 24  2  0
 24 25  1  0
 25 26  2  0
 26 27  1  0
 27 28  2  0
 12  7  1  0
 18 13  1  0
 28 19  1  0
 27 22  1  0
  3 29  1  0
  4 30  1  0
  4 31  1  0
  8 32  1  0
  8 33  1  0
  9 34  1  6
 10 35  1  0
 11 36  1  0
 11 37  1  0
 12 38  1  1
 15 39  1  0
 16 40  1  0
 17 41  1  0
 20 42  1  0
 21 43  1  0
 23 44  1  0
 24 45  1  0
 25 46  1  0
 26 47  1  0
M  END
>  <smiles>  (45) 
O=C(NCC(=O)N1C[C@H](O)C[C@H]1c1ncccn1)c1ccc2ccccc2n1

>  <score_type>  (45) 
oracle

>  <origin>  (45) 
autodockgpu

>  <m_score__min__energy>  (45) 
-8.4700000000000006

>  <m_primary>  (45) 
energy

>  <rmsd>  (45) 
7.363957960228574

>  <m_score__min__rmsd>  (45) 
7.363957960228574

>  <meeko>  (45) 
{"free_energy": -7.36, "intermolecular_energy": -9.15, "internal_energy": -2.72, "cluster_size": 40, "cluster_id": 3, "rank_in_cluster": 16}

>  <energy>  (45) 
-6.83

>  <cluster_rmsd>  (45) 
0.87

>  <cluster>  (45) 
3

$$$$

     RDKit          3D

 47 50  0  0  0  0  0  0  0  0999 V2000
  138.6970   75.2610  222.2260 O   0  0  0  0  0  0  0  0  0  0  0  0
  139.8790   75.6790  222.1780 C   0  0  0  0  0  0  0  0  0  0  0  0
  140.9980   74.8660  221.8620 N   0  0  0  0  0  0  0  0  0  0  0  0
  140.8320   73.4310  221.5590 C   0  0  0  0  0  0  0  0  0  0  0  0
  141.6940   73.0440  220.4420 C   0  0  0  0  0  0  0  0  0  0  0  0
  141.0970   72.4190  219.4780 O   0  0  0  0  0  0  0  0  0  0  0  0
  143.0640   73.2470  220.2550 N   0  0  0  0  0  0  0  0  0  0  0  0
  143.9990   72.0910  220.4720 C   0  0  0  0  0  0  0  0  0  0  0  0
  145.0650   72.3110  219.4220 C   0  0  2  0  0  0  0  0  0  0  0  0
  146.3170   72.5270  220.0300 O   0  0  0  0  0  0  0  0  0  0  0  0
  144.6840   73.5870  218.7050 C   0  0  0  0  0  0  0  0  0  0  0  0
  143.9430   74.2990  219.8670 C   0  0  1  0  0  0  0  0  0  0  0  0
  143.3940   75.5670  219.4210 C   0  0  0  0  0  0  0  0  0  0  0  0
  143.6970   75.9530  218.1330 N   0  0  0  0  0  0  0  0  0  0  0  0
  143.2770   77.1060  217.6070 C   0  0  0  0  0  0  0  0  0  0  0  0
  142.5070   77.9740  218.3510 C   0  0  0  0  0  0  0  0  0  0  0  0
  142.1910   77.6080  219.6430 C   0  0  0  0  0  0  0  0  0  0  0  0
  142.6510   76.4300  220.1010 N   0  0  0  0  0  0  0  0  0  0  0  0
  140.1230   77.1040  222.4690 C   0  0  0  0  0  0  0  0  0  0  0  0
  139.0800   77.9920  222.6050 C   0  0  0  0  0  0  0  0  0  0  0  0
  139.2290   79.3260  222.8750 C   0  0  0  0  0  0  0  0  0  0  0  0
  140.5160   79.8040  223.0180 C   0  0  0  0  0  0  0  0  0  0  0  0
  140.6990   81.1480  223.2890 C   0  0  0  0  0  0  0  0  0  0  0  0
  141.9680   81.6410  223.4350 C   0  0  0  0  0  0  0  0  0  0  0  0
  143.0560   80.7900  223.3060 C   0  0  0  0  0  0  0  0  0  0  0  0
  142.8380   79.4430  223.0330 C   0  0  0  0  0  0  0  0  0  0  0  0
  141.5730   78.9180  222.8810 C   0  0  0  0  0  0  0  0  0  0  0  0
  141.3660   77.5990  222.6130 N   0  0  0  0  0  0  0  0  0  0  0  0
  141.9570   75.2960  221.8440 H   0  0  0  0  0  0  0  0  0  0  0  0
  141.1009   72.8394  222.4465 H   0  0  0  0  0  0  0  0  0  0  0  0
  139.7838   73.2428  221.2835 H   0  0  0  0  0  0  0  0  0  0  0  0
  144.4300   72.1161  221.4837 H   0  0  0  0  0  0  0  0  0  0  0  0
  143.5039   71.1124  220.3874 H   0  0  0  0  0  0  0  0  0  0  0  0
  145.1345   71.4393  218.7547 H   0  0  0  0  0  0  0  0  0  0  0  0
  146.4220   71.9170  220.8280 H   0  0  0  0  0  0  0  0  0  0  0  0
  145.5662   74.1519  218.3695 H   0  0  0  0  0  0  0  0  0  0  0  0
  144.1034   73.4571  217.7798 H   0  0  0  0  0  0  0  0  0  0  0  0
  144.5158   74.6578  220.7349 H   0  0  0  0  0  0  0  0  0  0  0  0
  143.5473   77.3651  216.5727 H   0  0  0  0  0  0  0  0  0  0  0  0
  142.1561   78.9271  217.9285 H   0  0  0  0  0  0  0  0  0  0  0  0
  141.5792   78.2621  220.2816 H   0  0  0  0  0  0  0  0  0  0  0  0
  138.0575   77.6035  222.4889 H   0  0  0  0  0  0  0  0  0  0  0  0
  138.3579   79.9903  222.9740 H   0  0  0  0  0  0  0  0  0  0  0  0
  139.8308   81.8163  223.3866 H   0  0  0  0  0  0  0  0  0  0  0  0
  142.1242   82.7077  223.6537 H   0  0  0  0  0  0  0  0  0  0  0  0
  144.0800   81.1758  223.4183 H   0  0  0  0  0  0  0  0  0  0  0  0
  143.7057   78.7740  222.9351 H   0  0  0  0  0  0  0  0  0  0  0  0
  1  2  2  0
  2  3  1  0
  3  4  1  0
  4  5  1  0
  5  6  2  0
  5  7  1  0
  7  8  1  0
  8  9  1  0
  9 10  1  0
  9 11  1  0
 11 12  1  0
 12 13  1  0
 13 14  2  0
 14 15  1  0
 15 16  2  0
 16 17  1  0
 17 18  2  0
  2 19  1  0
 19 20  2  0
 20 21  1  0
 21 22  2  0
 22 23  1  0
 23 24  2  0
 24 25  1  0
 25 26  2  0
 26 27  1  0
 27 28  2  0
 12  7  1  0
 18 13  1  0
 28 19  1  0
 27 22  1  0
  3 29  1  0
  4 30  1  0
  4 31  1  0
  8 32  1  0
  8 33  1  0
  9 34  1  6
 10 35  1  0
 11 36  1  0
 11 37  1  0
 12 38  1  1
 15 39  1  0
 16 40  1  0
 17 41  1  0
 20 42  1  0
 21 43  1  0
 23 44  1  0
 24 45  1  0
 25 46  1  0
 26 47  1  0
M  END
>  <smiles>  (46) 
O=C(NCC(=O)N1C[C@H](O)C[C@H]1c1ncccn1)c1ccc2ccccc2n1

>  <score_type>  (46) 
oracle

>  <origin>  (46) 
autodockgpu

>  <m_score__min__energy>  (46) 
-8.4700000000000006

>  <m_primary>  (46) 
energy

>  <rmsd>  (46) 
7.451345030507798

>  <m_score__min__rmsd>  (46) 
7.451345030507798

>  <meeko>  (46) 
{"free_energy": -7.25, "intermolecular_energy": -9.04, "internal_energy": -2.73, "cluster_size": 40, "cluster_id": 3, "rank_in_cluster": 25}

>  <energy>  (46) 
-6.81

>  <cluster_rmsd>  (46) 
0.95

>  <cluster>  (46) 
3

$$$$

     RDKit          3D

 47 50  0  0  0  0  0  0  0  0999 V2000
  138.7960   75.5350  221.7470 O   0  0  0  0  0  0  0  0  0  0  0  0
  139.9810   75.9380  221.8270 C   0  0  0  0  0  0  0  0  0  0  0  0
  141.1110   75.1670  221.4520 N   0  0  0  0  0  0  0  0  0  0  0  0
  140.9530   73.7970  220.9250 C   0  0  0  0  0  0  0  0  0  0  0  0
  142.2380   73.0970  220.9380 C   0  0  0  0  0  0  0  0  0  0  0  0
  142.2400   71.9630  221.5640 O   0  0  0  0  0  0  0  0  0  0  0  0
  143.4640   73.4640  220.3780 N   0  0  0  0  0  0  0  0  0  0  0  0
  144.6310   72.5270  220.5210 C   0  0  0  0  0  0  0  0  0  0  0  0
  145.3690   72.6960  219.2120 C   0  0  2  0  0  0  0  0  0  0  0  0
  146.6590   73.2140  219.4370 O   0  0  0  0  0  0  0  0  0  0  0  0
  144.5950   73.7350  218.4310 C   0  0  0  0  0  0  0  0  0  0  0  0
  144.0110   74.5400  219.6210 C   0  0  1  0  0  0  0  0  0  0  0  0
  143.1410   75.5990  219.1430 C   0  0  0  0  0  0  0  0  0  0  0  0
  143.0120   76.7060  219.9540 N   0  0  0  0  0  0  0  0  0  0  0  0
  142.2250   77.7390  219.6440 C   0  0  0  0  0  0  0  0  0  0  0  0
  141.4940   77.7370  218.4760 C   0  0  0  0  0  0  0  0  0  0  0  0
  141.6080   76.6380  217.6490 C   0  0  0  0  0  0  0  0  0  0  0  0
  142.4220   75.6370  218.0290 N   0  0  0  0  0  0  0  0  0  0  0  0
  140.2170   77.2990  222.3440 C   0  0  0  0  0  0  0  0  0  0  0  0
  139.1680   78.1340  222.6570 C   0  0  0  0  0  0  0  0  0  0  0  0
  139.3100   79.4070  223.1410 C   0  0  0  0  0  0  0  0  0  0  0  0
  140.5950   79.8770  223.3240 C   0  0  0  0  0  0  0  0  0  0  0  0
  140.7710   81.1590  223.8100 C   0  0  0  0  0  0  0  0  0  0  0  0
  142.0370   81.6430  223.9980 C   0  0  0  0  0  0  0  0  0  0  0  0
  143.1310   80.8440  223.6980 C   0  0  0  0  0  0  0  0  0  0  0  0
  142.9210   79.5580  223.2100 C   0  0  0  0  0  0  0  0  0  0  0  0
  141.6580   79.0440  223.0100 C   0  0  0  0  0  0  0  0  0  0  0  0
  141.4580   77.7850  222.5320 N   0  0  0  0  0  0  0  0  0  0  0  0
  142.0730   75.5810  221.5510 H   0  0  0  0  0  0  0  0  0  0  0  0
  140.2342   73.2479  221.5510 H   0  0  0  0  0  0  0  0  0  0  0  0
  140.5857   73.8518  219.8896 H   0  0  0  0  0  0  0  0  0  0  0  0
  145.2659   72.8141  221.3722 H   0  0  0  0  0  0  0  0  0  0  0  0
  144.3293   71.4873  220.7161 H   0  0  0  0  0  0  0  0  0  0  0  0
  145.4546   71.7310  218.6909 H   0  0  0  0  0  0  0  0  0  0  0  0
  146.6430   74.2210  219.3610 H   0  0  0  0  0  0  0  0  0  0  0  0
  145.2516   74.3503  217.7984 H   0  0  0  0  0  0  0  0  0  0  0  0
  143.8572   73.3402  217.7169 H   0  0  0  0  0  0  0  0  0  0  0  0
  144.6837   75.1439  220.2478 H   0  0  0  0  0  0  0  0  0  0  0  0
  142.1596   78.5989  220.3268 H   0  0  0  0  0  0  0  0  0  0  0  0
  140.8418   78.5825  218.2117 H   0  0  0  0  0  0  0  0  0  0  0  0
  141.0479   76.5822  216.7039 H   0  0  0  0  0  0  0  0  0  0  0  0
  138.1470   77.7528  222.5082 H   0  0  0  0  0  0  0  0  0  0  0  0
  138.4345   80.0306  223.3748 H   0  0  0  0  0  0  0  0  0  0  0  0
  139.8984   81.7865  224.0442 H   0  0  0  0  0  0  0  0  0  0  0  0
  142.1869   82.6615  224.3855 H   0  0  0  0  0  0  0  0  0  0  0  0
  144.1532   81.2231  223.8444 H   0  0  0  0  0  0  0  0  0  0  0  0
  143.7932   78.9299  222.9758 H   0  0  0  0  0  0  0  0  0  0  0  0
  1  2  2  0
  2  3  1  0
  3  4  1  0
  4  5  1  0
  5  6  2  0
  5  7  1  0
  7  8  1  0
  8  9  1  0
  9 10  1  0
  9 11  1  0
 11 12  1  0
 12 13  1  0
 13 14  2  0
 14 15  1  0
 15 16  2  0
 16 17  1  0
 17 18  2  0
  2 19  1  0
 19 20  2  0
 20 21  1  0
 21 22  2  0
 22 23  1  0
 23 24  2  0
 24 25  1  0
 25 26  2  0
 26 27  1  0
 27 28  2  0
 12  7  1  0
 18 13  1  0
 28 19  1  0
 27 22  1  0
  3 29  1  0
  4 30  1  0
  4 31  1  0
  8 32  1  0
  8 33  1  0
  9 34  1  6
 10 35  1  0
 11 36  1  0
 11 37  1  0
 12 38  1  1
 15 39  1  0
 16 40  1  0
 17 41  1  0
 20 42  1  0
 21 43  1  0
 23 44  1  0
 24 45  1  0
 25 46  1  0
 26 47  1  0
M  END
>  <smiles>  (47) 
O=C(NCC(=O)N1C[C@H](O)C[C@H]1c1ncccn1)c1ccc2ccccc2n1

>  <score_type>  (47) 
oracle

>  <origin>  (47) 
autodockgpu

>  <m_score__min__energy>  (47) 
-8.4700000000000006

>  <m_primary>  (47) 
energy

>  <rmsd>  (47) 
7.4121431898927455

>  <m_score__min__rmsd>  (47) 
7.4121431898927455

>  <meeko>  (47) 
{"free_energy": -7.47, "intermolecular_energy": -9.26, "internal_energy": -2.77, "cluster_size": 40, "cluster_id": 3, "rank_in_cluster": 6}

>  <energy>  (47) 
-6.81

>  <cluster_rmsd>  (47) 
1.16

>  <cluster>  (47) 
3

$$$$

     RDKit          3D

 47 50  0  0  0  0  0  0  0  0999 V2000
  138.7920   75.3440  222.0930 O   0  0  0  0  0  0  0  0  0  0  0  0
  139.9510   75.8090  221.9770 C   0  0  0  0  0  0  0  0  0  0  0  0
  141.0470   75.0870  221.4380 N   0  0  0  0  0  0  0  0  0  0  0  0
  140.8820   73.6980  220.9660 C   0  0  0  0  0  0  0  0  0  0  0  0
  142.1850   73.0410  220.8540 C   0  0  0  0  0  0  0  0  0  0  0  0
  142.3210   71.9670  221.5650 O   0  0  0  0  0  0  0  0  0  0  0  0
  143.3040   73.3950  220.0960 N   0  0  0  0  0  0  0  0  0  0  0  0
  144.4360   72.4130  219.9820 C   0  0  0  0  0  0  0  0  0  0  0  0
  144.9320   72.6240  218.5690 C   0  0  2  0  0  0  0  0  0  0  0  0
  146.2630   73.0850  218.5790 O   0  0  0  0  0  0  0  0  0  0  0  0
  144.0760   73.7280  217.9900 C   0  0  0  0  0  0  0  0  0  0  0  0
  143.7510   74.4900  219.3020 C   0  0  1  0  0  0  0  0  0  0  0  0
  142.8560   75.6010  219.0390 C   0  0  0  0  0  0  0  0  0  0  0  0
  142.9940   76.7100  219.8460 N   0  0  0  0  0  0  0  0  0  0  0  0
  142.2190   77.7900  219.7260 C   0  0  0  0  0  0  0  0  0  0  0  0
  141.2270   77.8370  218.7690 C   0  0  0  0  0  0  0  0  0  0  0  0
  141.0710   76.7380  217.9510 C   0  0  0  0  0  0  0  0  0  0  0  0
  141.8920   75.6880  218.1330 N   0  0  0  0  0  0  0  0  0  0  0  0
  140.1920   77.1920  222.4270 C   0  0  0  0  0  0  0  0  0  0  0  0
  139.1470   78.0370  222.7260 C   0  0  0  0  0  0  0  0  0  0  0  0
  139.2940   79.3300  223.1490 C   0  0  0  0  0  0  0  0  0  0  0  0
  140.5800   79.8120  223.2840 C   0  0  0  0  0  0  0  0  0  0  0  0
  140.7610   81.1150  223.7090 C   0  0  0  0  0  0  0  0  0  0  0  0
  142.0290   81.6100  223.8480 C   0  0  0  0  0  0  0  0  0  0  0  0
  143.1200   80.8030  223.5600 C   0  0  0  0  0  0  0  0  0  0  0  0
  142.9050   79.4960  223.1340 C   0  0  0  0  0  0  0  0  0  0  0  0
  141.6400   78.9690  222.9850 C   0  0  0  0  0  0  0  0  0  0  0  0
  141.4350   77.6890  222.5670 N   0  0  0  0  0  0  0  0  0  0  0  0
  141.9890   75.5510  221.3760 H   0  0  0  0  0  0  0  0  0  0  0  0
  140.2565   73.1437  221.6812 H   0  0  0  0  0  0  0  0  0  0  0  0
  140.4019   73.7112  219.9764 H   0  0  0  0  0  0  0  0  0  0  0  0
  145.2259   72.6341  220.7149 H   0  0  0  0  0  0  0  0  0  0  0  0
  144.1303   71.3755  220.1826 H   0  0  0  0  0  0  0  0  0  0  0  0
  144.8800   71.6854  217.9978 H   0  0  0  0  0  0  0  0  0  0  0  0
  146.2820   74.0850  218.4390 H   0  0  0  0  0  0  0  0  0  0  0  0
  144.6339   74.3525  217.2768 H   0  0  0  0  0  0  0  0  0  0  0  0
  143.2052   73.3965  217.4053 H   0  0  0  0  0  0  0  0  0  0  0  0
  144.5506   75.0375  219.8224 H   0  0  0  0  0  0  0  0  0  0  0  0
  142.3726   78.6492  220.3955 H   0  0  0  0  0  0  0  0  0  0  0  0
  140.5819   78.7215  218.6619 H   0  0  0  0  0  0  0  0  0  0  0  0
  140.2960   76.7203  217.1706 H   0  0  0  0  0  0  0  0  0  0  0  0
  138.1245   77.6462  222.6175 H   0  0  0  0  0  0  0  0  0  0  0  0
  138.4210   79.9607  223.3728 H   0  0  0  0  0  0  0  0  0  0  0  0
  139.8912   81.7497  223.9340 H   0  0  0  0  0  0  0  0  0  0  0  0
  142.1829   82.6450  224.1872 H   0  0  0  0  0  0  0  0  0  0  0  0
  144.1433   81.1919  223.6672 H   0  0  0  0  0  0  0  0  0  0  0  0
  143.7746   78.8613  222.9083 H   0  0  0  0  0  0  0  0  0  0  0  0
  1  2  2  0
  2  3  1  0
  3  4  1  0
  4  5  1  0
  5  6  2  0
  5  7  1  0
  7  8  1  0
  8  9  1  0
  9 10  1  0
  9 11  1  0
 11 12  1  0
 12 13  1  0
 13 14  2  0
 14 15  1  0
 15 16  2  0
 16 17  1  0
 17 18  2  0
  2 19  1  0
 19 20  2  0
 20 21  1  0
 21 22  2  0
 22 23  1  0
 23 24  2  0
 24 25  1  0
 25 26  2  0
 26 27  1  0
 27 28  2  0
 12  7  1  0
 18 13  1  0
 28 19  1  0
 27 22  1  0
  3 29  1  0
  4 30  1  0
  4 31  1  0
  8 32  1  0
  8 33  1  0
  9 34  1  6
 10 35  1  0
 11 36  1  0
 11 37  1  0
 12 38  1  1
 15 39  1  0
 16 40  1  0
 17 41  1  0
 20 42  1  0
 21 43  1  0
 23 44  1  0
 24 45  1  0
 25 46  1  0
 26 47  1  0
M  END
>  <smiles>  (48) 
O=C(NCC(=O)N1C[C@H](O)C[C@H]1c1ncccn1)c1ccc2ccccc2n1

>  <score_type>  (48) 
oracle

>  <origin>  (48) 
autodockgpu

>  <m_score__min__energy>  (48) 
-8.4700000000000006

>  <m_primary>  (48) 
energy

>  <rmsd>  (48) 
7.307719922219182

>  <m_score__min__rmsd>  (48) 
7.307719922219182

>  <meeko>  (48) 
{"free_energy": -7.31, "intermolecular_energy": -9.1, "internal_energy": -2.83, "cluster_size": 40, "cluster_id": 3, "rank_in_cluster": 21}

>  <energy>  (48) 
-6.78

>  <cluster_rmsd>  (48) 
1.16

>  <cluster>  (48) 
3

$$$$

     RDKit          3D

 47 50  0  0  0  0  0  0  0  0999 V2000
  141.4200   72.6150  222.0040 O   0  0  0  0  0  0  0  0  0  0  0  0
  140.3120   72.6180  222.5920 C   0  0  0  0  0  0  0  0  0  0  0  0
  139.2320   73.4720  222.2490 N   0  0  0  0  0  0  0  0  0  0  0  0
  139.3540   74.4410  221.1420 C   0  0  0  0  0  0  0  0  0  0  0  0
  140.1150   75.6140  221.5740 C   0  0  0  0  0  0  0  0  0  0  0  0
  139.7960   76.0750  222.7410 O   0  0  0  0  0  0  0  0  0  0  0  0
  141.1340   76.3110  220.9210 N   0  0  0  0  0  0  0  0  0  0  0  0
  141.7690   75.6900  219.7090 C   0  0  0  0  0  0  0  0  0  0  0  0
  142.0530   76.8810  218.8210 C   0  0  2  0  0  0  0  0  0  0  0  0
  143.4390   77.0170  218.6090 O   0  0  0  0  0  0  0  0  0  0  0  0
  141.5930   78.0950  219.5980 C   0  0  0  0  0  0  0  0  0  0  0  0
  141.8170   77.5560  221.0350 C   0  0  1  0  0  0  0  0  0  0  0  0
  141.3790   78.5290  222.0190 C   0  0  0  0  0  0  0  0  0  0  0  0
  140.0360   78.8390  222.0270 N   0  0  0  0  0  0  0  0  0  0  0  0
  139.5070   79.7340  222.8640 C   0  0  0  0  0  0  0  0  0  0  0  0
  140.3030   80.3980  223.7730 C   0  0  0  0  0  0  0  0  0  0  0  0
  141.6500   80.1040  223.7830 C   0  0  0  0  0  0  0  0  0  0  0  0
  142.1080   79.1890  222.9090 N   0  0  0  0  0  0  0  0  0  0  0  0
  140.1170   71.6750  223.7090 C   0  0  0  0  0  0  0  0  0  0  0  0
  139.3470   70.5430  223.5600 C   0  0  0  0  0  0  0  0  0  0  0  0
  139.1220   69.6250  224.5500 C   0  0  0  0  0  0  0  0  0  0  0  0
  139.7100   69.8570  225.7770 C   0  0  0  0  0  0  0  0  0  0  0  0
  139.5000   68.9470  226.7970 C   0  0  0  0  0  0  0  0  0  0  0  0
  140.0760   69.1600  228.0210 C   0  0  0  0  0  0  0  0  0  0  0  0
  140.8600   70.2850  228.2260 C   0  0  0  0  0  0  0  0  0  0  0  0
  141.0520   71.1820  227.1800 C   0  0  0  0  0  0  0  0  0  0  0  0
  140.4860   70.9940  225.9370 C   0  0  0  0  0  0  0  0  0  0  0  0
  140.6770   71.8750  224.9160 N   0  0  0  0  0  0  0  0  0  0  0  0
  138.3350   73.4110  222.7940 H   0  0  0  0  0  0  0  0  0  0  0  0
  139.8722   73.9634  220.2974 H   0  0  0  0  0  0  0  0  0  0  0  0
  138.3475   74.7613  220.8348 H   0  0  0  0  0  0  0  0  0  0  0  0
  142.6986   75.1657  219.9753 H   0  0  0  0  0  0  0  0  0  0  0  0
  141.1318   74.9340  219.2270 H   0  0  0  0  0  0  0  0  0  0  0  0
  141.5498   76.7670  217.8495 H   0  0  0  0  0  0  0  0  0  0  0  0
  143.8570   77.5190  219.3800 H   0  0  0  0  0  0  0  0  0  0  0  0
  142.2120   78.9795  219.3872 H   0  0  0  0  0  0  0  0  0  0  0  0
  140.5738   78.4435  219.3750 H   0  0  0  0  0  0  0  0  0  0  0  0
  142.8427   77.3965  221.3991 H   0  0  0  0  0  0  0  0  0  0  0  0
  138.4277   79.9434  222.8283 H   0  0  0  0  0  0  0  0  0  0  0  0
  139.8776   81.1377  224.4671 H   0  0  0  0  0  0  0  0  0  0  0  0
  142.3320   80.6039  224.4865 H   0  0  0  0  0  0  0  0  0  0  0  0
  138.8815   70.3646  222.5795 H   0  0  0  0  0  0  0  0  0  0  0  0
  138.4969   68.7370  224.3746 H   0  0  0  0  0  0  0  0  0  0  0  0
  138.8746   68.0583  226.6263 H   0  0  0  0  0  0  0  0  0  0  0  0
  139.9173   68.4413  228.8384 H   0  0  0  0  0  0  0  0  0  0  0  0
  141.3256   70.4665  229.2059 H   0  0  0  0  0  0  0  0  0  0  0  0
  141.6765   72.0713  227.3505 H   0  0  0  0  0  0  0  0  0  0  0  0
  1  2  2  0
  2  3  1  0
  3  4  1  0
  4  5  1  0
  5  6  2  0
  5  7  1  0
  7  8  1  0
  8  9  1  0
  9 10  1  0
  9 11  1  0
 11 12  1  0
 12 13  1  0
 13 14  2  0
 14 15  1  0
 15 16  2  0
 16 17  1  0
 17 18  2  0
  2 19  1  0
 19 20  2  0
 20 21  1  0
 21 22  2  0
 22 23  1  0
 23 24  2  0
 24 25  1  0
 25 26  2  0
 26 27  1  0
 27 28  2  0
 12  7  1  0
 18 13  1  0
 28 19  1  0
 27 22  1  0
  3 29  1  0
  4 30  1  0
  4 31  1  0
  8 32  1  0
  8 33  1  0
  9 34  1  6
 10 35  1  0
 11 36  1  0
 11 37  1  0
 12 38  1  1
 15 39  1  0
 16 40  1  0
 17 41  1  0
 20 42  1  0
 21 43  1  0
 23 44  1  0
 24 45  1  0
 25 46  1  0
 26 47  1  0
M  END
>  <smiles>  (49) 
O=C(NCC(=O)N1C[C@H](O)C[C@H]1c1ncccn1)c1ccc2ccccc2n1

>  <score_type>  (49) 
oracle

>  <origin>  (49) 
autodockgpu

>  <m_score__min__energy>  (49) 
-8.4700000000000006

>  <m_primary>  (49) 
energy

>  <rmsd>  (49) 
1.9358931097273337

>  <m_score__min__rmsd>  (49) 
1.9358931097273337

>  <meeko>  (49) 
{"free_energy": -8.33, "intermolecular_energy": -10.12, "internal_energy": -1.27, "cluster_size": 5, "cluster_id": 1, "rank_in_cluster": 4}

>  <energy>  (49) 
-6.37

>  <cluster_rmsd>  (49) 
1.44

>  <cluster>  (49) 
3

$$$$

     RDKit          3D

 47 50  0  0  0  0  0  0  0  0999 V2000
  141.1750   71.9770  221.5880 O   0  0  0  0  0  0  0  0  0  0  0  0
  140.3090   72.3070  222.4340 C   0  0  0  0  0  0  0  0  0  0  0  0
  139.4350   73.4140  222.2870 N   0  0  0  0  0  0  0  0  0  0  0  0
  139.4930   74.2730  221.0870 C   0  0  0  0  0  0  0  0  0  0  0  0
  140.7140   75.0790  221.0970 C   0  0  0  0  0  0  0  0  0  0  0  0
  141.1510   75.3980  222.2740 O   0  0  0  0  0  0  0  0  0  0  0  0
  141.4810   75.5570  220.0320 N   0  0  0  0  0  0  0  0  0  0  0  0
  140.9340   76.6810  219.1980 C   0  0  0  0  0  0  0  0  0  0  0  0
  142.1680   77.4830  218.8510 C   0  0  2  0  0  0  0  0  0  0  0  0
  142.3770   77.4870  217.4580 O   0  0  0  0  0  0  0  0  0  0  0  0
  143.3310   76.7470  219.4790 C   0  0  0  0  0  0  0  0  0  0  0  0
  142.7520   75.3090  219.4380 C   0  0  1  0  0  0  0  0  0  0  0  0
  143.6680   74.3710  220.0620 C   0  0  0  0  0  0  0  0  0  0  0  0
  144.8850   74.8740  220.4670 N   0  0  0  0  0  0  0  0  0  0  0  0
  145.8270   74.1150  221.0320 C   0  0  0  0  0  0  0  0  0  0  0  0
  145.6120   72.7680  221.2360 C   0  0  0  0  0  0  0  0  0  0  0  0
  144.4000   72.2440  220.8380 C   0  0  0  0  0  0  0  0  0  0  0  0
  143.5010   73.0730  220.2760 N   0  0  0  0  0  0  0  0  0  0  0  0
  140.1920   71.4950  223.6590 C   0  0  0  0  0  0  0  0  0  0  0  0
  139.5660   70.2690  223.6450 C   0  0  0  0  0  0  0  0  0  0  0  0
  139.4200   69.4620  224.7400 C   0  0  0  0  0  0  0  0  0  0  0  0
  139.9390   69.9150  225.9370 C   0  0  0  0  0  0  0  0  0  0  0  0
  139.8070   69.1220  227.0610 C   0  0  0  0  0  0  0  0  0  0  0  0
  140.3150   69.5530  228.2560 C   0  0  0  0  0  0  0  0  0  0  0  0
  140.9550   70.7820  228.3280 C   0  0  0  0  0  0  0  0  0  0  0  0
  141.0720   71.5570  227.1790 C   0  0  0  0  0  0  0  0  0  0  0  0
  140.5710   71.1480  225.9610 C   0  0  0  0  0  0  0  0  0  0  0  0
  140.6880   71.9110  224.8400 N   0  0  0  0  0  0  0  0  0  0  0  0
  138.7370   73.6240  223.0450 H   0  0  0  0  0  0  0  0  0  0  0  0
  139.4834   73.6403  220.1872 H   0  0  0  0  0  0  0  0  0  0  0  0
  138.6216   74.9443  221.0855 H   0  0  0  0  0  0  0  0  0  0  0  0
  140.4444   76.2974  218.2907 H   0  0  0  0  0  0  0  0  0  0  0  0
  140.1667   77.2722  219.7192 H   0  0  0  0  0  0  0  0  0  0  0  0
  142.0647   78.5200  219.2031 H   0  0  0  0  0  0  0  0  0  0  0  0
  143.0980   78.1530  217.2200 H   0  0  0  0  0  0  0  0  0  0  0  0
  144.2499   76.8397  218.8815 H   0  0  0  0  0  0  0  0  0  0  0  0
  143.6402   77.1064  220.4716 H   0  0  0  0  0  0  0  0  0  0  0  0
  142.6276   74.8036  218.4689 H   0  0  0  0  0  0  0  0  0  0  0  0
  146.7820   74.5675  221.3372 H   0  0  0  0  0  0  0  0  0  0  0  0
  146.3811   72.1332  221.7003 H   0  0  0  0  0  0  0  0  0  0  0  0
  144.1740   71.1764  220.9763 H   0  0  0  0  0  0  0  0  0  0  0  0
  139.1552   69.9141  222.6883 H   0  0  0  0  0  0  0  0  0  0  0  0
  138.9092   68.4903  224.6698 H   0  0  0  0  0  0  0  0  0  0  0  0
  139.2965   68.1499  226.9953 H   0  0  0  0  0  0  0  0  0  0  0  0
  140.2165   68.9279  229.1558 H   0  0  0  0  0  0  0  0  0  0  0  0
  141.3655   71.1397  229.2838 H   0  0  0  0  0  0  0  0  0  0  0  0
  141.5817   72.5296  227.2441 H   0  0  0  0  0  0  0  0  0  0  0  0
  1  2  2  0
  2  3  1  0
  3  4  1  0
  4  5  1  0
  5  6  2  0
  5  7  1  0
  7  8  1  0
  8  9  1  0
  9 10  1  0
  9 11  1  0
 11 12  1  0
 12 13  1  0
 13 14  2  0
 14 15  1  0
 15 16  2  0
 16 17  1  0
 17 18  2  0
  2 19  1  0
 19 20  2  0
 20 21  1  0
 21 22  2  0
 22 23  1  0
 23 24  2  0
 24 25  1  0
 25 26  2  0
 26 27  1  0
 27 28  2  0
 12  7  1  0
 18 13  1  0
 28 19  1  0
 27 22  1  0
  3 29  1  0
  4 30  1  0
  4 31  1  0
  8 32  1  0
  8 33  1  0
  9 34  1  1
 10 35  1  0
 11 36  1  0
 11 37  1  0
 12 38  1  6
 15 39  1  0
 16 40  1  0
 17 41  1  0
 20 42  1  0
 21 43  1  0
 23 44  1  0
 24 45  1  0
 25 46  1  0
 26 47  1  0
M  END
>  <smiles>  (50) 
O=C(NCC(=O)N1C[C@H](O)C[C@H]1c1ncccn1)c1ccc2ccccc2n1

>  <score_type>  (50) 
oracle

>  <origin>  (50) 
autodockgpu

>  <m_score__min__energy>  (50) 
-8.4700000000000006

>  <m_primary>  (50) 
energy

>  <rmsd>  (50) 
3.6949363849343917

>  <m_score__min__rmsd>  (50) 
3.6949363849343917

>  <meeko>  (50) 
{"free_energy": -8.1, "intermolecular_energy": -9.89, "internal_energy": -1.54, "cluster_size": 4, "cluster_id": 2, "rank_in_cluster": 1}

>  <energy>  (50) 
-7.33

>  <cluster_rmsd>  (50) 
0.0

>  <cluster>  (50) 
4

$$$$
