
     RDKit          3D

 71 74  0  0  0  0  0  0  0  0999 V2000
  145.6800   73.3720  221.0970 C   0  0  0  0  0  0  0  0  0  0  0  0
  144.5880   72.3800  220.6910 C   0  0  0  0  0  0  0  0  0  0  0  0
  144.9980   71.8540  219.3640 C   0  0  0  0  0  0  0  0  0  0  0  0
  145.9440   72.4490  218.7860 O   0  0  0  0  0  0  0  0  0  0  0  0
  144.3240   70.7290  218.8160 N   0  0  0  0  0  0  0  0  0  0  0  0
  145.0100   69.4940  218.6490 C   0  0  0  0  0  0  0  0  0  0  0  0
  144.9590   68.6140  219.7160 C   0  0  0  0  0  0  0  0  0  0  0  0
  145.6000   67.3790  219.6500 C   0  0  0  0  0  0  0  0  0  0  0  0
  146.2990   67.0380  218.4900 C   0  0  0  0  0  0  0  0  0  0  0  0
  146.3350   67.9340  217.4400 C   0  0  0  0  0  0  0  0  0  0  0  0
  145.6990   69.1690  217.4920 C   0  0  0  0  0  0  0  0  0  0  0  0
  142.9060   70.8800  218.4340 C   0  0  0  0  0  0  0  0  0  0  0  0
  142.5760   72.2970  218.1330 C   0  0  0  0  0  0  0  0  0  0  0  0
  141.1300   72.6320  218.2020 C   0  0  0  0  0  0  0  0  0  0  0  0
  140.6210   72.0930  219.4500 N   0  0  0  0  0  0  0  0  0  0  0  0
  140.1440   73.0180  220.4020 C   0  0  0  0  0  0  0  0  0  0  0  0
  140.2470   74.2480  220.1010 O   0  0  0  0  0  0  0  0  0  0  0  0
  139.5370   72.6210  221.7220 C   0  0  1  0  0  0  0  0  0  0  0  0
  139.1850   73.9150  222.3330 N   0  0  0  0  0  0  0  0  0  0  0  0
  138.2800   71.8650  221.3580 C   0  0  0  0  0  0  0  0  0  0  0  0
  137.9860   70.8810  222.3190 N   0  0  0  0  0  0  0  0  0  0  0  0
  138.6410   69.6460  222.3250 C   0  0  0  0  0  0  0  0  0  0  0  0
  139.5400   69.4320  223.5410 C   0  0  0  0  0  0  0  0  0  0  0  0
  138.8980   70.0360  224.7210 N   0  0  0  0  0  0  0  0  0  0  0  0
  139.6410   70.3440  225.8870 C   0  0  0  0  0  0  0  0  0  0  0  0
  140.3990   71.4690  226.0540 C   0  0  0  0  0  0  0  0  0  0  0  0
  141.1230   71.7330  227.2210 C   0  0  0  0  0  0  0  0  0  0  0  0
  141.0900   70.8270  228.2740 C   0  0  0  0  0  0  0  0  0  0  0  0
  140.3220   69.6740  228.1210 C   0  0  0  0  0  0  0  0  0  0  0  0
  139.6150   69.4450  226.9450 C   0  0  0  0  0  0  0  0  0  0  0  0
  137.4750   70.2840  224.5770 C   0  0  0  0  0  0  0  0  0  0  0  0
  137.3790   71.3580  223.5060 C   0  0  0  0  0  0  0  0  0  0  0  0
  140.6660   70.6620  219.6160 C   0  0  0  0  0  0  0  0  0  0  0  0
  142.0600   70.1770  219.4230 C   0  0  0  0  0  0  0  0  0  0  0  0
  145.7380   73.4247  222.1942 H   0  0  0  0  0  0  0  0  0  0  0  0
  146.6474   73.0374  220.6943 H   0  0  0  0  0  0  0  0  0  0  0  0
  145.4396   74.3670  220.6943 H   0  0  0  0  0  0  0  0  0  0  0  0
  144.5205   71.5624  221.4238 H   0  0  0  0  0  0  0  0  0  0  0  0
  143.5985   72.8587  220.6505 H   0  0  0  0  0  0  0  0  0  0  0  0
  144.4066   68.8927  220.6255 H   0  0  0  0  0  0  0  0  0  0  0  0
  145.5562   66.6819  220.4998 H   0  0  0  0  0  0  0  0  0  0  0  0
  146.8138   66.0689  218.4139 H   0  0  0  0  0  0  0  0  0  0  0  0
  146.8873   67.6605  216.5289 H   0  0  0  0  0  0  0  0  0  0  0  0
  145.7415   69.8657  216.6418 H   0  0  0  0  0  0  0  0  0  0  0  0
  142.6863   70.3834  217.4774 H   0  0  0  0  0  0  0  0  0  0  0  0
  143.1087   72.9326  218.8557 H   0  0  0  0  0  0  0  0  0  0  0  0
  142.8829   72.4700  217.0909 H   0  0  0  0  0  0  0  0  0  0  0  0
  140.9951   73.7235  218.1805 H   0  0  0  0  0  0  0  0  0  0  0  0
  140.5899   72.2047  217.3443 H   0  0  0  0  0  0  0  0  0  0  0  0
  140.1688   72.0139  222.3870 H   0  0  0  0  0  0  0  0  0  0  0  0
  139.5690   74.7190  221.7910 H   0  0  0  0  0  0  0  0  0  0  0  0
  139.5620   73.9770  223.3020 H   0  0  0  0  0  0  0  0  0  0  0  0
  137.4396   72.5722  221.2989 H   0  0  0  0  0  0  0  0  0  0  0  0
  138.4375   71.3707  220.3880 H   0  0  0  0  0  0  0  0  0  0  0  0
  137.8816   68.8504  222.3106 H   0  0  0  0  0  0  0  0  0  0  0  0
  139.2908   69.6232  221.4377 H   0  0  0  0  0  0  0  0  0  0  0  0
  139.6830   68.3544  223.7095 H   0  0  0  0  0  0  0  0  0  0  0  0
  140.5193   69.9021  223.3679 H   0  0  0  0  0  0  0  0  0  0  0  0
  140.4415   72.2000  225.2331 H   0  0  0  0  0  0  0  0  0  0  0  0
  141.7168   72.6551  227.3051 H   0  0  0  0  0  0  0  0  0  0  0  0
  141.6529   71.0141  229.2003 H   0  0  0  0  0  0  0  0  0  0  0  0
  140.2745   68.9385  228.9375 H   0  0  0  0  0  0  0  0  0  0  0  0
  139.0184   68.5257  226.8505 H   0  0  0  0  0  0  0  0  0  0  0  0
  136.9519   69.3702  224.2585 H   0  0  0  0  0  0  0  0  0  0  0  0
  137.0082   70.5956  225.5230 H   0  0  0  0  0  0  0  0  0  0  0  0
  136.3218   71.5914  223.3115 H   0  0  0  0  0  0  0  0  0  0  0  0
  137.8932   72.2690  223.8461 H   0  0  0  0  0  0  0  0  0  0  0  0
  140.3251   70.4007  220.6287 H   0  0  0  0  0  0  0  0  0  0  0  0
  140.0097   70.1885  218.8710 H   0  0  0  0  0  0  0  0  0  0  0  0
  142.5683   70.2448  220.3962 H   0  0  0  0  0  0  0  0  0  0  0  0
  141.9452   69.1615  219.0160 H   0  0  0  0  0  0  0  0  0  0  0  0
  1  2  1  0
  2  3  1  0
  3  4  2  0
  3  5  1  0
  5  6  1  0
  6  7  2  0
  7  8  1  0
  8  9  2  0
  9 10  1  0
 10 11  2  0
  5 12  1  0
 12 13  1  0
 13 14  1  0
 14 15  1  0
 15 16  1  0
 16 17  2  0
 16 18  1  0
 18 19  1  0
 18 20  1  0
 20 21  1  0
 21 22  1  0
 22 23  1  0
 23 24  1  0
 24 25  1  0
 25 26  2  0
 26 27  1  0
 27 28  2  0
 28 29  1  0
 29 30  2  0
 24 31  1  0
 31 32  1  0
 15 33  1  0
 33 34  1  0
 11  6  1  0
 34 12  1  0
 32 21  1  0
 30 25  1  0
  1 35  1  0
  1 36  1  0
  1 37  1  0
  2 38  1  0
  2 39  1  0
  7 40  1  0
  8 41  1  0
  9 42  1  0
 10 43  1  0
 11 44  1  0
 12 45  1  0
 13 46  1  0
 13 47  1  0
 14 48  1  0
 14 49  1  0
 18 50  1  1
 19 51  1  0
 19 52  1  0
 20 53  1  0
 20 54  1  0
 22 55  1  0
 22 56  1  0
 23 57  1  0
 23 58  1  0
 26 59  1  0
 27 60  1  0
 28 61  1  0
 29 62  1  0
 30 63  1  0
 31 64  1  0
 31 65  1  0
 32 66  1  0
 32 67  1  0
 33 68  1  0
 33 69  1  0
 34 70  1  0
 34 71  1  0
M  END
>  <smiles>  (1) 
CCC(=O)N(c1ccccc1)C1CCN(C(=O)[C@@H](N)CN2CCN(c3ccccc3)CC2)CC1

>  <score_type>  (1) 
oracle

>  <origin>  (1) 
autodockgpu

>  <m_score__min__energy>  (1) 
-8.5700000000000003

>  <m_primary>  (1) 
energy

>  <rmsd>  (1) 
9.243592154477962

>  <m_score__min__rmsd>  (1) 
9.243592154477962

>  <meeko>  (1) 
{"free_energy": -7.7, "intermolecular_energy": -10.39, "internal_energy": -2.78, "cluster_size": 5, "cluster_id": 4, "rank_in_cluster": 5}

>  <energy>  (1) 
-8.57

>  <cluster_rmsd>  (1) 
0.0

>  <cluster>  (1) 
1

$$$$

     RDKit          3D

 71 74  0  0  0  0  0  0  0  0999 V2000
  141.1300   68.0250  228.3580 C   0  0  0  0  0  0  0  0  0  0  0  0
  141.0510   67.5150  226.9180 C   0  0  0  0  0  0  0  0  0  0  0  0
  139.6910   67.8720  226.4400 C   0  0  0  0  0  0  0  0  0  0  0  0
  138.8160   66.9700  226.4960 O   0  0  0  0  0  0  0  0  0  0  0  0
  139.4390   69.1840  225.9530 N   0  0  0  0  0  0  0  0  0  0  0  0
  140.0870   70.3040  226.5450 C   0  0  0  0  0  0  0  0  0  0  0  0
  141.0740   70.9120  225.7890 C   0  0  0  0  0  0  0  0  0  0  0  0
  141.7670   72.0160  226.2800 C   0  0  0  0  0  0  0  0  0  0  0  0
  141.4540   72.5030  227.5520 C   0  0  0  0  0  0  0  0  0  0  0  0
  140.4650   71.8780  228.2850 C   0  0  0  0  0  0  0  0  0  0  0  0
  139.7650   70.7760  227.8060 C   0  0  0  0  0  0  0  0  0  0  0  0
  138.5000   69.3440  224.8260 C   0  0  0  0  0  0  0  0  0  0  0  0
  138.9680   68.6070  223.6250 C   0  0  0  0  0  0  0  0  0  0  0  0
  138.3800   69.0670  222.3400 C   0  0  0  0  0  0  0  0  0  0  0  0
  138.4940   70.5130  222.3050 N   0  0  0  0  0  0  0  0  0  0  0  0
  139.3130   71.0690  221.3000 C   0  0  0  0  0  0  0  0  0  0  0  0
  139.9170   70.2500  220.5410 O   0  0  0  0  0  0  0  0  0  0  0  0
  139.4950   72.5500  221.0950 C   0  0  1  0  0  0  0  0  0  0  0  0
  140.1480   72.9840  222.3430 N   0  0  0  0  0  0  0  0  0  0  0  0
  140.4640   72.6640  219.9410 C   0  0  0  0  0  0  0  0  0  0  0  0
  141.4230   73.6650  220.1810 N   0  0  0  0  0  0  0  0  0  0  0  0
  142.7810   73.3610  220.3100 C   0  0  0  0  0  0  0  0  0  0  0  0
  143.6470   73.9160  219.1810 C   0  0  0  0  0  0  0  0  0  0  0  0
  143.1260   75.2370  218.7870 N   0  0  0  0  0  0  0  0  0  0  0  0
  143.4590   75.8170  217.5370 C   0  0  0  0  0  0  0  0  0  0  0  0
  142.9410   76.9870  217.0590 C   0  0  0  0  0  0  0  0  0  0  0  0
  143.2910   77.5230  215.8160 C   0  0  0  0  0  0  0  0  0  0  0  0
  144.2040   76.8560  215.0090 C   0  0  0  0  0  0  0  0  0  0  0  0
  144.7410   75.6590  215.4800 C   0  0  0  0  0  0  0  0  0  0  0  0
  144.3690   75.1570  216.7230 C   0  0  0  0  0  0  0  0  0  0  0  0
  142.2610   75.8650  219.7690 C   0  0  0  0  0  0  0  0  0  0  0  0
  141.0300   74.9770  219.8200 C   0  0  0  0  0  0  0  0  0  0  0  0
  137.7780   71.2540  223.3120 C   0  0  0  0  0  0  0  0  0  0  0  0
  138.1760   70.7790  224.6650 C   0  0  0  0  0  0  0  0  0  0  0  0
  140.9995   67.1825  229.0531 H   0  0  0  0  0  0  0  0  0  0  0  0
  142.1112   68.4921  228.5282 H   0  0  0  0  0  0  0  0  0  0  0  0
  140.3361   68.7671  228.5282 H   0  0  0  0  0  0  0  0  0  0  0  0
  141.8164   68.0020  226.2960 H   0  0  0  0  0  0  0  0  0  0  0  0
  141.2304   66.4313  226.8604 H   0  0  0  0  0  0  0  0  0  0  0  0
  141.3137   70.5193  224.7899 H   0  0  0  0  0  0  0  0  0  0  0  0
  142.5495   72.4977  225.6752 H   0  0  0  0  0  0  0  0  0  0  0  0
  141.9882   73.3721  227.9634 H   0  0  0  0  0  0  0  0  0  0  0  0
  140.2217   72.2661  229.2851 H   0  0  0  0  0  0  0  0  0  0  0  0
  138.9810   70.2950  228.4094 H   0  0  0  0  0  0  0  0  0  0  0  0
  137.5323   68.8621  225.0293 H   0  0  0  0  0  0  0  0  0  0  0  0
  140.0604   68.7181  223.5601 H   0  0  0  0  0  0  0  0  0  0  0  0
  138.6435   67.5643  223.7570 H   0  0  0  0  0  0  0  0  0  0  0  0
  138.9296   68.6258  221.4955 H   0  0  0  0  0  0  0  0  0  0  0  0
  137.3273   68.7579  222.2613 H   0  0  0  0  0  0  0  0  0  0  0  0
  138.5837   73.1302  220.8876 H   0  0  0  0  0  0  0  0  0  0  0  0
  139.4670   73.4000  223.0140 H   0  0  0  0  0  0  0  0  0  0  0  0
  140.8770   73.7010  222.1450 H   0  0  0  0  0  0  0  0  0  0  0  0
  140.9769   71.7003  219.8062 H   0  0  0  0  0  0  0  0  0  0  0  0
  139.8990   72.9317  219.0359 H   0  0  0  0  0  0  0  0  0  0  0  0
  143.1413   73.7797  221.2613 H   0  0  0  0  0  0  0  0  0  0  0  0
  142.8689   72.2652  220.2721 H   0  0  0  0  0  0  0  0  0  0  0  0
  144.6860   74.0170  219.5277 H   0  0  0  0  0  0  0  0  0  0  0  0
  143.6207   73.2323  218.3197 H   0  0  0  0  0  0  0  0  0  0  0  0
  142.2154   77.5324  217.6803 H   0  0  0  0  0  0  0  0  0  0  0  0
  142.8448   78.4700  215.4781 H   0  0  0  0  0  0  0  0  0  0  0  0
  144.4944   77.2602  214.0280 H   0  0  0  0  0  0  0  0  0  0  0  0
  145.4653   75.1065  214.8634 H   0  0  0  0  0  0  0  0  0  0  0  0
  144.8085   74.2104  217.0705 H   0  0  0  0  0  0  0  0  0  0  0  0
  142.7532   75.9031  220.7520 H   0  0  0  0  0  0  0  0  0  0  0  0
  142.0149   76.9038  219.5040 H   0  0  0  0  0  0  0  0  0  0  0  0
  140.3232   75.3688  220.5663 H   0  0  0  0  0  0  0  0  0  0  0  0
  140.5420   74.9610  218.8343 H   0  0  0  0  0  0  0  0  0  0  0  0
  138.0152   72.3238  223.2160 H   0  0  0  0  0  0  0  0  0  0  0  0
  136.6972   71.1006  223.1764 H   0  0  0  0  0  0  0  0  0  0  0  0
  139.0660   71.3517  224.9649 H   0  0  0  0  0  0  0  0  0  0  0  0
  137.2810   70.9318  225.2860 H   0  0  0  0  0  0  0  0  0  0  0  0
  1  2  1  0
  2  3  1  0
  3  4  2  0
  3  5  1  0
  5  6  1  0
  6  7  2  0
  7  8  1  0
  8  9  2  0
  9 10  1  0
 10 11  2  0
  5 12  1  0
 12 13  1  0
 13 14  1  0
 14 15  1  0
 15 16  1  0
 16 17  2  0
 16 18  1  0
 18 19  1  0
 18 20  1  0
 20 21  1  0
 21 22  1  0
 22 23  1  0
 23 24  1  0
 24 25  1  0
 25 26  2  0
 26 27  1  0
 27 28  2  0
 28 29  1  0
 29 30  2  0
 24 31  1  0
 31 32  1  0
 15 33  1  0
 33 34  1  0
 11  6  1  0
 34 12  1  0
 32 21  1  0
 30 25  1  0
  1 35  1  0
  1 36  1  0
  1 37  1  0
  2 38  1  0
  2 39  1  0
  7 40  1  0
  8 41  1  0
  9 42  1  0
 10 43  1  0
 11 44  1  0
 12 45  1  0
 13 46  1  0
 13 47  1  0
 14 48  1  0
 14 49  1  0
 18 50  1  6
 19 51  1  0
 19 52  1  0
 20 53  1  0
 20 54  1  0
 22 55  1  0
 22 56  1  0
 23 57  1  0
 23 58  1  0
 26 59  1  0
 27 60  1  0
 28 61  1  0
 29 62  1  0
 30 63  1  0
 31 64  1  0
 31 65  1  0
 32 66  1  0
 32 67  1  0
 33 68  1  0
 33 69  1  0
 34 70  1  0
 34 71  1  0
M  END
>  <smiles>  (2) 
CCC(=O)N(c1ccccc1)C1CCN(C(=O)[C@@H](N)CN2CCN(c3ccccc3)CC2)CC1

>  <score_type>  (2) 
oracle

>  <origin>  (2) 
autodockgpu

>  <m_score__min__energy>  (2) 
-8.5700000000000003

>  <m_primary>  (2) 
energy

>  <rmsd>  (2) 
6.018731070007965

>  <m_score__min__rmsd>  (2) 
6.018731070007965

>  <meeko>  (2) 
{"free_energy": -7.55, "intermolecular_energy": -10.24, "internal_energy": -2.5, "cluster_size": 1, "cluster_id": 8, "rank_in_cluster": 1}

>  <energy>  (2) 
-8.1

>  <cluster_rmsd>  (2) 
1.65

>  <cluster>  (2) 
1

$$$$

     RDKit          3D

 71 74  0  0  0  0  0  0  0  0999 V2000
  144.8750   73.8640  220.3520 C   0  0  0  0  0  0  0  0  0  0  0  0
  144.9730   72.3480  220.5270 C   0  0  0  0  0  0  0  0  0  0  0  0
  145.1290   71.7950  219.1570 C   0  0  0  0  0  0  0  0  0  0  0  0
  145.9340   72.3910  218.3940 O   0  0  0  0  0  0  0  0  0  0  0  0
  144.3850   70.6460  218.7740 N   0  0  0  0  0  0  0  0  0  0  0  0
  145.0080   69.3670  218.7430 C   0  0  0  0  0  0  0  0  0  0  0  0
  145.6750   69.0380  217.5760 C   0  0  0  0  0  0  0  0  0  0  0  0
  146.3160   67.8090  217.4460 C   0  0  0  0  0  0  0  0  0  0  0  0
  146.2770   66.9070  218.5130 C   0  0  0  0  0  0  0  0  0  0  0  0
  145.6040   67.2600  219.6650 C   0  0  0  0  0  0  0  0  0  0  0  0
  144.9610   68.4840  219.8080 C   0  0  0  0  0  0  0  0  0  0  0  0
  142.9630   70.8200  218.4190 C   0  0  0  0  0  0  0  0  0  0  0  0
  142.6670   72.2280  218.0500 C   0  0  0  0  0  0  0  0  0  0  0  0
  141.2330   72.6100  218.1360 C   0  0  0  0  0  0  0  0  0  0  0  0
  140.7410   72.1540  219.4230 N   0  0  0  0  0  0  0  0  0  0  0  0
  140.3150   73.1420  220.3340 C   0  0  0  0  0  0  0  0  0  0  0  0
  140.4460   74.3500  219.9660 O   0  0  0  0  0  0  0  0  0  0  0  0
  139.7310   72.8340  221.6880 C   0  0  1  0  0  0  0  0  0  0  0  0
  139.6310   74.1610  222.3210 N   0  0  0  0  0  0  0  0  0  0  0  0
  138.3480   72.2960  221.4000 C   0  0  0  0  0  0  0  0  0  0  0  0
  138.0450   71.2060  222.2350 N   0  0  0  0  0  0  0  0  0  0  0  0
  138.7260   69.9900  222.1280 C   0  0  0  0  0  0  0  0  0  0  0  0
  139.5910   69.6590  223.3420 C   0  0  0  0  0  0  0  0  0  0  0  0
  138.8990   70.1170  224.5590 N   0  0  0  0  0  0  0  0  0  0  0  0
  139.5980   70.3070  225.7770 C   0  0  0  0  0  0  0  0  0  0  0  0
  139.5710   69.4410  226.8340 C   0  0  0  0  0  0  0  0  0  0  0  0
  140.2720   69.6690  228.0220 C   0  0  0  0  0  0  0  0  0  0  0  0
  141.0370   70.8200  228.1630 C   0  0  0  0  0  0  0  0  0  0  0  0
  141.0750   71.7150  227.0940 C   0  0  0  0  0  0  0  0  0  0  0  0
  140.3650   71.4550  225.9270 C   0  0  0  0  0  0  0  0  0  0  0  0
  137.4760   70.3540  224.3950 C   0  0  0  0  0  0  0  0  0  0  0  0
  137.3910   71.5380  223.4470 C   0  0  0  0  0  0  0  0  0  0  0  0
  140.7490   70.7330  219.6640 C   0  0  0  0  0  0  0  0  0  0  0  0
  142.1230   70.1960  219.4640 C   0  0  0  0  0  0  0  0  0  0  0  0
  144.8438   74.3459  221.3403 H   0  0  0  0  0  0  0  0  0  0  0  0
  145.7516   74.2262  219.7949 H   0  0  0  0  0  0  0  0  0  0  0  0
  143.9591   74.1103  219.7949 H   0  0  0  0  0  0  0  0  0  0  0  0
  145.8441   72.0889  221.1468 H   0  0  0  0  0  0  0  0  0  0  0  0
  144.0852   71.9391  221.0315 H   0  0  0  0  0  0  0  0  0  0  0  0
  145.6990   69.7551  216.7423 H   0  0  0  0  0  0  0  0  0  0  0  0
  146.8456   67.5515  216.5169 H   0  0  0  0  0  0  0  0  0  0  0  0
  146.7757   65.9296  218.4356 H   0  0  0  0  0  0  0  0  0  0  0  0
  145.5754   66.5460  220.5013 H   0  0  0  0  0  0  0  0  0  0  0  0
  144.4320   68.7425  220.7372 H   0  0  0  0  0  0  0  0  0  0  0  0
  142.7038   70.2809  217.4959 H   0  0  0  0  0  0  0  0  0  0  0  0
  143.2365   72.8847  218.7241 H   0  0  0  0  0  0  0  0  0  0  0  0
  142.9519   72.3360  216.9930 H   0  0  0  0  0  0  0  0  0  0  0  0
  141.1292   73.7024  218.0589 H   0  0  0  0  0  0  0  0  0  0  0  0
  140.6588   72.1541  217.3160 H   0  0  0  0  0  0  0  0  0  0  0  0
  140.2943   72.1250  222.3125 H   0  0  0  0  0  0  0  0  0  0  0  0
  138.8190   74.2210  222.9720 H   0  0  0  0  0  0  0  0  0  0  0  0
  139.5150   74.9040  221.6000 H   0  0  0  0  0  0  0  0  0  0  0  0
  137.6098   73.0939  221.5686 H   0  0  0  0  0  0  0  0  0  0  0  0
  138.3165   71.9548  220.3547 H   0  0  0  0  0  0  0  0  0  0  0  0
  137.9846   69.1873  222.0012 H   0  0  0  0  0  0  0  0  0  0  0  0
  139.4037   70.0772  221.2660 H   0  0  0  0  0  0  0  0  0  0  0  0
  139.7521   68.5722  223.3955 H   0  0  0  0  0  0  0  0  0  0  0  0
  140.5649   70.1628  223.2546 H   0  0  0  0  0  0  0  0  0  0  0  0
  138.9708   68.5234  226.7461 H   0  0  0  0  0  0  0  0  0  0  0  0
  140.2179   68.9389  228.8430 H   0  0  0  0  0  0  0  0  0  0  0  0
  141.5957   71.0194  229.0894 H   0  0  0  0  0  0  0  0  0  0  0  0
  141.6722   72.6352  227.1748 H   0  0  0  0  0  0  0  0  0  0  0  0
  140.4122   72.1786  225.0998 H   0  0  0  0  0  0  0  0  0  0  0  0
  136.9831   69.4721  223.9599 H   0  0  0  0  0  0  0  0  0  0  0  0
  136.9728   70.5501  225.3533 H   0  0  0  0  0  0  0  0  0  0  0  0
  136.3357   71.7732  223.2443 H   0  0  0  0  0  0  0  0  0  0  0  0
  137.8750   72.4145  223.9026 H   0  0  0  0  0  0  0  0  0  0  0  0
  140.4265   70.5359  220.6970 H   0  0  0  0  0  0  0  0  0  0  0  0
  140.0606   70.2412  218.9609 H   0  0  0  0  0  0  0  0  0  0  0  0
  142.6578   70.2995  220.4197 H   0  0  0  0  0  0  0  0  0  0  0  0
  141.9686   69.1643  219.1151 H   0  0  0  0  0  0  0  0  0  0  0  0
  1  2  1  0
  2  3  1  0
  3  4  2  0
  3  5  1  0
  5  6  1  0
  6  7  2  0
  7  8  1  0
  8  9  2  0
  9 10  1  0
 10 11  2  0
  5 12  1  0
 12 13  1  0
 13 14  1  0
 14 15  1  0
 15 16  1  0
 16 17  2  0
 16 18  1  0
 18 19  1  0
 18 20  1  0
 20 21  1  0
 21 22  1  0
 22 23  1  0
 23 24  1  0
 24 25  1  0
 25 26  2  0
 26 27  1  0
 27 28  2  0
 28 29  1  0
 29 30  2  0
 24 31  1  0
 31 32  1  0
 15 33  1  0
 33 34  1  0
 11  6  1  0
 34 12  1  0
 32 21  1  0
 30 25  1  0
  1 35  1  0
  1 36  1  0
  1 37  1  0
  2 38  1  0
  2 39  1  0
  7 40  1  0
  8 41  1  0
  9 42  1  0
 10 43  1  0
 11 44  1  0
 12 45  1  0
 13 46  1  0
 13 47  1  0
 14 48  1  0
 14 49  1  0
 18 50  1  1
 19 51  1  0
 19 52  1  0
 20 53  1  0
 20 54  1  0
 22 55  1  0
 22 56  1  0
 23 57  1  0
 23 58  1  0
 26 59  1  0
 27 60  1  0
 28 61  1  0
 29 62  1  0
 30 63  1  0
 31 64  1  0
 31 65  1  0
 32 66  1  0
 32 67  1  0
 33 68  1  0
 33 69  1  0
 34 70  1  0
 34 71  1  0
M  END
>  <smiles>  (3) 
CCC(=O)N(c1ccccc1)C1CCN(C(=O)[C@@H](N)CN2CCN(c3ccccc3)CC2)CC1

>  <score_type>  (3) 
oracle

>  <origin>  (3) 
autodockgpu

>  <m_score__min__energy>  (3) 
-8.5700000000000003

>  <m_primary>  (3) 
energy

>  <rmsd>  (3) 
9.124442306216412

>  <m_score__min__rmsd>  (3) 
9.124442306216412

>  <meeko>  (3) 
{"free_energy": -7.95, "intermolecular_energy": -10.63, "internal_energy": -2.89, "cluster_size": 5, "cluster_id": 4, "rank_in_cluster": 2}

>  <energy>  (3) 
-8.01

>  <cluster_rmsd>  (3) 
1.68

>  <cluster>  (3) 
1

$$$$

     RDKit          3D

 71 74  0  0  0  0  0  0  0  0999 V2000
  142.5330   80.1450  218.4380 C   0  0  0  0  0  0  0  0  0  0  0  0
  141.3090   81.0020  218.1100 C   0  0  0  0  0  0  0  0  0  0  0  0
  140.8560   81.5680  219.4070 C   0  0  0  0  0  0  0  0  0  0  0  0
  140.8500   82.8220  219.5060 O   0  0  0  0  0  0  0  0  0  0  0  0
  140.4580   80.6930  220.4540 N   0  0  0  0  0  0  0  0  0  0  0  0
  141.2280   80.6090  221.6490 C   0  0  0  0  0  0  0  0  0  0  0  0
  141.8190   79.3860  221.9120 C   0  0  0  0  0  0  0  0  0  0  0  0
  142.5920   79.2020  223.0560 C   0  0  0  0  0  0  0  0  0  0  0  0
  142.7620   80.2720  223.9400 C   0  0  0  0  0  0  0  0  0  0  0  0
  142.1600   81.4810  223.6530 C   0  0  0  0  0  0  0  0  0  0  0  0
  141.3880   81.6780  222.5140 C   0  0  0  0  0  0  0  0  0  0  0  0
  139.2360   79.8870  220.2670 C   0  0  0  0  0  0  0  0  0  0  0  0
  138.5390   79.6560  221.5580 C   0  0  0  0  0  0  0  0  0  0  0  0
  137.6010   78.5040  221.5660 C   0  0  0  0  0  0  0  0  0  0  0  0
  138.3010   77.3710  220.9880 N   0  0  0  0  0  0  0  0  0  0  0  0
  138.5330   76.2630  221.8290 C   0  0  0  0  0  0  0  0  0  0  0  0
  138.1480   76.3730  223.0350 O   0  0  0  0  0  0  0  0  0  0  0  0
  139.1980   74.9920  221.3720 C   0  0  1  0  0  0  0  0  0  0  0  0
  139.5750   74.3350  222.6360 N   0  0  0  0  0  0  0  0  0  0  0  0
  138.1020   74.2050  220.6900 C   0  0  0  0  0  0  0  0  0  0  0  0
  138.2470   72.8260  220.9270 N   0  0  0  0  0  0  0  0  0  0  0  0
  139.4030   72.1360  220.5500 C   0  0  0  0  0  0  0  0  0  0  0  0
  140.2240   71.6170  221.7280 C   0  0  0  0  0  0  0  0  0  0  0  0
  139.3040   71.1750  222.7910 N   0  0  0  0  0  0  0  0  0  0  0  0
  139.7440   71.0160  224.1280 C   0  0  0  0  0  0  0  0  0  0  0  0
  140.6530   71.8250  224.7500 C   0  0  0  0  0  0  0  0  0  0  0  0
  141.0660   71.6310  226.0720 C   0  0  0  0  0  0  0  0  0  0  0  0
  140.5470   70.5740  226.8100 C   0  0  0  0  0  0  0  0  0  0  0  0
  139.6190   69.7380  226.1900 C   0  0  0  0  0  0  0  0  0  0  0  0
  139.2310   69.9630  224.8730 C   0  0  0  0  0  0  0  0  0  0  0  0
  137.9420   70.9300  222.3510 C   0  0  0  0  0  0  0  0  0  0  0  0
  137.4180   72.2980  221.9460 C   0  0  0  0  0  0  0  0  0  0  0  0
  138.7170   77.4860  219.6140 C   0  0  0  0  0  0  0  0  0  0  0  0
  139.5580   78.7020  219.4420 C   0  0  0  0  0  0  0  0  0  0  0  0
  142.6442   80.0671  219.5296 H   0  0  0  0  0  0  0  0  0  0  0  0
  142.4023   79.1401  218.0101 H   0  0  0  0  0  0  0  0  0  0  0  0
  143.4326   80.6115  218.0101 H   0  0  0  0  0  0  0  0  0  0  0  0
  141.5810   81.8087  217.4135 H   0  0  0  0  0  0  0  0  0  0  0  0
  140.5174   80.4113  217.6259 H   0  0  0  0  0  0  0  0  0  0  0  0
  141.6770   78.5506  221.2106 H   0  0  0  0  0  0  0  0  0  0  0  0
  143.0620   78.2289  223.2611 H   0  0  0  0  0  0  0  0  0  0  0  0
  143.3667   80.1523  224.8511 H   0  0  0  0  0  0  0  0  0  0  0  0
  142.2964   82.3195  224.3518 H   0  0  0  0  0  0  0  0  0  0  0  0
  140.9195   82.6514  222.3067 H   0  0  0  0  0  0  0  0  0  0  0  0
  138.4742   80.4294  219.6878 H   0  0  0  0  0  0  0  0  0  0  0  0
  139.3015   79.4809  222.3313 H   0  0  0  0  0  0  0  0  0  0  0  0
  137.9282   80.5519  221.7430 H   0  0  0  0  0  0  0  0  0  0  0  0
  137.2984   78.2725  222.5979 H   0  0  0  0  0  0  0  0  0  0  0  0
  136.6945   78.7368  220.9880 H   0  0  0  0  0  0  0  0  0  0  0  0
  140.0606   75.1077  220.6993 H   0  0  0  0  0  0  0  0  0  0  0  0
  138.9670   73.5140  222.8440 H   0  0  0  0  0  0  0  0  0  0  0  0
  139.4930   75.0010  223.4330 H   0  0  0  0  0  0  0  0  0  0  0  0
  137.1273   74.5358  221.0780 H   0  0  0  0  0  0  0  0  0  0  0  0
  138.1667   74.3822  219.6063 H   0  0  0  0  0  0  0  0  0  0  0  0
  139.1073   71.2777  219.9288 H   0  0  0  0  0  0  0  0  0  0  0  0
  140.0391   72.8504  220.0068 H   0  0  0  0  0  0  0  0  0  0  0  0
  140.8450   70.7700  221.4010 H   0  0  0  0  0  0  0  0  0  0  0  0
  140.8777   72.4158  222.1083 H   0  0  0  0  0  0  0  0  0  0  0  0
  141.0793   72.6671  224.1851 H   0  0  0  0  0  0  0  0  0  0  0  0
  141.7996   72.3132  226.5264 H   0  0  0  0  0  0  0  0  0  0  0  0
  140.8585   70.4022  227.8509 H   0  0  0  0  0  0  0  0  0  0  0  0
  139.1896   68.8925  226.7475 H   0  0  0  0  0  0  0  0  0  0  0  0
  138.4972   69.2875  224.4091 H   0  0  0  0  0  0  0  0  0  0  0  0
  137.9288   70.2399  221.4945 H   0  0  0  0  0  0  0  0  0  0  0  0
  137.3278   70.4635  223.1353 H   0  0  0  0  0  0  0  0  0  0  0  0
  136.3883   72.2023  221.5711 H   0  0  0  0  0  0  0  0  0  0  0  0
  137.4243   72.9709  222.8161 H   0  0  0  0  0  0  0  0  0  0  0  0
  139.2997   76.5963  219.3332 H   0  0  0  0  0  0  0  0  0  0  0  0
  137.8282   77.5651  218.9708 H   0  0  0  0  0  0  0  0  0  0  0  0
  140.5962   78.4173  219.6682 H   0  0  0  0  0  0  0  0  0  0  0  0
  139.3684   79.0253  218.4078 H   0  0  0  0  0  0  0  0  0  0  0  0
  1  2  1  0
  2  3  1  0
  3  4  2  0
  3  5  1  0
  5  6  1  0
  6  7  2  0
  7  8  1  0
  8  9  2  0
  9 10  1  0
 10 11  2  0
  5 12  1  0
 12 13  1  0
 13 14  1  0
 14 15  1  0
 15 16  1  0
 16 17  2  0
 16 18  1  0
 18 19  1  0
 18 20  1  0
 20 21  1  0
 21 22  1  0
 22 23  1  0
 23 24  1  0
 24 25  1  0
 25 26  2  0
 26 27  1  0
 27 28  2  0
 28 29  1  0
 29 30  2  0
 24 31  1  0
 31 32  1  0
 15 33  1  0
 33 34  1  0
 11  6  1  0
 34 12  1  0
 32 21  1  0
 30 25  1  0
  1 35  1  0
  1 36  1  0
  1 37  1  0
  2 38  1  0
  2 39  1  0
  7 40  1  0
  8 41  1  0
  9 42  1  0
 10 43  1  0
 11 44  1  0
 12 45  1  0
 13 46  1  0
 13 47  1  0
 14 48  1  0
 14 49  1  0
 18 50  1  6
 19 51  1  0
 19 52  1  0
 20 53  1  0
 20 54  1  0
 22 55  1  0
 22 56  1  0
 23 57  1  0
 23 58  1  0
 26 59  1  0
 27 60  1  0
 28 61  1  0
 29 62  1  0
 30 63  1  0
 31 64  1  0
 31 65  1  0
 32 66  1  0
 32 67  1  0
 33 68  1  0
 33 69  1  0
 34 70  1  0
 34 71  1  0
M  END
>  <smiles>  (4) 
CCC(=O)N(c1ccccc1)C1CCN(C(=O)[C@@H](N)CN2CCN(c3ccccc3)CC2)CC1

>  <score_type>  (4) 
oracle

>  <origin>  (4) 
autodockgpu

>  <m_score__min__energy>  (4) 
-8.5700000000000003

>  <m_primary>  (4) 
energy

>  <rmsd>  (4) 
8.286869403402962

>  <m_score__min__rmsd>  (4) 
8.286869403402962

>  <meeko>  (4) 
{"free_energy": -7.31, "intermolecular_energy": -9.99, "internal_energy": -3.37, "cluster_size": 26, "cluster_id": 3, "rank_in_cluster": 19}

>  <energy>  (4) 
-8.21

>  <cluster_rmsd>  (4) 
0.0

>  <cluster>  (4) 
2

$$$$

     RDKit          3D

 71 74  0  0  0  0  0  0  0  0999 V2000
  135.2450   69.6310  225.3300 C   0  0  0  0  0  0  0  0  0  0  0  0
  136.3110   69.2470  224.3030 C   0  0  0  0  0  0  0  0  0  0  0  0
  137.2460   70.4000  224.2460 C   0  0  0  0  0  0  0  0  0  0  0  0
  136.7290   71.5470  224.2080 O   0  0  0  0  0  0  0  0  0  0  0  0
  138.6480   70.1670  224.2360 N   0  0  0  0  0  0  0  0  0  0  0  0
  139.2810   69.5570  225.3550 C   0  0  0  0  0  0  0  0  0  0  0  0
  139.2530   68.1740  225.3970 C   0  0  0  0  0  0  0  0  0  0  0  0
  139.8430   67.4830  226.4520 C   0  0  0  0  0  0  0  0  0  0  0  0
  140.4670   68.2060  227.4730 C   0  0  0  0  0  0  0  0  0  0  0  0
  140.4800   69.5850  227.4060 C   0  0  0  0  0  0  0  0  0  0  0  0
  139.8950   70.2870  226.3590 C   0  0  0  0  0  0  0  0  0  0  0  0
  139.4170   70.5700  223.0420 C   0  0  0  0  0  0  0  0  0  0  0  0
  140.5440   71.4670  223.4030 C   0  0  0  0  0  0  0  0  0  0  0  0
  141.0730   72.2890  222.2840 C   0  0  0  0  0  0  0  0  0  0  0  0
  139.9370   72.9020  221.6220 N   0  0  0  0  0  0  0  0  0  0  0  0
  139.8510   74.3090  221.6630 C   0  0  0  0  0  0  0  0  0  0  0  0
  140.7540   74.9150  222.3190 O   0  0  0  0  0  0  0  0  0  0  0  0
  138.7650   75.1010  220.9830 C   0  0  1  0  0  0  0  0  0  0  0  0
  138.9840   76.4700  221.4820 N   0  0  0  0  0  0  0  0  0  0  0  0
  139.0990   75.0300  219.5110 C   0  0  0  0  0  0  0  0  0  0  0  0
  139.9710   76.0690  219.1390 N   0  0  0  0  0  0  0  0  0  0  0  0
  139.4900   77.3100  218.7100 C   0  0  0  0  0  0  0  0  0  0  0  0
  139.8070   78.4580  219.6660 C   0  0  0  0  0  0  0  0  0  0  0  0
  141.1450   78.2420  220.2430 N   0  0  0  0  0  0  0  0  0  0  0  0
  141.5510   78.9010  221.4290 C   0  0  0  0  0  0  0  0  0  0  0  0
  142.0670   80.1650  221.4800 C   0  0  0  0  0  0  0  0  0  0  0  0
  142.4630   80.7790  222.6730 C   0  0  0  0  0  0  0  0  0  0  0  0
  142.3370   80.0950  223.8760 C   0  0  0  0  0  0  0  0  0  0  0  0
  141.8130   78.8030  223.8420 C   0  0  0  0  0  0  0  0  0  0  0  0
  141.4300   78.2260  222.6360 C   0  0  0  0  0  0  0  0  0  0  0  0
  141.9810   77.3110  219.5050 C   0  0  0  0  0  0  0  0  0  0  0  0
  141.2850   75.9690  219.6560 C   0  0  0  0  0  0  0  0  0  0  0  0
  138.9840   72.0190  220.9990 C   0  0  0  0  0  0  0  0  0  0  0  0
  138.4790   71.0370  221.9970 C   0  0  0  0  0  0  0  0  0  0  0  0
  135.6447   69.4870  226.3447 H   0  0  0  0  0  0  0  0  0  0  0  0
  134.9661   70.6861  225.1920 H   0  0  0  0  0  0  0  0  0  0  0  0
  134.3574   68.9961  225.1920 H   0  0  0  0  0  0  0  0  0  0  0  0
  136.8417   68.3379  224.6223 H   0  0  0  0  0  0  0  0  0  0  0  0
  135.8689   69.0330  223.3187 H   0  0  0  0  0  0  0  0  0  0  0  0
  138.7595   67.6148  224.5885 H   0  0  0  0  0  0  0  0  0  0  0  0
  139.8185   66.3837  226.4817 H   0  0  0  0  0  0  0  0  0  0  0  0
  140.9407   67.6838  228.3174 H   0  0  0  0  0  0  0  0  0  0  0  0
  140.9720   70.1493  228.2119 H   0  0  0  0  0  0  0  0  0  0  0  0
  139.9189   71.3863  226.3287 H   0  0  0  0  0  0  0  0  0  0  0  0
  139.9395   69.7164  222.5856 H   0  0  0  0  0  0  0  0  0  0  0  0
  140.1981   72.1488  224.1939 H   0  0  0  0  0  0  0  0  0  0  0  0
  141.3689   70.8128  223.7217 H   0  0  0  0  0  0  0  0  0  0  0  0
  141.7457   73.0670  222.6741 H   0  0  0  0  0  0  0  0  0  0  0  0
  141.6434   71.6656  221.5797 H   0  0  0  0  0  0  0  0  0  0  0  0
  137.7326   74.7637  221.1572 H   0  0  0  0  0  0  0  0  0  0  0  0
  139.9060   76.8520  221.1780 H   0  0  0  0  0  0  0  0  0  0  0  0
  138.9610   76.4890  222.5230 H   0  0  0  0  0  0  0  0  0  0  0  0
  139.5798   74.0639  219.2979 H   0  0  0  0  0  0  0  0  0  0  0  0
  138.1670   75.1333  218.9359 H   0  0  0  0  0  0  0  0  0  0  0  0
  139.9410   77.5378  217.7329 H   0  0  0  0  0  0  0  0  0  0  0  0
  138.3942   77.2287  218.6593 H   0  0  0  0  0  0  0  0  0  0  0  0
  139.7910   79.4110  219.1169 H   0  0  0  0  0  0  0  0  0  0  0  0
  139.0559   78.4930  220.4688 H   0  0  0  0  0  0  0  0  0  0  0  0
  142.1761   80.7256  220.5399 H   0  0  0  0  0  0  0  0  0  0  0  0
  142.8727   81.7998  222.6588 H   0  0  0  0  0  0  0  0  0  0  0  0
  142.6413   80.5584  224.8261 H   0  0  0  0  0  0  0  0  0  0  0  0
  141.7016   78.2352  224.7775 H   0  0  0  0  0  0  0  0  0  0  0  0
  141.0194   77.2055  222.6386 H   0  0  0  0  0  0  0  0  0  0  0  0
  142.0421   77.5998  218.4453 H   0  0  0  0  0  0  0  0  0  0  0  0
  143.0145   77.2898  219.8811 H   0  0  0  0  0  0  0  0  0  0  0  0
  141.8421   75.2003  219.1004 H   0  0  0  0  0  0  0  0  0  0  0  0
  141.2451   75.6893  220.7191 H   0  0  0  0  0  0  0  0  0  0  0  0
  138.1415   72.6083  220.6080 H   0  0  0  0  0  0  0  0  0  0  0  0
  139.4735   71.4798  220.1746 H   0  0  0  0  0  0  0  0  0  0  0  0
  137.6224   71.5002  222.5085 H   0  0  0  0  0  0  0  0  0  0  0  0
  138.2503   70.1366  221.4080 H   0  0  0  0  0  0  0  0  0  0  0  0
  1  2  1  0
  2  3  1  0
  3  4  2  0
  3  5  1  0
  5  6  1  0
  6  7  2  0
  7  8  1  0
  8  9  2  0
  9 10  1  0
 10 11  2  0
  5 12  1  0
 12 13  1  0
 13 14  1  0
 14 15  1  0
 15 16  1  0
 16 17  2  0
 16 18  1  0
 18 19  1  0
 18 20  1  0
 20 21  1  0
 21 22  1  0
 22 23  1  0
 23 24  1  0
 24 25  1  0
 25 26  2  0
 26 27  1  0
 27 28  2  0
 28 29  1  0
 29 30  2  0
 24 31  1  0
 31 32  1  0
 15 33  1  0
 33 34  1  0
 11  6  1  0
 34 12  1  0
 32 21  1  0
 30 25  1  0
  1 35  1  0
  1 36  1  0
  1 37  1  0
  2 38  1  0
  2 39  1  0
  7 40  1  0
  8 41  1  0
  9 42  1  0
 10 43  1  0
 11 44  1  0
 12 45  1  0
 13 46  1  0
 13 47  1  0
 14 48  1  0
 14 49  1  0
 18 50  1  6
 19 51  1  0
 19 52  1  0
 20 53  1  0
 20 54  1  0
 22 55  1  0
 22 56  1  0
 23 57  1  0
 23 58  1  0
 26 59  1  0
 27 60  1  0
 28 61  1  0
 29 62  1  0
 30 63  1  0
 31 64  1  0
 31 65  1  0
 32 66  1  0
 32 67  1  0
 33 68  1  0
 33 69  1  0
 34 70  1  0
 34 71  1  0
M  END
>  <smiles>  (5) 
CCC(=O)N(c1ccccc1)C1CCN(C(=O)[C@@H](N)CN2CCN(c3ccccc3)CC2)CC1

>  <score_type>  (5) 
oracle

>  <origin>  (5) 
autodockgpu

>  <m_score__min__energy>  (5) 
-8.5700000000000003

>  <m_primary>  (5) 
energy

>  <rmsd>  (5) 
4.033476495091098

>  <m_score__min__rmsd>  (5) 
4.033476495091098

>  <meeko>  (5) 
{"free_energy": -7.17, "intermolecular_energy": -9.86, "internal_energy": -3.17, "cluster_size": 26, "cluster_id": 3, "rank_in_cluster": 24}

>  <energy>  (5) 
-7.38

>  <cluster_rmsd>  (5) 
0.84

>  <cluster>  (5) 
2

$$$$

     RDKit          3D

 71 74  0  0  0  0  0  0  0  0999 V2000
  140.8750   81.5760  218.2640 C   0  0  0  0  0  0  0  0  0  0  0  0
  142.2950   81.0080  218.2790 C   0  0  0  0  0  0  0  0  0  0  0  0
  142.1680   79.6240  218.8030 C   0  0  0  0  0  0  0  0  0  0  0  0
  142.8660   78.7400  218.2410 O   0  0  0  0  0  0  0  0  0  0  0  0
  141.2880   79.3610  219.8880 N   0  0  0  0  0  0  0  0  0  0  0  0
  141.6460   79.7480  221.2100 C   0  0  0  0  0  0  0  0  0  0  0  0
  141.8420   78.7210  222.1170 C   0  0  0  0  0  0  0  0  0  0  0  0
  142.1950   78.9970  223.4360 C   0  0  0  0  0  0  0  0  0  0  0  0
  142.3470   80.3280  223.8350 C   0  0  0  0  0  0  0  0  0  0  0  0
  142.1440   81.3320  222.9090 C   0  0  0  0  0  0  0  0  0  0  0  0
  141.7940   81.0710  221.5900 C   0  0  0  0  0  0  0  0  0  0  0  0
  140.0060   78.6870  219.6030 C   0  0  0  0  0  0  0  0  0  0  0  0
  139.0870   78.7600  220.7670 C   0  0  0  0  0  0  0  0  0  0  0  0
  138.0020   77.7460  220.7730 C   0  0  0  0  0  0  0  0  0  0  0  0
  138.6120   76.4570  220.5020 N   0  0  0  0  0  0  0  0  0  0  0  0
  138.5430   75.4860  221.5220 C   0  0  0  0  0  0  0  0  0  0  0  0
  137.9920   75.8430  222.6100 O   0  0  0  0  0  0  0  0  0  0  0  0
  139.0800   74.0860  221.3820 C   0  0  1  0  0  0  0  0  0  0  0  0
  139.6640   73.8150  222.7070 N   0  0  0  0  0  0  0  0  0  0  0  0
  137.8580   73.2220  221.1710 C   0  0  0  0  0  0  0  0  0  0  0  0
  138.0600   71.9270  221.6810 N   0  0  0  0  0  0  0  0  0  0  0  0
  139.1970   71.1820  221.3550 C   0  0  0  0  0  0  0  0  0  0  0  0
  140.1300   70.9330  222.5380 C   0  0  0  0  0  0  0  0  0  0  0  0
  139.3180   70.7210  223.7490 N   0  0  0  0  0  0  0  0  0  0  0  0
  139.8780   70.8550  225.0440 C   0  0  0  0  0  0  0  0  0  0  0  0
  140.7440   71.8430  225.4200 C   0  0  0  0  0  0  0  0  0  0  0  0
  141.2780   71.9370  226.7090 C   0  0  0  0  0  0  0  0  0  0  0  0
  140.9310   70.9960  227.6710 C   0  0  0  0  0  0  0  0  0  0  0  0
  140.0490   69.9810  227.3040 C   0  0  0  0  0  0  0  0  0  0  0  0
  139.5370   69.9190  226.0120 C   0  0  0  0  0  0  0  0  0  0  0  0
  137.9310   70.3770  223.4960 C   0  0  0  0  0  0  0  0  0  0  0  0
  137.3370   71.6220  222.8590 C   0  0  0  0  0  0  0  0  0  0  0  0
  139.2530   76.2890  219.2220 C   0  0  0  0  0  0  0  0  0  0  0  0
  140.2790   77.3500  219.0300 C   0  0  0  0  0  0  0  0  0  0  0  0
  140.5251   81.7159  219.2975 H   0  0  0  0  0  0  0  0  0  0  0  0
  140.8729   82.5442  217.7419 H   0  0  0  0  0  0  0  0  0  0  0  0
  140.2057   80.8764  217.7419 H   0  0  0  0  0  0  0  0  0  0  0  0
  142.7143   80.9963  217.2621 H   0  0  0  0  0  0  0  0  0  0  0  0
  142.9696   81.6168  218.8989 H   0  0  0  0  0  0  0  0  0  0  0  0
  141.7178   77.6771  221.7932 H   0  0  0  0  0  0  0  0  0  0  0  0
  142.3520   78.1785  224.1539 H   0  0  0  0  0  0  0  0  0  0  0  0
  142.6242   80.5720  224.8712 H   0  0  0  0  0  0  0  0  0  0  0  0
  142.2639   82.3780  223.2276 H   0  0  0  0  0  0  0  0  0  0  0  0
  141.6395   81.8890  220.8710 H   0  0  0  0  0  0  0  0  0  0  0  0
  139.4331   79.2119  218.8244 H   0  0  0  0  0  0  0  0  0  0  0  0
  139.6834   78.6274  221.6818 H   0  0  0  0  0  0  0  0  0  0  0  0
  138.5919   79.7405  220.7075 H   0  0  0  0  0  0  0  0  0  0  0  0
  137.5083   77.7293  221.7558 H   0  0  0  0  0  0  0  0  0  0  0  0
  137.2431   77.9843  220.0132 H   0  0  0  0  0  0  0  0  0  0  0  0
  139.8082   73.9212  220.5742 H   0  0  0  0  0  0  0  0  0  0  0  0
  139.2090   73.0010  223.1730 H   0  0  0  0  0  0  0  0  0  0  0  0
  139.5540   74.6410  223.3320 H   0  0  0  0  0  0  0  0  0  0  0  0
  137.0004   73.6808  221.6848 H   0  0  0  0  0  0  0  0  0  0  0  0
  137.6657   73.1462  220.0906 H   0  0  0  0  0  0  0  0  0  0  0  0
  138.8721   70.2087  220.9585 H   0  0  0  0  0  0  0  0  0  0  0  0
  139.7641   71.7687  220.6173 H   0  0  0  0  0  0  0  0  0  0  0  0
  140.7431   70.0406  222.3435 H   0  0  0  0  0  0  0  0  0  0  0  0
  140.7920   71.8000  222.6799 H   0  0  0  0  0  0  0  0  0  0  0  0
  141.0342   72.5985  224.6750 H   0  0  0  0  0  0  0  0  0  0  0  0
  141.9708   72.7535  226.9608 H   0  0  0  0  0  0  0  0  0  0  0  0
  141.3398   71.0505  228.6908 H   0  0  0  0  0  0  0  0  0  0  0  0
  139.7549   69.2215  228.0433 H   0  0  0  0  0  0  0  0  0  0  0  0
  138.8432   69.1066  225.7498 H   0  0  0  0  0  0  0  0  0  0  0  0
  137.8625   69.5196  222.8103 H   0  0  0  0  0  0  0  0  0  0  0  0
  137.3999   70.0842  224.4137 H   0  0  0  0  0  0  0  0  0  0  0  0
  136.2818   71.4398  222.6072 H   0  0  0  0  0  0  0  0  0  0  0  0
  137.4000   72.4654  223.5624 H   0  0  0  0  0  0  0  0  0  0  0  0
  139.7365   75.3017  219.1823 H   0  0  0  0  0  0  0  0  0  0  0  0
  138.4987   76.3641  218.4249 H   0  0  0  0  0  0  0  0  0  0  0  0
  141.2151   76.9859  219.4786 H   0  0  0  0  0  0  0  0  0  0  0  0
  140.3059   77.5153  217.9428 H   0  0  0  0  0  0  0  0  0  0  0  0
  1  2  1  0
  2  3  1  0
  3  4  2  0
  3  5  1  0
  5  6  1  0
  6  7  2  0
  7  8  1  0
  8  9  2  0
  9 10  1  0
 10 11  2  0
  5 12  1  0
 12 13  1  0
 13 14  1  0
 14 15  1  0
 15 16  1  0
 16 17  2  0
 16 18  1  0
 18 19  1  0
 18 20  1  0
 20 21  1  0
 21 22  1  0
 22 23  1  0
 23 24  1  0
 24 25  1  0
 25 26  2  0
 26 27  1  0
 27 28  2  0
 28 29  1  0
 29 30  2  0
 24 31  1  0
 31 32  1  0
 15 33  1  0
 33 34  1  0
 11  6  1  0
 34 12  1  0
 32 21  1  0
 30 25  1  0
  1 35  1  0
  1 36  1  0
  1 37  1  0
  2 38  1  0
  2 39  1  0
  7 40  1  0
  8 41  1  0
  9 42  1  0
 10 43  1  0
 11 44  1  0
 12 45  1  0
 13 46  1  0
 13 47  1  0
 14 48  1  0
 14 49  1  0
 18 50  1  6
 19 51  1  0
 19 52  1  0
 20 53  1  0
 20 54  1  0
 22 55  1  0
 22 56  1  0
 23 57  1  0
 23 58  1  0
 26 59  1  0
 27 60  1  0
 28 61  1  0
 29 62  1  0
 30 63  1  0
 31 64  1  0
 31 65  1  0
 32 66  1  0
 32 67  1  0
 33 68  1  0
 33 69  1  0
 34 70  1  0
 34 71  1  0
M  END
>  <smiles>  (6) 
CCC(=O)N(c1ccccc1)C1CCN(C(=O)[C@@H](N)CN2CCN(c3ccccc3)CC2)CC1

>  <score_type>  (6) 
oracle

>  <origin>  (6) 
autodockgpu

>  <m_score__min__energy>  (6) 
-8.5700000000000003

>  <m_primary>  (6) 
energy

>  <rmsd>  (6) 
8.627045350889

>  <m_score__min__rmsd>  (6) 
8.627045350889

>  <meeko>  (6) 
{"free_energy": -7.79, "intermolecular_energy": -10.48, "internal_energy": -3.24, "cluster_size": 26, "cluster_id": 3, "rank_in_cluster": 8}

>  <energy>  (6) 
-8.0

>  <cluster_rmsd>  (6) 
0.0

>  <cluster>  (6) 
3

$$$$

     RDKit          3D

 71 74  0  0  0  0  0  0  0  0999 V2000
  142.9900   81.6170  217.4830 C   0  0  0  0  0  0  0  0  0  0  0  0
  141.7360   81.4310  218.3390 C   0  0  0  0  0  0  0  0  0  0  0  0
  141.8220   80.0520  218.8830 C   0  0  0  0  0  0  0  0  0  0  0  0
  142.6350   79.2720  218.3230 O   0  0  0  0  0  0  0  0  0  0  0  0
  141.0060   79.6800  219.9860 N   0  0  0  0  0  0  0  0  0  0  0  0
  141.4210   79.9710  221.3150 C   0  0  0  0  0  0  0  0  0  0  0  0
  141.8090   78.8890  222.0870 C   0  0  0  0  0  0  0  0  0  0  0  0
  142.2320   79.0700  223.4020 C   0  0  0  0  0  0  0  0  0  0  0  0
  142.2590   80.3620  223.9350 C   0  0  0  0  0  0  0  0  0  0  0  0
  141.8670   81.4220  223.1430 C   0  0  0  0  0  0  0  0  0  0  0  0
  141.4440   81.2560  221.8300 C   0  0  0  0  0  0  0  0  0  0  0  0
  139.7280   78.9940  219.7110 C   0  0  0  0  0  0  0  0  0  0  0  0
  138.8270   79.0380  220.8910 C   0  0  0  0  0  0  0  0  0  0  0  0
  137.7540   78.0100  220.8980 C   0  0  0  0  0  0  0  0  0  0  0  0
  138.3760   76.7330  220.5980 N   0  0  0  0  0  0  0  0  0  0  0  0
  138.3350   75.7470  221.6050 C   0  0  0  0  0  0  0  0  0  0  0  0
  137.7980   76.0800  222.7060 O   0  0  0  0  0  0  0  0  0  0  0  0
  138.8870   74.3560  221.4350 C   0  0  1  0  0  0  0  0  0  0  0  0
  139.5840   74.1120  222.7090 N   0  0  0  0  0  0  0  0  0  0  0  0
  137.6690   73.4660  221.3360 C   0  0  0  0  0  0  0  0  0  0  0  0
  137.9830   72.1380  221.6790 N   0  0  0  0  0  0  0  0  0  0  0  0
  139.1970   71.5540  221.3060 C   0  0  0  0  0  0  0  0  0  0  0  0
  140.1160   71.2370  222.4830 C   0  0  0  0  0  0  0  0  0  0  0  0
  139.2950   70.7880  223.6210 N   0  0  0  0  0  0  0  0  0  0  0  0
  139.8020   70.7990  224.9450 C   0  0  0  0  0  0  0  0  0  0  0  0
  139.4720   69.8930  225.9130 C   0  0  0  0  0  0  0  0  0  0  0  0
  139.9900   69.9430  227.2110 C   0  0  0  0  0  0  0  0  0  0  0  0
  140.8820   70.9500  227.5600 C   0  0  0  0  0  0  0  0  0  0  0  0
  141.2290   71.8830  226.5850 C   0  0  0  0  0  0  0  0  0  0  0  0
  140.6930   71.8020  225.3040 C   0  0  0  0  0  0  0  0  0  0  0  0
  137.9560   70.3530  223.2690 C   0  0  0  0  0  0  0  0  0  0  0  0
  137.2610   71.6110  222.7770 C   0  0  0  0  0  0  0  0  0  0  0  0
  138.9990   76.5930  219.3060 C   0  0  0  0  0  0  0  0  0  0  0  0
  140.0080   77.6690  219.1140 C   0  0  0  0  0  0  0  0  0  0  0  0
  143.8647   81.7467  218.1373 H   0  0  0  0  0  0  0  0  0  0  0  0
  143.1353   80.7306  216.8481 H   0  0  0  0  0  0  0  0  0  0  0  0
  142.8718   82.5074  216.8481 H   0  0  0  0  0  0  0  0  0  0  0  0
  141.7178   82.1658  219.1574 H   0  0  0  0  0  0  0  0  0  0  0  0
  140.8178   81.5793  217.7518 H   0  0  0  0  0  0  0  0  0  0  0  0
  141.7830   77.8765  221.6578 H   0  0  0  0  0  0  0  0  0  0  0  0
  142.5404   78.2083  224.0123 H   0  0  0  0  0  0  0  0  0  0  0  0
  142.5880   80.5314  224.9709 H   0  0  0  0  0  0  0  0  0  0  0  0
  141.8903   82.4366  223.5672 H   0  0  0  0  0  0  0  0  0  0  0  0
  141.1372   82.1179  221.2192 H   0  0  0  0  0  0  0  0  0  0  0  0
  139.1366   79.5231  218.9492 H   0  0  0  0  0  0  0  0  0  0  0  0
  139.4396   78.8986  221.7940 H   0  0  0  0  0  0  0  0  0  0  0  0
  138.3194   80.0133  220.8552 H   0  0  0  0  0  0  0  0  0  0  0  0
  137.2757   77.9722  221.8878 H   0  0  0  0  0  0  0  0  0  0  0  0
  136.9804   78.2502  220.1538 H   0  0  0  0  0  0  0  0  0  0  0  0
  139.5487   74.1959  220.5710 H   0  0  0  0  0  0  0  0  0  0  0  0
  139.2690   73.2280  223.1630 H   0  0  0  0  0  0  0  0  0  0  0  0
  139.4090   74.8910  223.3780 H   0  0  0  0  0  0  0  0  0  0  0  0
  136.8939   73.8403  222.0209 H   0  0  0  0  0  0  0  0  0  0  0  0
  137.3076   73.4825  220.2972 H   0  0  0  0  0  0  0  0  0  0  0  0
  138.9813   70.6167  220.7722 H   0  0  0  0  0  0  0  0  0  0  0  0
  139.7242   72.2857  220.6762 H   0  0  0  0  0  0  0  0  0  0  0  0
  140.8196   70.4409  222.1983 H   0  0  0  0  0  0  0  0  0  0  0  0
  140.6847   72.1354  222.7648 H   0  0  0  0  0  0  0  0  0  0  0  0
  138.7668   69.0876  225.6598 H   0  0  0  0  0  0  0  0  0  0  0  0
  139.6924   69.1878  227.9533 H   0  0  0  0  0  0  0  0  0  0  0  0
  141.3014   71.0087  228.5752 H   0  0  0  0  0  0  0  0  0  0  0  0
  141.9335   72.6913  226.8307 H   0  0  0  0  0  0  0  0  0  0  0  0
  140.9829   72.5532  224.5545 H   0  0  0  0  0  0  0  0  0  0  0  0
  137.9909   69.5928  222.4747 H   0  0  0  0  0  0  0  0  0  0  0  0
  137.4308   69.8913  224.1181 H   0  0  0  0  0  0  0  0  0  0  0  0
  136.2361   71.3664  222.4610 H   0  0  0  0  0  0  0  0  0  0  0  0
  137.2218   72.3544  223.5868 H   0  0  0  0  0  0  0  0  0  0  0  0
  139.4941   75.6127  219.2436 H   0  0  0  0  0  0  0  0  0  0  0  0
  138.2312   76.6710  218.5222 H   0  0  0  0  0  0  0  0  0  0  0  0
  140.9555   77.3101  219.5423 H   0  0  0  0  0  0  0  0  0  0  0  0
  140.0152   77.8507  218.0291 H   0  0  0  0  0  0  0  0  0  0  0  0
  1  2  1  0
  2  3  1  0
  3  4  2  0
  3  5  1  0
  5  6  1  0
  6  7  2  0
  7  8  1  0
  8  9  2  0
  9 10  1  0
 10 11  2  0
  5 12  1  0
 12 13  1  0
 13 14  1  0
 14 15  1  0
 15 16  1  0
 16 17  2  0
 16 18  1  0
 18 19  1  0
 18 20  1  0
 20 21  1  0
 21 22  1  0
 22 23  1  0
 23 24  1  0
 24 25  1  0
 25 26  2  0
 26 27  1  0
 27 28  2  0
 28 29  1  0
 29 30  2  0
 24 31  1  0
 31 32  1  0
 15 33  1  0
 33 34  1  0
 11  6  1  0
 34 12  1  0
 32 21  1  0
 30 25  1  0
  1 35  1  0
  1 36  1  0
  1 37  1  0
  2 38  1  0
  2 39  1  0
  7 40  1  0
  8 41  1  0
  9 42  1  0
 10 43  1  0
 11 44  1  0
 12 45  1  0
 13 46  1  0
 13 47  1  0
 14 48  1  0
 14 49  1  0
 18 50  1  6
 19 51  1  0
 19 52  1  0
 20 53  1  0
 20 54  1  0
 22 55  1  0
 22 56  1  0
 23 57  1  0
 23 58  1  0
 26 59  1  0
 27 60  1  0
 28 61  1  0
 29 62  1  0
 30 63  1  0
 31 64  1  0
 31 65  1  0
 32 66  1  0
 32 67  1  0
 33 68  1  0
 33 69  1  0
 34 70  1  0
 34 71  1  0
M  END
>  <smiles>  (7) 
CCC(=O)N(c1ccccc1)C1CCN(C(=O)[C@@H](N)CN2CCN(c3ccccc3)CC2)CC1

>  <score_type>  (7) 
oracle

>  <origin>  (7) 
autodockgpu

>  <m_score__min__energy>  (7) 
-8.5700000000000003

>  <m_primary>  (7) 
energy

>  <rmsd>  (7) 
8.573616792887089

>  <m_score__min__rmsd>  (7) 
8.573616792887089

>  <meeko>  (7) 
{"free_energy": -7.85, "intermolecular_energy": -10.54, "internal_energy": -3.16, "cluster_size": 26, "cluster_id": 3, "rank_in_cluster": 5}

>  <energy>  (7) 
-7.95

>  <cluster_rmsd>  (7) 
0.27

>  <cluster>  (7) 
3

$$$$

     RDKit          3D

 71 74  0  0  0  0  0  0  0  0999 V2000
  146.3100   73.0700  221.7800 C   0  0  0  0  0  0  0  0  0  0  0  0
  145.8080   74.1360  220.8050 C   0  0  0  0  0  0  0  0  0  0  0  0
  144.9880   73.4090  219.8020 C   0  0  0  0  0  0  0  0  0  0  0  0
  145.6070   72.6680  218.9950 O   0  0  0  0  0  0  0  0  0  0  0  0
  143.5760   73.5740  219.7970 N   0  0  0  0  0  0  0  0  0  0  0  0
  143.0060   74.8750  219.8880 C   0  0  0  0  0  0  0  0  0  0  0  0
  143.4780   75.8150  218.9890 C   0  0  0  0  0  0  0  0  0  0  0  0
  142.9830   77.1170  218.9990 C   0  0  0  0  0  0  0  0  0  0  0  0
  142.0030   77.4650  219.9320 C   0  0  0  0  0  0  0  0  0  0  0  0
  141.5510   76.5070  220.8180 C   0  0  0  0  0  0  0  0  0  0  0  0
  142.0350   75.2040  220.8180 C   0  0  0  0  0  0  0  0  0  0  0  0
  142.7310   72.3680  219.6910 C   0  0  0  0  0  0  0  0  0  0  0  0
  141.6500   72.5530  218.6890 C   0  0  0  0  0  0  0  0  0  0  0  0
  140.4950   71.6290  218.8350 C   0  0  0  0  0  0  0  0  0  0  0  0
  140.1020   71.6470  220.2320 N   0  0  0  0  0  0  0  0  0  0  0  0
  138.8170   72.1460  220.5310 C   0  0  0  0  0  0  0  0  0  0  0  0
  138.1350   72.5820  219.5530 O   0  0  0  0  0  0  0  0  0  0  0  0
  138.2380   72.1850  221.9210 C   0  0  1  0  0  0  0  0  0  0  0  0
  137.6840   73.5460  222.0170 N   0  0  0  0  0  0  0  0  0  0  0  0
  137.1160   71.1720  221.9010 C   0  0  0  0  0  0  0  0  0  0  0  0
  137.3700   70.1180  222.7970 N   0  0  0  0  0  0  0  0  0  0  0  0
  138.4350   69.2330  222.6030 C   0  0  0  0  0  0  0  0  0  0  0  0
  139.5280   69.3420  223.6640 C   0  0  0  0  0  0  0  0  0  0  0  0
  138.8990   69.6090  224.9700 N   0  0  0  0  0  0  0  0  0  0  0  0
  139.6440   70.1400  226.0520 C   0  0  0  0  0  0  0  0  0  0  0  0
  139.7450   69.5640  227.2860 C   0  0  0  0  0  0  0  0  0  0  0  0
  140.4870   70.1240  228.3300 C   0  0  0  0  0  0  0  0  0  0  0  0
  141.1620   71.3230  228.1320 C   0  0  0  0  0  0  0  0  0  0  0  0
  141.0700   71.9250  226.8780 C   0  0  0  0  0  0  0  0  0  0  0  0
  140.3220   71.3380  225.8630 C   0  0  0  0  0  0  0  0  0  0  0  0
  137.4840   69.2920  225.0380 C   0  0  0  0  0  0  0  0  0  0  0  0
  136.8230   70.2820  224.0930 C   0  0  0  0  0  0  0  0  0  0  0  0
  141.0650   71.1720  221.1930 C   0  0  0  0  0  0  0  0  0  0  0  0
  142.3370   71.9320  221.0490 C   0  0  0  0  0  0  0  0  0  0  0  0
  146.1487   73.4126  222.8128 H   0  0  0  0  0  0  0  0  0  0  0  0
  145.7586   72.1327  221.6143 H   0  0  0  0  0  0  0  0  0  0  0  0
  147.3837   72.8980  221.6143 H   0  0  0  0  0  0  0  0  0  0  0  0
  145.1955   74.8813  221.3336 H   0  0  0  0  0  0  0  0  0  0  0  0
  146.6402   74.6786  220.3328 H   0  0  0  0  0  0  0  0  0  0  0  0
  144.2512   75.5315  218.2597 H   0  0  0  0  0  0  0  0  0  0  0  0
  143.3588   77.8615  218.2817 H   0  0  0  0  0  0  0  0  0  0  0  0
  141.5974   78.4871  219.9604 H   0  0  0  0  0  0  0  0  0  0  0  0
  140.7794   76.7854  221.5509 H   0  0  0  0  0  0  0  0  0  0  0  0
  141.6586   74.4585  221.5339 H   0  0  0  0  0  0  0  0  0  0  0  0
  143.2872   71.5148  219.2754 H   0  0  0  0  0  0  0  0  0  0  0  0
  141.2759   73.5837  218.7766 H   0  0  0  0  0  0  0  0  0  0  0  0
  142.0979   72.3335  217.7086 H   0  0  0  0  0  0  0  0  0  0  0  0
  139.6597   71.9679  218.2046 H   0  0  0  0  0  0  0  0  0  0  0  0
  140.7684   70.6110  218.5204 H   0  0  0  0  0  0  0  0  0  0  0  0
  138.9331   71.9688  222.7457 H   0  0  0  0  0  0  0  0  0  0  0  0
  137.7340   74.0520  221.1070 H   0  0  0  0  0  0  0  0  0  0  0  0
  138.2080   74.1070  222.7210 H   0  0  0  0  0  0  0  0  0  0  0  0
  136.1777   71.6693  222.1879 H   0  0  0  0  0  0  0  0  0  0  0  0
  137.0382   70.7565  220.8855 H   0  0  0  0  0  0  0  0  0  0  0  0
  138.0398   68.2065  222.6164 H   0  0  0  0  0  0  0  0  0  0  0  0
  138.8968   69.4938  221.6393 H   0  0  0  0  0  0  0  0  0  0  0  0
  140.0922   68.3989  223.7115 H   0  0  0  0  0  0  0  0  0  0  0  0
  140.2170   70.1602  223.4074 H   0  0  0  0  0  0  0  0  0  0  0  0
  139.2181   68.6155  227.4669 H   0  0  0  0  0  0  0  0  0  0  0  0
  140.5366   69.6175  229.3052 H   0  0  0  0  0  0  0  0  0  0  0  0
  141.7505   71.7825  228.9398 H   0  0  0  0  0  0  0  0  0  0  0  0
  141.5941   72.8735  226.6895 H   0  0  0  0  0  0  0  0  0  0  0  0
  140.2656   71.8358  224.8837 H   0  0  0  0  0  0  0  0  0  0  0  0
  137.3013   68.2588  224.7078 H   0  0  0  0  0  0  0  0  0  0  0  0
  137.0890   69.3655  226.0620 H   0  0  0  0  0  0  0  0  0  0  0  0
  135.7394   70.0954  224.0623 H   0  0  0  0  0  0  0  0  0  0  0  0
  137.0027   71.3085  224.4450 H   0  0  0  0  0  0  0  0  0  0  0  0
  140.6678   71.3137  222.2089 H   0  0  0  0  0  0  0  0  0  0  0  0
  141.2580   70.1035  221.0166 H   0  0  0  0  0  0  0  0  0  0  0  0
  142.2518   72.8349  221.6715 H   0  0  0  0  0  0  0  0  0  0  0  0
  143.1201   71.2202  221.3492 H   0  0  0  0  0  0  0  0  0  0  0  0
  1  2  1  0
  2  3  1  0
  3  4  2  0
  3  5  1  0
  5  6  1  0
  6  7  2  0
  7  8  1  0
  8  9  2  0
  9 10  1  0
 10 11  2  0
  5 12  1  0
 12 13  1  0
 13 14  1  0
 14 15  1  0
 15 16  1  0
 16 17  2  0
 16 18  1  0
 18 19  1  0
 18 20  1  0
 20 21  1  0
 21 22  1  0
 22 23  1  0
 23 24  1  0
 24 25  1  0
 25 26  2  0
 26 27  1  0
 27 28  2  0
 28 29  1  0
 29 30  2  0
 24 31  1  0
 31 32  1  0
 15 33  1  0
 33 34  1  0
 11  6  1  0
 34 12  1  0
 32 21  1  0
 30 25  1  0
  1 35  1  0
  1 36  1  0
  1 37  1  0
  2 38  1  0
  2 39  1  0
  7 40  1  0
  8 41  1  0
  9 42  1  0
 10 43  1  0
 11 44  1  0
 12 45  1  0
 13 46  1  0
 13 47  1  0
 14 48  1  0
 14 49  1  0
 18 50  1  1
 19 51  1  0
 19 52  1  0
 20 53  1  0
 20 54  1  0
 22 55  1  0
 22 56  1  0
 23 57  1  0
 23 58  1  0
 26 59  1  0
 27 60  1  0
 28 61  1  0
 29 62  1  0
 30 63  1  0
 31 64  1  0
 31 65  1  0
 32 66  1  0
 32 67  1  0
 33 68  1  0
 33 69  1  0
 34 70  1  0
 34 71  1  0
M  END
>  <smiles>  (8) 
CCC(=O)N(c1ccccc1)C1CCN(C(=O)[C@@H](N)CN2CCN(c3ccccc3)CC2)CC1

>  <score_type>  (8) 
oracle

>  <origin>  (8) 
autodockgpu

>  <m_score__min__energy>  (8) 
-8.5700000000000003

>  <m_primary>  (8) 
energy

>  <rmsd>  (8) 
9.495700124371043

>  <m_score__min__rmsd>  (8) 
9.495700124371043

>  <meeko>  (8) 
{"free_energy": -7.55, "intermolecular_energy": -10.23, "internal_energy": -3.0, "cluster_size": 2, "cluster_id": 6, "rank_in_cluster": 2}

>  <energy>  (8) 
-7.89

>  <cluster_rmsd>  (8) 
0.45

>  <cluster>  (8) 
3

$$$$

     RDKit          3D

 71 74  0  0  0  0  0  0  0  0999 V2000
  135.5110   80.5560  224.5450 C   0  0  0  0  0  0  0  0  0  0  0  0
  136.3720   80.1580  223.3450 C   0  0  0  0  0  0  0  0  0  0  0  0
  137.7750   80.1840  223.8330 C   0  0  0  0  0  0  0  0  0  0  0  0
  137.9820   80.7620  224.9310 O   0  0  0  0  0  0  0  0  0  0  0  0
  138.7980   79.5720  223.0600 N   0  0  0  0  0  0  0  0  0  0  0  0
  140.1490   80.0000  223.1920 C   0  0  0  0  0  0  0  0  0  0  0  0
  141.0810   79.0140  223.4670 C   0  0  0  0  0  0  0  0  0  0  0  0
  142.4290   79.3320  223.6150 C   0  0  0  0  0  0  0  0  0  0  0  0
  142.8310   80.6640  223.4830 C   0  0  0  0  0  0  0  0  0  0  0  0
  141.8800   81.6270  223.2070 C   0  0  0  0  0  0  0  0  0  0  0  0
  140.5330   81.3240  223.0570 C   0  0  0  0  0  0  0  0  0  0  0  0
  138.4210   78.4890  222.1300 C   0  0  0  0  0  0  0  0  0  0  0  0
  138.4060   77.1710  222.8150 C   0  0  0  0  0  0  0  0  0  0  0  0
  138.5070   75.9950  221.9130 C   0  0  0  0  0  0  0  0  0  0  0  0
  139.6070   76.2440  220.9990 N   0  0  0  0  0  0  0  0  0  0  0  0
  140.7150   75.3750  221.0750 C   0  0  0  0  0  0  0  0  0  0  0  0
  140.6720   74.4770  221.9720 O   0  0  0  0  0  0  0  0  0  0  0  0
  141.9110   75.4650  220.1650 C   0  0  1  0  0  0  0  0  0  0  0  0
  142.8470   74.4840  220.7430 N   0  0  0  0  0  0  0  0  0  0  0  0
  141.4160   74.9750  218.8240 C   0  0  0  0  0  0  0  0  0  0  0  0
  141.7570   75.8760  217.7990 N   0  0  0  0  0  0  0  0  0  0  0  0
  140.8000   76.3630  216.9050 C   0  0  0  0  0  0  0  0  0  0  0  0
  140.5320   77.8600  217.0440 C   0  0  0  0  0  0  0  0  0  0  0  0
  141.7990   78.5440  217.3560 N   0  0  0  0  0  0  0  0  0  0  0  0
  141.8160   79.8440  217.9200 C   0  0  0  0  0  0  0  0  0  0  0  0
  141.5250   80.1320  219.2230 C   0  0  0  0  0  0  0  0  0  0  0  0
  141.5460   81.4310  219.7390 C   0  0  0  0  0  0  0  0  0  0  0  0
  141.8750   82.4980  218.9110 C   0  0  0  0  0  0  0  0  0  0  0  0
  142.1740   82.2220  217.5770 C   0  0  0  0  0  0  0  0  0  0  0  0
  142.1420   80.9160  217.1000 C   0  0  0  0  0  0  0  0  0  0  0  0
  142.9940   77.7790  217.0470 C   0  0  0  0  0  0  0  0  0  0  0  0
  142.9550   76.6020  218.0070 C   0  0  0  0  0  0  0  0  0  0  0  0
  139.4800   77.3700  220.1090 C   0  0  0  0  0  0  0  0  0  0  0  0
  139.2260   78.6080  220.8950 C   0  0  0  0  0  0  0  0  0  0  0  0
  136.0431   80.3100  225.4758 H   0  0  0  0  0  0  0  0  0  0  0  0
  135.3122   81.6374  224.5111 H   0  0  0  0  0  0  0  0  0  0  0  0
  134.5585   80.0068  224.5111 H   0  0  0  0  0  0  0  0  0  0  0  0
  136.1047   79.1488  222.9986 H   0  0  0  0  0  0  0  0  0  0  0  0
  136.2244   80.8398  222.4945 H   0  0  0  0  0  0  0  0  0  0  0  0
  140.7537   77.9689  223.5697 H   0  0  0  0  0  0  0  0  0  0  0  0
  143.1668   78.5458  223.8327 H   0  0  0  0  0  0  0  0  0  0  0  0
  143.8893   80.9414  223.5972 H   0  0  0  0  0  0  0  0  0  0  0  0
  142.2018   82.6736  223.1020 H   0  0  0  0  0  0  0  0  0  0  0  0
  139.7951   82.1098  222.8381 H   0  0  0  0  0  0  0  0  0  0  0  0
  137.3787   78.5858  221.7921 H   0  0  0  0  0  0  0  0  0  0  0  0
  139.2551   77.1395  223.5136 H   0  0  0  0  0  0  0  0  0  0  0  0
  137.4284   77.0939  223.3133 H   0  0  0  0  0  0  0  0  0  0  0  0
  138.7043   75.0861  222.5004 H   0  0  0  0  0  0  0  0  0  0  0  0
  137.5677   75.8470  221.3601 H   0  0  0  0  0  0  0  0  0  0  0  0
  142.3719   76.4584  220.0617 H   0  0  0  0  0  0  0  0  0  0  0  0
  142.3740   73.5840  220.9750 H   0  0  0  0  0  0  0  0  0  0  0  0
  143.2720   74.8540  221.6190 H   0  0  0  0  0  0  0  0  0  0  0  0
  141.8707   73.9968  218.6086 H   0  0  0  0  0  0  0  0  0  0  0  0
  140.3200   74.8908  218.8653 H   0  0  0  0  0  0  0  0  0  0  0  0
  141.1506   76.1671  215.8809 H   0  0  0  0  0  0  0  0  0  0  0  0
  139.8562   75.8461  217.1330 H   0  0  0  0  0  0  0  0  0  0  0  0
  140.1236   78.2513  216.1006 H   0  0  0  0  0  0  0  0  0  0  0  0
  139.8050   78.0354  217.8506 H   0  0  0  0  0  0  0  0  0  0  0  0
  141.2620   79.3037  219.8974 H   0  0  0  0  0  0  0  0  0  0  0  0
  141.3029   81.6083  220.7971 H   0  0  0  0  0  0  0  0  0  0  0  0
  141.8988   83.5281  219.2960 H   0  0  0  0  0  0  0  0  0  0  0  0
  142.4375   83.0447  216.8960 H   0  0  0  0  0  0  0  0  0  0  0  0
  142.3817   80.7270  216.0432 H   0  0  0  0  0  0  0  0  0  0  0  0
  142.9728   77.4302  216.0040 H   0  0  0  0  0  0  0  0  0  0  0  0
  143.9113   78.3762  217.1564 H   0  0  0  0  0  0  0  0  0  0  0  0
  143.8195   75.9473  217.8229 H   0  0  0  0  0  0  0  0  0  0  0  0
  142.9926   76.9672  219.0439 H   0  0  0  0  0  0  0  0  0  0  0  0
  140.4101   77.4873  219.5335 H   0  0  0  0  0  0  0  0  0  0  0  0
  138.6384   77.1969  219.4222 H   0  0  0  0  0  0  0  0  0  0  0  0
  140.2045   79.0219  221.1800 H   0  0  0  0  0  0  0  0  0  0  0  0
  138.6189   79.2387  220.2289 H   0  0  0  0  0  0  0  0  0  0  0  0
  1  2  1  0
  2  3  1  0
  3  4  2  0
  3  5  1  0
  5  6  1  0
  6  7  2  0
  7  8  1  0
  8  9  2  0
  9 10  1  0
 10 11  2  0
  5 12  1  0
 12 13  1  0
 13 14  1  0
 14 15  1  0
 15 16  1  0
 16 17  2  0
 16 18  1  0
 18 19  1  0
 18 20  1  0
 20 21  1  0
 21 22  1  0
 22 23  1  0
 23 24  1  0
 24 25  1  0
 25 26  2  0
 26 27  1  0
 27 28  2  0
 28 29  1  0
 29 30  2  0
 24 31  1  0
 31 32  1  0
 15 33  1  0
 33 34  1  0
 11  6  1  0
 34 12  1  0
 32 21  1  0
 30 25  1  0
  1 35  1  0
  1 36  1  0
  1 37  1  0
  2 38  1  0
  2 39  1  0
  7 40  1  0
  8 41  1  0
  9 42  1  0
 10 43  1  0
 11 44  1  0
 12 45  1  0
 13 46  1  0
 13 47  1  0
 14 48  1  0
 14 49  1  0
 18 50  1  6
 19 51  1  0
 19 52  1  0
 20 53  1  0
 20 54  1  0
 22 55  1  0
 22 56  1  0
 23 57  1  0
 23 58  1  0
 26 59  1  0
 27 60  1  0
 28 61  1  0
 29 62  1  0
 30 63  1  0
 31 64  1  0
 31 65  1  0
 32 66  1  0
 32 67  1  0
 33 68  1  0
 33 69  1  0
 34 70  1  0
 34 71  1  0
M  END
>  <smiles>  (9) 
CCC(=O)N(c1ccccc1)C1CCN(C(=O)[C@@H](N)CN2CCN(c3ccccc3)CC2)CC1

>  <score_type>  (9) 
oracle

>  <origin>  (9) 
autodockgpu

>  <m_score__min__energy>  (9) 
-8.5700000000000003

>  <m_primary>  (9) 
energy

>  <rmsd>  (9) 
4.416684592589147

>  <m_score__min__rmsd>  (9) 
4.416684592589147

>  <meeko>  (9) 
{"free_energy": -6.14, "intermolecular_energy": -8.82, "internal_energy": -3.94, "cluster_size": 4, "cluster_id": 10, "rank_in_cluster": 2}

>  <energy>  (9) 
-7.87

>  <cluster_rmsd>  (9) 
0.22

>  <cluster>  (9) 
3

$$$$

     RDKit          3D

 71 74  0  0  0  0  0  0  0  0999 V2000
  136.2100   81.6520  225.5340 C   0  0  0  0  0  0  0  0  0  0  0  0
  137.6450   81.2100  225.2460 C   0  0  0  0  0  0  0  0  0  0  0  0
  137.8390   81.4010  223.7850 C   0  0  0  0  0  0  0  0  0  0  0  0
  137.3390   82.4390  223.2790 O   0  0  0  0  0  0  0  0  0  0  0  0
  138.5620   80.4310  223.0400 N   0  0  0  0  0  0  0  0  0  0  0  0
  139.9660   80.2900  223.2190 C   0  0  0  0  0  0  0  0  0  0  0  0
  140.7490   81.3480  222.7910 C   0  0  0  0  0  0  0  0  0  0  0  0
  142.1340   81.3060  222.9230 C   0  0  0  0  0  0  0  0  0  0  0  0
  142.7290   80.1770  223.4940 C   0  0  0  0  0  0  0  0  0  0  0  0
  141.9250   79.1360  223.9120 C   0  0  0  0  0  0  0  0  0  0  0  0
  140.5410   79.1650  223.7870 C   0  0  0  0  0  0  0  0  0  0  0  0
  137.8180   79.5830  222.0880 C   0  0  0  0  0  0  0  0  0  0  0  0
  136.8650   78.6880  222.7930 C   0  0  0  0  0  0  0  0  0  0  0  0
  136.4270   77.5010  222.0140 C   0  0  0  0  0  0  0  0  0  0  0  0
  137.6180   76.8820  221.4620 N   0  0  0  0  0  0  0  0  0  0  0  0
  137.9290   75.5790  221.9050 C   0  0  0  0  0  0  0  0  0  0  0  0
  137.1630   75.0800  222.7860 O   0  0  0  0  0  0  0  0  0  0  0  0
  139.0980   74.7800  221.3930 C   0  0  1  0  0  0  0  0  0  0  0  0
  139.5620   74.0580  222.5900 N   0  0  0  0  0  0  0  0  0  0  0  0
  138.4980   73.8060  220.4050 C   0  0  0  0  0  0  0  0  0  0  0  0
  138.9030   72.4880  220.6840 N   0  0  0  0  0  0  0  0  0  0  0  0
  140.2440   72.1030  220.6060 C   0  0  0  0  0  0  0  0  0  0  0  0
  140.8580   71.7320  221.9550 C   0  0  0  0  0  0  0  0  0  0  0  0
  139.8420   71.0390  222.7660 N   0  0  0  0  0  0  0  0  0  0  0  0
  139.9760   70.9240  224.1720 C   0  0  0  0  0  0  0  0  0  0  0  0
  139.4080   69.9390  224.9310 C   0  0  0  0  0  0  0  0  0  0  0  0
  139.5590   69.8650  226.3190 C   0  0  0  0  0  0  0  0  0  0  0  0
  140.3150   70.8220  226.9840 C   0  0  0  0  0  0  0  0  0  0  0  0
  140.9010   71.8350  226.2250 C   0  0  0  0  0  0  0  0  0  0  0  0
  140.7290   71.8760  224.8460 C   0  0  0  0  0  0  0  0  0  0  0  0
  138.7220   70.5080  222.0110 C   0  0  0  0  0  0  0  0  0  0  0  0
  138.0030   71.7350  221.4770 C   0  0  0  0  0  0  0  0  0  0  0  0
  138.3900   77.6600  220.5270 C   0  0  0  0  0  0  0  0  0  0  0  0
  138.7730   78.9580  221.1470 C   0  0  0  0  0  0  0  0  0  0  0  0
  136.0526   81.7005  226.6216 H   0  0  0  0  0  0  0  0  0  0  0  0
  136.0369   82.6451  225.0938 H   0  0  0  0  0  0  0  0  0  0  0  0
  135.5081   80.9284  225.0938 H   0  0  0  0  0  0  0  0  0  0  0  0
  138.3576   81.8283  225.8116 H   0  0  0  0  0  0  0  0  0  0  0  0
  137.8159   80.1653  225.5451 H   0  0  0  0  0  0  0  0  0  0  0  0
  140.2717   82.2314  222.3418 H   0  0  0  0  0  0  0  0  0  0  0  0
  142.7522   82.1498  222.5826 H   0  0  0  0  0  0  0  0  0  0  0  0
  143.8215   80.1193  223.6084 H   0  0  0  0  0  0  0  0  0  0  0  0
  142.3974   78.2499  224.3611 H   0  0  0  0  0  0  0  0  0  0  0  0
  139.9223   78.3219  224.1281 H   0  0  0  0  0  0  0  0  0  0  0  0
  137.1476   80.1776  221.4500 H   0  0  0  0  0  0  0  0  0  0  0  0
  137.3487   78.3322  223.7146 H   0  0  0  0  0  0  0  0  0  0  0  0
  135.9604   79.2858  222.9782 H   0  0  0  0  0  0  0  0  0  0  0  0
  135.9046   76.7910  222.6720 H   0  0  0  0  0  0  0  0  0  0  0  0
  135.7347   77.7961  221.2118 H   0  0  0  0  0  0  0  0  0  0  0  0
  139.9104   75.3516  220.9206 H   0  0  0  0  0  0  0  0  0  0  0  0
  139.0180   73.1830  222.7530 H   0  0  0  0  0  0  0  0  0  0  0  0
  139.4660   74.6540  223.4390 H   0  0  0  0  0  0  0  0  0  0  0  0
  137.4011   73.8648  220.4634 H   0  0  0  0  0  0  0  0  0  0  0  0
  138.8461   74.0725  219.3961 H   0  0  0  0  0  0  0  0  0  0  0  0
  140.3162   71.2303  219.9402 H   0  0  0  0  0  0  0  0  0  0  0  0
  140.8048   72.9697  220.2260 H   0  0  0  0  0  0  0  0  0  0  0  0
  141.7211   71.0684  221.7981 H   0  0  0  0  0  0  0  0  0  0  0  0
  141.1939   72.6413  222.4749 H   0  0  0  0  0  0  0  0  0  0  0  0
  138.8048   69.1697  224.4268 H   0  0  0  0  0  0  0  0  0  0  0  0
  139.0803   69.0509  226.8830 H   0  0  0  0  0  0  0  0  0  0  0  0
  140.4474   70.7822  228.0753 H   0  0  0  0  0  0  0  0  0  0  0  0
  141.5048   72.6085  226.7221 H   0  0  0  0  0  0  0  0  0  0  0  0
  141.2032   72.6860  224.2724 H   0  0  0  0  0  0  0  0  0  0  0  0
  139.0764   69.8751  221.1840 H   0  0  0  0  0  0  0  0  0  0  0  0
  138.0660   69.8757  222.6273 H   0  0  0  0  0  0  0  0  0  0  0  0
  137.1447   71.4220  220.8644 H   0  0  0  0  0  0  0  0  0  0  0  0
  137.6431   72.3492  222.3156 H   0  0  0  0  0  0  0  0  0  0  0  0
  139.2986   77.1043  220.2521 H   0  0  0  0  0  0  0  0  0  0  0  0
  137.7863   77.8510  219.6276 H   0  0  0  0  0  0  0  0  0  0  0  0
  139.7132   78.7951  221.6942 H   0  0  0  0  0  0  0  0  0  0  0  0
  138.8296   79.6613  220.3031 H   0  0  0  0  0  0  0  0  0  0  0  0
  1  2  1  0
  2  3  1  0
  3  4  2  0
  3  5  1  0
  5  6  1  0
  6  7  2  0
  7  8  1  0
  8  9  2  0
  9 10  1  0
 10 11  2  0
  5 12  1  0
 12 13  1  0
 13 14  1  0
 14 15  1  0
 15 16  1  0
 16 17  2  0
 16 18  1  0
 18 19  1  0
 18 20  1  0
 20 21  1  0
 21 22  1  0
 22 23  1  0
 23 24  1  0
 24 25  1  0
 25 26  2  0
 26 27  1  0
 27 28  2  0
 28 29  1  0
 29 30  2  0
 24 31  1  0
 31 32  1  0
 15 33  1  0
 33 34  1  0
 11  6  1  0
 34 12  1  0
 32 21  1  0
 30 25  1  0
  1 35  1  0
  1 36  1  0
  1 37  1  0
  2 38  1  0
  2 39  1  0
  7 40  1  0
  8 41  1  0
  9 42  1  0
 10 43  1  0
 11 44  1  0
 12 45  1  0
 13 46  1  0
 13 47  1  0
 14 48  1  0
 14 49  1  0
 18 50  1  6
 19 51  1  0
 19 52  1  0
 20 53  1  0
 20 54  1  0
 22 55  1  0
 22 56  1  0
 23 57  1  0
 23 58  1  0
 26 59  1  0
 27 60  1  0
 28 61  1  0
 29 62  1  0
 30 63  1  0
 31 64  1  0
 31 65  1  0
 32 66  1  0
 32 67  1  0
 33 68  1  0
 33 69  1  0
 34 70  1  0
 34 71  1  0
M  END
>  <smiles>  (10) 
CCC(=O)N(c1ccccc1)C1CCN(C(=O)[C@@H](N)CN2CCN(c3ccccc3)CC2)CC1

>  <score_type>  (10) 
oracle

>  <origin>  (10) 
autodockgpu

>  <m_score__min__energy>  (10) 
-8.5700000000000003

>  <m_primary>  (10) 
energy

>  <rmsd>  (10) 
8.247055255826318

>  <m_score__min__rmsd>  (10) 
8.247055255826318

>  <meeko>  (10) 
{"free_energy": -7.52, "intermolecular_energy": -10.21, "internal_energy": -2.93, "cluster_size": 3, "cluster_id": 5, "rank_in_cluster": 3}

>  <energy>  (10) 
-7.85

>  <cluster_rmsd>  (10) 
0.22

>  <cluster>  (10) 
3

$$$$

     RDKit          3D

 71 74  0  0  0  0  0  0  0  0999 V2000
  146.3120   73.7440  220.9300 C   0  0  0  0  0  0  0  0  0  0  0  0
  145.2880   72.6400  220.6630 C   0  0  0  0  0  0  0  0  0  0  0  0
  145.4060   72.3250  219.2160 C   0  0  0  0  0  0  0  0  0  0  0  0
  146.2220   73.0150  218.5510 O   0  0  0  0  0  0  0  0  0  0  0  0
  144.6150   71.2850  218.6570 N   0  0  0  0  0  0  0  0  0  0  0  0
  145.2050   70.0320  218.3320 C   0  0  0  0  0  0  0  0  0  0  0  0
  145.2860   69.1080  219.3600 C   0  0  0  0  0  0  0  0  0  0  0  0
  145.8480   67.8520  219.1430 C   0  0  0  0  0  0  0  0  0  0  0  0
  146.3320   67.5340  217.8710 C   0  0  0  0  0  0  0  0  0  0  0  0
  146.2380   68.4750  216.8640 C   0  0  0  0  0  0  0  0  0  0  0  0
  145.6790   69.7310  217.0670 C   0  0  0  0  0  0  0  0  0  0  0  0
  143.1790   71.5420  218.4300 C   0  0  0  0  0  0  0  0  0  0  0  0
  142.8300   72.9550  218.7280 C   0  0  0  0  0  0  0  0  0  0  0  0
  141.3880   73.2020  218.9900 C   0  0  0  0  0  0  0  0  0  0  0  0
  140.9440   72.2030  219.9440 N   0  0  0  0  0  0  0  0  0  0  0  0
  140.5130   72.6660  221.2040 C   0  0  0  0  0  0  0  0  0  0  0  0
  140.5960   73.9170  221.4100 O   0  0  0  0  0  0  0  0  0  0  0  0
  139.9740   71.7670  222.2860 C   0  0  1  0  0  0  0  0  0  0  0  0
  139.9460   72.6430  223.4700 N   0  0  0  0  0  0  0  0  0  0  0  0
  138.5630   71.4430  221.8520 C   0  0  0  0  0  0  0  0  0  0  0  0
  137.9970   70.4490  222.6710 N   0  0  0  0  0  0  0  0  0  0  0  0
  138.2730   69.0930  222.4720 C   0  0  0  0  0  0  0  0  0  0  0  0
  139.0710   68.4530  223.6060 C   0  0  0  0  0  0  0  0  0  0  0  0
  138.6250   69.0300  224.8870 N   0  0  0  0  0  0  0  0  0  0  0  0
  139.4220   68.9360  226.0550 C   0  0  0  0  0  0  0  0  0  0  0  0
  140.1390   67.8330  226.4220 C   0  0  0  0  0  0  0  0  0  0  0  0
  140.9100   67.7800  227.5880 C   0  0  0  0  0  0  0  0  0  0  0  0
  140.9660   68.8840  228.4300 C   0  0  0  0  0  0  0  0  0  0  0  0
  140.2400   70.0180  228.0700 C   0  0  0  0  0  0  0  0  0  0  0  0
  139.4840   70.0340  226.9030 C   0  0  0  0  0  0  0  0  0  0  0  0
  137.3320   69.6880  224.8380 C   0  0  0  0  0  0  0  0  0  0  0  0
  137.5490   70.8940  223.9380 C   0  0  0  0  0  0  0  0  0  0  0  0
  141.0020   70.8250  219.5290 C   0  0  0  0  0  0  0  0  0  0  0  0
  142.3860   70.4870  219.0970 C   0  0  0  0  0  0  0  0  0  0  0  0
  146.4344   73.8759  222.0152 H   0  0  0  0  0  0  0  0  0  0  0  0
  147.2776   73.4643  220.4834 H   0  0  0  0  0  0  0  0  0  0  0  0
  145.9606   74.6859  220.4834 H   0  0  0  0  0  0  0  0  0  0  0  0
  145.5157   71.7507  221.2691 H   0  0  0  0  0  0  0  0  0  0  0  0
  144.2689   72.9583  220.9278 H   0  0  0  0  0  0  0  0  0  0  0  0
  144.9028   69.3683  220.3577 H   0  0  0  0  0  0  0  0  0  0  0  0
  145.9101   67.1202  219.9619 H   0  0  0  0  0  0  0  0  0  0  0  0
  146.7810   66.5492  217.6747 H   0  0  0  0  0  0  0  0  0  0  0  0
  146.6199   68.2206  215.8643 H   0  0  0  0  0  0  0  0  0  0  0  0
  145.6153   70.4628  216.2482 H   0  0  0  0  0  0  0  0  0  0  0  0
  142.9128   71.4580  217.3660 H   0  0  0  0  0  0  0  0  0  0  0  0
  143.3971   73.2666  219.6175 H   0  0  0  0  0  0  0  0  0  0  0  0
  143.0827   73.5318  217.8261 H   0  0  0  0  0  0  0  0  0  0  0  0
  141.2489   74.2097  219.4085 H   0  0  0  0  0  0  0  0  0  0  0  0
  140.8066   73.1356  218.0586 H   0  0  0  0  0  0  0  0  0  0  0  0
  140.5373   70.8417  222.4770 H   0  0  0  0  0  0  0  0  0  0  0  0
  139.3540   72.2490  224.2320 H   0  0  0  0  0  0  0  0  0  0  0  0
  139.5630   73.5800  223.2230 H   0  0  0  0  0  0  0  0  0  0  0  0
  137.9494   72.3537  221.9160 H   0  0  0  0  0  0  0  0  0  0  0  0
  138.5927   71.0688  220.8180 H   0  0  0  0  0  0  0  0  0  0  0  0
  137.3182   68.5556  222.3737 H   0  0  0  0  0  0  0  0  0  0  0  0
  138.8917   69.0219  221.5653 H   0  0  0  0  0  0  0  0  0  0  0  0
  138.8999   67.3664  223.6107 H   0  0  0  0  0  0  0  0  0  0  0  0
  140.1442   68.6471  223.4628 H   0  0  0  0  0  0  0  0  0  0  0  0
  140.1088   66.9465  225.7715 H   0  0  0  0  0  0  0  0  0  0  0  0
  141.4704   66.8670  227.8377 H   0  0  0  0  0  0  0  0  0  0  0  0
  141.5650   68.8636  229.3524 H   0  0  0  0  0  0  0  0  0  0  0  0
  140.2653   70.9086  228.7151 H   0  0  0  0  0  0  0  0  0  0  0  0
  138.9192   70.9418  226.6443 H   0  0  0  0  0  0  0  0  0  0  0  0
  136.5710   69.0176  224.4121 H   0  0  0  0  0  0  0  0  0  0  0  0
  136.9709   69.9729  225.8372 H   0  0  0  0  0  0  0  0  0  0  0  0
  136.6028   71.4431  223.8226 H   0  0  0  0  0  0  0  0  0  0  0  0
  138.3011   71.5607  224.3850 H   0  0  0  0  0  0  0  0  0  0  0  0
  140.7136   70.1777  220.3703 H   0  0  0  0  0  0  0  0  0  0  0  0
  140.3104   70.6693  218.6879 H   0  0  0  0  0  0  0  0  0  0  0  0
  142.9425   70.1762  219.9935 H   0  0  0  0  0  0  0  0  0  0  0  0
  142.2536   69.7126  218.3271 H   0  0  0  0  0  0  0  0  0  0  0  0
  1  2  1  0
  2  3  1  0
  3  4  2  0
  3  5  1  0
  5  6  1  0
  6  7  2  0
  7  8  1  0
  8  9  2  0
  9 10  1  0
 10 11  2  0
  5 12  1  0
 12 13  1  0
 13 14  1  0
 14 15  1  0
 15 16  1  0
 16 17  2  0
 16 18  1  0
 18 19  1  0
 18 20  1  0
 20 21  1  0
 21 22  1  0
 22 23  1  0
 23 24  1  0
 24 25  1  0
 25 26  2  0
 26 27  1  0
 27 28  2  0
 28 29  1  0
 29 30  2  0
 24 31  1  0
 31 32  1  0
 15 33  1  0
 33 34  1  0
 11  6  1  0
 34 12  1  0
 32 21  1  0
 30 25  1  0
  1 35  1  0
  1 36  1  0
  1 37  1  0
  2 38  1  0
  2 39  1  0
  7 40  1  0
  8 41  1  0
  9 42  1  0
 10 43  1  0
 11 44  1  0
 12 45  1  0
 13 46  1  0
 13 47  1  0
 14 48  1  0
 14 49  1  0
 18 50  1  1
 19 51  1  0
 19 52  1  0
 20 53  1  0
 20 54  1  0
 22 55  1  0
 22 56  1  0
 23 57  1  0
 23 58  1  0
 26 59  1  0
 27 60  1  0
 28 61  1  0
 29 62  1  0
 30 63  1  0
 31 64  1  0
 31 65  1  0
 32 66  1  0
 32 67  1  0
 33 68  1  0
 33 69  1  0
 34 70  1  0
 34 71  1  0
M  END
>  <smiles>  (11) 
CCC(=O)N(c1ccccc1)C1CCN(C(=O)[C@@H](N)CN2CCN(c3ccccc3)CC2)CC1

>  <score_type>  (11) 
oracle

>  <origin>  (11) 
autodockgpu

>  <m_score__min__energy>  (11) 
-8.5700000000000003

>  <m_primary>  (11) 
energy

>  <rmsd>  (11) 
10.36248019306889

>  <m_score__min__rmsd>  (11) 
10.36248019306889

>  <meeko>  (11) 
{"free_energy": -7.92, "intermolecular_energy": -10.61, "internal_energy": -2.69, "cluster_size": 5, "cluster_id": 4, "rank_in_cluster": 3}

>  <energy>  (11) 
-7.8

>  <cluster_rmsd>  (11) 
0.34

>  <cluster>  (11) 
3

$$$$

     RDKit          3D

 71 74  0  0  0  0  0  0  0  0999 V2000
  142.1630   79.3340  217.3180 C   0  0  0  0  0  0  0  0  0  0  0  0
  142.5660   80.1760  218.5290 C   0  0  0  0  0  0  0  0  0  0  0  0
  141.2930   80.6120  219.1560 C   0  0  0  0  0  0  0  0  0  0  0  0
  140.8210   81.7140  218.7720 O   0  0  0  0  0  0  0  0  0  0  0  0
  140.6750   79.7900  220.1380 N   0  0  0  0  0  0  0  0  0  0  0  0
  141.1950   79.7420  221.4620 C   0  0  0  0  0  0  0  0  0  0  0  0
  141.6280   80.9430  221.9950 C   0  0  0  0  0  0  0  0  0  0  0  0
  142.1540   81.0000  223.2840 C   0  0  0  0  0  0  0  0  0  0  0  0
  142.2400   79.8240  224.0340 C   0  0  0  0  0  0  0  0  0  0  0  0
  141.8010   78.6390  223.4770 C   0  0  0  0  0  0  0  0  0  0  0  0
  141.2740   78.5690  222.1940 C   0  0  0  0  0  0  0  0  0  0  0  0
  139.4910   79.0020  219.7460 C   0  0  0  0  0  0  0  0  0  0  0  0
  138.4830   78.9640  220.8360 C   0  0  0  0  0  0  0  0  0  0  0  0
  137.5040   77.8500  220.7450 C   0  0  0  0  0  0  0  0  0  0  0  0
  138.2550   76.6310  220.5070 N   0  0  0  0  0  0  0  0  0  0  0  0
  138.2030   75.6390  221.5070 C   0  0  0  0  0  0  0  0  0  0  0  0
  137.5400   75.9190  222.5530 O   0  0  0  0  0  0  0  0  0  0  0  0
  138.8830   74.2990  221.3920 C   0  0  1  0  0  0  0  0  0  0  0  0
  139.5730   74.1590  222.6860 N   0  0  0  0  0  0  0  0  0  0  0  0
  137.7540   73.2990  221.3000 C   0  0  0  0  0  0  0  0  0  0  0  0
  138.1910   72.0090  221.6510 N   0  0  0  0  0  0  0  0  0  0  0  0
  139.4900   71.5760  221.3730 C   0  0  0  0  0  0  0  0  0  0  0  0
  140.3410   71.3400  222.6190 C   0  0  0  0  0  0  0  0  0  0  0  0
  139.4880   70.7750  223.6790 N   0  0  0  0  0  0  0  0  0  0  0  0
  139.8800   70.8150  225.0400 C   0  0  0  0  0  0  0  0  0  0  0  0
  139.5370   69.8820  225.9770 C   0  0  0  0  0  0  0  0  0  0  0  0
  139.9400   69.9610  227.3140 C   0  0  0  0  0  0  0  0  0  0  0  0
  140.7250   71.0270  227.7360 C   0  0  0  0  0  0  0  0  0  0  0  0
  141.0840   71.9880  226.7930 C   0  0  0  0  0  0  0  0  0  0  0  0
  140.6640   71.8760  225.4720 C   0  0  0  0  0  0  0  0  0  0  0  0
  138.2410   70.1970  223.2100 C   0  0  0  0  0  0  0  0  0  0  0  0
  137.4470   71.3780  222.6780 C   0  0  0  0  0  0  0  0  0  0  0  0
  139.0050   76.5510  219.2790 C   0  0  0  0  0  0  0  0  0  0  0  0
  139.9350   77.7090  219.1800 C   0  0  0  0  0  0  0  0  0  0  0  0
  141.7117   78.3912  217.6607 H   0  0  0  0  0  0  0  0  0  0  0  0
  141.4335   79.8903  216.7110 H   0  0  0  0  0  0  0  0  0  0  0  0
  143.0538   79.1148  216.7110 H   0  0  0  0  0  0  0  0  0  0  0  0
  143.1553   79.5737  219.2361 H   0  0  0  0  0  0  0  0  0  0  0  0
  143.1901   81.0338  218.2378 H   0  0  0  0  0  0  0  0  0  0  0  0
  141.5563   81.8622  221.3951 H   0  0  0  0  0  0  0  0  0  0  0  0
  142.4966   81.9567  223.7051 H   0  0  0  0  0  0  0  0  0  0  0  0
  142.6517   79.8419  225.0539 H   0  0  0  0  0  0  0  0  0  0  0  0
  141.8713   77.7163  224.0717 H   0  0  0  0  0  0  0  0  0  0  0  0
  140.9304   77.6127  221.7728 H   0  0  0  0  0  0  0  0  0  0  0  0
  138.9313   79.4844  218.9311 H   0  0  0  0  0  0  0  0  0  0  0  0
  139.0178   78.8714  221.7928 H   0  0  0  0  0  0  0  0  0  0  0  0
  137.9011   79.8935  220.7502 H   0  0  0  0  0  0  0  0  0  0  0  0
  136.9404   77.7668  221.6860 H   0  0  0  0  0  0  0  0  0  0  0  0
  136.7860   78.0292  219.9311 H   0  0  0  0  0  0  0  0  0  0  0  0
  139.5743   74.1737  220.5456 H   0  0  0  0  0  0  0  0  0  0  0  0
  139.3290   73.2640  223.1620 H   0  0  0  0  0  0  0  0  0  0  0  0
  139.3140   74.9390  223.3260 H   0  0  0  0  0  0  0  0  0  0  0  0
  136.9476   73.6036  221.9833 H   0  0  0  0  0  0  0  0  0  0  0  0
  137.3920   73.2750  220.2616 H   0  0  0  0  0  0  0  0  0  0  0  0
  139.4282   70.6322  220.8114 H   0  0  0  0  0  0  0  0  0  0  0  0
  139.9785   72.3767  220.7984 H   0  0  0  0  0  0  0  0  0  0  0  0
  141.1529   70.6361  222.3838 H   0  0  0  0  0  0  0  0  0  0  0  0
  140.7768   72.2912  222.9585 H   0  0  0  0  0  0  0  0  0  0  0  0
  138.9154   69.0295  225.6657 H   0  0  0  0  0  0  0  0  0  0  0  0
  139.6366   69.1820  228.0289 H   0  0  0  0  0  0  0  0  0  0  0  0
  141.0531   71.1098  228.7827 H   0  0  0  0  0  0  0  0  0  0  0  0
  141.7055   72.8434  227.0964 H   0  0  0  0  0  0  0  0  0  0  0  0
  140.9614   72.6499  224.7491 H   0  0  0  0  0  0  0  0  0  0  0  0
  138.4288   69.4641  222.4115 H   0  0  0  0  0  0  0  0  0  0  0  0
  137.7053   69.6590  224.0060 H   0  0  0  0  0  0  0  0  0  0  0  0
  136.4868   71.0248  222.2740 H   0  0  0  0  0  0  0  0  0  0  0  0
  137.2553   72.0935  223.4912 H   0  0  0  0  0  0  0  0  0  0  0  0
  139.5837   75.6156  219.2648 H   0  0  0  0  0  0  0  0  0  0  0  0
  138.3097   76.5696  218.4268 H   0  0  0  0  0  0  0  0  0  0  0  0
  140.8651   77.4276  219.6954 H   0  0  0  0  0  0  0  0  0  0  0  0
  140.0283   77.8972  218.1002 H   0  0  0  0  0  0  0  0  0  0  0  0
  1  2  1  0
  2  3  1  0
  3  4  2  0
  3  5  1  0
  5  6  1  0
  6  7  2  0
  7  8  1  0
  8  9  2  0
  9 10  1  0
 10 11  2  0
  5 12  1  0
 12 13  1  0
 13 14  1  0
 14 15  1  0
 15 16  1  0
 16 17  2  0
 16 18  1  0
 18 19  1  0
 18 20  1  0
 20 21  1  0
 21 22  1  0
 22 23  1  0
 23 24  1  0
 24 25  1  0
 25 26  2  0
 26 27  1  0
 27 28  2  0
 28 29  1  0
 29 30  2  0
 24 31  1  0
 31 32  1  0
 15 33  1  0
 33 34  1  0
 11  6  1  0
 34 12  1  0
 32 21  1  0
 30 25  1  0
  1 35  1  0
  1 36  1  0
  1 37  1  0
  2 38  1  0
  2 39  1  0
  7 40  1  0
  8 41  1  0
  9 42  1  0
 10 43  1  0
 11 44  1  0
 12 45  1  0
 13 46  1  0
 13 47  1  0
 14 48  1  0
 14 49  1  0
 18 50  1  6
 19 51  1  0
 19 52  1  0
 20 53  1  0
 20 54  1  0
 22 55  1  0
 22 56  1  0
 23 57  1  0
 23 58  1  0
 26 59  1  0
 27 60  1  0
 28 61  1  0
 29 62  1  0
 30 63  1  0
 31 64  1  0
 31 65  1  0
 32 66  1  0
 32 67  1  0
 33 68  1  0
 33 69  1  0
 34 70  1  0
 34 71  1  0
M  END
>  <smiles>  (12) 
CCC(=O)N(c1ccccc1)C1CCN(C(=O)[C@@H](N)CN2CCN(c3ccccc3)CC2)CC1

>  <score_type>  (12) 
oracle

>  <origin>  (12) 
autodockgpu

>  <m_score__min__energy>  (12) 
-8.5700000000000003

>  <m_primary>  (12) 
energy

>  <rmsd>  (12) 
8.586635464324486

>  <m_score__min__rmsd>  (12) 
8.586635464324486

>  <meeko>  (12) 
{"free_energy": -7.77, "intermolecular_energy": -10.46, "internal_energy": -3.13, "cluster_size": 26, "cluster_id": 3, "rank_in_cluster": 10}

>  <energy>  (12) 
-7.79

>  <cluster_rmsd>  (12) 
0.68

>  <cluster>  (12) 
3

$$$$

     RDKit          3D

 71 74  0  0  0  0  0  0  0  0999 V2000
  142.4120   79.2210  218.2020 C   0  0  0  0  0  0  0  0  0  0  0  0
  142.4370   80.6970  218.6010 C   0  0  0  0  0  0  0  0  0  0  0  0
  141.0620   81.0090  219.0700 C   0  0  0  0  0  0  0  0  0  0  0  0
  140.4100   81.8450  218.3920 O   0  0  0  0  0  0  0  0  0  0  0  0
  140.5550   80.3690  220.2320 N   0  0  0  0  0  0  0  0  0  0  0  0
  141.2580   80.4610  221.4660 C   0  0  0  0  0  0  0  0  0  0  0  0
  141.9060   79.3130  221.8900 C   0  0  0  0  0  0  0  0  0  0  0  0
  142.6210   79.3020  223.0850 C   0  0  0  0  0  0  0  0  0  0  0  0
  142.6760   80.4670  223.8550 C   0  0  0  0  0  0  0  0  0  0  0  0
  142.0200   81.5970  223.4090 C   0  0  0  0  0  0  0  0  0  0  0  0
  141.3040   81.6220  222.2180 C   0  0  0  0  0  0  0  0  0  0  0  0
  139.2890   79.6170  220.1210 C   0  0  0  0  0  0  0  0  0  0  0  0
  138.6310   79.4700  221.4440 C   0  0  0  0  0  0  0  0  0  0  0  0
  137.6390   78.3670  221.5320 C   0  0  0  0  0  0  0  0  0  0  0  0
  138.2630   77.1800  220.9770 N   0  0  0  0  0  0  0  0  0  0  0  0
  138.4730   76.0950  221.8530 C   0  0  0  0  0  0  0  0  0  0  0  0
  138.1400   76.2710  223.0660 O   0  0  0  0  0  0  0  0  0  0  0  0
  139.0600   74.7760  221.4250 C   0  0  1  0  0  0  0  0  0  0  0  0
  139.5900   74.2190  222.6820 N   0  0  0  0  0  0  0  0  0  0  0  0
  137.8770   73.9590  220.9590 C   0  0  0  0  0  0  0  0  0  0  0  0
  138.0550   72.5950  221.2550 N   0  0  0  0  0  0  0  0  0  0  0  0
  139.1920   71.8980  220.8370 C   0  0  0  0  0  0  0  0  0  0  0  0
  140.0950   71.4490  221.9830 C   0  0  0  0  0  0  0  0  0  0  0  0
  139.2540   71.0530  223.1260 N   0  0  0  0  0  0  0  0  0  0  0  0
  139.7840   70.9680  224.4370 C   0  0  0  0  0  0  0  0  0  0  0  0
  140.7060   71.8290  224.9620 C   0  0  0  0  0  0  0  0  0  0  0  0
  141.2100   71.7070  226.2610 C   0  0  0  0  0  0  0  0  0  0  0  0
  140.7710   70.6710  227.0770 C   0  0  0  0  0  0  0  0  0  0  0  0
  139.8310   69.7830  226.5570 C   0  0  0  0  0  0  0  0  0  0  0  0
  139.3520   69.9360  225.2600 C   0  0  0  0  0  0  0  0  0  0  0  0
  137.8690   70.7730  222.7910 C   0  0  0  0  0  0  0  0  0  0  0  0
  137.3020   72.1130  222.3530 C   0  0  0  0  0  0  0  0  0  0  0  0
  138.6330   77.2210  219.5850 C   0  0  0  0  0  0  0  0  0  0  0  0
  139.5240   78.3870  219.3340 C   0  0  0  0  0  0  0  0  0  0  0  0
  142.4014   78.5965  219.1075 H   0  0  0  0  0  0  0  0  0  0  0  0
  141.5103   79.0176  217.6057 H   0  0  0  0  0  0  0  0  0  0  0  0
  143.3063   78.9872  217.6057 H   0  0  0  0  0  0  0  0  0  0  0  0
  143.1650   80.8639  219.4086 H   0  0  0  0  0  0  0  0  0  0  0  0
  142.7353   81.3403  217.7601 H   0  0  0  0  0  0  0  0  0  0  0  0
  141.8555   78.4010  221.2770 H   0  0  0  0  0  0  0  0  0  0  0  0
  143.1355   78.3887  223.4184 H   0  0  0  0  0  0  0  0  0  0  0  0
  143.2340   80.4834  224.8028 H   0  0  0  0  0  0  0  0  0  0  0  0
  142.0657   82.5114  224.0188 H   0  0  0  0  0  0  0  0  0  0  0  0
  140.7903   82.5354  221.8837 H   0  0  0  0  0  0  0  0  0  0  0  0
  138.5325   80.1732  219.5481 H   0  0  0  0  0  0  0  0  0  0  0  0
  139.4129   79.2867  222.1957 H   0  0  0  0  0  0  0  0  0  0  0  0
  138.0715   80.4016  221.6147 H   0  0  0  0  0  0  0  0  0  0  0  0
  137.3636   78.1913  222.5824 H   0  0  0  0  0  0  0  0  0  0  0  0
  136.7237   78.6213  220.9774 H   0  0  0  0  0  0  0  0  0  0  0  0
  139.8296   74.8164  220.6401 H   0  0  0  0  0  0  0  0  0  0  0  0
  139.0560   73.3780  222.9910 H   0  0  0  0  0  0  0  0  0  0  0  0
  139.5400   74.9250  223.4460 H   0  0  0  0  0  0  0  0  0  0  0  0
  136.9693   74.3207  221.4642 H   0  0  0  0  0  0  0  0  0  0  0  0
  137.7833   74.0705  219.8687 H   0  0  0  0  0  0  0  0  0  0  0  0
  138.8672   71.0059  220.2813 H   0  0  0  0  0  0  0  0  0  0  0  0
  139.7814   72.5890  220.2164 H   0  0  0  0  0  0  0  0  0  0  0  0
  140.7047   70.5927  221.6590 H   0  0  0  0  0  0  0  0  0  0  0  0
  140.7607   72.2735  222.2780 H   0  0  0  0  0  0  0  0  0  0  0  0
  141.0686   72.6562  224.3341 H   0  0  0  0  0  0  0  0  0  0  0  0
  141.9512   72.4284  226.6355 H   0  0  0  0  0  0  0  0  0  0  0  0
  141.1537   70.5555  228.1018 H   0  0  0  0  0  0  0  0  0  0  0  0
  139.4642   68.9528  227.1785 H   0  0  0  0  0  0  0  0  0  0  0  0
  138.6107   69.2199  224.8756 H   0  0  0  0  0  0  0  0  0  0  0  0
  137.8079   70.0396  221.9735 H   0  0  0  0  0  0  0  0  0  0  0  0
  137.3141   70.3419  223.6373 H   0  0  0  0  0  0  0  0  0  0  0  0
  136.2510   71.9886  222.0533 H   0  0  0  0  0  0  0  0  0  0  0  0
  137.3574   72.8301  223.1853 H   0  0  0  0  0  0  0  0  0  0  0  0
  139.1620   76.2936  219.3203 H   0  0  0  0  0  0  0  0  0  0  0  0
  137.7257   77.3185  218.9708 H   0  0  0  0  0  0  0  0  0  0  0  0
  140.5552   78.0611  219.5349 H   0  0  0  0  0  0  0  0  0  0  0  0
  139.3121   78.6786  218.2947 H   0  0  0  0  0  0  0  0  0  0  0  0
  1  2  1  0
  2  3  1  0
  3  4  2  0
  3  5  1  0
  5  6  1  0
  6  7  2  0
  7  8  1  0
  8  9  2  0
  9 10  1  0
 10 11  2  0
  5 12  1  0
 12 13  1  0
 13 14  1  0
 14 15  1  0
 15 16  1  0
 16 17  2  0
 16 18  1  0
 18 19  1  0
 18 20  1  0
 20 21  1  0
 21 22  1  0
 22 23  1  0
 23 24  1  0
 24 25  1  0
 25 26  2  0
 26 27  1  0
 27 28  2  0
 28 29  1  0
 29 30  2  0
 24 31  1  0
 31 32  1  0
 15 33  1  0
 33 34  1  0
 11  6  1  0
 34 12  1  0
 32 21  1  0
 30 25  1  0
  1 35  1  0
  1 36  1  0
  1 37  1  0
  2 38  1  0
  2 39  1  0
  7 40  1  0
  8 41  1  0
  9 42  1  0
 10 43  1  0
 11 44  1  0
 12 45  1  0
 13 46  1  0
 13 47  1  0
 14 48  1  0
 14 49  1  0
 18 50  1  6
 19 51  1  0
 19 52  1  0
 20 53  1  0
 20 54  1  0
 22 55  1  0
 22 56  1  0
 23 57  1  0
 23 58  1  0
 26 59  1  0
 27 60  1  0
 28 61  1  0
 29 62  1  0
 30 63  1  0
 31 64  1  0
 31 65  1  0
 32 66  1  0
 32 67  1  0
 33 68  1  0
 33 69  1  0
 34 70  1  0
 34 71  1  0
M  END
>  <smiles>  (13) 
CCC(=O)N(c1ccccc1)C1CCN(C(=O)[C@@H](N)CN2CCN(c3ccccc3)CC2)CC1

>  <score_type>  (13) 
oracle

>  <origin>  (13) 
autodockgpu

>  <m_score__min__energy>  (13) 
-8.5700000000000003

>  <m_primary>  (13) 
energy

>  <rmsd>  (13) 
8.409289915758466

>  <m_score__min__rmsd>  (13) 
8.409289915758466

>  <meeko>  (13) 
{"free_energy": -7.44, "intermolecular_energy": -10.13, "internal_energy": -3.37, "cluster_size": 26, "cluster_id": 3, "rank_in_cluster": 16}

>  <energy>  (13) 
-7.79

>  <cluster_rmsd>  (13) 
0.28

>  <cluster>  (13) 
3

$$$$

     RDKit          3D

 71 74  0  0  0  0  0  0  0  0999 V2000
  136.9330   82.2120  225.8520 C   0  0  0  0  0  0  0  0  0  0  0  0
  137.6370   80.9760  225.2890 C   0  0  0  0  0  0  0  0  0  0  0  0
  137.9040   81.2820  223.8600 C   0  0  0  0  0  0  0  0  0  0  0  0
  137.4520   82.3710  223.4210 O   0  0  0  0  0  0  0  0  0  0  0  0
  138.6380   80.3580  223.0690 N   0  0  0  0  0  0  0  0  0  0  0  0
  140.0470   80.2340  223.2350 C   0  0  0  0  0  0  0  0  0  0  0  0
  140.8120   81.2960  222.7840 C   0  0  0  0  0  0  0  0  0  0  0  0
  142.2000   81.2700  222.9010 C   0  0  0  0  0  0  0  0  0  0  0  0
  142.8130   80.1550  223.4790 C   0  0  0  0  0  0  0  0  0  0  0  0
  142.0250   79.1100  223.9190 C   0  0  0  0  0  0  0  0  0  0  0  0
  140.6390   79.1230  223.8100 C   0  0  0  0  0  0  0  0  0  0  0  0
  137.9030   79.5380  222.0860 C   0  0  0  0  0  0  0  0  0  0  0  0
  136.9010   78.6670  222.7520 C   0  0  0  0  0  0  0  0  0  0  0  0
  136.4560   77.4980  221.9490 C   0  0  0  0  0  0  0  0  0  0  0  0
  137.6470   76.8480  221.4330 N   0  0  0  0  0  0  0  0  0  0  0  0
  137.9050   75.5350  221.8760 C   0  0  0  0  0  0  0  0  0  0  0  0
  137.0950   75.0520  222.7270 O   0  0  0  0  0  0  0  0  0  0  0  0
  139.0670   74.7040  221.3980 C   0  0  1  0  0  0  0  0  0  0  0  0
  139.5690   74.0830  222.6360 N   0  0  0  0  0  0  0  0  0  0  0  0
  138.4500   73.6510  220.5070 C   0  0  0  0  0  0  0  0  0  0  0  0
  138.9750   72.3770  220.7900 N   0  0  0  0  0  0  0  0  0  0  0  0
  140.3470   72.1190  220.7170 C   0  0  0  0  0  0  0  0  0  0  0  0
  140.9900   71.8100  222.0670 C   0  0  0  0  0  0  0  0  0  0  0  0
  140.0410   71.0270  222.8780 N   0  0  0  0  0  0  0  0  0  0  0  0
  140.1810   70.9280  224.2850 C   0  0  0  0  0  0  0  0  0  0  0  0
  140.7920   71.8610  225.0750 C   0  0  0  0  0  0  0  0  0  0  0  0
  140.9150   71.7220  226.4610 C   0  0  0  0  0  0  0  0  0  0  0  0
  140.4030   70.5940  227.0900 C   0  0  0  0  0  0  0  0  0  0  0  0
  139.7770   69.6320  226.2990 C   0  0  0  0  0  0  0  0  0  0  0  0
  139.6730   69.8040  224.9230 C   0  0  0  0  0  0  0  0  0  0  0  0
  138.9760   70.3920  222.1230 C   0  0  0  0  0  0  0  0  0  0  0  0
  138.1480   71.5460  221.5830 C   0  0  0  0  0  0  0  0  0  0  0  0
  138.4730   77.6100  220.5310 C   0  0  0  0  0  0  0  0  0  0  0  0
  138.8720   78.8920  221.1730 C   0  0  0  0  0  0  0  0  0  0  0  0
  136.9532   82.1766  226.9513 H   0  0  0  0  0  0  0  0  0  0  0  0
  137.4502   83.1186  225.5048 H   0  0  0  0  0  0  0  0  0  0  0  0
  135.8894   82.2296  225.5048 H   0  0  0  0  0  0  0  0  0  0  0  0
  138.5801   80.7942  225.8251 H   0  0  0  0  0  0  0  0  0  0  0  0
  137.0219   80.0712  225.4026 H   0  0  0  0  0  0  0  0  0  0  0  0
  140.3195   82.1682  222.3292 H   0  0  0  0  0  0  0  0  0  0  0  0
  142.8054   82.1159  222.5432 H   0  0  0  0  0  0  0  0  0  0  0  0
  143.9073   80.1105  223.5819 H   0  0  0  0  0  0  0  0  0  0  0  0
  142.5121   78.2343  224.3728 H   0  0  0  0  0  0  0  0  0  0  0  0
  140.0329   78.2781  224.1689 H   0  0  0  0  0  0  0  0  0  0  0  0
  137.2719   80.1550  221.4295 H   0  0  0  0  0  0  0  0  0  0  0  0
  137.3424   78.2913  223.6869 H   0  0  0  0  0  0  0  0  0  0  0  0
  136.0083   79.2896  222.9115 H   0  0  0  0  0  0  0  0  0  0  0  0
  135.8910   76.7991  222.5833 H   0  0  0  0  0  0  0  0  0  0  0  0
  135.8006   77.8187  221.1258 H   0  0  0  0  0  0  0  0  0  0  0  0
  139.8619   75.2410  220.8598 H   0  0  0  0  0  0  0  0  0  0  0  0
  139.1500   73.1410  222.7960 H   0  0  0  0  0  0  0  0  0  0  0  0
  139.3420   74.6750  223.4620 H   0  0  0  0  0  0  0  0  0  0  0  0
  137.3622   73.6354  220.6695 H   0  0  0  0  0  0  0  0  0  0  0  0
  138.6812   73.8996  219.4607 H   0  0  0  0  0  0  0  0  0  0  0  0
  140.5024   71.2556  220.0534 H   0  0  0  0  0  0  0  0  0  0  0  0
  140.8247   73.0342  220.3373 H   0  0  0  0  0  0  0  0  0  0  0  0
  141.9114   71.2292  221.9131 H   0  0  0  0  0  0  0  0  0  0  0  0
  141.2389   72.7478  222.5853 H   0  0  0  0  0  0  0  0  0  0  0  0
  141.2058   72.7622  224.5989 H   0  0  0  0  0  0  0  0  0  0  0  0
  141.4156   72.5035  227.0515 H   0  0  0  0  0  0  0  0  0  0  0  0
  140.4890   70.4640  228.1789 H   0  0  0  0  0  0  0  0  0  0  0  0
  139.3612   68.7280  226.7678 H   0  0  0  0  0  0  0  0  0  0  0  0
  139.1745   69.0282  224.3233 H   0  0  0  0  0  0  0  0  0  0  0  0
  139.3889   69.7914  221.2991 H   0  0  0  0  0  0  0  0  0  0  0  0
  138.3799   69.7041  222.7406 H   0  0  0  0  0  0  0  0  0  0  0  0
  137.3240   71.1529  220.9694 H   0  0  0  0  0  0  0  0  0  0  0  0
  137.7313   72.1267  222.4191 H   0  0  0  0  0  0  0  0  0  0  0  0
  139.3741   77.0300  220.2830 H   0  0  0  0  0  0  0  0  0  0  0  0
  137.9059   77.8248  219.6133 H   0  0  0  0  0  0  0  0  0  0  0  0
  139.7880   78.6984  221.7505 H   0  0  0  0  0  0  0  0  0  0  0  0
  138.9781   79.5989  220.3369 H   0  0  0  0  0  0  0  0  0  0  0  0
  1  2  1  0
  2  3  1  0
  3  4  2  0
  3  5  1  0
  5  6  1  0
  6  7  2  0
  7  8  1  0
  8  9  2  0
  9 10  1  0
 10 11  2  0
  5 12  1  0
 12 13  1  0
 13 14  1  0
 14 15  1  0
 15 16  1  0
 16 17  2  0
 16 18  1  0
 18 19  1  0
 18 20  1  0
 20 21  1  0
 21 22  1  0
 22 23  1  0
 23 24  1  0
 24 25  1  0
 25 26  2  0
 26 27  1  0
 27 28  2  0
 28 29  1  0
 29 30  2  0
 24 31  1  0
 31 32  1  0
 15 33  1  0
 33 34  1  0
 11  6  1  0
 34 12  1  0
 32 21  1  0
 30 25  1  0
  1 35  1  0
  1 36  1  0
  1 37  1  0
  2 38  1  0
  2 39  1  0
  7 40  1  0
  8 41  1  0
  9 42  1  0
 10 43  1  0
 11 44  1  0
 12 45  1  0
 13 46  1  0
 13 47  1  0
 14 48  1  0
 14 49  1  0
 18 50  1  6
 19 51  1  0
 19 52  1  0
 20 53  1  0
 20 54  1  0
 22 55  1  0
 22 56  1  0
 23 57  1  0
 23 58  1  0
 26 59  1  0
 27 60  1  0
 28 61  1  0
 29 62  1  0
 30 63  1  0
 31 64  1  0
 31 65  1  0
 32 66  1  0
 32 67  1  0
 33 68  1  0
 33 69  1  0
 34 70  1  0
 34 71  1  0
M  END
>  <smiles>  (14) 
CCC(=O)N(c1ccccc1)C1CCN(C(=O)[C@@H](N)CN2CCN(c3ccccc3)CC2)CC1

>  <score_type>  (14) 
oracle

>  <origin>  (14) 
autodockgpu

>  <m_score__min__energy>  (14) 
-8.5700000000000003

>  <m_primary>  (14) 
energy

>  <rmsd>  (14) 
8.3646532950642

>  <m_score__min__rmsd>  (14) 
8.3646532950642

>  <meeko>  (14) 
{"free_energy": -7.76, "intermolecular_energy": -10.44, "internal_energy": -2.88, "cluster_size": 3, "cluster_id": 5, "rank_in_cluster": 1}

>  <energy>  (14) 
-7.78

>  <cluster_rmsd>  (14) 
0.37

>  <cluster>  (14) 
3

$$$$

     RDKit          3D

 71 74  0  0  0  0  0  0  0  0999 V2000
  142.7600   81.1110  217.8710 C   0  0  0  0  0  0  0  0  0  0  0  0
  142.0110   79.8400  217.4670 C   0  0  0  0  0  0  0  0  0  0  0  0
  142.1380   78.9150  218.6220 C   0  0  0  0  0  0  0  0  0  0  0  0
  143.0860   78.0890  218.5840 O   0  0  0  0  0  0  0  0  0  0  0  0
  141.2090   79.0010  219.6950 N   0  0  0  0  0  0  0  0  0  0  0  0
  141.5630   79.6760  220.8970 C   0  0  0  0  0  0  0  0  0  0  0  0
  141.2450   81.0210  220.9610 C   0  0  0  0  0  0  0  0  0  0  0  0
  141.5500   81.7700  222.0950 C   0  0  0  0  0  0  0  0  0  0  0  0
  142.1860   81.1440  223.1710 C   0  0  0  0  0  0  0  0  0  0  0  0
  142.4920   79.8010  223.0800 C   0  0  0  0  0  0  0  0  0  0  0  0
  142.1920   79.0420  221.9550 C   0  0  0  0  0  0  0  0  0  0  0  0
  139.8820   78.3780  219.5230 C   0  0  0  0  0  0  0  0  0  0  0  0
  139.0630   78.5050  220.7550 C   0  0  0  0  0  0  0  0  0  0  0  0
  137.9400   77.5380  220.8630 C   0  0  0  0  0  0  0  0  0  0  0  0
  138.4730   76.2210  220.5660 N   0  0  0  0  0  0  0  0  0  0  0  0
  138.4450   75.2670  221.6050 C   0  0  0  0  0  0  0  0  0  0  0  0
  137.9990   75.6600  222.7260 O   0  0  0  0  0  0  0  0  0  0  0  0
  138.9110   73.8440  221.4440 C   0  0  1  0  0  0  0  0  0  0  0  0
  139.6220   73.5780  222.7070 N   0  0  0  0  0  0  0  0  0  0  0  0
  137.6420   73.0260  221.3860 C   0  0  0  0  0  0  0  0  0  0  0  0
  137.8510   71.7300  221.8930 N   0  0  0  0  0  0  0  0  0  0  0  0
  138.9650   70.9710  221.5240 C   0  0  0  0  0  0  0  0  0  0  0  0
  139.9450   70.7180  222.6680 C   0  0  0  0  0  0  0  0  0  0  0  0
  139.1820   70.5190  223.9130 N   0  0  0  0  0  0  0  0  0  0  0  0
  139.7960   70.6540  225.1830 C   0  0  0  0  0  0  0  0  0  0  0  0
  139.5650   69.8340  226.2510 C   0  0  0  0  0  0  0  0  0  0  0  0
  140.1880   70.0050  227.4910 C   0  0  0  0  0  0  0  0  0  0  0  0
  141.0870   71.0480  227.6740 C   0  0  0  0  0  0  0  0  0  0  0  0
  141.3350   71.8950  226.5950 C   0  0  0  0  0  0  0  0  0  0  0  0
  140.6960   71.6940  225.3760 C   0  0  0  0  0  0  0  0  0  0  0  0
  137.7810   70.1900  223.7200 C   0  0  0  0  0  0  0  0  0  0  0  0
  137.1750   71.4390  223.1030 C   0  0  0  0  0  0  0  0  0  0  0  0
  139.0030   76.0090  219.2430 C   0  0  0  0  0  0  0  0  0  0  0  0
  140.0530   77.0230  218.9520 C   0  0  0  0  0  0  0  0  0  0  0  0
  142.8005   81.1797  218.9681 H   0  0  0  0  0  0  0  0  0  0  0  0
  143.7829   81.0777  217.4677 H   0  0  0  0  0  0  0  0  0  0  0  0
  142.2353   81.9897  217.4677 H   0  0  0  0  0  0  0  0  0  0  0  0
  140.9524   80.0648  217.2701 H   0  0  0  0  0  0  0  0  0  0  0  0
  142.4238   79.4003  216.5471 H   0  0  0  0  0  0  0  0  0  0  0  0
  140.7462   81.5037  220.1076 H   0  0  0  0  0  0  0  0  0  0  0  0
  141.2941   82.8387  222.1432 H   0  0  0  0  0  0  0  0  0  0  0  0
  142.4391   81.7135  224.0774 H   0  0  0  0  0  0  0  0  0  0  0  0
  142.9920   79.3132  223.9297 H   0  0  0  0  0  0  0  0  0  0  0  0
  142.4459   77.9728  221.9068 H   0  0  0  0  0  0  0  0  0  0  0  0
  139.2710   78.9161  218.7833 H   0  0  0  0  0  0  0  0  0  0  0  0
  139.7245   78.3584  221.6215 H   0  0  0  0  0  0  0  0  0  0  0  0
  138.6062   79.5051  220.7197 H   0  0  0  0  0  0  0  0  0  0  0  0
  137.5254   77.5551  221.8817 H   0  0  0  0  0  0  0  0  0  0  0  0
  137.1336   77.7985  220.1617 H   0  0  0  0  0  0  0  0  0  0  0  0
  139.5420   73.6330  220.5681 H   0  0  0  0  0  0  0  0  0  0  0  0
  139.2120   72.7690  223.2220 H   0  0  0  0  0  0  0  0  0  0  0  0
  139.5780   74.4090  223.3350 H   0  0  0  0  0  0  0  0  0  0  0  0
  136.8653   73.5249  221.9843 H   0  0  0  0  0  0  0  0  0  0  0  0
  137.3272   72.9435  220.3352 H   0  0  0  0  0  0  0  0  0  0  0  0
  138.6132   69.9992  221.1474 H   0  0  0  0  0  0  0  0  0  0  0  0
  139.5067   71.5477  220.7598 H   0  0  0  0  0  0  0  0  0  0  0  0
  140.5409   69.8190  222.4521 H   0  0  0  0  0  0  0  0  0  0  0  0
  140.6209   71.5789  222.7779 H   0  0  0  0  0  0  0  0  0  0  0  0
  138.8566   69.0013  226.1299 H   0  0  0  0  0  0  0  0  0  0  0  0
  139.9669   69.3156  228.3192 H   0  0  0  0  0  0  0  0  0  0  0  0
  141.5881   71.2009  228.6412 H   0  0  0  0  0  0  0  0  0  0  0  0
  142.0423   72.7297  226.7086 H   0  0  0  0  0  0  0  0  0  0  0  0
  140.9095   72.3780  224.5414 H   0  0  0  0  0  0  0  0  0  0  0  0
  137.6739   69.3307  223.0417 H   0  0  0  0  0  0  0  0  0  0  0  0
  137.2857   69.9072  224.6606 H   0  0  0  0  0  0  0  0  0  0  0  0
  136.1079   71.2683  222.8975 H   0  0  0  0  0  0  0  0  0  0  0  0
  137.2778   72.2847  223.7988 H   0  0  0  0  0  0  0  0  0  0  0  0
  139.4411   75.0019  219.1822 H   0  0  0  0  0  0  0  0  0  0  0  0
  138.1913   76.1052  218.5069 H   0  0  0  0  0  0  0  0  0  0  0  0
  141.0064   76.6257  219.3302 H   0  0  0  0  0  0  0  0  0  0  0  0
  139.9991   77.1726  217.8635 H   0  0  0  0  0  0  0  0  0  0  0  0
  1  2  1  0
  2  3  1  0
  3  4  2  0
  3  5  1  0
  5  6  1  0
  6  7  2  0
  7  8  1  0
  8  9  2  0
  9 10  1  0
 10 11  2  0
  5 12  1  0
 12 13  1  0
 13 14  1  0
 14 15  1  0
 15 16  1  0
 16 17  2  0
 16 18  1  0
 18 19  1  0
 18 20  1  0
 20 21  1  0
 21 22  1  0
 22 23  1  0
 23 24  1  0
 24 25  1  0
 25 26  2  0
 26 27  1  0
 27 28  2  0
 28 29  1  0
 29 30  2  0
 24 31  1  0
 31 32  1  0
 15 33  1  0
 33 34  1  0
 11  6  1  0
 34 12  1  0
 32 21  1  0
 30 25  1  0
  1 35  1  0
  1 36  1  0
  1 37  1  0
  2 38  1  0
  2 39  1  0
  7 40  1  0
  8 41  1  0
  9 42  1  0
 10 43  1  0
 11 44  1  0
 12 45  1  0
 13 46  1  0
 13 47  1  0
 14 48  1  0
 14 49  1  0
 18 50  1  6
 19 51  1  0
 19 52  1  0
 20 53  1  0
 20 54  1  0
 22 55  1  0
 22 56  1  0
 23 57  1  0
 23 58  1  0
 26 59  1  0
 27 60  1  0
 28 61  1  0
 29 62  1  0
 30 63  1  0
 31 64  1  0
 31 65  1  0
 32 66  1  0
 32 67  1  0
 33 68  1  0
 33 69  1  0
 34 70  1  0
 34 71  1  0
M  END
>  <smiles>  (15) 
CCC(=O)N(c1ccccc1)C1CCN(C(=O)[C@@H](N)CN2CCN(c3ccccc3)CC2)CC1

>  <score_type>  (15) 
oracle

>  <origin>  (15) 
autodockgpu

>  <m_score__min__energy>  (15) 
-8.5700000000000003

>  <m_primary>  (15) 
energy

>  <rmsd>  (15) 
8.734258546294674

>  <m_score__min__rmsd>  (15) 
8.734258546294674

>  <meeko>  (15) 
{"free_energy": -7.68, "intermolecular_energy": -10.36, "internal_energy": -3.22, "cluster_size": 26, "cluster_id": 3, "rank_in_cluster": 13}

>  <energy>  (15) 
-7.77

>  <cluster_rmsd>  (15) 
0.7

>  <cluster>  (15) 
3

$$$$

     RDKit          3D

 71 74  0  0  0  0  0  0  0  0999 V2000
  136.5960   81.2810  225.5950 C   0  0  0  0  0  0  0  0  0  0  0  0
  137.9380   80.9770  224.9280 C   0  0  0  0  0  0  0  0  0  0  0  0
  137.6140   80.1750  223.7210 C   0  0  0  0  0  0  0  0  0  0  0  0
  136.4020   80.1120  223.3920 O   0  0  0  0  0  0  0  0  0  0  0  0
  138.6590   79.5300  223.0050 N   0  0  0  0  0  0  0  0  0  0  0  0
  140.0080   79.9500  223.1740 C   0  0  0  0  0  0  0  0  0  0  0  0
  140.8990   78.9900  223.6220 C   0  0  0  0  0  0  0  0  0  0  0  0
  142.2420   79.3030  223.8190 C   0  0  0  0  0  0  0  0  0  0  0  0
  142.6810   80.6040  223.5580 C   0  0  0  0  0  0  0  0  0  0  0  0
  141.7710   81.5420  223.1120 C   0  0  0  0  0  0  0  0  0  0  0  0
  140.4290   81.2430  222.9110 C   0  0  0  0  0  0  0  0  0  0  0  0
  138.3050   78.4220  222.0970 C   0  0  0  0  0  0  0  0  0  0  0  0
  138.3170   77.1170  222.8070 C   0  0  0  0  0  0  0  0  0  0  0  0
  138.4440   75.9260  221.9270 C   0  0  0  0  0  0  0  0  0  0  0  0
  139.5390   76.1810  221.0090 N   0  0  0  0  0  0  0  0  0  0  0  0
  140.6650   75.3360  221.1030 C   0  0  0  0  0  0  0  0  0  0  0  0
  140.6400   74.4550  222.0170 O   0  0  0  0  0  0  0  0  0  0  0  0
  141.8600   75.4340  220.1920 C   0  0  1  0  0  0  0  0  0  0  0  0
  142.8050   74.4630  220.7720 N   0  0  0  0  0  0  0  0  0  0  0  0
  141.3680   74.9370  218.8530 C   0  0  0  0  0  0  0  0  0  0  0  0
  141.7080   75.8340  217.8240 N   0  0  0  0  0  0  0  0  0  0  0  0
  140.7500   76.3140  216.9260 C   0  0  0  0  0  0  0  0  0  0  0  0
  140.4770   77.8110  217.0590 C   0  0  0  0  0  0  0  0  0  0  0  0
  141.7420   78.5000  217.3690 N   0  0  0  0  0  0  0  0  0  0  0  0
  141.7540   79.8030  217.9270 C   0  0  0  0  0  0  0  0  0  0  0  0
  141.3950   80.1040  219.2100 C   0  0  0  0  0  0  0  0  0  0  0  0
  141.4140   81.4060  219.7210 C   0  0  0  0  0  0  0  0  0  0  0  0
  141.8120   82.4600  218.9080 C   0  0  0  0  0  0  0  0  0  0  0  0
  142.1810   82.1710  217.5960 C   0  0  0  0  0  0  0  0  0  0  0  0
  142.1490   80.8630  217.1230 C   0  0  0  0  0  0  0  0  0  0  0  0
  142.9390   77.7370  217.0650 C   0  0  0  0  0  0  0  0  0  0  0  0
  142.9030   76.5650  218.0300 C   0  0  0  0  0  0  0  0  0  0  0  0
  139.3900   77.2870  220.0970 C   0  0  0  0  0  0  0  0  0  0  0  0
  139.1090   78.5340  220.8600 C   0  0  0  0  0  0  0  0  0  0  0  0
  136.7154   81.2539  226.6882 H   0  0  0  0  0  0  0  0  0  0  0  0
  136.2520   82.2798  225.2883 H   0  0  0  0  0  0  0  0  0  0  0  0
  135.8552   80.5279  225.2883 H   0  0  0  0  0  0  0  0  0  0  0  0
  138.4451   81.9107  224.6434 H   0  0  0  0  0  0  0  0  0  0  0  0
  138.6149   80.4358  225.6055 H   0  0  0  0  0  0  0  0  0  0  0  0
  140.5428   77.9692  223.8246 H   0  0  0  0  0  0  0  0  0  0  0  0
  142.9469   78.5372  224.1749 H   0  0  0  0  0  0  0  0  0  0  0  0
  143.7363   80.8768  223.7057 H   0  0  0  0  0  0  0  0  0  0  0  0
  142.1217   82.5645  222.9082 H   0  0  0  0  0  0  0  0  0  0  0  0
  139.7239   82.0084  222.5546 H   0  0  0  0  0  0  0  0  0  0  0  0
  137.2609   78.4904  221.7577 H   0  0  0  0  0  0  0  0  0  0  0  0
  139.1658   77.1167  223.5067 H   0  0  0  0  0  0  0  0  0  0  0  0
  137.3407   77.0287  223.3060 H   0  0  0  0  0  0  0  0  0  0  0  0
  138.6602   75.0328  222.5316 H   0  0  0  0  0  0  0  0  0  0  0  0
  137.5085   75.7476  221.3765 H   0  0  0  0  0  0  0  0  0  0  0  0
  142.3127   76.4309  220.0858 H   0  0  0  0  0  0  0  0  0  0  0  0
  142.3410   73.5560  220.9980 H   0  0  0  0  0  0  0  0  0  0  0  0
  143.2200   74.8350  221.6520 H   0  0  0  0  0  0  0  0  0  0  0  0
  141.8253   73.9589  218.6427 H   0  0  0  0  0  0  0  0  0  0  0  0
  140.2721   74.8507  218.8934 H   0  0  0  0  0  0  0  0  0  0  0  0
  141.1027   76.1152  215.9032 H   0  0  0  0  0  0  0  0  0  0  0  0
  139.8076   75.7946  217.1543 H   0  0  0  0  0  0  0  0  0  0  0  0
  140.0679   78.1973  216.1138 H   0  0  0  0  0  0  0  0  0  0  0  0
  139.7489   77.9874  217.8644 H   0  0  0  0  0  0  0  0  0  0  0  0
  141.0764   79.2851  219.8717 H   0  0  0  0  0  0  0  0  0  0  0  0
  141.1149   81.5947  220.7626 H   0  0  0  0  0  0  0  0  0  0  0  0
  141.8351   83.4917  219.2888 H   0  0  0  0  0  0  0  0  0  0  0  0
  142.5006   82.9844  216.9280 H   0  0  0  0  0  0  0  0  0  0  0  0
  142.4451   80.6634  216.0826 H   0  0  0  0  0  0  0  0  0  0  0  0
  142.9196   77.3831  216.0237 H   0  0  0  0  0  0  0  0  0  0  0  0
  143.8544   78.3374  217.1726 H   0  0  0  0  0  0  0  0  0  0  0  0
  143.7700   75.9124  217.8500 H   0  0  0  0  0  0  0  0  0  0  0  0
  142.9381   76.9352  219.0653 H   0  0  0  0  0  0  0  0  0  0  0  0
  140.3183   77.4128  219.5204 H   0  0  0  0  0  0  0  0  0  0  0  0
  138.5537   77.0835  219.4121 H   0  0  0  0  0  0  0  0  0  0  0  0
  140.0783   78.9735  221.1379 H   0  0  0  0  0  0  0  0  0  0  0  0
  138.4891   79.1388  220.1818 H   0  0  0  0  0  0  0  0  0  0  0  0
  1  2  1  0
  2  3  1  0
  3  4  2  0
  3  5  1  0
  5  6  1  0
  6  7  2  0
  7  8  1  0
  8  9  2  0
  9 10  1  0
 10 11  2  0
  5 12  1  0
 12 13  1  0
 13 14  1  0
 14 15  1  0
 15 16  1  0
 16 17  2  0
 16 18  1  0
 18 19  1  0
 18 20  1  0
 20 21  1  0
 21 22  1  0
 22 23  1  0
 23 24  1  0
 24 25  1  0
 25 26  2  0
 26 27  1  0
 27 28  2  0
 28 29  1  0
 29 30  2  0
 24 31  1  0
 31 32  1  0
 15 33  1  0
 33 34  1  0
 11  6  1  0
 34 12  1  0
 32 21  1  0
 30 25  1  0
  1 35  1  0
  1 36  1  0
  1 37  1  0
  2 38  1  0
  2 39  1  0
  7 40  1  0
  8 41  1  0
  9 42  1  0
 10 43  1  0
 11 44  1  0
 12 45  1  0
 13 46  1  0
 13 47  1  0
 14 48  1  0
 14 49  1  0
 18 50  1  6
 19 51  1  0
 19 52  1  0
 20 53  1  0
 20 54  1  0
 22 55  1  0
 22 56  1  0
 23 57  1  0
 23 58  1  0
 26 59  1  0
 27 60  1  0
 28 61  1  0
 29 62  1  0
 30 63  1  0
 31 64  1  0
 31 65  1  0
 32 66  1  0
 32 67  1  0
 33 68  1  0
 33 69  1  0
 34 70  1  0
 34 71  1  0
M  END
>  <smiles>  (16) 
CCC(=O)N(c1ccccc1)C1CCN(C(=O)[C@@H](N)CN2CCN(c3ccccc3)CC2)CC1

>  <score_type>  (16) 
oracle

>  <origin>  (16) 
autodockgpu

>  <m_score__min__energy>  (16) 
-8.5700000000000003

>  <m_primary>  (16) 
energy

>  <rmsd>  (16) 
4.379427934773184

>  <m_score__min__rmsd>  (16) 
4.379427934773184

>  <meeko>  (16) 
{"free_energy": -6.23, "intermolecular_energy": -8.92, "internal_energy": -3.9, "cluster_size": 4, "cluster_id": 10, "rank_in_cluster": 1}

>  <energy>  (16) 
-7.72

>  <cluster_rmsd>  (16) 
1.98

>  <cluster>  (16) 
3

$$$$

     RDKit          3D

 71 74  0  0  0  0  0  0  0  0999 V2000
  139.1190   66.3290  222.3190 C   0  0  0  0  0  0  0  0  0  0  0  0
  138.2290   67.5030  222.7320 C   0  0  0  0  0  0  0  0  0  0  0  0
  138.9260   68.1530  223.8720 C   0  0  0  0  0  0  0  0  0  0  0  0
  139.2100   67.4200  224.8540 O   0  0  0  0  0  0  0  0  0  0  0  0
  139.2370   69.5380  223.8070 N   0  0  0  0  0  0  0  0  0  0  0  0
  139.7620   70.2080  224.9470 C   0  0  0  0  0  0  0  0  0  0  0  0
  139.3630   69.7240  226.1810 C   0  0  0  0  0  0  0  0  0  0  0  0
  139.8220   70.3130  227.3570 C   0  0  0  0  0  0  0  0  0  0  0  0
  140.6930   71.4030  227.2760 C   0  0  0  0  0  0  0  0  0  0  0  0
  141.0740   71.8660  226.0330 C   0  0  0  0  0  0  0  0  0  0  0  0
  140.6250   71.2870  224.8510 C   0  0  0  0  0  0  0  0  0  0  0  0
  139.0030   70.2490  222.5350 C   0  0  0  0  0  0  0  0  0  0  0  0
  140.2770   70.7320  221.9450 C   0  0  0  0  0  0  0  0  0  0  0  0
  140.1330   71.8320  220.9550 C   0  0  0  0  0  0  0  0  0  0  0  0
  139.2650   72.8340  221.5460 N   0  0  0  0  0  0  0  0  0  0  0  0
  139.8280   74.1030  221.7970 C   0  0  0  0  0  0  0  0  0  0  0  0
  141.0600   74.2420  221.5270 O   0  0  0  0  0  0  0  0  0  0  0  0
  139.0510   75.2650  222.3570 C   0  0  1  0  0  0  0  0  0  0  0  0
  140.0750   76.3130  222.5090 N   0  0  0  0  0  0  0  0  0  0  0  0
  138.0830   75.6470  221.2610 C   0  0  0  0  0  0  0  0  0  0  0  0
  137.9240   77.0430  221.1910 N   0  0  0  0  0  0  0  0  0  0  0  0
  137.2220   77.7500  222.1720 C   0  0  0  0  0  0  0  0  0  0  0  0
  138.0970   78.6890  222.9990 C   0  0  0  0  0  0  0  0  0  0  0  0
  139.1200   79.2830  222.1210 N   0  0  0  0  0  0  0  0  0  0  0  0
  140.2950   79.8730  222.6520 C   0  0  0  0  0  0  0  0  0  0  0  0
  140.6310   81.1910  222.5240 C   0  0  0  0  0  0  0  0  0  0  0  0
  141.8040   81.7330  223.0590 C   0  0  0  0  0  0  0  0  0  0  0  0
  142.6870   80.9160  223.7560 C   0  0  0  0  0  0  0  0  0  0  0  0
  142.3590   79.5680  223.8960 C   0  0  0  0  0  0  0  0  0  0  0  0
  141.1830   79.0650  223.3500 C   0  0  0  0  0  0  0  0  0  0  0  0
  138.8230   79.2040  220.7030 C   0  0  0  0  0  0  0  0  0  0  0  0
  138.8700   77.7190  220.3830 C   0  0  0  0  0  0  0  0  0  0  0  0
  137.9120   72.4390  221.8450 C   0  0  0  0  0  0  0  0  0  0  0  0
  137.9200   71.2390  222.7250 C   0  0  0  0  0  0  0  0  0  0  0  0
  139.5014   65.8246  223.2186 H   0  0  0  0  0  0  0  0  0  0  0  0
  138.5320   65.6166  221.7207 H   0  0  0  0  0  0  0  0  0  0  0  0
  139.9635   66.7018  221.7207 H   0  0  0  0  0  0  0  0  0  0  0  0
  138.1157   68.2107  221.8976 H   0  0  0  0  0  0  0  0  0  0  0  0
  137.2187   67.1688  223.0105 H   0  0  0  0  0  0  0  0  0  0  0  0
  138.6768   68.8659  226.2335 H   0  0  0  0  0  0  0  0  0  0  0  0
  139.5033   69.9255  228.3359 H   0  0  0  0  0  0  0  0  0  0  0  0
  141.0696   71.8851  228.1902 H   0  0  0  0  0  0  0  0  0  0  0  0
  141.7585   72.7252  225.9750 H   0  0  0  0  0  0  0  0  0  0  0  0
  140.9448   71.6733  223.8720 H   0  0  0  0  0  0  0  0  0  0  0  0
  138.6276   69.5727  221.7529 H   0  0  0  0  0  0  0  0  0  0  0  0
  140.9178   71.0913  222.7637 H   0  0  0  0  0  0  0  0  0  0  0  0
  140.7054   69.8794  221.3976 H   0  0  0  0  0  0  0  0  0  0  0  0
  141.1173   72.2702  220.7334 H   0  0  0  0  0  0  0  0  0  0  0  0
  139.7076   71.4550  220.0132 H   0  0  0  0  0  0  0  0  0  0  0  0
  138.5108   75.0828  223.2978 H   0  0  0  0  0  0  0  0  0  0  0  0
  139.6670   77.2700  222.4400 H   0  0  0  0  0  0  0  0  0  0  0  0
  140.8040   76.2240  221.7700 H   0  0  0  0  0  0  0  0  0  0  0  0
  138.4675   75.2803  220.2979 H   0  0  0  0  0  0  0  0  0  0  0  0
  137.1056   75.1943  221.4841 H   0  0  0  0  0  0  0  0  0  0  0  0
  136.4423   78.3480  221.6775 H   0  0  0  0  0  0  0  0  0  0  0  0
  136.8046   77.0060  222.8665 H   0  0  0  0  0  0  0  0  0  0  0  0
  137.4756   79.4857  223.4339 H   0  0  0  0  0  0  0  0  0  0  0  0
  138.5824   78.1281  223.8113 H   0  0  0  0  0  0  0  0  0  0  0  0
  139.9480   81.8561  221.9753 H   0  0  0  0  0  0  0  0  0  0  0  0
  142.0273   82.8022  222.9288 H   0  0  0  0  0  0  0  0  0  0  0  0
  143.6160   81.3207  224.1840 H   0  0  0  0  0  0  0  0  0  0  0  0
  143.0366   78.8963  224.4433 H   0  0  0  0  0  0  0  0  0  0  0  0
  140.9497   77.9973  223.4745 H   0  0  0  0  0  0  0  0  0  0  0  0
  137.8248   79.6152  220.4919 H   0  0  0  0  0  0  0  0  0  0  0  0
  139.5331   79.7841  220.0954 H   0  0  0  0  0  0  0  0  0  0  0  0
  138.6271   77.5626  219.3216 H   0  0  0  0  0  0  0  0  0  0  0  0
  139.8780   77.3273  220.5843 H   0  0  0  0  0  0  0  0  0  0  0  0
  137.3954   73.2641  222.3573 H   0  0  0  0  0  0  0  0  0  0  0  0
  137.3883   72.1988  220.9080 H   0  0  0  0  0  0  0  0  0  0  0  0
  137.9801   71.5950  223.7641 H   0  0  0  0  0  0  0  0  0  0  0  0
  137.0004   70.6964  222.4604 H   0  0  0  0  0  0  0  0  0  0  0  0
  1  2  1  0
  2  3  1  0
  3  4  2  0
  3  5  1  0
  5  6  1  0
  6  7  2  0
  7  8  1  0
  8  9  2  0
  9 10  1  0
 10 11  2  0
  5 12  1  0
 12 13  1  0
 13 14  1  0
 14 15  1  0
 15 16  1  0
 16 17  2  0
 16 18  1  0
 18 19  1  0
 18 20  1  0
 20 21  1  0
 21 22  1  0
 22 23  1  0
 23 24  1  0
 24 25  1  0
 25 26  2  0
 26 27  1  0
 27 28  2  0
 28 29  1  0
 29 30  2  0
 24 31  1  0
 31 32  1  0
 15 33  1  0
 33 34  1  0
 11  6  1  0
 34 12  1  0
 32 21  1  0
 30 25  1  0
  1 35  1  0
  1 36  1  0
  1 37  1  0
  2 38  1  0
  2 39  1  0
  7 40  1  0
  8 41  1  0
  9 42  1  0
 10 43  1  0
 11 44  1  0
 12 45  1  0
 13 46  1  0
 13 47  1  0
 14 48  1  0
 14 49  1  0
 18 50  1  1
 19 51  1  0
 19 52  1  0
 20 53  1  0
 20 54  1  0
 22 55  1  0
 22 56  1  0
 23 57  1  0
 23 58  1  0
 26 59  1  0
 27 60  1  0
 28 61  1  0
 29 62  1  0
 30 63  1  0
 31 64  1  0
 31 65  1  0
 32 66  1  0
 32 67  1  0
 33 68  1  0
 33 69  1  0
 34 70  1  0
 34 71  1  0
M  END
>  <smiles>  (17) 
CCC(=O)N(c1ccccc1)C1CCN(C(=O)[C@@H](N)CN2CCN(c3ccccc3)CC2)CC1

>  <score_type>  (17) 
oracle

>  <origin>  (17) 
autodockgpu

>  <m_score__min__energy>  (17) 
-8.5700000000000003

>  <m_primary>  (17) 
energy

>  <rmsd>  (17) 
4.3573135275453

>  <m_score__min__rmsd>  (17) 
4.3573135275453

>  <meeko>  (17) 
{"free_energy": -7.59, "intermolecular_energy": -10.28, "internal_energy": -2.96, "cluster_size": 2, "cluster_id": 7, "rank_in_cluster": 1}

>  <energy>  (17) 
-7.71

>  <cluster_rmsd>  (17) 
0.35

>  <cluster>  (17) 
3

$$$$

     RDKit          3D

 71 74  0  0  0  0  0  0  0  0999 V2000
  142.9310   78.6130  217.8950 C   0  0  0  0  0  0  0  0  0  0  0  0
  142.6660   77.6830  216.7110 C   0  0  0  0  0  0  0  0  0  0  0  0
  143.4250   76.4390  217.0000 C   0  0  0  0  0  0  0  0  0  0  0  0
  144.4790   76.2520  216.3380 O   0  0  0  0  0  0  0  0  0  0  0  0
  142.9440   75.5360  217.9870 N   0  0  0  0  0  0  0  0  0  0  0  0
  143.8580   74.7640  218.7580 C   0  0  0  0  0  0  0  0  0  0  0  0
  144.5280   73.7560  218.0880 C   0  0  0  0  0  0  0  0  0  0  0  0
  145.4430   72.9450  218.7550 C   0  0  0  0  0  0  0  0  0  0  0  0
  145.6770   73.1620  220.1150 C   0  0  0  0  0  0  0  0  0  0  0  0
  144.9950   74.1750  220.7600 C   0  0  0  0  0  0  0  0  0  0  0  0
  144.0800   74.9920  220.1060 C   0  0  0  0  0  0  0  0  0  0  0  0
  141.4860   75.4270  218.1850 C   0  0  0  0  0  0  0  0  0  0  0  0
  141.0380   76.2380  219.3460 C   0  0  0  0  0  0  0  0  0  0  0  0
  139.7220   75.8450  219.9140 C   0  0  0  0  0  0  0  0  0  0  0  0
  139.7410   74.4050  220.0910 N   0  0  0  0  0  0  0  0  0  0  0  0
  139.6470   73.9190  221.4120 C   0  0  0  0  0  0  0  0  0  0  0  0
  139.6010   74.7880  222.3360 O   0  0  0  0  0  0  0  0  0  0  0  0
  139.6000   72.4540  221.7620 C   0  0  1  0  0  0  0  0  0  0  0  0
  140.0470   72.4300  223.1660 N   0  0  0  0  0  0  0  0  0  0  0  0
  138.1370   72.0840  221.6820 C   0  0  0  0  0  0  0  0  0  0  0  0
  137.8580   70.9510  222.4680 N   0  0  0  0  0  0  0  0  0  0  0  0
  138.5200   69.7370  222.2640 C   0  0  0  0  0  0  0  0  0  0  0  0
  139.4330   69.3310  223.4190 C   0  0  0  0  0  0  0  0  0  0  0  0
  138.7990   69.7260  224.6890 N   0  0  0  0  0  0  0  0  0  0  0  0
  139.5520   69.8420  225.8830 C   0  0  0  0  0  0  0  0  0  0  0  0
  139.6430   68.8750  226.8440 C   0  0  0  0  0  0  0  0  0  0  0  0
  140.3930   69.0310  228.0140 C   0  0  0  0  0  0  0  0  0  0  0  0
  141.0880   70.2140  228.2360 C   0  0  0  0  0  0  0  0  0  0  0  0
  141.0060   71.2120  227.2660 C   0  0  0  0  0  0  0  0  0  0  0  0
  140.2490   71.0210  226.1150 C   0  0  0  0  0  0  0  0  0  0  0  0
  137.3730   69.9850  224.6000 C   0  0  0  0  0  0  0  0  0  0  0  0
  137.2610   71.2210  223.7240 C   0  0  0  0  0  0  0  0  0  0  0  0
  139.8750   73.5980  218.9050 C   0  0  0  0  0  0  0  0  0  0  0  0
  141.0980   74.0000  218.1580 C   0  0  0  0  0  0  0  0  0  0  0  0
  142.7744   78.0636  218.8350 H   0  0  0  0  0  0  0  0  0  0  0  0
  143.9684   78.9762  217.8510 H   0  0  0  0  0  0  0  0  0  0  0  0
  142.2409   79.4684  217.8510 H   0  0  0  0  0  0  0  0  0  0  0  0
  141.5910   77.4657  216.6269 H   0  0  0  0  0  0  0  0  0  0  0  0
  142.9785   78.1377  215.7594 H   0  0  0  0  0  0  0  0  0  0  0  0
  144.3361   73.5933  217.0172 H   0  0  0  0  0  0  0  0  0  0  0  0
  145.9739   72.1449  218.2184 H   0  0  0  0  0  0  0  0  0  0  0  0
  146.3944   72.5348  220.6645 H   0  0  0  0  0  0  0  0  0  0  0  0
  145.1828   74.3415  221.8310 H   0  0  0  0  0  0  0  0  0  0  0  0
  143.5497   75.7933  220.6415 H   0  0  0  0  0  0  0  0  0  0  0  0
  140.9261   75.8822  217.3547 H   0  0  0  0  0  0  0  0  0  0  0  0
  141.7940   76.1452  220.1396 H   0  0  0  0  0  0  0  0  0  0  0  0
  140.9190   77.2669  218.9757 H   0  0  0  0  0  0  0  0  0  0  0  0
  139.5670   76.3414  220.8833 H   0  0  0  0  0  0  0  0  0  0  0  0
  138.9033   76.1441  219.2430 H   0  0  0  0  0  0  0  0  0  0  0  0
  140.1993   71.7815  221.1306 H   0  0  0  0  0  0  0  0  0  0  0  0
  139.4930   71.7570  223.7390 H   0  0  0  0  0  0  0  0  0  0  0  0
  139.9480   73.3720  223.5990 H   0  0  0  0  0  0  0  0  0  0  0  0
  137.5323   72.9292  222.0425 H   0  0  0  0  0  0  0  0  0  0  0  0
  137.8917   71.8523  220.6350 H   0  0  0  0  0  0  0  0  0  0  0  0
  137.7649   68.9492  222.1255 H   0  0  0  0  0  0  0  0  0  0  0  0
  139.1608   69.8663  221.3793 H   0  0  0  0  0  0  0  0  0  0  0  0
  139.5844   68.2416  223.4049 H   0  0  0  0  0  0  0  0  0  0  0  0
  140.4077   69.8306  223.3174 H   0  0  0  0  0  0  0  0  0  0  0  0
  139.1013   67.9301  226.6903 H   0  0  0  0  0  0  0  0  0  0  0  0
  140.4328   68.2201  228.7562 H   0  0  0  0  0  0  0  0  0  0  0  0
  141.6844   70.3584  229.1489 H   0  0  0  0  0  0  0  0  0  0  0  0
  141.5452   72.1596  227.4124 H   0  0  0  0  0  0  0  0  0  0  0  0
  140.2008   71.8263  225.3672 H   0  0  0  0  0  0  0  0  0  0  0  0
  136.8519   69.1334  224.1382 H   0  0  0  0  0  0  0  0  0  0  0  0
  136.9136   70.1318  225.5886 H   0  0  0  0  0  0  0  0  0  0  0  0
  136.2008   71.4771  223.5811 H   0  0  0  0  0  0  0  0  0  0  0  0
  137.7744   72.0661  224.2058 H   0  0  0  0  0  0  0  0  0  0  0  0
  139.9532   72.5387  219.1909 H   0  0  0  0  0  0  0  0  0  0  0  0
  138.9931   73.7445  218.2641 H   0  0  0  0  0  0  0  0  0  0  0  0
  141.9389   73.4237  218.5713 H   0  0  0  0  0  0  0  0  0  0  0  0
  140.8567   73.7990  217.1038 H   0  0  0  0  0  0  0  0  0  0  0  0
  1  2  1  0
  2  3  1  0
  3  4  2  0
  3  5  1  0
  5  6  1  0
  6  7  2  0
  7  8  1  0
  8  9  2  0
  9 10  1  0
 10 11  2  0
  5 12  1  0
 12 13  1  0
 13 14  1  0
 14 15  1  0
 15 16  1  0
 16 17  2  0
 16 18  1  0
 18 19  1  0
 18 20  1  0
 20 21  1  0
 21 22  1  0
 22 23  1  0
 23 24  1  0
 24 25  1  0
 25 26  2  0
 26 27  1  0
 27 28  2  0
 28 29  1  0
 29 30  2  0
 24 31  1  0
 31 32  1  0
 15 33  1  0
 33 34  1  0
 11  6  1  0
 34 12  1  0
 32 21  1  0
 30 25  1  0
  1 35  1  0
  1 36  1  0
  1 37  1  0
  2 38  1  0
  2 39  1  0
  7 40  1  0
  8 41  1  0
  9 42  1  0
 10 43  1  0
 11 44  1  0
 12 45  1  0
 13 46  1  0
 13 47  1  0
 14 48  1  0
 14 49  1  0
 18 50  1  6
 19 51  1  0
 19 52  1  0
 20 53  1  0
 20 54  1  0
 22 55  1  0
 22 56  1  0
 23 57  1  0
 23 58  1  0
 26 59  1  0
 27 60  1  0
 28 61  1  0
 29 62  1  0
 30 63  1  0
 31 64  1  0
 31 65  1  0
 32 66  1  0
 32 67  1  0
 33 68  1  0
 33 69  1  0
 34 70  1  0
 34 71  1  0
M  END
>  <smiles>  (18) 
CCC(=O)N(c1ccccc1)C1CCN(C(=O)[C@@H](N)CN2CCN(c3ccccc3)CC2)CC1

>  <score_type>  (18) 
oracle

>  <origin>  (18) 
autodockgpu

>  <m_score__min__energy>  (18) 
-8.5700000000000003

>  <m_primary>  (18) 
energy

>  <rmsd>  (18) 
9.558624345367905

>  <m_score__min__rmsd>  (18) 
9.558624345367905

>  <meeko>  (18) 
{"free_energy": -7.05, "intermolecular_energy": -9.74, "internal_energy": -3.43, "cluster_size": 2, "cluster_id": 9, "rank_in_cluster": 2}

>  <energy>  (18) 
-7.68

>  <cluster_rmsd>  (18) 
0.57

>  <cluster>  (18) 
3

$$$$

     RDKit          3D

 71 74  0  0  0  0  0  0  0  0999 V2000
  142.9020   80.9010  223.9060 C   0  0  0  0  0  0  0  0  0  0  0  0
  142.7940   79.8900  222.7630 C   0  0  0  0  0  0  0  0  0  0  0  0
  141.6400   79.0200  223.1050 C   0  0  0  0  0  0  0  0  0  0  0  0
  141.8290   78.1530  223.9960 O   0  0  0  0  0  0  0  0  0  0  0  0
  140.4020   79.1970  222.4290 N   0  0  0  0  0  0  0  0  0  0  0  0
  139.4360   80.1140  222.9320 C   0  0  0  0  0  0  0  0  0  0  0  0
  138.9130   79.8290  224.1810 C   0  0  0  0  0  0  0  0  0  0  0  0
  137.9610   80.6640  224.7600 C   0  0  0  0  0  0  0  0  0  0  0  0
  137.5380   81.7990  224.0610 C   0  0  0  0  0  0  0  0  0  0  0  0
  138.0770   82.0590  222.8170 C   0  0  0  0  0  0  0  0  0  0  0  0
  139.0280   81.2340  222.2280 C   0  0  0  0  0  0  0  0  0  0  0  0
  140.1550   78.4140  221.2030 C   0  0  0  0  0  0  0  0  0  0  0  0
  138.7000   78.2630  220.9430 C   0  0  0  0  0  0  0  0  0  0  0  0
  138.3380   77.1360  220.0440 C   0  0  0  0  0  0  0  0  0  0  0  0
  139.0430   75.9600  220.5200 N   0  0  0  0  0  0  0  0  0  0  0  0
  138.2570   74.8890  220.9940 C   0  0  0  0  0  0  0  0  0  0  0  0
  137.0000   75.0670  221.0070 O   0  0  0  0  0  0  0  0  0  0  0  0
  138.8290   73.5800  221.4730 C   0  0  1  0  0  0  0  0  0  0  0  0
  139.6100   73.9690  222.6610 N   0  0  0  0  0  0  0  0  0  0  0  0
  137.6290   72.7630  221.8910 C   0  0  0  0  0  0  0  0  0  0  0  0
  138.0230   71.5200  222.4200 N   0  0  0  0  0  0  0  0  0  0  0  0
  139.2660   70.9580  222.1190 C   0  0  0  0  0  0  0  0  0  0  0  0
  140.2100   70.8700  223.3160 C   0  0  0  0  0  0  0  0  0  0  0  0
  139.4240   70.5480  224.5200 N   0  0  0  0  0  0  0  0  0  0  0  0
  139.9370   70.7820  225.8200 C   0  0  0  0  0  0  0  0  0  0  0  0
  139.6730   70.0070  226.9130 C   0  0  0  0  0  0  0  0  0  0  0  0
  140.1950   70.2770  228.1820 C   0  0  0  0  0  0  0  0  0  0  0  0
  141.0220   71.3770  228.3680 C   0  0  0  0  0  0  0  0  0  0  0  0
  141.3020   72.1800  227.2630 C   0  0  0  0  0  0  0  0  0  0  0  0
  140.7640   71.8800  226.0160 C   0  0  0  0  0  0  0  0  0  0  0  0
  138.1100   69.9900  224.2540 C   0  0  0  0  0  0  0  0  0  0  0  0
  137.3390   71.1200  223.5940 C   0  0  0  0  0  0  0  0  0  0  0  0
  140.4830   75.9970  220.4860 C   0  0  0  0  0  0  0  0  0  0  0  0
  140.9740   77.1820  221.2410 C   0  0  0  0  0  0  0  0  0  0  0  0
  142.8456   80.3728  224.8693 H   0  0  0  0  0  0  0  0  0  0  0  0
  143.8621   81.4332  223.8353 H   0  0  0  0  0  0  0  0  0  0  0  0
  142.0760   81.6240  223.8353 H   0  0  0  0  0  0  0  0  0  0  0  0
  142.6151   80.4073  221.8088 H   0  0  0  0  0  0  0  0  0  0  0  0
  143.7205   79.3087  222.6457 H   0  0  0  0  0  0  0  0  0  0  0  0
  139.2528   78.9336  224.7220 H   0  0  0  0  0  0  0  0  0  0  0  0
  137.5475   80.4342  225.7531 H   0  0  0  0  0  0  0  0  0  0  0  0
  136.7868   82.4746  224.4961 H   0  0  0  0  0  0  0  0  0  0  0  0
  137.7411   82.9530  222.2712 H   0  0  0  0  0  0  0  0  0  0  0  0
  139.4427   81.4634  221.2353 H   0  0  0  0  0  0  0  0  0  0  0  0
  140.4963   78.9467  220.3031 H   0  0  0  0  0  0  0  0  0  0  0  0
  138.1951   78.1062  221.9076 H   0  0  0  0  0  0  0  0  0  0  0  0
  138.3818   79.1819  220.4288 H   0  0  0  0  0  0  0  0  0  0  0  0
  137.2522   76.9626  220.0763 H   0  0  0  0  0  0  0  0  0  0  0  0
  138.6166   77.3625  219.0043 H   0  0  0  0  0  0  0  0  0  0  0  0
  139.4388   73.0196  220.7490 H   0  0  0  0  0  0  0  0  0  0  0  0
  139.5770   73.2390  223.4040 H   0  0  0  0  0  0  0  0  0  0  0  0
  139.2410   74.8540  223.0680 H   0  0  0  0  0  0  0  0  0  0  0  0
  137.0658   73.3171  222.6564 H   0  0  0  0  0  0  0  0  0  0  0  0
  137.0023   72.5833  221.0050 H   0  0  0  0  0  0  0  0  0  0  0  0
  139.1022   69.9417  221.7314 H   0  0  0  0  0  0  0  0  0  0  0  0
  139.7454   71.6184  221.3814 H   0  0  0  0  0  0  0  0  0  0  0  0
  140.9566   70.0815  223.1404 H   0  0  0  0  0  0  0  0  0  0  0  0
  140.7276   71.8307  223.4543 H   0  0  0  0  0  0  0  0  0  0  0  0
  139.0200   69.1304  226.7896 H   0  0  0  0  0  0  0  0  0  0  0  0
  139.9513   69.6202  229.0301 H   0  0  0  0  0  0  0  0  0  0  0  0
  141.4436   71.6079  229.3574 H   0  0  0  0  0  0  0  0  0  0  0  0
  141.9540   73.0584  227.3785 H   0  0  0  0  0  0  0  0  0  0  0  0
  141.0003   72.5307  225.1612 H   0  0  0  0  0  0  0  0  0  0  0  0
  138.1851   69.1251  223.5785 H   0  0  0  0  0  0  0  0  0  0  0  0
  137.6178   69.6285  225.1689 H   0  0  0  0  0  0  0  0  0  0  0  0
  136.3284   70.7734  223.3322 H   0  0  0  0  0  0  0  0  0  0  0  0
  137.2604   71.9708  224.2867 H   0  0  0  0  0  0  0  0  0  0  0  0
  140.8829   75.0804  220.9442 H   0  0  0  0  0  0  0  0  0  0  0  0
  140.8203   76.0662  219.4413 H   0  0  0  0  0  0  0  0  0  0  0  0
  141.0677   76.8831  222.2954 H   0  0  0  0  0  0  0  0  0  0  0  0
  141.9133   77.4591  220.7401 H   0  0  0  0  0  0  0  0  0  0  0  0
  1  2  1  0
  2  3  1  0
  3  4  2  0
  3  5  1  0
  5  6  1  0
  6  7  2  0
  7  8  1  0
  8  9  2  0
  9 10  1  0
 10 11  2  0
  5 12  1  0
 12 13  1  0
 13 14  1  0
 14 15  1  0
 15 16  1  0
 16 17  2  0
 16 18  1  0
 18 19  1  0
 18 20  1  0
 20 21  1  0
 21 22  1  0
 22 23  1  0
 23 24  1  0
 24 25  1  0
 25 26  2  0
 26 27  1  0
 27 28  2  0
 28 29  1  0
 29 30  2  0
 24 31  1  0
 31 32  1  0
 15 33  1  0
 33 34  1  0
 11  6  1  0
 34 12  1  0
 32 21  1  0
 30 25  1  0
  1 35  1  0
  1 36  1  0
  1 37  1  0
  2 38  1  0
  2 39  1  0
  7 40  1  0
  8 41  1  0
  9 42  1  0
 10 43  1  0
 11 44  1  0
 12 45  1  0
 13 46  1  0
 13 47  1  0
 14 48  1  0
 14 49  1  0
 18 50  1  6
 19 51  1  0
 19 52  1  0
 20 53  1  0
 20 54  1  0
 22 55  1  0
 22 56  1  0
 23 57  1  0
 23 58  1  0
 26 59  1  0
 27 60  1  0
 28 61  1  0
 29 62  1  0
 30 63  1  0
 31 64  1  0
 31 65  1  0
 32 66  1  0
 32 67  1  0
 33 68  1  0
 33 69  1  0
 34 70  1  0
 34 71  1  0
M  END
>  <smiles>  (19) 
CCC(=O)N(c1ccccc1)C1CCN(C(=O)[C@@H](N)CN2CCN(c3ccccc3)CC2)CC1

>  <score_type>  (19) 
oracle

>  <origin>  (19) 
autodockgpu

>  <m_score__min__energy>  (19) 
-8.5700000000000003

>  <m_primary>  (19) 
energy

>  <rmsd>  (19) 
8.87805564587466

>  <m_score__min__rmsd>  (19) 
8.87805564587466

>  <meeko>  (19) 
{"free_energy": -8.57, "intermolecular_energy": -11.26, "internal_energy": -2.31, "cluster_size": 3, "cluster_id": 1, "rank_in_cluster": 1}

>  <energy>  (19) 
-7.67

>  <cluster_rmsd>  (19) 
0.75

>  <cluster>  (19) 
3

$$$$

     RDKit          3D

 71 74  0  0  0  0  0  0  0  0999 V2000
  141.8450   82.4380  218.5400 C   0  0  0  0  0  0  0  0  0  0  0  0
  141.1990   81.1430  218.0470 C   0  0  0  0  0  0  0  0  0  0  0  0
  141.8040   80.0570  218.8610 C   0  0  0  0  0  0  0  0  0  0  0  0
  142.9160   79.6140  218.4740 O   0  0  0  0  0  0  0  0  0  0  0  0
  141.1210   79.5780  220.0110 N   0  0  0  0  0  0  0  0  0  0  0  0
  141.5740   79.9340  221.3130 C   0  0  0  0  0  0  0  0  0  0  0  0
  141.3920   81.2540  221.6850 C   0  0  0  0  0  0  0  0  0  0  0  0
  141.8020   81.7020  222.9390 C   0  0  0  0  0  0  0  0  0  0  0  0
  142.4020   80.7980  223.8200 C   0  0  0  0  0  0  0  0  0  0  0  0
  142.5710   79.4860  223.4230 C   0  0  0  0  0  0  0  0  0  0  0  0
  142.1660   79.0270  222.1750 C   0  0  0  0  0  0  0  0  0  0  0  0
  139.9410   78.7130  219.8160 C   0  0  0  0  0  0  0  0  0  0  0  0
  139.1970   78.5210  221.0860 C   0  0  0  0  0  0  0  0  0  0  0  0
  138.3050   77.3320  221.1160 C   0  0  0  0  0  0  0  0  0  0  0  0
  139.0750   76.2010  220.6320 N   0  0  0  0  0  0  0  0  0  0  0  0
  139.3120   75.1500  221.5420 C   0  0  0  0  0  0  0  0  0  0  0  0
  138.8700   75.3070  222.7210 O   0  0  0  0  0  0  0  0  0  0  0  0
  140.0470   73.8850  221.1830 C   0  0  1  0  0  0  0  0  0  0  0  0
  140.3180   73.2700  222.4950 N   0  0  0  0  0  0  0  0  0  0  0  0
  139.0400   73.0540  220.4230 C   0  0  0  0  0  0  0  0  0  0  0  0
  138.5970   71.9640  221.1960 N   0  0  0  0  0  0  0  0  0  0  0  0
  139.1990   70.7060  221.0980 C   0  0  0  0  0  0  0  0  0  0  0  0
  139.9410   70.2780  222.3620 C   0  0  0  0  0  0  0  0  0  0  0  0
  139.1890   70.7490  223.5390 N   0  0  0  0  0  0  0  0  0  0  0  0
  139.8020   70.8530  224.8120 C   0  0  0  0  0  0  0  0  0  0  0  0
  140.7360   71.7900  225.1530 C   0  0  0  0  0  0  0  0  0  0  0  0
  141.3220   71.8550  226.4210 C   0  0  0  0  0  0  0  0  0  0  0  0
  140.9580   70.9360  227.3980 C   0  0  0  0  0  0  0  0  0  0  0  0
  140.0070   69.9720  227.0660 C   0  0  0  0  0  0  0  0  0  0  0  0
  139.4450   69.9390  225.7950 C   0  0  0  0  0  0  0  0  0  0  0  0
  137.8030   71.0920  223.2750 C   0  0  0  0  0  0  0  0  0  0  0  0
  137.8750   72.3070  222.3640 C   0  0  0  0  0  0  0  0  0  0  0  0
  139.5480   76.2610  219.2730 C   0  0  0  0  0  0  0  0  0  0  0  0
  140.3470   77.5010  219.0710 C   0  0  0  0  0  0  0  0  0  0  0  0
  141.8507   82.4493  219.6399 H   0  0  0  0  0  0  0  0  0  0  0  0
  142.8783   82.4973  218.1674 H   0  0  0  0  0  0  0  0  0  0  0  0
  141.2709   83.2991  218.1674 H   0  0  0  0  0  0  0  0  0  0  0  0
  140.1101   81.1754  218.1993 H   0  0  0  0  0  0  0  0  0  0  0  0
  141.3699   80.9877  216.9715 H   0  0  0  0  0  0  0  0  0  0  0  0
  140.9188   81.9570  220.9837 H   0  0  0  0  0  0  0  0  0  0  0  0
  141.6556   82.7523  223.2315 H   0  0  0  0  0  0  0  0  0  0  0  0
  142.7349   81.1268  224.8155 H   0  0  0  0  0  0  0  0  0  0  0  0
  143.0435   78.7783  224.1200 H   0  0  0  0  0  0  0  0  0  0  0  0
  142.3113   77.9768  221.8818 H   0  0  0  0  0  0  0  0  0  0  0  0
  139.1847   79.1918  219.1766 H   0  0  0  0  0  0  0  0  0  0  0  0
  139.9304   78.4184  221.8994 H   0  0  0  0  0  0  0  0  0  0  0  0
  138.5439   79.3992  221.1964 H   0  0  0  0  0  0  0  0  0  0  0  0
  137.9647   77.1428  222.1448 H   0  0  0  0  0  0  0  0  0  0  0  0
  137.4173   77.4958  220.4873 H   0  0  0  0  0  0  0  0  0  0  0  0
  140.9661   74.0058  220.5909 H   0  0  0  0  0  0  0  0  0  0  0  0
  140.4010   72.2330  222.4280 H   0  0  0  0  0  0  0  0  0  0  0  0
  139.5520   73.4850  223.1660 H   0  0  0  0  0  0  0  0  0  0  0  0
  138.1769   73.6844  220.1628 H   0  0  0  0  0  0  0  0  0  0  0  0
  139.5222   72.6651  219.5140 H   0  0  0  0  0  0  0  0  0  0  0  0
  138.4164   69.9625  220.8867 H   0  0  0  0  0  0  0  0  0  0  0  0
  139.9467   70.7703  220.2937 H   0  0  0  0  0  0  0  0  0  0  0  0
  140.0213   69.1813  222.3897 H   0  0  0  0  0  0  0  0  0  0  0  0
  140.9514   70.7127  222.3666 H   0  0  0  0  0  0  0  0  0  0  0  0
  141.0410   72.5270  224.3955 H   0  0  0  0  0  0  0  0  0  0  0  0
  142.0688   72.6311  226.6445 H   0  0  0  0  0  0  0  0  0  0  0  0
  141.4063   70.9682  228.4020 H   0  0  0  0  0  0  0  0  0  0  0  0
  139.6984   69.2302  227.8173 H   0  0  0  0  0  0  0  0  0  0  0  0
  138.6966   69.1675  225.5612 H   0  0  0  0  0  0  0  0  0  0  0  0
  137.2861   70.2607  222.7733 H   0  0  0  0  0  0  0  0  0  0  0  0
  137.2407   71.2958  224.1982 H   0  0  0  0  0  0  0  0  0  0  0  0
  136.8578   72.6231  222.0895 H   0  0  0  0  0  0  0  0  0  0  0  0
  138.3811   73.1331  222.8850 H   0  0  0  0  0  0  0  0  0  0  0  0
  140.1778   75.3831  219.0665 H   0  0  0  0  0  0  0  0  0  0  0  0
  138.6867   76.2686  218.5888 H   0  0  0  0  0  0  0  0  0  0  0  0
  141.3845   77.2728  219.3565 H   0  0  0  0  0  0  0  0  0  0  0  0
  140.1916   77.7611  218.0136 H   0  0  0  0  0  0  0  0  0  0  0  0
  1  2  1  0
  2  3  1  0
  3  4  2  0
  3  5  1  0
  5  6  1  0
  6  7  2  0
  7  8  1  0
  8  9  2  0
  9 10  1  0
 10 11  2  0
  5 12  1  0
 12 13  1  0
 13 14  1  0
 14 15  1  0
 15 16  1  0
 16 17  2  0
 16 18  1  0
 18 19  1  0
 18 20  1  0
 20 21  1  0
 21 22  1  0
 22 23  1  0
 23 24  1  0
 24 25  1  0
 25 26  2  0
 26 27  1  0
 27 28  2  0
 28 29  1  0
 29 30  2  0
 24 31  1  0
 31 32  1  0
 15 33  1  0
 33 34  1  0
 11  6  1  0
 34 12  1  0
 32 21  1  0
 30 25  1  0
  1 35  1  0
  1 36  1  0
  1 37  1  0
  2 38  1  0
  2 39  1  0
  7 40  1  0
  8 41  1  0
  9 42  1  0
 10 43  1  0
 11 44  1  0
 12 45  1  0
 13 46  1  0
 13 47  1  0
 14 48  1  0
 14 49  1  0
 18 50  1  6
 19 51  1  0
 19 52  1  0
 20 53  1  0
 20 54  1  0
 22 55  1  0
 22 56  1  0
 23 57  1  0
 23 58  1  0
 26 59  1  0
 27 60  1  0
 28 61  1  0
 29 62  1  0
 30 63  1  0
 31 64  1  0
 31 65  1  0
 32 66  1  0
 32 67  1  0
 33 68  1  0
 33 69  1  0
 34 70  1  0
 34 71  1  0
M  END
>  <smiles>  (20) 
CCC(=O)N(c1ccccc1)C1CCN(C(=O)[C@@H](N)CN2CCN(c3ccccc3)CC2)CC1

>  <score_type>  (20) 
oracle

>  <origin>  (20) 
autodockgpu

>  <m_score__min__energy>  (20) 
-8.5700000000000003

>  <m_primary>  (20) 
energy

>  <rmsd>  (20) 
8.49459309849612

>  <m_score__min__rmsd>  (20) 
8.49459309849612

>  <meeko>  (20) 
{"free_energy": -7.4, "intermolecular_energy": -10.08, "internal_energy": -2.94, "cluster_size": 26, "cluster_id": 3, "rank_in_cluster": 17}

>  <energy>  (20) 
-7.65

>  <cluster_rmsd>  (20) 
0.46

>  <cluster>  (20) 
3

$$$$

     RDKit          3D

 71 74  0  0  0  0  0  0  0  0999 V2000
  136.4070   78.6430  222.7420 C   0  0  0  0  0  0  0  0  0  0  0  0
  137.8260   79.1300  223.0380 C   0  0  0  0  0  0  0  0  0  0  0  0
  138.7120   77.9670  222.7780 C   0  0  0  0  0  0  0  0  0  0  0  0
  138.2420   76.8290  223.0360 O   0  0  0  0  0  0  0  0  0  0  0  0
  140.0190   78.1810  222.2620 N   0  0  0  0  0  0  0  0  0  0  0  0
  140.7910   79.2910  222.7050 C   0  0  0  0  0  0  0  0  0  0  0  0
  141.7520   79.0250  223.6660 C   0  0  0  0  0  0  0  0  0  0  0  0
  142.5580   80.0450  224.1650 C   0  0  0  0  0  0  0  0  0  0  0  0
  142.3850   81.3450  223.6830 C   0  0  0  0  0  0  0  0  0  0  0  0
  141.4200   81.5820  222.7250 C   0  0  0  0  0  0  0  0  0  0  0  0
  140.6080   80.5740  222.2180 C   0  0  0  0  0  0  0  0  0  0  0  0
  140.5440   77.2260  221.2670 C   0  0  0  0  0  0  0  0  0  0  0  0
  139.5420   76.9450  220.2070 C   0  0  0  0  0  0  0  0  0  0  0  0
  139.7660   75.6870  219.4490 C   0  0  0  0  0  0  0  0  0  0  0  0
  140.0030   74.6340  220.4200 N   0  0  0  0  0  0  0  0  0  0  0  0
  139.0600   73.5870  220.4740 C   0  0  0  0  0  0  0  0  0  0  0  0
  138.0590   73.6820  219.6980 O   0  0  0  0  0  0  0  0  0  0  0  0
  139.1860   72.3950  221.3860 C   0  0  1  0  0  0  0  0  0  0  0  0
  139.4460   73.0050  222.7020 N   0  0  0  0  0  0  0  0  0  0  0  0
  137.8170   71.7540  221.3770 C   0  0  0  0  0  0  0  0  0  0  0  0
  137.7400   70.7130  222.3200 N   0  0  0  0  0  0  0  0  0  0  0  0
  138.5810   69.5990  222.2510 C   0  0  0  0  0  0  0  0  0  0  0  0
  139.5740   69.5030  223.4070 C   0  0  0  0  0  0  0  0  0  0  0  0
  138.9150   69.9690  224.6400 N   0  0  0  0  0  0  0  0  0  0  0  0
  139.6680   70.3650  225.7730 C   0  0  0  0  0  0  0  0  0  0  0  0
  139.6630   69.7180  226.9770 C   0  0  0  0  0  0  0  0  0  0  0  0
  140.4170   70.1460  228.0740 C   0  0  0  0  0  0  0  0  0  0  0  0
  141.2170   71.2770  227.9640 C   0  0  0  0  0  0  0  0  0  0  0  0
  141.2340   71.9490  226.7430 C   0  0  0  0  0  0  0  0  0  0  0  0
  140.4700   71.4940  225.6730 C   0  0  0  0  0  0  0  0  0  0  0  0
  137.4650   69.9900  224.5820 C   0  0  0  0  0  0  0  0  0  0  0  0
  137.1370   71.0600  223.5540 C   0  0  0  0  0  0  0  0  0  0  0  0
  141.1680   74.7620  221.2580 C   0  0  0  0  0  0  0  0  0  0  0  0
  141.1350   76.0670  221.9720 C   0  0  0  0  0  0  0  0  0  0  0  0
  135.8769   78.4611  223.6885 H   0  0  0  0  0  0  0  0  0  0  0  0
  135.8701   79.4083  222.1623 H   0  0  0  0  0  0  0  0  0  0  0  0
  136.4532   77.7093  222.1623 H   0  0  0  0  0  0  0  0  0  0  0  0
  138.0896   79.9685  222.3766 H   0  0  0  0  0  0  0  0  0  0  0  0
  137.9238   79.4919  224.0722 H   0  0  0  0  0  0  0  0  0  0  0  0
  141.8799   77.9980  224.0388 H   0  0  0  0  0  0  0  0  0  0  0  0
  143.3205   79.8302  224.9282 H   0  0  0  0  0  0  0  0  0  0  0  0
  143.0090   82.1679  224.0617 H   0  0  0  0  0  0  0  0  0  0  0  0
  141.2885   82.6072  222.3485 H   0  0  0  0  0  0  0  0  0  0  0  0
  139.8452   80.7887  221.4550 H   0  0  0  0  0  0  0  0  0  0  0  0
  141.3765   77.6552  220.6902 H   0  0  0  0  0  0  0  0  0  0  0  0
  138.5512   76.8860  220.6811 H   0  0  0  0  0  0  0  0  0  0  0  0
  139.6288   77.7634  219.4771 H   0  0  0  0  0  0  0  0  0  0  0  0
  138.8785   75.4487  218.8445 H   0  0  0  0  0  0  0  0  0  0  0  0
  140.6244   75.7898  218.7689 H   0  0  0  0  0  0  0  0  0  0  0  0
  139.9554   71.6554  221.1195 H   0  0  0  0  0  0  0  0  0  0  0  0
  138.9710   72.4860  223.4720 H   0  0  0  0  0  0  0  0  0  0  0  0
  139.1030   73.9890  222.7240 H   0  0  0  0  0  0  0  0  0  0  0  0
  137.0618   72.5159  221.6202 H   0  0  0  0  0  0  0  0  0  0  0  0
  137.6339   71.3342  220.3769 H   0  0  0  0  0  0  0  0  0  0  0  0
  137.9572   68.6930  222.2537 H   0  0  0  0  0  0  0  0  0  0  0  0
  139.1721   69.7009  221.3289 H   0  0  0  0  0  0  0  0  0  0  0  0
  139.8958   68.4586  223.5320 H   0  0  0  0  0  0  0  0  0  0  0  0
  140.4548   70.1271  223.1955 H   0  0  0  0  0  0  0  0  0  0  0  0
  139.0375   68.8200  227.0880 H   0  0  0  0  0  0  0  0  0  0  0  0
  140.3771   69.5889  229.0217 H   0  0  0  0  0  0  0  0  0  0  0  0
  141.8183   71.6310  228.8144 H   0  0  0  0  0  0  0  0  0  0  0  0
  141.8573   72.8475  226.6243 H   0  0  0  0  0  0  0  0  0  0  0  0
  140.5022   72.0442  224.7210 H   0  0  0  0  0  0  0  0  0  0  0  0
  137.0751   69.0123  224.2625 H   0  0  0  0  0  0  0  0  0  0  0  0
  137.0117   70.2006  225.5619 H   0  0  0  0  0  0  0  0  0  0  0  0
  136.0465   71.1267  223.4259 H   0  0  0  0  0  0  0  0  0  0  0  0
  137.5202   72.0332  223.8947 H   0  0  0  0  0  0  0  0  0  0  0  0
  141.1806   73.9438  221.9931 H   0  0  0  0  0  0  0  0  0  0  0  0
  142.0719   74.7130  220.6330 H   0  0  0  0  0  0  0  0  0  0  0  0
  140.5608   75.9193  222.8985 H   0  0  0  0  0  0  0  0  0  0  0  0
  142.1933   76.3354  222.1062 H   0  0  0  0  0  0  0  0  0  0  0  0
  1  2  1  0
  2  3  1  0
  3  4  2  0
  3  5  1  0
  5  6  1  0
  6  7  2  0
  7  8  1  0
  8  9  2  0
  9 10  1  0
 10 11  2  0
  5 12  1  0
 12 13  1  0
 13 14  1  0
 14 15  1  0
 15 16  1  0
 16 17  2  0
 16 18  1  0
 18 19  1  0
 18 20  1  0
 20 21  1  0
 21 22  1  0
 22 23  1  0
 23 24  1  0
 24 25  1  0
 25 26  2  0
 26 27  1  0
 27 28  2  0
 28 29  1  0
 29 30  2  0
 24 31  1  0
 31 32  1  0
 15 33  1  0
 33 34  1  0
 11  6  1  0
 34 12  1  0
 32 21  1  0
 30 25  1  0
  1 35  1  0
  1 36  1  0
  1 37  1  0
  2 38  1  0
  2 39  1  0
  7 40  1  0
  8 41  1  0
  9 42  1  0
 10 43  1  0
 11 44  1  0
 12 45  1  0
 13 46  1  0
 13 47  1  0
 14 48  1  0
 14 49  1  0
 18 50  1  6
 19 51  1  0
 19 52  1  0
 20 53  1  0
 20 54  1  0
 22 55  1  0
 22 56  1  0
 23 57  1  0
 23 58  1  0
 26 59  1  0
 27 60  1  0
 28 61  1  0
 29 62  1  0
 30 63  1  0
 31 64  1  0
 31 65  1  0
 32 66  1  0
 32 67  1  0
 33 68  1  0
 33 69  1  0
 34 70  1  0
 34 71  1  0
M  END
>  <smiles>  (21) 
CCC(=O)N(c1ccccc1)C1CCN(C(=O)[C@@H](N)CN2CCN(c3ccccc3)CC2)CC1

>  <score_type>  (21) 
oracle

>  <origin>  (21) 
autodockgpu

>  <m_score__min__energy>  (21) 
-8.5700000000000003

>  <m_primary>  (21) 
energy

>  <rmsd>  (21) 
9.107846532734

>  <m_score__min__rmsd>  (21) 
9.107846532734

>  <meeko>  (21) 
{"free_energy": -8.1, "intermolecular_energy": -10.79, "internal_energy": -2.52, "cluster_size": 3, "cluster_id": 1, "rank_in_cluster": 2}

>  <energy>  (21) 
-7.44

>  <cluster_rmsd>  (21) 
0.97

>  <cluster>  (21) 
3

$$$$

     RDKit          3D

 71 74  0  0  0  0  0  0  0  0999 V2000
  142.4990   80.8260  217.9860 C   0  0  0  0  0  0  0  0  0  0  0  0
  142.5780   79.3080  218.1560 C   0  0  0  0  0  0  0  0  0  0  0  0
  141.4180   78.9390  219.0080 C   0  0  0  0  0  0  0  0  0  0  0  0
  140.3060   78.8220  218.4300 O   0  0  0  0  0  0  0  0  0  0  0  0
  141.6060   78.7370  220.4020 N   0  0  0  0  0  0  0  0  0  0  0  0
  141.6320   79.8490  221.2900 C   0  0  0  0  0  0  0  0  0  0  0  0
  142.3960   79.7020  222.4340 C   0  0  0  0  0  0  0  0  0  0  0  0
  142.4860   80.7330  223.3660 C   0  0  0  0  0  0  0  0  0  0  0  0
  141.7920   81.9230  223.1310 C   0  0  0  0  0  0  0  0  0  0  0  0
  141.0370   82.0430  221.9810 C   0  0  0  0  0  0  0  0  0  0  0  0
  140.9390   81.0220  221.0430 C   0  0  0  0  0  0  0  0  0  0  0  0
  141.7670   77.3540  220.8940 C   0  0  0  0  0  0  0  0  0  0  0  0
  142.0240   76.4110  219.7760 C   0  0  0  0  0  0  0  0  0  0  0  0
  141.7360   74.9850  220.0820 C   0  0  0  0  0  0  0  0  0  0  0  0
  140.4210   74.9310  220.6940 N   0  0  0  0  0  0  0  0  0  0  0  0
  139.4140   74.2370  219.9930 C   0  0  0  0  0  0  0  0  0  0  0  0
  139.7350   73.7590  218.8610 O   0  0  0  0  0  0  0  0  0  0  0  0
  138.0140   74.0440  220.5140 C   0  0  1  0  0  0  0  0  0  0  0  0
  137.5360   72.8680  219.7670 N   0  0  0  0  0  0  0  0  0  0  0  0
  138.1890   73.6910  221.9730 C   0  0  0  0  0  0  0  0  0  0  0  0
  138.6120   72.3580  222.1240 N   0  0  0  0  0  0  0  0  0  0  0  0
  139.9270   71.9730  221.8500 C   0  0  0  0  0  0  0  0  0  0  0  0
  140.7080   71.5250  223.0830 C   0  0  0  0  0  0  0  0  0  0  0  0
  139.8000   70.7930  223.9820 N   0  0  0  0  0  0  0  0  0  0  0  0
  140.1160   70.5990  225.3500 C   0  0  0  0  0  0  0  0  0  0  0  0
  140.6730   71.5460  226.1630 C   0  0  0  0  0  0  0  0  0  0  0  0
  140.9760   71.3120  227.5080 C   0  0  0  0  0  0  0  0  0  0  0  0
  140.7080   70.0700  228.0700 C   0  0  0  0  0  0  0  0  0  0  0  0
  140.1390   69.0920  227.2550 C   0  0  0  0  0  0  0  0  0  0  0  0
  139.8530   69.3610  225.9210 C   0  0  0  0  0  0  0  0  0  0  0  0
  138.5840   70.3090  223.3540 C   0  0  0  0  0  0  0  0  0  0  0  0
  137.8150   71.5660  222.9860 C   0  0  0  0  0  0  0  0  0  0  0  0
  140.2550   75.6090  221.9550 C   0  0  0  0  0  0  0  0  0  0  0  0
  140.6550   77.0360  221.8160 C   0  0  0  0  0  0  0  0  0  0  0  0
  142.4741   81.3050  218.9759 H   0  0  0  0  0  0  0  0  0  0  0  0
  143.3800   81.1790  217.4299 H   0  0  0  0  0  0  0  0  0  0  0  0
  141.5861   81.0857  217.4299 H   0  0  0  0  0  0  0  0  0  0  0  0
  142.5104   78.8083  217.1784 H   0  0  0  0  0  0  0  0  0  0  0  0
  143.5308   78.9990  218.6106 H   0  0  0  0  0  0  0  0  0  0  0  0
  142.9380   78.7610  222.6093 H   0  0  0  0  0  0  0  0  0  0  0  0
  143.0947   80.6123  224.2742 H   0  0  0  0  0  0  0  0  0  0  0  0
  141.8464   82.7522  223.8517 H   0  0  0  0  0  0  0  0  0  0  0  0
  140.4928   82.9818  221.8005 H   0  0  0  0  0  0  0  0  0  0  0  0
  140.3309   81.1419  220.1343 H   0  0  0  0  0  0  0  0  0  0  0  0
  142.6748   77.2398  221.5047 H   0  0  0  0  0  0  0  0  0  0  0  0
  141.3961   76.7114  218.9243 H   0  0  0  0  0  0  0  0  0  0  0  0
  143.1018   76.4698  219.5641 H   0  0  0  0  0  0  0  0  0  0  0  0
  141.7444   74.3922  219.1554 H   0  0  0  0  0  0  0  0  0  0  0  0
  142.4976   74.5709  220.7592 H   0  0  0  0  0  0  0  0  0  0  0  0
  137.3314   74.9000  220.4076 H   0  0  0  0  0  0  0  0  0  0  0  0
  138.0040   71.9900  220.0810 H   0  0  0  0  0  0  0  0  0  0  0  0
  137.7220   72.9790  218.7480 H   0  0  0  0  0  0  0  0  0  0  0  0
  138.9417   74.3593  222.4166 H   0  0  0  0  0  0  0  0  0  0  0  0
  137.2200   73.8098  222.4800 H   0  0  0  0  0  0  0  0  0  0  0  0
  139.9019   71.1388  221.1335 H   0  0  0  0  0  0  0  0  0  0  0  0
  140.4426   72.8578  221.4485 H   0  0  0  0  0  0  0  0  0  0  0  0
  141.5349   70.8671  222.7775 H   0  0  0  0  0  0  0  0  0  0  0  0
  141.1200   72.4026  223.6027 H   0  0  0  0  0  0  0  0  0  0  0  0
  140.8930   72.5373  225.7401 H   0  0  0  0  0  0  0  0  0  0  0  0
  141.4251   72.1088  228.1191 H   0  0  0  0  0  0  0  0  0  0  0  0
  140.9377   69.8644  229.1259 H   0  0  0  0  0  0  0  0  0  0  0  0
  139.9144   68.0988  227.6711 H   0  0  0  0  0  0  0  0  0  0  0  0
  139.4057   68.5705  225.3005 H   0  0  0  0  0  0  0  0  0  0  0  0
  138.8192   69.7207  222.4548 H   0  0  0  0  0  0  0  0  0  0  0  0
  138.0076   69.6470  224.0170 H   0  0  0  0  0  0  0  0  0  0  0  0
  136.8807   71.2905  222.4750 H   0  0  0  0  0  0  0  0  0  0  0  0
  137.5743   72.1345  223.8964 H   0  0  0  0  0  0  0  0  0  0  0  0
  139.2006   75.5536  222.2635 H   0  0  0  0  0  0  0  0  0  0  0  0
  140.8887   75.1261  222.7135 H   0  0  0  0  0  0  0  0  0  0  0  0
  139.7717   77.5920  221.4687 H   0  0  0  0  0  0  0  0  0  0  0  0
  141.0314   77.3163  222.8109 H   0  0  0  0  0  0  0  0  0  0  0  0
  1  2  1  0
  2  3  1  0
  3  4  2  0
  3  5  1  0
  5  6  1  0
  6  7  2  0
  7  8  1  0
  8  9  2  0
  9 10  1  0
 10 11  2  0
  5 12  1  0
 12 13  1  0
 13 14  1  0
 14 15  1  0
 15 16  1  0
 16 17  2  0
 16 18  1  0
 18 19  1  0
 18 20  1  0
 20 21  1  0
 21 22  1  0
 22 23  1  0
 23 24  1  0
 24 25  1  0
 25 26  2  0
 26 27  1  0
 27 28  2  0
 28 29  1  0
 29 30  2  0
 24 31  1  0
 31 32  1  0
 15 33  1  0
 33 34  1  0
 11  6  1  0
 34 12  1  0
 32 21  1  0
 30 25  1  0
  1 35  1  0
  1 36  1  0
  1 37  1  0
  2 38  1  0
  2 39  1  0
  7 40  1  0
  8 41  1  0
  9 42  1  0
 10 43  1  0
 11 44  1  0
 12 45  1  0
 13 46  1  0
 13 47  1  0
 14 48  1  0
 14 49  1  0
 18 50  1  1
 19 51  1  0
 19 52  1  0
 20 53  1  0
 20 54  1  0
 22 55  1  0
 22 56  1  0
 23 57  1  0
 23 58  1  0
 26 59  1  0
 27 60  1  0
 28 61  1  0
 29 62  1  0
 30 63  1  0
 31 64  1  0
 31 65  1  0
 32 66  1  0
 32 67  1  0
 33 68  1  0
 33 69  1  0
 34 70  1  0
 34 71  1  0
M  END
>  <smiles>  (22) 
CCC(=O)N(c1ccccc1)C1CCN(C(=O)[C@@H](N)CN2CCN(c3ccccc3)CC2)CC1

>  <score_type>  (22) 
oracle

>  <origin>  (22) 
autodockgpu

>  <m_score__min__energy>  (22) 
-8.5700000000000003

>  <m_primary>  (22) 
energy

>  <rmsd>  (22) 
8.83491075374735

>  <m_score__min__rmsd>  (22) 
8.83491075374735

>  <meeko>  (22) 
{"free_energy": -7.12, "intermolecular_energy": -9.81, "internal_energy": -2.99, "cluster_size": 26, "cluster_id": 3, "rank_in_cluster": 26}

>  <energy>  (22) 
-7.4

>  <cluster_rmsd>  (22) 
0.77

>  <cluster>  (22) 
3

$$$$

     RDKit          3D

 71 74  0  0  0  0  0  0  0  0999 V2000
  136.6390   76.6520  222.6020 C   0  0  0  0  0  0  0  0  0  0  0  0
  138.0870   76.6700  223.0940 C   0  0  0  0  0  0  0  0  0  0  0  0
  138.5870   78.0410  222.8180 C   0  0  0  0  0  0  0  0  0  0  0  0
  137.7880   78.9890  223.0310 O   0  0  0  0  0  0  0  0  0  0  0  0
  139.9130   78.2220  222.3390 N   0  0  0  0  0  0  0  0  0  0  0  0
  140.7310   79.2590  222.8690 C   0  0  0  0  0  0  0  0  0  0  0  0
  140.4490   80.5440  222.4390 C   0  0  0  0  0  0  0  0  0  0  0  0
  141.1930   81.6270  222.9000 C   0  0  0  0  0  0  0  0  0  0  0  0
  142.2340   81.4000  223.8040 C   0  0  0  0  0  0  0  0  0  0  0  0
  142.4950   80.1090  224.2170 C   0  0  0  0  0  0  0  0  0  0  0  0
  141.7590   79.0190  223.7660 C   0  0  0  0  0  0  0  0  0  0  0  0
  140.4090   77.3090  221.2910 C   0  0  0  0  0  0  0  0  0  0  0  0
  139.3510   77.0060  220.2940 C   0  0  0  0  0  0  0  0  0  0  0  0
  139.5760   75.7730  219.4960 C   0  0  0  0  0  0  0  0  0  0  0  0
  139.9230   74.7130  220.4260 N   0  0  0  0  0  0  0  0  0  0  0  0
  139.0300   73.6250  220.5200 C   0  0  0  0  0  0  0  0  0  0  0  0
  137.9760   73.6910  219.8150 O   0  0  0  0  0  0  0  0  0  0  0  0
  139.2680   72.4230  221.3960 C   0  0  1  0  0  0  0  0  0  0  0  0
  139.5150   73.0160  222.7210 N   0  0  0  0  0  0  0  0  0  0  0  0
  137.9520   71.6810  221.4000 C   0  0  0  0  0  0  0  0  0  0  0  0
  137.9320   70.6900  222.3990 N   0  0  0  0  0  0  0  0  0  0  0  0
  138.8420   69.6290  222.3940 C   0  0  0  0  0  0  0  0  0  0  0  0
  139.8310   69.6580  223.5570 C   0  0  0  0  0  0  0  0  0  0  0  0
  139.1360   70.1490  224.7600 N   0  0  0  0  0  0  0  0  0  0  0  0
  139.8560   70.6520  225.8720 C   0  0  0  0  0  0  0  0  0  0  0  0
  140.7160   71.7130  225.8290 C   0  0  0  0  0  0  0  0  0  0  0  0
  141.4130   72.1750  226.9500 C   0  0  0  0  0  0  0  0  0  0  0  0
  141.2420   71.5450  228.1770 C   0  0  0  0  0  0  0  0  0  0  0  0
  140.3690   70.4610  228.2390 C   0  0  0  0  0  0  0  0  0  0  0  0
  139.6930   70.0290  227.1030 C   0  0  0  0  0  0  0  0  0  0  0  0
  137.6880   70.0770  224.6970 C   0  0  0  0  0  0  0  0  0  0  0  0
  137.3020   71.0660  223.6100 C   0  0  0  0  0  0  0  0  0  0  0  0
  141.1360   74.8760  221.1860 C   0  0  0  0  0  0  0  0  0  0  0  0
  141.0950   76.1650  221.9290 C   0  0  0  0  0  0  0  0  0  0  0  0
  135.9583   76.6435  223.4660 H   0  0  0  0  0  0  0  0  0  0  0  0
  136.4475   77.5478  221.9931 H   0  0  0  0  0  0  0  0  0  0  0  0
  136.4698   75.7517  221.9931 H   0  0  0  0  0  0  0  0  0  0  0  0
  138.1286   76.4562  224.1722 H   0  0  0  0  0  0  0  0  0  0  0  0
  138.6970   75.9058  222.5902 H   0  0  0  0  0  0  0  0  0  0  0  0
  139.6286   80.7115  221.7256 H   0  0  0  0  0  0  0  0  0  0  0  0
  140.9644   82.6470  222.5573 H   0  0  0  0  0  0  0  0  0  0  0  0
  142.8373   82.2387  224.1814 H   0  0  0  0  0  0  0  0  0  0  0  0
  143.3154   79.9362  224.9291 H   0  0  0  0  0  0  0  0  0  0  0  0
  141.9857   77.9992  224.1103 H   0  0  0  0  0  0  0  0  0  0  0  0
  141.1822   77.7839  220.6691 H   0  0  0  0  0  0  0  0  0  0  0  0
  138.3973   76.8958  220.8310 H   0  0  0  0  0  0  0  0  0  0  0  0
  139.3545   77.8410  219.5780 H   0  0  0  0  0  0  0  0  0  0  0  0
  138.6602   75.5075  218.9475 H   0  0  0  0  0  0  0  0  0  0  0  0
  140.3812   75.9259  218.7623 H   0  0  0  0  0  0  0  0  0  0  0  0
  140.0840   71.7508  221.0920 H   0  0  0  0  0  0  0  0  0  0  0  0
  139.0760   72.4580  223.4850 H   0  0  0  0  0  0  0  0  0  0  0  0
  139.1240   73.9810  222.7700 H   0  0  0  0  0  0  0  0  0  0  0  0
  137.1371   72.3959  221.5868 H   0  0  0  0  0  0  0  0  0  0  0  0
  137.8226   71.1940  220.4222 H   0  0  0  0  0  0  0  0  0  0  0  0
  138.2762   68.6870  222.4436 H   0  0  0  0  0  0  0  0  0  0  0  0
  139.4322   69.7183  221.4701 H   0  0  0  0  0  0  0  0  0  0  0  0
  140.2157   68.6439  223.7404 H   0  0  0  0  0  0  0  0  0  0  0  0
  140.6731   70.3229  223.3147 H   0  0  0  0  0  0  0  0  0  0  0  0
  140.8671   72.2274  224.8685 H   0  0  0  0  0  0  0  0  0  0  0  0
  142.0942   73.0341  226.8609 H   0  0  0  0  0  0  0  0  0  0  0  0
  141.7796   71.8917  229.0719 H   0  0  0  0  0  0  0  0  0  0  0  0
  140.2129   69.9416  229.1960 H   0  0  0  0  0  0  0  0  0  0  0  0
  139.0102   69.1701  227.1813 H   0  0  0  0  0  0  0  0  0  0  0  0
  137.3609   69.0609  224.4315 H   0  0  0  0  0  0  0  0  0  0  0  0
  137.2162   70.3129  225.6623 H   0  0  0  0  0  0  0  0  0  0  0  0
  136.2103   71.0585  223.4755 H   0  0  0  0  0  0  0  0  0  0  0  0
  137.6236   72.0779  223.8974 H   0  0  0  0  0  0  0  0  0  0  0  0
  141.2338   74.0454  221.9005 H   0  0  0  0  0  0  0  0  0  0  0  0
  141.9967   74.8784  220.5010 H   0  0  0  0  0  0  0  0  0  0  0  0
  140.5915   75.9745  222.8883 H   0  0  0  0  0  0  0  0  0  0  0  0
  142.1474   76.4776  221.9980 H   0  0  0  0  0  0  0  0  0  0  0  0
  1  2  1  0
  2  3  1  0
  3  4  2  0
  3  5  1  0
  5  6  1  0
  6  7  2  0
  7  8  1  0
  8  9  2  0
  9 10  1  0
 10 11  2  0
  5 12  1  0
 12 13  1  0
 13 14  1  0
 14 15  1  0
 15 16  1  0
 16 17  2  0
 16 18  1  0
 18 19  1  0
 18 20  1  0
 20 21  1  0
 21 22  1  0
 22 23  1  0
 23 24  1  0
 24 25  1  0
 25 26  2  0
 26 27  1  0
 27 28  2  0
 28 29  1  0
 29 30  2  0
 24 31  1  0
 31 32  1  0
 15 33  1  0
 33 34  1  0
 11  6  1  0
 34 12  1  0
 32 21  1  0
 30 25  1  0
  1 35  1  0
  1 36  1  0
  1 37  1  0
  2 38  1  0
  2 39  1  0
  7 40  1  0
  8 41  1  0
  9 42  1  0
 10 43  1  0
 11 44  1  0
 12 45  1  0
 13 46  1  0
 13 47  1  0
 14 48  1  0
 14 49  1  0
 18 50  1  6
 19 51  1  0
 19 52  1  0
 20 53  1  0
 20 54  1  0
 22 55  1  0
 22 56  1  0
 23 57  1  0
 23 58  1  0
 26 59  1  0
 27 60  1  0
 28 61  1  0
 29 62  1  0
 30 63  1  0
 31 64  1  0
 31 65  1  0
 32 66  1  0
 32 67  1  0
 33 68  1  0
 33 69  1  0
 34 70  1  0
 34 71  1  0
M  END
>  <smiles>  (23) 
CCC(=O)N(c1ccccc1)C1CCN(C(=O)[C@@H](N)CN2CCN(c3ccccc3)CC2)CC1

>  <score_type>  (23) 
oracle

>  <origin>  (23) 
autodockgpu

>  <m_score__min__energy>  (23) 
-8.5700000000000003

>  <m_primary>  (23) 
energy

>  <rmsd>  (23) 
9.047024149417647

>  <m_score__min__rmsd>  (23) 
9.047024149417647

>  <meeko>  (23) 
{"free_energy": -8.01, "intermolecular_energy": -10.7, "internal_energy": -2.62, "cluster_size": 3, "cluster_id": 1, "rank_in_cluster": 3}

>  <energy>  (23) 
-7.35

>  <cluster_rmsd>  (23) 
1.26

>  <cluster>  (23) 
3

$$$$

     RDKit          3D

 71 74  0  0  0  0  0  0  0  0999 V2000
  145.6910   73.3760  220.9390 C   0  0  0  0  0  0  0  0  0  0  0  0
  144.5710   72.4040  220.5630 C   0  0  0  0  0  0  0  0  0  0  0  0
  144.9910   71.7850  219.2800 C   0  0  0  0  0  0  0  0  0  0  0  0
  145.9500   72.3320  218.6750 O   0  0  0  0  0  0  0  0  0  0  0  0
  144.3130   70.6320  218.8010 N   0  0  0  0  0  0  0  0  0  0  0  0
  145.0110   69.4000  218.6520 C   0  0  0  0  0  0  0  0  0  0  0  0
  144.9820   68.5430  219.7390 C   0  0  0  0  0  0  0  0  0  0  0  0
  145.6350   67.3140  219.6920 C   0  0  0  0  0  0  0  0  0  0  0  0
  146.3250   66.9550  218.5300 C   0  0  0  0  0  0  0  0  0  0  0  0
  146.3380   67.8300  217.4620 C   0  0  0  0  0  0  0  0  0  0  0  0
  145.6900   69.0580  217.4950 C   0  0  0  0  0  0  0  0  0  0  0  0
  142.8790   70.7490  218.4710 C   0  0  0  0  0  0  0  0  0  0  0  0
  142.5320   72.1330  218.0580 C   0  0  0  0  0  0  0  0  0  0  0  0
  141.0890   72.4740  218.1620 C   0  0  0  0  0  0  0  0  0  0  0  0
  140.6380   72.0520  219.4750 N   0  0  0  0  0  0  0  0  0  0  0  0
  140.2020   73.0600  220.3590 C   0  0  0  0  0  0  0  0  0  0  0  0
  140.2870   74.2570  219.9440 O   0  0  0  0  0  0  0  0  0  0  0  0
  139.6560   72.7850  221.7360 C   0  0  1  0  0  0  0  0  0  0  0  0
  139.5720   74.1270  222.3390 N   0  0  0  0  0  0  0  0  0  0  0  0
  138.2670   72.2390  221.5000 C   0  0  0  0  0  0  0  0  0  0  0  0
  137.9960   71.1550  222.3540 N   0  0  0  0  0  0  0  0  0  0  0  0
  138.6840   69.9440  222.2390 C   0  0  0  0  0  0  0  0  0  0  0  0
  139.5860   69.6320  223.4310 C   0  0  0  0  0  0  0  0  0  0  0  0
  138.9250   70.0960  224.6630 N   0  0  0  0  0  0  0  0  0  0  0  0
  139.6580   70.3040  225.8590 C   0  0  0  0  0  0  0  0  0  0  0  0
  140.3810   71.4270  226.1440 C   0  0  0  0  0  0  0  0  0  0  0  0
  141.0960   71.5910  227.3350 C   0  0  0  0  0  0  0  0  0  0  0  0
  141.0880   70.5810  228.2890 C   0  0  0  0  0  0  0  0  0  0  0  0
  140.3560   69.4270  228.0140 C   0  0  0  0  0  0  0  0  0  0  0  0
  139.6570   69.3000  226.8180 C   0  0  0  0  0  0  0  0  0  0  0  0
  137.4970   70.3200  224.5380 C   0  0  0  0  0  0  0  0  0  0  0  0
  137.3750   71.4940  223.5810 C   0  0  0  0  0  0  0  0  0  0  0  0
  140.6950   70.6420  219.7680 C   0  0  0  0  0  0  0  0  0  0  0  0
  142.0810   70.1390  219.5570 C   0  0  0  0  0  0  0  0  0  0  0  0
  145.7669   73.4419  222.0344 H   0  0  0  0  0  0  0  0  0  0  0  0
  146.6444   73.0142  220.5265 H   0  0  0  0  0  0  0  0  0  0  0  0
  145.4670   74.3708  220.5265 H   0  0  0  0  0  0  0  0  0  0  0  0
  144.4540   71.6343  221.3401 H   0  0  0  0  0  0  0  0  0  0  0  0
  143.6025   72.9169  220.4688 H   0  0  0  0  0  0  0  0  0  0  0  0
  144.4376   68.8359  220.6489 H   0  0  0  0  0  0  0  0  0  0  0  0
  145.6084   66.6350  220.5570 H   0  0  0  0  0  0  0  0  0  0  0  0
  146.8495   65.9901  218.4677 H   0  0  0  0  0  0  0  0  0  0  0  0
  146.8824   67.5435  216.5501 H   0  0  0  0  0  0  0  0  0  0  0  0
  145.7155   69.7369  216.6298 H   0  0  0  0  0  0  0  0  0  0  0  0
  142.6172   70.1683  217.5742 H   0  0  0  0  0  0  0  0  0  0  0  0
  143.0948   72.8310  218.6952 H   0  0  0  0  0  0  0  0  0  0  0  0
  142.7913   72.2109  216.9918 H   0  0  0  0  0  0  0  0  0  0  0  0
  140.9497   73.5591  218.0472 H   0  0  0  0  0  0  0  0  0  0  0  0
  140.5125   71.9700  217.3723 H   0  0  0  0  0  0  0  0  0  0  0  0
  140.2373   72.0920  222.3619 H   0  0  0  0  0  0  0  0  0  0  0  0
  140.3750   74.7310  222.0580 H   0  0  0  0  0  0  0  0  0  0  0  0
  139.5730   74.0630  223.3790 H   0  0  0  0  0  0  0  0  0  0  0  0
  137.5316   73.0355  221.6865 H   0  0  0  0  0  0  0  0  0  0  0  0
  138.2023   71.8880  220.4595 H   0  0  0  0  0  0  0  0  0  0  0  0
  137.9463   69.1340  222.1409 H   0  0  0  0  0  0  0  0  0  0  0  0
  139.3362   70.0285  221.3572 H   0  0  0  0  0  0  0  0  0  0  0  0
  139.7579   68.5471  223.4902 H   0  0  0  0  0  0  0  0  0  0  0  0
  140.5526   70.1431  223.3111 H   0  0  0  0  0  0  0  0  0  0  0  0
  140.4020   72.2398  225.4031 H   0  0  0  0  0  0  0  0  0  0  0  0
  141.6626   72.5164  227.5157 H   0  0  0  0  0  0  0  0  0  0  0  0
  141.6426   70.6887  229.2328 H   0  0  0  0  0  0  0  0  0  0  0  0
  140.3309   68.6094  228.7494 H   0  0  0  0  0  0  0  0  0  0  0  0
  139.0876   68.3785  226.6267 H   0  0  0  0  0  0  0  0  0  0  0  0
  136.9990   69.4299  224.1260 H   0  0  0  0  0  0  0  0  0  0  0  0
  137.0201   70.5218  225.5085 H   0  0  0  0  0  0  0  0  0  0  0  0
  136.3124   71.7190  223.4068 H   0  0  0  0  0  0  0  0  0  0  0  0
  137.8650   72.3787  224.0136 H   0  0  0  0  0  0  0  0  0  0  0  0
  140.4009   70.4742  220.8146 H   0  0  0  0  0  0  0  0  0  0  0  0
  140.0073   70.1037  219.0992 H   0  0  0  0  0  0  0  0  0  0  0  0
  142.6326   70.2939  220.4960 H   0  0  0  0  0  0  0  0  0  0  0  0
  141.9511   69.0908  219.2497 H   0  0  0  0  0  0  0  0  0  0  0  0
  1  2  1  0
  2  3  1  0
  3  4  2  0
  3  5  1  0
  5  6  1  0
  6  7  2  0
  7  8  1  0
  8  9  2  0
  9 10  1  0
 10 11  2  0
  5 12  1  0
 12 13  1  0
 13 14  1  0
 14 15  1  0
 15 16  1  0
 16 17  2  0
 16 18  1  0
 18 19  1  0
 18 20  1  0
 20 21  1  0
 21 22  1  0
 22 23  1  0
 23 24  1  0
 24 25  1  0
 25 26  2  0
 26 27  1  0
 27 28  2  0
 28 29  1  0
 29 30  2  0
 24 31  1  0
 31 32  1  0
 15 33  1  0
 33 34  1  0
 11  6  1  0
 34 12  1  0
 32 21  1  0
 30 25  1  0
  1 35  1  0
  1 36  1  0
  1 37  1  0
  2 38  1  0
  2 39  1  0
  7 40  1  0
  8 41  1  0
  9 42  1  0
 10 43  1  0
 11 44  1  0
 12 45  1  0
 13 46  1  0
 13 47  1  0
 14 48  1  0
 14 49  1  0
 18 50  1  1
 19 51  1  0
 19 52  1  0
 20 53  1  0
 20 54  1  0
 22 55  1  0
 22 56  1  0
 23 57  1  0
 23 58  1  0
 26 59  1  0
 27 60  1  0
 28 61  1  0
 29 62  1  0
 30 63  1  0
 31 64  1  0
 31 65  1  0
 32 66  1  0
 32 67  1  0
 33 68  1  0
 33 69  1  0
 34 70  1  0
 34 71  1  0
M  END
>  <smiles>  (24) 
CCC(=O)N(c1ccccc1)C1CCN(C(=O)[C@@H](N)CN2CCN(c3ccccc3)CC2)CC1

>  <score_type>  (24) 
oracle

>  <origin>  (24) 
autodockgpu

>  <m_score__min__energy>  (24) 
-8.5700000000000003

>  <m_primary>  (24) 
energy

>  <rmsd>  (24) 
9.253577305396721

>  <m_score__min__rmsd>  (24) 
9.253577305396721

>  <meeko>  (24) 
{"free_energy": -7.97, "intermolecular_energy": -10.65, "internal_energy": -2.75, "cluster_size": 5, "cluster_id": 4, "rank_in_cluster": 1}

>  <energy>  (24) 
-7.31

>  <cluster_rmsd>  (24) 
1.16

>  <cluster>  (24) 
3

$$$$

     RDKit          3D

 71 74  0  0  0  0  0  0  0  0999 V2000
  142.5700   79.1950  217.7000 C   0  0  0  0  0  0  0  0  0  0  0  0
  142.5370   80.5210  218.4620 C   0  0  0  0  0  0  0  0  0  0  0  0
  141.1520   80.6490  218.9830 C   0  0  0  0  0  0  0  0  0  0  0  0
  140.3860   81.4350  218.3680 O   0  0  0  0  0  0  0  0  0  0  0  0
  140.7590   79.8990  220.1250 N   0  0  0  0  0  0  0  0  0  0  0  0
  141.4140   80.0970  221.3730 C   0  0  0  0  0  0  0  0  0  0  0  0
  141.2460   81.3370  221.9630 C   0  0  0  0  0  0  0  0  0  0  0  0
  141.8480   81.6300  223.1850 C   0  0  0  0  0  0  0  0  0  0  0  0
  142.6270   80.6520  223.8100 C   0  0  0  0  0  0  0  0  0  0  0  0
  142.7770   79.4230  223.1980 C   0  0  0  0  0  0  0  0  0  0  0  0
  142.1820   79.1180  221.9800 C   0  0  0  0  0  0  0  0  0  0  0  0
  139.6610   78.9230  219.9770 C   0  0  0  0  0  0  0  0  0  0  0  0
  139.0330   78.6150  221.2880 C   0  0  0  0  0  0  0  0  0  0  0  0
  138.2710   77.3410  221.3330 C   0  0  0  0  0  0  0  0  0  0  0  0
  139.1140   76.3110  220.7550 N   0  0  0  0  0  0  0  0  0  0  0  0
  139.5210   75.2620  221.6050 C   0  0  0  0  0  0  0  0  0  0  0  0
  139.1510   75.3360  222.8180 O   0  0  0  0  0  0  0  0  0  0  0  0
  140.3530   74.0920  221.1500 C   0  0  1  0  0  0  0  0  0  0  0  0
  140.5880   73.3410  222.3960 N   0  0  0  0  0  0  0  0  0  0  0  0
  139.4430   73.3030  220.2370 C   0  0  0  0  0  0  0  0  0  0  0  0
  138.8500   72.2260  220.9210 N   0  0  0  0  0  0  0  0  0  0  0  0
  139.3400   70.9230  220.7990 C   0  0  0  0  0  0  0  0  0  0  0  0
  139.9490   70.3710  222.0860 C   0  0  0  0  0  0  0  0  0  0  0  0
  139.1600   70.8570  223.2320 N   0  0  0  0  0  0  0  0  0  0  0  0
  139.6880   70.8450  224.5470 C   0  0  0  0  0  0  0  0  0  0  0  0
  139.3120   69.9730  225.5300 C   0  0  0  0  0  0  0  0  0  0  0  0
  139.8540   69.9990  226.8190 C   0  0  0  0  0  0  0  0  0  0  0  0
  140.8200   70.9450  227.1430 C   0  0  0  0  0  0  0  0  0  0  0  0
  141.2140   71.8420  226.1520 C   0  0  0  0  0  0  0  0  0  0  0  0
  140.6530   71.7860  224.8810 C   0  0  0  0  0  0  0  0  0  0  0  0
  137.8340   71.3400  222.8950 C   0  0  0  0  0  0  0  0  0  0  0  0
  138.0800   72.5820  222.0540 C   0  0  0  0  0  0  0  0  0  0  0  0
  139.4800   76.4620  219.3690 C   0  0  0  0  0  0  0  0  0  0  0  0
  140.1330   77.7830  219.1610 C   0  0  0  0  0  0  0  0  0  0  0  0
  142.5908   78.3607  218.4166 H   0  0  0  0  0  0  0  0  0  0  0  0
  141.6736   79.1130  217.0677 H   0  0  0  0  0  0  0  0  0  0  0  0
  143.4694   79.1577  217.0677 H   0  0  0  0  0  0  0  0  0  0  0  0
  143.2592   80.5050  219.2916 H   0  0  0  0  0  0  0  0  0  0  0  0
  142.8081   81.3685  217.8153 H   0  0  0  0  0  0  0  0  0  0  0  0
  140.6310   82.0993  221.4624 H   0  0  0  0  0  0  0  0  0  0  0  0
  141.7122   82.6170  223.6513 H   0  0  0  0  0  0  0  0  0  0  0  0
  143.1133   80.8582  224.7749 H   0  0  0  0  0  0  0  0  0  0  0  0
  143.3908   78.6565  223.6937 H   0  0  0  0  0  0  0  0  0  0  0  0
  142.3168   78.1311  221.5133 H   0  0  0  0  0  0  0  0  0  0  0  0
  138.8169   79.3409  219.4088 H   0  0  0  0  0  0  0  0  0  0  0  0
  139.8297   78.5634  222.0447 H   0  0  0  0  0  0  0  0  0  0  0  0
  138.3041   79.4170  221.4767 H   0  0  0  0  0  0  0  0  0  0  0  0
  138.0261   77.0859  222.3746 H   0  0  0  0  0  0  0  0  0  0  0  0
  137.3288   77.4318  220.7726 H   0  0  0  0  0  0  0  0  0  0  0  0
  141.2949   74.3332  220.6355 H   0  0  0  0  0  0  0  0  0  0  0  0
  140.6060   72.3110  222.2320 H   0  0  0  0  0  0  0  0  0  0  0  0
  139.8370   73.5380  223.0900 H   0  0  0  0  0  0  0  0  0  0  0  0
  138.6522   73.9665  219.8570 H   0  0  0  0  0  0  0  0  0  0  0  0
  140.0430   72.9020  219.4068 H   0  0  0  0  0  0  0  0  0  0  0  0
  138.5097   70.2668  220.4989 H   0  0  0  0  0  0  0  0  0  0  0  0
  140.1452   70.9521  220.0501 H   0  0  0  0  0  0  0  0  0  0  0  0
  139.9283   69.2714  222.0627 H   0  0  0  0  0  0  0  0  0  0  0  0
  140.9917   70.7084  222.1805 H   0  0  0  0  0  0  0  0  0  0  0  0
  138.5484   69.2164  225.2967 H   0  0  0  0  0  0  0  0  0  0  0  0
  139.5171   69.2734  227.5740 H   0  0  0  0  0  0  0  0  0  0  0  0
  141.2597   70.9842  228.1505 H   0  0  0  0  0  0  0  0  0  0  0  0
  141.9765   72.6020  226.3775 H   0  0  0  0  0  0  0  0  0  0  0  0
  140.9828   72.5073  224.1188 H   0  0  0  0  0  0  0  0  0  0  0  0
  137.2804   70.5842  222.3186 H   0  0  0  0  0  0  0  0  0  0  0  0
  137.2289   71.5544  223.7882 H   0  0  0  0  0  0  0  0  0  0  0  0
  137.1176   73.0034  221.7283 H   0  0  0  0  0  0  0  0  0  0  0  0
  138.6199   73.3331  222.6493 H   0  0  0  0  0  0  0  0  0  0  0  0
  140.1787   75.6608  219.0864 H   0  0  0  0  0  0  0  0  0  0  0  0
  138.5755   76.4019  218.7459 H   0  0  0  0  0  0  0  0  0  0  0  0
  141.2059   77.6544  219.3668 H   0  0  0  0  0  0  0  0  0  0  0  0
  139.8771   78.0582  218.1272 H   0  0  0  0  0  0  0  0  0  0  0  0
  1  2  1  0
  2  3  1  0
  3  4  2  0
  3  5  1  0
  5  6  1  0
  6  7  2  0
  7  8  1  0
  8  9  2  0
  9 10  1  0
 10 11  2  0
  5 12  1  0
 12 13  1  0
 13 14  1  0
 14 15  1  0
 15 16  1  0
 16 17  2  0
 16 18  1  0
 18 19  1  0
 18 20  1  0
 20 21  1  0
 21 22  1  0
 22 23  1  0
 23 24  1  0
 24 25  1  0
 25 26  2  0
 26 27  1  0
 27 28  2  0
 28 29  1  0
 29 30  2  0
 24 31  1  0
 31 32  1  0
 15 33  1  0
 33 34  1  0
 11  6  1  0
 34 12  1  0
 32 21  1  0
 30 25  1  0
  1 35  1  0
  1 36  1  0
  1 37  1  0
  2 38  1  0
  2 39  1  0
  7 40  1  0
  8 41  1  0
  9 42  1  0
 10 43  1  0
 11 44  1  0
 12 45  1  0
 13 46  1  0
 13 47  1  0
 14 48  1  0
 14 49  1  0
 18 50  1  6
 19 51  1  0
 19 52  1  0
 20 53  1  0
 20 54  1  0
 22 55  1  0
 22 56  1  0
 23 57  1  0
 23 58  1  0
 26 59  1  0
 27 60  1  0
 28 61  1  0
 29 62  1  0
 30 63  1  0
 31 64  1  0
 31 65  1  0
 32 66  1  0
 32 67  1  0
 33 68  1  0
 33 69  1  0
 34 70  1  0
 34 71  1  0
M  END
>  <smiles>  (25) 
CCC(=O)N(c1ccccc1)C1CCN(C(=O)[C@@H](N)CN2CCN(c3ccccc3)CC2)CC1

>  <score_type>  (25) 
oracle

>  <origin>  (25) 
autodockgpu

>  <m_score__min__energy>  (25) 
-8.5700000000000003

>  <m_primary>  (25) 
energy

>  <rmsd>  (25) 
8.317737234264392

>  <m_score__min__rmsd>  (25) 
8.317737234264392

>  <meeko>  (25) 
{"free_energy": -7.19, "intermolecular_energy": -9.87, "internal_energy": -3.0, "cluster_size": 26, "cluster_id": 3, "rank_in_cluster": 23}

>  <energy>  (25) 
-7.29

>  <cluster_rmsd>  (25) 
1.86

>  <cluster>  (25) 
3

$$$$

     RDKit          3D

 71 74  0  0  0  0  0  0  0  0999 V2000
  142.9360   81.6270  217.4850 C   0  0  0  0  0  0  0  0  0  0  0  0
  141.8290   81.4750  218.5300 C   0  0  0  0  0  0  0  0  0  0  0  0
  141.8930   80.0600  218.9790 C   0  0  0  0  0  0  0  0  0  0  0  0
  142.6720   79.3000  218.3470 O   0  0  0  0  0  0  0  0  0  0  0  0
  141.0940   79.6350  220.0750 N   0  0  0  0  0  0  0  0  0  0  0  0
  141.5290   79.8670  221.4100 C   0  0  0  0  0  0  0  0  0  0  0  0
  141.7590   78.7430  222.1850 C   0  0  0  0  0  0  0  0  0  0  0  0
  142.1850   78.8650  223.5050 C   0  0  0  0  0  0  0  0  0  0  0  0
  142.3790   80.1410  224.0410 C   0  0  0  0  0  0  0  0  0  0  0  0
  142.1420   81.2450  223.2470 C   0  0  0  0  0  0  0  0  0  0  0  0
  141.7160   81.1370  221.9280 C   0  0  0  0  0  0  0  0  0  0  0  0
  139.8150   78.9570  219.7880 C   0  0  0  0  0  0  0  0  0  0  0  0
  138.9170   78.9760  220.9710 C   0  0  0  0  0  0  0  0  0  0  0  0
  137.8420   77.9490  220.9580 C   0  0  0  0  0  0  0  0  0  0  0  0
  138.4620   76.6790  220.6280 N   0  0  0  0  0  0  0  0  0  0  0  0
  138.4220   75.6700  221.6130 C   0  0  0  0  0  0  0  0  0  0  0  0
  137.8880   75.9790  222.7220 O   0  0  0  0  0  0  0  0  0  0  0  0
  138.9710   74.2830  221.4100 C   0  0  1  0  0  0  0  0  0  0  0  0
  139.6060   73.9800  222.7050 N   0  0  0  0  0  0  0  0  0  0  0  0
  137.7540   73.4090  221.2170 C   0  0  0  0  0  0  0  0  0  0  0  0
  138.0120   72.0850  221.6160 N   0  0  0  0  0  0  0  0  0  0  0  0
  139.1990   71.4340  221.2660 C   0  0  0  0  0  0  0  0  0  0  0  0
  140.1080   71.1290  222.4550 C   0  0  0  0  0  0  0  0  0  0  0  0
  139.2720   70.7640  223.6120 N   0  0  0  0  0  0  0  0  0  0  0  0
  139.7820   70.8100  224.9330 C   0  0  0  0  0  0  0  0  0  0  0  0
  139.4390   69.9430  225.9320 C   0  0  0  0  0  0  0  0  0  0  0  0
  139.9620   70.0270  227.2260 C   0  0  0  0  0  0  0  0  0  0  0  0
  140.8730   71.0280  227.5400 C   0  0  0  0  0  0  0  0  0  0  0  0
  141.2330   71.9220  226.5330 C   0  0  0  0  0  0  0  0  0  0  0  0
  140.6930   71.8080  225.2570 C   0  0  0  0  0  0  0  0  0  0  0  0
  137.9140   70.3720  223.2800 C   0  0  0  0  0  0  0  0  0  0  0  0
  137.2710   71.6360  222.7360 C   0  0  0  0  0  0  0  0  0  0  0  0
  139.0810   76.5660  219.3320 C   0  0  0  0  0  0  0  0  0  0  0  0
  140.0920   77.6460  219.1610 C   0  0  0  0  0  0  0  0  0  0  0  0
  143.9031   81.7598  217.9920 H   0  0  0  0  0  0  0  0  0  0  0  0
  142.9726   80.7255  216.8558 H   0  0  0  0  0  0  0  0  0  0  0  0
  142.7282   82.5050  216.8558 H   0  0  0  0  0  0  0  0  0  0  0  0
  142.0048   82.1546  219.3769 H   0  0  0  0  0  0  0  0  0  0  0  0
  140.8414   81.7256  218.1153 H   0  0  0  0  0  0  0  0  0  0  0  0
  141.6036   77.7432  221.7534 H   0  0  0  0  0  0  0  0  0  0  0  0
  142.3663   77.9694  224.1175 H   0  0  0  0  0  0  0  0  0  0  0  0
  142.7158   80.2638  225.0809 H   0  0  0  0  0  0  0  0  0  0  0  0
  142.2959   82.2472  223.6736 H   0  0  0  0  0  0  0  0  0  0  0  0
  141.5334   82.0323  221.3155 H   0  0  0  0  0  0  0  0  0  0  0  0
  139.2221   79.5033  219.0396 H   0  0  0  0  0  0  0  0  0  0  0  0
  139.5317   78.8158  221.8691 H   0  0  0  0  0  0  0  0  0  0  0  0
  138.4107   79.9525  220.9581 H   0  0  0  0  0  0  0  0  0  0  0  0
  137.3662   77.8896  221.9480 H   0  0  0  0  0  0  0  0  0  0  0  0
  137.0664   78.2066  220.2217 H   0  0  0  0  0  0  0  0  0  0  0  0
  139.6710   74.1531  220.5715 H   0  0  0  0  0  0  0  0  0  0  0  0
  139.2020   73.1250  223.1450 H   0  0  0  0  0  0  0  0  0  0  0  0
  139.4770   74.7710  223.3700 H   0  0  0  0  0  0  0  0  0  0  0  0
  136.9248   73.8101  221.8182 H   0  0  0  0  0  0  0  0  0  0  0  0
  137.4918   73.4068  220.1487 H   0  0  0  0  0  0  0  0  0  0  0  0
  138.9418   70.4846  220.7735 H   0  0  0  0  0  0  0  0  0  0  0  0
  139.7546   72.1144  220.6040 H   0  0  0  0  0  0  0  0  0  0  0  0
  140.7767   70.2925  222.2038 H   0  0  0  0  0  0  0  0  0  0  0  0
  140.7149   72.0138  222.6974 H   0  0  0  0  0  0  0  0  0  0  0  0
  138.7186   69.1425  225.7080 H   0  0  0  0  0  0  0  0  0  0  0  0
  139.6530   69.3023  227.9936 H   0  0  0  0  0  0  0  0  0  0  0  0
  141.2968   71.1123  228.5516 H   0  0  0  0  0  0  0  0  0  0  0  0
  141.9517   72.7259  226.7501 H   0  0  0  0  0  0  0  0  0  0  0  0
  140.9953   72.5279  224.4822 H   0  0  0  0  0  0  0  0  0  0  0  0
  137.9144   69.5781  222.5186 H   0  0  0  0  0  0  0  0  0  0  0  0
  137.3723   69.9697  224.1488 H   0  0  0  0  0  0  0  0  0  0  0  0
  136.2360   71.4216  222.4315 H   0  0  0  0  0  0  0  0  0  0  0  0
  137.2648   72.4140  223.5136 H   0  0  0  0  0  0  0  0  0  0  0  0
  139.5746   75.5867  219.2470 H   0  0  0  0  0  0  0  0  0  0  0  0
  138.3114   76.6616  218.5519 H   0  0  0  0  0  0  0  0  0  0  0  0
  141.0402   77.2766  219.5786 H   0  0  0  0  0  0  0  0  0  0  0  0
  140.0968   77.8517  218.0804 H   0  0  0  0  0  0  0  0  0  0  0  0
  1  2  1  0
  2  3  1  0
  3  4  2  0
  3  5  1  0
  5  6  1  0
  6  7  2  0
  7  8  1  0
  8  9  2  0
  9 10  1  0
 10 11  2  0
  5 12  1  0
 12 13  1  0
 13 14  1  0
 14 15  1  0
 15 16  1  0
 16 17  2  0
 16 18  1  0
 18 19  1  0
 18 20  1  0
 20 21  1  0
 21 22  1  0
 22 23  1  0
 23 24  1  0
 24 25  1  0
 25 26  2  0
 26 27  1  0
 27 28  2  0
 28 29  1  0
 29 30  2  0
 24 31  1  0
 31 32  1  0
 15 33  1  0
 33 34  1  0
 11  6  1  0
 34 12  1  0
 32 21  1  0
 30 25  1  0
  1 35  1  0
  1 36  1  0
  1 37  1  0
  2 38  1  0
  2 39  1  0
  7 40  1  0
  8 41  1  0
  9 42  1  0
 10 43  1  0
 11 44  1  0
 12 45  1  0
 13 46  1  0
 13 47  1  0
 14 48  1  0
 14 49  1  0
 18 50  1  6
 19 51  1  0
 19 52  1  0
 20 53  1  0
 20 54  1  0
 22 55  1  0
 22 56  1  0
 23 57  1  0
 23 58  1  0
 26 59  1  0
 27 60  1  0
 28 61  1  0
 29 62  1  0
 30 63  1  0
 31 64  1  0
 31 65  1  0
 32 66  1  0
 32 67  1  0
 33 68  1  0
 33 69  1  0
 34 70  1  0
 34 71  1  0
M  END
>  <smiles>  (26) 
CCC(=O)N(c1ccccc1)C1CCN(C(=O)[C@@H](N)CN2CCN(c3ccccc3)CC2)CC1

>  <score_type>  (26) 
oracle

>  <origin>  (26) 
autodockgpu

>  <m_score__min__energy>  (26) 
-8.5700000000000003

>  <m_primary>  (26) 
energy

>  <rmsd>  (26) 
8.542198646375432

>  <m_score__min__rmsd>  (26) 
8.542198646375432

>  <meeko>  (26) 
{"free_energy": -7.87, "intermolecular_energy": -10.55, "internal_energy": -3.19, "cluster_size": 26, "cluster_id": 3, "rank_in_cluster": 4}

>  <energy>  (26) 
-7.26

>  <cluster_rmsd>  (26) 
1.88

>  <cluster>  (26) 
3

$$$$

     RDKit          3D

 71 74  0  0  0  0  0  0  0  0999 V2000
  137.2990   81.4070  225.4500 C   0  0  0  0  0  0  0  0  0  0  0  0
  136.8490   80.5280  224.2830 C   0  0  0  0  0  0  0  0  0  0  0  0
  137.7750   80.8410  223.1650 C   0  0  0  0  0  0  0  0  0  0  0  0
  137.6690   81.9810  222.6440 O   0  0  0  0  0  0  0  0  0  0  0  0
  138.7190   79.8660  222.7410 N   0  0  0  0  0  0  0  0  0  0  0  0
  140.1000   80.0240  223.0490 C   0  0  0  0  0  0  0  0  0  0  0  0
  140.6360   81.2810  222.8300 C   0  0  0  0  0  0  0  0  0  0  0  0
  141.9790   81.5370  223.1000 C   0  0  0  0  0  0  0  0  0  0  0  0
  142.7810   80.5050  223.5950 C   0  0  0  0  0  0  0  0  0  0  0  0
  142.2190   79.2610  223.8040 C   0  0  0  0  0  0  0  0  0  0  0  0
  140.8810   78.9930  223.5400 C   0  0  0  0  0  0  0  0  0  0  0  0
  138.2280   78.6980  221.9850 C   0  0  0  0  0  0  0  0  0  0  0  0
  138.2490   77.4680  222.8180 C   0  0  0  0  0  0  0  0  0  0  0  0
  138.2340   76.1940  222.0530 C   0  0  0  0  0  0  0  0  0  0  0  0
  139.2450   76.2990  221.0170 N   0  0  0  0  0  0  0  0  0  0  0  0
  140.3340   75.4060  221.0900 C   0  0  0  0  0  0  0  0  0  0  0  0
  140.3590   74.6190  222.0860 O   0  0  0  0  0  0  0  0  0  0  0  0
  141.4380   75.3500  220.0670 C   0  0  1  0  0  0  0  0  0  0  0  0
  142.3420   76.4360  220.4880 N   0  0  0  0  0  0  0  0  0  0  0  0
  142.1040   74.0120  220.2890 C   0  0  0  0  0  0  0  0  0  0  0  0
  143.4240   74.0160  219.8020 N   0  0  0  0  0  0  0  0  0  0  0  0
  144.5190   73.8640  220.6570 C   0  0  0  0  0  0  0  0  0  0  0  0
  145.2890   72.5620  220.4470 C   0  0  0  0  0  0  0  0  0  0  0  0
  145.3110   72.2480  219.0080 N   0  0  0  0  0  0  0  0  0  0  0  0
  145.5970   70.9400  218.5430 C   0  0  0  0  0  0  0  0  0  0  0  0
  145.6360   69.8250  219.3310 C   0  0  0  0  0  0  0  0  0  0  0  0
  145.9280   68.5510  218.8340 C   0  0  0  0  0  0  0  0  0  0  0  0
  146.1960   68.3830  217.4800 C   0  0  0  0  0  0  0  0  0  0  0  0
  146.1610   69.5110  216.6620 C   0  0  0  0  0  0  0  0  0  0  0  0
  145.8660   70.7620  217.1920 C   0  0  0  0  0  0  0  0  0  0  0  0
  145.0140   73.3710  218.1370 C   0  0  0  0  0  0  0  0  0  0  0  0
  143.5610   73.7070  218.4270 C   0  0  0  0  0  0  0  0  0  0  0  0
  139.0580   77.3190  220.0170 C   0  0  0  0  0  0  0  0  0  0  0  0
  138.9110   78.6470  220.6740 C   0  0  0  0  0  0  0  0  0  0  0  0
  137.0462   80.9131  226.3998 H   0  0  0  0  0  0  0  0  0  0  0  0
  138.3868   81.5609  225.3949 H   0  0  0  0  0  0  0  0  0  0  0  0
  136.7878   82.3795  225.3949 H   0  0  0  0  0  0  0  0  0  0  0  0
  136.9204   79.4643  224.5540 H   0  0  0  0  0  0  0  0  0  0  0  0
  135.8013   80.7212  224.0091 H   0  0  0  0  0  0  0  0  0  0  0  0
  139.9959   82.0857  222.4391 H   0  0  0  0  0  0  0  0  0  0  0  0
  142.4020   82.5374  222.9260 H   0  0  0  0  0  0  0  0  0  0  0  0
  143.8443   80.6811  223.8149 H   0  0  0  0  0  0  0  0  0  0  0  0
  142.8540   78.4519  224.1940 H   0  0  0  0  0  0  0  0  0  0  0  0
  140.4567   77.9934  223.7158 H   0  0  0  0  0  0  0  0  0  0  0  0
  137.1601   78.7914  221.7384 H   0  0  0  0  0  0  0  0  0  0  0  0
  139.1612   77.4869  223.4324 H   0  0  0  0  0  0  0  0  0  0  0  0
  137.3234   77.4820  223.4123 H   0  0  0  0  0  0  0  0  0  0  0  0
  138.4660   75.3514  222.7210 H   0  0  0  0  0  0  0  0  0  0  0  0
  137.2420   76.0171  221.6117 H   0  0  0  0  0  0  0  0  0  0  0  0
  141.1343   75.4558  219.0150 H   0  0  0  0  0  0  0  0  0  0  0  0
  143.3410   76.1350  220.4800 H   0  0  0  0  0  0  0  0  0  0  0  0
  142.1130   76.7500  221.4540 H   0  0  0  0  0  0  0  0  0  0  0  0
  142.1194   73.7929  221.3668 H   0  0  0  0  0  0  0  0  0  0  0  0
  141.5338   73.2437  219.7463 H   0  0  0  0  0  0  0  0  0  0  0  0
  145.2081   74.7051  220.4908 H   0  0  0  0  0  0  0  0  0  0  0  0
  144.1233   73.8402  221.6831 H   0  0  0  0  0  0  0  0  0  0  0  0
  146.3189   72.6785  220.8154 H   0  0  0  0  0  0  0  0  0  0  0  0
  144.7997   71.7462  220.9992 H   0  0  0  0  0  0  0  0  0  0  0  0
  145.4282   69.9342  220.4057 H   0  0  0  0  0  0  0  0  0  0  0  0
  145.9456   67.6848  219.5118 H   0  0  0  0  0  0  0  0  0  0  0  0
  146.4285   67.3903  217.0671 H   0  0  0  0  0  0  0  0  0  0  0  0
  146.3688   69.4104  215.5865 H   0  0  0  0  0  0  0  0  0  0  0  0
  145.8451   71.6349  216.5230 H   0  0  0  0  0  0  0  0  0  0  0  0
  145.6646   74.2266  218.3709 H   0  0  0  0  0  0  0  0  0  0  0  0
  145.1835   73.1327  217.0766 H   0  0  0  0  0  0  0  0  0  0  0  0
  143.2552   74.5734  217.8222 H   0  0  0  0  0  0  0  0  0  0  0  0
  142.9235   72.8469  218.1745 H   0  0  0  0  0  0  0  0  0  0  0  0
  139.9299   77.3376  219.3465 H   0  0  0  0  0  0  0  0  0  0  0  0
  138.1498   77.0976  219.4371 H   0  0  0  0  0  0  0  0  0  0  0  0
  139.9221   79.0566  220.8151 H   0  0  0  0  0  0  0  0  0  0  0  0
  138.2564   79.2180  219.9992 H   0  0  0  0  0  0  0  0  0  0  0  0
  1  2  1  0
  2  3  1  0
  3  4  2  0
  3  5  1  0
  5  6  1  0
  6  7  2  0
  7  8  1  0
  8  9  2  0
  9 10  1  0
 10 11  2  0
  5 12  1  0
 12 13  1  0
 13 14  1  0
 14 15  1  0
 15 16  1  0
 16 17  2  0
 16 18  1  0
 18 19  1  0
 18 20  1  0
 20 21  1  0
 21 22  1  0
 22 23  1  0
 23 24  1  0
 24 25  1  0
 25 26  2  0
 26 27  1  0
 27 28  2  0
 28 29  1  0
 29 30  2  0
 24 31  1  0
 31 32  1  0
 15 33  1  0
 33 34  1  0
 11  6  1  0
 34 12  1  0
 32 21  1  0
 30 25  1  0
  1 35  1  0
  1 36  1  0
  1 37  1  0
  2 38  1  0
  2 39  1  0
  7 40  1  0
  8 41  1  0
  9 42  1  0
 10 43  1  0
 11 44  1  0
 12 45  1  0
 13 46  1  0
 13 47  1  0
 14 48  1  0
 14 49  1  0
 18 50  1  6
 19 51  1  0
 19 52  1  0
 20 53  1  0
 20 54  1  0
 22 55  1  0
 22 56  1  0
 23 57  1  0
 23 58  1  0
 26 59  1  0
 27 60  1  0
 28 61  1  0
 29 62  1  0
 30 63  1  0
 31 64  1  0
 31 65  1  0
 32 66  1  0
 32 67  1  0
 33 68  1  0
 33 69  1  0
 34 70  1  0
 34 71  1  0
M  END
>  <smiles>  (27) 
CCC(=O)N(c1ccccc1)C1CCN(C(=O)[C@@H](N)CN2CCN(c3ccccc3)CC2)CC1

>  <score_type>  (27) 
oracle

>  <origin>  (27) 
autodockgpu

>  <m_score__min__energy>  (27) 
-8.5700000000000003

>  <m_primary>  (27) 
energy

>  <rmsd>  (27) 
9.532651800320771

>  <m_score__min__rmsd>  (27) 
9.532651800320771

>  <meeko>  (27) 
{"free_energy": -7.38, "intermolecular_energy": -10.07, "internal_energy": -2.71, "cluster_size": 2, "cluster_id": 2, "rank_in_cluster": 2}

>  <energy>  (27) 
-7.26

>  <cluster_rmsd>  (27) 
1.16

>  <cluster>  (27) 
3

$$$$

     RDKit          3D

 71 74  0  0  0  0  0  0  0  0999 V2000
  136.9110   82.2020  225.9370 C   0  0  0  0  0  0  0  0  0  0  0  0
  137.5730   80.9790  225.3000 C   0  0  0  0  0  0  0  0  0  0  0  0
  137.8140   81.3480  223.8810 C   0  0  0  0  0  0  0  0  0  0  0  0
  137.3230   82.4370  223.4870 O   0  0  0  0  0  0  0  0  0  0  0  0
  138.5710   80.4790  223.0490 N   0  0  0  0  0  0  0  0  0  0  0  0
  139.9880   80.4220  223.1740 C   0  0  0  0  0  0  0  0  0  0  0  0
  140.5030   79.3030  223.8040 C   0  0  0  0  0  0  0  0  0  0  0  0
  141.8770   79.1540  223.9760 C   0  0  0  0  0  0  0  0  0  0  0  0
  142.7330   80.1520  223.5040 C   0  0  0  0  0  0  0  0  0  0  0  0
  142.1920   81.2580  222.8790 C   0  0  0  0  0  0  0  0  0  0  0  0
  140.8230   81.4190  222.7000 C   0  0  0  0  0  0  0  0  0  0  0  0
  137.8510   79.6460  222.0670 C   0  0  0  0  0  0  0  0  0  0  0  0
  136.8600   78.7620  222.7320 C   0  0  0  0  0  0  0  0  0  0  0  0
  136.4340   77.5850  221.9320 C   0  0  0  0  0  0  0  0  0  0  0  0
  137.6350   76.9510  221.4200 N   0  0  0  0  0  0  0  0  0  0  0  0
  137.9110   75.6430  221.8670 C   0  0  0  0  0  0  0  0  0  0  0  0
  137.1060   75.1500  222.7170 O   0  0  0  0  0  0  0  0  0  0  0  0
  139.0860   74.8280  221.3940 C   0  0  1  0  0  0  0  0  0  0  0  0
  139.5710   74.1870  222.6290 N   0  0  0  0  0  0  0  0  0  0  0  0
  138.4900   73.7880  220.4740 C   0  0  0  0  0  0  0  0  0  0  0  0
  139.0540   72.5210  220.7100 N   0  0  0  0  0  0  0  0  0  0  0  0
  140.4380   72.3220  220.6970 C   0  0  0  0  0  0  0  0  0  0  0  0
  141.0210   71.9570  222.0600 C   0  0  0  0  0  0  0  0  0  0  0  0
  140.0650   71.0890  222.7700 N   0  0  0  0  0  0  0  0  0  0  0  0
  140.1360   70.9100  224.1740 C   0  0  0  0  0  0  0  0  0  0  0  0
  139.6200   69.8400  224.8500 C   0  0  0  0  0  0  0  0  0  0  0  0
  139.7060   69.7040  226.2390 C   0  0  0  0  0  0  0  0  0  0  0  0
  140.3370   70.6870  226.9920 C   0  0  0  0  0  0  0  0  0  0  0  0
  140.8680   71.7860  226.3190 C   0  0  0  0  0  0  0  0  0  0  0  0
  140.7640   71.8870  224.9350 C   0  0  0  0  0  0  0  0  0  0  0  0
  139.0710   70.4590  221.9210 C   0  0  0  0  0  0  0  0  0  0  0  0
  138.2220   71.6100  221.4060 C   0  0  0  0  0  0  0  0  0  0  0  0
  138.4520   77.7220  220.5180 C   0  0  0  0  0  0  0  0  0  0  0  0
  138.8310   79.0120  221.1580 C   0  0  0  0  0  0  0  0  0  0  0  0
  136.9579   82.1154  227.0326 H   0  0  0  0  0  0  0  0  0  0  0  0
  137.4394   83.1126  225.6182 H   0  0  0  0  0  0  0  0  0  0  0  0
  135.8597   82.2575  225.6182 H   0  0  0  0  0  0  0  0  0  0  0  0
  138.5237   80.7509  225.8041 H   0  0  0  0  0  0  0  0  0  0  0  0
  136.9403   80.0832  225.3855 H   0  0  0  0  0  0  0  0  0  0  0  0
  139.8204   78.5232  224.1727 H   0  0  0  0  0  0  0  0  0  0  0  0
  142.2827   78.2625  224.4767 H   0  0  0  0  0  0  0  0  0  0  0  0
  143.8219   80.0581  223.6284 H   0  0  0  0  0  0  0  0  0  0  0  0
  142.8699   82.0412  222.5088 H   0  0  0  0  0  0  0  0  0  0  0  0
  140.4165   82.3095  222.1981 H   0  0  0  0  0  0  0  0  0  0  0  0
  137.2126   80.2526  221.4078 H   0  0  0  0  0  0  0  0  0  0  0  0
  137.3042   78.3953  223.6691 H   0  0  0  0  0  0  0  0  0  0  0  0
  135.9579   79.3722  222.8865 H   0  0  0  0  0  0  0  0  0  0  0  0
  135.8781   76.8798  222.5673 H   0  0  0  0  0  0  0  0  0  0  0  0
  135.7756   77.8938  221.1067 H   0  0  0  0  0  0  0  0  0  0  0  0
  139.8867   75.3794  220.8794 H   0  0  0  0  0  0  0  0  0  0  0  0
  139.1810   73.2270  222.7480 H   0  0  0  0  0  0  0  0  0  0  0  0
  139.2960   74.7460  223.4640 H   0  0  0  0  0  0  0  0  0  0  0  0
  137.4047   73.7359  220.6457 H   0  0  0  0  0  0  0  0  0  0  0  0
  138.7032   74.0775  219.4344 H   0  0  0  0  0  0  0  0  0  0  0  0
  140.6646   71.5073  219.9935 H   0  0  0  0  0  0  0  0  0  0  0  0
  140.8960   73.2763  220.3979 H   0  0  0  0  0  0  0  0  0  0  0  0
  141.9734   71.4237  221.9236 H   0  0  0  0  0  0  0  0  0  0  0  0
  141.2014   72.8706  222.6454 H   0  0  0  0  0  0  0  0  0  0  0  0
  139.1142   69.0501  224.2754 H   0  0  0  0  0  0  0  0  0  0  0  0
  139.2753   68.8213  226.7344 H   0  0  0  0  0  0  0  0  0  0  0  0
  140.4150   70.6003  228.0858 H   0  0  0  0  0  0  0  0  0  0  0  0
  141.3738   72.5807  226.8870 H   0  0  0  0  0  0  0  0  0  0  0  0
  141.1914   72.7656  224.4296 H   0  0  0  0  0  0  0  0  0  0  0  0
  139.5530   69.9283  221.0867 H   0  0  0  0  0  0  0  0  0  0  0  0
  138.4743   69.7100  222.4622 H   0  0  0  0  0  0  0  0  0  0  0  0
  137.4491   71.2227  220.7258 H   0  0  0  0  0  0  0  0  0  0  0  0
  137.7364   72.1207  222.2506 H   0  0  0  0  0  0  0  0  0  0  0  0
  139.3620   77.1543  220.2738 H   0  0  0  0  0  0  0  0  0  0  0  0
  137.8843   77.9260  219.5982 H   0  0  0  0  0  0  0  0  0  0  0  0
  139.7484   78.8333  221.7380 H   0  0  0  0  0  0  0  0  0  0  0  0
  138.9286   79.7183  220.3203 H   0  0  0  0  0  0  0  0  0  0  0  0
  1  2  1  0
  2  3  1  0
  3  4  2  0
  3  5  1  0
  5  6  1  0
  6  7  2  0
  7  8  1  0
  8  9  2  0
  9 10  1  0
 10 11  2  0
  5 12  1  0
 12 13  1  0
 13 14  1  0
 14 15  1  0
 15 16  1  0
 16 17  2  0
 16 18  1  0
 18 19  1  0
 18 20  1  0
 20 21  1  0
 21 22  1  0
 22 23  1  0
 23 24  1  0
 24 25  1  0
 25 26  2  0
 26 27  1  0
 27 28  2  0
 28 29  1  0
 29 30  2  0
 24 31  1  0
 31 32  1  0
 15 33  1  0
 33 34  1  0
 11  6  1  0
 34 12  1  0
 32 21  1  0
 30 25  1  0
  1 35  1  0
  1 36  1  0
  1 37  1  0
  2 38  1  0
  2 39  1  0
  7 40  1  0
  8 41  1  0
  9 42  1  0
 10 43  1  0
 11 44  1  0
 12 45  1  0
 13 46  1  0
 13 47  1  0
 14 48  1  0
 14 49  1  0
 18 50  1  6
 19 51  1  0
 19 52  1  0
 20 53  1  0
 20 54  1  0
 22 55  1  0
 22 56  1  0
 23 57  1  0
 23 58  1  0
 26 59  1  0
 27 60  1  0
 28 61  1  0
 29 62  1  0
 30 63  1  0
 31 64  1  0
 31 65  1  0
 32 66  1  0
 32 67  1  0
 33 68  1  0
 33 69  1  0
 34 70  1  0
 34 71  1  0
M  END
>  <smiles>  (28) 
CCC(=O)N(c1ccccc1)C1CCN(C(=O)[C@@H](N)CN2CCN(c3ccccc3)CC2)CC1

>  <score_type>  (28) 
oracle

>  <origin>  (28) 
autodockgpu

>  <m_score__min__energy>  (28) 
-8.5700000000000003

>  <m_primary>  (28) 
energy

>  <rmsd>  (28) 
8.284510698184823

>  <m_score__min__rmsd>  (28) 
8.284510698184823

>  <meeko>  (28) 
{"free_energy": -7.71, "intermolecular_energy": -10.39, "internal_energy": -2.89, "cluster_size": 3, "cluster_id": 5, "rank_in_cluster": 2}

>  <energy>  (28) 
-7.19

>  <cluster_rmsd>  (28) 
1.07

>  <cluster>  (28) 
3

$$$$

     RDKit          3D

 71 74  0  0  0  0  0  0  0  0999 V2000
  136.5910   81.2880  225.6220 C   0  0  0  0  0  0  0  0  0  0  0  0
  137.9360   81.0410  224.9360 C   0  0  0  0  0  0  0  0  0  0  0  0
  137.6210   80.2940  223.6910 C   0  0  0  0  0  0  0  0  0  0  0  0
  136.4140   80.2740  223.3340 O   0  0  0  0  0  0  0  0  0  0  0  0
  138.6660   79.6510  222.9740 N   0  0  0  0  0  0  0  0  0  0  0  0
  140.0200   80.0380  223.1810 C   0  0  0  0  0  0  0  0  0  0  0  0
  140.8550   79.0790  223.7280 C   0  0  0  0  0  0  0  0  0  0  0  0
  142.1970   79.3610  223.9690 C   0  0  0  0  0  0  0  0  0  0  0  0
  142.6930   80.6290  223.6530 C   0  0  0  0  0  0  0  0  0  0  0  0
  141.8380   81.5670  223.1090 C   0  0  0  0  0  0  0  0  0  0  0  0
  140.4970   81.2990  222.8620 C   0  0  0  0  0  0  0  0  0  0  0  0
  138.3080   78.5810  222.0230 C   0  0  0  0  0  0  0  0  0  0  0  0
  138.2100   77.2650  222.7040 C   0  0  0  0  0  0  0  0  0  0  0  0
  138.3250   76.0860  221.8060 C   0  0  0  0  0  0  0  0  0  0  0  0
  139.4830   76.2990  220.9580 N   0  0  0  0  0  0  0  0  0  0  0  0
  140.5550   75.3940  221.0970 C   0  0  0  0  0  0  0  0  0  0  0  0
  140.4320   74.4980  221.9880 O   0  0  0  0  0  0  0  0  0  0  0  0
  141.8050   75.4440  220.2570 C   0  0  1  0  0  0  0  0  0  0  0  0
  142.2970   76.8170  220.4680 N   0  0  0  0  0  0  0  0  0  0  0  0
  142.7470   74.4550  220.9050 C   0  0  0  0  0  0  0  0  0  0  0  0
  143.7730   74.0790  220.0190 N   0  0  0  0  0  0  0  0  0  0  0  0
  145.1110   74.0460  220.4230 C   0  0  0  0  0  0  0  0  0  0  0  0
  145.7100   72.6420  220.4570 C   0  0  0  0  0  0  0  0  0  0  0  0
  145.1640   71.8630  219.3310 N   0  0  0  0  0  0  0  0  0  0  0  0
  145.2170   70.4470  219.3200 C   0  0  0  0  0  0  0  0  0  0  0  0
  146.2970   69.7120  218.9200 C   0  0  0  0  0  0  0  0  0  0  0  0
  146.3080   68.3130  218.9180 C   0  0  0  0  0  0  0  0  0  0  0  0
  145.1810   67.6140  219.3350 C   0  0  0  0  0  0  0  0  0  0  0  0
  144.0700   68.3490  219.7450 C   0  0  0  0  0  0  0  0  0  0  0  0
  144.0970   69.7390  219.7340 C   0  0  0  0  0  0  0  0  0  0  0  0
  144.5770   72.6620  218.2700 C   0  0  0  0  0  0  0  0  0  0  0  0
  143.3580   73.3090  218.9070 C   0  0  0  0  0  0  0  0  0  0  0  0
  139.4440   77.4280  220.0640 C   0  0  0  0  0  0  0  0  0  0  0  0
  139.1860   78.6740  220.8360 C   0  0  0  0  0  0  0  0  0  0  0  0
  136.7260   81.2632  226.7134 H   0  0  0  0  0  0  0  0  0  0  0  0
  136.2022   82.2726  225.3229 H   0  0  0  0  0  0  0  0  0  0  0  0
  135.8777   80.5058  225.3229 H   0  0  0  0  0  0  0  0  0  0  0  0
  138.4256   81.9965  224.6965 H   0  0  0  0  0  0  0  0  0  0  0  0
  138.6249   80.4788  225.5836 H   0  0  0  0  0  0  0  0  0  0  0  0
  140.4545   78.0846  223.9746 H   0  0  0  0  0  0  0  0  0  0  0  0
  142.8581   78.5961  224.4023 H   0  0  0  0  0  0  0  0  0  0  0  0
  143.7493   80.8761  223.8351 H   0  0  0  0  0  0  0  0  0  0  0  0
  142.2331   82.5634  222.8620 H   0  0  0  0  0  0  0  0  0  0  0  0
  139.8358   82.0631  222.4274 H   0  0  0  0  0  0  0  0  0  0  0  0
  137.2905   78.7108  221.6257 H   0  0  0  0  0  0  0  0  0  0  0  0
  139.0156   77.2057  223.4507 H   0  0  0  0  0  0  0  0  0  0  0  0
  137.2034   77.2199  223.1453 H   0  0  0  0  0  0  0  0  0  0  0  0
  138.4582   75.1710  222.4018 H   0  0  0  0  0  0  0  0  0  0  0  0
  137.4149   75.9692  221.1992 H   0  0  0  0  0  0  0  0  0  0  0  0
  141.6844   75.2128  219.1884 H   0  0  0  0  0  0  0  0  0  0  0  0
  143.3100   76.9070  220.2400 H   0  0  0  0  0  0  0  0  0  0  0  0
  142.1680   77.1040  221.4610 H   0  0  0  0  0  0  0  0  0  0  0  0
  143.1942   74.9165  221.7978 H   0  0  0  0  0  0  0  0  0  0  0  0
  142.1755   73.5562  221.1801 H   0  0  0  0  0  0  0  0  0  0  0  0
  145.6997   74.6574  219.7233 H   0  0  0  0  0  0  0  0  0  0  0  0
  145.1446   74.4336  221.4519 H   0  0  0  0  0  0  0  0  0  0  0  0
  146.8044   72.7051  220.3661 H   0  0  0  0  0  0  0  0  0  0  0  0
  145.4558   72.1511  221.4080 H   0  0  0  0  0  0  0  0  0  0  0  0
  147.1990   70.2445  218.5842 H   0  0  0  0  0  0  0  0  0  0  0  0
  147.2048   67.7683  218.5878 H   0  0  0  0  0  0  0  0  0  0  0  0
  145.1665   66.5141  219.3412 H   0  0  0  0  0  0  0  0  0  0  0  0
  143.1632   67.8244  220.0804 H   0  0  0  0  0  0  0  0  0  0  0  0
  143.2056   70.2934  220.0626 H   0  0  0  0  0  0  0  0  0  0  0  0
  145.2862   73.4278  217.9228 H   0  0  0  0  0  0  0  0  0  0  0  0
  144.3160   72.0579  217.3885 H   0  0  0  0  0  0  0  0  0  0  0  0
  142.8601   73.9597  218.1731 H   0  0  0  0  0  0  0  0  0  0  0  0
  142.6537   72.5307  219.2361 H   0  0  0  0  0  0  0  0  0  0  0  0
  140.4088   77.5146  219.5428 H   0  0  0  0  0  0  0  0  0  0  0  0
  138.6378   77.2822  219.3299 H   0  0  0  0  0  0  0  0  0  0  0  0
  140.1595   79.0560  221.1772 H   0  0  0  0  0  0  0  0  0  0  0  0
  138.6392   79.3243  220.1374 H   0  0  0  0  0  0  0  0  0  0  0  0
  1  2  1  0
  2  3  1  0
  3  4  2  0
  3  5  1  0
  5  6  1  0
  6  7  2  0
  7  8  1  0
  8  9  2  0
  9 10  1  0
 10 11  2  0
  5 12  1  0
 12 13  1  0
 13 14  1  0
 14 15  1  0
 15 16  1  0
 16 17  2  0
 16 18  1  0
 18 19  1  0
 18 20  1  0
 20 21  1  0
 21 22  1  0
 22 23  1  0
 23 24  1  0
 24 25  1  0
 25 26  2  0
 26 27  1  0
 27 28  2  0
 28 29  1  0
 29 30  2  0
 24 31  1  0
 31 32  1  0
 15 33  1  0
 33 34  1  0
 11  6  1  0
 34 12  1  0
 32 21  1  0
 30 25  1  0
  1 35  1  0
  1 36  1  0
  1 37  1  0
  2 38  1  0
  2 39  1  0
  7 40  1  0
  8 41  1  0
  9 42  1  0
 10 43  1  0
 11 44  1  0
 12 45  1  0
 13 46  1  0
 13 47  1  0
 14 48  1  0
 14 49  1  0
 18 50  1  6
 19 51  1  0
 19 52  1  0
 20 53  1  0
 20 54  1  0
 22 55  1  0
 22 56  1  0
 23 57  1  0
 23 58  1  0
 26 59  1  0
 27 60  1  0
 28 61  1  0
 29 62  1  0
 30 63  1  0
 31 64  1  0
 31 65  1  0
 32 66  1  0
 32 67  1  0
 33 68  1  0
 33 69  1  0
 34 70  1  0
 34 71  1  0
M  END
>  <smiles>  (29) 
CCC(=O)N(c1ccccc1)C1CCN(C(=O)[C@@H](N)CN2CCN(c3ccccc3)CC2)CC1

>  <score_type>  (29) 
oracle

>  <origin>  (29) 
autodockgpu

>  <m_score__min__energy>  (29) 
-8.5700000000000003

>  <m_primary>  (29) 
energy

>  <rmsd>  (29) 
9.695637816231194

>  <m_score__min__rmsd>  (29) 
9.695637816231194

>  <meeko>  (29) 
{"free_energy": -8.21, "intermolecular_energy": -10.89, "internal_energy": -2.1, "cluster_size": 2, "cluster_id": 2, "rank_in_cluster": 1}

>  <energy>  (29) 
-7.17

>  <cluster_rmsd>  (29) 
1.93

>  <cluster>  (29) 
3

$$$$

     RDKit          3D

 71 74  0  0  0  0  0  0  0  0999 V2000
  143.0120   81.8120  217.4470 C   0  0  0  0  0  0  0  0  0  0  0  0
  141.8560   81.5820  218.4220 C   0  0  0  0  0  0  0  0  0  0  0  0
  141.9970   80.1780  218.8880 C   0  0  0  0  0  0  0  0  0  0  0  0
  142.8190   79.4560  218.2670 O   0  0  0  0  0  0  0  0  0  0  0  0
  141.2200   79.7220  219.9870 N   0  0  0  0  0  0  0  0  0  0  0  0
  141.6430   79.9830  221.3210 C   0  0  0  0  0  0  0  0  0  0  0  0
  141.4900   81.2840  221.7690 C   0  0  0  0  0  0  0  0  0  0  0  0
  141.8740   81.6410  223.0590 C   0  0  0  0  0  0  0  0  0  0  0  0
  142.4190   80.6660  223.9000 C   0  0  0  0  0  0  0  0  0  0  0  0
  142.5610   79.3770  223.4270 C   0  0  0  0  0  0  0  0  0  0  0  0
  142.1810   79.0070  222.1420 C   0  0  0  0  0  0  0  0  0  0  0  0
  139.9750   78.9810  219.7050 C   0  0  0  0  0  0  0  0  0  0  0  0
  139.0810   78.9570  220.8900 C   0  0  0  0  0  0  0  0  0  0  0  0
  138.0580   77.8790  220.8820 C   0  0  0  0  0  0  0  0  0  0  0  0
  138.7390   76.6400  220.5530 N   0  0  0  0  0  0  0  0  0  0  0  0
  138.7520   75.6320  221.5400 C   0  0  0  0  0  0  0  0  0  0  0  0
  138.2060   75.9170  222.6500 O   0  0  0  0  0  0  0  0  0  0  0  0
  139.3690   74.2730  221.3380 C   0  0  1  0  0  0  0  0  0  0  0  0
  139.6970   73.8460  222.7090 N   0  0  0  0  0  0  0  0  0  0  0  0
  138.2510   73.4190  220.7860 C   0  0  0  0  0  0  0  0  0  0  0  0
  138.3620   72.0900  221.2330 N   0  0  0  0  0  0  0  0  0  0  0  0
  139.4990   71.3210  220.9670 C   0  0  0  0  0  0  0  0  0  0  0  0
  140.3110   70.9700  222.2130 C   0  0  0  0  0  0  0  0  0  0  0  0
  139.3830   70.7200  223.3300 N   0  0  0  0  0  0  0  0  0  0  0  0
  139.8240   70.7600  224.6760 C   0  0  0  0  0  0  0  0  0  0  0  0
  139.4330   69.8850  225.6500 C   0  0  0  0  0  0  0  0  0  0  0  0
  139.8880   69.9620  226.9710 C   0  0  0  0  0  0  0  0  0  0  0  0
  140.7780   70.9650  227.3370 C   0  0  0  0  0  0  0  0  0  0  0  0
  141.1870   71.8660  226.3550 C   0  0  0  0  0  0  0  0  0  0  0  0
  140.7140   71.7580  225.0520 C   0  0  0  0  0  0  0  0  0  0  0  0
  138.0140   70.4450  222.9330 C   0  0  0  0  0  0  0  0  0  0  0  0
  137.5240   71.7470  222.3210 C   0  0  0  0  0  0  0  0  0  0  0  0
  139.3600   76.5560  219.2550 C   0  0  0  0  0  0  0  0  0  0  0  0
  140.3150   77.6840  219.0790 C   0  0  0  0  0  0  0  0  0  0  0  0
  143.9374   81.9961  218.0124 H   0  0  0  0  0  0  0  0  0  0  0  0
  143.1402   80.9218  216.8137 H   0  0  0  0  0  0  0  0  0  0  0  0
  142.7897   82.6835  216.8137 H   0  0  0  0  0  0  0  0  0  0  0  0
  141.9266   82.2771  219.2716 H   0  0  0  0  0  0  0  0  0  0  0  0
  140.8807   81.7553  217.9438 H   0  0  0  0  0  0  0  0  0  0  0  0
  141.0607   82.0435  221.0990 H   0  0  0  0  0  0  0  0  0  0  0  0
  141.7503   82.6756  223.4115 H   0  0  0  0  0  0  0  0  0  0  0  0
  142.7301   80.9224  224.9235 H   0  0  0  0  0  0  0  0  0  0  0  0
  142.9911   78.6137  224.0921 H   0  0  0  0  0  0  0  0  0  0  0  0
  142.3038   77.9724  221.7891 H   0  0  0  0  0  0  0  0  0  0  0  0
  139.3535   79.4964  218.9580 H   0  0  0  0  0  0  0  0  0  0  0  0
  139.7055   78.8284  221.7863 H   0  0  0  0  0  0  0  0  0  0  0  0
  138.5270   79.9072  220.8770 H   0  0  0  0  0  0  0  0  0  0  0  0
  137.5882   77.7985  221.8734 H   0  0  0  0  0  0  0  0  0  0  0  0
  137.2688   78.0965  220.1473 H   0  0  0  0  0  0  0  0  0  0  0  0
  140.2462   74.2282  220.6758 H   0  0  0  0  0  0  0  0  0  0  0  0
  139.0910   73.0590  223.0270 H   0  0  0  0  0  0  0  0  0  0  0  0
  139.5720   74.6340  223.3790 H   0  0  0  0  0  0  0  0  0  0  0  0
  137.2866   73.8306  221.1184 H   0  0  0  0  0  0  0  0  0  0  0  0
  138.3157   73.4252  219.6879 H   0  0  0  0  0  0  0  0  0  0  0  0
  139.1798   70.3847  220.4859 H   0  0  0  0  0  0  0  0  0  0  0  0
  140.1508   71.9259  220.3195 H   0  0  0  0  0  0  0  0  0  0  0  0
  140.9105   70.0678  222.0215 H   0  0  0  0  0  0  0  0  0  0  0  0
  140.9851   71.8016  222.4662 H   0  0  0  0  0  0  0  0  0  0  0  0
  138.7284   69.0835  225.3834 H   0  0  0  0  0  0  0  0  0  0  0  0
  139.5426   69.2313  227.7172 H   0  0  0  0  0  0  0  0  0  0  0  0
  141.1482   71.0453  228.3697 H   0  0  0  0  0  0  0  0  0  0  0  0
  141.8911   72.6706  226.6136 H   0  0  0  0  0  0  0  0  0  0  0  0
  141.0541   72.4831  224.2979 H   0  0  0  0  0  0  0  0  0  0  0  0
  137.9800   69.6313  222.1936 H   0  0  0  0  0  0  0  0  0  0  0  0
  137.3909   70.1213  223.7797 H   0  0  0  0  0  0  0  0  0  0  0  0
  136.4908   71.6212  221.9651 H   0  0  0  0  0  0  0  0  0  0  0  0
  137.5512   72.5458  223.0768 H   0  0  0  0  0  0  0  0  0  0  0  0
  139.9017   75.6024  219.1704 H   0  0  0  0  0  0  0  0  0  0  0  0
  138.5844   76.6121  218.4770 H   0  0  0  0  0  0  0  0  0  0  0  0
  141.2818   77.3630  219.4941 H   0  0  0  0  0  0  0  0  0  0  0  0
  140.3062   77.8878  217.9981 H   0  0  0  0  0  0  0  0  0  0  0  0
  1  2  1  0
  2  3  1  0
  3  4  2  0
  3  5  1  0
  5  6  1  0
  6  7  2  0
  7  8  1  0
  8  9  2  0
  9 10  1  0
 10 11  2  0
  5 12  1  0
 12 13  1  0
 13 14  1  0
 14 15  1  0
 15 16  1  0
 16 17  2  0
 16 18  1  0
 18 19  1  0
 18 20  1  0
 20 21  1  0
 21 22  1  0
 22 23  1  0
 23 24  1  0
 24 25  1  0
 25 26  2  0
 26 27  1  0
 27 28  2  0
 28 29  1  0
 29 30  2  0
 24 31  1  0
 31 32  1  0
 15 33  1  0
 33 34  1  0
 11  6  1  0
 34 12  1  0
 32 21  1  0
 30 25  1  0
  1 35  1  0
  1 36  1  0
  1 37  1  0
  2 38  1  0
  2 39  1  0
  7 40  1  0
  8 41  1  0
  9 42  1  0
 10 43  1  0
 11 44  1  0
 12 45  1  0
 13 46  1  0
 13 47  1  0
 14 48  1  0
 14 49  1  0
 18 50  1  6
 19 51  1  0
 19 52  1  0
 20 53  1  0
 20 54  1  0
 22 55  1  0
 22 56  1  0
 23 57  1  0
 23 58  1  0
 26 59  1  0
 27 60  1  0
 28 61  1  0
 29 62  1  0
 30 63  1  0
 31 64  1  0
 31 65  1  0
 32 66  1  0
 32 67  1  0
 33 68  1  0
 33 69  1  0
 34 70  1  0
 34 71  1  0
M  END
>  <smiles>  (30) 
CCC(=O)N(c1ccccc1)C1CCN(C(=O)[C@@H](N)CN2CCN(c3ccccc3)CC2)CC1

>  <score_type>  (30) 
oracle

>  <origin>  (30) 
autodockgpu

>  <m_score__min__energy>  (30) 
-8.5700000000000003

>  <m_primary>  (30) 
energy

>  <rmsd>  (30) 
8.443673880849312

>  <m_score__min__rmsd>  (30) 
8.443673880849312

>  <meeko>  (30) 
{"free_energy": -7.65, "intermolecular_energy": -10.33, "internal_energy": -3.29, "cluster_size": 26, "cluster_id": 3, "rank_in_cluster": 15}

>  <energy>  (30) 
-7.16

>  <cluster_rmsd>  (30) 
1.18

>  <cluster>  (30) 
3

$$$$

     RDKit          3D

 71 74  0  0  0  0  0  0  0  0999 V2000
  142.5400   80.3290  218.2490 C   0  0  0  0  0  0  0  0  0  0  0  0
  141.3690   81.2910  218.0440 C   0  0  0  0  0  0  0  0  0  0  0  0
  140.9350   81.6910  219.4060 C   0  0  0  0  0  0  0  0  0  0  0  0
  140.9260   82.9240  219.6590 O   0  0  0  0  0  0  0  0  0  0  0  0
  140.5560   80.6930  220.3440 N   0  0  0  0  0  0  0  0  0  0  0  0
  141.2730   80.5470  221.5650 C   0  0  0  0  0  0  0  0  0  0  0  0
  141.3480   81.6710  222.3690 C   0  0  0  0  0  0  0  0  0  0  0  0
  142.0280   81.6300  223.5840 C   0  0  0  0  0  0  0  0  0  0  0  0
  142.6370   80.4370  223.9820 C   0  0  0  0  0  0  0  0  0  0  0  0
  142.5460   79.3310  223.1600 C   0  0  0  0  0  0  0  0  0  0  0  0
  141.8700   79.3580  221.9460 C   0  0  0  0  0  0  0  0  0  0  0  0
  139.4070   79.8250  220.0170 C   0  0  0  0  0  0  0  0  0  0  0  0
  138.5320   79.6200  221.1990 C   0  0  0  0  0  0  0  0  0  0  0  0
  137.6480   78.4280  221.1250 C   0  0  0  0  0  0  0  0  0  0  0  0
  138.4700   77.3040  220.7180 N   0  0  0  0  0  0  0  0  0  0  0  0
  138.6130   76.2460  221.6390 C   0  0  0  0  0  0  0  0  0  0  0  0
  138.0470   76.3920  222.7660 O   0  0  0  0  0  0  0  0  0  0  0  0
  139.3890   74.9870  221.3520 C   0  0  1  0  0  0  0  0  0  0  0  0
  139.5560   74.3840  222.6860 N   0  0  0  0  0  0  0  0  0  0  0  0
  138.4560   74.1400  220.5180 C   0  0  0  0  0  0  0  0  0  0  0  0
  138.7180   72.7690  220.6990 N   0  0  0  0  0  0  0  0  0  0  0  0
  139.9910   72.2330  220.4840 C   0  0  0  0  0  0  0  0  0  0  0  0
  140.6650   71.7180  221.7530 C   0  0  0  0  0  0  0  0  0  0  0  0
  139.6440   71.1060  222.6200 N   0  0  0  0  0  0  0  0  0  0  0  0
  139.8790   70.8970  224.0020 C   0  0  0  0  0  0  0  0  0  0  0  0
  139.4800   69.7940  224.7020 C   0  0  0  0  0  0  0  0  0  0  0  0
  139.7280   69.6280  226.0690 C   0  0  0  0  0  0  0  0  0  0  0  0
  140.4070   70.6160  226.7720 C   0  0  0  0  0  0  0  0  0  0  0  0
  140.8210   71.7490  226.0730 C   0  0  0  0  0  0  0  0  0  0  0  0
  140.5570   71.8780  224.7130 C   0  0  0  0  0  0  0  0  0  0  0  0
  138.4070   70.7540  221.9460 C   0  0  0  0  0  0  0  0  0  0  0  0
  137.8020   72.0850  221.5340 C   0  0  0  0  0  0  0  0  0  0  0  0
  139.0860   77.3760  219.4170 C   0  0  0  0  0  0  0  0  0  0  0  0
  139.8960   78.6200  219.3110 C   0  0  0  0  0  0  0  0  0  0  0  0
  142.7133   80.1866  219.3259 H   0  0  0  0  0  0  0  0  0  0  0  0
  142.3043   79.3602  217.7843 H   0  0  0  0  0  0  0  0  0  0  0  0
  143.4446   80.7482  217.7843 H   0  0  0  0  0  0  0  0  0  0  0  0
  141.6923   82.1721  217.4702 H   0  0  0  0  0  0  0  0  0  0  0  0
  140.5509   80.8204  217.4789 H   0  0  0  0  0  0  0  0  0  0  0  0
  140.8662   82.6054  222.0455 H   0  0  0  0  0  0  0  0  0  0  0  0
  142.0848   82.5246  224.2215 H   0  0  0  0  0  0  0  0  0  0  0  0
  143.1810   80.3796  224.9363 H   0  0  0  0  0  0  0  0  0  0  0  0
  143.0264   78.3939  223.4779 H   0  0  0  0  0  0  0  0  0  0  0  0
  141.8114   78.4634  221.3087 H   0  0  0  0  0  0  0  0  0  0  0  0
  138.7216   80.3062  219.3038 H   0  0  0  0  0  0  0  0  0  0  0  0
  139.1747   79.5140  222.0854 H   0  0  0  0  0  0  0  0  0  0  0  0
  137.8665   80.4947  221.2450 H   0  0  0  0  0  0  0  0  0  0  0  0
  137.2007   78.2297  222.1102 H   0  0  0  0  0  0  0  0  0  0  0  0
  136.8319   78.5932  220.4062 H   0  0  0  0  0  0  0  0  0  0  0  0
  140.3530   75.1138  220.8375 H   0  0  0  0  0  0  0  0  0  0  0  0
  139.0500   73.4760  222.7690 H   0  0  0  0  0  0  0  0  0  0  0  0
  139.1900   75.0200  223.4250 H   0  0  0  0  0  0  0  0  0  0  0  0
  137.4179   74.3497  220.8154 H   0  0  0  0  0  0  0  0  0  0  0  0
  138.6122   74.3885  219.4579 H   0  0  0  0  0  0  0  0  0  0  0  0
  139.8999   71.3963  219.7757 H   0  0  0  0  0  0  0  0  0  0  0  0
  140.6200   73.0473  220.0951 H   0  0  0  0  0  0  0  0  0  0  0  0
  141.4240   70.9668  221.4893 H   0  0  0  0  0  0  0  0  0  0  0  0
  141.1519   72.5511  222.2811 H   0  0  0  0  0  0  0  0  0  0  0  0
  138.9390   68.9999  224.1665 H   0  0  0  0  0  0  0  0  0  0  0  0
  139.3867   68.7187  226.5854 H   0  0  0  0  0  0  0  0  0  0  0  0
  140.6116   70.5074  227.8473 H   0  0  0  0  0  0  0  0  0  0  0  0
  141.3613   72.5482  226.6015 H   0  0  0  0  0  0  0  0  0  0  0  0
  140.8950   72.7826  224.1863 H   0  0  0  0  0  0  0  0  0  0  0  0
  138.6099   70.1300  221.0632 H   0  0  0  0  0  0  0  0  0  0  0  0
  137.7324   70.1712  222.5904 H   0  0  0  0  0  0  0  0  0  0  0  0
  136.8639   71.9101  220.9868 H   0  0  0  0  0  0  0  0  0  0  0  0
  137.5910   72.6900  222.4282 H   0  0  0  0  0  0  0  0  0  0  0  0
  139.7383   76.5021  219.2729 H   0  0  0  0  0  0  0  0  0  0  0  0
  138.3030   77.3854  218.6444 H   0  0  0  0  0  0  0  0  0  0  0  0
  140.8979   78.3934  219.7044 H   0  0  0  0  0  0  0  0  0  0  0  0
  139.8535   78.8877  218.2449 H   0  0  0  0  0  0  0  0  0  0  0  0
  1  2  1  0
  2  3  1  0
  3  4  2  0
  3  5  1  0
  5  6  1  0
  6  7  2  0
  7  8  1  0
  8  9  2  0
  9 10  1  0
 10 11  2  0
  5 12  1  0
 12 13  1  0
 13 14  1  0
 14 15  1  0
 15 16  1  0
 16 17  2  0
 16 18  1  0
 18 19  1  0
 18 20  1  0
 20 21  1  0
 21 22  1  0
 22 23  1  0
 23 24  1  0
 24 25  1  0
 25 26  2  0
 26 27  1  0
 27 28  2  0
 28 29  1  0
 29 30  2  0
 24 31  1  0
 31 32  1  0
 15 33  1  0
 33 34  1  0
 11  6  1  0
 34 12  1  0
 32 21  1  0
 30 25  1  0
  1 35  1  0
  1 36  1  0
  1 37  1  0
  2 38  1  0
  2 39  1  0
  7 40  1  0
  8 41  1  0
  9 42  1  0
 10 43  1  0
 11 44  1  0
 12 45  1  0
 13 46  1  0
 13 47  1  0
 14 48  1  0
 14 49  1  0
 18 50  1  6
 19 51  1  0
 19 52  1  0
 20 53  1  0
 20 54  1  0
 22 55  1  0
 22 56  1  0
 23 57  1  0
 23 58  1  0
 26 59  1  0
 27 60  1  0
 28 61  1  0
 29 62  1  0
 30 63  1  0
 31 64  1  0
 31 65  1  0
 32 66  1  0
 32 67  1  0
 33 68  1  0
 33 69  1  0
 34 70  1  0
 34 71  1  0
M  END
>  <smiles>  (31) 
CCC(=O)N(c1ccccc1)C1CCN(C(=O)[C@@H](N)CN2CCN(c3ccccc3)CC2)CC1

>  <score_type>  (31) 
oracle

>  <origin>  (31) 
autodockgpu

>  <m_score__min__energy>  (31) 
-8.5700000000000003

>  <m_primary>  (31) 
energy

>  <rmsd>  (31) 
8.224969016633443

>  <m_score__min__rmsd>  (31) 
8.224969016633443

>  <meeko>  (31) 
{"free_energy": -7.16, "intermolecular_energy": -9.84, "internal_energy": -3.41, "cluster_size": 26, "cluster_id": 3, "rank_in_cluster": 25}

>  <energy>  (31) 
-7.12

>  <cluster_rmsd>  (31) 
1.89

>  <cluster>  (31) 
3

$$$$

     RDKit          3D

 71 74  0  0  0  0  0  0  0  0999 V2000
  141.8150   80.6250  216.8260 C   0  0  0  0  0  0  0  0  0  0  0  0
  142.3960   80.7860  218.2320 C   0  0  0  0  0  0  0  0  0  0  0  0
  142.2080   79.4700  218.8960 C   0  0  0  0  0  0  0  0  0  0  0  0
  142.8860   78.5090  218.4500 O   0  0  0  0  0  0  0  0  0  0  0  0
  141.2950   79.3550  219.9790 N   0  0  0  0  0  0  0  0  0  0  0  0
  141.6560   79.8250  221.2730 C   0  0  0  0  0  0  0  0  0  0  0  0
  141.4340   81.1690  221.5210 C   0  0  0  0  0  0  0  0  0  0  0  0
  141.7540   81.7250  222.7570 C   0  0  0  0  0  0  0  0  0  0  0  0
  142.3060   80.9080  223.7470 C   0  0  0  0  0  0  0  0  0  0  0  0
  142.5170   79.5720  223.4730 C   0  0  0  0  0  0  0  0  0  0  0  0
  142.2010   79.0030  222.2450 C   0  0  0  0  0  0  0  0  0  0  0  0
  139.9770   78.7420  219.7220 C   0  0  0  0  0  0  0  0  0  0  0  0
  139.1050   78.8140  220.9230 C   0  0  0  0  0  0  0  0  0  0  0  0
  137.9790   77.8450  220.9380 C   0  0  0  0  0  0  0  0  0  0  0  0
  138.5250   76.5420  220.6030 N   0  0  0  0  0  0  0  0  0  0  0  0
  138.4540   75.5420  221.5950 C   0  0  0  0  0  0  0  0  0  0  0  0
  137.9590   75.8840  222.7130 O   0  0  0  0  0  0  0  0  0  0  0  0
  138.9260   74.1270  221.3900 C   0  0  1  0  0  0  0  0  0  0  0  0
  139.6190   73.8170  222.6530 N   0  0  0  0  0  0  0  0  0  0  0  0
  137.6610   73.3070  221.2830 C   0  0  0  0  0  0  0  0  0  0  0  0
  137.8610   72.0010  221.7650 N   0  0  0  0  0  0  0  0  0  0  0  0
  138.9610   71.2350  221.3670 C   0  0  0  0  0  0  0  0  0  0  0  0
  139.9530   70.9500  222.4920 C   0  0  0  0  0  0  0  0  0  0  0  0
  139.2060   70.7400  223.7440 N   0  0  0  0  0  0  0  0  0  0  0  0
  139.8400   70.8450  225.0070 C   0  0  0  0  0  0  0  0  0  0  0  0
  140.7330   71.8210  225.3520 C   0  0  0  0  0  0  0  0  0  0  0  0
  141.3420   71.8850  226.6090 C   0  0  0  0  0  0  0  0  0  0  0  0
  141.0460   70.9270  227.5710 C   0  0  0  0  0  0  0  0  0  0  0  0
  140.1370   69.9240  227.2350 C   0  0  0  0  0  0  0  0  0  0  0  0
  139.5510   69.8910  225.9740 C   0  0  0  0  0  0  0  0  0  0  0  0
  137.7990   70.4310  223.5670 C   0  0  0  0  0  0  0  0  0  0  0  0
  137.1990   71.6970  222.9790 C   0  0  0  0  0  0  0  0  0  0  0  0
  139.1120   76.3910  219.2960 C   0  0  0  0  0  0  0  0  0  0  0  0
  140.1730   77.4160  219.0980 C   0  0  0  0  0  0  0  0  0  0  0  0
  140.7572   80.3319  216.8977 H   0  0  0  0  0  0  0  0  0  0  0  0
  141.8952   81.5792  216.2847 H   0  0  0  0  0  0  0  0  0  0  0  0
  142.3749   79.8482  216.2847 H   0  0  0  0  0  0  0  0  0  0  0  0
  143.4650   81.0399  218.1788 H   0  0  0  0  0  0  0  0  0  0  0  0
  141.8999   81.5960  218.7868 H   0  0  0  0  0  0  0  0  0  0  0  0
  141.0007   81.8037  220.7340 H   0  0  0  0  0  0  0  0  0  0  0  0
  141.5746   82.7927  222.9513 H   0  0  0  0  0  0  0  0  0  0  0  0
  142.5687   81.3238  224.7309 H   0  0  0  0  0  0  0  0  0  0  0  0
  142.9517   78.9334  224.2561 H   0  0  0  0  0  0  0  0  0  0  0  0
  142.3780   77.9347  222.0515 H   0  0  0  0  0  0  0  0  0  0  0  0
  139.3978   79.3139  218.9821 H   0  0  0  0  0  0  0  0  0  0  0  0
  139.7286   78.6269  221.8096 H   0  0  0  0  0  0  0  0  0  0  0  0
  138.6499   79.8154  220.9139 H   0  0  0  0  0  0  0  0  0  0  0  0
  137.5213   77.8154  221.9378 H   0  0  0  0  0  0  0  0  0  0  0  0
  137.2031   78.1390  220.2159 H   0  0  0  0  0  0  0  0  0  0  0  0
  139.5703   73.9500  220.5162 H   0  0  0  0  0  0  0  0  0  0  0  0
  139.1970   72.9960  223.1370 H   0  0  0  0  0  0  0  0  0  0  0  0
  139.5730   74.6280  223.3050 H   0  0  0  0  0  0  0  0  0  0  0  0
  136.8687   73.7903  221.8735 H   0  0  0  0  0  0  0  0  0  0  0  0
  137.3722   73.2475  220.2233 H   0  0  0  0  0  0  0  0  0  0  0  0
  138.5922   70.2744  220.9782 H   0  0  0  0  0  0  0  0  0  0  0  0
  139.4992   71.8187  220.6056 H   0  0  0  0  0  0  0  0  0  0  0  0
  140.5337   70.0470  222.2525 H   0  0  0  0  0  0  0  0  0  0  0  0
  140.6415   71.8002  222.6065 H   0  0  0  0  0  0  0  0  0  0  0  0
  140.9837   72.5906  224.6071 H   0  0  0  0  0  0  0  0  0  0  0  0
  142.0540   72.6922  226.8359 H   0  0  0  0  0  0  0  0  0  0  0  0
  141.5138   70.9587  228.5661 H   0  0  0  0  0  0  0  0  0  0  0  0
  139.8809   69.1512  227.9748 H   0  0  0  0  0  0  0  0  0  0  0  0
  138.8389   69.0870  225.7361 H   0  0  0  0  0  0  0  0  0  0  0  0
  137.6714   69.5840  222.8768 H   0  0  0  0  0  0  0  0  0  0  0  0
  137.3144   70.1391  224.5104 H   0  0  0  0  0  0  0  0  0  0  0  0
  136.1273   71.5417  222.7857 H   0  0  0  0  0  0  0  0  0  0  0  0
  137.3215   72.5296  223.6873 H   0  0  0  0  0  0  0  0  0  0  0  0
  139.5530   75.3872  219.2076 H   0  0  0  0  0  0  0  0  0  0  0  0
  138.3329   76.5224  218.5307 H   0  0  0  0  0  0  0  0  0  0  0  0
  141.1093   77.0003  219.4986 H   0  0  0  0  0  0  0  0  0  0  0  0
  140.1661   77.6157  218.0163 H   0  0  0  0  0  0  0  0  0  0  0  0
  1  2  1  0
  2  3  1  0
  3  4  2  0
  3  5  1  0
  5  6  1  0
  6  7  2  0
  7  8  1  0
  8  9  2  0
  9 10  1  0
 10 11  2  0
  5 12  1  0
 12 13  1  0
 13 14  1  0
 14 15  1  0
 15 16  1  0
 16 17  2  0
 16 18  1  0
 18 19  1  0
 18 20  1  0
 20 21  1  0
 21 22  1  0
 22 23  1  0
 23 24  1  0
 24 25  1  0
 25 26  2  0
 26 27  1  0
 27 28  2  0
 28 29  1  0
 29 30  2  0
 24 31  1  0
 31 32  1  0
 15 33  1  0
 33 34  1  0
 11  6  1  0
 34 12  1  0
 32 21  1  0
 30 25  1  0
  1 35  1  0
  1 36  1  0
  1 37  1  0
  2 38  1  0
  2 39  1  0
  7 40  1  0
  8 41  1  0
  9 42  1  0
 10 43  1  0
 11 44  1  0
 12 45  1  0
 13 46  1  0
 13 47  1  0
 14 48  1  0
 14 49  1  0
 18 50  1  6
 19 51  1  0
 19 52  1  0
 20 53  1  0
 20 54  1  0
 22 55  1  0
 22 56  1  0
 23 57  1  0
 23 58  1  0
 26 59  1  0
 27 60  1  0
 28 61  1  0
 29 62  1  0
 30 63  1  0
 31 64  1  0
 31 65  1  0
 32 66  1  0
 32 67  1  0
 33 68  1  0
 33 69  1  0
 34 70  1  0
 34 71  1  0
M  END
>  <smiles>  (32) 
CCC(=O)N(c1ccccc1)C1CCN(C(=O)[C@@H](N)CN2CCN(c3ccccc3)CC2)CC1

>  <score_type>  (32) 
oracle

>  <origin>  (32) 
autodockgpu

>  <m_score__min__energy>  (32) 
-8.5700000000000003

>  <m_primary>  (32) 
energy

>  <rmsd>  (32) 
8.648496828559267

>  <m_score__min__rmsd>  (32) 
8.648496828559267

>  <meeko>  (32) 
{"free_energy": -7.89, "intermolecular_energy": -10.57, "internal_energy": -3.2, "cluster_size": 26, "cluster_id": 3, "rank_in_cluster": 3}

>  <energy>  (32) 
-7.97

>  <cluster_rmsd>  (32) 
0.0

>  <cluster>  (32) 
4

$$$$

     RDKit          3D

 71 74  0  0  0  0  0  0  0  0999 V2000
  142.9590   81.5820  217.4530 C   0  0  0  0  0  0  0  0  0  0  0  0
  141.7620   81.3310  218.3720 C   0  0  0  0  0  0  0  0  0  0  0  0
  141.9220   79.9410  218.8690 C   0  0  0  0  0  0  0  0  0  0  0  0
  142.7850   79.2290  218.2920 O   0  0  0  0  0  0  0  0  0  0  0  0
  141.1160   79.4830  219.9470 N   0  0  0  0  0  0  0  0  0  0  0  0
  141.5340   79.6910  221.2920 C   0  0  0  0  0  0  0  0  0  0  0  0
  141.7130   81.0070  221.6820 C   0  0  0  0  0  0  0  0  0  0  0  0
  142.1220   81.3140  222.9780 C   0  0  0  0  0  0  0  0  0  0  0  0
  142.3510   80.2730  223.8820 C   0  0  0  0  0  0  0  0  0  0  0  0
  142.1650   78.9700  223.4660 C   0  0  0  0  0  0  0  0  0  0  0  0
  141.7570   78.6500  222.1770 C   0  0  0  0  0  0  0  0  0  0  0  0
  139.8480   78.7990  219.6320 C   0  0  0  0  0  0  0  0  0  0  0  0
  138.8940   78.8790  220.7680 C   0  0  0  0  0  0  0  0  0  0  0  0
  137.8140   77.8580  220.7530 C   0  0  0  0  0  0  0  0  0  0  0  0
  138.4390   76.5710  220.5140 N   0  0  0  0  0  0  0  0  0  0  0  0
  138.3460   75.6110  221.5430 C   0  0  0  0  0  0  0  0  0  0  0  0
  137.7610   75.9750  222.6100 O   0  0  0  0  0  0  0  0  0  0  0  0
  138.8940   74.2120  221.4340 C   0  0  1  0  0  0  0  0  0  0  0  0
  139.6440   74.0460  222.6910 N   0  0  0  0  0  0  0  0  0  0  0  0
  137.6760   73.3170  221.4380 C   0  0  0  0  0  0  0  0  0  0  0  0
  138.0050   72.0170  221.8650 N   0  0  0  0  0  0  0  0  0  0  0  0
  139.2110   71.4120  221.5020 C   0  0  0  0  0  0  0  0  0  0  0  0
  140.1620   71.1800  222.6740 C   0  0  0  0  0  0  0  0  0  0  0  0
  139.3730   70.8090  223.8610 N   0  0  0  0  0  0  0  0  0  0  0  0
  139.9130   70.9140  225.1670 C   0  0  0  0  0  0  0  0  0  0  0  0
  140.7740   71.8920  225.5780 C   0  0  0  0  0  0  0  0  0  0  0  0
  141.2900   71.9560  226.8760 C   0  0  0  0  0  0  0  0  0  0  0  0
  140.9280   70.9940  227.8120 C   0  0  0  0  0  0  0  0  0  0  0  0
  140.0510   69.9880  227.4090 C   0  0  0  0  0  0  0  0  0  0  0  0
  139.5580   69.9570  226.1090 C   0  0  0  0  0  0  0  0  0  0  0  0
  138.0260   70.3470  223.5750 C   0  0  0  0  0  0  0  0  0  0  0  0
  137.3130   71.5670  223.0150 C   0  0  0  0  0  0  0  0  0  0  0  0
  139.1190   76.3920  219.2560 C   0  0  0  0  0  0  0  0  0  0  0  0
  140.1440   77.4570  219.0820 C   0  0  0  0  0  0  0  0  0  0  0  0
  143.8556   81.7700  218.0619 H   0  0  0  0  0  0  0  0  0  0  0  0
  143.1254   80.6992  216.8182 H   0  0  0  0  0  0  0  0  0  0  0  0
  142.7567   82.4573  216.8182 H   0  0  0  0  0  0  0  0  0  0  0  0
  141.7674   82.0416  219.2116 H   0  0  0  0  0  0  0  0  0  0  0  0
  140.8076   81.4654  217.8417 H   0  0  0  0  0  0  0  0  0  0  0  0
  141.5306   81.8182  220.9618 H   0  0  0  0  0  0  0  0  0  0  0  0
  142.2627   82.3608  223.2853 H   0  0  0  0  0  0  0  0  0  0  0  0
  142.6750   80.4890  224.9108 H   0  0  0  0  0  0  0  0  0  0  0  0
  142.3465   78.1546  224.1817 H   0  0  0  0  0  0  0  0  0  0  0  0
  141.6157   77.6033  221.8696 H   0  0  0  0  0  0  0  0  0  0  0  0
  139.2965   79.3127  218.8308 H   0  0  0  0  0  0  0  0  0  0  0  0
  139.4637   78.7597  221.7014 H   0  0  0  0  0  0  0  0  0  0  0  0
  138.3954   79.8558  220.6832 H   0  0  0  0  0  0  0  0  0  0  0  0
  137.2916   77.8486  221.7210 H   0  0  0  0  0  0  0  0  0  0  0  0
  137.0762   78.0837  219.9690 H   0  0  0  0  0  0  0  0  0  0  0  0
  139.5197   73.9999  220.5545 H   0  0  0  0  0  0  0  0  0  0  0  0
  139.3450   73.1940  223.2130 H   0  0  0  0  0  0  0  0  0  0  0  0
  139.5000   74.8670  223.3150 H   0  0  0  0  0  0  0  0  0  0  0  0
  136.9221   73.7390  222.1189 H   0  0  0  0  0  0  0  0  0  0  0  0
  137.2812   73.2590  220.4129 H   0  0  0  0  0  0  0  0  0  0  0  0
  138.9858   70.4392  221.0405 H   0  0  0  0  0  0  0  0  0  0  0  0
  139.7183   72.0996  220.8093 H   0  0  0  0  0  0  0  0  0  0  0  0
  140.8617   70.3680  222.4269 H   0  0  0  0  0  0  0  0  0  0  0  0
  140.7338   72.0973  222.8778 H   0  0  0  0  0  0  0  0  0  0  0  0
  141.0750   72.6642  224.8548 H   0  0  0  0  0  0  0  0  0  0  0  0
  141.9805   72.7653  227.1557 H   0  0  0  0  0  0  0  0  0  0  0  0
  141.3213   71.0256  228.8388 H   0  0  0  0  0  0  0  0  0  0  0  0
  139.7461   69.2115  228.1260 H   0  0  0  0  0  0  0  0  0  0  0  0
  138.8673   69.1517  225.8185 H   0  0  0  0  0  0  0  0  0  0  0  0
  138.0434   69.5336  222.8347 H   0  0  0  0  0  0  0  0  0  0  0  0
  137.5249   69.9441  224.4675 H   0  0  0  0  0  0  0  0  0  0  0  0
  136.2813   71.2990  222.7434 H   0  0  0  0  0  0  0  0  0  0  0  0
  137.2911   72.3649  223.7718 H   0  0  0  0  0  0  0  0  0  0  0  0
  139.6093   75.4074  219.2426 H   0  0  0  0  0  0  0  0  0  0  0  0
  138.3885   76.4530  218.4359 H   0  0  0  0  0  0  0  0  0  0  0  0
  141.0688   77.1032  219.5612 H   0  0  0  0  0  0  0  0  0  0  0  0
  140.2004   77.6108  217.9943 H   0  0  0  0  0  0  0  0  0  0  0  0
  1  2  1  0
  2  3  1  0
  3  4  2  0
  3  5  1  0
  5  6  1  0
  6  7  2  0
  7  8  1  0
  8  9  2  0
  9 10  1  0
 10 11  2  0
  5 12  1  0
 12 13  1  0
 13 14  1  0
 14 15  1  0
 15 16  1  0
 16 17  2  0
 16 18  1  0
 18 19  1  0
 18 20  1  0
 20 21  1  0
 21 22  1  0
 22 23  1  0
 23 24  1  0
 24 25  1  0
 25 26  2  0
 26 27  1  0
 27 28  2  0
 28 29  1  0
 29 30  2  0
 24 31  1  0
 31 32  1  0
 15 33  1  0
 33 34  1  0
 11  6  1  0
 34 12  1  0
 32 21  1  0
 30 25  1  0
  1 35  1  0
  1 36  1  0
  1 37  1  0
  2 38  1  0
  2 39  1  0
  7 40  1  0
  8 41  1  0
  9 42  1  0
 10 43  1  0
 11 44  1  0
 12 45  1  0
 13 46  1  0
 13 47  1  0
 14 48  1  0
 14 49  1  0
 18 50  1  6
 19 51  1  0
 19 52  1  0
 20 53  1  0
 20 54  1  0
 22 55  1  0
 22 56  1  0
 23 57  1  0
 23 58  1  0
 26 59  1  0
 27 60  1  0
 28 61  1  0
 29 62  1  0
 30 63  1  0
 31 64  1  0
 31 65  1  0
 32 66  1  0
 32 67  1  0
 33 68  1  0
 33 69  1  0
 34 70  1  0
 34 71  1  0
M  END
>  <smiles>  (33) 
CCC(=O)N(c1ccccc1)C1CCN(C(=O)[C@@H](N)CN2CCN(c3ccccc3)CC2)CC1

>  <score_type>  (33) 
oracle

>  <origin>  (33) 
autodockgpu

>  <m_score__min__energy>  (33) 
-8.5700000000000003

>  <m_primary>  (33) 
energy

>  <rmsd>  (33) 
8.660965596383521

>  <m_score__min__rmsd>  (33) 
8.660965596383521

>  <meeko>  (33) 
{"free_energy": -8.0, "intermolecular_energy": -10.69, "internal_energy": -3.1, "cluster_size": 26, "cluster_id": 3, "rank_in_cluster": 1}

>  <energy>  (33) 
-7.95

>  <cluster_rmsd>  (33) 
0.33

>  <cluster>  (33) 
4

$$$$

     RDKit          3D

 71 74  0  0  0  0  0  0  0  0999 V2000
  141.8340   82.1450  218.5480 C   0  0  0  0  0  0  0  0  0  0  0  0
  141.5680   80.8200  217.8320 C   0  0  0  0  0  0  0  0  0  0  0  0
  141.8950   79.7590  218.8180 C   0  0  0  0  0  0  0  0  0  0  0  0
  142.9200   79.0670  218.5860 O   0  0  0  0  0  0  0  0  0  0  0  0
  141.0600   79.5730  219.9530 N   0  0  0  0  0  0  0  0  0  0  0  0
  141.4950   79.9980  221.2400 C   0  0  0  0  0  0  0  0  0  0  0  0
  142.0890   79.0340  222.0360 C   0  0  0  0  0  0  0  0  0  0  0  0
  142.5480   79.3500  223.3120 C   0  0  0  0  0  0  0  0  0  0  0  0
  142.4010   80.6580  223.7820 C   0  0  0  0  0  0  0  0  0  0  0  0
  141.8050   81.6000  222.9670 C   0  0  0  0  0  0  0  0  0  0  0  0
  141.3430   81.2980  221.6920 C   0  0  0  0  0  0  0  0  0  0  0  0
  139.7420   78.9380  219.7570 C   0  0  0  0  0  0  0  0  0  0  0  0
  138.9320   78.9810  221.0010 C   0  0  0  0  0  0  0  0  0  0  0  0
  137.8260   77.9900  221.0630 C   0  0  0  0  0  0  0  0  0  0  0  0
  138.3790   76.7010  220.6880 N   0  0  0  0  0  0  0  0  0  0  0  0
  138.3770   75.6910  221.6720 C   0  0  0  0  0  0  0  0  0  0  0  0
  137.9340   76.0130  222.8180 O   0  0  0  0  0  0  0  0  0  0  0  0
  138.8660   74.2870  221.4290 C   0  0  1  0  0  0  0  0  0  0  0  0
  139.5950   73.9660  222.6690 N   0  0  0  0  0  0  0  0  0  0  0  0
  137.6110   73.4510  221.3390 C   0  0  0  0  0  0  0  0  0  0  0  0
  137.8600   72.1200  221.7230 N   0  0  0  0  0  0  0  0  0  0  0  0
  139.0130   71.4450  221.3130 C   0  0  0  0  0  0  0  0  0  0  0  0
  139.9740   71.1170  222.4540 C   0  0  0  0  0  0  0  0  0  0  0  0
  139.1900   70.7680  223.6520 N   0  0  0  0  0  0  0  0  0  0  0  0
  139.7670   70.8000  224.9460 C   0  0  0  0  0  0  0  0  0  0  0  0
  139.4770   69.9200  225.9500 C   0  0  0  0  0  0  0  0  0  0  0  0
  140.0650   69.9890  227.2170 C   0  0  0  0  0  0  0  0  0  0  0  0
  140.9890   70.9890  227.4950 C   0  0  0  0  0  0  0  0  0  0  0  0
  141.2960   71.8960  226.4820 C   0  0  0  0  0  0  0  0  0  0  0  0
  140.6910   71.7960  225.2340 C   0  0  0  0  0  0  0  0  0  0  0  0
  137.8090   70.4060  223.3880 C   0  0  0  0  0  0  0  0  0  0  0  0
  137.1670   71.6850  222.8780 C   0  0  0  0  0  0  0  0  0  0  0  0
  138.9010   76.5730  219.3510 C   0  0  0  0  0  0  0  0  0  0  0  0
  139.9320   77.6200  219.1100 C   0  0  0  0  0  0  0  0  0  0  0  0
  141.8022   81.9866  219.6361 H   0  0  0  0  0  0  0  0  0  0  0  0
  142.8261   82.5239  218.2615 H   0  0  0  0  0  0  0  0  0  0  0  0
  141.0650   82.8775  218.2615 H   0  0  0  0  0  0  0  0  0  0  0  0
  140.5122   80.7518  217.5309 H   0  0  0  0  0  0  0  0  0  0  0  0
  142.1709   80.7243  216.9170 H   0  0  0  0  0  0  0  0  0  0  0  0
  142.1996   78.0075  221.6566 H   0  0  0  0  0  0  0  0  0  0  0  0
  143.0197   78.5810  223.9413 H   0  0  0  0  0  0  0  0  0  0  0  0
  142.7549   80.9331  224.7865 H   0  0  0  0  0  0  0  0  0  0  0  0
  141.6917   82.6281  223.3413 H   0  0  0  0  0  0  0  0  0  0  0  0
  140.8717   82.0667  221.0620 H   0  0  0  0  0  0  0  0  0  0  0  0
  139.1150   79.5061  219.0541 H   0  0  0  0  0  0  0  0  0  0  0  0
  139.6037   78.7969  221.8525 H   0  0  0  0  0  0  0  0  0  0  0  0
  138.4583   79.9735  221.0262 H   0  0  0  0  0  0  0  0  0  0  0  0
  137.4200   77.9426  222.0842 H   0  0  0  0  0  0  0  0  0  0  0  0
  137.0091   78.2755  220.3839 H   0  0  0  0  0  0  0  0  0  0  0  0
  139.4911   74.1349  220.5368 H   0  0  0  0  0  0  0  0  0  0  0  0
  139.2110   73.1170  223.1380 H   0  0  0  0  0  0  0  0  0  0  0  0
  139.5360   74.7560  223.3450 H   0  0  0  0  0  0  0  0  0  0  0  0
  136.8457   73.8793  222.0030 H   0  0  0  0  0  0  0  0  0  0  0  0
  137.2632   73.4542  220.2954 H   0  0  0  0  0  0  0  0  0  0  0  0
  138.7109   70.5028  220.8324 H   0  0  0  0  0  0  0  0  0  0  0  0
  139.5492   72.1154  220.6253 H   0  0  0  0  0  0  0  0  0  0  0  0
  140.6102   70.2664  222.1681 H   0  0  0  0  0  0  0  0  0  0  0  0
  140.6120   71.9876  222.6663 H   0  0  0  0  0  0  0  0  0  0  0  0
  138.7476   69.1206  225.7528 H   0  0  0  0  0  0  0  0  0  0  0  0
  139.7971   69.2544  227.9907 H   0  0  0  0  0  0  0  0  0  0  0  0
  141.4638   71.0626  228.4845 H   0  0  0  0  0  0  0  0  0  0  0  0
  142.0239   72.6986  226.6717 H   0  0  0  0  0  0  0  0  0  0  0  0
  140.9514   72.5259  224.4533 H   0  0  0  0  0  0  0  0  0  0  0  0
  137.7541   69.6139  222.6267 H   0  0  0  0  0  0  0  0  0  0  0  0
  137.3029   70.0137  224.2824 H   0  0  0  0  0  0  0  0  0  0  0  0
  136.1136   71.4936  222.6258 H   0  0  0  0  0  0  0  0  0  0  0  0
  137.2169   72.4614  223.6556 H   0  0  0  0  0  0  0  0  0  0  0  0
  139.3551   75.5785  219.2299 H   0  0  0  0  0  0  0  0  0  0  0  0
  138.0816   76.6967  218.6276 H   0  0  0  0  0  0  0  0  0  0  0  0
  140.8948   77.2188  219.4593 H   0  0  0  0  0  0  0  0  0  0  0  0
  139.8678   77.8289  218.0319 H   0  0  0  0  0  0  0  0  0  0  0  0
  1  2  1  0
  2  3  1  0
  3  4  2  0
  3  5  1  0
  5  6  1  0
  6  7  2  0
  7  8  1  0
  8  9  2  0
  9 10  1  0
 10 11  2  0
  5 12  1  0
 12 13  1  0
 13 14  1  0
 14 15  1  0
 15 16  1  0
 16 17  2  0
 16 18  1  0
 18 19  1  0
 18 20  1  0
 20 21  1  0
 21 22  1  0
 22 23  1  0
 23 24  1  0
 24 25  1  0
 25 26  2  0
 26 27  1  0
 27 28  2  0
 28 29  1  0
 29 30  2  0
 24 31  1  0
 31 32  1  0
 15 33  1  0
 33 34  1  0
 11  6  1  0
 34 12  1  0
 32 21  1  0
 30 25  1  0
  1 35  1  0
  1 36  1  0
  1 37  1  0
  2 38  1  0
  2 39  1  0
  7 40  1  0
  8 41  1  0
  9 42  1  0
 10 43  1  0
 11 44  1  0
 12 45  1  0
 13 46  1  0
 13 47  1  0
 14 48  1  0
 14 49  1  0
 18 50  1  6
 19 51  1  0
 19 52  1  0
 20 53  1  0
 20 54  1  0
 22 55  1  0
 22 56  1  0
 23 57  1  0
 23 58  1  0
 26 59  1  0
 27 60  1  0
 28 61  1  0
 29 62  1  0
 30 63  1  0
 31 64  1  0
 31 65  1  0
 32 66  1  0
 32 67  1  0
 33 68  1  0
 33 69  1  0
 34 70  1  0
 34 71  1  0
M  END
>  <smiles>  (34) 
CCC(=O)N(c1ccccc1)C1CCN(C(=O)[C@@H](N)CN2CCN(c3ccccc3)CC2)CC1

>  <score_type>  (34) 
oracle

>  <origin>  (34) 
autodockgpu

>  <m_score__min__energy>  (34) 
-8.5700000000000003

>  <m_primary>  (34) 
energy

>  <rmsd>  (34) 
8.574461810196869

>  <m_score__min__rmsd>  (34) 
8.574461810196869

>  <meeko>  (34) 
{"free_energy": -7.71, "intermolecular_energy": -10.39, "internal_energy": -3.2, "cluster_size": 26, "cluster_id": 3, "rank_in_cluster": 12}

>  <energy>  (34) 
-7.92

>  <cluster_rmsd>  (34) 
1.02

>  <cluster>  (34) 
4

$$$$

     RDKit          3D

 71 74  0  0  0  0  0  0  0  0999 V2000
  142.7810   81.6210  217.4530 C   0  0  0  0  0  0  0  0  0  0  0  0
  141.7870   81.3430  218.5830 C   0  0  0  0  0  0  0  0  0  0  0  0
  141.9810   79.9160  218.9460 C   0  0  0  0  0  0  0  0  0  0  0  0
  142.8820   79.2920  218.3280 O   0  0  0  0  0  0  0  0  0  0  0  0
  141.1630   79.3300  219.9500 N   0  0  0  0  0  0  0  0  0  0  0  0
  141.5100   79.4640  221.3240 C   0  0  0  0  0  0  0  0  0  0  0  0
  141.9140   80.7220  221.7360 C   0  0  0  0  0  0  0  0  0  0  0  0
  142.2740   80.9550  223.0600 C   0  0  0  0  0  0  0  0  0  0  0  0
  142.2250   79.8970  223.9740 C   0  0  0  0  0  0  0  0  0  0  0  0
  141.8190   78.6520  223.5360 C   0  0  0  0  0  0  0  0  0  0  0  0
  141.4550   78.4070  222.2170 C   0  0  0  0  0  0  0  0  0  0  0  0
  139.9570   78.5920  219.5290 C   0  0  0  0  0  0  0  0  0  0  0  0
  138.8970   78.6530  220.5670 C   0  0  0  0  0  0  0  0  0  0  0  0
  137.8620   77.5900  220.4680 C   0  0  0  0  0  0  0  0  0  0  0  0
  138.5550   76.3240  220.3150 N   0  0  0  0  0  0  0  0  0  0  0  0
  138.3980   75.3780  221.3480 C   0  0  0  0  0  0  0  0  0  0  0  0
  137.7010   75.7360  222.3470 O   0  0  0  0  0  0  0  0  0  0  0  0
  139.0070   74.0000  221.3180 C   0  0  1  0  0  0  0  0  0  0  0  0
  139.6180   73.8740  222.6530 N   0  0  0  0  0  0  0  0  0  0  0  0
  137.8290   73.0600  221.2010 C   0  0  0  0  0  0  0  0  0  0  0  0
  138.1430   71.7890  221.7150 N   0  0  0  0  0  0  0  0  0  0  0  0
  139.3570   71.1600  221.4220 C   0  0  0  0  0  0  0  0  0  0  0  0
  140.2770   71.0010  222.6300 C   0  0  0  0  0  0  0  0  0  0  0  0
  139.4560   70.7050  223.8180 N   0  0  0  0  0  0  0  0  0  0  0  0
  139.9630   70.8900  225.1280 C   0  0  0  0  0  0  0  0  0  0  0  0
  140.8200   71.8880  225.4990 C   0  0  0  0  0  0  0  0  0  0  0  0
  141.3020   72.0320  226.8030 C   0  0  0  0  0  0  0  0  0  0  0  0
  140.9100   71.1340  227.7880 C   0  0  0  0  0  0  0  0  0  0  0  0
  140.0370   70.1090  227.4270 C   0  0  0  0  0  0  0  0  0  0  0  0
  139.5770   69.9970  226.1190 C   0  0  0  0  0  0  0  0  0  0  0  0
  138.1170   70.2280  223.5260 C   0  0  0  0  0  0  0  0  0  0  0  0
  137.4210   71.4110  222.8730 C   0  0  0  0  0  0  0  0  0  0  0  0
  139.3580   76.1540  219.1310 C   0  0  0  0  0  0  0  0  0  0  0  0
  140.3550   77.2550  219.0350 C   0  0  0  0  0  0  0  0  0  0  0  0
  143.7566   81.8939  217.8817 H   0  0  0  0  0  0  0  0  0  0  0  0
  142.8923   80.7195  216.8326 H   0  0  0  0  0  0  0  0  0  0  0  0
  142.4085   82.4494  216.8326 H   0  0  0  0  0  0  0  0  0  0  0  0
  141.9973   81.9906  219.4469 H   0  0  0  0  0  0  0  0  0  0  0  0
  140.7515   81.5460  218.2723 H   0  0  0  0  0  0  0  0  0  0  0  0
  141.9510   81.5467  221.0090 H   0  0  0  0  0  0  0  0  0  0  0  0
  142.5926   81.9570  223.3833 H   0  0  0  0  0  0  0  0  0  0  0  0
  142.5057   80.0545  225.0258 H   0  0  0  0  0  0  0  0  0  0  0  0
  141.7822   77.8229  224.2580 H   0  0  0  0  0  0  0  0  0  0  0  0
  141.1337   77.4061  221.8931 H   0  0  0  0  0  0  0  0  0  0  0  0
  139.4648   79.0704  218.6694 H   0  0  0  0  0  0  0  0  0  0  0  0
  139.3786   78.5703  221.5525 H   0  0  0  0  0  0  0  0  0  0  0  0
  138.3731   79.6086  220.4172 H   0  0  0  0  0  0  0  0  0  0  0  0
  137.2492   77.5754  221.3814 H   0  0  0  0  0  0  0  0  0  0  0  0
  137.1957   77.7745  219.6124 H   0  0  0  0  0  0  0  0  0  0  0  0
  139.7338   73.8042  220.5159 H   0  0  0  0  0  0  0  0  0  0  0  0
  139.2690   73.0340  223.1630 H   0  0  0  0  0  0  0  0  0  0  0  0
  139.4050   74.7110  223.2350 H   0  0  0  0  0  0  0  0  0  0  0  0
  136.9803   73.4756  221.7640 H   0  0  0  0  0  0  0  0  0  0  0  0
  137.5715   72.9529  220.1369 H   0  0  0  0  0  0  0  0  0  0  0  0
  139.1406   70.1604  221.0171 H   0  0  0  0  0  0  0  0  0  0  0  0
  139.8840   71.8019  220.7007 H   0  0  0  0  0  0  0  0  0  0  0  0
  140.9810   70.1747  222.4521 H   0  0  0  0  0  0  0  0  0  0  0  0
  140.8456   71.9288  222.7909 H   0  0  0  0  0  0  0  0  0  0  0  0
  141.1453   72.6109  224.7364 H   0  0  0  0  0  0  0  0  0  0  0  0
  141.9900   72.8543  227.0488 H   0  0  0  0  0  0  0  0  0  0  0  0
  141.2771   71.2289  228.8206 H   0  0  0  0  0  0  0  0  0  0  0  0
  139.7086   69.3815  228.1839 H   0  0  0  0  0  0  0  0  0  0  0  0
  138.8884   69.1784  225.8625 H   0  0  0  0  0  0  0  0  0  0  0  0
  138.1520   69.3703  222.8382 H   0  0  0  0  0  0  0  0  0  0  0  0
  137.5919   69.8820  224.4285 H   0  0  0  0  0  0  0  0  0  0  0  0
  136.3961   71.1269  222.5922 H   0  0  0  0  0  0  0  0  0  0  0  0
  137.3815   72.2544  223.5781 H   0  0  0  0  0  0  0  0  0  0  0  0
  139.8835   75.1890  219.1817 H   0  0  0  0  0  0  0  0  0  0  0  0
  138.7069   76.1756  218.2446 H   0  0  0  0  0  0  0  0  0  0  0  0
  141.2422   76.9449  219.6066 H   0  0  0  0  0  0  0  0  0  0  0  0
  140.5106   77.3941  217.9550 H   0  0  0  0  0  0  0  0  0  0  0  0
  1  2  1  0
  2  3  1  0
  3  4  2  0
  3  5  1  0
  5  6  1  0
  6  7  2  0
  7  8  1  0
  8  9  2  0
  9 10  1  0
 10 11  2  0
  5 12  1  0
 12 13  1  0
 13 14  1  0
 14 15  1  0
 15 16  1  0
 16 17  2  0
 16 18  1  0
 18 19  1  0
 18 20  1  0
 20 21  1  0
 21 22  1  0
 22 23  1  0
 23 24  1  0
 24 25  1  0
 25 26  2  0
 26 27  1  0
 27 28  2  0
 28 29  1  0
 29 30  2  0
 24 31  1  0
 31 32  1  0
 15 33  1  0
 33 34  1  0
 11  6  1  0
 34 12  1  0
 32 21  1  0
 30 25  1  0
  1 35  1  0
  1 36  1  0
  1 37  1  0
  2 38  1  0
  2 39  1  0
  7 40  1  0
  8 41  1  0
  9 42  1  0
 10 43  1  0
 11 44  1  0
 12 45  1  0
 13 46  1  0
 13 47  1  0
 14 48  1  0
 14 49  1  0
 18 50  1  6
 19 51  1  0
 19 52  1  0
 20 53  1  0
 20 54  1  0
 22 55  1  0
 22 56  1  0
 23 57  1  0
 23 58  1  0
 26 59  1  0
 27 60  1  0
 28 61  1  0
 29 62  1  0
 30 63  1  0
 31 64  1  0
 31 65  1  0
 32 66  1  0
 32 67  1  0
 33 68  1  0
 33 69  1  0
 34 70  1  0
 34 71  1  0
M  END
>  <smiles>  (35) 
CCC(=O)N(c1ccccc1)C1CCN(C(=O)[C@@H](N)CN2CCN(c3ccccc3)CC2)CC1

>  <score_type>  (35) 
oracle

>  <origin>  (35) 
autodockgpu

>  <m_score__min__energy>  (35) 
-8.5700000000000003

>  <m_primary>  (35) 
energy

>  <rmsd>  (35) 
8.6256003032225

>  <m_score__min__rmsd>  (35) 
8.6256003032225

>  <meeko>  (35) 
{"free_energy": -7.95, "intermolecular_energy": -10.64, "internal_energy": -3.13, "cluster_size": 26, "cluster_id": 3, "rank_in_cluster": 2}

>  <energy>  (35) 
-7.71

>  <cluster_rmsd>  (35) 
0.71

>  <cluster>  (35) 
4

$$$$

     RDKit          3D

 71 74  0  0  0  0  0  0  0  0999 V2000
  142.1950   80.8170  216.8700 C   0  0  0  0  0  0  0  0  0  0  0  0
  142.2060   80.9510  218.3930 C   0  0  0  0  0  0  0  0  0  0  0  0
  142.1420   79.5630  218.9180 C   0  0  0  0  0  0  0  0  0  0  0  0
  142.8890   78.7140  218.3660 O   0  0  0  0  0  0  0  0  0  0  0  0
  141.2660   79.2590  219.9960 N   0  0  0  0  0  0  0  0  0  0  0  0
  141.6310   79.5900  221.3310 C   0  0  0  0  0  0  0  0  0  0  0  0
  141.7830   80.9370  221.6090 C   0  0  0  0  0  0  0  0  0  0  0  0
  142.1390   81.3640  222.8860 C   0  0  0  0  0  0  0  0  0  0  0  0
  142.3420   80.4110  223.8880 C   0  0  0  0  0  0  0  0  0  0  0  0
  142.1840   79.0730  223.5830 C   0  0  0  0  0  0  0  0  0  0  0  0
  141.8280   78.6350  222.3130 C   0  0  0  0  0  0  0  0  0  0  0  0
  139.9810   78.6000  219.6890 C   0  0  0  0  0  0  0  0  0  0  0  0
  139.0510   78.6670  220.8450 C   0  0  0  0  0  0  0  0  0  0  0  0
  137.9560   77.6630  220.8260 C   0  0  0  0  0  0  0  0  0  0  0  0
  138.5570   76.3720  220.5440 N   0  0  0  0  0  0  0  0  0  0  0  0
  138.4680   75.3890  221.5520 C   0  0  0  0  0  0  0  0  0  0  0  0
  137.9100   75.7370  222.6380 O   0  0  0  0  0  0  0  0  0  0  0  0
  138.9940   73.9860  221.3980 C   0  0  1  0  0  0  0  0  0  0  0  0
  139.6220   73.7170  222.7040 N   0  0  0  0  0  0  0  0  0  0  0  0
  137.7610   73.1270  221.2340 C   0  0  0  0  0  0  0  0  0  0  0  0
  137.9790   71.8290  221.7290 N   0  0  0  0  0  0  0  0  0  0  0  0
  139.1210   71.0980  221.3890 C   0  0  0  0  0  0  0  0  0  0  0  0
  140.0640   70.8470  222.5630 C   0  0  0  0  0  0  0  0  0  0  0  0
  139.2620   70.6140  223.7770 N   0  0  0  0  0  0  0  0  0  0  0  0
  139.8280   70.7410  225.0700 C   0  0  0  0  0  0  0  0  0  0  0  0
  139.5580   69.9140  226.1240 C   0  0  0  0  0  0  0  0  0  0  0  0
  140.1330   70.0780  227.3870 C   0  0  0  0  0  0  0  0  0  0  0  0
  141.0240   71.1220  227.6110 C   0  0  0  0  0  0  0  0  0  0  0  0
  141.3100   71.9750  226.5470 C   0  0  0  0  0  0  0  0  0  0  0  0
  140.7180   71.7810  225.3030 C   0  0  0  0  0  0  0  0  0  0  0  0
  137.8760   70.2590  223.5290 C   0  0  0  0  0  0  0  0  0  0  0  0
  137.2660   71.5050  222.9080 C   0  0  0  0  0  0  0  0  0  0  0  0
  139.2100   76.2150  219.2700 C   0  0  0  0  0  0  0  0  0  0  0  0
  140.2480   77.2690  219.1010 C   0  0  0  0  0  0  0  0  0  0  0  0
  142.1080   79.7552  216.5959 H   0  0  0  0  0  0  0  0  0  0  0  0
  141.3394   81.3731  216.4591 H   0  0  0  0  0  0  0  0  0  0  0  0
  143.1297   81.2263  216.4591 H   0  0  0  0  0  0  0  0  0  0  0  0
  143.1296   81.4458  218.7280 H   0  0  0  0  0  0  0  0  0  0  0  0
  141.3646   81.5611  218.7534 H   0  0  0  0  0  0  0  0  0  0  0  0
  141.6209   81.6785  220.8128 H   0  0  0  0  0  0  0  0  0  0  0  0
  142.2587   82.4358  223.1028 H   0  0  0  0  0  0  0  0  0  0  0  0
  142.6235   80.7219  224.9049 H   0  0  0  0  0  0  0  0  0  0  0  0
  142.3460   78.3266  224.3746 H   0  0  0  0  0  0  0  0  0  0  0  0
  141.7067   77.5636  222.0953 H   0  0  0  0  0  0  0  0  0  0  0  0
  139.4202   79.1391  218.9113 H   0  0  0  0  0  0  0  0  0  0  0  0
  139.6367   78.5165  221.7639 H   0  0  0  0  0  0  0  0  0  0  0  0
  138.5663   79.6531  220.7942 H   0  0  0  0  0  0  0  0  0  0  0  0
  137.4518   77.6378  221.8033 H   0  0  0  0  0  0  0  0  0  0  0  0
  137.2073   77.9186  220.0618 H   0  0  0  0  0  0  0  0  0  0  0  0
  139.6928   73.8151  220.5658 H   0  0  0  0  0  0  0  0  0  0  0  0
  139.1590   72.9270  223.2030 H   0  0  0  0  0  0  0  0  0  0  0  0
  139.5640   74.5570  223.3180 H   0  0  0  0  0  0  0  0  0  0  0  0
  136.9272   73.5864  221.7851 H   0  0  0  0  0  0  0  0  0  0  0  0
  137.5239   73.0570  220.1621 H   0  0  0  0  0  0  0  0  0  0  0  0
  138.8028   70.1253  220.9856 H   0  0  0  0  0  0  0  0  0  0  0  0
  139.6777   71.6971  220.6533 H   0  0  0  0  0  0  0  0  0  0  0  0
  140.6852   69.9633  222.3554 H   0  0  0  0  0  0  0  0  0  0  0  0
  140.7177   71.7195  222.7095 H   0  0  0  0  0  0  0  0  0  0  0  0
  138.8559   69.0811  225.9711 H   0  0  0  0  0  0  0  0  0  0  0  0
  139.8815   69.3832  228.2018 H   0  0  0  0  0  0  0  0  0  0  0  0
  141.4884   71.2697  228.5972 H   0  0  0  0  0  0  0  0  0  0  0  0
  142.0109   72.8102  226.6921 H   0  0  0  0  0  0  0  0  0  0  0  0
  140.9617   72.4705  224.4813 H   0  0  0  0  0  0  0  0  0  0  0  0
  137.8114   69.4079  222.8352 H   0  0  0  0  0  0  0  0  0  0  0  0
  137.3535   69.9520  224.4470 H   0  0  0  0  0  0  0  0  0  0  0  0
  136.2112   71.3151  222.6606 H   0  0  0  0  0  0  0  0  0  0  0  0
  137.3251   72.3417  223.6196 H   0  0  0  0  0  0  0  0  0  0  0  0
  139.6851   75.2240  219.2230 H   0  0  0  0  0  0  0  0  0  0  0  0
  138.4646   76.3077  218.4664 H   0  0  0  0  0  0  0  0  0  0  0  0
  141.1766   76.8907  219.5534 H   0  0  0  0  0  0  0  0  0  0  0  0
  140.2874   77.4479  218.0164 H   0  0  0  0  0  0  0  0  0  0  0  0
  1  2  1  0
  2  3  1  0
  3  4  2  0
  3  5  1  0
  5  6  1  0
  6  7  2  0
  7  8  1  0
  8  9  2  0
  9 10  1  0
 10 11  2  0
  5 12  1  0
 12 13  1  0
 13 14  1  0
 14 15  1  0
 15 16  1  0
 16 17  2  0
 16 18  1  0
 18 19  1  0
 18 20  1  0
 20 21  1  0
 21 22  1  0
 22 23  1  0
 23 24  1  0
 24 25  1  0
 25 26  2  0
 26 27  1  0
 27 28  2  0
 28 29  1  0
 29 30  2  0
 24 31  1  0
 31 32  1  0
 15 33  1  0
 33 34  1  0
 11  6  1  0
 34 12  1  0
 32 21  1  0
 30 25  1  0
  1 35  1  0
  1 36  1  0
  1 37  1  0
  2 38  1  0
  2 39  1  0
  7 40  1  0
  8 41  1  0
  9 42  1  0
 10 43  1  0
 11 44  1  0
 12 45  1  0
 13 46  1  0
 13 47  1  0
 14 48  1  0
 14 49  1  0
 18 50  1  6
 19 51  1  0
 19 52  1  0
 20 53  1  0
 20 54  1  0
 22 55  1  0
 22 56  1  0
 23 57  1  0
 23 58  1  0
 26 59  1  0
 27 60  1  0
 28 61  1  0
 29 62  1  0
 30 63  1  0
 31 64  1  0
 31 65  1  0
 32 66  1  0
 32 67  1  0
 33 68  1  0
 33 69  1  0
 34 70  1  0
 34 71  1  0
M  END
>  <smiles>  (36) 
CCC(=O)N(c1ccccc1)C1CCN(C(=O)[C@@H](N)CN2CCN(c3ccccc3)CC2)CC1

>  <score_type>  (36) 
oracle

>  <origin>  (36) 
autodockgpu

>  <m_score__min__energy>  (36) 
-8.5700000000000003

>  <m_primary>  (36) 
energy

>  <rmsd>  (36) 
8.619967335912348

>  <m_score__min__rmsd>  (36) 
8.619967335912348

>  <meeko>  (36) 
{"free_energy": -7.8, "intermolecular_energy": -10.48, "internal_energy": -3.2, "cluster_size": 26, "cluster_id": 3, "rank_in_cluster": 6}

>  <energy>  (36) 
-7.7

>  <cluster_rmsd>  (36) 
0.23

>  <cluster>  (36) 
4

$$$$

     RDKit          3D

 71 74  0  0  0  0  0  0  0  0999 V2000
  142.1720   80.1170  218.4410 C   0  0  0  0  0  0  0  0  0  0  0  0
  141.8960   81.5560  218.8800 C   0  0  0  0  0  0  0  0  0  0  0  0
  140.5170   81.5490  219.4320 C   0  0  0  0  0  0  0  0  0  0  0  0
  139.7020   82.3660  218.9300 O   0  0  0  0  0  0  0  0  0  0  0  0
  140.1830   80.6450  220.4770 N   0  0  0  0  0  0  0  0  0  0  0  0
  141.0060   80.5530  221.6350 C   0  0  0  0  0  0  0  0  0  0  0  0
  141.6120   79.3290  221.8610 C   0  0  0  0  0  0  0  0  0  0  0  0
  142.4360   79.1380  222.9670 C   0  0  0  0  0  0  0  0  0  0  0  0
  142.6430   80.2000  223.8510 C   0  0  0  0  0  0  0  0  0  0  0  0
  142.0260   81.4100  223.6020 C   0  0  0  0  0  0  0  0  0  0  0  0
  141.2030   81.6140  222.5010 C   0  0  0  0  0  0  0  0  0  0  0  0
  138.9700   79.8170  220.3260 C   0  0  0  0  0  0  0  0  0  0  0  0
  138.3190   79.5700  221.6380 C   0  0  0  0  0  0  0  0  0  0  0  0
  137.4030   78.4010  221.6710 C   0  0  0  0  0  0  0  0  0  0  0  0
  138.1050   77.2830  221.0690 N   0  0  0  0  0  0  0  0  0  0  0  0
  138.3830   76.1770  221.8990 C   0  0  0  0  0  0  0  0  0  0  0  0
  138.0350   76.2770  223.1160 O   0  0  0  0  0  0  0  0  0  0  0  0
  139.0570   74.9190  221.4170 C   0  0  1  0  0  0  0  0  0  0  0  0
  139.5640   74.3120  222.6600 N   0  0  0  0  0  0  0  0  0  0  0  0
  137.9390   74.0740  220.8500 C   0  0  0  0  0  0  0  0  0  0  0  0
  138.1630   72.7070  221.0950 N   0  0  0  0  0  0  0  0  0  0  0  0
  139.3530   72.0810  220.7110 C   0  0  0  0  0  0  0  0  0  0  0  0
  140.2130   71.6180  221.8850 C   0  0  0  0  0  0  0  0  0  0  0  0
  139.3300   71.1330  222.9600 N   0  0  0  0  0  0  0  0  0  0  0  0
  139.7920   71.0100  224.2940 C   0  0  0  0  0  0  0  0  0  0  0  0
  140.6970   71.8460  224.8850 C   0  0  0  0  0  0  0  0  0  0  0  0
  141.1320   71.6860  226.2050 C   0  0  0  0  0  0  0  0  0  0  0  0
  140.6390   70.6380  226.9720 C   0  0  0  0  0  0  0  0  0  0  0  0
  139.7150   69.7750  226.3840 C   0  0  0  0  0  0  0  0  0  0  0  0
  139.3060   69.9650  225.0690 C   0  0  0  0  0  0  0  0  0  0  0  0
  137.9790   70.8090  222.5360 C   0  0  0  0  0  0  0  0  0  0  0  0
  137.3760   72.1420  222.1260 C   0  0  0  0  0  0  0  0  0  0  0  0
  138.4750   77.4090  219.6820 C   0  0  0  0  0  0  0  0  0  0  0  0
  139.2880   78.6400  219.4870 C   0  0  0  0  0  0  0  0  0  0  0  0
  142.2942   79.4797  219.3292 H   0  0  0  0  0  0  0  0  0  0  0  0
  141.3281   79.7490  217.8390 H   0  0  0  0  0  0  0  0  0  0  0  0
  143.0922   80.0874  217.8390 H   0  0  0  0  0  0  0  0  0  0  0  0
  142.6164   81.8669  219.6510 H   0  0  0  0  0  0  0  0  0  0  0  0
  141.9952   82.2625  218.0428 H   0  0  0  0  0  0  0  0  0  0  0  0
  141.4408   78.4990  221.1597 H   0  0  0  0  0  0  0  0  0  0  0  0
  142.9173   78.1646  223.1423 H   0  0  0  0  0  0  0  0  0  0  0  0
  143.2884   80.0740  224.7328 H   0  0  0  0  0  0  0  0  0  0  0  0
  142.1921   82.2431  224.3009 H   0  0  0  0  0  0  0  0  0  0  0  0
  140.7234   82.5879  222.3236 H   0  0  0  0  0  0  0  0  0  0  0  0
  138.1800   80.3463  219.7730 H   0  0  0  0  0  0  0  0  0  0  0  0
  139.1088   79.4066  222.3860 H   0  0  0  0  0  0  0  0  0  0  0  0
  137.6987   80.4542  221.8461 H   0  0  0  0  0  0  0  0  0  0  0  0
  137.1362   78.1615  222.7110 H   0  0  0  0  0  0  0  0  0  0  0  0
  136.4753   78.6187  221.1214 H   0  0  0  0  0  0  0  0  0  0  0  0
  139.8547   75.0476  220.6706 H   0  0  0  0  0  0  0  0  0  0  0  0
  139.0130   73.4700  222.9340 H   0  0  0  0  0  0  0  0  0  0  0  0
  139.5170   74.9920  223.4470 H   0  0  0  0  0  0  0  0  0  0  0  0
  136.9899   74.3722  221.3192 H   0  0  0  0  0  0  0  0  0  0  0  0
  137.8990   74.2320  219.7621 H   0  0  0  0  0  0  0  0  0  0  0  0
  139.1008   71.2029  220.0984 H   0  0  0  0  0  0  0  0  0  0  0  0
  139.9424   72.8262  220.1566 H   0  0  0  0  0  0  0  0  0  0  0  0
  140.8778   70.8049  221.5579 H   0  0  0  0  0  0  0  0  0  0  0  0
  140.8238   72.4554  222.2532 H   0  0  0  0  0  0  0  0  0  0  0  0
  141.1017   72.6825  224.2963 H   0  0  0  0  0  0  0  0  0  0  0  0
  141.8622   72.3879  226.6342 H   0  0  0  0  0  0  0  0  0  0  0  0
  140.9676   70.4933  228.0118 H   0  0  0  0  0  0  0  0  0  0  0  0
  139.3059   68.9361  226.9661 H   0  0  0  0  0  0  0  0  0  0  0  0
  138.5769   69.2681  224.6300 H   0  0  0  0  0  0  0  0  0  0  0  0
  137.9957   70.1122  221.6850 H   0  0  0  0  0  0  0  0  0  0  0  0
  137.3995   70.3156  223.3302 H   0  0  0  0  0  0  0  0  0  0  0  0
  136.3495   71.9861  221.7628 H   0  0  0  0  0  0  0  0  0  0  0  0
  137.3542   72.8213  222.9910 H   0  0  0  0  0  0  0  0  0  0  0  0
  139.0642   76.5306  219.3800 H   0  0  0  0  0  0  0  0  0  0  0  0
  137.5648   77.4738  219.0677 H   0  0  0  0  0  0  0  0  0  0  0  0
  140.3378   78.3738  219.6796 H   0  0  0  0  0  0  0  0  0  0  0  0
  139.0608   78.9623  218.4601 H   0  0  0  0  0  0  0  0  0  0  0  0
  1  2  1  0
  2  3  1  0
  3  4  2  0
  3  5  1  0
  5  6  1  0
  6  7  2  0
  7  8  1  0
  8  9  2  0
  9 10  1  0
 10 11  2  0
  5 12  1  0
 12 13  1  0
 13 14  1  0
 14 15  1  0
 15 16  1  0
 16 17  2  0
 16 18  1  0
 18 19  1  0
 18 20  1  0
 20 21  1  0
 21 22  1  0
 22 23  1  0
 23 24  1  0
 24 25  1  0
 25 26  2  0
 26 27  1  0
 27 28  2  0
 28 29  1  0
 29 30  2  0
 24 31  1  0
 31 32  1  0
 15 33  1  0
 33 34  1  0
 11  6  1  0
 34 12  1  0
 32 21  1  0
 30 25  1  0
  1 35  1  0
  1 36  1  0
  1 37  1  0
  2 38  1  0
  2 39  1  0
  7 40  1  0
  8 41  1  0
  9 42  1  0
 10 43  1  0
 11 44  1  0
 12 45  1  0
 13 46  1  0
 13 47  1  0
 14 48  1  0
 14 49  1  0
 18 50  1  6
 19 51  1  0
 19 52  1  0
 20 53  1  0
 20 54  1  0
 22 55  1  0
 22 56  1  0
 23 57  1  0
 23 58  1  0
 26 59  1  0
 27 60  1  0
 28 61  1  0
 29 62  1  0
 30 63  1  0
 31 64  1  0
 31 65  1  0
 32 66  1  0
 32 67  1  0
 33 68  1  0
 33 69  1  0
 34 70  1  0
 34 71  1  0
M  END
>  <smiles>  (37) 
CCC(=O)N(c1ccccc1)C1CCN(C(=O)[C@@H](N)CN2CCN(c3ccccc3)CC2)CC1

>  <score_type>  (37) 
oracle

>  <origin>  (37) 
autodockgpu

>  <m_score__min__energy>  (37) 
-8.5700000000000003

>  <m_primary>  (37) 
energy

>  <rmsd>  (37) 
8.345380974634098

>  <m_score__min__rmsd>  (37) 
8.345380974634098

>  <meeko>  (37) 
{"free_energy": -7.26, "intermolecular_energy": -9.94, "internal_energy": -3.42, "cluster_size": 26, "cluster_id": 3, "rank_in_cluster": 22}

>  <energy>  (37) 
-7.76

>  <cluster_rmsd>  (37) 
0.0

>  <cluster>  (37) 
5

$$$$

     RDKit          3D

 71 74  0  0  0  0  0  0  0  0999 V2000
  142.5650   78.6870  218.1920 C   0  0  0  0  0  0  0  0  0  0  0  0
  142.5780   80.1630  218.5940 C   0  0  0  0  0  0  0  0  0  0  0  0
  141.1780   80.4890  218.9700 C   0  0  0  0  0  0  0  0  0  0  0  0
  140.5860   81.3420  218.2600 O   0  0  0  0  0  0  0  0  0  0  0  0
  140.5820   79.8410  220.0850 N   0  0  0  0  0  0  0  0  0  0  0  0
  141.2010   79.9010  221.3650 C   0  0  0  0  0  0  0  0  0  0  0  0
  141.4080   81.1660  221.8870 C   0  0  0  0  0  0  0  0  0  0  0  0
  142.0080   81.3310  223.1330 C   0  0  0  0  0  0  0  0  0  0  0  0
  142.4010   80.2000  223.8530 C   0  0  0  0  0  0  0  0  0  0  0  0
  142.1840   78.9500  223.3080 C   0  0  0  0  0  0  0  0  0  0  0  0
  141.5860   78.7710  222.0660 C   0  0  0  0  0  0  0  0  0  0  0  0
  139.3130   79.1150  219.8770 C   0  0  0  0  0  0  0  0  0  0  0  0
  138.4940   79.0940  221.1160 C   0  0  0  0  0  0  0  0  0  0  0  0
  137.4610   78.0270  221.1660 C   0  0  0  0  0  0  0  0  0  0  0  0
  138.1060   76.7830  220.7870 N   0  0  0  0  0  0  0  0  0  0  0  0
  138.1690   75.7690  221.7650 C   0  0  0  0  0  0  0  0  0  0  0  0
  137.6970   76.0520  222.9090 O   0  0  0  0  0  0  0  0  0  0  0  0
  138.7570   74.4040  221.5180 C   0  0  1  0  0  0  0  0  0  0  0  0
  139.5760   74.1680  222.7190 N   0  0  0  0  0  0  0  0  0  0  0  0
  137.5710   73.4670  221.5110 C   0  0  0  0  0  0  0  0  0  0  0  0
  137.9630   72.1520  221.8220 N   0  0  0  0  0  0  0  0  0  0  0  0
  139.2130   71.6530  221.4450 C   0  0  0  0  0  0  0  0  0  0  0  0
  140.1400   71.3620  222.6230 C   0  0  0  0  0  0  0  0  0  0  0  0
  139.3390   70.8330  223.7410 N   0  0  0  0  0  0  0  0  0  0  0  0
  139.8330   70.8400  225.0690 C   0  0  0  0  0  0  0  0  0  0  0  0
  139.4910   69.9330  226.0320 C   0  0  0  0  0  0  0  0  0  0  0  0
  139.9970   69.9790  227.3350 C   0  0  0  0  0  0  0  0  0  0  0  0
  140.8900   70.9810  227.6940 C   0  0  0  0  0  0  0  0  0  0  0  0
  141.2500   71.9150  226.7240 C   0  0  0  0  0  0  0  0  0  0  0  0
  140.7260   71.8380  225.4380 C   0  0  0  0  0  0  0  0  0  0  0  0
  138.0320   70.3270  223.3640 C   0  0  0  0  0  0  0  0  0  0  0  0
  137.2650   71.5540  222.8980 C   0  0  0  0  0  0  0  0  0  0  0  0
  138.6430   76.7000  219.4530 C   0  0  0  0  0  0  0  0  0  0  0  0
  139.5990   77.8180  219.2240 C   0  0  0  0  0  0  0  0  0  0  0  0
  142.5595   78.0607  219.0963 H   0  0  0  0  0  0  0  0  0  0  0  0
  141.6650   78.4774  217.5953 H   0  0  0  0  0  0  0  0  0  0  0  0
  143.4612   78.4616  217.5953 H   0  0  0  0  0  0  0  0  0  0  0  0
  143.2518   80.3219  219.4489 H   0  0  0  0  0  0  0  0  0  0  0  0
  142.9386   80.8037  217.7758 H   0  0  0  0  0  0  0  0  0  0  0  0
  141.0955   82.0501  221.3119 H   0  0  0  0  0  0  0  0  0  0  0  0
  142.1702   82.3381  223.5446 H   0  0  0  0  0  0  0  0  0  0  0  0
  142.8763   80.3038  224.8396 H   0  0  0  0  0  0  0  0  0  0  0  0
  142.4961   78.0625  223.8781 H   0  0  0  0  0  0  0  0  0  0  0  0
  141.4239   77.7642  221.6535 H   0  0  0  0  0  0  0  0  0  0  0  0
  138.6518   79.6412  219.1728 H   0  0  0  0  0  0  0  0  0  0  0  0
  139.1717   78.9537  221.9710 H   0  0  0  0  0  0  0  0  0  0  0  0
  137.9509   80.0502  221.1427 H   0  0  0  0  0  0  0  0  0  0  0  0
  137.0539   77.9448  222.1846 H   0  0  0  0  0  0  0  0  0  0  0  0
  136.6295   78.2579  220.4838 H   0  0  0  0  0  0  0  0  0  0  0  0
  139.3431   74.2848  220.5948 H   0  0  0  0  0  0  0  0  0  0  0  0
  139.2860   73.3030  223.2240 H   0  0  0  0  0  0  0  0  0  0  0  0
  139.4920   74.9660  223.3830 H   0  0  0  0  0  0  0  0  0  0  0  0
  136.8382   73.8093  222.2565 H   0  0  0  0  0  0  0  0  0  0  0  0
  137.1284   73.4709  220.5040 H   0  0  0  0  0  0  0  0  0  0  0  0
  139.0592   70.7186  220.8854 H   0  0  0  0  0  0  0  0  0  0  0  0
  139.6995   72.4311  220.8385 H   0  0  0  0  0  0  0  0  0  0  0  0
  140.8940   70.6187  222.3247 H   0  0  0  0  0  0  0  0  0  0  0  0
  140.6493   72.2861  222.9338 H   0  0  0  0  0  0  0  0  0  0  0  0
  138.7858   69.1303  225.7706 H   0  0  0  0  0  0  0  0  0  0  0  0
  139.6889   69.2241  228.0734 H   0  0  0  0  0  0  0  0  0  0  0  0
  141.3006   71.0356  228.7131 H   0  0  0  0  0  0  0  0  0  0  0  0
  141.9550   72.7203  226.9779 H   0  0  0  0  0  0  0  0  0  0  0  0
  141.0271   72.5884  224.6922 H   0  0  0  0  0  0  0  0  0  0  0  0
  138.1201   69.5921  222.5503 H   0  0  0  0  0  0  0  0  0  0  0  0
  137.5288   69.8116  224.1953 H   0  0  0  0  0  0  0  0  0  0  0  0
  136.2596   71.2563  222.5655 H   0  0  0  0  0  0  0  0  0  0  0  0
  137.1732   72.2719  223.7264 H   0  0  0  0  0  0  0  0  0  0  0  0
  139.1666   75.7406  219.3291 H   0  0  0  0  0  0  0  0  0  0  0  0
  137.8210   76.7701  218.7255 H   0  0  0  0  0  0  0  0  0  0  0  0
  140.5857   77.4835  219.5769 H   0  0  0  0  0  0  0  0  0  0  0  0
  139.5265   78.0282  218.1467 H   0  0  0  0  0  0  0  0  0  0  0  0
  1  2  1  0
  2  3  1  0
  3  4  2  0
  3  5  1  0
  5  6  1  0
  6  7  2  0
  7  8  1  0
  8  9  2  0
  9 10  1  0
 10 11  2  0
  5 12  1  0
 12 13  1  0
 13 14  1  0
 14 15  1  0
 15 16  1  0
 16 17  2  0
 16 18  1  0
 18 19  1  0
 18 20  1  0
 20 21  1  0
 21 22  1  0
 22 23  1  0
 23 24  1  0
 24 25  1  0
 25 26  2  0
 26 27  1  0
 27 28  2  0
 28 29  1  0
 29 30  2  0
 24 31  1  0
 31 32  1  0
 15 33  1  0
 33 34  1  0
 11  6  1  0
 34 12  1  0
 32 21  1  0
 30 25  1  0
  1 35  1  0
  1 36  1  0
  1 37  1  0
  2 38  1  0
  2 39  1  0
  7 40  1  0
  8 41  1  0
  9 42  1  0
 10 43  1  0
 11 44  1  0
 12 45  1  0
 13 46  1  0
 13 47  1  0
 14 48  1  0
 14 49  1  0
 18 50  1  6
 19 51  1  0
 19 52  1  0
 20 53  1  0
 20 54  1  0
 22 55  1  0
 22 56  1  0
 23 57  1  0
 23 58  1  0
 26 59  1  0
 27 60  1  0
 28 61  1  0
 29 62  1  0
 30 63  1  0
 31 64  1  0
 31 65  1  0
 32 66  1  0
 32 67  1  0
 33 68  1  0
 33 69  1  0
 34 70  1  0
 34 71  1  0
M  END
>  <smiles>  (38) 
CCC(=O)N(c1ccccc1)C1CCN(C(=O)[C@@H](N)CN2CCN(c3ccccc3)CC2)CC1

>  <score_type>  (38) 
oracle

>  <origin>  (38) 
autodockgpu

>  <m_score__min__energy>  (38) 
-8.5700000000000003

>  <m_primary>  (38) 
energy

>  <rmsd>  (38) 
8.61425612071676

>  <m_score__min__rmsd>  (38) 
8.61425612071676

>  <meeko>  (38) 
{"free_energy": -7.79, "intermolecular_energy": -10.48, "internal_energy": -3.15, "cluster_size": 26, "cluster_id": 3, "rank_in_cluster": 7}

>  <energy>  (38) 
-7.71

>  <cluster_rmsd>  (38) 
0.14

>  <cluster>  (38) 
5

$$$$

     RDKit          3D

 71 74  0  0  0  0  0  0  0  0999 V2000
  142.9550   81.6810  217.4490 C   0  0  0  0  0  0  0  0  0  0  0  0
  141.7470   81.4250  218.3510 C   0  0  0  0  0  0  0  0  0  0  0  0
  141.9430   80.0610  218.9060 C   0  0  0  0  0  0  0  0  0  0  0  0
  142.7760   79.3250  218.3160 O   0  0  0  0  0  0  0  0  0  0  0  0
  141.2030   79.6540  220.0490 N   0  0  0  0  0  0  0  0  0  0  0  0
  141.5940   80.0870  221.3470 C   0  0  0  0  0  0  0  0  0  0  0  0
  142.1700   79.1300  222.1650 C   0  0  0  0  0  0  0  0  0  0  0  0
  142.5870   79.4540  223.4530 C   0  0  0  0  0  0  0  0  0  0  0  0
  142.4150   80.7630  223.9140 C   0  0  0  0  0  0  0  0  0  0  0  0
  141.8370   81.6970  223.0780 C   0  0  0  0  0  0  0  0  0  0  0  0
  141.4180   81.3870  221.7890 C   0  0  0  0  0  0  0  0  0  0  0  0
  140.0280   78.7830  219.8490 C   0  0  0  0  0  0  0  0  0  0  0  0
  139.2780   78.5890  221.1160 C   0  0  0  0  0  0  0  0  0  0  0  0
  138.3920   77.3970  221.1440 C   0  0  0  0  0  0  0  0  0  0  0  0
  139.1700   76.2690  220.6650 N   0  0  0  0  0  0  0  0  0  0  0  0
  139.4080   75.2200  221.5770 C   0  0  0  0  0  0  0  0  0  0  0  0
  138.9590   75.3760  222.7540 O   0  0  0  0  0  0  0  0  0  0  0  0
  140.1510   73.9580  221.2240 C   0  0  1  0  0  0  0  0  0  0  0  0
  140.3810   73.3250  222.5340 N   0  0  0  0  0  0  0  0  0  0  0  0
  139.1660   73.1400  220.4220 C   0  0  0  0  0  0  0  0  0  0  0  0
  138.6680   72.0630  221.1780 N   0  0  0  0  0  0  0  0  0  0  0  0
  139.2320   70.7860  221.0920 C   0  0  0  0  0  0  0  0  0  0  0  0
  139.9270   70.3320  222.3730 C   0  0  0  0  0  0  0  0  0  0  0  0
  139.1600   70.8220  223.5310 N   0  0  0  0  0  0  0  0  0  0  0  0
  139.7430   70.9030  224.8210 C   0  0  0  0  0  0  0  0  0  0  0  0
  140.6590   71.8410  225.2040 C   0  0  0  0  0  0  0  0  0  0  0  0
  141.2160   71.8820  226.4860 C   0  0  0  0  0  0  0  0  0  0  0  0
  140.8380   70.9380  227.4340 C   0  0  0  0  0  0  0  0  0  0  0  0
  139.9040   69.9730  227.0590 C   0  0  0  0  0  0  0  0  0  0  0  0
  139.3720   69.9640  225.7740 C   0  0  0  0  0  0  0  0  0  0  0  0
  137.7930   71.2100  223.2330 C   0  0  0  0  0  0  0  0  0  0  0  0
  137.9270   72.4240  222.3290 C   0  0  0  0  0  0  0  0  0  0  0  0
  139.6500   76.3290  219.3070 C   0  0  0  0  0  0  0  0  0  0  0  0
  140.4430   77.5720  219.1080 C   0  0  0  0  0  0  0  0  0  0  0  0
  143.8431   81.8692  218.0702 H   0  0  0  0  0  0  0  0  0  0  0  0
  143.1316   80.8003  216.8140 H   0  0  0  0  0  0  0  0  0  0  0  0
  142.7592   82.5576  216.8140 H   0  0  0  0  0  0  0  0  0  0  0  0
  141.7093   82.1674  219.1618 H   0  0  0  0  0  0  0  0  0  0  0  0
  140.8008   81.5058  217.7958 H   0  0  0  0  0  0  0  0  0  0  0  0
  142.2995   78.1028  221.7932 H   0  0  0  0  0  0  0  0  0  0  0  0
  143.0455   78.6910  224.0992 H   0  0  0  0  0  0  0  0  0  0  0  0
  142.7356   81.0442  224.9280 H   0  0  0  0  0  0  0  0  0  0  0  0
  141.7029   82.7251  223.4454 H   0  0  0  0  0  0  0  0  0  0  0  0
  140.9615   82.1500  221.1414 H   0  0  0  0  0  0  0  0  0  0  0  0
  139.2732   79.2576  219.2049 H   0  0  0  0  0  0  0  0  0  0  0  0
  140.0078   78.4911  221.9332 H   0  0  0  0  0  0  0  0  0  0  0  0
  138.6199   79.4641  221.2212 H   0  0  0  0  0  0  0  0  0  0  0  0
  138.0481   77.2078  222.1716 H   0  0  0  0  0  0  0  0  0  0  0  0
  137.5061   77.5555  220.5115 H   0  0  0  0  0  0  0  0  0  0  0  0
  141.0882   74.0844  220.6622 H   0  0  0  0  0  0  0  0  0  0  0  0
  140.4470   72.2870  222.4580 H   0  0  0  0  0  0  0  0  0  0  0  0
  139.6020   73.5460  223.1900 H   0  0  0  0  0  0  0  0  0  0  0  0
  138.3274   73.7839  220.1183 H   0  0  0  0  0  0  0  0  0  0  0  0
  139.6836   72.7372  219.5389 H   0  0  0  0  0  0  0  0  0  0  0  0
  138.4316   70.0684  220.8586 H   0  0  0  0  0  0  0  0  0  0  0  0
  140.0018   70.8279  220.3074 H   0  0  0  0  0  0  0  0  0  0  0  0
  139.9730   69.2333  222.3987 H   0  0  0  0  0  0  0  0  0  0  0  0
  140.9497   70.7357  222.4054 H   0  0  0  0  0  0  0  0  0  0  0  0
  140.9728   72.5985  224.4707 H   0  0  0  0  0  0  0  0  0  0  0  0
  141.9510   72.6588  226.7436 H   0  0  0  0  0  0  0  0  0  0  0  0
  141.2626   70.9519  228.4486 H   0  0  0  0  0  0  0  0  0  0  0  0
  139.5850   69.2118  227.7862 H   0  0  0  0  0  0  0  0  0  0  0  0
  138.6367   69.1913  225.5052 H   0  0  0  0  0  0  0  0  0  0  0  0
  137.2628   70.3971  222.7153 H   0  0  0  0  0  0  0  0  0  0  0  0
  137.2141   71.4291  224.1423 H   0  0  0  0  0  0  0  0  0  0  0  0
  136.9276   72.7728  222.0296 H   0  0  0  0  0  0  0  0  0  0  0  0
  138.4457   73.2316  222.8663 H   0  0  0  0  0  0  0  0  0  0  0  0
  140.2854   75.4541  219.1051 H   0  0  0  0  0  0  0  0  0  0  0  0
  138.7924   76.3307  218.6181 H   0  0  0  0  0  0  0  0  0  0  0  0
  141.4802   77.3491  219.3989 H   0  0  0  0  0  0  0  0  0  0  0  0
  140.2908   77.8302  218.0496 H   0  0  0  0  0  0  0  0  0  0  0  0
  1  2  1  0
  2  3  1  0
  3  4  2  0
  3  5  1  0
  5  6  1  0
  6  7  2  0
  7  8  1  0
  8  9  2  0
  9 10  1  0
 10 11  2  0
  5 12  1  0
 12 13  1  0
 13 14  1  0
 14 15  1  0
 15 16  1  0
 16 17  2  0
 16 18  1  0
 18 19  1  0
 18 20  1  0
 20 21  1  0
 21 22  1  0
 22 23  1  0
 23 24  1  0
 24 25  1  0
 25 26  2  0
 26 27  1  0
 27 28  2  0
 28 29  1  0
 29 30  2  0
 24 31  1  0
 31 32  1  0
 15 33  1  0
 33 34  1  0
 11  6  1  0
 34 12  1  0
 32 21  1  0
 30 25  1  0
  1 35  1  0
  1 36  1  0
  1 37  1  0
  2 38  1  0
  2 39  1  0
  7 40  1  0
  8 41  1  0
  9 42  1  0
 10 43  1  0
 11 44  1  0
 12 45  1  0
 13 46  1  0
 13 47  1  0
 14 48  1  0
 14 49  1  0
 18 50  1  6
 19 51  1  0
 19 52  1  0
 20 53  1  0
 20 54  1  0
 22 55  1  0
 22 56  1  0
 23 57  1  0
 23 58  1  0
 26 59  1  0
 27 60  1  0
 28 61  1  0
 29 62  1  0
 30 63  1  0
 31 64  1  0
 31 65  1  0
 32 66  1  0
 32 67  1  0
 33 68  1  0
 33 69  1  0
 34 70  1  0
 34 71  1  0
M  END
>  <smiles>  (39) 
CCC(=O)N(c1ccccc1)C1CCN(C(=O)[C@@H](N)CN2CCN(c3ccccc3)CC2)CC1

>  <score_type>  (39) 
oracle

>  <origin>  (39) 
autodockgpu

>  <m_score__min__energy>  (39) 
-8.5700000000000003

>  <m_primary>  (39) 
energy

>  <rmsd>  (39) 
8.467090012822107

>  <m_score__min__rmsd>  (39) 
8.467090012822107

>  <meeko>  (39) 
{"free_energy": -7.67, "intermolecular_energy": -10.35, "internal_energy": -2.86, "cluster_size": 26, "cluster_id": 3, "rank_in_cluster": 14}

>  <energy>  (39) 
-7.52

>  <cluster_rmsd>  (39) 
0.24

>  <cluster>  (39) 
5

$$$$

     RDKit          3D

 71 74  0  0  0  0  0  0  0  0999 V2000
  143.0070   81.6360  217.4580 C   0  0  0  0  0  0  0  0  0  0  0  0
  141.7050   81.4140  218.2280 C   0  0  0  0  0  0  0  0  0  0  0  0
  141.8400   80.0810  218.8690 C   0  0  0  0  0  0  0  0  0  0  0  0
  142.6640   79.2850  218.3510 O   0  0  0  0  0  0  0  0  0  0  0  0
  141.0550   79.7690  220.0120 N   0  0  0  0  0  0  0  0  0  0  0  0
  141.5100   80.1260  221.3130 C   0  0  0  0  0  0  0  0  0  0  0  0
  142.0990   79.1170  222.0540 C   0  0  0  0  0  0  0  0  0  0  0  0
  142.5770   79.3650  223.3390 C   0  0  0  0  0  0  0  0  0  0  0  0
  142.4520   80.6500  223.8730 C   0  0  0  0  0  0  0  0  0  0  0  0
  141.8590   81.6380  223.1120 C   0  0  0  0  0  0  0  0  0  0  0  0
  141.3800   81.4040  221.8290 C   0  0  0  0  0  0  0  0  0  0  0  0
  139.7680   79.0760  219.8100 C   0  0  0  0  0  0  0  0  0  0  0  0
  138.9620   79.0590  221.0570 C   0  0  0  0  0  0  0  0  0  0  0  0
  137.9050   78.0150  221.1060 C   0  0  0  0  0  0  0  0  0  0  0  0
  138.5160   76.7620  220.7050 N   0  0  0  0  0  0  0  0  0  0  0  0
  138.5660   75.7340  221.6710 C   0  0  0  0  0  0  0  0  0  0  0  0
  138.1130   76.0140  222.8230 O   0  0  0  0  0  0  0  0  0  0  0  0
  139.1190   74.3600  221.4000 C   0  0  1  0  0  0  0  0  0  0  0  0
  139.6450   73.9440  222.7120 N   0  0  0  0  0  0  0  0  0  0  0  0
  137.9140   73.5220  221.0400 C   0  0  0  0  0  0  0  0  0  0  0  0
  138.0620   72.1990  221.4960 N   0  0  0  0  0  0  0  0  0  0  0  0
  139.1660   71.4210  221.1360 C   0  0  0  0  0  0  0  0  0  0  0  0
  140.0910   71.0860  222.3050 C   0  0  0  0  0  0  0  0  0  0  0  0
  139.2730   70.8590  223.5090 N   0  0  0  0  0  0  0  0  0  0  0  0
  139.8390   70.9170  224.8060 C   0  0  0  0  0  0  0  0  0  0  0  0
  140.7320   71.8630  225.2250 C   0  0  0  0  0  0  0  0  0  0  0  0
  141.2730   71.8820  226.5140 C   0  0  0  0  0  0  0  0  0  0  0  0
  140.9050   70.9050  227.4320 C   0  0  0  0  0  0  0  0  0  0  0  0
  139.9960   69.9320  227.0210 C   0  0  0  0  0  0  0  0  0  0  0  0
  139.4780   69.9450  225.7300 C   0  0  0  0  0  0  0  0  0  0  0  0
  137.8710   70.5840  223.2470 C   0  0  0  0  0  0  0  0  0  0  0  0
  137.3290   71.8780  222.6630 C   0  0  0  0  0  0  0  0  0  0  0  0
  139.0370   76.6830  219.3640 C   0  0  0  0  0  0  0  0  0  0  0  0
  140.0150   77.7810  219.1380 C   0  0  0  0  0  0  0  0  0  0  0  0
  143.8342   81.7770  218.1693 H   0  0  0  0  0  0  0  0  0  0  0  0
  143.2128   80.7600  216.8253 H   0  0  0  0  0  0  0  0  0  0  0  0
  142.9109   82.5307  216.8253 H   0  0  0  0  0  0  0  0  0  0  0  0
  141.5727   82.1950  218.9912 H   0  0  0  0  0  0  0  0  0  0  0  0
  140.8283   81.4590  217.5651 H   0  0  0  0  0  0  0  0  0  0  0  0
  142.1909   78.1086  221.6242 H   0  0  0  0  0  0  0  0  0  0  0  0
  143.0460   78.5606  223.9247 H   0  0  0  0  0  0  0  0  0  0  0  0
  142.8208   80.8716  224.8854 H   0  0  0  0  0  0  0  0  0  0  0  0
  141.7623   82.6478  223.5374 H   0  0  0  0  0  0  0  0  0  0  0  0
  140.9125   82.2084  221.2421 H   0  0  0  0  0  0  0  0  0  0  0  0
  139.1123   79.6269  219.1196 H   0  0  0  0  0  0  0  0  0  0  0  0
  139.6452   78.8932  221.9030 H   0  0  0  0  0  0  0  0  0  0  0  0
  138.4412   80.0269  221.1004 H   0  0  0  0  0  0  0  0  0  0  0  0
  137.5076   77.9296  222.1281 H   0  0  0  0  0  0  0  0  0  0  0  0
  137.0717   78.2734  220.4361 H   0  0  0  0  0  0  0  0  0  0  0  0
  139.8835   74.2884  220.6123 H   0  0  0  0  0  0  0  0  0  0  0  0
  139.1250   73.1270  223.0990 H   0  0  0  0  0  0  0  0  0  0  0  0
  139.5690   74.7220  223.4010 H   0  0  0  0  0  0  0  0  0  0  0  0
  137.0186   73.9632  221.5022 H   0  0  0  0  0  0  0  0  0  0  0  0
  137.8153   73.5048  219.9446 H   0  0  0  0  0  0  0  0  0  0  0  0
  138.7998   70.4788  220.7023 H   0  0  0  0  0  0  0  0  0  0  0  0
  139.7554   72.0126  220.4200 H   0  0  0  0  0  0  0  0  0  0  0  0
  140.6663   70.1777  222.0725 H   0  0  0  0  0  0  0  0  0  0  0  0
  140.7888   71.9183  222.4792 H   0  0  0  0  0  0  0  0  0  0  0  0
  141.0392   72.6454  224.5154 H   0  0  0  0  0  0  0  0  0  0  0  0
  141.9876   72.6675  226.8009 H   0  0  0  0  0  0  0  0  0  0  0  0
  141.3186   70.9001  228.4513 H   0  0  0  0  0  0  0  0  0  0  0  0
  139.6849   69.1457  227.7245 H   0  0  0  0  0  0  0  0  0  0  0  0
  138.7628   69.1639  225.4328 H   0  0  0  0  0  0  0  0  0  0  0  0
  137.7651   69.7588  222.5274 H   0  0  0  0  0  0  0  0  0  0  0  0
  137.3297   70.2768  224.1539 H   0  0  0  0  0  0  0  0  0  0  0  0
  136.2665   71.7510  222.4080 H   0  0  0  0  0  0  0  0  0  0  0  0
  137.4289   72.6889  223.3996 H   0  0  0  0  0  0  0  0  0  0  0  0
  139.5373   75.7135  219.2231 H   0  0  0  0  0  0  0  0  0  0  0  0
  138.2091   76.7805  218.6463 H   0  0  0  0  0  0  0  0  0  0  0  0
  140.9977   77.4191  219.4747 H   0  0  0  0  0  0  0  0  0  0  0  0
  139.9338   78.0068  218.0645 H   0  0  0  0  0  0  0  0  0  0  0  0
  1  2  1  0
  2  3  1  0
  3  4  2  0
  3  5  1  0
  5  6  1  0
  6  7  2  0
  7  8  1  0
  8  9  2  0
  9 10  1  0
 10 11  2  0
  5 12  1  0
 12 13  1  0
 13 14  1  0
 14 15  1  0
 15 16  1  0
 16 17  2  0
 16 18  1  0
 18 19  1  0
 18 20  1  0
 20 21  1  0
 21 22  1  0
 22 23  1  0
 23 24  1  0
 24 25  1  0
 25 26  2  0
 26 27  1  0
 27 28  2  0
 28 29  1  0
 29 30  2  0
 24 31  1  0
 31 32  1  0
 15 33  1  0
 33 34  1  0
 11  6  1  0
 34 12  1  0
 32 21  1  0
 30 25  1  0
  1 35  1  0
  1 36  1  0
  1 37  1  0
  2 38  1  0
  2 39  1  0
  7 40  1  0
  8 41  1  0
  9 42  1  0
 10 43  1  0
 11 44  1  0
 12 45  1  0
 13 46  1  0
 13 47  1  0
 14 48  1  0
 14 49  1  0
 18 50  1  6
 19 51  1  0
 19 52  1  0
 20 53  1  0
 20 54  1  0
 22 55  1  0
 22 56  1  0
 23 57  1  0
 23 58  1  0
 26 59  1  0
 27 60  1  0
 28 61  1  0
 29 62  1  0
 30 63  1  0
 31 64  1  0
 31 65  1  0
 32 66  1  0
 32 67  1  0
 33 68  1  0
 33 69  1  0
 34 70  1  0
 34 71  1  0
M  END
>  <smiles>  (40) 
CCC(=O)N(c1ccccc1)C1CCN(C(=O)[C@@H](N)CN2CCN(c3ccccc3)CC2)CC1

>  <score_type>  (40) 
oracle

>  <origin>  (40) 
autodockgpu

>  <m_score__min__energy>  (40) 
-8.5700000000000003

>  <m_primary>  (40) 
energy

>  <rmsd>  (40) 
8.518022943692644

>  <m_score__min__rmsd>  (40) 
8.518022943692644

>  <meeko>  (40) 
{"free_energy": -7.78, "intermolecular_energy": -10.47, "internal_energy": -3.26, "cluster_size": 26, "cluster_id": 3, "rank_in_cluster": 9}

>  <energy>  (40) 
-7.64

>  <cluster_rmsd>  (40) 
0.0

>  <cluster>  (40) 
6

$$$$

     RDKit          3D

 71 74  0  0  0  0  0  0  0  0999 V2000
  142.2110   80.0960  223.8310 C   0  0  0  0  0  0  0  0  0  0  0  0
  142.3230   80.4140  222.3400 C   0  0  0  0  0  0  0  0  0  0  0  0
  141.5520   79.3520  221.6440 C   0  0  0  0  0  0  0  0  0  0  0  0
  141.4790   78.2350  222.2200 O   0  0  0  0  0  0  0  0  0  0  0  0
  140.9430   79.6330  220.3910 N   0  0  0  0  0  0  0  0  0  0  0  0
  141.5330   80.5750  219.5030 C   0  0  0  0  0  0  0  0  0  0  0  0
  141.1010   81.8840  219.6220 C   0  0  0  0  0  0  0  0  0  0  0  0
  141.6180   82.8810  218.7980 C   0  0  0  0  0  0  0  0  0  0  0  0
  142.5820   82.5420  217.8440 C   0  0  0  0  0  0  0  0  0  0  0  0
  142.9950   81.2280  217.7470 C   0  0  0  0  0  0  0  0  0  0  0  0
  142.4880   80.2240  218.5630 C   0  0  0  0  0  0  0  0  0  0  0  0
  139.6970   78.9220  220.0430 C   0  0  0  0  0  0  0  0  0  0  0  0
  138.7720   78.8540  221.2030 C   0  0  0  0  0  0  0  0  0  0  0  0
  137.7370   77.7910  221.1190 C   0  0  0  0  0  0  0  0  0  0  0  0
  138.4110   76.5610  220.7460 N   0  0  0  0  0  0  0  0  0  0  0  0
  138.3870   75.5070  221.6840 C   0  0  0  0  0  0  0  0  0  0  0  0
  137.8170   75.7450  222.7930 O   0  0  0  0  0  0  0  0  0  0  0  0
  138.9930   74.1510  221.4320 C   0  0  1  0  0  0  0  0  0  0  0  0
  139.6350   73.8260  222.7170 N   0  0  0  0  0  0  0  0  0  0  0  0
  137.8120   73.2370  221.2010 C   0  0  0  0  0  0  0  0  0  0  0  0
  138.0970   71.9250  221.6230 N   0  0  0  0  0  0  0  0  0  0  0  0
  139.3040   71.2990  221.3000 C   0  0  0  0  0  0  0  0  0  0  0  0
  140.2020   71.0330  222.5050 C   0  0  0  0  0  0  0  0  0  0  0  0
  139.3590   70.6640  223.6560 N   0  0  0  0  0  0  0  0  0  0  0  0
  139.8490   70.7410  224.9830 C   0  0  0  0  0  0  0  0  0  0  0  0
  139.5160   69.8780  225.9880 C   0  0  0  0  0  0  0  0  0  0  0  0
  140.0180   69.9920  227.2880 C   0  0  0  0  0  0  0  0  0  0  0  0
  140.8960   71.0230  227.6010 C   0  0  0  0  0  0  0  0  0  0  0  0
  141.2460   71.9140  226.5880 C   0  0  0  0  0  0  0  0  0  0  0  0
  140.7270   71.7680  225.3060 C   0  0  0  0  0  0  0  0  0  0  0  0
  138.0160   70.2340  223.3100 C   0  0  0  0  0  0  0  0  0  0  0  0
  137.3510   71.4750  222.7390 C   0  0  0  0  0  0  0  0  0  0  0  0
  139.0630   76.5300  219.4620 C   0  0  0  0  0  0  0  0  0  0  0  0
  140.0360   77.6520  219.3640 C   0  0  0  0  0  0  0  0  0  0  0  0
  142.5202   80.9738  224.4174 H   0  0  0  0  0  0  0  0  0  0  0  0
  141.1690   79.8410  224.0743 H   0  0  0  0  0  0  0  0  0  0  0  0
  142.8633   79.2443  224.0743 H   0  0  0  0  0  0  0  0  0  0  0  0
  141.8929   81.4034  222.1254 H   0  0  0  0  0  0  0  0  0  0  0  0
  143.3713   80.4390  222.0076 H   0  0  0  0  0  0  0  0  0  0  0  0
  140.3413   82.1401  220.3752 H   0  0  0  0  0  0  0  0  0  0  0  0
  141.2725   83.9207  218.8966 H   0  0  0  0  0  0  0  0  0  0  0  0
  143.0052   83.3106  217.1805 H   0  0  0  0  0  0  0  0  0  0  0  0
  143.7541   80.9660  216.9953 H   0  0  0  0  0  0  0  0  0  0  0  0
  142.8338   79.1843  218.4657 H   0  0  0  0  0  0  0  0  0  0  0  0
  139.1017   79.4805  219.3057 H   0  0  0  0  0  0  0  0  0  0  0  0
  139.3717   78.6757  222.1078 H   0  0  0  0  0  0  0  0  0  0  0  0
  138.2295   79.8108  221.2203 H   0  0  0  0  0  0  0  0  0  0  0  0
  137.2430   77.6687  222.0942 H   0  0  0  0  0  0  0  0  0  0  0  0
  136.9680   78.0539  220.3778 H   0  0  0  0  0  0  0  0  0  0  0  0
  139.7006   74.0804  220.5928 H   0  0  0  0  0  0  0  0  0  0  0  0
  139.1990   72.9940  223.1710 H   0  0  0  0  0  0  0  0  0  0  0  0
  139.5570   74.6260  223.3790 H   0  0  0  0  0  0  0  0  0  0  0  0
  136.9480   73.6165  221.7662 H   0  0  0  0  0  0  0  0  0  0  0  0
  137.5907   73.2174  220.1237 H   0  0  0  0  0  0  0  0  0  0  0  0
  139.0773   70.3369  220.8174 H   0  0  0  0  0  0  0  0  0  0  0  0
  139.8526   71.9840  220.6368 H   0  0  0  0  0  0  0  0  0  0  0  0
  140.8941   70.2095  222.2751 H   0  0  0  0  0  0  0  0  0  0  0  0
  140.7836   71.9358  222.7431 H   0  0  0  0  0  0  0  0  0  0  0  0
  138.8208   69.0554  225.7643 H   0  0  0  0  0  0  0  0  0  0  0  0
  139.7191   69.2681  228.0604 H   0  0  0  0  0  0  0  0  0  0  0  0
  141.3023   71.1324  228.6173 H   0  0  0  0  0  0  0  0  0  0  0  0
  141.9391   72.7403  226.8045 H   0  0  0  0  0  0  0  0  0  0  0  0
  141.0200   72.4859  224.5258 H   0  0  0  0  0  0  0  0  0  0  0  0
  138.0469   69.4301  222.5598 H   0  0  0  0  0  0  0  0  0  0  0  0
  137.4713   69.8301  224.1761 H   0  0  0  0  0  0  0  0  0  0  0  0
  136.3256   71.2320  222.4236 H   0  0  0  0  0  0  0  0  0  0  0  0
  137.3155   72.2637  223.5050 H   0  0  0  0  0  0  0  0  0  0  0  0
  139.5947   75.5742  219.3453 H   0  0  0  0  0  0  0  0  0  0  0  0
  138.3082   76.6332  218.6685 H   0  0  0  0  0  0  0  0  0  0  0  0
  140.9880   77.2982  219.7866 H   0  0  0  0  0  0  0  0  0  0  0  0
  140.0565   77.9074  218.2943 H   0  0  0  0  0  0  0  0  0  0  0  0
  1  2  1  0
  2  3  1  0
  3  4  2  0
  3  5  1  0
  5  6  1  0
  6  7  2  0
  7  8  1  0
  8  9  2  0
  9 10  1  0
 10 11  2  0
  5 12  1  0
 12 13  1  0
 13 14  1  0
 14 15  1  0
 15 16  1  0
 16 17  2  0
 16 18  1  0
 18 19  1  0
 18 20  1  0
 20 21  1  0
 21 22  1  0
 22 23  1  0
 23 24  1  0
 24 25  1  0
 25 26  2  0
 26 27  1  0
 27 28  2  0
 28 29  1  0
 29 30  2  0
 24 31  1  0
 31 32  1  0
 15 33  1  0
 33 34  1  0
 11  6  1  0
 34 12  1  0
 32 21  1  0
 30 25  1  0
  1 35  1  0
  1 36  1  0
  1 37  1  0
  2 38  1  0
  2 39  1  0
  7 40  1  0
  8 41  1  0
  9 42  1  0
 10 43  1  0
 11 44  1  0
 12 45  1  0
 13 46  1  0
 13 47  1  0
 14 48  1  0
 14 49  1  0
 18 50  1  6
 19 51  1  0
 19 52  1  0
 20 53  1  0
 20 54  1  0
 22 55  1  0
 22 56  1  0
 23 57  1  0
 23 58  1  0
 26 59  1  0
 27 60  1  0
 28 61  1  0
 29 62  1  0
 30 63  1  0
 31 64  1  0
 31 65  1  0
 32 66  1  0
 32 67  1  0
 33 68  1  0
 33 69  1  0
 34 70  1  0
 34 71  1  0
M  END
>  <smiles>  (41) 
CCC(=O)N(c1ccccc1)C1CCN(C(=O)[C@@H](N)CN2CCN(c3ccccc3)CC2)CC1

>  <score_type>  (41) 
oracle

>  <origin>  (41) 
autodockgpu

>  <m_score__min__energy>  (41) 
-8.5700000000000003

>  <m_primary>  (41) 
energy

>  <rmsd>  (41) 
8.600636342523343

>  <m_score__min__rmsd>  (41) 
8.600636342523343

>  <meeko>  (41) 
{"free_energy": -7.26, "intermolecular_energy": -9.94, "internal_energy": -3.18, "cluster_size": 26, "cluster_id": 3, "rank_in_cluster": 21}

>  <energy>  (41) 
-7.55

>  <cluster_rmsd>  (41) 
0.52

>  <cluster>  (41) 
6

$$$$

     RDKit          3D

 71 74  0  0  0  0  0  0  0  0999 V2000
  142.5810   80.8180  218.1250 C   0  0  0  0  0  0  0  0  0  0  0  0
  142.5420   79.2940  218.2460 C   0  0  0  0  0  0  0  0  0  0  0  0
  141.4140   78.9930  219.1640 C   0  0  0  0  0  0  0  0  0  0  0  0
  140.2570   79.0310  218.6710 O   0  0  0  0  0  0  0  0  0  0  0  0
  141.6800   78.6800  220.5250 N   0  0  0  0  0  0  0  0  0  0  0  0
  141.8050   79.7210  221.4880 C   0  0  0  0  0  0  0  0  0  0  0  0
  142.5760   79.4370  222.6020 C   0  0  0  0  0  0  0  0  0  0  0  0
  142.7580   80.3900  223.6010 C   0  0  0  0  0  0  0  0  0  0  0  0
  142.1500   81.6410  223.4660 C   0  0  0  0  0  0  0  0  0  0  0  0
  141.3870   81.8980  222.3450 C   0  0  0  0  0  0  0  0  0  0  0  0
  141.1970   80.9560  221.3400 C   0  0  0  0  0  0  0  0  0  0  0  0
  141.8180   77.2600  220.9040 C   0  0  0  0  0  0  0  0  0  0  0  0
  141.9760   76.3960  219.7070 C   0  0  0  0  0  0  0  0  0  0  0  0
  141.6530   74.9610  219.9230 C   0  0  0  0  0  0  0  0  0  0  0  0
  140.3750   74.9040  220.6080 N   0  0  0  0  0  0  0  0  0  0  0  0
  139.3040   74.2980  219.9180 C   0  0  0  0  0  0  0  0  0  0  0  0
  139.5420   73.8970  218.7370 O   0  0  0  0  0  0  0  0  0  0  0  0
  137.9300   74.1120  220.5060 C   0  0  1  0  0  0  0  0  0  0  0  0
  137.4020   72.9520  219.7680 N   0  0  0  0  0  0  0  0  0  0  0  0
  138.1740   73.7360  221.9490 C   0  0  0  0  0  0  0  0  0  0  0  0
  138.5900   72.3970  222.0600 N   0  0  0  0  0  0  0  0  0  0  0  0
  139.9070   72.0150  221.7870 C   0  0  0  0  0  0  0  0  0  0  0  0
  140.6730   71.5240  223.0120 C   0  0  0  0  0  0  0  0  0  0  0  0
  139.7530   70.7650  223.8770 N   0  0  0  0  0  0  0  0  0  0  0  0
  140.0530   70.5250  225.2410 C   0  0  0  0  0  0  0  0  0  0  0  0
  139.7620   69.3700  225.9110 C   0  0  0  0  0  0  0  0  0  0  0  0
  140.0700   69.1750  227.2610 C   0  0  0  0  0  0  0  0  0  0  0  0
  140.7010   70.1840  227.9790 C   0  0  0  0  0  0  0  0  0  0  0  0
  141.0050   71.3690  227.3100 C   0  0  0  0  0  0  0  0  0  0  0  0
  140.6830   71.5280  225.9670 C   0  0  0  0  0  0  0  0  0  0  0  0
  138.5420   70.3080  223.2200 C   0  0  0  0  0  0  0  0  0  0  0  0
  137.7820   71.5800  222.8870 C   0  0  0  0  0  0  0  0  0  0  0  0
  140.3050   75.4900  221.9220 C   0  0  0  0  0  0  0  0  0  0  0  0
  140.7500   76.9090  221.8650 C   0  0  0  0  0  0  0  0  0  0  0  0
  142.5924   81.2654  219.1298 H   0  0  0  0  0  0  0  0  0  0  0  0
  143.4871   81.1194  217.5791 H   0  0  0  0  0  0  0  0  0  0  0  0
  141.6914   81.1654  217.5791 H   0  0  0  0  0  0  0  0  0  0  0  0
  142.3682   78.8353  217.2614 H   0  0  0  0  0  0  0  0  0  0  0  0
  143.4930   78.8922  218.6256 H   0  0  0  0  0  0  0  0  0  0  0  0
  143.0496   78.4489  222.6991 H   0  0  0  0  0  0  0  0  0  0  0  0
  143.3721   80.1611  224.4845 H   0  0  0  0  0  0  0  0  0  0  0  0
  142.2777   82.4099  224.2422 H   0  0  0  0  0  0  0  0  0  0  0  0
  140.9115   82.8847  222.2428 H   0  0  0  0  0  0  0  0  0  0  0  0
  140.5835   81.1846  220.4560 H   0  0  0  0  0  0  0  0  0  0  0  0
  142.7544   77.0716  221.4496 H   0  0  0  0  0  0  0  0  0  0  0  0
  141.3126   76.7805  218.9183 H   0  0  0  0  0  0  0  0  0  0  0  0
  143.0417   76.4349  219.4373 H   0  0  0  0  0  0  0  0  0  0  0  0
  141.5852   74.4409  218.9561 H   0  0  0  0  0  0  0  0  0  0  0  0
  142.4366   74.4713  220.5198 H   0  0  0  0  0  0  0  0  0  0  0  0
  137.2526   74.9766  220.4459 H   0  0  0  0  0  0  0  0  0  0  0  0
  137.2590   72.1270  220.3900 H   0  0  0  0  0  0  0  0  0  0  0  0
  138.0590   72.6690  219.0110 H   0  0  0  0  0  0  0  0  0  0  0  0
  138.9549   74.3904  222.3636 H   0  0  0  0  0  0  0  0  0  0  0  0
  137.2328   73.8567  222.5054 H   0  0  0  0  0  0  0  0  0  0  0  0
  139.8859   71.2046  221.0435 H   0  0  0  0  0  0  0  0  0  0  0  0
  140.4303   72.9101  221.4198 H   0  0  0  0  0  0  0  0  0  0  0  0
  141.5013   70.8740  222.6936 H   0  0  0  0  0  0  0  0  0  0  0  0
  141.0818   72.3826  223.5650 H   0  0  0  0  0  0  0  0  0  0  0  0
  139.2629   68.5569  225.3635 H   0  0  0  0  0  0  0  0  0  0  0  0
  139.8135   68.2254  227.7535 H   0  0  0  0  0  0  0  0  0  0  0  0
  140.9527   70.0519  229.0416 H   0  0  0  0  0  0  0  0  0  0  0  0
  141.5047   72.1864  227.8504 H   0  0  0  0  0  0  0  0  0  0  0  0
  140.9340   72.4742  225.4653 H   0  0  0  0  0  0  0  0  0  0  0  0
  138.7846   69.7497  222.3038 H   0  0  0  0  0  0  0  0  0  0  0  0
  137.9559   69.6263  223.8539 H   0  0  0  0  0  0  0  0  0  0  0  0
  136.8516   71.3259  222.3581 H   0  0  0  0  0  0  0  0  0  0  0  0
  137.5351   72.1186  223.8138 H   0  0  0  0  0  0  0  0  0  0  0  0
  139.2680   75.4467  222.2865 H   0  0  0  0  0  0  0  0  0  0  0  0
  140.9613   74.9305  222.6048 H   0  0  0  0  0  0  0  0  0  0  0  0
  139.8696   77.5188  221.6139 H   0  0  0  0  0  0  0  0  0  0  0  0
  141.1939   77.0994  222.8533 H   0  0  0  0  0  0  0  0  0  0  0  0
  1  2  1  0
  2  3  1  0
  3  4  2  0
  3  5  1  0
  5  6  1  0
  6  7  2  0
  7  8  1  0
  8  9  2  0
  9 10  1  0
 10 11  2  0
  5 12  1  0
 12 13  1  0
 13 14  1  0
 14 15  1  0
 15 16  1  0
 16 17  2  0
 16 18  1  0
 18 19  1  0
 18 20  1  0
 20 21  1  0
 21 22  1  0
 22 23  1  0
 23 24  1  0
 24 25  1  0
 25 26  2  0
 26 27  1  0
 27 28  2  0
 28 29  1  0
 29 30  2  0
 24 31  1  0
 31 32  1  0
 15 33  1  0
 33 34  1  0
 11  6  1  0
 34 12  1  0
 32 21  1  0
 30 25  1  0
  1 35  1  0
  1 36  1  0
  1 37  1  0
  2 38  1  0
  2 39  1  0
  7 40  1  0
  8 41  1  0
  9 42  1  0
 10 43  1  0
 11 44  1  0
 12 45  1  0
 13 46  1  0
 13 47  1  0
 14 48  1  0
 14 49  1  0
 18 50  1  1
 19 51  1  0
 19 52  1  0
 20 53  1  0
 20 54  1  0
 22 55  1  0
 22 56  1  0
 23 57  1  0
 23 58  1  0
 26 59  1  0
 27 60  1  0
 28 61  1  0
 29 62  1  0
 30 63  1  0
 31 64  1  0
 31 65  1  0
 32 66  1  0
 32 67  1  0
 33 68  1  0
 33 69  1  0
 34 70  1  0
 34 71  1  0
M  END
>  <smiles>  (42) 
CCC(=O)N(c1ccccc1)C1CCN(C(=O)[C@@H](N)CN2CCN(c3ccccc3)CC2)CC1

>  <score_type>  (42) 
oracle

>  <origin>  (42) 
autodockgpu

>  <m_score__min__energy>  (42) 
-8.5700000000000003

>  <m_primary>  (42) 
energy

>  <rmsd>  (42) 
8.797033497303863

>  <m_score__min__rmsd>  (42) 
8.797033497303863

>  <meeko>  (42) 
{"free_energy": -7.29, "intermolecular_energy": -9.98, "internal_energy": -2.84, "cluster_size": 26, "cluster_id": 3, "rank_in_cluster": 20}

>  <energy>  (42) 
-7.59

>  <cluster_rmsd>  (42) 
0.0

>  <cluster>  (42) 
7

$$$$

     RDKit          3D

 71 74  0  0  0  0  0  0  0  0999 V2000
  137.6590   82.6700  222.5120 C   0  0  0  0  0  0  0  0  0  0  0  0
  136.9640   81.9010  223.6360 C   0  0  0  0  0  0  0  0  0  0  0  0
  137.9440   80.8820  224.0930 C   0  0  0  0  0  0  0  0  0  0  0  0
  138.0410   80.7070  225.3350 O   0  0  0  0  0  0  0  0  0  0  0  0
  138.7110   80.1670  223.1340 N   0  0  0  0  0  0  0  0  0  0  0  0
  140.1330   80.2150  223.1740 C   0  0  0  0  0  0  0  0  0  0  0  0
  140.7680   79.1280  223.7480 C   0  0  0  0  0  0  0  0  0  0  0  0
  142.1570   79.0800  223.8340 C   0  0  0  0  0  0  0  0  0  0  0  0
  142.9060   80.1490  223.3340 C   0  0  0  0  0  0  0  0  0  0  0  0
  142.2470   81.2220  222.7670 C   0  0  0  0  0  0  0  0  0  0  0  0
  140.8610   81.2810  222.6730 C   0  0  0  0  0  0  0  0  0  0  0  0
  137.9960   79.3790  222.1110 C   0  0  0  0  0  0  0  0  0  0  0  0
  136.9440   78.5270  222.7240 C   0  0  0  0  0  0  0  0  0  0  0  0
  136.5020   77.3810  221.8890 C   0  0  0  0  0  0  0  0  0  0  0  0
  137.6950   76.7060  221.4130 N   0  0  0  0  0  0  0  0  0  0  0  0
  137.9000   75.3800  221.8490 C   0  0  0  0  0  0  0  0  0  0  0  0
  137.0430   74.9090  222.6600 O   0  0  0  0  0  0  0  0  0  0  0  0
  139.0580   74.5240  221.4080 C   0  0  1  0  0  0  0  0  0  0  0  0
  139.5860   73.9930  222.6760 N   0  0  0  0  0  0  0  0  0  0  0  0
  138.4310   73.4090  220.6030 C   0  0  0  0  0  0  0  0  0  0  0  0
  138.9880   72.1630  220.9460 N   0  0  0  0  0  0  0  0  0  0  0  0
  140.3680   71.9440  220.9110 C   0  0  0  0  0  0  0  0  0  0  0  0
  140.9890   71.7060  222.2850 C   0  0  0  0  0  0  0  0  0  0  0  0
  140.0470   70.9260  223.1050 N   0  0  0  0  0  0  0  0  0  0  0  0
  140.1580   70.8830  224.5170 C   0  0  0  0  0  0  0  0  0  0  0  0
  139.5590   69.9540  225.3190 C   0  0  0  0  0  0  0  0  0  0  0  0
  139.6890   69.9510  226.7110 C   0  0  0  0  0  0  0  0  0  0  0  0
  140.4580   70.9260  227.3350 C   0  0  0  0  0  0  0  0  0  0  0  0
  141.0760   71.8830  226.5320 C   0  0  0  0  0  0  0  0  0  0  0  0
  140.9230   71.8550  225.1500 C   0  0  0  0  0  0  0  0  0  0  0  0
  139.0190   70.2300  222.3520 C   0  0  0  0  0  0  0  0  0  0  0  0
  138.1680   71.3370  221.7520 C   0  0  0  0  0  0  0  0  0  0  0  0
  138.5770   77.4550  220.5550 C   0  0  0  0  0  0  0  0  0  0  0  0
  138.9830   78.7180  221.2300 C   0  0  0  0  0  0  0  0  0  0  0  0
  138.3369   83.4200  222.9455 H   0  0  0  0  0  0  0  0  0  0  0  0
  138.2364   81.9694  221.8909 H   0  0  0  0  0  0  0  0  0  0  0  0
  136.9037   83.1738  221.8909 H   0  0  0  0  0  0  0  0  0  0  0  0
  136.7040   82.5801  224.4614 H   0  0  0  0  0  0  0  0  0  0  0  0
  136.0277   81.4375  223.2917 H   0  0  0  0  0  0  0  0  0  0  0  0
  140.1693   78.2929  224.1406 H   0  0  0  0  0  0  0  0  0  0  0  0
  142.6579   78.2128  224.2891 H   0  0  0  0  0  0  0  0  0  0  0  0
  144.0044   80.1358  223.3913 H   0  0  0  0  0  0  0  0  0  0  0  0
  142.8406   82.0611  222.3752 H   0  0  0  0  0  0  0  0  0  0  0  0
  140.3591   82.1464  222.2155 H   0  0  0  0  0  0  0  0  0  0  0  0
  137.4097   80.0215  221.4375 H   0  0  0  0  0  0  0  0  0  0  0  0
  137.3362   78.1284  223.6713 H   0  0  0  0  0  0  0  0  0  0  0  0
  136.0623   79.1716  222.8546 H   0  0  0  0  0  0  0  0  0  0  0  0
  135.8936   76.6898  222.4908 H   0  0  0  0  0  0  0  0  0  0  0  0
  135.8893   77.7291  221.0444 H   0  0  0  0  0  0  0  0  0  0  0  0
  139.8399   75.0261  220.8194 H   0  0  0  0  0  0  0  0  0  0  0  0
  139.1620   73.0720  222.9190 H   0  0  0  0  0  0  0  0  0  0  0  0
  139.3890   74.6500  223.4600 H   0  0  0  0  0  0  0  0  0  0  0  0
  137.3494   73.3863  220.8020 H   0  0  0  0  0  0  0  0  0  0  0  0
  138.6234   73.5966  219.5363 H   0  0  0  0  0  0  0  0  0  0  0  0
  140.5633   71.0612  220.2845 H   0  0  0  0  0  0  0  0  0  0  0  0
  140.8272   72.8577  220.5057 H   0  0  0  0  0  0  0  0  0  0  0  0
  141.9306   71.1485  222.1732 H   0  0  0  0  0  0  0  0  0  0  0  0
  141.1976   72.6700  222.7720 H   0  0  0  0  0  0  0  0  0  0  0  0
  138.9458   69.1717  224.8479 H   0  0  0  0  0  0  0  0  0  0  0  0
  139.1841   69.1792  227.3105 H   0  0  0  0  0  0  0  0  0  0  0  0
  140.5753   70.9420  228.4286 H   0  0  0  0  0  0  0  0  0  0  0  0
  141.6909   72.6683  226.9960 H   0  0  0  0  0  0  0  0  0  0  0  0
  141.4214   72.6237  224.5411 H   0  0  0  0  0  0  0  0  0  0  0  0
  139.4684   69.6130  221.5600 H   0  0  0  0  0  0  0  0  0  0  0  0
  138.4309   69.5465  222.9821 H   0  0  0  0  0  0  0  0  0  0  0  0
  137.3700   70.8963  221.1364 H   0  0  0  0  0  0  0  0  0  0  0  0
  137.7147   71.9348  222.5564 H   0  0  0  0  0  0  0  0  0  0  0  0
  139.4717   76.8536  220.3364 H   0  0  0  0  0  0  0  0  0  0  0  0
  138.0545   77.6955  219.6174 H   0  0  0  0  0  0  0  0  0  0  0  0
  139.8691   78.4926  221.8416 H   0  0  0  0  0  0  0  0  0  0  0  0
  139.1414   79.4318  220.4082 H   0  0  0  0  0  0  0  0  0  0  0  0
  1  2  1  0
  2  3  1  0
  3  4  2  0
  3  5  1  0
  5  6  1  0
  6  7  2  0
  7  8  1  0
  8  9  2  0
  9 10  1  0
 10 11  2  0
  5 12  1  0
 12 13  1  0
 13 14  1  0
 14 15  1  0
 15 16  1  0
 16 17  2  0
 16 18  1  0
 18 19  1  0
 18 20  1  0
 20 21  1  0
 21 22  1  0
 22 23  1  0
 23 24  1  0
 24 25  1  0
 25 26  2  0
 26 27  1  0
 27 28  2  0
 28 29  1  0
 29 30  2  0
 24 31  1  0
 31 32  1  0
 15 33  1  0
 33 34  1  0
 11  6  1  0
 34 12  1  0
 32 21  1  0
 30 25  1  0
  1 35  1  0
  1 36  1  0
  1 37  1  0
  2 38  1  0
  2 39  1  0
  7 40  1  0
  8 41  1  0
  9 42  1  0
 10 43  1  0
 11 44  1  0
 12 45  1  0
 13 46  1  0
 13 47  1  0
 14 48  1  0
 14 49  1  0
 18 50  1  6
 19 51  1  0
 19 52  1  0
 20 53  1  0
 20 54  1  0
 22 55  1  0
 22 56  1  0
 23 57  1  0
 23 58  1  0
 26 59  1  0
 27 60  1  0
 28 61  1  0
 29 62  1  0
 30 63  1  0
 31 64  1  0
 31 65  1  0
 32 66  1  0
 32 67  1  0
 33 68  1  0
 33 69  1  0
 34 70  1  0
 34 71  1  0
M  END
>  <smiles>  (43) 
CCC(=O)N(c1ccccc1)C1CCN(C(=O)[C@@H](N)CN2CCN(c3ccccc3)CC2)CC1

>  <score_type>  (43) 
oracle

>  <origin>  (43) 
autodockgpu

>  <m_score__min__energy>  (43) 
-8.5700000000000003

>  <m_primary>  (43) 
energy

>  <rmsd>  (43) 
8.366466980816615

>  <m_score__min__rmsd>  (43) 
8.366466980816615

>  <meeko>  (43) 
{"free_energy": -7.72, "intermolecular_energy": -10.41, "internal_energy": -2.74, "cluster_size": 26, "cluster_id": 3, "rank_in_cluster": 11}

>  <energy>  (43) 
-7.3

>  <cluster_rmsd>  (43) 
1.63

>  <cluster>  (43) 
7

$$$$

     RDKit          3D

 71 74  0  0  0  0  0  0  0  0999 V2000
  134.3570   69.9820  226.2370 C   0  0  0  0  0  0  0  0  0  0  0  0
  135.1500   70.7090  225.1500 C   0  0  0  0  0  0  0  0  0  0  0  0
  136.0160   69.6760  224.5260 C   0  0  0  0  0  0  0  0  0  0  0  0
  135.5230   68.5260  224.4000 O   0  0  0  0  0  0  0  0  0  0  0  0
  137.3300   70.0210  224.1080 N   0  0  0  0  0  0  0  0  0  0  0  0
  138.4420   69.7690  224.9600 C   0  0  0  0  0  0  0  0  0  0  0  0
  138.6080   68.4620  225.3830 C   0  0  0  0  0  0  0  0  0  0  0  0
  139.6650   68.1140  226.2190 C   0  0  0  0  0  0  0  0  0  0  0  0
  140.5610   69.1060  226.6300 C   0  0  0  0  0  0  0  0  0  0  0  0
  140.3720   70.4020  226.1930 C   0  0  0  0  0  0  0  0  0  0  0  0
  139.3210   70.7620  225.3580 C   0  0  0  0  0  0  0  0  0  0  0  0
  137.5030   70.6360  222.7780 C   0  0  0  0  0  0  0  0  0  0  0  0
  138.9330   70.6660  222.3780 C   0  0  0  0  0  0  0  0  0  0  0  0
  139.2670   71.6540  221.3200 C   0  0  0  0  0  0  0  0  0  0  0  0
  138.6690   72.9190  221.7040 N   0  0  0  0  0  0  0  0  0  0  0  0
  139.5480   73.9890  221.9740 C   0  0  0  0  0  0  0  0  0  0  0  0
  140.7900   73.7370  221.9020 O   0  0  0  0  0  0  0  0  0  0  0  0
  139.0880   75.3780  222.3330 C   0  0  1  0  0  0  0  0  0  0  0  0
  140.3510   76.1070  222.5420 N   0  0  0  0  0  0  0  0  0  0  0  0
  138.3970   75.8910  221.0910 C   0  0  0  0  0  0  0  0  0  0  0  0
  138.3600   77.2970  221.0760 N   0  0  0  0  0  0  0  0  0  0  0  0
  137.7090   78.0230  222.0780 C   0  0  0  0  0  0  0  0  0  0  0  0
  138.6510   78.8480  222.9520 C   0  0  0  0  0  0  0  0  0  0  0  0
  139.7340   79.3850  222.1100 N   0  0  0  0  0  0  0  0  0  0  0  0
  140.9480   79.8480  222.6780 C   0  0  0  0  0  0  0  0  0  0  0  0
  142.1730   79.2810  222.4660 C   0  0  0  0  0  0  0  0  0  0  0  0
  143.3470   79.7660  223.0510 C   0  0  0  0  0  0  0  0  0  0  0  0
  143.2950   80.8720  223.8900 C   0  0  0  0  0  0  0  0  0  0  0  0
  142.0520   81.4620  224.1180 C   0  0  0  0  0  0  0  0  0  0  0  0
  140.9060   80.9520  223.5190 C   0  0  0  0  0  0  0  0  0  0  0  0
  139.4520   79.3880  220.6860 C   0  0  0  0  0  0  0  0  0  0  0  0
  139.3740   77.9180  220.3070 C   0  0  0  0  0  0  0  0  0  0  0  0
  137.2320   72.9660  221.7980 C   0  0  0  0  0  0  0  0  0  0  0  0
  136.7540   71.9110  222.7330 C   0  0  0  0  0  0  0  0  0  0  0  0
  134.7102   70.3058  227.2271 H   0  0  0  0  0  0  0  0  0  0  0  0
  133.2883   70.2207  226.1328 H   0  0  0  0  0  0  0  0  0  0  0  0
  134.5021   68.8966  226.1328 H   0  0  0  0  0  0  0  0  0  0  0  0
  134.4687   71.1411  224.4023 H   0  0  0  0  0  0  0  0  0  0  0  0
  135.7416   71.5384  225.5648 H   0  0  0  0  0  0  0  0  0  0  0  0
  137.8968   67.6896  225.0550 H   0  0  0  0  0  0  0  0  0  0  0  0
  139.7938   67.0735  226.5517 H   0  0  0  0  0  0  0  0  0  0  0  0
  141.4039   68.8574  227.2917 H   0  0  0  0  0  0  0  0  0  0  0  0
  141.0799   71.1787  226.5179 H   0  0  0  0  0  0  0  0  0  0  0  0
  139.1917   71.8021  225.0241 H   0  0  0  0  0  0  0  0  0  0  0  0
  137.0548   70.0215  221.9833 H   0  0  0  0  0  0  0  0  0  0  0  0
  139.5320   70.9044  223.2693 H   0  0  0  0  0  0  0  0  0  0  0  0
  139.1555   69.6751  221.9554 H   0  0  0  0  0  0  0  0  0  0  0  0
  140.3585   71.7633  221.2386 H   0  0  0  0  0  0  0  0  0  0  0  0
  138.8828   71.3229  220.3439 H   0  0  0  0  0  0  0  0  0  0  0  0
  138.4199   75.4610  223.2029 H   0  0  0  0  0  0  0  0  0  0  0  0
  140.3240   77.0600  222.1200 H   0  0  0  0  0  0  0  0  0  0  0  0
  141.1470   75.5920  222.1120 H   0  0  0  0  0  0  0  0  0  0  0  0
  138.9426   75.5365  220.2040 H   0  0  0  0  0  0  0  0  0  0  0  0
  137.3635   75.5143  221.0855 H   0  0  0  0  0  0  0  0  0  0  0  0
  136.9913   78.7063  221.6006 H   0  0  0  0  0  0  0  0  0  0  0  0
  137.2190   77.2912  222.7370 H   0  0  0  0  0  0  0  0  0  0  0  0
  138.0953   79.6779  223.4129 H   0  0  0  0  0  0  0  0  0  0  0  0
  139.0744   78.2146  223.7454 H   0  0  0  0  0  0  0  0  0  0  0  0
  142.2387   78.4037  221.8056 H   0  0  0  0  0  0  0  0  0  0  0  0
  144.3090   79.2730  222.8473 H   0  0  0  0  0  0  0  0  0  0  0  0
  144.2063   81.2702  224.3601 H   0  0  0  0  0  0  0  0  0  0  0  0
  141.9778   82.3390  224.7779 H   0  0  0  0  0  0  0  0  0  0  0  0
  139.9386   81.4367  223.7168 H   0  0  0  0  0  0  0  0  0  0  0  0
  138.4967   79.8932  220.4805 H   0  0  0  0  0  0  0  0  0  0  0  0
  140.2188   79.9269  220.1102 H   0  0  0  0  0  0  0  0  0  0  0  0
  139.1348   77.8251  219.2374 H   0  0  0  0  0  0  0  0  0  0  0  0
  140.3406   77.4315  220.5042 H   0  0  0  0  0  0  0  0  0  0  0  0
  136.9224   73.9531  222.1719 H   0  0  0  0  0  0  0  0  0  0  0  0
  136.7967   72.7940  220.8026 H   0  0  0  0  0  0  0  0  0  0  0  0
  136.7729   72.3382  223.7465 H   0  0  0  0  0  0  0  0  0  0  0  0
  135.7599   71.6341  222.3521 H   0  0  0  0  0  0  0  0  0  0  0  0
  1  2  1  0
  2  3  1  0
  3  4  2  0
  3  5  1  0
  5  6  1  0
  6  7  2  0
  7  8  1  0
  8  9  2  0
  9 10  1  0
 10 11  2  0
  5 12  1  0
 12 13  1  0
 13 14  1  0
 14 15  1  0
 15 16  1  0
 16 17  2  0
 16 18  1  0
 18 19  1  0
 18 20  1  0
 20 21  1  0
 21 22  1  0
 22 23  1  0
 23 24  1  0
 24 25  1  0
 25 26  2  0
 26 27  1  0
 27 28  2  0
 28 29  1  0
 29 30  2  0
 24 31  1  0
 31 32  1  0
 15 33  1  0
 33 34  1  0
 11  6  1  0
 34 12  1  0
 32 21  1  0
 30 25  1  0
  1 35  1  0
  1 36  1  0
  1 37  1  0
  2 38  1  0
  2 39  1  0
  7 40  1  0
  8 41  1  0
  9 42  1  0
 10 43  1  0
 11 44  1  0
 12 45  1  0
 13 46  1  0
 13 47  1  0
 14 48  1  0
 14 49  1  0
 18 50  1  1
 19 51  1  0
 19 52  1  0
 20 53  1  0
 20 54  1  0
 22 55  1  0
 22 56  1  0
 23 57  1  0
 23 58  1  0
 26 59  1  0
 27 60  1  0
 28 61  1  0
 29 62  1  0
 30 63  1  0
 31 64  1  0
 31 65  1  0
 32 66  1  0
 32 67  1  0
 33 68  1  0
 33 69  1  0
 34 70  1  0
 34 71  1  0
M  END
>  <smiles>  (44) 
CCC(=O)N(c1ccccc1)C1CCN(C(=O)[C@@H](N)CN2CCN(c3ccccc3)CC2)CC1

>  <score_type>  (44) 
oracle

>  <origin>  (44) 
autodockgpu

>  <m_score__min__energy>  (44) 
-8.5700000000000003

>  <m_primary>  (44) 
energy

>  <rmsd>  (44) 
4.685954607993179

>  <m_score__min__rmsd>  (44) 
4.685954607993179

>  <meeko>  (44) 
{"free_energy": -7.3, "intermolecular_energy": -9.99, "internal_energy": -3.08, "cluster_size": 2, "cluster_id": 7, "rank_in_cluster": 2}

>  <energy>  (44) 
-7.55

>  <cluster_rmsd>  (44) 
0.0

>  <cluster>  (44) 
8

$$$$

     RDKit          3D

 71 74  0  0  0  0  0  0  0  0999 V2000
  140.3630   83.8510  220.3280 C   0  0  0  0  0  0  0  0  0  0  0  0
  140.1570   82.8600  219.1820 C   0  0  0  0  0  0  0  0  0  0  0  0
  140.9900   81.6770  219.5190 C   0  0  0  0  0  0  0  0  0  0  0  0
  142.0380   81.5110  218.8430 O   0  0  0  0  0  0  0  0  0  0  0  0
  140.5810   80.8060  220.5650 N   0  0  0  0  0  0  0  0  0  0  0  0
  141.3990   80.6370  221.7170 C   0  0  0  0  0  0  0  0  0  0  0  0
  141.3980   81.6780  222.6290 C   0  0  0  0  0  0  0  0  0  0  0  0
  142.1660   81.6090  223.7880 C   0  0  0  0  0  0  0  0  0  0  0  0
  142.9420   80.4700  224.0210 C   0  0  0  0  0  0  0  0  0  0  0  0
  142.9250   79.4460  223.0960 C   0  0  0  0  0  0  0  0  0  0  0  0
  142.1620   79.5020  221.9350 C   0  0  0  0  0  0  0  0  0  0  0  0
  139.2960   80.0940  220.4210 C   0  0  0  0  0  0  0  0  0  0  0  0
  138.6440   79.8860  221.7390 C   0  0  0  0  0  0  0  0  0  0  0  0
  137.6260   78.8040  221.7710 C   0  0  0  0  0  0  0  0  0  0  0  0
  138.2150   77.6370  221.1410 N   0  0  0  0  0  0  0  0  0  0  0  0
  138.4040   76.4970  221.9500 C   0  0  0  0  0  0  0  0  0  0  0  0
  138.0840   76.6090  223.1740 O   0  0  0  0  0  0  0  0  0  0  0  0
  138.9540   75.1910  221.4390 C   0  0  1  0  0  0  0  0  0  0  0  0
  139.5840   74.6020  222.6330 N   0  0  0  0  0  0  0  0  0  0  0  0
  137.7370   74.3850  221.0480 C   0  0  0  0  0  0  0  0  0  0  0  0
  137.9740   73.0060  221.1950 N   0  0  0  0  0  0  0  0  0  0  0  0
  139.1530   72.4140  220.7320 C   0  0  0  0  0  0  0  0  0  0  0  0
  140.0520   71.8800  221.8440 C   0  0  0  0  0  0  0  0  0  0  0  0
  139.2070   71.3190  222.9120 N   0  0  0  0  0  0  0  0  0  0  0  0
  139.7120   71.1110  224.2200 C   0  0  0  0  0  0  0  0  0  0  0  0
  140.6850   71.8680  224.8090 C   0  0  0  0  0  0  0  0  0  0  0  0
  141.1610   71.6250  226.1010 C   0  0  0  0  0  0  0  0  0  0  0  0
  140.6400   70.5720  226.8420 C   0  0  0  0  0  0  0  0  0  0  0  0
  139.6470   69.7880  226.2560 C   0  0  0  0  0  0  0  0  0  0  0  0
  139.1980   70.0600  224.9680 C   0  0  0  0  0  0  0  0  0  0  0  0
  137.8450   71.0150  222.5120 C   0  0  0  0  0  0  0  0  0  0  0  0
  137.2220   72.3690  222.2110 C   0  0  0  0  0  0  0  0  0  0  0  0
  138.5750   77.7510  219.7500 C   0  0  0  0  0  0  0  0  0  0  0  0
  139.4930   78.9070  219.5610 C   0  0  0  0  0  0  0  0  0  0  0  0
  140.2542   83.3276  221.2894 H   0  0  0  0  0  0  0  0  0  0  0  0
  141.3709   84.2864  220.2596 H   0  0  0  0  0  0  0  0  0  0  0  0
  139.6122   84.6520  220.2596 H   0  0  0  0  0  0  0  0  0  0  0  0
  139.0973   82.5743  219.1078 H   0  0  0  0  0  0  0  0  0  0  0  0
  140.4426   83.2949  218.2129 H   0  0  0  0  0  0  0  0  0  0  0  0
  140.7836   82.5697  222.4359 H   0  0  0  0  0  0  0  0  0  0  0  0
  142.1622   82.4388  224.5100 H   0  0  0  0  0  0  0  0  0  0  0  0
  143.5577   80.3910  224.9291 H   0  0  0  0  0  0  0  0  0  0  0  0
  143.5379   78.5522  223.2842 H   0  0  0  0  0  0  0  0  0  0  0  0
  142.1643   78.6719  221.2132 H   0  0  0  0  0  0  0  0  0  0  0  0
  138.5502   80.7020  219.8880 H   0  0  0  0  0  0  0  0  0  0  0  0
  139.4265   79.6404  222.4721 H   0  0  0  0  0  0  0  0  0  0  0  0
  138.1088   80.8192  221.9685 H   0  0  0  0  0  0  0  0  0  0  0  0
  137.3549   78.5731  222.8118 H   0  0  0  0  0  0  0  0  0  0  0  0
  136.7131   79.1131  221.2408 H   0  0  0  0  0  0  0  0  0  0  0  0
  139.6571   75.2538  220.5954 H   0  0  0  0  0  0  0  0  0  0  0  0
  139.1170   73.7150  222.9220 H   0  0  0  0  0  0  0  0  0  0  0  0
  139.5370   75.2620  223.4370 H   0  0  0  0  0  0  0  0  0  0  0  0
  136.8925   74.6749  221.6905 H   0  0  0  0  0  0  0  0  0  0  0  0
  137.5072   74.5893  219.9919 H   0  0  0  0  0  0  0  0  0  0  0  0
  138.8843   71.5768  220.0710 H   0  0  0  0  0  0  0  0  0  0  0  0
  139.7211   73.1975  220.2092 H   0  0  0  0  0  0  0  0  0  0  0  0
  140.7095   71.0948  221.4424 H   0  0  0  0  0  0  0  0  0  0  0  0
  140.6705   72.6953  222.2474 H   0  0  0  0  0  0  0  0  0  0  0  0
  141.1134   72.7069  224.2409 H   0  0  0  0  0  0  0  0  0  0  0  0
  141.9457   72.2658  226.5294 H   0  0  0  0  0  0  0  0  0  0  0  0
  140.9999   70.3629  227.8602 H   0  0  0  0  0  0  0  0  0  0  0  0
  139.2147   68.9466  226.8175 H   0  0  0  0  0  0  0  0  0  0  0  0
  138.4140   69.4250  224.5297 H   0  0  0  0  0  0  0  0  0  0  0  0
  137.8367   70.3761  221.6166 H   0  0  0  0  0  0  0  0  0  0  0  0
  137.2944   70.4664  223.2903 H   0  0  0  0  0  0  0  0  0  0  0  0
  136.1852   72.2306  221.8707 H   0  0  0  0  0  0  0  0  0  0  0  0
  137.2237   72.9894  223.1194 H   0  0  0  0  0  0  0  0  0  0  0  0
  139.0782   76.8281  219.4260 H   0  0  0  0  0  0  0  0  0  0  0  0
  137.6659   77.9069  219.1507 H   0  0  0  0  0  0  0  0  0  0  0  0
  140.5170   78.5439  219.7331 H   0  0  0  0  0  0  0  0  0  0  0  0
  139.2801   79.2651  218.5430 H   0  0  0  0  0  0  0  0  0  0  0  0
  1  2  1  0
  2  3  1  0
  3  4  2  0
  3  5  1  0
  5  6  1  0
  6  7  2  0
  7  8  1  0
  8  9  2  0
  9 10  1  0
 10 11  2  0
  5 12  1  0
 12 13  1  0
 13 14  1  0
 14 15  1  0
 15 16  1  0
 16 17  2  0
 16 18  1  0
 18 19  1  0
 18 20  1  0
 20 21  1  0
 21 22  1  0
 22 23  1  0
 23 24  1  0
 24 25  1  0
 25 26  2  0
 26 27  1  0
 27 28  2  0
 28 29  1  0
 29 30  2  0
 24 31  1  0
 31 32  1  0
 15 33  1  0
 33 34  1  0
 11  6  1  0
 34 12  1  0
 32 21  1  0
 30 25  1  0
  1 35  1  0
  1 36  1  0
  1 37  1  0
  2 38  1  0
  2 39  1  0
  7 40  1  0
  8 41  1  0
  9 42  1  0
 10 43  1  0
 11 44  1  0
 12 45  1  0
 13 46  1  0
 13 47  1  0
 14 48  1  0
 14 49  1  0
 18 50  1  6
 19 51  1  0
 19 52  1  0
 20 53  1  0
 20 54  1  0
 22 55  1  0
 22 56  1  0
 23 57  1  0
 23 58  1  0
 26 59  1  0
 27 60  1  0
 28 61  1  0
 29 62  1  0
 30 63  1  0
 31 64  1  0
 31 65  1  0
 32 66  1  0
 32 67  1  0
 33 68  1  0
 33 69  1  0
 34 70  1  0
 34 71  1  0
M  END
>  <smiles>  (45) 
CCC(=O)N(c1ccccc1)C1CCN(C(=O)[C@@H](N)CN2CCN(c3ccccc3)CC2)CC1

>  <score_type>  (45) 
oracle

>  <origin>  (45) 
autodockgpu

>  <m_score__min__energy>  (45) 
-8.5700000000000003

>  <m_primary>  (45) 
energy

>  <rmsd>  (45) 
8.305782373562778

>  <m_score__min__rmsd>  (45) 
8.305782373562778

>  <meeko>  (45) 
{"free_energy": -7.35, "intermolecular_energy": -10.04, "internal_energy": -3.3, "cluster_size": 26, "cluster_id": 3, "rank_in_cluster": 18}

>  <energy>  (45) 
-7.43

>  <cluster_rmsd>  (45) 
0.0

>  <cluster>  (45) 
9

$$$$

     RDKit          3D

 71 74  0  0  0  0  0  0  0  0999 V2000
  145.6150   73.0350  220.4910 C   0  0  0  0  0  0  0  0  0  0  0  0
  144.4790   72.0150  220.3990 C   0  0  0  0  0  0  0  0  0  0  0  0
  144.7620   71.2060  219.1870 C   0  0  0  0  0  0  0  0  0  0  0  0
  145.7480   71.5580  218.4890 O   0  0  0  0  0  0  0  0  0  0  0  0
  143.9320   70.0960  218.8730 N   0  0  0  0  0  0  0  0  0  0  0  0
  144.4650   68.7760  218.8860 C   0  0  0  0  0  0  0  0  0  0  0  0
  145.7650   68.6440  219.3420 C   0  0  0  0  0  0  0  0  0  0  0  0
  146.3760   67.3940  219.3930 C   0  0  0  0  0  0  0  0  0  0  0  0
  145.6590   66.2690  218.9750 C   0  0  0  0  0  0  0  0  0  0  0  0
  144.3640   66.4300  218.5240 C   0  0  0  0  0  0  0  0  0  0  0  0
  143.7420   67.6710  218.4690 C   0  0  0  0  0  0  0  0  0  0  0  0
  142.5170   70.3520  218.5420 C   0  0  0  0  0  0  0  0  0  0  0  0
  142.3110   71.7550  218.1010 C   0  0  0  0  0  0  0  0  0  0  0  0
  140.9110   72.2430  218.1980 C   0  0  0  0  0  0  0  0  0  0  0  0
  140.4220   71.8950  219.5200 N   0  0  0  0  0  0  0  0  0  0  0  0
  140.0930   72.9600  220.3840 C   0  0  0  0  0  0  0  0  0  0  0  0
  140.2990   74.1330  219.9450 O   0  0  0  0  0  0  0  0  0  0  0  0
  139.5250   72.7690  221.7660 C   0  0  1  0  0  0  0  0  0  0  0  0
  139.5940   74.1210  222.3480 N   0  0  0  0  0  0  0  0  0  0  0  0
  138.0830   72.3790  221.5420 C   0  0  0  0  0  0  0  0  0  0  0  0
  137.7390   71.2500  222.3080 N   0  0  0  0  0  0  0  0  0  0  0  0
  138.3020   69.9950  222.0550 C   0  0  0  0  0  0  0  0  0  0  0  0
  139.2110   69.4910  223.1740 C   0  0  0  0  0  0  0  0  0  0  0  0
  138.6410   69.8990  224.4700 N   0  0  0  0  0  0  0  0  0  0  0  0
  139.4310   69.9260  225.6460 C   0  0  0  0  0  0  0  0  0  0  0  0
  139.5410   68.8950  226.5360 C   0  0  0  0  0  0  0  0  0  0  0  0
  140.3280   68.9640  227.6890 C   0  0  0  0  0  0  0  0  0  0  0  0
  141.0410   70.1230  227.9700 C   0  0  0  0  0  0  0  0  0  0  0  0
  140.9400   71.1860  227.0730 C   0  0  0  0  0  0  0  0  0  0  0  0
  140.1480   71.0800  225.9360 C   0  0  0  0  0  0  0  0  0  0  0  0
  137.2370   70.2660  224.4280 C   0  0  0  0  0  0  0  0  0  0  0  0
  137.1960   71.5300  223.5850 C   0  0  0  0  0  0  0  0  0  0  0  0
  140.3370   70.4930  219.8410 C   0  0  0  0  0  0  0  0  0  0  0  0
  141.6630   69.8480  219.6400 C   0  0  0  0  0  0  0  0  0  0  0  0
  145.8409   73.2379  221.5483 H   0  0  0  0  0  0  0  0  0  0  0  0
  146.5106   72.6321  219.9954 H   0  0  0  0  0  0  0  0  0  0  0  0
  145.3105   73.9687  219.9954 H   0  0  0  0  0  0  0  0  0  0  0  0
  144.4656   71.3744  221.2931 H   0  0  0  0  0  0  0  0  0  0  0  0
  143.4966   72.5061  220.3388 H   0  0  0  0  0  0  0  0  0  0  0  0
  146.3211   69.5356  219.6674 H   0  0  0  0  0  0  0  0  0  0  0  0
  147.4090   67.2929  219.7573 H   0  0  0  0  0  0  0  0  0  0  0  0
  146.1196   65.2705  219.0050 H   0  0  0  0  0  0  0  0  0  0  0  0
  143.8036   65.5421  218.1959 H   0  0  0  0  0  0  0  0  0  0  0  0
  142.7086   67.7726  218.1059 H   0  0  0  0  0  0  0  0  0  0  0  0
  142.1958   69.7829  217.6572 H   0  0  0  0  0  0  0  0  0  0  0  0
  142.9432   72.4051  218.7237 H   0  0  0  0  0  0  0  0  0  0  0  0
  142.5742   71.7842  217.0333 H   0  0  0  0  0  0  0  0  0  0  0  0
  140.8826   73.3341  218.0615 H   0  0  0  0  0  0  0  0  0  0  0  0
  140.2845   71.7849  217.4185 H   0  0  0  0  0  0  0  0  0  0  0  0
  140.0275   72.0247  222.4012 H   0  0  0  0  0  0  0  0  0  0  0  0
  138.8110   74.3000  223.0120 H   0  0  0  0  0  0  0  0  0  0  0  0
  139.5470   74.8450  221.6000 H   0  0  0  0  0  0  0  0  0  0  0  0
  137.4345   73.2196  221.8298 H   0  0  0  0  0  0  0  0  0  0  0  0
  137.9485   72.1338  220.4782 H   0  0  0  0  0  0  0  0  0  0  0  0
  137.4861   69.2701  221.9177 H   0  0  0  0  0  0  0  0  0  0  0  0
  138.9276   70.0995  221.1562 H   0  0  0  0  0  0  0  0  0  0  0  0
  139.2789   68.3940  223.1291 H   0  0  0  0  0  0  0  0  0  0  0  0
  140.2180   69.9181  223.0579 H   0  0  0  0  0  0  0  0  0  0  0  0
  138.9843   67.9676  226.3357 H   0  0  0  0  0  0  0  0  0  0  0  0
  140.3828   68.1034  228.3719 H   0  0  0  0  0  0  0  0  0  0  0  0
  141.6658   70.1997  228.8721 H   0  0  0  0  0  0  0  0  0  0  0  0
  141.4925   72.1172  227.2673 H   0  0  0  0  0  0  0  0  0  0  0  0
  140.0871   71.9344  225.2459 H   0  0  0  0  0  0  0  0  0  0  0  0
  136.6409   69.4682  223.9608 H   0  0  0  0  0  0  0  0  0  0  0  0
  136.8161   70.4207  225.4324 H   0  0  0  0  0  0  0  0  0  0  0  0
  136.1547   71.8677  223.4770 H   0  0  0  0  0  0  0  0  0  0  0  0
  137.7834   72.3216  224.0732 H   0  0  0  0  0  0  0  0  0  0  0  0
  140.0299   70.3768  220.8909 H   0  0  0  0  0  0  0  0  0  0  0  0
  139.5970   70.0142  219.1829 H   0  0  0  0  0  0  0  0  0  0  0  0
  142.2294   69.9643  220.5758 H   0  0  0  0  0  0  0  0  0  0  0  0
  141.4263   68.8127  219.3533 H   0  0  0  0  0  0  0  0  0  0  0  0
  1  2  1  0
  2  3  1  0
  3  4  2  0
  3  5  1  0
  5  6  1  0
  6  7  2  0
  7  8  1  0
  8  9  2  0
  9 10  1  0
 10 11  2  0
  5 12  1  0
 12 13  1  0
 13 14  1  0
 14 15  1  0
 15 16  1  0
 16 17  2  0
 16 18  1  0
 18 19  1  0
 18 20  1  0
 20 21  1  0
 21 22  1  0
 22 23  1  0
 23 24  1  0
 24 25  1  0
 25 26  2  0
 26 27  1  0
 27 28  2  0
 28 29  1  0
 29 30  2  0
 24 31  1  0
 31 32  1  0
 15 33  1  0
 33 34  1  0
 11  6  1  0
 34 12  1  0
 32 21  1  0
 30 25  1  0
  1 35  1  0
  1 36  1  0
  1 37  1  0
  2 38  1  0
  2 39  1  0
  7 40  1  0
  8 41  1  0
  9 42  1  0
 10 43  1  0
 11 44  1  0
 12 45  1  0
 13 46  1  0
 13 47  1  0
 14 48  1  0
 14 49  1  0
 18 50  1  1
 19 51  1  0
 19 52  1  0
 20 53  1  0
 20 54  1  0
 22 55  1  0
 22 56  1  0
 23 57  1  0
 23 58  1  0
 26 59  1  0
 27 60  1  0
 28 61  1  0
 29 62  1  0
 30 63  1  0
 31 64  1  0
 31 65  1  0
 32 66  1  0
 32 67  1  0
 33 68  1  0
 33 69  1  0
 34 70  1  0
 34 71  1  0
M  END
>  <smiles>  (46) 
CCC(=O)N(c1ccccc1)C1CCN(C(=O)[C@@H](N)CN2CCN(c3ccccc3)CC2)CC1

>  <score_type>  (46) 
oracle

>  <origin>  (46) 
autodockgpu

>  <m_score__min__energy>  (46) 
-8.5700000000000003

>  <m_primary>  (46) 
energy

>  <rmsd>  (46) 
9.399933258369867

>  <m_score__min__rmsd>  (46) 
9.399933258369867

>  <meeko>  (46) 
{"free_energy": -7.71, "intermolecular_energy": -10.39, "internal_energy": -2.71, "cluster_size": 5, "cluster_id": 4, "rank_in_cluster": 4}

>  <energy>  (46) 
-7.05

>  <cluster_rmsd>  (46) 
1.89

>  <cluster>  (46) 
9

$$$$

     RDKit          3D

 71 74  0  0  0  0  0  0  0  0999 V2000
  145.9410   73.3710  221.2260 C   0  0  0  0  0  0  0  0  0  0  0  0
  144.6410   73.7470  220.5160 C   0  0  0  0  0  0  0  0  0  0  0  0
  144.8030   73.2890  219.1120 C   0  0  0  0  0  0  0  0  0  0  0  0
  145.5580   72.3010  218.9230 O   0  0  0  0  0  0  0  0  0  0  0  0
  144.1170   73.9680  218.0680 N   0  0  0  0  0  0  0  0  0  0  0  0
  144.8330   74.4530  216.9380 C   0  0  0  0  0  0  0  0  0  0  0  0
  144.2640   75.5170  216.2610 C   0  0  0  0  0  0  0  0  0  0  0  0
  144.8870   76.0630  215.1420 C   0  0  0  0  0  0  0  0  0  0  0  0
  146.0990   75.5200  214.7060 C   0  0  0  0  0  0  0  0  0  0  0  0
  146.6440   74.4580  215.4000 C   0  0  0  0  0  0  0  0  0  0  0  0
  146.0340   73.9040  216.5190 C   0  0  0  0  0  0  0  0  0  0  0  0
  142.6580   74.1490  218.1910 C   0  0  0  0  0  0  0  0  0  0  0  0
  142.3240   75.1580  219.2280 C   0  0  0  0  0  0  0  0  0  0  0  0
  140.9380   75.0780  219.7580 C   0  0  0  0  0  0  0  0  0  0  0  0
  140.6820   73.6890  220.0910 N   0  0  0  0  0  0  0  0  0  0  0  0
  140.4490   73.3870  221.4490 C   0  0  0  0  0  0  0  0  0  0  0  0
  140.5310   74.3530  222.2690 O   0  0  0  0  0  0  0  0  0  0  0  0
  140.1180   72.0060  221.9530 C   0  0  1  0  0  0  0  0  0  0  0  0
  140.3190   72.1220  223.4080 N   0  0  0  0  0  0  0  0  0  0  0  0
  138.6480   71.8260  221.6490 C   0  0  0  0  0  0  0  0  0  0  0  0
  138.0890   70.8060  222.4400 N   0  0  0  0  0  0  0  0  0  0  0  0
  138.4480   69.4660  222.2660 C   0  0  0  0  0  0  0  0  0  0  0  0
  139.2110   68.8730  223.4480 C   0  0  0  0  0  0  0  0  0  0  0  0
  138.6610   69.4290  224.6970 N   0  0  0  0  0  0  0  0  0  0  0  0
  139.3930   69.3820  225.9100 C   0  0  0  0  0  0  0  0  0  0  0  0
  139.5750   68.2590  226.6670 C   0  0  0  0  0  0  0  0  0  0  0  0
  140.3000   68.2560  227.8630 C   0  0  0  0  0  0  0  0  0  0  0  0
  140.8720   69.4350  228.3260 C   0  0  0  0  0  0  0  0  0  0  0  0
  140.6950   70.5900  227.5660 C   0  0  0  0  0  0  0  0  0  0  0  0
  139.9680   70.5550  226.3820 C   0  0  0  0  0  0  0  0  0  0  0  0
  137.3400   70.0170  224.5690 C   0  0  0  0  0  0  0  0  0  0  0  0
  137.5460   71.2300  223.6770 C   0  0  0  0  0  0  0  0  0  0  0  0
  140.7090   72.7370  219.0090 C   0  0  0  0  0  0  0  0  0  0  0  0
  142.0120   72.8210  218.2960 C   0  0  0  0  0  0  0  0  0  0  0  0
  145.7900   73.4147  222.3147 H   0  0  0  0  0  0  0  0  0  0  0  0
  146.2348   72.3511  220.9372 H   0  0  0  0  0  0  0  0  0  0  0  0
  146.7339   74.0766  220.9372 H   0  0  0  0  0  0  0  0  0  0  0  0
  143.7859   73.2412  220.9882 H   0  0  0  0  0  0  0  0  0  0  0  0
  144.4466   74.8283  220.5705 H   0  0  0  0  0  0  0  0  0  0  0  0
  143.3090   75.9361  216.6107 H   0  0  0  0  0  0  0  0  0  0  0  0
  144.4316   76.9102  214.6083 H   0  0  0  0  0  0  0  0  0  0  0  0
  146.6106   75.9323  213.8238 H   0  0  0  0  0  0  0  0  0  0  0  0
  147.5981   74.0340  215.0537 H   0  0  0  0  0  0  0  0  0  0  0  0
  146.4895   73.0578  217.0542 H   0  0  0  0  0  0  0  0  0  0  0  0
  142.2252   74.5983  217.2850 H   0  0  0  0  0  0  0  0  0  0  0  0
  143.0195   75.0254  220.0698 H   0  0  0  0  0  0  0  0  0  0  0  0
  142.4108   76.1403  218.7407 H   0  0  0  0  0  0  0  0  0  0  0  0
  140.8423   75.7043  220.6572 H   0  0  0  0  0  0  0  0  0  0  0  0
  140.2147   75.4389  219.0120 H   0  0  0  0  0  0  0  0  0  0  0  0
  140.7010   71.1770  221.5254 H   0  0  0  0  0  0  0  0  0  0  0  0
  139.8240   71.3680  223.9300 H   0  0  0  0  0  0  0  0  0  0  0  0
  139.9610   73.0370  223.7560 H   0  0  0  0  0  0  0  0  0  0  0  0
  138.1206   72.7693  221.8537 H   0  0  0  0  0  0  0  0  0  0  0  0
  138.5416   71.5457  220.5907 H   0  0  0  0  0  0  0  0  0  0  0  0
  137.5305   68.8781  222.1156 H   0  0  0  0  0  0  0  0  0  0  0  0
  139.1218   69.4255  221.3975 H   0  0  0  0  0  0  0  0  0  0  0  0
  139.0979   67.7788  223.4493 H   0  0  0  0  0  0  0  0  0  0  0  0
  140.2790   69.1236  223.3664 H   0  0  0  0  0  0  0  0  0  0  0  0
  139.1310   67.3143  226.3199 H   0  0  0  0  0  0  0  0  0  0  0  0
  140.4171   67.3238  228.4352 H   0  0  0  0  0  0  0  0  0  0  0  0
  141.4468   69.4560  229.2636 H   0  0  0  0  0  0  0  0  0  0  0  0
  141.1352   71.5387  227.9068 H   0  0  0  0  0  0  0  0  0  0  0  0
  139.8445   71.4819  225.8027 H   0  0  0  0  0  0  0  0  0  0  0  0
  136.6419   69.3061  224.1029 H   0  0  0  0  0  0  0  0  0  0  0  0
  136.9058   70.2844  225.5437 H   0  0  0  0  0  0  0  0  0  0  0  0
  136.5810   71.7290  223.5044 H   0  0  0  0  0  0  0  0  0  0  0  0
  138.2357   71.9358  224.1631 H   0  0  0  0  0  0  0  0  0  0  0  0
  140.5782   71.7220  219.4123 H   0  0  0  0  0  0  0  0  0  0  0  0
  139.8947   72.9640  218.3052 H   0  0  0  0  0  0  0  0  0  0  0  0
  142.7148   72.1548  218.8177 H   0  0  0  0  0  0  0  0  0  0  0  0
  141.7773   72.5446  217.2575 H   0  0  0  0  0  0  0  0  0  0  0  0
  1  2  1  0
  2  3  1  0
  3  4  2  0
  3  5  1  0
  5  6  1  0
  6  7  2  0
  7  8  1  0
  8  9  2  0
  9 10  1  0
 10 11  2  0
  5 12  1  0
 12 13  1  0
 13 14  1  0
 14 15  1  0
 15 16  1  0
 16 17  2  0
 16 18  1  0
 18 19  1  0
 18 20  1  0
 20 21  1  0
 21 22  1  0
 22 23  1  0
 23 24  1  0
 24 25  1  0
 25 26  2  0
 26 27  1  0
 27 28  2  0
 28 29  1  0
 29 30  2  0
 24 31  1  0
 31 32  1  0
 15 33  1  0
 33 34  1  0
 11  6  1  0
 34 12  1  0
 32 21  1  0
 30 25  1  0
  1 35  1  0
  1 36  1  0
  1 37  1  0
  2 38  1  0
  2 39  1  0
  7 40  1  0
  8 41  1  0
  9 42  1  0
 10 43  1  0
 11 44  1  0
 12 45  1  0
 13 46  1  0
 13 47  1  0
 14 48  1  0
 14 49  1  0
 18 50  1  6
 19 51  1  0
 19 52  1  0
 20 53  1  0
 20 54  1  0
 22 55  1  0
 22 56  1  0
 23 57  1  0
 23 58  1  0
 26 59  1  0
 27 60  1  0
 28 61  1  0
 29 62  1  0
 30 63  1  0
 31 64  1  0
 31 65  1  0
 32 66  1  0
 32 67  1  0
 33 68  1  0
 33 69  1  0
 34 70  1  0
 34 71  1  0
M  END
>  <smiles>  (47) 
CCC(=O)N(c1ccccc1)C1CCN(C(=O)[C@@H](N)CN2CCN(c3ccccc3)CC2)CC1

>  <score_type>  (47) 
oracle

>  <origin>  (47) 
autodockgpu

>  <m_score__min__energy>  (47) 
-8.5700000000000003

>  <m_primary>  (47) 
energy

>  <rmsd>  (47) 
9.925027896304675

>  <m_score__min__rmsd>  (47) 
9.925027896304675

>  <meeko>  (47) 
{"free_energy": -7.43, "intermolecular_energy": -10.11, "internal_energy": -3.0, "cluster_size": 2, "cluster_id": 9, "rank_in_cluster": 1}

>  <energy>  (47) 
-6.23

>  <cluster_rmsd>  (47) 
0.0

>  <cluster>  (47) 
10

$$$$

     RDKit          3D

 71 74  0  0  0  0  0  0  0  0999 V2000
  146.3280   73.0380  221.8590 C   0  0  0  0  0  0  0  0  0  0  0  0
  145.9080   74.1100  220.8530 C   0  0  0  0  0  0  0  0  0  0  0  0
  145.2300   73.3820  219.7500 C   0  0  0  0  0  0  0  0  0  0  0  0
  145.9320   72.5700  219.0930 O   0  0  0  0  0  0  0  0  0  0  0  0
  143.8540   73.6250  219.4890 N   0  0  0  0  0  0  0  0  0  0  0  0
  143.3910   74.9510  219.2650 C   0  0  0  0  0  0  0  0  0  0  0  0
  143.7250   75.5200  218.0480 C   0  0  0  0  0  0  0  0  0  0  0  0
  143.3190   76.8150  217.7330 C   0  0  0  0  0  0  0  0  0  0  0  0
  142.5680   77.5360  218.6650 C   0  0  0  0  0  0  0  0  0  0  0  0
  142.2490   76.9450  219.8710 C   0  0  0  0  0  0  0  0  0  0  0  0
  142.6470   75.6540  220.1980 C   0  0  0  0  0  0  0  0  0  0  0  0
  142.9340   72.4710  219.4550 C   0  0  0  0  0  0  0  0  0  0  0  0
  141.8250   72.6940  218.4930 C   0  0  0  0  0  0  0  0  0  0  0  0
  140.6240   71.8470  218.7140 C   0  0  0  0  0  0  0  0  0  0  0  0
  140.2920   71.9290  220.1240 N   0  0  0  0  0  0  0  0  0  0  0  0
  139.0530   72.5160  220.4590 C   0  0  0  0  0  0  0  0  0  0  0  0
  138.3580   72.9640  219.4970 O   0  0  0  0  0  0  0  0  0  0  0  0
  138.5370   72.6290  221.8700 C   0  0  1  0  0  0  0  0  0  0  0  0
  138.1530   74.0480  221.9740 N   0  0  0  0  0  0  0  0  0  0  0  0
  137.3020   71.7590  221.9010 C   0  0  0  0  0  0  0  0  0  0  0  0
  137.5040   70.6220  222.7040 N   0  0  0  0  0  0  0  0  0  0  0  0
  138.5630   69.7400  222.4690 C   0  0  0  0  0  0  0  0  0  0  0  0
  139.6140   69.7300  223.5770 C   0  0  0  0  0  0  0  0  0  0  0  0
  138.9380   69.8870  224.8770 N   0  0  0  0  0  0  0  0  0  0  0  0
  139.6480   70.3020  226.0310 C   0  0  0  0  0  0  0  0  0  0  0  0
  139.6400   69.6450  227.2290 C   0  0  0  0  0  0  0  0  0  0  0  0
  140.3500   70.0930  228.3470 C   0  0  0  0  0  0  0  0  0  0  0  0
  141.1060   71.2560  228.2650 C   0  0  0  0  0  0  0  0  0  0  0  0
  141.1250   71.9390  227.0500 C   0  0  0  0  0  0  0  0  0  0  0  0
  140.4060   71.4640  225.9590 C   0  0  0  0  0  0  0  0  0  0  0  0
  137.5170   69.5910  224.8610 C   0  0  0  0  0  0  0  0  0  0  0  0
  136.9090   70.6750  223.9870 C   0  0  0  0  0  0  0  0  0  0  0  0
  141.2640   71.4240  221.0600 C   0  0  0  0  0  0  0  0  0  0  0  0
  142.5720   72.0990  220.8410 C   0  0  0  0  0  0  0  0  0  0  0  0
  146.1798   73.4163  222.8812 H   0  0  0  0  0  0  0  0  0  0  0  0
  145.7169   72.1356  221.7098 H   0  0  0  0  0  0  0  0  0  0  0  0
  147.3894   72.7909  221.7098 H   0  0  0  0  0  0  0  0  0  0  0  0
  145.2170   74.8262  221.3216 H   0  0  0  0  0  0  0  0  0  0  0  0
  146.7716   74.6860  220.4890 H   0  0  0  0  0  0  0  0  0  0  0  0
  144.3172   74.9436  217.3220 H   0  0  0  0  0  0  0  0  0  0  0  0
  143.5858   77.2634  216.7646 H   0  0  0  0  0  0  0  0  0  0  0  0
  142.2356   78.5603  218.4408 H   0  0  0  0  0  0  0  0  0  0  0  0
  141.6575   77.5173  220.6008 H   0  0  0  0  0  0  0  0  0  0  0  0
  142.3798   75.2053  221.1661 H   0  0  0  0  0  0  0  0  0  0  0  0
  143.4196   71.5736  219.0440 H   0  0  0  0  0  0  0  0  0  0  0  0
  141.5176   73.7478  218.5644 H   0  0  0  0  0  0  0  0  0  0  0  0
  142.2169   72.4204  217.5022 H   0  0  0  0  0  0  0  0  0  0  0  0
  139.7848   72.2182  218.1074 H   0  0  0  0  0  0  0  0  0  0  0  0
  140.8224   70.8056  218.4205 H   0  0  0  0  0  0  0  0  0  0  0  0
  139.2325   72.3339  222.6695 H   0  0  0  0  0  0  0  0  0  0  0  0
  138.3190   74.5630  221.0820 H   0  0  0  0  0  0  0  0  0  0  0  0
  138.7030   74.5230  222.7200 H   0  0  0  0  0  0  0  0  0  0  0  0
  136.4622   72.3415  222.3077 H   0  0  0  0  0  0  0  0  0  0  0  0
  137.0818   71.4279  220.8754 H   0  0  0  0  0  0  0  0  0  0  0  0
  138.1529   68.7240  222.3707 H   0  0  0  0  0  0  0  0  0  0  0  0
  139.0668   70.0810  221.5525 H   0  0  0  0  0  0  0  0  0  0  0  0
  140.1614   68.7761  223.5582 H   0  0  0  0  0  0  0  0  0  0  0  0
  140.3247   70.5555  223.4242 H   0  0  0  0  0  0  0  0  0  0  0  0
  139.0483   68.7220  227.3179 H   0  0  0  0  0  0  0  0  0  0  0  0
  140.3103   69.5263  229.2890 H   0  0  0  0  0  0  0  0  0  0  0  0
  141.6722   71.6264  229.1323 H   0  0  0  0  0  0  0  0  0  0  0  0
  141.7145   72.8627  226.9535 H   0  0  0  0  0  0  0  0  0  0  0  0
  140.4382   72.0237  225.0126 H   0  0  0  0  0  0  0  0  0  0  0  0
  137.3325   68.5959  224.4300 H   0  0  0  0  0  0  0  0  0  0  0  0
  137.0825   69.5776  225.8714 H   0  0  0  0  0  0  0  0  0  0  0  0
  135.8249   70.5114  223.8975 H   0  0  0  0  0  0  0  0  0  0  0  0
  137.0898   71.6612  224.4394 H   0  0  0  0  0  0  0  0  0  0  0  0
  140.9192   71.6198  222.0860 H   0  0  0  0  0  0  0  0  0  0  0  0
  141.3844   70.3409  220.9101 H   0  0  0  0  0  0  0  0  0  0  0  0
  142.5683   73.0228  221.4381 H   0  0  0  0  0  0  0  0  0  0  0  0
  143.3224   71.3488  221.1310 H   0  0  0  0  0  0  0  0  0  0  0  0
  1  2  1  0
  2  3  1  0
  3  4  2  0
  3  5  1  0
  5  6  1  0
  6  7  2  0
  7  8  1  0
  8  9  2  0
  9 10  1  0
 10 11  2  0
  5 12  1  0
 12 13  1  0
 13 14  1  0
 14 15  1  0
 15 16  1  0
 16 17  2  0
 16 18  1  0
 18 19  1  0
 18 20  1  0
 20 21  1  0
 21 22  1  0
 22 23  1  0
 23 24  1  0
 24 25  1  0
 25 26  2  0
 26 27  1  0
 27 28  2  0
 28 29  1  0
 29 30  2  0
 24 31  1  0
 31 32  1  0
 15 33  1  0
 33 34  1  0
 11  6  1  0
 34 12  1  0
 32 21  1  0
 30 25  1  0
  1 35  1  0
  1 36  1  0
  1 37  1  0
  2 38  1  0
  2 39  1  0
  7 40  1  0
  8 41  1  0
  9 42  1  0
 10 43  1  0
 11 44  1  0
 12 45  1  0
 13 46  1  0
 13 47  1  0
 14 48  1  0
 14 49  1  0
 18 50  1  1
 19 51  1  0
 19 52  1  0
 20 53  1  0
 20 54  1  0
 22 55  1  0
 22 56  1  0
 23 57  1  0
 23 58  1  0
 26 59  1  0
 27 60  1  0
 28 61  1  0
 29 62  1  0
 30 63  1  0
 31 64  1  0
 31 65  1  0
 32 66  1  0
 32 67  1  0
 33 68  1  0
 33 69  1  0
 34 70  1  0
 34 71  1  0
M  END
>  <smiles>  (48) 
CCC(=O)N(c1ccccc1)C1CCN(C(=O)[C@@H](N)CN2CCN(c3ccccc3)CC2)CC1

>  <score_type>  (48) 
oracle

>  <origin>  (48) 
autodockgpu

>  <m_score__min__energy>  (48) 
-8.5700000000000003

>  <m_primary>  (48) 
energy

>  <rmsd>  (48) 
9.324495777415917

>  <m_score__min__rmsd>  (48) 
9.324495777415917

>  <meeko>  (48) 
{"free_energy": -7.64, "intermolecular_energy": -10.33, "internal_energy": -2.86, "cluster_size": 2, "cluster_id": 6, "rank_in_cluster": 1}

>  <energy>  (48) 
-6.14

>  <cluster_rmsd>  (48) 
0.53

>  <cluster>  (48) 
10

$$$$

     RDKit          3D

 71 74  0  0  0  0  0  0  0  0999 V2000
  137.1120   81.7760  222.0320 C   0  0  0  0  0  0  0  0  0  0  0  0
  136.6520   80.7240  223.0420 C   0  0  0  0  0  0  0  0  0  0  0  0
  137.8810   80.2820  223.7490 C   0  0  0  0  0  0  0  0  0  0  0  0
  137.9500   80.5400  224.9790 O   0  0  0  0  0  0  0  0  0  0  0  0
  138.9010   79.6040  223.0280 N   0  0  0  0  0  0  0  0  0  0  0  0
  140.2650   79.9720  223.1990 C   0  0  0  0  0  0  0  0  0  0  0  0
  141.1720   78.9320  223.3130 C   0  0  0  0  0  0  0  0  0  0  0  0
  142.5300   79.1890  223.4840 C   0  0  0  0  0  0  0  0  0  0  0  0
  142.9680   80.5150  223.5400 C   0  0  0  0  0  0  0  0  0  0  0  0
  142.0430   81.5330  223.4240 C   0  0  0  0  0  0  0  0  0  0  0  0
  140.6850   81.2910  223.2520 C   0  0  0  0  0  0  0  0  0  0  0  0
  138.5060   78.5170  222.1110 C   0  0  0  0  0  0  0  0  0  0  0  0
  138.4830   77.2050  222.8070 C   0  0  0  0  0  0  0  0  0  0  0  0
  138.5650   76.0210  221.9130 C   0  0  0  0  0  0  0  0  0  0  0  0
  139.6600   76.2510  220.9890 N   0  0  0  0  0  0  0  0  0  0  0  0
  140.7600   75.3720  221.0650 C   0  0  0  0  0  0  0  0  0  0  0  0
  140.7160   74.4810  221.9690 O   0  0  0  0  0  0  0  0  0  0  0  0
  141.9510   75.4420  220.1450 C   0  0  1  0  0  0  0  0  0  0  0  0
  142.8750   74.4460  220.7150 N   0  0  0  0  0  0  0  0  0  0  0  0
  141.4360   74.9610  218.8080 C   0  0  0  0  0  0  0  0  0  0  0  0
  141.7550   75.8730  217.7850 N   0  0  0  0  0  0  0  0  0  0  0  0
  140.7810   76.3550  216.9060 C   0  0  0  0  0  0  0  0  0  0  0  0
  140.4950   77.8470  217.0590 C   0  0  0  0  0  0  0  0  0  0  0  0
  141.7570   78.5450  217.3620 N   0  0  0  0  0  0  0  0  0  0  0  0
  141.7630   79.8410  217.9350 C   0  0  0  0  0  0  0  0  0  0  0  0
  141.8320   81.0060  217.2250 C   0  0  0  0  0  0  0  0  0  0  0  0
  141.8420   82.2670  217.8300 C   0  0  0  0  0  0  0  0  0  0  0  0
  141.7800   82.3690  219.2140 C   0  0  0  0  0  0  0  0  0  0  0  0
  141.7100   81.1900  219.9540 C   0  0  0  0  0  0  0  0  0  0  0  0
  141.7030   79.9530  219.3180 C   0  0  0  0  0  0  0  0  0  0  0  0
  142.9570   77.7970  217.0330 C   0  0  0  0  0  0  0  0  0  0  0  0
  142.9450   76.6130  217.9860 C   0  0  0  0  0  0  0  0  0  0  0  0
  139.5380   77.3710  220.0910 C   0  0  0  0  0  0  0  0  0  0  0  0
  139.3030   78.6180  220.8680 C   0  0  0  0  0  0  0  0  0  0  0  0
  137.4967   82.6559  222.5685 H   0  0  0  0  0  0  0  0  0  0  0  0
  137.9080   81.3546  221.4005 H   0  0  0  0  0  0  0  0  0  0  0  0
  136.2622   82.0743  221.4005 H   0  0  0  0  0  0  0  0  0  0  0  0
  135.9367   81.1623  223.7536 H   0  0  0  0  0  0  0  0  0  0  0  0
  136.1423   79.8831  222.5490 H   0  0  0  0  0  0  0  0  0  0  0  0
  140.8162   77.8921  223.2680 H   0  0  0  0  0  0  0  0  0  0  0  0
  143.2476   78.3602  223.5737 H   0  0  0  0  0  0  0  0  0  0  0  0
  144.0354   80.7443  223.6747 H   0  0  0  0  0  0  0  0  0  0  0  0
  142.3936   82.5746  223.4694 H   0  0  0  0  0  0  0  0  0  0  0  0
  139.9674   82.1197  223.1610 H   0  0  0  0  0  0  0  0  0  0  0  0
  137.4619   78.6208  221.7808 H   0  0  0  0  0  0  0  0  0  0  0  0
  139.3373   77.1704  223.4991 H   0  0  0  0  0  0  0  0  0  0  0  0
  137.5089   77.1418  223.3141 H   0  0  0  0  0  0  0  0  0  0  0  0
  138.7572   75.1146  222.5059 H   0  0  0  0  0  0  0  0  0  0  0  0
  137.6200   75.8790  221.3682 H   0  0  0  0  0  0  0  0  0  0  0  0
  142.4283   76.4273  220.0381 H   0  0  0  0  0  0  0  0  0  0  0  0
  142.3900   73.5510  220.9430 H   0  0  0  0  0  0  0  0  0  0  0  0
  143.3070   74.8050  221.5920 H   0  0  0  0  0  0  0  0  0  0  0  0
  141.8922   73.9872  218.5764 H   0  0  0  0  0  0  0  0  0  0  0  0
  140.3413   74.8706  218.8670 H   0  0  0  0  0  0  0  0  0  0  0  0
  141.1219   76.1713  215.8764 H   0  0  0  0  0  0  0  0  0  0  0  0
  139.8467   75.8245  217.1419 H   0  0  0  0  0  0  0  0  0  0  0  0
  140.0710   78.2398  216.1231 H   0  0  0  0  0  0  0  0  0  0  0  0
  139.7747   78.0072  217.8748 H   0  0  0  0  0  0  0  0  0  0  0  0
  141.8820   80.9498  216.1276 H   0  0  0  0  0  0  0  0  0  0  0  0
  141.8988   83.1751  217.2118 H   0  0  0  0  0  0  0  0  0  0  0  0
  141.7860   83.3504  219.7108 H   0  0  0  0  0  0  0  0  0  0  0  0
  141.6598   81.2382  221.0518 H   0  0  0  0  0  0  0  0  0  0  0  0
  141.6485   79.0386  219.9270 H   0  0  0  0  0  0  0  0  0  0  0  0
  142.9268   77.4546  215.9881 H   0  0  0  0  0  0  0  0  0  0  0  0
  143.8681   78.4048  217.1348 H   0  0  0  0  0  0  0  0  0  0  0  0
  143.8164   75.9714  217.7883 H   0  0  0  0  0  0  0  0  0  0  0  0
  142.9894   76.9712  219.0251 H   0  0  0  0  0  0  0  0  0  0  0  0
  140.4648   77.4737  219.5076 H   0  0  0  0  0  0  0  0  0  0  0  0
  138.6891   77.2010  219.4123 H   0  0  0  0  0  0  0  0  0  0  0  0
  140.2878   79.0243  221.1419 H   0  0  0  0  0  0  0  0  0  0  0  0
  138.6975   79.2496  220.2014 H   0  0  0  0  0  0  0  0  0  0  0  0
  1  2  1  0
  2  3  1  0
  3  4  2  0
  3  5  1  0
  5  6  1  0
  6  7  2  0
  7  8  1  0
  8  9  2  0
  9 10  1  0
 10 11  2  0
  5 12  1  0
 12 13  1  0
 13 14  1  0
 14 15  1  0
 15 16  1  0
 16 17  2  0
 16 18  1  0
 18 19  1  0
 18 20  1  0
 20 21  1  0
 21 22  1  0
 22 23  1  0
 23 24  1  0
 24 25  1  0
 25 26  2  0
 26 27  1  0
 27 28  2  0
 28 29  1  0
 29 30  2  0
 24 31  1  0
 31 32  1  0
 15 33  1  0
 33 34  1  0
 11  6  1  0
 34 12  1  0
 32 21  1  0
 30 25  1  0
  1 35  1  0
  1 36  1  0
  1 37  1  0
  2 38  1  0
  2 39  1  0
  7 40  1  0
  8 41  1  0
  9 42  1  0
 10 43  1  0
 11 44  1  0
 12 45  1  0
 13 46  1  0
 13 47  1  0
 14 48  1  0
 14 49  1  0
 18 50  1  6
 19 51  1  0
 19 52  1  0
 20 53  1  0
 20 54  1  0
 22 55  1  0
 22 56  1  0
 23 57  1  0
 23 58  1  0
 26 59  1  0
 27 60  1  0
 28 61  1  0
 29 62  1  0
 30 63  1  0
 31 64  1  0
 31 65  1  0
 32 66  1  0
 32 67  1  0
 33 68  1  0
 33 69  1  0
 34 70  1  0
 34 71  1  0
M  END
>  <smiles>  (49) 
CCC(=O)N(c1ccccc1)C1CCN(C(=O)[C@@H](N)CN2CCN(c3ccccc3)CC2)CC1

>  <score_type>  (49) 
oracle

>  <origin>  (49) 
autodockgpu

>  <m_score__min__energy>  (49) 
-8.5700000000000003

>  <m_primary>  (49) 
energy

>  <rmsd>  (49) 
4.43839973303529

>  <m_score__min__rmsd>  (49) 
4.43839973303529

>  <meeko>  (49) 
{"free_energy": -6.05, "intermolecular_energy": -8.74, "internal_energy": -4.1, "cluster_size": 4, "cluster_id": 10, "rank_in_cluster": 3}

>  <energy>  (49) 
-6.05

>  <cluster_rmsd>  (49) 
0.64

>  <cluster>  (49) 
10

$$$$

     RDKit          3D

 71 74  0  0  0  0  0  0  0  0999 V2000
  137.4980   81.9650  221.9690 C   0  0  0  0  0  0  0  0  0  0  0  0
  136.8190   80.9640  222.9050 C   0  0  0  0  0  0  0  0  0  0  0  0
  137.9140   80.3550  223.7030 C   0  0  0  0  0  0  0  0  0  0  0  0
  137.8530   80.5010  224.9520 O   0  0  0  0  0  0  0  0  0  0  0  0
  138.9570   79.6510  223.0420 N   0  0  0  0  0  0  0  0  0  0  0  0
  140.3180   79.9800  223.2990 C   0  0  0  0  0  0  0  0  0  0  0  0
  141.2220   78.9330  223.2440 C   0  0  0  0  0  0  0  0  0  0  0  0
  142.5770   79.1520  223.4810 C   0  0  0  0  0  0  0  0  0  0  0  0
  143.0140   80.4460  223.7780 C   0  0  0  0  0  0  0  0  0  0  0  0
  142.0910   81.4710  223.8260 C   0  0  0  0  0  0  0  0  0  0  0  0
  140.7360   81.2670  223.5910 C   0  0  0  0  0  0  0  0  0  0  0  0
  138.5890   78.5800  222.0960 C   0  0  0  0  0  0  0  0  0  0  0  0
  138.5280   77.2590  222.7730 C   0  0  0  0  0  0  0  0  0  0  0  0
  138.6350   76.0860  221.8680 C   0  0  0  0  0  0  0  0  0  0  0  0
  139.7670   76.3190  220.9900 N   0  0  0  0  0  0  0  0  0  0  0  0
  140.8560   75.4280  221.0970 C   0  0  0  0  0  0  0  0  0  0  0  0
  140.7690   74.5270  221.9870 O   0  0  0  0  0  0  0  0  0  0  0  0
  142.0820   75.5000  220.2250 C   0  0  1  0  0  0  0  0  0  0  0  0
  142.8550   74.3140  220.6330 N   0  0  0  0  0  0  0  0  0  0  0  0
  141.5660   75.3180  218.8160 C   0  0  0  0  0  0  0  0  0  0  0  0
  141.9320   76.4030  217.9990 N   0  0  0  0  0  0  0  0  0  0  0  0
  141.1000   76.8580  216.9720 C   0  0  0  0  0  0  0  0  0  0  0  0
  140.5330   78.2560  217.2110 C   0  0  0  0  0  0  0  0  0  0  0  0
  141.5610   79.0790  217.8730 N   0  0  0  0  0  0  0  0  0  0  0  0
  141.2190   80.2670  218.5650 C   0  0  0  0  0  0  0  0  0  0  0  0
  140.2910   81.1760  218.1420 C   0  0  0  0  0  0  0  0  0  0  0  0
  139.9870   82.3420  218.8530 C   0  0  0  0  0  0  0  0  0  0  0  0
  140.6440   82.6140  220.0460 C   0  0  0  0  0  0  0  0  0  0  0  0
  141.5950   81.6970  220.4930 C   0  0  0  0  0  0  0  0  0  0  0  0
  141.8710   80.5480  219.7590 C   0  0  0  0  0  0  0  0  0  0  0  0
  142.9150   78.5690  217.7570 C   0  0  0  0  0  0  0  0  0  0  0  0
  142.9050   77.2720  218.5490 C   0  0  0  0  0  0  0  0  0  0  0  0
  139.6890   77.4510  220.1030 C   0  0  0  0  0  0  0  0  0  0  0  0
  139.4340   78.6900  220.8870 C   0  0  0  0  0  0  0  0  0  0  0  0
  138.0171   82.7302  222.5648 H   0  0  0  0  0  0  0  0  0  0  0  0
  138.2259   81.4382  221.3345 H   0  0  0  0  0  0  0  0  0  0  0  0
  136.7394   82.4465  221.3345 H   0  0  0  0  0  0  0  0  0  0  0  0
  136.1044   81.4787  223.5641 H   0  0  0  0  0  0  0  0  0  0  0  0
  136.2525   80.2046  222.3461 H   0  0  0  0  0  0  0  0  0  0  0  0
  140.8668   77.9184  223.0109 H   0  0  0  0  0  0  0  0  0  0  0  0
  143.2931   78.3183  223.4351 H   0  0  0  0  0  0  0  0  0  0  0  0
  144.0786   80.6447  223.9708 H   0  0  0  0  0  0  0  0  0  0  0  0
  142.4406   82.4876  224.0590 H   0  0  0  0  0  0  0  0  0  0  0  0
  140.0197   82.1007  223.6356 H   0  0  0  0  0  0  0  0  0  0  0  0
  137.5594   78.6976  221.7270 H   0  0  0  0  0  0  0  0  0  0  0  0
  139.3542   77.2080  223.4974 H   0  0  0  0  0  0  0  0  0  0  0  0
  137.5341   77.1979  223.2404 H   0  0  0  0  0  0  0  0  0  0  0  0
  138.7971   75.1706  222.4560 H   0  0  0  0  0  0  0  0  0  0  0  0
  137.7106   75.9584  221.2855 H   0  0  0  0  0  0  0  0  0  0  0  0
  142.6789   76.4211  220.2972 H   0  0  0  0  0  0  0  0  0  0  0  0
  142.2440   73.4790  220.7690 H   0  0  0  0  0  0  0  0  0  0  0  0
  143.3530   74.4920  221.5310 H   0  0  0  0  0  0  0  0  0  0  0  0
  141.9878   74.3932  218.3955 H   0  0  0  0  0  0  0  0  0  0  0  0
  140.4680   75.2611  218.8504 H   0  0  0  0  0  0  0  0  0  0  0  0
  141.6799   76.8742  216.0374 H   0  0  0  0  0  0  0  0  0  0  0  0
  140.2438   76.1690  216.9246 H   0  0  0  0  0  0  0  0  0  0  0  0
  140.2571   78.7124  216.2489 H   0  0  0  0  0  0  0  0  0  0  0  0
  139.6382   78.1925  217.8476 H   0  0  0  0  0  0  0  0  0  0  0  0
  139.7584   80.9823  217.1992 H   0  0  0  0  0  0  0  0  0  0  0  0
  139.2299   83.0412  218.4683 H   0  0  0  0  0  0  0  0  0  0  0  0
  140.4211   83.5250  220.6209 H   0  0  0  0  0  0  0  0  0  0  0  0
  142.1318   81.8841  221.4347 H   0  0  0  0  0  0  0  0  0  0  0  0
  142.6266   79.8423  220.1345 H   0  0  0  0  0  0  0  0  0  0  0  0
  143.1695   78.3790  216.7039 H   0  0  0  0  0  0  0  0  0  0  0  0
  143.6631   79.2821  218.1336 H   0  0  0  0  0  0  0  0  0  0  0  0
  143.8962   76.7982  218.4931 H   0  0  0  0  0  0  0  0  0  0  0  0
  142.6635   77.4814  219.6015 H   0  0  0  0  0  0  0  0  0  0  0  0
  140.6386   77.5533  219.5573 H   0  0  0  0  0  0  0  0  0  0  0  0
  138.8659   77.2971  219.3897 H   0  0  0  0  0  0  0  0  0  0  0  0
  140.4107   79.0842  221.2042 H   0  0  0  0  0  0  0  0  0  0  0  0
  138.8599   79.3353  220.2058 H   0  0  0  0  0  0  0  0  0  0  0  0
  1  2  1  0
  2  3  1  0
  3  4  2  0
  3  5  1  0
  5  6  1  0
  6  7  2  0
  7  8  1  0
  8  9  2  0
  9 10  1  0
 10 11  2  0
  5 12  1  0
 12 13  1  0
 13 14  1  0
 14 15  1  0
 15 16  1  0
 16 17  2  0
 16 18  1  0
 18 19  1  0
 18 20  1  0
 20 21  1  0
 21 22  1  0
 22 23  1  0
 23 24  1  0
 24 25  1  0
 25 26  2  0
 26 27  1  0
 27 28  2  0
 28 29  1  0
 29 30  2  0
 24 31  1  0
 31 32  1  0
 15 33  1  0
 33 34  1  0
 11  6  1  0
 34 12  1  0
 32 21  1  0
 30 25  1  0
  1 35  1  0
  1 36  1  0
  1 37  1  0
  2 38  1  0
  2 39  1  0
  7 40  1  0
  8 41  1  0
  9 42  1  0
 10 43  1  0
 11 44  1  0
 12 45  1  0
 13 46  1  0
 13 47  1  0
 14 48  1  0
 14 49  1  0
 18 50  1  6
 19 51  1  0
 19 52  1  0
 20 53  1  0
 20 54  1  0
 22 55  1  0
 22 56  1  0
 23 57  1  0
 23 58  1  0
 26 59  1  0
 27 60  1  0
 28 61  1  0
 29 62  1  0
 30 63  1  0
 31 64  1  0
 31 65  1  0
 32 66  1  0
 32 67  1  0
 33 68  1  0
 33 69  1  0
 34 70  1  0
 34 71  1  0
M  END
>  <smiles>  (50) 
CCC(=O)N(c1ccccc1)C1CCN(C(=O)[C@@H](N)CN2CCN(c3ccccc3)CC2)CC1

>  <score_type>  (50) 
oracle

>  <origin>  (50) 
autodockgpu

>  <m_score__min__energy>  (50) 
-8.5700000000000003

>  <m_primary>  (50) 
energy

>  <rmsd>  (50) 
4.1873354334449

>  <m_score__min__rmsd>  (50) 
4.1873354334449

>  <meeko>  (50) 
{"free_energy": -5.78, "intermolecular_energy": -8.47, "internal_energy": -4.4, "cluster_size": 4, "cluster_id": 10, "rank_in_cluster": 4}

>  <energy>  (50) 
-5.78

>  <cluster_rmsd>  (50) 
0.92

>  <cluster>  (50) 
10

$$$$
