
     RDKit          3D

 51 53  0  0  0  0  0  0  0  0999 V2000
  143.2790   74.6260  218.1030 C   0  0  0  0  0  0  0  0  0  0  0  0
  143.4920   76.1230  219.0810 S   0  0  0  0  0  0  0  0  0  0  0  0
  142.6410   77.5120  218.3210 C   0  0  0  0  0  0  0  0  0  0  0  0
  141.8200   78.3110  219.3230 C   0  0  0  0  0  0  0  0  0  0  0  0
  141.8200   77.5400  220.6200 C   0  0  2  0  0  0  0  0  0  0  0  0
  140.6900   76.6550  220.7560 N   0  0  0  0  0  0  0  0  0  0  0  0
  140.7590   75.2930  221.0860 C   0  0  0  0  0  0  0  0  0  0  0  0
  141.9080   74.7690  221.2840 O   0  0  0  0  0  0  0  0  0  0  0  0
  139.5610   74.4370  221.2130 C   0  0  0  0  0  0  0  0  0  0  0  0
  139.6490   73.5680  222.3560 N   0  0  0  0  0  0  0  0  0  0  0  0
  139.8510   72.1720  222.2870 C   0  0  0  0  0  0  0  0  0  0  0  0
  139.9630   71.6410  221.1340 O   0  0  0  0  0  0  0  0  0  0  0  0
  139.9290   71.3630  223.5070 C   0  0  0  0  0  0  0  0  0  0  0  0
  139.5150   70.0660  223.5080 C   0  0  0  0  0  0  0  0  0  0  0  0
  139.5780   69.2860  224.6470 C   0  0  0  0  0  0  0  0  0  0  0  0
  140.0790   69.8850  225.7830 C   0  0  0  0  0  0  0  0  0  0  0  0
  140.1840   69.2000  226.9670 C   0  0  0  0  0  0  0  0  0  0  0  0
  140.6780   69.7650  228.1130 C   0  0  0  0  0  0  0  0  0  0  0  0
  141.1040   71.0800  228.1390 C   0  0  0  0  0  0  0  0  0  0  0  0
  140.9990   71.7750  226.9430 C   0  0  0  0  0  0  0  0  0  0  0  0
  140.5040   71.2120  225.7890 C   0  0  0  0  0  0  0  0  0  0  0  0
  140.4070   71.9030  224.6310 N   0  0  0  0  0  0  0  0  0  0  0  0
  141.8060   78.5070  221.7550 C   0  0  0  0  0  0  0  0  0  0  0  0
  141.4120   78.1240  223.0380 C   0  0  0  0  0  0  0  0  0  0  0  0
  141.4040   79.0440  224.0870 C   0  0  0  0  0  0  0  0  0  0  0  0
  141.7860   80.3590  223.8810 C   0  0  0  0  0  0  0  0  0  0  0  0
  142.1780   80.7280  222.5920 C   0  0  0  0  0  0  0  0  0  0  0  0
  142.1880   79.8250  221.5540 C   0  0  0  0  0  0  0  0  0  0  0  0
  143.1563   73.7636  218.7747 H   0  0  0  0  0  0  0  0  0  0  0  0
  142.3861   74.7265  217.4685 H   0  0  0  0  0  0  0  0  0  0  0  0
  144.1645   74.4735  217.4685 H   0  0  0  0  0  0  0  0  0  0  0  0
  143.3891   78.1783  217.8667 H   0  0  0  0  0  0  0  0  0  0  0  0
  141.9486   77.1083  217.5676 H   0  0  0  0  0  0  0  0  0  0  0  0
  142.2720   79.3023  219.4745 H   0  0  0  0  0  0  0  0  0  0  0  0
  140.7931   78.4566  218.9567 H   0  0  0  0  0  0  0  0  0  0  0  0
  142.7263   76.9166  220.6247 H   0  0  0  0  0  0  0  0  0  0  0  0
  139.7380   77.0820  220.5920 H   0  0  0  0  0  0  0  0  0  0  0  0
  138.6738   75.0784  221.3199 H   0  0  0  0  0  0  0  0  0  0  0  0
  139.4879   73.8119  220.3108 H   0  0  0  0  0  0  0  0  0  0  0  0
  139.5610   73.9800  223.3300 H   0  0  0  0  0  0  0  0  0  0  0  0
  139.1206   69.6281  222.5792 H   0  0  0  0  0  0  0  0  0  0  0  0
  139.2445   68.2378  224.6472 H   0  0  0  0  0  0  0  0  0  0  0  0
  139.8569   68.1502  226.9975 H   0  0  0  0  0  0  0  0  0  0  0  0
  140.7368   69.1607  229.0303 H   0  0  0  0  0  0  0  0  0  0  0  0
  141.5019   71.5467  229.0522 H   0  0  0  0  0  0  0  0  0  0  0  0
  141.3266   72.8247  226.9158 H   0  0  0  0  0  0  0  0  0  0  0  0
  141.1041   77.0845  223.2244 H   0  0  0  0  0  0  0  0  0  0  0  0
  141.0903   78.7206  225.0905 H   0  0  0  0  0  0  0  0  0  0  0  0
  141.7809   81.0883  224.7045 H   0  0  0  0  0  0  0  0  0  0  0  0
  142.4864   81.7666  222.4021 H   0  0  0  0  0  0  0  0  0  0  0  0
  142.5029   80.1525  220.5522 H   0  0  0  0  0  0  0  0  0  0  0  0
  1  2  1  0
  2  3  1  0
  3  4  1  0
  4  5  1  0
  5  6  1  0
  6  7  1  0
  7  8  2  0
  7  9  1  0
  9 10  1  0
 10 11  1  0
 11 12  2  0
 11 13  1  0
 13 14  2  0
 14 15  1  0
 15 16  2  0
 16 17  1  0
 17 18  2  0
 18 19  1  0
 19 20  2  0
 20 21  1  0
 21 22  2  0
  5 23  1  0
 23 24  2  0
 24 25  1  0
 25 26  2  0
 26 27  1  0
 27 28  2  0
 22 13  1  0
 28 23  1  0
 21 16  1  0
  1 29  1  0
  1 30  1  0
  1 31  1  0
  3 32  1  0
  3 33  1  0
  4 34  1  0
  4 35  1  0
  5 36  1  1
  6 37  1  0
  9 38  1  0
  9 39  1  0
 10 40  1  0
 14 41  1  0
 15 42  1  0
 17 43  1  0
 18 44  1  0
 19 45  1  0
 20 46  1  0
 24 47  1  0
 25 48  1  0
 26 49  1  0
 27 50  1  0
 28 51  1  0
M  END
>  <smiles>  (1) 
CSCC[C@H](NC(=O)CNC(=O)c1ccc2ccccc2n1)c1ccccc1

>  <score_type>  (1) 
oracle

>  <origin>  (1) 
autodockgpu

>  <m_score__min__energy>  (1) 
-8.6099999999999994

>  <m_primary>  (1) 
energy

>  <rmsd>  (1) 
4.024833974328836

>  <m_score__min__rmsd>  (1) 
4.024833974328836

>  <meeko>  (1) 
{"free_energy": -8.27, "intermolecular_energy": -10.66, "internal_energy": -1.55, "cluster_size": 8, "cluster_id": 1, "rank_in_cluster": 5}

>  <energy>  (1) 
-8.61

>  <cluster_rmsd>  (1) 
0.0

>  <cluster>  (1) 
1

$$$$

     RDKit          3D

 51 53  0  0  0  0  0  0  0  0999 V2000
  134.6320   72.4580  225.0270 C   0  0  0  0  0  0  0  0  0  0  0  0
  135.7180   72.9340  223.6720 S   0  0  0  0  0  0  0  0  0  0  0  0
  135.3910   74.6230  223.1510 C   0  0  0  0  0  0  0  0  0  0  0  0
  136.5870   75.5410  223.3660 C   0  0  0  0  0  0  0  0  0  0  0  0
  137.4760   75.4110  222.1550 C   0  0  2  0  0  0  0  0  0  0  0  0
  137.9660   74.0720  221.9490 N   0  0  0  0  0  0  0  0  0  0  0  0
  138.0230   73.4070  220.7140 C   0  0  0  0  0  0  0  0  0  0  0  0
  137.6100   74.0190  219.6710 O   0  0  0  0  0  0  0  0  0  0  0  0
  138.5410   72.0310  220.5680 C   0  0  0  0  0  0  0  0  0  0  0  0
  138.8440   71.4410  221.8440 N   0  0  0  0  0  0  0  0  0  0  0  0
  139.7820   71.9590  222.7650 C   0  0  0  0  0  0  0  0  0  0  0  0
  140.4070   73.0230  222.4450 O   0  0  0  0  0  0  0  0  0  0  0  0
  140.0280   71.2890  224.0450 C   0  0  0  0  0  0  0  0  0  0  0  0
  140.7500   71.9030  225.0230 C   0  0  0  0  0  0  0  0  0  0  0  0
  140.9940   71.2890  226.2360 C   0  0  0  0  0  0  0  0  0  0  0  0
  140.4720   70.0260  226.4090 C   0  0  0  0  0  0  0  0  0  0  0  0
  140.6550   69.3280  227.5770 C   0  0  0  0  0  0  0  0  0  0  0  0
  140.1500   68.0720  227.7820 C   0  0  0  0  0  0  0  0  0  0  0  0
  139.4130   67.4270  226.8050 C   0  0  0  0  0  0  0  0  0  0  0  0
  139.2260   68.1300  225.6240 C   0  0  0  0  0  0  0  0  0  0  0  0
  139.7310   69.3920  225.4130 C   0  0  0  0  0  0  0  0  0  0  0  0
  139.5400   70.0640  224.2560 N   0  0  0  0  0  0  0  0  0  0  0  0
  138.6430   76.3260  222.3130 C   0  0  0  0  0  0  0  0  0  0  0  0
  139.9450   75.9030  222.0450 C   0  0  0  0  0  0  0  0  0  0  0  0
  141.0250   76.7730  222.2010 C   0  0  0  0  0  0  0  0  0  0  0  0
  140.8300   78.0770  222.6260 C   0  0  0  0  0  0  0  0  0  0  0  0
  139.5210   78.4860  222.8910 C   0  0  0  0  0  0  0  0  0  0  0  0
  138.4530   77.6330  222.7380 C   0  0  0  0  0  0  0  0  0  0  0  0
  135.1257   72.6744  225.9859 H   0  0  0  0  0  0  0  0  0  0  0  0
  133.6929   73.0270  224.9614 H   0  0  0  0  0  0  0  0  0  0  0  0
  134.4140   71.3818  224.9614 H   0  0  0  0  0  0  0  0  0  0  0  0
  135.1370   74.6192  222.0807 H   0  0  0  0  0  0  0  0  0  0  0  0
  134.5608   75.0067  223.7621 H   0  0  0  0  0  0  0  0  0  0  0  0
  136.2479   76.5818  223.4740 H   0  0  0  0  0  0  0  0  0  0  0  0
  137.1317   75.2630  224.2804 H   0  0  0  0  0  0  0  0  0  0  0  0
  136.8659   75.6739  221.2783 H   0  0  0  0  0  0  0  0  0  0  0  0
  138.3080   73.5600  222.8080 H   0  0  0  0  0  0  0  0  0  0  0  0
  137.7826   71.4160  220.0614 H   0  0  0  0  0  0  0  0  0  0  0  0
  139.4694   72.0736  219.9796 H   0  0  0  0  0  0  0  0  0  0  0  0
  138.3410   70.5540  222.1390 H   0  0  0  0  0  0  0  0  0  0  0  0
  141.1485   72.9123  224.8426 H   0  0  0  0  0  0  0  0  0  0  0  0
  141.5772   71.7848  227.0260 H   0  0  0  0  0  0  0  0  0  0  0  0
  141.2338   69.7994  228.3850 H   0  0  0  0  0  0  0  0  0  0  0  0
  140.3337   67.5664  228.7415 H   0  0  0  0  0  0  0  0  0  0  0  0
  139.0005   66.4184  226.9555 H   0  0  0  0  0  0  0  0  0  0  0  0
  138.6465   67.6559  224.8181 H   0  0  0  0  0  0  0  0  0  0  0  0
  140.1225   74.8715  221.7067 H   0  0  0  0  0  0  0  0  0  0  0  0
  142.0436   76.4190  221.9838 H   0  0  0  0  0  0  0  0  0  0  0  0
  141.6775   78.7671  222.7506 H   0  0  0  0  0  0  0  0  0  0  0  0
  139.3397   79.5164  223.2307 H   0  0  0  0  0  0  0  0  0  0  0  0
  137.4359   77.9913  222.9552 H   0  0  0  0  0  0  0  0  0  0  0  0
  1  2  1  0
  2  3  1  0
  3  4  1  0
  4  5  1  0
  5  6  1  0
  6  7  1  0
  7  8  2  0
  7  9  1  0
  9 10  1  0
 10 11  1  0
 11 12  2  0
 11 13  1  0
 13 14  2  0
 14 15  1  0
 15 16  2  0
 16 17  1  0
 17 18  2  0
 18 19  1  0
 19 20  2  0
 20 21  1  0
 21 22  2  0
  5 23  1  0
 23 24  2  0
 24 25  1  0
 25 26  2  0
 26 27  1  0
 27 28  2  0
 22 13  1  0
 28 23  1  0
 21 16  1  0
  1 29  1  0
  1 30  1  0
  1 31  1  0
  3 32  1  0
  3 33  1  0
  4 34  1  0
  4 35  1  0
  5 36  1  6
  6 37  1  0
  9 38  1  0
  9 39  1  0
 10 40  1  0
 14 41  1  0
 15 42  1  0
 17 43  1  0
 18 44  1  0
 19 45  1  0
 20 46  1  0
 24 47  1  0
 25 48  1  0
 26 49  1  0
 27 50  1  0
 28 51  1  0
M  END
>  <smiles>  (2) 
CSCC[C@H](NC(=O)CNC(=O)c1ccc2ccccc2n1)c1ccccc1

>  <score_type>  (2) 
oracle

>  <origin>  (2) 
autodockgpu

>  <m_score__min__energy>  (2) 
-8.6099999999999994

>  <m_primary>  (2) 
energy

>  <rmsd>  (2) 
4.887936401421142

>  <m_score__min__rmsd>  (2) 
4.887936401421142

>  <meeko>  (2) 
{"free_energy": -7.06, "intermolecular_energy": -9.45, "internal_energy": -2.67, "cluster_size": 7, "cluster_id": 5, "rank_in_cluster": 7}

>  <energy>  (2) 
-8.46

>  <cluster_rmsd>  (2) 
0.39

>  <cluster>  (2) 
1

$$$$

     RDKit          3D

 51 53  0  0  0  0  0  0  0  0999 V2000
  138.3380   80.9720  224.1670 C   0  0  0  0  0  0  0  0  0  0  0  0
  139.2030   79.4500  223.7420 S   0  0  0  0  0  0  0  0  0  0  0  0
  140.9820   79.6680  223.8670 C   0  0  0  0  0  0  0  0  0  0  0  0
  141.7560   78.5560  223.1730 C   0  0  0  0  0  0  0  0  0  0  0  0
  140.9450   78.1240  221.9760 C   0  0  2  0  0  0  0  0  0  0  0  0
  141.0890   76.7240  221.6660 N   0  0  0  0  0  0  0  0  0  0  0  0
  140.0320   75.8280  221.4410 C   0  0  0  0  0  0  0  0  0  0  0  0
  138.8340   76.2660  221.5130 O   0  0  0  0  0  0  0  0  0  0  0  0
  140.2450   74.4000  221.1250 C   0  0  0  0  0  0  0  0  0  0  0  0
  140.0360   73.5650  222.2770 N   0  0  0  0  0  0  0  0  0  0  0  0
  140.4780   72.2280  222.3890 C   0  0  0  0  0  0  0  0  0  0  0  0
  141.1060   71.7220  221.4020 O   0  0  0  0  0  0  0  0  0  0  0  0
  140.2200   71.4500  223.6040 C   0  0  0  0  0  0  0  0  0  0  0  0
  139.5200   70.2840  223.5470 C   0  0  0  0  0  0  0  0  0  0  0  0
  139.2640   69.5360  224.6800 C   0  0  0  0  0  0  0  0  0  0  0  0
  139.7510   70.0290  225.8720 C   0  0  0  0  0  0  0  0  0  0  0  0
  139.5530   69.3640  227.0560 C   0  0  0  0  0  0  0  0  0  0  0  0
  140.0230   69.8240  228.2570 C   0  0  0  0  0  0  0  0  0  0  0  0
  140.7370   71.0060  228.3420 C   0  0  0  0  0  0  0  0  0  0  0  0
  140.9390   71.6800  227.1460 C   0  0  0  0  0  0  0  0  0  0  0  0
  140.4680   71.2210  225.9370 C   0  0  0  0  0  0  0  0  0  0  0  0
  140.6730   71.8900  224.7810 N   0  0  0  0  0  0  0  0  0  0  0  0
  141.3760   78.9190  220.7900 C   0  0  0  0  0  0  0  0  0  0  0  0
  141.3360   80.3140  220.7900 C   0  0  0  0  0  0  0  0  0  0  0  0
  141.7420   81.0400  219.6700 C   0  0  0  0  0  0  0  0  0  0  0  0
  142.1920   80.3940  218.5310 C   0  0  0  0  0  0  0  0  0  0  0  0
  142.2270   78.9990  218.5450 C   0  0  0  0  0  0  0  0  0  0  0  0
  141.8290   78.2770  219.6460 C   0  0  0  0  0  0  0  0  0  0  0  0
  138.2828   81.0691  225.2613 H   0  0  0  0  0  0  0  0  0  0  0  0
  138.8823   81.8319  223.7496 H   0  0  0  0  0  0  0  0  0  0  0  0
  137.3206   80.9444  223.7496 H   0  0  0  0  0  0  0  0  0  0  0  0
  141.2530   80.6284  223.4042 H   0  0  0  0  0  0  0  0  0  0  0  0
  141.2474   79.6441  224.9342 H   0  0  0  0  0  0  0  0  0  0  0  0
  142.7387   78.9279  222.8475 H   0  0  0  0  0  0  0  0  0  0  0  0
  141.9208   77.7107  223.8573 H   0  0  0  0  0  0  0  0  0  0  0  0
  139.8875   78.2977  222.2238 H   0  0  0  0  0  0  0  0  0  0  0  0
  142.0770   76.3550  221.6070 H   0  0  0  0  0  0  0  0  0  0  0  0
  139.5408   74.1006  220.3348 H   0  0  0  0  0  0  0  0  0  0  0  0
  141.2860   74.2731  220.7930 H   0  0  0  0  0  0  0  0  0  0  0  0
  139.5170   73.9570  223.1160 H   0  0  0  0  0  0  0  0  0  0  0  0
  139.1489   69.9284  222.5745 H   0  0  0  0  0  0  0  0  0  0  0  0
  138.6992   68.5932  224.6334 H   0  0  0  0  0  0  0  0  0  0  0  0
  138.9912   68.4184  227.0395 H   0  0  0  0  0  0  0  0  0  0  0  0
  139.8294   69.2432  229.1709 H   0  0  0  0  0  0  0  0  0  0  0  0
  141.1211   71.3882  229.2993 H   0  0  0  0  0  0  0  0  0  0  0  0
  141.5017   72.6250  227.1651 H   0  0  0  0  0  0  0  0  0  0  0  0
  140.9801   80.8475  221.6837 H   0  0  0  0  0  0  0  0  0  0  0  0
  141.7042   82.1391  219.6921 H   0  0  0  0  0  0  0  0  0  0  0  0
  142.5113   80.9616  217.6445 H   0  0  0  0  0  0  0  0  0  0  0  0
  142.5821   78.4630  217.6525 H   0  0  0  0  0  0  0  0  0  0  0  0
  141.8702   77.1781  219.6195 H   0  0  0  0  0  0  0  0  0  0  0  0
  1  2  1  0
  2  3  1  0
  3  4  1  0
  4  5  1  0
  5  6  1  0
  6  7  1  0
  7  8  2  0
  7  9  1  0
  9 10  1  0
 10 11  1  0
 11 12  2  0
 11 13  1  0
 13 14  2  0
 14 15  1  0
 15 16  2  0
 16 17  1  0
 17 18  2  0
 18 19  1  0
 19 20  2  0
 20 21  1  0
 21 22  2  0
  5 23  1  0
 23 24  2  0
 24 25  1  0
 25 26  2  0
 26 27  1  0
 27 28  2  0
 22 13  1  0
 28 23  1  0
 21 16  1  0
  1 29  1  0
  1 30  1  0
  1 31  1  0
  3 32  1  0
  3 33  1  0
  4 34  1  0
  4 35  1  0
  5 36  1  1
  6 37  1  0
  9 38  1  0
  9 39  1  0
 10 40  1  0
 14 41  1  0
 15 42  1  0
 17 43  1  0
 18 44  1  0
 19 45  1  0
 20 46  1  0
 24 47  1  0
 25 48  1  0
 26 49  1  0
 27 50  1  0
 28 51  1  0
M  END
>  <smiles>  (3) 
CSCC[C@H](NC(=O)CNC(=O)c1ccc2ccccc2n1)c1ccccc1

>  <score_type>  (3) 
oracle

>  <origin>  (3) 
autodockgpu

>  <m_score__min__energy>  (3) 
-8.6099999999999994

>  <m_primary>  (3) 
energy

>  <rmsd>  (3) 
3.689361897436363

>  <m_score__min__rmsd>  (3) 
3.689361897436363

>  <meeko>  (3) 
{"free_energy": -8.58, "intermolecular_energy": -10.96, "internal_energy": -1.33, "cluster_size": 15, "cluster_id": 2, "rank_in_cluster": 1}

>  <energy>  (3) 
-8.43

>  <cluster_rmsd>  (3) 
0.38

>  <cluster>  (3) 
1

$$$$

     RDKit          3D

 51 53  0  0  0  0  0  0  0  0999 V2000
  136.2200   73.9130  222.7120 C   0  0  0  0  0  0  0  0  0  0  0  0
  136.1830   72.2910  223.4950 S   0  0  0  0  0  0  0  0  0  0  0  0
  136.7850   71.0240  222.3740 C   0  0  0  0  0  0  0  0  0  0  0  0
  138.1390   70.4690  222.7950 C   0  0  0  0  0  0  0  0  0  0  0  0
  138.8180   71.5270  223.6290 C   0  0  2  0  0  0  0  0  0  0  0  0
  139.6580   72.4090  222.8580 N   0  0  0  0  0  0  0  0  0  0  0  0
  140.5860   72.0040  221.8860 C   0  0  0  0  0  0  0  0  0  0  0  0
  140.7160   70.7560  221.6470 O   0  0  0  0  0  0  0  0  0  0  0  0
  141.4180   72.9610  221.1260 C   0  0  0  0  0  0  0  0  0  0  0  0
  141.2500   74.3060  221.6050 N   0  0  0  0  0  0  0  0  0  0  0  0
  140.0200   75.0010  221.6310 C   0  0  0  0  0  0  0  0  0  0  0  0
  138.9840   74.3960  221.2000 O   0  0  0  0  0  0  0  0  0  0  0  0
  139.9420   76.3740  222.1390 C   0  0  0  0  0  0  0  0  0  0  0  0
  138.7370   76.9610  222.3730 C   0  0  0  0  0  0  0  0  0  0  0  0
  138.6410   78.2540  222.8500 C   0  0  0  0  0  0  0  0  0  0  0  0
  139.8250   78.9220  223.0750 C   0  0  0  0  0  0  0  0  0  0  0  0
  139.8430   80.2100  223.5480 C   0  0  0  0  0  0  0  0  0  0  0  0
  141.0010   80.9010  223.7840 C   0  0  0  0  0  0  0  0  0  0  0  0
  142.2390   80.3280  223.5540 C   0  0  0  0  0  0  0  0  0  0  0  0
  142.2240   79.0260  223.0760 C   0  0  0  0  0  0  0  0  0  0  0  0
  141.0630   78.3270  222.8380 C   0  0  0  0  0  0  0  0  0  0  0  0
  141.0650   77.0580  222.3720 N   0  0  0  0  0  0  0  0  0  0  0  0
  139.6570   70.8580  224.6660 C   0  0  0  0  0  0  0  0  0  0  0  0
  139.4700   69.5180  225.0060 C   0  0  0  0  0  0  0  0  0  0  0  0
  140.2640   68.9110  225.9800 C   0  0  0  0  0  0  0  0  0  0  0  0
  141.2550   69.6250  226.6330 C   0  0  0  0  0  0  0  0  0  0  0  0
  141.4310   70.9650  226.2820 C   0  0  0  0  0  0  0  0  0  0  0  0
  140.6520   71.5690  225.3220 C   0  0  0  0  0  0  0  0  0  0  0  0
  136.2378   74.6938  223.4867 H   0  0  0  0  0  0  0  0  0  0  0  0
  137.1203   73.9973  222.0856 H   0  0  0  0  0  0  0  0  0  0  0  0
  135.3245   74.0383  222.0856 H   0  0  0  0  0  0  0  0  0  0  0  0
  136.0575   70.1993  222.3503 H   0  0  0  0  0  0  0  0  0  0  0  0
  136.9061   71.4848  221.3825 H   0  0  0  0  0  0  0  0  0  0  0  0
  138.0023   69.5526  223.3879 H   0  0  0  0  0  0  0  0  0  0  0  0
  138.7478   70.2176  221.9140 H   0  0  0  0  0  0  0  0  0  0  0  0
  138.0238   72.1416  224.0779 H   0  0  0  0  0  0  0  0  0  0  0  0
  139.5550   73.4420  223.0520 H   0  0  0  0  0  0  0  0  0  0  0  0
  142.4752   72.6750  221.2290 H   0  0  0  0  0  0  0  0  0  0  0  0
  141.1029   72.9294  220.0726 H   0  0  0  0  0  0  0  0  0  0  0  0
  142.0930   74.8370  221.9710 H   0  0  0  0  0  0  0  0  0  0  0  0
  137.8162   76.3918  222.1775 H   0  0  0  0  0  0  0  0  0  0  0  0
  137.6666   78.7273  223.0410 H   0  0  0  0  0  0  0  0  0  0  0  0
  138.8835   80.7099  223.7465 H   0  0  0  0  0  0  0  0  0  0  0  0
  140.9460   81.9319  224.1639 H   0  0  0  0  0  0  0  0  0  0  0  0
  143.1774   80.8714  223.7388 H   0  0  0  0  0  0  0  0  0  0  0  0
  143.1852   78.5291  222.8780 H   0  0  0  0  0  0  0  0  0  0  0  0
  138.6876   68.9330  224.5005 H   0  0  0  0  0  0  0  0  0  0  0  0
  140.1008   67.8528  226.2321 H   0  0  0  0  0  0  0  0  0  0  0  0
  141.8827   69.1521  227.4027 H   0  0  0  0  0  0  0  0  0  0  0  0
  142.2124   71.5528  226.7859 H   0  0  0  0  0  0  0  0  0  0  0  0
  140.8197   72.6270  225.0718 H   0  0  0  0  0  0  0  0  0  0  0  0
  1  2  1  0
  2  3  1  0
  3  4  1  0
  4  5  1  0
  5  6  1  0
  6  7  1  0
  7  8  2  0
  7  9  1  0
  9 10  1  0
 10 11  1  0
 11 12  2  0
 11 13  1  0
 13 14  2  0
 14 15  1  0
 15 16  2  0
 16 17  1  0
 17 18  2  0
 18 19  1  0
 19 20  2  0
 20 21  1  0
 21 22  2  0
  5 23  1  0
 23 24  2  0
 24 25  1  0
 25 26  2  0
 26 27  1  0
 27 28  2  0
 22 13  1  0
 28 23  1  0
 21 16  1  0
  1 29  1  0
  1 30  1  0
  1 31  1  0
  3 32  1  0
  3 33  1  0
  4 34  1  0
  4 35  1  0
  5 36  1  1
  6 37  1  0
  9 38  1  0
  9 39  1  0
 10 40  1  0
 14 41  1  0
 15 42  1  0
 17 43  1  0
 18 44  1  0
 19 45  1  0
 20 46  1  0
 24 47  1  0
 25 48  1  0
 26 49  1  0
 27 50  1  0
 28 51  1  0
M  END
>  <smiles>  (4) 
CSCC[C@H](NC(=O)CNC(=O)c1ccc2ccccc2n1)c1ccccc1

>  <score_type>  (4) 
oracle

>  <origin>  (4) 
autodockgpu

>  <m_score__min__energy>  (4) 
-8.6099999999999994

>  <m_primary>  (4) 
energy

>  <rmsd>  (4) 
9.68816663695387

>  <m_score__min__rmsd>  (4) 
9.68816663695387

>  <meeko>  (4) 
{"free_energy": -7.15, "intermolecular_energy": -9.54, "internal_energy": -2.53, "cluster_size": 9, "cluster_id": 4, "rank_in_cluster": 6}

>  <energy>  (4) 
-8.3

>  <cluster_rmsd>  (4) 
0.65

>  <cluster>  (4) 
1

$$$$

     RDKit          3D

 51 53  0  0  0  0  0  0  0  0999 V2000
  143.1450   74.2860  218.9860 C   0  0  0  0  0  0  0  0  0  0  0  0
  143.6730   75.9090  219.5620 S   0  0  0  0  0  0  0  0  0  0  0  0
  142.9680   77.2110  218.5450 C   0  0  0  0  0  0  0  0  0  0  0  0
  141.9390   78.0450  219.2960 C   0  0  0  0  0  0  0  0  0  0  0  0
  141.7200   77.3870  220.6360 C   0  0  2  0  0  0  0  0  0  0  0  0
  140.5200   76.5890  220.6880 N   0  0  0  0  0  0  0  0  0  0  0  0
  140.4390   75.2740  221.1720 C   0  0  0  0  0  0  0  0  0  0  0  0
  141.5020   74.7150  221.6060 O   0  0  0  0  0  0  0  0  0  0  0  0
  139.1750   74.5080  221.2020 C   0  0  0  0  0  0  0  0  0  0  0  0
  139.1500   73.5690  222.2910 N   0  0  0  0  0  0  0  0  0  0  0  0
  139.9990   72.4450  222.4000 C   0  0  0  0  0  0  0  0  0  0  0  0
  140.8470   72.2440  221.4700 O   0  0  0  0  0  0  0  0  0  0  0  0
  139.9030   71.5390  223.5490 C   0  0  0  0  0  0  0  0  0  0  0  0
  139.2030   70.3750  223.4590 C   0  0  0  0  0  0  0  0  0  0  0  0
  139.0980   69.5080  224.5300 C   0  0  0  0  0  0  0  0  0  0  0  0
  139.7370   69.8790  225.6940 C   0  0  0  0  0  0  0  0  0  0  0  0
  139.6960   69.0910  226.8160 C   0  0  0  0  0  0  0  0  0  0  0  0
  140.3190   69.4290  227.9870 C   0  0  0  0  0  0  0  0  0  0  0  0
  141.0370   70.6050  228.1050 C   0  0  0  0  0  0  0  0  0  0  0  0
  141.0800   71.4050  226.9710 C   0  0  0  0  0  0  0  0  0  0  0  0
  140.4550   71.0690  225.7920 C   0  0  0  0  0  0  0  0  0  0  0  0
  140.5060   71.8590  224.6960 N   0  0  0  0  0  0  0  0  0  0  0  0
  141.6330   78.4440  221.6840 C   0  0  0  0  0  0  0  0  0  0  0  0
  141.8050   79.7940  221.3780 C   0  0  0  0  0  0  0  0  0  0  0  0
  141.7220   80.7690  222.3730 C   0  0  0  0  0  0  0  0  0  0  0  0
  141.4680   80.4190  223.6890 C   0  0  0  0  0  0  0  0  0  0  0  0
  141.2980   79.0640  223.9810 C   0  0  0  0  0  0  0  0  0  0  0  0
  141.3780   78.0980  223.0040 C   0  0  0  0  0  0  0  0  0  0  0  0
  142.9349   73.6403  219.8514 H   0  0  0  0  0  0  0  0  0  0  0  0
  142.2347   74.3912  218.3774 H   0  0  0  0  0  0  0  0  0  0  0  0
  143.9429   73.8355  218.3774 H   0  0  0  0  0  0  0  0  0  0  0  0
  143.7791   77.8725  218.2066 H   0  0  0  0  0  0  0  0  0  0  0  0
  142.4559   76.7325  217.6972 H   0  0  0  0  0  0  0  0  0  0  0  0
  142.3146   79.0693  219.4365 H   0  0  0  0  0  0  0  0  0  0  0  0
  140.9967   78.1019  218.7314 H   0  0  0  0  0  0  0  0  0  0  0  0
  142.5712   76.7114  220.8064 H   0  0  0  0  0  0  0  0  0  0  0  0
  139.6370   77.0450  220.3290 H   0  0  0  0  0  0  0  0  0  0  0  0
  138.3353   75.2094  221.3162 H   0  0  0  0  0  0  0  0  0  0  0  0
  139.0918   73.9450  220.2607 H   0  0  0  0  0  0  0  0  0  0  0  0
  138.4560   73.7080  223.0820 H   0  0  0  0  0  0  0  0  0  0  0  0
  138.7088   70.1182  222.5104 H   0  0  0  0  0  0  0  0  0  0  0  0
  138.5321   68.5675  224.4573 H   0  0  0  0  0  0  0  0  0  0  0  0
  139.1371   68.1445  226.7728 H   0  0  0  0  0  0  0  0  0  0  0  0
  140.2471   68.7520  228.8510 H   0  0  0  0  0  0  0  0  0  0  0  0
  141.5428   70.8891  229.0396 H   0  0  0  0  0  0  0  0  0  0  0  0
  141.6395   72.3510  227.0172 H   0  0  0  0  0  0  0  0  0  0  0  0
  142.0086   80.0938  220.3394 H   0  0  0  0  0  0  0  0  0  0  0  0
  141.8599   81.8279  222.1091 H   0  0  0  0  0  0  0  0  0  0  0  0
  141.4024   81.1829  224.4777 H   0  0  0  0  0  0  0  0  0  0  0  0
  141.0949   78.7609  225.0187 H   0  0  0  0  0  0  0  0  0  0  0  0
  141.2384   77.0403  223.2720 H   0  0  0  0  0  0  0  0  0  0  0  0
  1  2  1  0
  2  3  1  0
  3  4  1  0
  4  5  1  0
  5  6  1  0
  6  7  1  0
  7  8  2  0
  7  9  1  0
  9 10  1  0
 10 11  1  0
 11 12  2  0
 11 13  1  0
 13 14  2  0
 14 15  1  0
 15 16  2  0
 16 17  1  0
 17 18  2  0
 18 19  1  0
 19 20  2  0
 20 21  1  0
 21 22  2  0
  5 23  1  0
 23 24  2  0
 24 25  1  0
 25 26  2  0
 26 27  1  0
 27 28  2  0
 22 13  1  0
 28 23  1  0
 21 16  1  0
  1 29  1  0
  1 30  1  0
  1 31  1  0
  3 32  1  0
  3 33  1  0
  4 34  1  0
  4 35  1  0
  5 36  1  1
  6 37  1  0
  9 38  1  0
  9 39  1  0
 10 40  1  0
 14 41  1  0
 15 42  1  0
 17 43  1  0
 18 44  1  0
 19 45  1  0
 20 46  1  0
 24 47  1  0
 25 48  1  0
 26 49  1  0
 27 50  1  0
 28 51  1  0
M  END
>  <smiles>  (5) 
CSCC[C@H](NC(=O)CNC(=O)c1ccc2ccccc2n1)c1ccccc1

>  <score_type>  (5) 
oracle

>  <origin>  (5) 
autodockgpu

>  <m_score__min__energy>  (5) 
-8.6099999999999994

>  <m_primary>  (5) 
energy

>  <rmsd>  (5) 
4.164879327528636

>  <m_score__min__rmsd>  (5) 
4.164879327528636

>  <meeko>  (5) 
{"free_energy": -8.46, "intermolecular_energy": -10.84, "internal_energy": -1.34, "cluster_size": 8, "cluster_id": 1, "rank_in_cluster": 2}

>  <energy>  (5) 
-8.27

>  <cluster_rmsd>  (5) 
0.67

>  <cluster>  (5) 
1

$$$$

     RDKit          3D

 51 53  0  0  0  0  0  0  0  0999 V2000
  140.4390   71.8620  228.3090 C   0  0  0  0  0  0  0  0  0  0  0  0
  140.7410   70.3490  227.3800 S   0  0  0  0  0  0  0  0  0  0  0  0
  141.4000   70.7180  225.7500 C   0  0  0  0  0  0  0  0  0  0  0  0
  140.6930   71.8930  225.0880 C   0  0  0  0  0  0  0  0  0  0  0  0
  140.1200   71.3960  223.7840 C   0  0  2  0  0  0  0  0  0  0  0  0
  140.1380   72.3890  222.7390 N   0  0  0  0  0  0  0  0  0  0  0  0
  140.9550   72.3550  221.5990 C   0  0  0  0  0  0  0  0  0  0  0  0
  141.7590   71.3730  221.4520 O   0  0  0  0  0  0  0  0  0  0  0  0
  140.9250   73.4050  220.5590 C   0  0  0  0  0  0  0  0  0  0  0  0
  140.9550   74.7220  221.1360 N   0  0  0  0  0  0  0  0  0  0  0  0
  139.8280   75.3950  221.6600 C   0  0  0  0  0  0  0  0  0  0  0  0
  138.7040   74.7950  221.6190 O   0  0  0  0  0  0  0  0  0  0  0  0
  139.9520   76.7390  222.2300 C   0  0  0  0  0  0  0  0  0  0  0  0
  138.8580   77.3990  222.6980 C   0  0  0  0  0  0  0  0  0  0  0  0
  138.9520   78.6670  223.2380 C   0  0  0  0  0  0  0  0  0  0  0  0
  140.2080   79.2320  223.2790 C   0  0  0  0  0  0  0  0  0  0  0  0
  140.4130   80.4870  223.7950 C   0  0  0  0  0  0  0  0  0  0  0  0
  141.6470   81.0770  223.8520 C   0  0  0  0  0  0  0  0  0  0  0  0
  142.7760   80.4280  223.3840 C   0  0  0  0  0  0  0  0  0  0  0  0
  142.5720   79.1590  222.8620 C   0  0  0  0  0  0  0  0  0  0  0  0
  141.3330   78.5620  222.8020 C   0  0  0  0  0  0  0  0  0  0  0  0
  141.1510   77.3250  222.2900 N   0  0  0  0  0  0  0  0  0  0  0  0
  138.7090   70.9690  224.0090 C   0  0  0  0  0  0  0  0  0  0  0  0
  138.3980   69.8420  224.7700 C   0  0  0  0  0  0  0  0  0  0  0  0
  137.0710   69.4580  224.9680 C   0  0  0  0  0  0  0  0  0  0  0  0
  136.0320   70.1850  224.4120 C   0  0  0  0  0  0  0  0  0  0  0  0
  136.3580   71.3100  223.6530 C   0  0  0  0  0  0  0  0  0  0  0  0
  137.6640   71.6950  223.4550 C   0  0  0  0  0  0  0  0  0  0  0  0
  140.4822   71.6454  229.3866 H   0  0  0  0  0  0  0  0  0  0  0  0
  141.2059   72.6082  228.0539 H   0  0  0  0  0  0  0  0  0  0  0  0
  139.4444   72.2565  228.0539 H   0  0  0  0  0  0  0  0  0  0  0  0
  142.4688   70.9589  225.8478 H   0  0  0  0  0  0  0  0  0  0  0  0
  141.2415   69.8325  225.1169 H   0  0  0  0  0  0  0  0  0  0  0  0
  139.8854   72.2609  225.7380 H   0  0  0  0  0  0  0  0  0  0  0  0
  141.3952   72.7216  224.9138 H   0  0  0  0  0  0  0  0  0  0  0  0
  140.7528   70.5597  223.4521 H   0  0  0  0  0  0  0  0  0  0  0  0
  139.4760   73.2050  222.8560 H   0  0  0  0  0  0  0  0  0  0  0  0
  141.7993   73.2827  219.9028 H   0  0  0  0  0  0  0  0  0  0  0  0
  139.9894   73.2996  219.9902 H   0  0  0  0  0  0  0  0  0  0  0  0
  141.8760   75.2470  221.1860 H   0  0  0  0  0  0  0  0  0  0  0  0
  137.8738   76.9105  222.6450 H   0  0  0  0  0  0  0  0  0  0  0  0
  138.0672   79.1997  223.6168 H   0  0  0  0  0  0  0  0  0  0  0  0
  139.5464   81.0442  224.1803 H   0  0  0  0  0  0  0  0  0  0  0  0
  141.7429   82.0866  224.2781 H   0  0  0  0  0  0  0  0  0  0  0  0
  143.7736   80.8898  223.4235 H   0  0  0  0  0  0  0  0  0  0  0  0
  143.4407   78.6040  222.4782 H   0  0  0  0  0  0  0  0  0  0  0  0
  139.2082   69.2490  225.2193 H   0  0  0  0  0  0  0  0  0  0  0  0
  136.8478   68.5669  225.5731 H   0  0  0  0  0  0  0  0  0  0  0  0
  134.9844   69.8858  224.5635 H   0  0  0  0  0  0  0  0  0  0  0  0
  135.5499   71.9042  223.2014 H   0  0  0  0  0  0  0  0  0  0  0  0
  137.8822   72.5880  222.8510 H   0  0  0  0  0  0  0  0  0  0  0  0
  1  2  1  0
  2  3  1  0
  3  4  1  0
  4  5  1  0
  5  6  1  0
  6  7  1  0
  7  8  2  0
  7  9  1  0
  9 10  1  0
 10 11  1  0
 11 12  2  0
 11 13  1  0
 13 14  2  0
 14 15  1  0
 15 16  2  0
 16 17  1  0
 17 18  2  0
 18 19  1  0
 19 20  2  0
 20 21  1  0
 21 22  2  0
  5 23  1  0
 23 24  2  0
 24 25  1  0
 25 26  2  0
 26 27  1  0
 27 28  2  0
 22 13  1  0
 28 23  1  0
 21 16  1  0
  1 29  1  0
  1 30  1  0
  1 31  1  0
  3 32  1  0
  3 33  1  0
  4 34  1  0
  4 35  1  0
  5 36  1  6
  6 37  1  0
  9 38  1  0
  9 39  1  0
 10 40  1  0
 14 41  1  0
 15 42  1  0
 17 43  1  0
 18 44  1  0
 19 45  1  0
 20 46  1  0
 24 47  1  0
 25 48  1  0
 26 49  1  0
 27 50  1  0
 28 51  1  0
M  END
>  <smiles>  (6) 
CSCC[C@H](NC(=O)CNC(=O)c1ccc2ccccc2n1)c1ccccc1

>  <score_type>  (6) 
oracle

>  <origin>  (6) 
autodockgpu

>  <m_score__min__energy>  (6) 
-8.6099999999999994

>  <m_primary>  (6) 
energy

>  <rmsd>  (6) 
9.326345891801727

>  <m_score__min__rmsd>  (6) 
9.326345891801727

>  <meeko>  (6) 
{"free_energy": -7.19, "intermolecular_energy": -9.58, "internal_energy": -2.45, "cluster_size": 4, "cluster_id": 6, "rank_in_cluster": 4}

>  <energy>  (6) 
-7.86

>  <cluster_rmsd>  (6) 
1.01

>  <cluster>  (6) 
1

$$$$

     RDKit          3D

 51 53  0  0  0  0  0  0  0  0999 V2000
  144.0680   74.9050  220.0910 C   0  0  0  0  0  0  0  0  0  0  0  0
  142.9070   75.4250  218.8160 S   0  0  0  0  0  0  0  0  0  0  0  0
  143.0910   77.1760  218.4580 C   0  0  0  0  0  0  0  0  0  0  0  0
  142.0660   78.0320  219.1900 C   0  0  0  0  0  0  0  0  0  0  0  0
  141.8090   77.3810  220.5260 C   0  0  2  0  0  0  0  0  0  0  0  0
  140.6280   76.5540  220.5390 N   0  0  0  0  0  0  0  0  0  0  0  0
  140.4800   75.3580  221.2580 C   0  0  0  0  0  0  0  0  0  0  0  0
  141.4600   74.9450  221.9660 O   0  0  0  0  0  0  0  0  0  0  0  0
  139.2400   74.5550  221.2310 C   0  0  0  0  0  0  0  0  0  0  0  0
  139.2020   73.6020  222.3070 N   0  0  0  0  0  0  0  0  0  0  0  0
  140.0590   72.4840  222.4180 C   0  0  0  0  0  0  0  0  0  0  0  0
  140.9270   72.3040  221.5020 O   0  0  0  0  0  0  0  0  0  0  0  0
  139.9490   71.5620  223.5530 C   0  0  0  0  0  0  0  0  0  0  0  0
  139.3040   70.3710  223.4200 C   0  0  0  0  0  0  0  0  0  0  0  0
  139.1880   69.4880  224.4770 C   0  0  0  0  0  0  0  0  0  0  0  0
  139.7560   69.8730  225.6720 C   0  0  0  0  0  0  0  0  0  0  0  0
  139.6980   69.0710  226.7840 C   0  0  0  0  0  0  0  0  0  0  0  0
  140.2520   69.4210  227.9860 C   0  0  0  0  0  0  0  0  0  0  0  0
  140.9130   70.6260  228.1470 C   0  0  0  0  0  0  0  0  0  0  0  0
  140.9730   71.4390  227.0240 C   0  0  0  0  0  0  0  0  0  0  0  0
  140.4180   71.0910  225.8140 C   0  0  0  0  0  0  0  0  0  0  0  0
  140.4860   71.8940  224.7290 N   0  0  0  0  0  0  0  0  0  0  0  0
  141.6560   78.4440  221.5600 C   0  0  0  0  0  0  0  0  0  0  0  0
  141.3430   78.1380  222.8840 C   0  0  0  0  0  0  0  0  0  0  0  0
  141.2010   79.1480  223.8370 C   0  0  0  0  0  0  0  0  0  0  0  0
  141.3670   80.4790  223.4900 C   0  0  0  0  0  0  0  0  0  0  0  0
  141.6800   80.7700  222.1610 C   0  0  0  0  0  0  0  0  0  0  0  0
  141.8220   79.7790  221.2170 C   0  0  0  0  0  0  0  0  0  0  0  0
  143.6343   75.0992  221.0831 H   0  0  0  0  0  0  0  0  0  0  0  0
  144.2722   73.8294  219.9843 H   0  0  0  0  0  0  0  0  0  0  0  0
  145.0065   75.4688  219.9843 H   0  0  0  0  0  0  0  0  0  0  0  0
  144.0988   77.4944  218.7630 H   0  0  0  0  0  0  0  0  0  0  0  0
  142.9323   77.3148  217.3784 H   0  0  0  0  0  0  0  0  0  0  0  0
  142.4602   79.0484  219.3363 H   0  0  0  0  0  0  0  0  0  0  0  0
  141.1354   78.1073  218.6084 H   0  0  0  0  0  0  0  0  0  0  0  0
  142.6687   76.7276  220.7356 H   0  0  0  0  0  0  0  0  0  0  0  0
  139.8150   76.8900  219.9540 H   0  0  0  0  0  0  0  0  0  0  0  0
  138.3759   75.2297  221.3213 H   0  0  0  0  0  0  0  0  0  0  0  0
  139.2095   74.0018  220.2807 H   0  0  0  0  0  0  0  0  0  0  0  0
  138.4920   73.7240  223.0860 H   0  0  0  0  0  0  0  0  0  0  0  0
  138.8643   70.1046  222.4476 H   0  0  0  0  0  0  0  0  0  0  0  0
  138.6676   68.5248  224.3695 H   0  0  0  0  0  0  0  0  0  0  0  0
  139.1827   68.1023  226.7060 H   0  0  0  0  0  0  0  0  0  0  0  0
  140.1702   68.7318  228.8394 H   0  0  0  0  0  0  0  0  0  0  0  0
  141.3632   70.9213  229.1062 H   0  0  0  0  0  0  0  0  0  0  0  0
  141.4886   72.4073  227.1050 H   0  0  0  0  0  0  0  0  0  0  0  0
  141.2063   77.0877  223.1811 H   0  0  0  0  0  0  0  0  0  0  0  0
  140.9543   78.8840  224.8760 H   0  0  0  0  0  0  0  0  0  0  0  0
  141.2559   81.2793  224.2364 H   0  0  0  0  0  0  0  0  0  0  0  0
  141.8167   81.8193  221.8605 H   0  0  0  0  0  0  0  0  0  0  0  0
  142.0697   80.0474  220.1794 H   0  0  0  0  0  0  0  0  0  0  0  0
  1  2  1  0
  2  3  1  0
  3  4  1  0
  4  5  1  0
  5  6  1  0
  6  7  1  0
  7  8  2  0
  7  9  1  0
  9 10  1  0
 10 11  1  0
 11 12  2  0
 11 13  1  0
 13 14  2  0
 14 15  1  0
 15 16  2  0
 16 17  1  0
 17 18  2  0
 18 19  1  0
 19 20  2  0
 20 21  1  0
 21 22  2  0
  5 23  1  0
 23 24  2  0
 24 25  1  0
 25 26  2  0
 26 27  1  0
 27 28  2  0
 22 13  1  0
 28 23  1  0
 21 16  1  0
  1 29  1  0
  1 30  1  0
  1 31  1  0
  3 32  1  0
  3 33  1  0
  4 34  1  0
  4 35  1  0
  5 36  1  1
  6 37  1  0
  9 38  1  0
  9 39  1  0
 10 40  1  0
 14 41  1  0
 15 42  1  0
 17 43  1  0
 18 44  1  0
 19 45  1  0
 20 46  1  0
 24 47  1  0
 25 48  1  0
 26 49  1  0
 27 50  1  0
 28 51  1  0
M  END
>  <smiles>  (7) 
CSCC[C@H](NC(=O)CNC(=O)c1ccc2ccccc2n1)c1ccccc1

>  <score_type>  (7) 
oracle

>  <origin>  (7) 
autodockgpu

>  <m_score__min__energy>  (7) 
-8.6099999999999994

>  <m_primary>  (7) 
energy

>  <rmsd>  (7) 
3.9271152938110623

>  <m_score__min__rmsd>  (7) 
3.9271152938110623

>  <meeko>  (7) 
{"free_energy": -8.61, "intermolecular_energy": -10.99, "internal_energy": -1.38, "cluster_size": 8, "cluster_id": 1, "rank_in_cluster": 1}

>  <energy>  (7) 
-7.58

>  <cluster_rmsd>  (7) 
1.21

>  <cluster>  (7) 
1

$$$$

     RDKit          3D

 51 53  0  0  0  0  0  0  0  0999 V2000
  137.3570   81.6710  224.4170 C   0  0  0  0  0  0  0  0  0  0  0  0
  138.3320   80.2380  223.9280 S   0  0  0  0  0  0  0  0  0  0  0  0
  138.2810   80.0060  222.1460 C   0  0  0  0  0  0  0  0  0  0  0  0
  138.3920   78.5410  221.7460 C   0  0  0  0  0  0  0  0  0  0  0  0
  139.6930   78.3770  220.9990 C   0  0  2  0  0  0  0  0  0  0  0  0
  140.0120   77.0020  220.7080 N   0  0  0  0  0  0  0  0  0  0  0  0
  139.8030   75.9170  221.5740 C   0  0  0  0  0  0  0  0  0  0  0  0
  139.2910   76.1410  222.7220 O   0  0  0  0  0  0  0  0  0  0  0  0
  140.1510   74.5260  221.2140 C   0  0  0  0  0  0  0  0  0  0  0  0
  140.0120   73.6380  222.3370 N   0  0  0  0  0  0  0  0  0  0  0  0
  140.4380   72.2910  222.3520 C   0  0  0  0  0  0  0  0  0  0  0  0
  140.9840   71.8270  221.2990 O   0  0  0  0  0  0  0  0  0  0  0  0
  140.2540   71.4580  223.5440 C   0  0  0  0  0  0  0  0  0  0  0  0
  139.6300   70.2510  223.4590 C   0  0  0  0  0  0  0  0  0  0  0  0
  139.4450   69.4510  224.5700 C   0  0  0  0  0  0  0  0  0  0  0  0
  139.9230   69.9340  225.7690 C   0  0  0  0  0  0  0  0  0  0  0  0
  139.7910   69.2180  226.9320 C   0  0  0  0  0  0  0  0  0  0  0  0
  140.2550   69.6680  228.1400 C   0  0  0  0  0  0  0  0  0  0  0  0
  140.8930   70.8900  228.2540 C   0  0  0  0  0  0  0  0  0  0  0  0
  141.0280   71.6150  227.0790 C   0  0  0  0  0  0  0  0  0  0  0  0
  140.5630   71.1680  225.8630 C   0  0  0  0  0  0  0  0  0  0  0  0
  140.7020   71.8860  224.7270 N   0  0  0  0  0  0  0  0  0  0  0  0
  140.7960   78.9570  221.8180 C   0  0  0  0  0  0  0  0  0  0  0  0
  141.0910   78.4780  223.0940 C   0  0  0  0  0  0  0  0  0  0  0  0
  142.1260   79.0360  223.8460 C   0  0  0  0  0  0  0  0  0  0  0  0
  142.8850   80.0790  223.3420 C   0  0  0  0  0  0  0  0  0  0  0  0
  142.5790   80.5490  222.0640 C   0  0  0  0  0  0  0  0  0  0  0  0
  141.5600   80.0030  221.3180 C   0  0  0  0  0  0  0  0  0  0  0  0
  137.3169   81.7299  225.5147 H   0  0  0  0  0  0  0  0  0  0  0  0
  137.8218   82.5844  224.0175 H   0  0  0  0  0  0  0  0  0  0  0  0
  136.3367   81.5739  224.0175 H   0  0  0  0  0  0  0  0  0  0  0  0
  137.3291   80.4046  221.7653 H   0  0  0  0  0  0  0  0  0  0  0  0
  139.1426   80.5367  221.7147 H   0  0  0  0  0  0  0  0  0  0  0  0
  138.3903   77.9047  222.6433 H   0  0  0  0  0  0  0  0  0  0  0  0
  137.5409   78.2439  221.1156 H   0  0  0  0  0  0  0  0  0  0  0  0
  139.5800   78.8983  220.0370 H   0  0  0  0  0  0  0  0  0  0  0  0
  140.4380   76.8100  219.7600 H   0  0  0  0  0  0  0  0  0  0  0  0
  139.4838   74.1884  220.4072 H   0  0  0  0  0  0  0  0  0  0  0  0
  141.2016   74.5073  220.8885 H   0  0  0  0  0  0  0  0  0  0  0  0
  139.5610   73.9950  223.2290 H   0  0  0  0  0  0  0  0  0  0  0  0
  139.2640   69.9041  222.4814 H   0  0  0  0  0  0  0  0  0  0  0  0
  138.9407   68.4759  224.5010 H   0  0  0  0  0  0  0  0  0  0  0  0
  139.2904   68.2393  226.8928 H   0  0  0  0  0  0  0  0  0  0  0  0
  140.1175   69.0455  229.0365 H   0  0  0  0  0  0  0  0  0  0  0  0
  141.2702   71.2640  229.2173 H   0  0  0  0  0  0  0  0  0  0  0  0
  141.5301   72.5928  227.1210 H   0  0  0  0  0  0  0  0  0  0  0  0
  140.5006   77.6499  223.5131 H   0  0  0  0  0  0  0  0  0  0  0  0
  142.3413   78.6428  224.8505 H   0  0  0  0  0  0  0  0  0  0  0  0
  143.7023   80.5225  223.9297 H   0  0  0  0  0  0  0  0  0  0  0  0
  143.1676   81.3772  221.6424 H   0  0  0  0  0  0  0  0  0  0  0  0
  141.3482   80.3996  220.3141 H   0  0  0  0  0  0  0  0  0  0  0  0
  1  2  1  0
  2  3  1  0
  3  4  1  0
  4  5  1  0
  5  6  1  0
  6  7  1  0
  7  8  2  0
  7  9  1  0
  9 10  1  0
 10 11  1  0
 11 12  2  0
 11 13  1  0
 13 14  2  0
 14 15  1  0
 15 16  2  0
 16 17  1  0
 17 18  2  0
 18 19  1  0
 19 20  2  0
 20 21  1  0
 21 22  2  0
  5 23  1  0
 23 24  2  0
 24 25  1  0
 25 26  2  0
 26 27  1  0
 27 28  2  0
 22 13  1  0
 28 23  1  0
 21 16  1  0
  1 29  1  0
  1 30  1  0
  1 31  1  0
  3 32  1  0
  3 33  1  0
  4 34  1  0
  4 35  1  0
  5 36  1  6
  6 37  1  0
  9 38  1  0
  9 39  1  0
 10 40  1  0
 14 41  1  0
 15 42  1  0
 17 43  1  0
 18 44  1  0
 19 45  1  0
 20 46  1  0
 24 47  1  0
 25 48  1  0
 26 49  1  0
 27 50  1  0
 28 51  1  0
M  END
>  <smiles>  (8) 
CSCC[C@H](NC(=O)CNC(=O)c1ccc2ccccc2n1)c1ccccc1

>  <score_type>  (8) 
oracle

>  <origin>  (8) 
autodockgpu

>  <m_score__min__energy>  (8) 
-8.6099999999999994

>  <m_primary>  (8) 
energy

>  <rmsd>  (8) 
4.029553131029684

>  <m_score__min__rmsd>  (8) 
4.029553131029684

>  <meeko>  (8) 
{"free_energy": -8.23, "intermolecular_energy": -10.61, "internal_energy": -1.84, "cluster_size": 15, "cluster_id": 2, "rank_in_cluster": 6}

>  <energy>  (8) 
-7.45

>  <cluster_rmsd>  (8) 
1.46

>  <cluster>  (8) 
1

$$$$

     RDKit          3D

 51 53  0  0  0  0  0  0  0  0999 V2000
  140.4580   71.8500  228.2890 C   0  0  0  0  0  0  0  0  0  0  0  0
  140.8020   70.3410  227.3680 S   0  0  0  0  0  0  0  0  0  0  0  0
  141.4210   70.7210  225.7240 C   0  0  0  0  0  0  0  0  0  0  0  0
  140.6740   71.8760  225.0730 C   0  0  0  0  0  0  0  0  0  0  0  0
  140.1160   71.3690  223.7660 C   0  0  2  0  0  0  0  0  0  0  0  0
  140.1410   72.3560  222.7150 N   0  0  0  0  0  0  0  0  0  0  0  0
  141.1220   72.4560  221.7160 C   0  0  0  0  0  0  0  0  0  0  0  0
  142.0830   71.6140  221.7170 O   0  0  0  0  0  0  0  0  0  0  0  0
  141.0900   73.4920  220.6630 C   0  0  0  0  0  0  0  0  0  0  0  0
  141.0920   74.8160  221.2220 N   0  0  0  0  0  0  0  0  0  0  0  0
  139.9450   75.4830  221.7090 C   0  0  0  0  0  0  0  0  0  0  0  0
  138.8290   74.8710  221.6490 O   0  0  0  0  0  0  0  0  0  0  0  0
  140.0410   76.8370  222.2640 C   0  0  0  0  0  0  0  0  0  0  0  0
  138.9280   77.4910  222.6950 C   0  0  0  0  0  0  0  0  0  0  0  0
  138.9960   78.7670  223.2200 C   0  0  0  0  0  0  0  0  0  0  0  0
  140.2450   79.3460  223.2850 C   0  0  0  0  0  0  0  0  0  0  0  0
  140.4230   80.6100  223.7890 C   0  0  0  0  0  0  0  0  0  0  0  0
  141.6500   81.2140  223.8690 C   0  0  0  0  0  0  0  0  0  0  0  0
  142.7960   80.5710  223.4380 C   0  0  0  0  0  0  0  0  0  0  0  0
  142.6180   79.2930  222.9280 C   0  0  0  0  0  0  0  0  0  0  0  0
  141.3880   78.6820  222.8460 C   0  0  0  0  0  0  0  0  0  0  0  0
  141.2310   77.4360  222.3460 N   0  0  0  0  0  0  0  0  0  0  0  0
  138.7040   70.9390  223.9790 C   0  0  0  0  0  0  0  0  0  0  0  0
  137.6340   71.6340  223.4160 C   0  0  0  0  0  0  0  0  0  0  0  0
  136.3190   71.2160  223.6280 C   0  0  0  0  0  0  0  0  0  0  0  0
  136.0460   70.1020  224.4030 C   0  0  0  0  0  0  0  0  0  0  0  0
  137.1270   69.4150  224.9600 C   0  0  0  0  0  0  0  0  0  0  0  0
  138.4250   69.8220  224.7540 C   0  0  0  0  0  0  0  0  0  0  0  0
  140.5058   71.6401  229.3677 H   0  0  0  0  0  0  0  0  0  0  0  0
  141.2047   72.6154  228.0309 H   0  0  0  0  0  0  0  0  0  0  0  0
  139.4533   72.2161  228.0309 H   0  0  0  0  0  0  0  0  0  0  0  0
  142.4854   70.9878  225.8007 H   0  0  0  0  0  0  0  0  0  0  0  0
  141.2718   69.8301  225.0963 H   0  0  0  0  0  0  0  0  0  0  0  0
  139.8556   72.2114  225.7270 H   0  0  0  0  0  0  0  0  0  0  0  0
  141.3470   72.7296  224.9044 H   0  0  0  0  0  0  0  0  0  0  0  0
  140.7551   70.5329  223.4460 H   0  0  0  0  0  0  0  0  0  0  0  0
  139.3500   73.0560  222.7100 H   0  0  0  0  0  0  0  0  0  0  0  0
  141.9749   73.3748  220.0201 H   0  0  0  0  0  0  0  0  0  0  0  0
  140.1635   73.3649  220.0839 H   0  0  0  0  0  0  0  0  0  0  0  0
  142.0060   75.3520  221.2870 H   0  0  0  0  0  0  0  0  0  0  0  0
  137.9506   76.9915  222.6236 H   0  0  0  0  0  0  0  0  0  0  0  0
  138.0967   79.2954  223.5693 H   0  0  0  0  0  0  0  0  0  0  0  0
  139.5410   81.1629  224.1446 H   0  0  0  0  0  0  0  0  0  0  0  0
  141.7251   82.2299  224.2840 H   0  0  0  0  0  0  0  0  0  0  0  0
  143.7876   81.0437  223.4960 H   0  0  0  0  0  0  0  0  0  0  0  0
  143.5016   78.7426  222.5726 H   0  0  0  0  0  0  0  0  0  0  0  0
  137.8286   72.5224  222.7973 H   0  0  0  0  0  0  0  0  0  0  0  0
  135.4900   71.7785  223.1738 H   0  0  0  0  0  0  0  0  0  0  0  0
  135.0118   69.7688  224.5745 H   0  0  0  0  0  0  0  0  0  0  0  0
  136.9357   68.5261  225.5790 H   0  0  0  0  0  0  0  0  0  0  0  0
  139.2511   69.2556  225.2087 H   0  0  0  0  0  0  0  0  0  0  0  0
  1  2  1  0
  2  3  1  0
  3  4  1  0
  4  5  1  0
  5  6  1  0
  6  7  1  0
  7  8  2  0
  7  9  1  0
  9 10  1  0
 10 11  1  0
 11 12  2  0
 11 13  1  0
 13 14  2  0
 14 15  1  0
 15 16  2  0
 16 17  1  0
 17 18  2  0
 18 19  1  0
 19 20  2  0
 20 21  1  0
 21 22  2  0
  5 23  1  0
 23 24  2  0
 24 25  1  0
 25 26  2  0
 26 27  1  0
 27 28  2  0
 22 13  1  0
 28 23  1  0
 21 16  1  0
  1 29  1  0
  1 30  1  0
  1 31  1  0
  3 32  1  0
  3 33  1  0
  4 34  1  0
  4 35  1  0
  5 36  1  6
  6 37  1  0
  9 38  1  0
  9 39  1  0
 10 40  1  0
 14 41  1  0
 15 42  1  0
 17 43  1  0
 18 44  1  0
 19 45  1  0
 20 46  1  0
 24 47  1  0
 25 48  1  0
 26 49  1  0
 27 50  1  0
 28 51  1  0
M  END
>  <smiles>  (9) 
CSCC[C@H](NC(=O)CNC(=O)c1ccc2ccccc2n1)c1ccccc1

>  <score_type>  (9) 
oracle

>  <origin>  (9) 
autodockgpu

>  <m_score__min__energy>  (9) 
-8.6099999999999994

>  <m_primary>  (9) 
energy

>  <rmsd>  (9) 
9.51627948568359

>  <m_score__min__rmsd>  (9) 
9.51627948568359

>  <meeko>  (9) 
{"free_energy": -7.34, "intermolecular_energy": -9.73, "internal_energy": -2.4, "cluster_size": 4, "cluster_id": 6, "rank_in_cluster": 1}

>  <energy>  (9) 
-8.58

>  <cluster_rmsd>  (9) 
0.0

>  <cluster>  (9) 
2

$$$$

     RDKit          3D

 51 53  0  0  0  0  0  0  0  0999 V2000
  138.1680   80.5130  224.2240 C   0  0  0  0  0  0  0  0  0  0  0  0
  138.4310   81.1770  222.5710 S   0  0  0  0  0  0  0  0  0  0  0  0
  137.9130   79.9990  221.3170 C   0  0  0  0  0  0  0  0  0  0  0  0
  138.3890   78.5840  221.6150 C   0  0  0  0  0  0  0  0  0  0  0  0
  139.7490   78.4250  220.9820 C   0  0  2  0  0  0  0  0  0  0  0  0
  140.0890   77.0530  220.7010 N   0  0  0  0  0  0  0  0  0  0  0  0
  139.8960   75.9720  221.5750 C   0  0  0  0  0  0  0  0  0  0  0  0
  139.3780   76.1960  222.7210 O   0  0  0  0  0  0  0  0  0  0  0  0
  140.2650   74.5830  221.2260 C   0  0  0  0  0  0  0  0  0  0  0  0
  140.0510   73.6850  222.3280 N   0  0  0  0  0  0  0  0  0  0  0  0
  140.5270   72.3560  222.3850 C   0  0  0  0  0  0  0  0  0  0  0  0
  141.1930   71.9180  221.3900 O   0  0  0  0  0  0  0  0  0  0  0  0
  140.2600   71.5110  223.5520 C   0  0  0  0  0  0  0  0  0  0  0  0
  139.5890   70.3340  223.4180 C   0  0  0  0  0  0  0  0  0  0  0  0
  139.3250   69.5230  224.5050 C   0  0  0  0  0  0  0  0  0  0  0  0
  139.7740   69.9630  225.7310 C   0  0  0  0  0  0  0  0  0  0  0  0
  139.5650   69.2330  226.8750 C   0  0  0  0  0  0  0  0  0  0  0  0
  139.9990   69.6410  228.1080 C   0  0  0  0  0  0  0  0  0  0  0  0
  140.6830   70.8320  228.2710 C   0  0  0  0  0  0  0  0  0  0  0  0
  140.8960   71.5710  227.1170 C   0  0  0  0  0  0  0  0  0  0  0  0
  140.4620   71.1660  225.8750 C   0  0  0  0  0  0  0  0  0  0  0  0
  140.6770   71.8980  224.7590 N   0  0  0  0  0  0  0  0  0  0  0  0
  140.7780   78.9910  221.9010 C   0  0  0  0  0  0  0  0  0  0  0  0
  140.8710   78.5870  223.2330 C   0  0  0  0  0  0  0  0  0  0  0  0
  141.8400   79.1300  224.0780 C   0  0  0  0  0  0  0  0  0  0  0  0
  142.7320   80.0820  223.6150 C   0  0  0  0  0  0  0  0  0  0  0  0
  142.6280   80.4770  222.2790 C   0  0  0  0  0  0  0  0  0  0  0  0
  141.6750   79.9450  221.4410 C   0  0  0  0  0  0  0  0  0  0  0  0
  138.4650   81.2629  224.9719 H   0  0  0  0  0  0  0  0  0  0  0  0
  137.1041   80.2660  224.3549 H   0  0  0  0  0  0  0  0  0  0  0  0
  138.7742   79.6045  224.3549 H   0  0  0  0  0  0  0  0  0  0  0  0
  136.8142   79.9982  221.2660 H   0  0  0  0  0  0  0  0  0  0  0  0
  138.3617   80.3086  220.3616 H   0  0  0  0  0  0  0  0  0  0  0  0
  138.4598   78.4319  222.7021 H   0  0  0  0  0  0  0  0  0  0  0  0
  137.6831   77.8429  221.2120 H   0  0  0  0  0  0  0  0  0  0  0  0
  139.7211   78.9589  220.0207 H   0  0  0  0  0  0  0  0  0  0  0  0
  140.5190   76.8600  219.7550 H   0  0  0  0  0  0  0  0  0  0  0  0
  139.6521   74.2544  220.3737 H   0  0  0  0  0  0  0  0  0  0  0  0
  141.3349   74.5653  220.9710 H   0  0  0  0  0  0  0  0  0  0  0  0
  139.5000   74.0200  223.1720 H   0  0  0  0  0  0  0  0  0  0  0  0
  139.2487   70.0210  222.4199 H   0  0  0  0  0  0  0  0  0  0  0  0
  138.7826   68.5721  224.3968 H   0  0  0  0  0  0  0  0  0  0  0  0
  139.0249   68.2779  226.7976 H   0  0  0  0  0  0  0  0  0  0  0  0
  139.7997   69.0091  228.9861 H   0  0  0  0  0  0  0  0  0  0  0  0
  141.0364   71.1722  229.2556 H   0  0  0  0  0  0  0  0  0  0  0  0
  141.4370   72.5253  227.1979 H   0  0  0  0  0  0  0  0  0  0  0  0
  140.1724   77.8316  223.6219 H   0  0  0  0  0  0  0  0  0  0  0  0
  141.8956   78.7973  225.1250 H   0  0  0  0  0  0  0  0  0  0  0  0
  143.4973   80.5132  224.2771 H   0  0  0  0  0  0  0  0  0  0  0  0
  143.3253   81.2321  221.8872 H   0  0  0  0  0  0  0  0  0  0  0  0
  141.6235   80.2797  220.3944 H   0  0  0  0  0  0  0  0  0  0  0  0
  1  2  1  0
  2  3  1  0
  3  4  1  0
  4  5  1  0
  5  6  1  0
  6  7  1  0
  7  8  2  0
  7  9  1  0
  9 10  1  0
 10 11  1  0
 11 12  2  0
 11 13  1  0
 13 14  2  0
 14 15  1  0
 15 16  2  0
 16 17  1  0
 17 18  2  0
 18 19  1  0
 19 20  2  0
 20 21  1  0
 21 22  2  0
  5 23  1  0
 23 24  2  0
 24 25  1  0
 25 26  2  0
 26 27  1  0
 27 28  2  0
 22 13  1  0
 28 23  1  0
 21 16  1  0
  1 29  1  0
  1 30  1  0
  1 31  1  0
  3 32  1  0
  3 33  1  0
  4 34  1  0
  4 35  1  0
  5 36  1  6
  6 37  1  0
  9 38  1  0
  9 39  1  0
 10 40  1  0
 14 41  1  0
 15 42  1  0
 17 43  1  0
 18 44  1  0
 19 45  1  0
 20 46  1  0
 24 47  1  0
 25 48  1  0
 26 49  1  0
 27 50  1  0
 28 51  1  0
M  END
>  <smiles>  (10) 
CSCC[C@H](NC(=O)CNC(=O)c1ccc2ccccc2n1)c1ccccc1

>  <score_type>  (10) 
oracle

>  <origin>  (10) 
autodockgpu

>  <m_score__min__energy>  (10) 
-8.6099999999999994

>  <m_primary>  (10) 
energy

>  <rmsd>  (10) 
3.987627751968531

>  <m_score__min__rmsd>  (10) 
3.987627751968531

>  <meeko>  (10) 
{"free_energy": -8.08, "intermolecular_energy": -10.46, "internal_energy": -1.92, "cluster_size": 15, "cluster_id": 2, "rank_in_cluster": 13}

>  <energy>  (10) 
-8.53

>  <cluster_rmsd>  (10) 
0.24

>  <cluster>  (10) 
2

$$$$

     RDKit          3D

 51 53  0  0  0  0  0  0  0  0999 V2000
  135.6170   72.2860  222.2620 C   0  0  0  0  0  0  0  0  0  0  0  0
  135.8230   73.5710  223.5070 S   0  0  0  0  0  0  0  0  0  0  0  0
  135.5520   75.2000  222.7970 C   0  0  0  0  0  0  0  0  0  0  0  0
  136.6180   76.2020  223.2170 C   0  0  0  0  0  0  0  0  0  0  0  0
  137.6500   76.2490  222.1170 C   0  0  2  0  0  0  0  0  0  0  0  0
  138.2330   74.9620  221.8300 N   0  0  0  0  0  0  0  0  0  0  0  0
  138.1500   74.2880  220.6020 C   0  0  0  0  0  0  0  0  0  0  0  0
  137.5080   74.8380  219.6440 O   0  0  0  0  0  0  0  0  0  0  0  0
  138.7740   72.9680  220.3690 C   0  0  0  0  0  0  0  0  0  0  0  0
  138.8050   72.1770  221.5700 N   0  0  0  0  0  0  0  0  0  0  0  0
  139.7090   72.3760  222.6370 C   0  0  0  0  0  0  0  0  0  0  0  0
  140.5580   73.3210  222.5320 O   0  0  0  0  0  0  0  0  0  0  0  0
  139.6680   71.5200  223.8260 C   0  0  0  0  0  0  0  0  0  0  0  0
  138.9390   70.3700  223.8290 C   0  0  0  0  0  0  0  0  0  0  0  0
  138.8860   69.5490  224.9390 C   0  0  0  0  0  0  0  0  0  0  0  0
  139.6060   69.9510  226.0440 C   0  0  0  0  0  0  0  0  0  0  0  0
  139.6210   69.2080  227.1980 C   0  0  0  0  0  0  0  0  0  0  0  0
  140.3260   69.5780  228.3120 C   0  0  0  0  0  0  0  0  0  0  0  0
  141.0750   70.7400  228.3350 C   0  0  0  0  0  0  0  0  0  0  0  0
  141.0610   71.4930  227.1690 C   0  0  0  0  0  0  0  0  0  0  0  0
  140.3540   71.1260  226.0470 C   0  0  0  0  0  0  0  0  0  0  0  0
  140.3510   71.8700  224.9180 N   0  0  0  0  0  0  0  0  0  0  0  0
  138.7390   77.1850  222.5170 C   0  0  0  0  0  0  0  0  0  0  0  0
  138.4630   78.4400  223.0600 C   0  0  0  0  0  0  0  0  0  0  0  0
  139.4960   79.3040  223.4260 C   0  0  0  0  0  0  0  0  0  0  0  0
  140.8210   78.9360  223.2580 C   0  0  0  0  0  0  0  0  0  0  0  0
  141.0830   77.6770  222.7130 C   0  0  0  0  0  0  0  0  0  0  0  0
  140.0680   76.8210  222.3510 C   0  0  0  0  0  0  0  0  0  0  0  0
  135.4616   71.3165  222.7579 H   0  0  0  0  0  0  0  0  0  0  0  0
  134.7450   72.5205  221.6338 H   0  0  0  0  0  0  0  0  0  0  0  0
  136.5186   72.2362  221.6338 H   0  0  0  0  0  0  0  0  0  0  0  0
  135.5615   75.1132  221.7005 H   0  0  0  0  0  0  0  0  0  0  0  0
  134.5828   75.5684  223.1644 H   0  0  0  0  0  0  0  0  0  0  0  0
  136.1672   77.1962  223.3526 H   0  0  0  0  0  0  0  0  0  0  0  0
  137.0788   75.9030  224.1700 H   0  0  0  0  0  0  0  0  0  0  0  0
  137.1350   76.5869  221.2056 H   0  0  0  0  0  0  0  0  0  0  0  0
  138.7640   74.5010  222.6180 H   0  0  0  0  0  0  0  0  0  0  0  0
  138.1964   72.4305  219.6025 H   0  0  0  0  0  0  0  0  0  0  0  0
  139.8102   73.1312  220.0379 H   0  0  0  0  0  0  0  0  0  0  0  0
  138.1110   71.3840  221.6880 H   0  0  0  0  0  0  0  0  0  0  0  0
  138.3785   70.0877  222.9256 H   0  0  0  0  0  0  0  0  0  0  0  0
  138.2978   68.6195  224.9410 H   0  0  0  0  0  0  0  0  0  0  0  0
  139.0409   68.2739  227.2293 H   0  0  0  0  0  0  0  0  0  0  0  0
  140.2959   68.9382  229.2063 H   0  0  0  0  0  0  0  0  0  0  0  0
  141.6467   71.0487  229.2226 H   0  0  0  0  0  0  0  0  0  0  0  0
  141.6421   72.4265  227.1406 H   0  0  0  0  0  0  0  0  0  0  0  0
  137.4179   78.7525  223.2015 H   0  0  0  0  0  0  0  0  0  0  0  0
  139.2554   80.2888  223.8529 H   0  0  0  0  0  0  0  0  0  0  0  0
  141.6395   79.6128  223.5443 H   0  0  0  0  0  0  0  0  0  0  0  0
  142.1270   77.3617  222.5695 H   0  0  0  0  0  0  0  0  0  0  0  0
  140.3129   75.8368  221.9251 H   0  0  0  0  0  0  0  0  0  0  0  0
  1  2  1  0
  2  3  1  0
  3  4  1  0
  4  5  1  0
  5  6  1  0
  6  7  1  0
  7  8  2  0
  7  9  1  0
  9 10  1  0
 10 11  1  0
 11 12  2  0
 11 13  1  0
 13 14  2  0
 14 15  1  0
 15 16  2  0
 16 17  1  0
 17 18  2  0
 18 19  1  0
 19 20  2  0
 20 21  1  0
 21 22  2  0
  5 23  1  0
 23 24  2  0
 24 25  1  0
 25 26  2  0
 26 27  1  0
 27 28  2  0
 22 13  1  0
 28 23  1  0
 21 16  1  0
  1 29  1  0
  1 30  1  0
  1 31  1  0
  3 32  1  0
  3 33  1  0
  4 34  1  0
  4 35  1  0
  5 36  1  6
  6 37  1  0
  9 38  1  0
  9 39  1  0
 10 40  1  0
 14 41  1  0
 15 42  1  0
 17 43  1  0
 18 44  1  0
 19 45  1  0
 20 46  1  0
 24 47  1  0
 25 48  1  0
 26 49  1  0
 27 50  1  0
 28 51  1  0
M  END
>  <smiles>  (11) 
CSCC[C@H](NC(=O)CNC(=O)c1ccc2ccccc2n1)c1ccccc1

>  <score_type>  (11) 
oracle

>  <origin>  (11) 
autodockgpu

>  <m_score__min__energy>  (11) 
-8.6099999999999994

>  <m_primary>  (11) 
energy

>  <rmsd>  (11) 
4.752747967222724

>  <m_score__min__rmsd>  (11) 
4.752747967222724

>  <meeko>  (11) 
{"free_energy": -7.22, "intermolecular_energy": -9.6, "internal_energy": -2.59, "cluster_size": 7, "cluster_id": 5, "rank_in_cluster": 4}

>  <energy>  (11) 
-8.37

>  <cluster_rmsd>  (11) 
0.91

>  <cluster>  (11) 
2

$$$$

     RDKit          3D

 51 53  0  0  0  0  0  0  0  0999 V2000
  143.3950   80.5140  223.4770 C   0  0  0  0  0  0  0  0  0  0  0  0
  141.6480   80.8430  223.7630 S   0  0  0  0  0  0  0  0  0  0  0  0
  140.6640   79.3660  223.4840 C   0  0  0  0  0  0  0  0  0  0  0  0
  141.4430   78.2740  222.7660 C   0  0  0  0  0  0  0  0  0  0  0  0
  140.7220   77.9840  221.4730 C   0  0  2  0  0  0  0  0  0  0  0  0
  140.7720   76.5950  221.0910 N   0  0  0  0  0  0  0  0  0  0  0  0
  140.0670   75.5540  221.7140 C   0  0  0  0  0  0  0  0  0  0  0  0
  139.3110   75.8350  222.7050 O   0  0  0  0  0  0  0  0  0  0  0  0
  140.1600   74.1460  221.2730 C   0  0  0  0  0  0  0  0  0  0  0  0
  139.9520   73.2340  222.3660 N   0  0  0  0  0  0  0  0  0  0  0  0
  140.5910   71.9810  222.4970 C   0  0  0  0  0  0  0  0  0  0  0  0
  141.4100   71.6310  221.5860 O   0  0  0  0  0  0  0  0  0  0  0  0
  140.3180   71.1140  223.6480 C   0  0  0  0  0  0  0  0  0  0  0  0
  139.5810   69.9790  223.5020 C   0  0  0  0  0  0  0  0  0  0  0  0
  139.3100   69.1490  224.5730 C   0  0  0  0  0  0  0  0  0  0  0  0
  139.8210   69.5270  225.7960 C   0  0  0  0  0  0  0  0  0  0  0  0
  139.6110   68.7740  226.9240 C   0  0  0  0  0  0  0  0  0  0  0  0
  140.1060   69.1190  228.1530 C   0  0  0  0  0  0  0  0  0  0  0  0
  140.8580   70.2670  228.3280 C   0  0  0  0  0  0  0  0  0  0  0  0
  141.0720   71.0300  227.1890 C   0  0  0  0  0  0  0  0  0  0  0  0
  140.5770   70.6870  225.9510 C   0  0  0  0  0  0  0  0  0  0  0  0
  140.7940   71.4410  224.8510 N   0  0  0  0  0  0  0  0  0  0  0  0
  141.3360   78.7970  220.3850 C   0  0  0  0  0  0  0  0  0  0  0  0
  142.0050   78.2030  219.3140 C   0  0  0  0  0  0  0  0  0  0  0  0
  142.5740   78.9820  218.3060 C   0  0  0  0  0  0  0  0  0  0  0  0
  142.4910   80.3640  218.3450 C   0  0  0  0  0  0  0  0  0  0  0  0
  141.8190   80.9450  219.4220 C   0  0  0  0  0  0  0  0  0  0  0  0
  141.2540   80.1830  220.4180 C   0  0  0  0  0  0  0  0  0  0  0  0
  143.9126   80.4165  224.4427 H   0  0  0  0  0  0  0  0  0  0  0  0
  143.5036   79.5796  222.9068 H   0  0  0  0  0  0  0  0  0  0  0  0
  143.8360   81.3449  222.9068 H   0  0  0  0  0  0  0  0  0  0  0  0
  140.3270   78.9777  224.4565 H   0  0  0  0  0  0  0  0  0  0  0  0
  139.8144   79.6464  222.8440 H   0  0  0  0  0  0  0  0  0  0  0  0
  142.4669   78.6175  222.5571 H   0  0  0  0  0  0  0  0  0  0  0  0
  141.5069   77.3687  223.3875 H   0  0  0  0  0  0  0  0  0  0  0  0
  139.6645   78.2424  221.6307 H   0  0  0  0  0  0  0  0  0  0  0  0
  141.3970   76.3550  220.2730 H   0  0  0  0  0  0  0  0  0  0  0  0
  139.3956   73.9616  220.5038 H   0  0  0  0  0  0  0  0  0  0  0  0
  141.1701   73.9772  220.8714 H   0  0  0  0  0  0  0  0  0  0  0  0
  139.2760   73.4970  223.1410 H   0  0  0  0  0  0  0  0  0  0  0  0
  139.1917   69.7161  222.5073 H   0  0  0  0  0  0  0  0  0  0  0  0
  138.7153   68.2311  224.4552 H   0  0  0  0  0  0  0  0  0  0  0  0
  139.0181   67.8516  226.8367 H   0  0  0  0  0  0  0  0  0  0  0  0
  139.9018   68.4709  229.0180 H   0  0  0  0  0  0  0  0  0  0  0  0
  141.2613   70.5570  229.3095 H   0  0  0  0  0  0  0  0  0  0  0  0
  141.6649   71.9521  227.2794 H   0  0  0  0  0  0  0  0  0  0  0  0
  142.0847   77.1070  219.2639 H   0  0  0  0  0  0  0  0  0  0  0  0
  143.0950   78.4925  217.4700 H   0  0  0  0  0  0  0  0  0  0  0  0
  142.9395   80.9830  217.5540 H   0  0  0  0  0  0  0  0  0  0  0  0
  141.7393   82.0408  219.4754 H   0  0  0  0  0  0  0  0  0  0  0  0
  140.7312   80.6770  221.2502 H   0  0  0  0  0  0  0  0  0  0  0  0
  1  2  1  0
  2  3  1  0
  3  4  1  0
  4  5  1  0
  5  6  1  0
  6  7  1  0
  7  8  2  0
  7  9  1  0
  9 10  1  0
 10 11  1  0
 11 12  2  0
 11 13  1  0
 13 14  2  0
 14 15  1  0
 15 16  2  0
 16 17  1  0
 17 18  2  0
 18 19  1  0
 19 20  2  0
 20 21  1  0
 21 22  2  0
  5 23  1  0
 23 24  2  0
 24 25  1  0
 25 26  2  0
 26 27  1  0
 27 28  2  0
 22 13  1  0
 28 23  1  0
 21 16  1  0
  1 29  1  0
  1 30  1  0
  1 31  1  0
  3 32  1  0
  3 33  1  0
  4 34  1  0
  4 35  1  0
  5 36  1  1
  6 37  1  0
  9 38  1  0
  9 39  1  0
 10 40  1  0
 14 41  1  0
 15 42  1  0
 17 43  1  0
 18 44  1  0
 19 45  1  0
 20 46  1  0
 24 47  1  0
 25 48  1  0
 26 49  1  0
 27 50  1  0
 28 51  1  0
M  END
>  <smiles>  (12) 
CSCC[C@H](NC(=O)CNC(=O)c1ccc2ccccc2n1)c1ccccc1

>  <score_type>  (12) 
oracle

>  <origin>  (12) 
autodockgpu

>  <m_score__min__energy>  (12) 
-8.6099999999999994

>  <m_primary>  (12) 
energy

>  <rmsd>  (12) 
3.9041227434167176

>  <m_score__min__rmsd>  (12) 
3.9041227434167176

>  <meeko>  (12) 
{"free_energy": -8.37, "intermolecular_energy": -10.76, "internal_energy": -1.57, "cluster_size": 15, "cluster_id": 2, "rank_in_cluster": 3}

>  <energy>  (12) 
-8.26

>  <cluster_rmsd>  (12) 
1.41

>  <cluster>  (12) 
2

$$$$

     RDKit          3D

 51 53  0  0  0  0  0  0  0  0999 V2000
  136.3100   71.8660  223.8200 C   0  0  0  0  0  0  0  0  0  0  0  0
  135.4170   73.3450  224.3290 S   0  0  0  0  0  0  0  0  0  0  0  0
  135.4870   74.6070  223.0510 C   0  0  0  0  0  0  0  0  0  0  0  0
  136.5690   75.6440  223.3150 C   0  0  0  0  0  0  0  0  0  0  0  0
  137.5480   75.5740  222.1690 C   0  0  2  0  0  0  0  0  0  0  0  0
  138.0950   74.2560  221.9680 N   0  0  0  0  0  0  0  0  0  0  0  0
  137.9710   73.4930  220.7960 C   0  0  0  0  0  0  0  0  0  0  0  0
  137.3220   73.9860  219.8120 O   0  0  0  0  0  0  0  0  0  0  0  0
  138.5580   72.1450  220.6510 C   0  0  0  0  0  0  0  0  0  0  0  0
  138.8320   71.5460  221.9290 N   0  0  0  0  0  0  0  0  0  0  0  0
  139.8450   71.9760  222.8160 C   0  0  0  0  0  0  0  0  0  0  0  0
  140.5690   72.9630  222.4610 O   0  0  0  0  0  0  0  0  0  0  0  0
  140.0530   71.3040  224.1020 C   0  0  0  0  0  0  0  0  0  0  0  0
  140.7500   71.9150  225.0990 C   0  0  0  0  0  0  0  0  0  0  0  0
  140.9590   71.2990  226.3190 C   0  0  0  0  0  0  0  0  0  0  0  0
  140.4290   70.0370  226.4760 C   0  0  0  0  0  0  0  0  0  0  0  0
  140.5790   69.3370  227.6470 C   0  0  0  0  0  0  0  0  0  0  0  0
  140.0640   68.0830  227.8370 C   0  0  0  0  0  0  0  0  0  0  0  0
  139.3520   67.4410  226.8400 C   0  0  0  0  0  0  0  0  0  0  0  0
  139.1990   68.1460  225.6540 C   0  0  0  0  0  0  0  0  0  0  0  0
  139.7140   69.4070  225.4590 C   0  0  0  0  0  0  0  0  0  0  0  0
  139.5560   70.0810  224.2980 N   0  0  0  0  0  0  0  0  0  0  0  0
  138.6700   76.5180  222.4350 C   0  0  0  0  0  0  0  0  0  0  0  0
  140.0030   76.1200  222.3270 C   0  0  0  0  0  0  0  0  0  0  0  0
  141.0400   77.0190  222.5810 C   0  0  0  0  0  0  0  0  0  0  0  0
  140.7710   78.3270  222.9480 C   0  0  0  0  0  0  0  0  0  0  0  0
  139.4330   78.7120  223.0520 C   0  0  0  0  0  0  0  0  0  0  0  0
  138.4060   77.8310  222.8020 C   0  0  0  0  0  0  0  0  0  0  0  0
  136.6433   71.3140  224.7112 H   0  0  0  0  0  0  0  0  0  0  0  0
  135.6472   71.2261  223.2190 H   0  0  0  0  0  0  0  0  0  0  0  0
  137.1849   72.1546  223.2190 H   0  0  0  0  0  0  0  0  0  0  0  0
  135.6923   74.1208  222.0859 H   0  0  0  0  0  0  0  0  0  0  0  0
  134.5187   75.1288  223.0430 H   0  0  0  0  0  0  0  0  0  0  0  0
  136.1229   76.6481  223.3680 H   0  0  0  0  0  0  0  0  0  0  0  0
  137.0745   75.4441  224.2713 H   0  0  0  0  0  0  0  0  0  0  0  0
  136.9953   75.8422  221.2565 H   0  0  0  0  0  0  0  0  0  0  0  0
  138.6310   73.8420  222.7790 H   0  0  0  0  0  0  0  0  0  0  0  0
  137.8517   71.5055  220.1012 H   0  0  0  0  0  0  0  0  0  0  0  0
  139.5084   72.2408  220.1054 H   0  0  0  0  0  0  0  0  0  0  0  0
  138.2470   70.7230  222.2540 H   0  0  0  0  0  0  0  0  0  0  0  0
  141.1567   72.9230  224.9299 H   0  0  0  0  0  0  0  0  0  0  0  0
  141.5213   71.7926  227.1253 H   0  0  0  0  0  0  0  0  0  0  0  0
  141.1385   69.8050  228.4703 H   0  0  0  0  0  0  0  0  0  0  0  0
  140.2193   67.5763  228.8009 H   0  0  0  0  0  0  0  0  0  0  0  0
  138.9327   66.4335  226.9784 H   0  0  0  0  0  0  0  0  0  0  0  0
  138.6402   67.6748  224.8320 H   0  0  0  0  0  0  0  0  0  0  0  0
  140.2394   75.0853  222.0382 H   0  0  0  0  0  0  0  0  0  0  0  0
  142.0838   76.6845  222.4885 H   0  0  0  0  0  0  0  0  0  0  0  0
  141.5846   79.0390  223.1508 H   0  0  0  0  0  0  0  0  0  0  0  0
  139.1937   79.7460  223.3412 H   0  0  0  0  0  0  0  0  0  0  0  0
  137.3638   78.1707  222.8939 H   0  0  0  0  0  0  0  0  0  0  0  0
  1  2  1  0
  2  3  1  0
  3  4  1  0
  4  5  1  0
  5  6  1  0
  6  7  1  0
  7  8  2  0
  7  9  1  0
  9 10  1  0
 10 11  1  0
 11 12  2  0
 11 13  1  0
 13 14  2  0
 14 15  1  0
 15 16  2  0
 16 17  1  0
 17 18  2  0
 18 19  1  0
 19 20  2  0
 20 21  1  0
 21 22  2  0
  5 23  1  0
 23 24  2  0
 24 25  1  0
 25 26  2  0
 26 27  1  0
 27 28  2  0
 22 13  1  0
 28 23  1  0
 21 16  1  0
  1 29  1  0
  1 30  1  0
  1 31  1  0
  3 32  1  0
  3 33  1  0
  4 34  1  0
  4 35  1  0
  5 36  1  6
  6 37  1  0
  9 38  1  0
  9 39  1  0
 10 40  1  0
 14 41  1  0
 15 42  1  0
 17 43  1  0
 18 44  1  0
 19 45  1  0
 20 46  1  0
 24 47  1  0
 25 48  1  0
 26 49  1  0
 27 50  1  0
 28 51  1  0
M  END
>  <smiles>  (13) 
CSCC[C@H](NC(=O)CNC(=O)c1ccc2ccccc2n1)c1ccccc1

>  <score_type>  (13) 
oracle

>  <origin>  (13) 
autodockgpu

>  <m_score__min__energy>  (13) 
-8.6099999999999994

>  <m_primary>  (13) 
energy

>  <rmsd>  (13) 
4.81847641773887

>  <m_score__min__rmsd>  (13) 
4.81847641773887

>  <meeko>  (13) 
{"free_energy": -7.16, "intermolecular_energy": -9.55, "internal_energy": -2.84, "cluster_size": 7, "cluster_id": 5, "rank_in_cluster": 6}

>  <energy>  (13) 
-8.24

>  <cluster_rmsd>  (13) 
0.49

>  <cluster>  (13) 
2

$$$$

     RDKit          3D

 51 53  0  0  0  0  0  0  0  0999 V2000
  141.0040   77.8870  222.6720 C   0  0  0  0  0  0  0  0  0  0  0  0
  140.9850   78.5950  221.0160 S   0  0  0  0  0  0  0  0  0  0  0  0
  141.1630   77.3130  219.7690 C   0  0  0  0  0  0  0  0  0  0  0  0
  142.5250   76.6340  219.8220 C   0  0  0  0  0  0  0  0  0  0  0  0
  142.3480   75.2320  219.2950 C   0  0  2  0  0  0  0  0  0  0  0  0
  141.0980   74.6300  219.6850 N   0  0  0  0  0  0  0  0  0  0  0  0
  140.6820   74.4000  221.0060 C   0  0  0  0  0  0  0  0  0  0  0  0
  141.4600   74.7430  221.9590 O   0  0  0  0  0  0  0  0  0  0  0  0
  139.3840   73.7800  221.3410 C   0  0  0  0  0  0  0  0  0  0  0  0
  139.4790   72.9530  222.5140 N   0  0  0  0  0  0  0  0  0  0  0  0
  139.4650   71.5400  222.5020 C   0  0  0  0  0  0  0  0  0  0  0  0
  139.3600   70.9540  221.3750 O   0  0  0  0  0  0  0  0  0  0  0  0
  139.5670   70.7770  223.7500 C   0  0  0  0  0  0  0  0  0  0  0  0
  139.1270   69.4900  223.8150 C   0  0  0  0  0  0  0  0  0  0  0  0
  139.2130   68.7530  224.9810 C   0  0  0  0  0  0  0  0  0  0  0  0
  139.7640   69.3850  226.0740 C   0  0  0  0  0  0  0  0  0  0  0  0
  139.8960   68.7430  227.2810 C   0  0  0  0  0  0  0  0  0  0  0  0
  140.4400   69.3400  228.3860 C   0  0  0  0  0  0  0  0  0  0  0  0
  140.8950   70.6460  228.3470 C   0  0  0  0  0  0  0  0  0  0  0  0
  140.7630   71.2970  227.1280 C   0  0  0  0  0  0  0  0  0  0  0  0
  140.2170   70.7010  226.0140 C   0  0  0  0  0  0  0  0  0  0  0  0
  140.0950   71.3490  224.8340 N   0  0  0  0  0  0  0  0  0  0  0  0
  143.4630   74.3810  219.8030 C   0  0  0  0  0  0  0  0  0  0  0  0
  144.5860   74.9370  220.4160 C   0  0  0  0  0  0  0  0  0  0  0  0
  145.6200   74.1240  220.8830 C   0  0  0  0  0  0  0  0  0  0  0  0
  145.5560   72.7470  220.7490 C   0  0  0  0  0  0  0  0  0  0  0  0
  144.4260   72.2050  220.1340 C   0  0  0  0  0  0  0  0  0  0  0  0
  143.4030   73.0010  219.6720 C   0  0  0  0  0  0  0  0  0  0  0  0
  140.9823   78.6961  223.4169 H   0  0  0  0  0  0  0  0  0  0  0  0
  140.1228   77.2422  222.8052 H   0  0  0  0  0  0  0  0  0  0  0  0
  141.9185   77.2904  222.8052 H   0  0  0  0  0  0  0  0  0  0  0  0
  140.3836   76.5536  219.9298 H   0  0  0  0  0  0  0  0  0  0  0  0
  141.0651   77.7899  218.7826 H   0  0  0  0  0  0  0  0  0  0  0  0
  143.2440   77.1833  219.1965 H   0  0  0  0  0  0  0  0  0  0  0  0
  142.9119   76.6171  220.8516 H   0  0  0  0  0  0  0  0  0  0  0  0
  142.3510   75.2990  218.1970 H   0  0  0  0  0  0  0  0  0  0  0  0
  140.4500   74.3430  218.9000 H   0  0  0  0  0  0  0  0  0  0  0  0
  138.6454   74.5745  221.5233 H   0  0  0  0  0  0  0  0  0  0  0  0
  139.0779   73.1451  220.4965 H   0  0  0  0  0  0  0  0  0  0  0  0
  139.5680   73.4110  223.4670 H   0  0  0  0  0  0  0  0  0  0  0  0
  138.6925   69.0255  222.9175 H   0  0  0  0  0  0  0  0  0  0  0  0
  138.8589   67.7129  225.0337 H   0  0  0  0  0  0  0  0  0  0  0  0
  139.5490   67.7024  227.3633 H   0  0  0  0  0  0  0  0  0  0  0  0
  140.5170   68.7701  229.3237 H   0  0  0  0  0  0  0  0  0  0  0  0
  141.3342   71.1380  229.2274 H   0  0  0  0  0  0  0  0  0  0  0  0
  141.1109   72.3375  227.0487 H   0  0  0  0  0  0  0  0  0  0  0  0
  144.6574   76.0285  220.5327 H   0  0  0  0  0  0  0  0  0  0  0  0
  146.4967   74.5827  221.3635 H   0  0  0  0  0  0  0  0  0  0  0  0
  146.3684   72.1020  221.1149 H   0  0  0  0  0  0  0  0  0  0  0  0
  144.3515   71.1139  220.0157 H   0  0  0  0  0  0  0  0  0  0  0  0
  142.5276   72.5379  219.1933 H   0  0  0  0  0  0  0  0  0  0  0  0
  1  2  1  0
  2  3  1  0
  3  4  1  0
  4  5  1  0
  5  6  1  0
  6  7  1  0
  7  8  2  0
  7  9  1  0
  9 10  1  0
 10 11  1  0
 11 12  2  0
 11 13  1  0
 13 14  2  0
 14 15  1  0
 15 16  2  0
 16 17  1  0
 17 18  2  0
 18 19  1  0
 19 20  2  0
 20 21  1  0
 21 22  2  0
  5 23  1  0
 23 24  2  0
 24 25  1  0
 25 26  2  0
 26 27  1  0
 27 28  2  0
 22 13  1  0
 28 23  1  0
 21 16  1  0
  1 29  1  0
  1 30  1  0
  1 31  1  0
  3 32  1  0
  3 33  1  0
  4 34  1  0
  4 35  1  0
  5 36  1  6
  6 37  1  0
  9 38  1  0
  9 39  1  0
 10 40  1  0
 14 41  1  0
 15 42  1  0
 17 43  1  0
 18 44  1  0
 19 45  1  0
 20 46  1  0
 24 47  1  0
 25 48  1  0
 26 49  1  0
 27 50  1  0
 28 51  1  0
M  END
>  <smiles>  (14) 
CSCC[C@H](NC(=O)CNC(=O)c1ccc2ccccc2n1)c1ccccc1

>  <score_type>  (14) 
oracle

>  <origin>  (14) 
autodockgpu

>  <m_score__min__energy>  (14) 
-8.6099999999999994

>  <m_primary>  (14) 
energy

>  <rmsd>  (14) 
6.416245522456251

>  <m_score__min__rmsd>  (14) 
6.416245522456251

>  <meeko>  (14) 
{"free_energy": -7.84, "intermolecular_energy": -10.23, "internal_energy": -1.83, "cluster_size": 5, "cluster_id": 3, "rank_in_cluster": 2}

>  <energy>  (14) 
-8.23

>  <cluster_rmsd>  (14) 
1.38

>  <cluster>  (14) 
2

$$$$

     RDKit          3D

 51 53  0  0  0  0  0  0  0  0999 V2000
  135.1760   72.6380  224.6340 C   0  0  0  0  0  0  0  0  0  0  0  0
  135.9020   73.3740  223.1590 S   0  0  0  0  0  0  0  0  0  0  0  0
  135.5210   75.1280  223.0650 C   0  0  0  0  0  0  0  0  0  0  0  0
  136.7030   76.0030  223.4590 C   0  0  0  0  0  0  0  0  0  0  0  0
  137.6300   76.0680  222.2710 C   0  0  2  0  0  0  0  0  0  0  0  0
  138.2070   74.7920  221.9290 N   0  0  0  0  0  0  0  0  0  0  0  0
  138.2380   74.2330  220.6420 C   0  0  0  0  0  0  0  0  0  0  0  0
  137.7180   74.8890  219.6770 O   0  0  0  0  0  0  0  0  0  0  0  0
  138.8480   72.9170  220.3540 C   0  0  0  0  0  0  0  0  0  0  0  0
  138.9370   72.1050  221.5380 N   0  0  0  0  0  0  0  0  0  0  0  0
  139.8270   72.3430  222.6090 C   0  0  0  0  0  0  0  0  0  0  0  0
  140.6070   73.3470  222.5250 O   0  0  0  0  0  0  0  0  0  0  0  0
  139.8480   71.4590  223.7790 C   0  0  0  0  0  0  0  0  0  0  0  0
  139.2930   70.2180  223.7220 C   0  0  0  0  0  0  0  0  0  0  0  0
  139.3010   69.3700  224.8130 C   0  0  0  0  0  0  0  0  0  0  0  0
  139.8970   69.8430  225.9620 C   0  0  0  0  0  0  0  0  0  0  0  0
  139.9590   69.0810  227.1020 C   0  0  0  0  0  0  0  0  0  0  0  0
  140.5440   69.5200  228.2600 C   0  0  0  0  0  0  0  0  0  0  0  0
  141.1150   70.7770  228.3440 C   0  0  0  0  0  0  0  0  0  0  0  0
  141.0540   71.5490  227.1930 C   0  0  0  0  0  0  0  0  0  0  0  0
  140.4670   71.1130  226.0270 C   0  0  0  0  0  0  0  0  0  0  0  0
  140.4150   71.8770  224.9130 N   0  0  0  0  0  0  0  0  0  0  0  0
  138.7350   77.0220  222.5730 C   0  0  0  0  0  0  0  0  0  0  0  0
  138.4820   78.3030  223.0650 C   0  0  0  0  0  0  0  0  0  0  0  0
  139.5300   79.1830  223.3400 C   0  0  0  0  0  0  0  0  0  0  0  0
  140.8460   78.8060  223.1310 C   0  0  0  0  0  0  0  0  0  0  0  0
  141.0850   77.5210  222.6380 C   0  0  0  0  0  0  0  0  0  0  0  0
  140.0560   76.6490  222.3660 C   0  0  0  0  0  0  0  0  0  0  0  0
  135.6246   73.0928  225.5295 H   0  0  0  0  0  0  0  0  0  0  0  0
  134.0906   72.8166  224.6366 H   0  0  0  0  0  0  0  0  0  0  0  0
  135.3694   71.5551  224.6366 H   0  0  0  0  0  0  0  0  0  0  0  0
  135.2308   75.3712  222.0322 H   0  0  0  0  0  0  0  0  0  0  0  0
  134.7040   75.3311  223.7730 H   0  0  0  0  0  0  0  0  0  0  0  0
  136.3533   77.0130  223.7190 H   0  0  0  0  0  0  0  0  0  0  0  0
  137.2215   75.5852  224.3346 H   0  0  0  0  0  0  0  0  0  0  0  0
  137.0283   76.3973  221.4110 H   0  0  0  0  0  0  0  0  0  0  0  0
  138.6380   74.2430  222.7230 H   0  0  0  0  0  0  0  0  0  0  0  0
  138.2324   72.3937  219.6075 H   0  0  0  0  0  0  0  0  0  0  0  0
  139.8666   73.0852  219.9744 H   0  0  0  0  0  0  0  0  0  0  0  0
  138.3000   71.2620  221.6390 H   0  0  0  0  0  0  0  0  0  0  0  0
  138.8265   69.8815  222.7844 H   0  0  0  0  0  0  0  0  0  0  0  0
  138.8534   68.3663  224.7666 H   0  0  0  0  0  0  0  0  0  0  0  0
  139.5193   68.0729  227.0848 H   0  0  0  0  0  0  0  0  0  0  0  0
  140.5601   68.8603  229.1401 H   0  0  0  0  0  0  0  0  0  0  0  0
  141.5886   71.1423  229.2672 H   0  0  0  0  0  0  0  0  0  0  0  0
  141.4953   72.5564  227.2132 H   0  0  0  0  0  0  0  0  0  0  0  0
  137.4440   78.6233  223.2383 H   0  0  0  0  0  0  0  0  0  0  0  0
  139.3078   80.1882  223.7275 H   0  0  0  0  0  0  0  0  0  0  0  0
  141.6756   79.4955  223.3461 H   0  0  0  0  0  0  0  0  0  0  0  0
  142.1219   77.1982  222.4629 H   0  0  0  0  0  0  0  0  0  0  0  0
  140.2828   75.6443  221.9799 H   0  0  0  0  0  0  0  0  0  0  0  0
  1  2  1  0
  2  3  1  0
  3  4  1  0
  4  5  1  0
  5  6  1  0
  6  7  1  0
  7  8  2  0
  7  9  1  0
  9 10  1  0
 10 11  1  0
 11 12  2  0
 11 13  1  0
 13 14  2  0
 14 15  1  0
 15 16  2  0
 16 17  1  0
 17 18  2  0
 18 19  1  0
 19 20  2  0
 20 21  1  0
 21 22  2  0
  5 23  1  0
 23 24  2  0
 24 25  1  0
 25 26  2  0
 26 27  1  0
 27 28  2  0
 22 13  1  0
 28 23  1  0
 21 16  1  0
  1 29  1  0
  1 30  1  0
  1 31  1  0
  3 32  1  0
  3 33  1  0
  4 34  1  0
  4 35  1  0
  5 36  1  6
  6 37  1  0
  9 38  1  0
  9 39  1  0
 10 40  1  0
 14 41  1  0
 15 42  1  0
 17 43  1  0
 18 44  1  0
 19 45  1  0
 20 46  1  0
 24 47  1  0
 25 48  1  0
 26 49  1  0
 27 50  1  0
 28 51  1  0
M  END
>  <smiles>  (15) 
CSCC[C@H](NC(=O)CNC(=O)c1ccc2ccccc2n1)c1ccccc1

>  <score_type>  (15) 
oracle

>  <origin>  (15) 
autodockgpu

>  <m_score__min__energy>  (15) 
-8.6099999999999994

>  <m_primary>  (15) 
energy

>  <rmsd>  (15) 
4.799061357286092

>  <m_score__min__rmsd>  (15) 
4.799061357286092

>  <meeko>  (15) 
{"free_energy": -7.42, "intermolecular_energy": -9.8, "internal_energy": -2.48, "cluster_size": 7, "cluster_id": 5, "rank_in_cluster": 3}

>  <energy>  (15) 
-8.14

>  <cluster_rmsd>  (15) 
1.46

>  <cluster>  (15) 
2

$$$$

     RDKit          3D

 51 53  0  0  0  0  0  0  0  0999 V2000
  142.9200   80.7850  223.8040 C   0  0  0  0  0  0  0  0  0  0  0  0
  141.1370   80.8800  223.5730 S   0  0  0  0  0  0  0  0  0  0  0  0
  140.4260   79.2400  223.3880 C   0  0  0  0  0  0  0  0  0  0  0  0
  141.4440   78.2150  222.9060 C   0  0  0  0  0  0  0  0  0  0  0  0
  140.9200   77.6350  221.6160 C   0  0  2  0  0  0  0  0  0  0  0  0
  141.2580   76.2450  221.4390 N   0  0  0  0  0  0  0  0  0  0  0  0
  140.3570   75.2270  221.0900 C   0  0  0  0  0  0  0  0  0  0  0  0
  139.1300   75.5310  220.9100 O   0  0  0  0  0  0  0  0  0  0  0  0
  140.7680   73.8170  220.9200 C   0  0  0  0  0  0  0  0  0  0  0  0
  140.6730   73.0860  222.1550 N   0  0  0  0  0  0  0  0  0  0  0  0
  140.0620   71.8190  222.2930 C   0  0  0  0  0  0  0  0  0  0  0  0
  139.5590   71.2830  221.2510 O   0  0  0  0  0  0  0  0  0  0  0  0
  140.0110   71.1460  223.5940 C   0  0  0  0  0  0  0  0  0  0  0  0
  139.4310   69.9210  223.7200 C   0  0  0  0  0  0  0  0  0  0  0  0
  139.3710   69.2690  224.9370 C   0  0  0  0  0  0  0  0  0  0  0  0
  139.9260   69.9210  226.0170 C   0  0  0  0  0  0  0  0  0  0  0  0
  139.9200   69.3620  227.2710 C   0  0  0  0  0  0  0  0  0  0  0  0
  140.4640   69.9800  228.3650 C   0  0  0  0  0  0  0  0  0  0  0  0
  141.0590   71.2250  228.2640 C   0  0  0  0  0  0  0  0  0  0  0  0
  141.0670   71.7920  226.9970 C   0  0  0  0  0  0  0  0  0  0  0  0
  140.5220   71.1740  225.8950 C   0  0  0  0  0  0  0  0  0  0  0  0
  140.5380   71.7400  224.6670 N   0  0  0  0  0  0  0  0  0  0  0  0
  141.4840   78.4100  220.4740 C   0  0  0  0  0  0  0  0  0  0  0  0
  141.4350   79.8040  220.4390 C   0  0  0  0  0  0  0  0  0  0  0  0
  141.9660   80.5110  219.3610 C   0  0  0  0  0  0  0  0  0  0  0  0
  142.5550   79.8470  218.2980 C   0  0  0  0  0  0  0  0  0  0  0  0
  142.5980   78.4520  218.3450 C   0  0  0  0  0  0  0  0  0  0  0  0
  142.0760   77.7490  219.4070 C   0  0  0  0  0  0  0  0  0  0  0  0
  143.1502   80.7727  224.8796 H   0  0  0  0  0  0  0  0  0  0  0  0
  143.3018   79.8652  223.3368 H   0  0  0  0  0  0  0  0  0  0  0  0
  143.3973   81.6590  223.3368 H   0  0  0  0  0  0  0  0  0  0  0  0
  140.0314   78.9145  224.3618 H   0  0  0  0  0  0  0  0  0  0  0  0
  139.6308   79.3035  222.6307 H   0  0  0  0  0  0  0  0  0  0  0  0
  142.4152   78.7016  222.7329 H   0  0  0  0  0  0  0  0  0  0  0  0
  141.5877   77.4253  223.6581 H   0  0  0  0  0  0  0  0  0  0  0  0
  139.8228   77.7036  221.6543 H   0  0  0  0  0  0  0  0  0  0  0  0
  142.2720   75.9860  221.5880 H   0  0  0  0  0  0  0  0  0  0  0  0
  140.1150   73.3423  220.1729 H   0  0  0  0  0  0  0  0  0  0  0  0
  141.8174   73.8015  220.5905 H   0  0  0  0  0  0  0  0  0  0  0  0
  141.0830   73.5040  223.0400 H   0  0  0  0  0  0  0  0  0  0  0  0
  138.9993   69.4380  222.8310 H   0  0  0  0  0  0  0  0  0  0  0  0
  138.9034   68.2785  225.0387 H   0  0  0  0  0  0  0  0  0  0  0  0
  139.4572   68.3728  227.4027 H   0  0  0  0  0  0  0  0  0  0  0  0
  140.4273   69.4772  229.3427 H   0  0  0  0  0  0  0  0  0  0  0  0
  141.4987   71.7342  229.1343 H   0  0  0  0  0  0  0  0  0  0  0  0
  141.5305   72.7812  226.8679 H   0  0  0  0  0  0  0  0  0  0  0  0
  140.9715   80.3522  221.2725 H   0  0  0  0  0  0  0  0  0  0  0  0
  141.9165   81.6099  219.3548 H   0  0  0  0  0  0  0  0  0  0  0  0
  142.9750   80.4001  217.4449 H   0  0  0  0  0  0  0  0  0  0  0  0
  143.0605   77.9013  217.5127 H   0  0  0  0  0  0  0  0  0  0  0  0
  142.1287   76.6503  219.4100 H   0  0  0  0  0  0  0  0  0  0  0  0
  1  2  1  0
  2  3  1  0
  3  4  1  0
  4  5  1  0
  5  6  1  0
  6  7  1  0
  7  8  2  0
  7  9  1  0
  9 10  1  0
 10 11  1  0
 11 12  2  0
 11 13  1  0
 13 14  2  0
 14 15  1  0
 15 16  2  0
 16 17  1  0
 17 18  2  0
 18 19  1  0
 19 20  2  0
 20 21  1  0
 21 22  2  0
  5 23  1  0
 23 24  2  0
 24 25  1  0
 25 26  2  0
 26 27  1  0
 27 28  2  0
 22 13  1  0
 28 23  1  0
 21 16  1  0
  1 29  1  0
  1 30  1  0
  1 31  1  0
  3 32  1  0
  3 33  1  0
  4 34  1  0
  4 35  1  0
  5 36  1  1
  6 37  1  0
  9 38  1  0
  9 39  1  0
 10 40  1  0
 14 41  1  0
 15 42  1  0
 17 43  1  0
 18 44  1  0
 19 45  1  0
 20 46  1  0
 24 47  1  0
 25 48  1  0
 26 49  1  0
 27 50  1  0
 28 51  1  0
M  END
>  <smiles>  (16) 
CSCC[C@H](NC(=O)CNC(=O)c1ccc2ccccc2n1)c1ccccc1

>  <score_type>  (16) 
oracle

>  <origin>  (16) 
autodockgpu

>  <m_score__min__energy>  (16) 
-8.6099999999999994

>  <m_primary>  (16) 
energy

>  <rmsd>  (16) 
3.9619756010700415

>  <m_score__min__rmsd>  (16) 
3.9619756010700415

>  <meeko>  (16) 
{"free_energy": -8.11, "intermolecular_energy": -10.5, "internal_energy": -1.51, "cluster_size": 15, "cluster_id": 2, "rank_in_cluster": 9}

>  <energy>  (16) 
-8.13

>  <cluster_rmsd>  (16) 
1.5

>  <cluster>  (16) 
2

$$$$

     RDKit          3D

 51 53  0  0  0  0  0  0  0  0999 V2000
  143.1190   74.6130  219.3380 C   0  0  0  0  0  0  0  0  0  0  0  0
  143.3200   76.3990  219.4640 S   0  0  0  0  0  0  0  0  0  0  0  0
  142.1020   77.2530  218.4560 C   0  0  0  0  0  0  0  0  0  0  0  0
  140.8470   77.6150  219.2400 C   0  0  0  0  0  0  0  0  0  0  0  0
  140.9250   76.9000  220.5660 C   0  0  2  0  0  0  0  0  0  0  0  0
  139.9140   75.8860  220.7270 N   0  0  0  0  0  0  0  0  0  0  0  0
  140.0630   74.6970  221.4570 C   0  0  0  0  0  0  0  0  0  0  0  0
  141.1790   74.4710  222.0360 O   0  0  0  0  0  0  0  0  0  0  0  0
  138.9840   73.6950  221.5860 C   0  0  0  0  0  0  0  0  0  0  0  0
  139.2360   72.7820  222.6690 N   0  0  0  0  0  0  0  0  0  0  0  0
  138.7700   71.4490  222.7190 C   0  0  0  0  0  0  0  0  0  0  0  0
  138.0770   71.0220  221.7380 O   0  0  0  0  0  0  0  0  0  0  0  0
  139.0760   70.5880  223.8650 C   0  0  0  0  0  0  0  0  0  0  0  0
  138.6630   69.2910  223.8890 C   0  0  0  0  0  0  0  0  0  0  0  0
  138.9390   68.4630  224.9600 C   0  0  0  0  0  0  0  0  0  0  0  0
  139.6510   69.0140  226.0030 C   0  0  0  0  0  0  0  0  0  0  0  0
  139.9790   68.2790  227.1150 C   0  0  0  0  0  0  0  0  0  0  0  0
  140.6850   68.7940  228.1680 C   0  0  0  0  0  0  0  0  0  0  0  0
  141.1160   70.1090  228.1680 C   0  0  0  0  0  0  0  0  0  0  0  0
  140.7870   70.8550  227.0460 C   0  0  0  0  0  0  0  0  0  0  0  0
  140.0770   70.3410  225.9850 C   0  0  0  0  0  0  0  0  0  0  0  0
  139.7640   71.0800  224.8980 N   0  0  0  0  0  0  0  0  0  0  0  0
  140.7730   77.9000  221.6620 C   0  0  0  0  0  0  0  0  0  0  0  0
  139.5570   78.0840  222.3220 C   0  0  0  0  0  0  0  0  0  0  0  0
  139.4340   79.0260  223.3440 C   0  0  0  0  0  0  0  0  0  0  0  0
  140.5160   79.8020  223.7270 C   0  0  0  0  0  0  0  0  0  0  0  0
  141.7260   79.6080  223.0580 C   0  0  0  0  0  0  0  0  0  0  0  0
  141.8530   78.6800  222.0500 C   0  0  0  0  0  0  0  0  0  0  0  0
  143.0700   74.1775  220.3469 H   0  0  0  0  0  0  0  0  0  0  0  0
  142.1896   74.3860  218.7951 H   0  0  0  0  0  0  0  0  0  0  0  0
  143.9747   74.1851  218.7951 H   0  0  0  0  0  0  0  0  0  0  0  0
  142.5528   78.1772  218.0653 H   0  0  0  0  0  0  0  0  0  0  0  0
  141.8045   76.5736  217.6437 H   0  0  0  0  0  0  0  0  0  0  0  0
  140.8039   78.7024  219.4006 H   0  0  0  0  0  0  0  0  0  0  0  0
  139.9434   77.3158  218.6887 H   0  0  0  0  0  0  0  0  0  0  0  0
  141.9022   76.3964  220.6030 H   0  0  0  0  0  0  0  0  0  0  0  0
  138.9880   76.0670  220.2490 H   0  0  0  0  0  0  0  0  0  0  0  0
  138.0333   74.2161  221.7722 H   0  0  0  0  0  0  0  0  0  0  0  0
  138.9382   73.1163  220.6516 H   0  0  0  0  0  0  0  0  0  0  0  0
  139.8100   73.1070  223.5000 H   0  0  0  0  0  0  0  0  0  0  0  0
  138.0957   68.8926  223.0349 H   0  0  0  0  0  0  0  0  0  0  0  0
  138.6064   67.4147  224.9791 H   0  0  0  0  0  0  0  0  0  0  0  0
  139.6596   67.2274  227.1618 H   0  0  0  0  0  0  0  0  0  0  0  0
  140.9142   68.1508  229.0304 H   0  0  0  0  0  0  0  0  0  0  0  0
  141.6849   70.5366  229.0068 H   0  0  0  0  0  0  0  0  0  0  0  0
  141.1084   71.9061  227.0022 H   0  0  0  0  0  0  0  0  0  0  0  0
  138.6850   77.4790  222.0330 H   0  0  0  0  0  0  0  0  0  0  0  0
  138.4666   79.1540  223.8516 H   0  0  0  0  0  0  0  0  0  0  0  0
  140.4247   80.5464  224.5317 H   0  0  0  0  0  0  0  0  0  0  0  0
  142.5997   80.2121  223.3439 H   0  0  0  0  0  0  0  0  0  0  0  0
  142.8225   78.5550  221.5456 H   0  0  0  0  0  0  0  0  0  0  0  0
  1  2  1  0
  2  3  1  0
  3  4  1  0
  4  5  1  0
  5  6  1  0
  6  7  1  0
  7  8  2  0
  7  9  1  0
  9 10  1  0
 10 11  1  0
 11 12  2  0
 11 13  1  0
 13 14  2  0
 14 15  1  0
 15 16  2  0
 16 17  1  0
 17 18  2  0
 18 19  1  0
 19 20  2  0
 20 21  1  0
 21 22  2  0
  5 23  1  0
 23 24  2  0
 24 25  1  0
 25 26  2  0
 26 27  1  0
 27 28  2  0
 22 13  1  0
 28 23  1  0
 21 16  1  0
  1 29  1  0
  1 30  1  0
  1 31  1  0
  3 32  1  0
  3 33  1  0
  4 34  1  0
  4 35  1  0
  5 36  1  1
  6 37  1  0
  9 38  1  0
  9 39  1  0
 10 40  1  0
 14 41  1  0
 15 42  1  0
 17 43  1  0
 18 44  1  0
 19 45  1  0
 20 46  1  0
 24 47  1  0
 25 48  1  0
 26 49  1  0
 27 50  1  0
 28 51  1  0
M  END
>  <smiles>  (17) 
CSCC[C@H](NC(=O)CNC(=O)c1ccc2ccccc2n1)c1ccccc1

>  <score_type>  (17) 
oracle

>  <origin>  (17) 
autodockgpu

>  <m_score__min__energy>  (17) 
-8.6099999999999994

>  <m_primary>  (17) 
energy

>  <rmsd>  (17) 
4.297658866059617

>  <m_score__min__rmsd>  (17) 
4.297658866059617

>  <meeko>  (17) 
{"free_energy": -7.58, "intermolecular_energy": -9.97, "internal_energy": -2.04, "cluster_size": 8, "cluster_id": 1, "rank_in_cluster": 7}

>  <energy>  (17) 
-8.11

>  <cluster_rmsd>  (17) 
0.91

>  <cluster>  (17) 
2

$$$$

     RDKit          3D

 51 53  0  0  0  0  0  0  0  0999 V2000
  138.4350   80.4580  224.2250 C   0  0  0  0  0  0  0  0  0  0  0  0
  138.2080   80.1720  222.4610 S   0  0  0  0  0  0  0  0  0  0  0  0
  137.8760   78.4370  222.1310 C   0  0  0  0  0  0  0  0  0  0  0  0
  138.9400   77.5180  222.7160 C   0  0  0  0  0  0  0  0  0  0  0  0
  140.1370   77.5760  221.8010 C   0  0  2  0  0  0  0  0  0  0  0  0
  140.8320   76.3180  221.6910 N   0  0  0  0  0  0  0  0  0  0  0  0
  140.3060   75.1450  221.1280 C   0  0  0  0  0  0  0  0  0  0  0  0
  139.1150   75.1680  220.6690 O   0  0  0  0  0  0  0  0  0  0  0  0
  141.0720   73.8840  221.0440 C   0  0  0  0  0  0  0  0  0  0  0  0
  140.9370   73.1010  222.2420 N   0  0  0  0  0  0  0  0  0  0  0  0
  140.1510   71.9310  222.3510 C   0  0  0  0  0  0  0  0  0  0  0  0
  139.5160   71.5400  221.3180 O   0  0  0  0  0  0  0  0  0  0  0  0
  140.0710   71.1940  223.6160 C   0  0  0  0  0  0  0  0  0  0  0  0
  139.4620   69.9780  223.6740 C   0  0  0  0  0  0  0  0  0  0  0  0
  139.3740   69.2680  224.8560 C   0  0  0  0  0  0  0  0  0  0  0  0
  139.9330   69.8500  225.9730 C   0  0  0  0  0  0  0  0  0  0  0  0
  139.9010   69.2290  227.1970 C   0  0  0  0  0  0  0  0  0  0  0  0
  140.4470   69.7790  228.3260 C   0  0  0  0  0  0  0  0  0  0  0  0
  141.0710   71.0130  228.2940 C   0  0  0  0  0  0  0  0  0  0  0  0
  141.1050   71.6430  227.0580 C   0  0  0  0  0  0  0  0  0  0  0  0
  140.5580   71.0940  225.9200 C   0  0  0  0  0  0  0  0  0  0  0  0
  140.5990   71.7210  224.7230 N   0  0  0  0  0  0  0  0  0  0  0  0
  141.0890   78.6020  222.3160 C   0  0  0  0  0  0  0  0  0  0  0  0
  141.4080   78.6890  223.6720 C   0  0  0  0  0  0  0  0  0  0  0  0
  142.3000   79.6570  224.1350 C   0  0  0  0  0  0  0  0  0  0  0  0
  142.8900   80.5540  223.2610 C   0  0  0  0  0  0  0  0  0  0  0  0
  142.5630   80.4550  221.9070 C   0  0  0  0  0  0  0  0  0  0  0  0
  141.6840   79.5030  221.4440 C   0  0  0  0  0  0  0  0  0  0  0  0
  137.8498   79.7208  224.7943 H   0  0  0  0  0  0  0  0  0  0  0  0
  139.5004   80.3556  224.4790 H   0  0  0  0  0  0  0  0  0  0  0  0
  138.0934   81.4723  224.4790 H   0  0  0  0  0  0  0  0  0  0  0  0
  136.9025   78.1743  222.5707 H   0  0  0  0  0  0  0  0  0  0  0  0
  137.8777   78.2981  221.0398 H   0  0  0  0  0  0  0  0  0  0  0  0
  139.2197   77.8598  223.7234 H   0  0  0  0  0  0  0  0  0  0  0  0
  138.5623   76.4881  222.7973 H   0  0  0  0  0  0  0  0  0  0  0  0
  139.7631   77.8315  220.7985 H   0  0  0  0  0  0  0  0  0  0  0  0
  141.8180   76.2920  222.0710 H   0  0  0  0  0  0  0  0  0  0  0  0
  140.7011   73.2974  220.1906 H   0  0  0  0  0  0  0  0  0  0  0  0
  142.1352   74.1356  220.9159 H   0  0  0  0  0  0  0  0  0  0  0  0
  141.4530   73.3990  223.1200 H   0  0  0  0  0  0  0  0  0  0  0  0
  139.0294   69.5502  222.7575 H   0  0  0  0  0  0  0  0  0  0  0  0
  138.8815   68.2856  224.9031 H   0  0  0  0  0  0  0  0  0  0  0  0
  139.4149   68.2453  227.2743 H   0  0  0  0  0  0  0  0  0  0  0  0
  140.3882   69.2288  229.2767 H   0  0  0  0  0  0  0  0  0  0  0  0
  141.5131   71.4671  229.1931 H   0  0  0  0  0  0  0  0  0  0  0  0
  141.5916   72.6267  226.9840 H   0  0  0  0  0  0  0  0  0  0  0  0
  140.9508   77.9862  224.3841 H   0  0  0  0  0  0  0  0  0  0  0  0
  142.5374   79.7080  225.2079 H   0  0  0  0  0  0  0  0  0  0  0  0
  143.5931   81.3194  223.6212 H   0  0  0  0  0  0  0  0  0  0  0  0
  143.0196   81.1557  221.1925 H   0  0  0  0  0  0  0  0  0  0  0  0
  141.4502   79.4555  220.3702 H   0  0  0  0  0  0  0  0  0  0  0  0
  1  2  1  0
  2  3  1  0
  3  4  1  0
  4  5  1  0
  5  6  1  0
  6  7  1  0
  7  8  2  0
  7  9  1  0
  9 10  1  0
 10 11  1  0
 11 12  2  0
 11 13  1  0
 13 14  2  0
 14 15  1  0
 15 16  2  0
 16 17  1  0
 17 18  2  0
 18 19  1  0
 19 20  2  0
 20 21  1  0
 21 22  2  0
  5 23  1  0
 23 24  2  0
 24 25  1  0
 25 26  2  0
 26 27  1  0
 27 28  2  0
 22 13  1  0
 28 23  1  0
 21 16  1  0
  1 29  1  0
  1 30  1  0
  1 31  1  0
  3 32  1  0
  3 33  1  0
  4 34  1  0
  4 35  1  0
  5 36  1  6
  6 37  1  0
  9 38  1  0
  9 39  1  0
 10 40  1  0
 14 41  1  0
 15 42  1  0
 17 43  1  0
 18 44  1  0
 19 45  1  0
 20 46  1  0
 24 47  1  0
 25 48  1  0
 26 49  1  0
 27 50  1  0
 28 51  1  0
M  END
>  <smiles>  (18) 
CSCC[C@H](NC(=O)CNC(=O)c1ccc2ccccc2n1)c1ccccc1

>  <score_type>  (18) 
oracle

>  <origin>  (18) 
autodockgpu

>  <m_score__min__energy>  (18) 
-8.6099999999999994

>  <m_primary>  (18) 
energy

>  <rmsd>  (18) 
4.017251891587341

>  <m_score__min__rmsd>  (18) 
4.017251891587341

>  <meeko>  (18) 
{"free_energy": -8.13, "intermolecular_energy": -10.52, "internal_energy": -1.67, "cluster_size": 15, "cluster_id": 2, "rank_in_cluster": 8}

>  <energy>  (18) 
-8.1

>  <cluster_rmsd>  (18) 
1.47

>  <cluster>  (18) 
2

$$$$

     RDKit          3D

 51 53  0  0  0  0  0  0  0  0999 V2000
  135.5650   73.6860  223.6080 C   0  0  0  0  0  0  0  0  0  0  0  0
  136.7080   73.1740  222.3140 S   0  0  0  0  0  0  0  0  0  0  0  0
  136.7940   71.3820  222.2070 C   0  0  0  0  0  0  0  0  0  0  0  0
  138.1710   70.8420  222.5640 C   0  0  0  0  0  0  0  0  0  0  0  0
  138.8470   71.8740  223.4330 C   0  0  2  0  0  0  0  0  0  0  0  0
  139.7100   72.7620  222.6960 N   0  0  0  0  0  0  0  0  0  0  0  0
  140.7070   72.3630  221.7930 C   0  0  0  0  0  0  0  0  0  0  0  0
  140.8850   71.1150  221.5900 O   0  0  0  0  0  0  0  0  0  0  0  0
  141.5600   73.3260  221.0650 C   0  0  0  0  0  0  0  0  0  0  0  0
  141.4210   74.6580  221.5870 N   0  0  0  0  0  0  0  0  0  0  0  0
  140.2240   75.4100  221.5590 C   0  0  0  0  0  0  0  0  0  0  0  0
  139.1950   74.8730  221.0330 O   0  0  0  0  0  0  0  0  0  0  0  0
  140.1730   76.7640  222.1170 C   0  0  0  0  0  0  0  0  0  0  0  0
  138.9830   77.3320  222.4540 C   0  0  0  0  0  0  0  0  0  0  0  0
  138.9130   78.6080  222.9800 C   0  0  0  0  0  0  0  0  0  0  0  0
  140.1060   79.2780  223.1450 C   0  0  0  0  0  0  0  0  0  0  0  0
  140.1480   80.5500  223.6600 C   0  0  0  0  0  0  0  0  0  0  0  0
  141.3150   81.2430  223.8380 C   0  0  0  0  0  0  0  0  0  0  0  0
  142.5370   80.6890  223.5040 C   0  0  0  0  0  0  0  0  0  0  0  0
  142.4980   79.4030  222.9830 C   0  0  0  0  0  0  0  0  0  0  0  0
  141.3270   78.7020  222.8030 C   0  0  0  0  0  0  0  0  0  0  0  0
  141.3050   77.4500  222.2950 N   0  0  0  0  0  0  0  0  0  0  0  0
  139.6590   71.1740  224.4700 C   0  0  0  0  0  0  0  0  0  0  0  0
  140.6830   71.8240  225.1600 C   0  0  0  0  0  0  0  0  0  0  0  0
  141.4330   71.1510  226.1250 C   0  0  0  0  0  0  0  0  0  0  0  0
  141.1800   69.8220  226.4210 C   0  0  0  0  0  0  0  0  0  0  0  0
  140.1520   69.1840  225.7230 C   0  0  0  0  0  0  0  0  0  0  0  0
  139.4090   69.8420  224.7710 C   0  0  0  0  0  0  0  0  0  0  0  0
  136.0124   73.4856  224.5927 H   0  0  0  0  0  0  0  0  0  0  0  0
  135.3594   74.7622  223.5108 H   0  0  0  0  0  0  0  0  0  0  0  0
  134.6251   73.1229  223.5108 H   0  0  0  0  0  0  0  0  0  0  0  0
  136.0559   70.9515  222.8997 H   0  0  0  0  0  0  0  0  0  0  0  0
  136.5841   71.0991  221.1649 H   0  0  0  0  0  0  0  0  0  0  0  0
  138.0727   69.8939  223.1130 H   0  0  0  0  0  0  0  0  0  0  0  0
  138.7615   70.6509  221.6558 H   0  0  0  0  0  0  0  0  0  0  0  0
  138.0520   72.4880  223.8813 H   0  0  0  0  0  0  0  0  0  0  0  0
  139.5690   73.7960  222.8610 H   0  0  0  0  0  0  0  0  0  0  0  0
  142.6106   73.0139  221.1589 H   0  0  0  0  0  0  0  0  0  0  0  0
  141.2449   73.3355  220.0111 H   0  0  0  0  0  0  0  0  0  0  0  0
  142.2590   75.1330  222.0320 H   0  0  0  0  0  0  0  0  0  0  0  0
  138.0545   76.7616  222.3040 H   0  0  0  0  0  0  0  0  0  0  0  0
  137.9515   79.0668  223.2538 H   0  0  0  0  0  0  0  0  0  0  0  0
  139.2014   81.0340  223.9423 H   0  0  0  0  0  0  0  0  0  0  0  0
  141.2799   82.2604  224.2548 H   0  0  0  0  0  0  0  0  0  0  0  0
  143.4823   81.2341  223.6427 H   0  0  0  0  0  0  0  0  0  0  0  0
  143.4462   78.9220  222.7011 H   0  0  0  0  0  0  0  0  0  0  0  0
  140.9015   72.8795  224.9405 H   0  0  0  0  0  0  0  0  0  0  0  0
  142.2354   71.6827  226.6574 H   0  0  0  0  0  0  0  0  0  0  0  0
  141.7689   69.2867  227.1804 H   0  0  0  0  0  0  0  0  0  0  0  0
  139.9311   68.1285  225.9403 H   0  0  0  0  0  0  0  0  0  0  0  0
  138.6071   69.3065  224.2417 H   0  0  0  0  0  0  0  0  0  0  0  0
  1  2  1  0
  2  3  1  0
  3  4  1  0
  4  5  1  0
  5  6  1  0
  6  7  1  0
  7  8  2  0
  7  9  1  0
  9 10  1  0
 10 11  1  0
 11 12  2  0
 11 13  1  0
 13 14  2  0
 14 15  1  0
 15 16  2  0
 16 17  1  0
 17 18  2  0
 18 19  1  0
 19 20  2  0
 20 21  1  0
 21 22  2  0
  5 23  1  0
 23 24  2  0
 24 25  1  0
 25 26  2  0
 26 27  1  0
 27 28  2  0
 22 13  1  0
 28 23  1  0
 21 16  1  0
  1 29  1  0
  1 30  1  0
  1 31  1  0
  3 32  1  0
  3 33  1  0
  4 34  1  0
  4 35  1  0
  5 36  1  1
  6 37  1  0
  9 38  1  0
  9 39  1  0
 10 40  1  0
 14 41  1  0
 15 42  1  0
 17 43  1  0
 18 44  1  0
 19 45  1  0
 20 46  1  0
 24 47  1  0
 25 48  1  0
 26 49  1  0
 27 50  1  0
 28 51  1  0
M  END
>  <smiles>  (19) 
CSCC[C@H](NC(=O)CNC(=O)c1ccc2ccccc2n1)c1ccccc1

>  <score_type>  (19) 
oracle

>  <origin>  (19) 
autodockgpu

>  <m_score__min__energy>  (19) 
-8.6099999999999994

>  <m_primary>  (19) 
energy

>  <rmsd>  (19) 
9.763470037120278

>  <m_score__min__rmsd>  (19) 
9.763470037120278

>  <meeko>  (19) 
{"free_energy": -7.06, "intermolecular_energy": -9.44, "internal_energy": -2.51, "cluster_size": 9, "cluster_id": 4, "rank_in_cluster": 8}

>  <energy>  (19) 
-8.1

>  <cluster_rmsd>  (19) 
0.91

>  <cluster>  (19) 
2

$$$$

     RDKit          3D

 51 53  0  0  0  0  0  0  0  0999 V2000
  136.2090   73.3800  222.7200 C   0  0  0  0  0  0  0  0  0  0  0  0
  136.1610   71.8130  223.6070 S   0  0  0  0  0  0  0  0  0  0  0  0
  136.8970   70.4990  222.6260 C   0  0  0  0  0  0  0  0  0  0  0  0
  138.3820   70.3200  222.9140 C   0  0  0  0  0  0  0  0  0  0  0  0
  138.8420   71.5390  223.6750 C   0  0  2  0  0  0  0  0  0  0  0  0
  139.6650   72.4240  222.8890 N   0  0  0  0  0  0  0  0  0  0  0  0
  140.5780   72.0230  221.9020 C   0  0  0  0  0  0  0  0  0  0  0  0
  140.7120   70.7750  221.6620 O   0  0  0  0  0  0  0  0  0  0  0  0
  141.3930   72.9820  221.1270 C   0  0  0  0  0  0  0  0  0  0  0  0
  141.2340   74.3260  221.6130 N   0  0  0  0  0  0  0  0  0  0  0  0
  140.0060   75.0250  221.6530 C   0  0  0  0  0  0  0  0  0  0  0  0
  138.9640   74.4250  221.2300 O   0  0  0  0  0  0  0  0  0  0  0  0
  139.9380   76.3960  222.1670 C   0  0  0  0  0  0  0  0  0  0  0  0
  138.7360   76.9900  222.4030 C   0  0  0  0  0  0  0  0  0  0  0  0
  138.6480   78.2820  222.8860 C   0  0  0  0  0  0  0  0  0  0  0  0
  139.8370   78.9400  223.1150 C   0  0  0  0  0  0  0  0  0  0  0  0
  139.8630   80.2260  223.5940 C   0  0  0  0  0  0  0  0  0  0  0  0
  141.0250   80.9080  223.8340 C   0  0  0  0  0  0  0  0  0  0  0  0
  142.2590   80.3280  223.6030 C   0  0  0  0  0  0  0  0  0  0  0  0
  142.2360   79.0280  223.1180 C   0  0  0  0  0  0  0  0  0  0  0  0
  141.0700   78.3380  222.8760 C   0  0  0  0  0  0  0  0  0  0  0  0
  141.0640   77.0710  222.4040 N   0  0  0  0  0  0  0  0  0  0  0  0
  139.6240   71.0970  224.8650 C   0  0  0  0  0  0  0  0  0  0  0  0
  140.6830   71.8530  225.3670 C   0  0  0  0  0  0  0  0  0  0  0  0
  141.4040   71.4220  226.4820 C   0  0  0  0  0  0  0  0  0  0  0  0
  141.0850   70.2330  227.1160 C   0  0  0  0  0  0  0  0  0  0  0  0
  140.0220   69.4860  226.6030 C   0  0  0  0  0  0  0  0  0  0  0  0
  139.3070   69.9060  225.5050 C   0  0  0  0  0  0  0  0  0  0  0  0
  136.2344   74.2094  223.4421 H   0  0  0  0  0  0  0  0  0  0  0  0
  137.1087   73.4162  222.0881 H   0  0  0  0  0  0  0  0  0  0  0  0
  135.3132   73.4713  222.0881 H   0  0  0  0  0  0  0  0  0  0  0  0
  136.3774   69.5562  222.8521 H   0  0  0  0  0  0  0  0  0  0  0  0
  136.7921   70.7735  221.5660 H   0  0  0  0  0  0  0  0  0  0  0  0
  138.5416   69.4158  223.5197 H   0  0  0  0  0  0  0  0  0  0  0  0
  138.9493   70.2083  221.9782 H   0  0  0  0  0  0  0  0  0  0  0  0
  137.9397   72.0988  223.9620 H   0  0  0  0  0  0  0  0  0  0  0  0
  139.5600   73.4570  223.0830 H   0  0  0  0  0  0  0  0  0  0  0  0
  142.4523   72.6965  221.2070 H   0  0  0  0  0  0  0  0  0  0  0  0
  141.0561   72.9526  220.0803 H   0  0  0  0  0  0  0  0  0  0  0  0
  142.0820   74.8530  221.9730 H   0  0  0  0  0  0  0  0  0  0  0  0
  137.8117   76.4276  222.2043 H   0  0  0  0  0  0  0  0  0  0  0  0
  137.6768   78.7614  223.0781 H   0  0  0  0  0  0  0  0  0  0  0  0
  138.9066   80.7313  223.7940 H   0  0  0  0  0  0  0  0  0  0  0  0
  140.9765   81.9376  224.2181 H   0  0  0  0  0  0  0  0  0  0  0  0
  143.2007   80.8641  223.7920 H   0  0  0  0  0  0  0  0  0  0  0  0
  143.1939   78.5258  222.9177 H   0  0  0  0  0  0  0  0  0  0  0  0
  140.9535   72.8006  224.8783 H   0  0  0  0  0  0  0  0  0  0  0  0
  142.2354   72.0342  226.8614 H   0  0  0  0  0  0  0  0  0  0  0  0
  141.6500   69.8881  227.9945 H   0  0  0  0  0  0  0  0  0  0  0  0
  139.7495   68.5377  227.0893 H   0  0  0  0  0  0  0  0  0  0  0  0
  138.4752   69.2916  225.1300 H   0  0  0  0  0  0  0  0  0  0  0  0
  1  2  1  0
  2  3  1  0
  3  4  1  0
  4  5  1  0
  5  6  1  0
  6  7  1  0
  7  8  2  0
  7  9  1  0
  9 10  1  0
 10 11  1  0
 11 12  2  0
 11 13  1  0
 13 14  2  0
 14 15  1  0
 15 16  2  0
 16 17  1  0
 17 18  2  0
 18 19  1  0
 19 20  2  0
 20 21  1  0
 21 22  2  0
  5 23  1  0
 23 24  2  0
 24 25  1  0
 25 26  2  0
 26 27  1  0
 27 28  2  0
 22 13  1  0
 28 23  1  0
 21 16  1  0
  1 29  1  0
  1 30  1  0
  1 31  1  0
  3 32  1  0
  3 33  1  0
  4 34  1  0
  4 35  1  0
  5 36  1  1
  6 37  1  0
  9 38  1  0
  9 39  1  0
 10 40  1  0
 14 41  1  0
 15 42  1  0
 17 43  1  0
 18 44  1  0
 19 45  1  0
 20 46  1  0
 24 47  1  0
 25 48  1  0
 26 49  1  0
 27 50  1  0
 28 51  1  0
M  END
>  <smiles>  (20) 
CSCC[C@H](NC(=O)CNC(=O)c1ccc2ccccc2n1)c1ccccc1

>  <score_type>  (20) 
oracle

>  <origin>  (20) 
autodockgpu

>  <m_score__min__energy>  (20) 
-8.6099999999999994

>  <m_primary>  (20) 
energy

>  <rmsd>  (20) 
9.742059505409044

>  <m_score__min__rmsd>  (20) 
9.742059505409044

>  <meeko>  (20) 
{"free_energy": -7.28, "intermolecular_energy": -9.67, "internal_energy": -2.38, "cluster_size": 9, "cluster_id": 4, "rank_in_cluster": 3}

>  <energy>  (20) 
-8.09

>  <cluster_rmsd>  (20) 
1.44

>  <cluster>  (20) 
2

$$$$

     RDKit          3D

 51 53  0  0  0  0  0  0  0  0999 V2000
  134.4290   75.8420  225.6700 C   0  0  0  0  0  0  0  0  0  0  0  0
  135.0120   74.3600  224.8290 S   0  0  0  0  0  0  0  0  0  0  0  0
  135.8700   74.7820  223.3080 C   0  0  0  0  0  0  0  0  0  0  0  0
  136.6040   76.1120  223.4020 C   0  0  0  0  0  0  0  0  0  0  0  0
  137.5540   76.1850  222.2330 C   0  0  2  0  0  0  0  0  0  0  0  0
  138.1280   74.9090  221.8850 N   0  0  0  0  0  0  0  0  0  0  0  0
  137.7820   74.1410  220.7630 C   0  0  0  0  0  0  0  0  0  0  0  0
  136.8850   74.5860  219.9690 O   0  0  0  0  0  0  0  0  0  0  0  0
  138.4100   72.8380  220.4590 C   0  0  0  0  0  0  0  0  0  0  0  0
  138.6060   72.0540  221.6490 N   0  0  0  0  0  0  0  0  0  0  0  0
  139.6630   72.2410  222.5680 C   0  0  0  0  0  0  0  0  0  0  0  0
  140.5040   73.1680  222.3280 O   0  0  0  0  0  0  0  0  0  0  0  0
  139.7840   71.3920  223.7570 C   0  0  0  0  0  0  0  0  0  0  0  0
  139.3290   70.1100  223.7440 C   0  0  0  0  0  0  0  0  0  0  0  0
  139.4320   69.2930  224.8540 C   0  0  0  0  0  0  0  0  0  0  0  0
  140.0170   69.8410  225.9750 C   0  0  0  0  0  0  0  0  0  0  0  0
  140.1690   69.1170  227.1310 C   0  0  0  0  0  0  0  0  0  0  0  0
  140.7460   69.6290  228.2610 C   0  0  0  0  0  0  0  0  0  0  0  0
  141.2170   70.9290  228.3000 C   0  0  0  0  0  0  0  0  0  0  0  0
  141.0650   71.6640  227.1330 C   0  0  0  0  0  0  0  0  0  0  0  0
  140.4860   71.1530  225.9950 C   0  0  0  0  0  0  0  0  0  0  0  0
  140.3450   71.8820  224.8650 N   0  0  0  0  0  0  0  0  0  0  0  0
  138.6600   77.1270  222.5680 C   0  0  0  0  0  0  0  0  0  0  0  0
  140.0000   76.7680  222.4160 C   0  0  0  0  0  0  0  0  0  0  0  0
  141.0210   77.6640  222.7360 C   0  0  0  0  0  0  0  0  0  0  0  0
  140.7290   78.9300  223.2140 C   0  0  0  0  0  0  0  0  0  0  0  0
  139.3840   79.2770  223.3610 C   0  0  0  0  0  0  0  0  0  0  0  0
  138.3730   78.3980  223.0460 C   0  0  0  0  0  0  0  0  0  0  0  0
  134.4876   75.6931  226.7583 H   0  0  0  0  0  0  0  0  0  0  0  0
  135.0575   76.6979  225.3827 H   0  0  0  0  0  0  0  0  0  0  0  0
  133.3859   76.0403  225.3827 H   0  0  0  0  0  0  0  0  0  0  0  0
  136.6008   73.9909  223.0842 H   0  0  0  0  0  0  0  0  0  0  0  0
  135.1153   74.8725  222.5129 H   0  0  0  0  0  0  0  0  0  0  0  0
  135.8847   76.9428  223.3546 H   0  0  0  0  0  0  0  0  0  0  0  0
  137.1513   76.1878  224.3532 H   0  0  0  0  0  0  0  0  0  0  0  0
  136.9711   76.5297  221.3662 H   0  0  0  0  0  0  0  0  0  0  0  0
  138.8690   74.5340  222.5380 H   0  0  0  0  0  0  0  0  0  0  0  0
  137.7603   72.2812  219.7677 H   0  0  0  0  0  0  0  0  0  0  0  0
  139.3943   73.0279  220.0062 H   0  0  0  0  0  0  0  0  0  0  0  0
  137.9220   71.2750  221.8760 H   0  0  0  0  0  0  0  0  0  0  0  0
  138.8677   69.7138  222.8274 H   0  0  0  0  0  0  0  0  0  0  0  0
  139.0650   68.2561  224.8432 H   0  0  0  0  0  0  0  0  0  0  0  0
  139.8105   68.0772  227.1499 H   0  0  0  0  0  0  0  0  0  0  0  0
  140.8371   68.9949  229.1552 H   0  0  0  0  0  0  0  0  0  0  0  0
  141.6834   71.3541  229.2010 H   0  0  0  0  0  0  0  0  0  0  0  0
  141.4243   72.7036  227.1173 H   0  0  0  0  0  0  0  0  0  0  0  0
  140.2546   75.7664  222.0393 H   0  0  0  0  0  0  0  0  0  0  0  0
  142.0704   77.3606  222.6068 H   0  0  0  0  0  0  0  0  0  0  0  0
  141.5299   79.6394  223.4697 H   0  0  0  0  0  0  0  0  0  0  0  0
  139.1265   80.2778  223.7379 H   0  0  0  0  0  0  0  0  0  0  0  0
  137.3250   78.7064  223.1746 H   0  0  0  0  0  0  0  0  0  0  0  0
  1  2  1  0
  2  3  1  0
  3  4  1  0
  4  5  1  0
  5  6  1  0
  6  7  1  0
  7  8  2  0
  7  9  1  0
  9 10  1  0
 10 11  1  0
 11 12  2  0
 11 13  1  0
 13 14  2  0
 14 15  1  0
 15 16  2  0
 16 17  1  0
 17 18  2  0
 18 19  1  0
 19 20  2  0
 20 21  1  0
 21 22  2  0
  5 23  1  0
 23 24  2  0
 24 25  1  0
 25 26  2  0
 26 27  1  0
 27 28  2  0
 22 13  1  0
 28 23  1  0
 21 16  1  0
  1 29  1  0
  1 30  1  0
  1 31  1  0
  3 32  1  0
  3 33  1  0
  4 34  1  0
  4 35  1  0
  5 36  1  6
  6 37  1  0
  9 38  1  0
  9 39  1  0
 10 40  1  0
 14 41  1  0
 15 42  1  0
 17 43  1  0
 18 44  1  0
 19 45  1  0
 20 46  1  0
 24 47  1  0
 25 48  1  0
 26 49  1  0
 27 50  1  0
 28 51  1  0
M  END
>  <smiles>  (21) 
CSCC[C@H](NC(=O)CNC(=O)c1ccc2ccccc2n1)c1ccccc1

>  <score_type>  (21) 
oracle

>  <origin>  (21) 
autodockgpu

>  <m_score__min__energy>  (21) 
-8.6099999999999994

>  <m_primary>  (21) 
energy

>  <rmsd>  (21) 
4.938353912725838

>  <m_score__min__rmsd>  (21) 
4.938353912725838

>  <meeko>  (21) 
{"free_energy": -7.55, "intermolecular_energy": -9.94, "internal_energy": -2.16, "cluster_size": 7, "cluster_id": 5, "rank_in_cluster": 1}

>  <energy>  (21) 
-8.08

>  <cluster_rmsd>  (21) 
1.5

>  <cluster>  (21) 
2

$$$$

     RDKit          3D

 51 53  0  0  0  0  0  0  0  0999 V2000
  142.7710   80.8800  223.8410 C   0  0  0  0  0  0  0  0  0  0  0  0
  140.9960   80.8300  223.5390 S   0  0  0  0  0  0  0  0  0  0  0  0
  140.4100   79.1340  223.4430 C   0  0  0  0  0  0  0  0  0  0  0  0
  141.4670   78.1820  222.9020 C   0  0  0  0  0  0  0  0  0  0  0  0
  140.9400   77.6150  221.6070 C   0  0  2  0  0  0  0  0  0  0  0  0
  141.2750   76.2260  221.4160 N   0  0  0  0  0  0  0  0  0  0  0  0
  140.3600   75.1990  221.1370 C   0  0  0  0  0  0  0  0  0  0  0  0
  139.1210   75.4940  221.0410 O   0  0  0  0  0  0  0  0  0  0  0  0
  140.7690   73.7910  220.9480 C   0  0  0  0  0  0  0  0  0  0  0  0
  140.6830   73.0460  222.1760 N   0  0  0  0  0  0  0  0  0  0  0  0
  140.0100   71.8120  222.3200 C   0  0  0  0  0  0  0  0  0  0  0  0
  139.4360   71.3220  221.2930 O   0  0  0  0  0  0  0  0  0  0  0  0
  139.9740   71.1220  223.6120 C   0  0  0  0  0  0  0  0  0  0  0  0
  139.3920   69.8970  223.7300 C   0  0  0  0  0  0  0  0  0  0  0  0
  139.3460   69.2300  224.9390 C   0  0  0  0  0  0  0  0  0  0  0  0
  139.9180   69.8640  226.0200 C   0  0  0  0  0  0  0  0  0  0  0  0
  139.9270   69.2890  227.2660 C   0  0  0  0  0  0  0  0  0  0  0  0
  140.4870   69.8910  228.3610 C   0  0  0  0  0  0  0  0  0  0  0  0
  141.0850   71.1340  228.2680 C   0  0  0  0  0  0  0  0  0  0  0  0
  141.0780   71.7180  227.0100 C   0  0  0  0  0  0  0  0  0  0  0  0
  140.5160   71.1170  225.9070 C   0  0  0  0  0  0  0  0  0  0  0  0
  140.5170   71.6990  224.6870 N   0  0  0  0  0  0  0  0  0  0  0  0
  141.5030   78.4000  220.4720 C   0  0  0  0  0  0  0  0  0  0  0  0
  142.0950   77.7770  219.3730 C   0  0  0  0  0  0  0  0  0  0  0  0
  142.6180   78.5290  218.3210 C   0  0  0  0  0  0  0  0  0  0  0  0
  142.5630   79.9130  218.3430 C   0  0  0  0  0  0  0  0  0  0  0  0
  141.9680   80.5230  219.4480 C   0  0  0  0  0  0  0  0  0  0  0  0
  141.4500   79.7870  220.4890 C   0  0  0  0  0  0  0  0  0  0  0  0
  142.9585   80.8853  224.9249 H   0  0  0  0  0  0  0  0  0  0  0  0
  143.2445   79.9948  223.3913 H   0  0  0  0  0  0  0  0  0  0  0  0
  143.1940   81.7904  223.3913 H   0  0  0  0  0  0  0  0  0  0  0  0
  140.1202   78.8033  224.4513 H   0  0  0  0  0  0  0  0  0  0  0  0
  139.5561   79.1141  222.7499 H   0  0  0  0  0  0  0  0  0  0  0  0
  142.4057   78.7258  222.7203 H   0  0  0  0  0  0  0  0  0  0  0  0
  141.6728   77.3779  223.6239 H   0  0  0  0  0  0  0  0  0  0  0  0
  139.8430   77.6848  221.6478 H   0  0  0  0  0  0  0  0  0  0  0  0
  142.2990   75.9750  221.4960 H   0  0  0  0  0  0  0  0  0  0  0  0
  140.1101   73.3249  220.2006 H   0  0  0  0  0  0  0  0  0  0  0  0
  141.8158   73.7787  220.6102 H   0  0  0  0  0  0  0  0  0  0  0  0
  141.1510   73.4270  223.0490 H   0  0  0  0  0  0  0  0  0  0  0  0
  138.9473   69.4266  222.8406 H   0  0  0  0  0  0  0  0  0  0  0  0
  138.8753   68.2403  225.0339 H   0  0  0  0  0  0  0  0  0  0  0  0
  139.4632   68.2994  227.3908 H   0  0  0  0  0  0  0  0  0  0  0  0
  140.4606   69.3760  229.3326 H   0  0  0  0  0  0  0  0  0  0  0  0
  141.5388   71.6297  229.1388 H   0  0  0  0  0  0  0  0  0  0  0  0
  141.5432   72.7073  226.8883 H   0  0  0  0  0  0  0  0  0  0  0  0
  142.1500   76.6790  219.3356 H   0  0  0  0  0  0  0  0  0  0  0  0
  143.0795   78.0170  217.4638 H   0  0  0  0  0  0  0  0  0  0  0  0
  142.9747   80.5113  217.5168 H   0  0  0  0  0  0  0  0  0  0  0  0
  141.9116   81.6208  219.4880 H   0  0  0  0  0  0  0  0  0  0  0  0
  140.9889   80.3034  221.3438 H   0  0  0  0  0  0  0  0  0  0  0  0
  1  2  1  0
  2  3  1  0
  3  4  1  0
  4  5  1  0
  5  6  1  0
  6  7  1  0
  7  8  2  0
  7  9  1  0
  9 10  1  0
 10 11  1  0
 11 12  2  0
 11 13  1  0
 13 14  2  0
 14 15  1  0
 15 16  2  0
 16 17  1  0
 17 18  2  0
 18 19  1  0
 19 20  2  0
 20 21  1  0
 21 22  2  0
  5 23  1  0
 23 24  2  0
 24 25  1  0
 25 26  2  0
 26 27  1  0
 27 28  2  0
 22 13  1  0
 28 23  1  0
 21 16  1  0
  1 29  1  0
  1 30  1  0
  1 31  1  0
  3 32  1  0
  3 33  1  0
  4 34  1  0
  4 35  1  0
  5 36  1  1
  6 37  1  0
  9 38  1  0
  9 39  1  0
 10 40  1  0
 14 41  1  0
 15 42  1  0
 17 43  1  0
 18 44  1  0
 19 45  1  0
 20 46  1  0
 24 47  1  0
 25 48  1  0
 26 49  1  0
 27 50  1  0
 28 51  1  0
M  END
>  <smiles>  (22) 
CSCC[C@H](NC(=O)CNC(=O)c1ccc2ccccc2n1)c1ccccc1

>  <score_type>  (22) 
oracle

>  <origin>  (22) 
autodockgpu

>  <m_score__min__energy>  (22) 
-8.6099999999999994

>  <m_primary>  (22) 
energy

>  <rmsd>  (22) 
4.002677312163379

>  <m_score__min__rmsd>  (22) 
4.002677312163379

>  <meeko>  (22) 
{"free_energy": -8.1, "intermolecular_energy": -10.48, "internal_energy": -1.51, "cluster_size": 15, "cluster_id": 2, "rank_in_cluster": 11}

>  <energy>  (22) 
-7.97

>  <cluster_rmsd>  (22) 
1.03

>  <cluster>  (22) 
2

$$$$

     RDKit          3D

 51 53  0  0  0  0  0  0  0  0999 V2000
  140.4610   68.5520  227.5840 C   0  0  0  0  0  0  0  0  0  0  0  0
  140.7770   70.3220  227.4790 S   0  0  0  0  0  0  0  0  0  0  0  0
  141.4550   70.7570  225.8730 C   0  0  0  0  0  0  0  0  0  0  0  0
  140.6800   71.8810  225.1980 C   0  0  0  0  0  0  0  0  0  0  0  0
  140.1300   71.3330  223.9050 C   0  0  2  0  0  0  0  0  0  0  0  0
  140.1130   72.3020  222.8380 N   0  0  0  0  0  0  0  0  0  0  0  0
  141.0920   72.4320  221.8410 C   0  0  0  0  0  0  0  0  0  0  0  0
  142.0930   71.6380  221.8600 O   0  0  0  0  0  0  0  0  0  0  0  0
  141.0160   73.4470  220.7690 C   0  0  0  0  0  0  0  0  0  0  0  0
  141.0370   74.7820  221.3030 N   0  0  0  0  0  0  0  0  0  0  0  0
  139.9120   75.4530  221.8330 C   0  0  0  0  0  0  0  0  0  0  0  0
  138.7980   74.8340  221.8410 O   0  0  0  0  0  0  0  0  0  0  0  0
  140.0270   76.8170  222.3570 C   0  0  0  0  0  0  0  0  0  0  0  0
  138.9210   77.5050  222.7500 C   0  0  0  0  0  0  0  0  0  0  0  0
  139.0060   78.7930  223.2450 C   0  0  0  0  0  0  0  0  0  0  0  0
  140.2660   79.3460  223.3210 C   0  0  0  0  0  0  0  0  0  0  0  0
  140.4630   80.6180  223.7970 C   0  0  0  0  0  0  0  0  0  0  0  0
  141.7000   81.1970  223.8860 C   0  0  0  0  0  0  0  0  0  0  0  0
  142.8400   80.5190  223.4940 C   0  0  0  0  0  0  0  0  0  0  0  0
  142.6440   79.2330  223.0110 C   0  0  0  0  0  0  0  0  0  0  0  0
  141.4030   78.6460  222.9200 C   0  0  0  0  0  0  0  0  0  0  0  0
  141.2280   77.3920  222.4480 N   0  0  0  0  0  0  0  0  0  0  0  0
  138.7360   70.8570  224.1360 C   0  0  0  0  0  0  0  0  0  0  0  0
  138.4700   69.7010  224.8700 C   0  0  0  0  0  0  0  0  0  0  0  0
  137.1580   69.2700  225.0740 C   0  0  0  0  0  0  0  0  0  0  0  0
  136.0900   69.9810  224.5530 C   0  0  0  0  0  0  0  0  0  0  0  0
  136.3710   71.1360  223.8210 C   0  0  0  0  0  0  0  0  0  0  0  0
  137.6620   71.5660  223.6170 C   0  0  0  0  0  0  0  0  0  0  0  0
  140.4073   68.2512  228.6407 H   0  0  0  0  0  0  0  0  0  0  0  0
  139.5072   68.3197  227.0877 H   0  0  0  0  0  0  0  0  0  0  0  0
  141.2755   68.0040  227.0877 H   0  0  0  0  0  0  0  0  0  0  0  0
  142.4986   71.0783  226.0059 H   0  0  0  0  0  0  0  0  0  0  0  0
  141.3845   69.8684  225.2285 H   0  0  0  0  0  0  0  0  0  0  0  0
  139.8561   72.2127  225.8470 H   0  0  0  0  0  0  0  0  0  0  0  0
  141.3335   72.7452  225.0080 H   0  0  0  0  0  0  0  0  0  0  0  0
  140.7954   70.5141  223.5940 H   0  0  0  0  0  0  0  0  0  0  0  0
  139.2890   72.9630  222.8170 H   0  0  0  0  0  0  0  0  0  0  0  0
  141.8751   73.3187  220.0941 H   0  0  0  0  0  0  0  0  0  0  0  0
  140.0682   73.3070  220.2285 H   0  0  0  0  0  0  0  0  0  0  0  0
  141.9500   75.3240  221.3120 H   0  0  0  0  0  0  0  0  0  0  0  0
  137.9346   77.0244  222.6719 H   0  0  0  0  0  0  0  0  0  0  0  0
  138.1117   79.3492  223.5626 H   0  0  0  0  0  0  0  0  0  0  0  0
  139.5870   81.1986  224.1217 H   0  0  0  0  0  0  0  0  0  0  0  0
  141.7892   82.2213  224.2768 H   0  0  0  0  0  0  0  0  0  0  0  0
  143.8404   80.9714  223.5610 H   0  0  0  0  0  0  0  0  0  0  0  0
  143.5220   78.6558  222.6856 H   0  0  0  0  0  0  0  0  0  0  0  0
  139.3041   69.1221  225.2931 H   0  0  0  0  0  0  0  0  0  0  0  0
  136.9704   68.3551  225.6553 H   0  0  0  0  0  0  0  0  0  0  0  0
  135.0540   69.6466  224.7108 H   0  0  0  0  0  0  0  0  0  0  0  0
  135.5391   71.7172  223.3965 H   0  0  0  0  0  0  0  0  0  0  0  0
  137.8448   72.4820  223.0360 H   0  0  0  0  0  0  0  0  0  0  0  0
  1  2  1  0
  2  3  1  0
  3  4  1  0
  4  5  1  0
  5  6  1  0
  6  7  1  0
  7  8  2  0
  7  9  1  0
  9 10  1  0
 10 11  1  0
 11 12  2  0
 11 13  1  0
 13 14  2  0
 14 15  1  0
 15 16  2  0
 16 17  1  0
 17 18  2  0
 18 19  1  0
 19 20  2  0
 20 21  1  0
 21 22  2  0
  5 23  1  0
 23 24  2  0
 24 25  1  0
 25 26  2  0
 26 27  1  0
 27 28  2  0
 22 13  1  0
 28 23  1  0
 21 16  1  0
  1 29  1  0
  1 30  1  0
  1 31  1  0
  3 32  1  0
  3 33  1  0
  4 34  1  0
  4 35  1  0
  5 36  1  6
  6 37  1  0
  9 38  1  0
  9 39  1  0
 10 40  1  0
 14 41  1  0
 15 42  1  0
 17 43  1  0
 18 44  1  0
 19 45  1  0
 20 46  1  0
 24 47  1  0
 25 48  1  0
 26 49  1  0
 27 50  1  0
 28 51  1  0
M  END
>  <smiles>  (23) 
CSCC[C@H](NC(=O)CNC(=O)c1ccc2ccccc2n1)c1ccccc1

>  <score_type>  (23) 
oracle

>  <origin>  (23) 
autodockgpu

>  <m_score__min__energy>  (23) 
-8.6099999999999994

>  <m_primary>  (23) 
energy

>  <rmsd>  (23) 
9.439528614128085

>  <m_score__min__rmsd>  (23) 
9.439528614128085

>  <meeko>  (23) 
{"free_energy": -7.34, "intermolecular_energy": -9.72, "internal_energy": -2.41, "cluster_size": 4, "cluster_id": 6, "rank_in_cluster": 2}

>  <energy>  (23) 
-7.96

>  <cluster_rmsd>  (23) 
0.6

>  <cluster>  (23) 
2

$$$$

     RDKit          3D

 51 53  0  0  0  0  0  0  0  0999 V2000
  134.8030   72.7820  224.6460 C   0  0  0  0  0  0  0  0  0  0  0  0
  135.8120   73.4530  223.3140 S   0  0  0  0  0  0  0  0  0  0  0  0
  135.4550   75.1950  223.0540 C   0  0  0  0  0  0  0  0  0  0  0  0
  136.6240   76.0930  223.4340 C   0  0  0  0  0  0  0  0  0  0  0  0
  137.5570   76.1410  222.2490 C   0  0  2  0  0  0  0  0  0  0  0  0
  138.1300   74.8600  221.9230 N   0  0  0  0  0  0  0  0  0  0  0  0
  138.1380   74.2730  220.6480 C   0  0  0  0  0  0  0  0  0  0  0  0
  137.5970   74.9060  219.6800 O   0  0  0  0  0  0  0  0  0  0  0  0
  138.7460   72.9530  220.3770 C   0  0  0  0  0  0  0  0  0  0  0  0
  138.8150   72.1470  221.5670 N   0  0  0  0  0  0  0  0  0  0  0  0
  139.6990   72.3820  222.6450 C   0  0  0  0  0  0  0  0  0  0  0  0
  140.4920   73.3760  222.5600 O   0  0  0  0  0  0  0  0  0  0  0  0
  139.6990   71.5070  223.8200 C   0  0  0  0  0  0  0  0  0  0  0  0
  139.0540   70.3080  223.7940 C   0  0  0  0  0  0  0  0  0  0  0  0
  139.0410   69.4690  224.8920 C   0  0  0  0  0  0  0  0  0  0  0  0
  139.7120   69.9040  226.0140 C   0  0  0  0  0  0  0  0  0  0  0  0
  139.7610   69.1470  227.1580 C   0  0  0  0  0  0  0  0  0  0  0  0
  140.4190   69.5490  228.2890 C   0  0  0  0  0  0  0  0  0  0  0  0
  141.0830   70.7610  228.3420 C   0  0  0  0  0  0  0  0  0  0  0  0
  141.0350   71.5290  227.1870 C   0  0  0  0  0  0  0  0  0  0  0  0
  140.3750   71.1290  226.0470 C   0  0  0  0  0  0  0  0  0  0  0  0
  140.3370   71.8880  224.9290 N   0  0  0  0  0  0  0  0  0  0  0  0
  138.6630   77.0960  222.5440 C   0  0  0  0  0  0  0  0  0  0  0  0
  138.4130   78.3850  223.0140 C   0  0  0  0  0  0  0  0  0  0  0  0
  139.4620   79.2640  223.2840 C   0  0  0  0  0  0  0  0  0  0  0  0
  140.7780   78.8780  223.0900 C   0  0  0  0  0  0  0  0  0  0  0  0
  141.0140   77.5850  222.6190 C   0  0  0  0  0  0  0  0  0  0  0  0
  139.9840   76.7130  222.3530 C   0  0  0  0  0  0  0  0  0  0  0  0
  135.2363   73.0702  225.6151 H   0  0  0  0  0  0  0  0  0  0  0  0
  133.7808   73.1808  224.5683 H   0  0  0  0  0  0  0  0  0  0  0  0
  134.7755   71.6851  224.5683 H   0  0  0  0  0  0  0  0  0  0  0  0
  135.2206   75.3521  221.9908 H   0  0  0  0  0  0  0  0  0  0  0  0
  134.6052   75.4618  223.6994 H   0  0  0  0  0  0  0  0  0  0  0  0
  136.2609   77.1045  223.6684 H   0  0  0  0  0  0  0  0  0  0  0  0
  137.1424   75.7024  224.3221 H   0  0  0  0  0  0  0  0  0  0  0  0
  136.9602   76.4619  221.3825 H   0  0  0  0  0  0  0  0  0  0  0  0
  138.5780   74.3300  222.7200 H   0  0  0  0  0  0  0  0  0  0  0  0
  138.1387   72.4279  219.6250 H   0  0  0  0  0  0  0  0  0  0  0  0
  139.7707   73.1149  220.0113 H   0  0  0  0  0  0  0  0  0  0  0  0
  138.1670   71.3130  221.6680 H   0  0  0  0  0  0  0  0  0  0  0  0
  138.5307   69.9998  222.8768 H   0  0  0  0  0  0  0  0  0  0  0  0
  138.5200   68.5004  224.8712 H   0  0  0  0  0  0  0  0  0  0  0  0
  139.2485   68.1737  227.1663 H   0  0  0  0  0  0  0  0  0  0  0  0
  140.4197   68.8949  229.1734 H   0  0  0  0  0  0  0  0  0  0  0  0
  141.6163   71.0957  229.2440 H   0  0  0  0  0  0  0  0  0  0  0  0
  141.5479   72.5021  227.1822 H   0  0  0  0  0  0  0  0  0  0  0  0
  137.3752   78.7128  223.1739 H   0  0  0  0  0  0  0  0  0  0  0  0
  139.2415   80.2757  223.6554 H   0  0  0  0  0  0  0  0  0  0  0  0
  141.6093   79.5671  223.3000 H   0  0  0  0  0  0  0  0  0  0  0  0
  142.0507   77.2550  222.4564 H   0  0  0  0  0  0  0  0  0  0  0  0
  140.2092   75.7012  221.9849 H   0  0  0  0  0  0  0  0  0  0  0  0
  1  2  1  0
  2  3  1  0
  3  4  1  0
  4  5  1  0
  5  6  1  0
  6  7  1  0
  7  8  2  0
  7  9  1  0
  9 10  1  0
 10 11  1  0
 11 12  2  0
 11 13  1  0
 13 14  2  0
 14 15  1  0
 15 16  2  0
 16 17  1  0
 17 18  2  0
 18 19  1  0
 19 20  2  0
 20 21  1  0
 21 22  2  0
  5 23  1  0
 23 24  2  0
 24 25  1  0
 25 26  2  0
 26 27  1  0
 27 28  2  0
 22 13  1  0
 28 23  1  0
 21 16  1  0
  1 29  1  0
  1 30  1  0
  1 31  1  0
  3 32  1  0
  3 33  1  0
  4 34  1  0
  4 35  1  0
  5 36  1  6
  6 37  1  0
  9 38  1  0
  9 39  1  0
 10 40  1  0
 14 41  1  0
 15 42  1  0
 17 43  1  0
 18 44  1  0
 19 45  1  0
 20 46  1  0
 24 47  1  0
 25 48  1  0
 26 49  1  0
 27 50  1  0
 28 51  1  0
M  END
>  <smiles>  (24) 
CSCC[C@H](NC(=O)CNC(=O)c1ccc2ccccc2n1)c1ccccc1

>  <score_type>  (24) 
oracle

>  <origin>  (24) 
autodockgpu

>  <m_score__min__energy>  (24) 
-8.6099999999999994

>  <m_primary>  (24) 
energy

>  <rmsd>  (24) 
4.784821540579718

>  <m_score__min__rmsd>  (24) 
4.784821540579718

>  <meeko>  (24) 
{"free_energy": -7.43, "intermolecular_energy": -9.81, "internal_energy": -2.47, "cluster_size": 7, "cluster_id": 5, "rank_in_cluster": 2}

>  <energy>  (24) 
-8.07

>  <cluster_rmsd>  (24) 
0.0

>  <cluster>  (24) 
3

$$$$

     RDKit          3D

 51 53  0  0  0  0  0  0  0  0999 V2000
  138.1140   80.8990  224.6160 C   0  0  0  0  0  0  0  0  0  0  0  0
  137.0080   80.3470  223.3060 S   0  0  0  0  0  0  0  0  0  0  0  0
  137.9320   79.9210  221.8250 C   0  0  0  0  0  0  0  0  0  0  0  0
  138.2690   78.4380  221.7550 C   0  0  0  0  0  0  0  0  0  0  0  0
  139.5670   78.3070  220.9980 C   0  0  2  0  0  0  0  0  0  0  0  0
  139.9230   76.9400  220.7100 N   0  0  0  0  0  0  0  0  0  0  0  0
  139.7570   75.8550  221.5840 C   0  0  0  0  0  0  0  0  0  0  0  0
  139.2520   76.0700  222.7380 O   0  0  0  0  0  0  0  0  0  0  0  0
  140.1410   74.4730  221.2280 C   0  0  0  0  0  0  0  0  0  0  0  0
  139.9440   73.5680  222.3280 N   0  0  0  0  0  0  0  0  0  0  0  0
  140.5670   72.3050  222.4500 C   0  0  0  0  0  0  0  0  0  0  0  0
  141.3610   71.9400  221.5220 O   0  0  0  0  0  0  0  0  0  0  0  0
  140.3060   71.4470  223.6090 C   0  0  0  0  0  0  0  0  0  0  0  0
  139.6430   70.2670  223.4640 C   0  0  0  0  0  0  0  0  0  0  0  0
  139.3850   69.4430  224.5430 C   0  0  0  0  0  0  0  0  0  0  0  0
  139.8300   69.8750  225.7740 C   0  0  0  0  0  0  0  0  0  0  0  0
  139.6260   69.1330  226.9100 C   0  0  0  0  0  0  0  0  0  0  0  0
  140.0560   69.5320  228.1470 C   0  0  0  0  0  0  0  0  0  0  0  0
  140.7320   70.7260  228.3220 C   0  0  0  0  0  0  0  0  0  0  0  0
  140.9390   71.4780  227.1750 C   0  0  0  0  0  0  0  0  0  0  0  0
  140.5100   71.0820  225.9290 C   0  0  0  0  0  0  0  0  0  0  0  0
  140.7200   71.8260  224.8200 N   0  0  0  0  0  0  0  0  0  0  0  0
  140.6600   78.9220  221.8050 C   0  0  0  0  0  0  0  0  0  0  0  0
  141.5050   79.8960  221.2720 C   0  0  0  0  0  0  0  0  0  0  0  0
  142.5230   80.4590  222.0420 C   0  0  0  0  0  0  0  0  0  0  0  0
  142.7200   80.0630  223.3550 C   0  0  0  0  0  0  0  0  0  0  0  0
  141.8670   79.0880  223.8760 C   0  0  0  0  0  0  0  0  0  0  0  0
  140.8610   78.5300  223.1210 C   0  0  0  0  0  0  0  0  0  0  0  0
  137.6642   80.6745  225.5944 H   0  0  0  0  0  0  0  0  0  0  0  0
  139.0777   80.3762  224.5268 H   0  0  0  0  0  0  0  0  0  0  0  0
  138.2755   81.9834  224.5268 H   0  0  0  0  0  0  0  0  0  0  0  0
  137.3295   80.1879  220.9442 H   0  0  0  0  0  0  0  0  0  0  0  0
  138.8799   80.4785  221.8503 H   0  0  0  0  0  0  0  0  0  0  0  0
  138.3826   78.0297  222.7701 H   0  0  0  0  0  0  0  0  0  0  0  0
  137.4664   77.8802  221.2503 H   0  0  0  0  0  0  0  0  0  0  0  0
  139.4307   78.8200  220.0345 H   0  0  0  0  0  0  0  0  0  0  0  0
  140.3430   76.7560  219.7580 H   0  0  0  0  0  0  0  0  0  0  0  0
  139.5277   74.1400  220.3777 H   0  0  0  0  0  0  0  0  0  0  0  0
  141.2096   74.4696  220.9672 H   0  0  0  0  0  0  0  0  0  0  0  0
  139.2900   73.8430  223.1160 H   0  0  0  0  0  0  0  0  0  0  0  0
  139.3042   69.9617  222.4630 H   0  0  0  0  0  0  0  0  0  0  0  0
  138.8505   68.4888  224.4252 H   0  0  0  0  0  0  0  0  0  0  0  0
  139.0931   68.1747  226.8229 H   0  0  0  0  0  0  0  0  0  0  0  0
  139.8601   68.8905  229.0188 H   0  0  0  0  0  0  0  0  0  0  0  0
  141.0837   71.0586  229.3098 H   0  0  0  0  0  0  0  0  0  0  0  0
  141.4713   72.4363  227.2658 H   0  0  0  0  0  0  0  0  0  0  0  0
  141.3667   80.2242  220.2312 H   0  0  0  0  0  0  0  0  0  0  0  0
  143.1768   81.2262  221.6016 H   0  0  0  0  0  0  0  0  0  0  0  0
  143.5218   80.5022  223.9667 H   0  0  0  0  0  0  0  0  0  0  0  0
  142.0027   78.7576  224.9164 H   0  0  0  0  0  0  0  0  0  0  0  0
  140.2084   77.7643  223.5658 H   0  0  0  0  0  0  0  0  0  0  0  0
  1  2  1  0
  2  3  1  0
  3  4  1  0
  4  5  1  0
  5  6  1  0
  6  7  1  0
  7  8  2  0
  7  9  1  0
  9 10  1  0
 10 11  1  0
 11 12  2  0
 11 13  1  0
 13 14  2  0
 14 15  1  0
 15 16  2  0
 16 17  1  0
 17 18  2  0
 18 19  1  0
 19 20  2  0
 20 21  1  0
 21 22  2  0
  5 23  1  0
 23 24  2  0
 24 25  1  0
 25 26  2  0
 26 27  1  0
 27 28  2  0
 22 13  1  0
 28 23  1  0
 21 16  1  0
  1 29  1  0
  1 30  1  0
  1 31  1  0
  3 32  1  0
  3 33  1  0
  4 34  1  0
  4 35  1  0
  5 36  1  6
  6 37  1  0
  9 38  1  0
  9 39  1  0
 10 40  1  0
 14 41  1  0
 15 42  1  0
 17 43  1  0
 18 44  1  0
 19 45  1  0
 20 46  1  0
 24 47  1  0
 25 48  1  0
 26 49  1  0
 27 50  1  0
 28 51  1  0
M  END
>  <smiles>  (25) 
CSCC[C@H](NC(=O)CNC(=O)c1ccc2ccccc2n1)c1ccccc1

>  <score_type>  (25) 
oracle

>  <origin>  (25) 
autodockgpu

>  <m_score__min__energy>  (25) 
-8.6099999999999994

>  <m_primary>  (25) 
energy

>  <rmsd>  (25) 
4.245889796615889

>  <m_score__min__rmsd>  (25) 
4.245889796615889

>  <meeko>  (25) 
{"free_energy": -8.14, "intermolecular_energy": -10.52, "internal_energy": -1.82, "cluster_size": 15, "cluster_id": 2, "rank_in_cluster": 7}

>  <energy>  (25) 
-7.84

>  <cluster_rmsd>  (25) 
1.82

>  <cluster>  (25) 
3

$$$$

     RDKit          3D

 51 53  0  0  0  0  0  0  0  0999 V2000
  135.2940   70.6170  224.5790 C   0  0  0  0  0  0  0  0  0  0  0  0
  136.8550   71.0530  223.7930 S   0  0  0  0  0  0  0  0  0  0  0  0
  137.7990   69.5800  223.3810 C   0  0  0  0  0  0  0  0  0  0  0  0
  139.2970   69.8440  223.3290 C   0  0  0  0  0  0  0  0  0  0  0  0
  139.5430   71.1750  223.9960 C   0  0  2  0  0  0  0  0  0  0  0  0
  140.4910   71.9990  223.2900 N   0  0  0  0  0  0  0  0  0  0  0  0
  140.3630   72.4300  221.9600 C   0  0  0  0  0  0  0  0  0  0  0  0
  139.3300   72.0750  221.2990 O   0  0  0  0  0  0  0  0  0  0  0  0
  141.3720   73.2790  221.2920 C   0  0  0  0  0  0  0  0  0  0  0  0
  141.2960   74.6440  221.7390 N   0  0  0  0  0  0  0  0  0  0  0  0
  140.0940   75.3680  221.9030 C   0  0  0  0  0  0  0  0  0  0  0  0
  138.9990   74.7740  221.6370 O   0  0  0  0  0  0  0  0  0  0  0  0
  140.1120   76.7590  222.3640 C   0  0  0  0  0  0  0  0  0  0  0  0
  138.9510   77.4210  222.6210 C   0  0  0  0  0  0  0  0  0  0  0  0
  138.9440   78.7330  223.0550 C   0  0  0  0  0  0  0  0  0  0  0  0
  140.1720   79.3390  223.2140 C   0  0  0  0  0  0  0  0  0  0  0  0
  140.2780   80.6390  223.6410 C   0  0  0  0  0  0  0  0  0  0  0  0
  141.4810   81.2720  223.8100 C   0  0  0  0  0  0  0  0  0  0  0  0
  142.6750   80.6220  223.5560 C   0  0  0  0  0  0  0  0  0  0  0  0
  142.5700   79.3080  223.1250 C   0  0  0  0  0  0  0  0  0  0  0  0
  141.3640   78.6680  222.9530 C   0  0  0  0  0  0  0  0  0  0  0  0
  141.2790   77.3860  222.5320 N   0  0  0  0  0  0  0  0  0  0  0  0
  140.0560   70.9360  225.3750 C   0  0  0  0  0  0  0  0  0  0  0  0
  139.7660   69.7620  226.0710 C   0  0  0  0  0  0  0  0  0  0  0  0
  140.2540   69.5580  227.3630 C   0  0  0  0  0  0  0  0  0  0  0  0
  141.0370   70.5160  227.9840 C   0  0  0  0  0  0  0  0  0  0  0  0
  141.3190   71.6860  227.2760 C   0  0  0  0  0  0  0  0  0  0  0  0
  140.8420   71.8930  226.0030 C   0  0  0  0  0  0  0  0  0  0  0  0
  135.4121   70.6500  225.6721 H   0  0  0  0  0  0  0  0  0  0  0  0
  134.5167   71.3324  224.2724 H   0  0  0  0  0  0  0  0  0  0  0  0
  134.9999   69.6023  224.2724 H   0  0  0  0  0  0  0  0  0  0  0  0
  137.6025   68.8106  224.1422 H   0  0  0  0  0  0  0  0  0  0  0  0
  137.4828   69.2490  222.3808 H   0  0  0  0  0  0  0  0  0  0  0  0
  139.8378   69.0495  223.8640 H   0  0  0  0  0  0  0  0  0  0  0  0
  139.6533   69.8588  222.2884 H   0  0  0  0  0  0  0  0  0  0  0  0
  138.5836   71.7130  224.0039 H   0  0  0  0  0  0  0  0  0  0  0  0
  141.3490   72.2960  223.8310 H   0  0  0  0  0  0  0  0  0  0  0  0
  142.3744   72.8854  221.5162 H   0  0  0  0  0  0  0  0  0  0  0  0
  141.1751   73.2602  220.2099 H   0  0  0  0  0  0  0  0  0  0  0  0
  142.1910   75.1660  221.9680 H   0  0  0  0  0  0  0  0  0  0  0  0
  137.9935   76.8983  222.4796 H   0  0  0  0  0  0  0  0  0  0  0  0
  138.0053   79.2672  223.2632 H   0  0  0  0  0  0  0  0  0  0  0  0
  139.3555   81.1977  223.8573 H   0  0  0  0  0  0  0  0  0  0  0  0
  141.4977   82.3167  224.1541 H   0  0  0  0  0  0  0  0  0  0  0  0
  143.6485   81.1170  223.6878 H   0  0  0  0  0  0  0  0  0  0  0  0
  143.4942   78.7512  222.9106 H   0  0  0  0  0  0  0  0  0  0  0  0
  139.1454   68.9879  225.5960 H   0  0  0  0  0  0  0  0  0  0  0  0
  140.0135   68.6251  227.8938 H   0  0  0  0  0  0  0  0  0  0  0  0
  141.4243   70.3606  229.0018 H   0  0  0  0  0  0  0  0  0  0  0  0
  141.9387   72.4622  227.7488 H   0  0  0  0  0  0  0  0  0  0  0  0
  141.0859   72.8273  225.4762 H   0  0  0  0  0  0  0  0  0  0  0  0
  1  2  1  0
  2  3  1  0
  3  4  1  0
  4  5  1  0
  5  6  1  0
  6  7  1  0
  7  8  2  0
  7  9  1  0
  9 10  1  0
 10 11  1  0
 11 12  2  0
 11 13  1  0
 13 14  2  0
 14 15  1  0
 15 16  2  0
 16 17  1  0
 17 18  2  0
 18 19  1  0
 19 20  2  0
 20 21  1  0
 21 22  2  0
  5 23  1  0
 23 24  2  0
 24 25  1  0
 25 26  2  0
 26 27  1  0
 27 28  2  0
 22 13  1  0
 28 23  1  0
 21 16  1  0
  1 29  1  0
  1 30  1  0
  1 31  1  0
  3 32  1  0
  3 33  1  0
  4 34  1  0
  4 35  1  0
  5 36  1  1
  6 37  1  0
  9 38  1  0
  9 39  1  0
 10 40  1  0
 14 41  1  0
 15 42  1  0
 17 43  1  0
 18 44  1  0
 19 45  1  0
 20 46  1  0
 24 47  1  0
 25 48  1  0
 26 49  1  0
 27 50  1  0
 28 51  1  0
M  END
>  <smiles>  (26) 
CSCC[C@H](NC(=O)CNC(=O)c1ccc2ccccc2n1)c1ccccc1

>  <score_type>  (26) 
oracle

>  <origin>  (26) 
autodockgpu

>  <m_score__min__energy>  (26) 
-8.6099999999999994

>  <m_primary>  (26) 
energy

>  <rmsd>  (26) 
9.788968651958754

>  <m_score__min__rmsd>  (26) 
9.788968651958754

>  <meeko>  (26) 
{"free_energy": -7.97, "intermolecular_energy": -10.36, "internal_energy": -1.57, "cluster_size": 9, "cluster_id": 4, "rank_in_cluster": 2}

>  <energy>  (26) 
-7.66

>  <cluster_rmsd>  (26) 
0.84

>  <cluster>  (26) 
3

$$$$

     RDKit          3D

 51 53  0  0  0  0  0  0  0  0999 V2000
  136.4920   74.3130  222.3300 C   0  0  0  0  0  0  0  0  0  0  0  0
  136.2650   72.6600  223.0070 S   0  0  0  0  0  0  0  0  0  0  0  0
  136.9890   71.4200  221.9270 C   0  0  0  0  0  0  0  0  0  0  0  0
  138.2580   70.8110  222.5070 C   0  0  0  0  0  0  0  0  0  0  0  0
  138.9010   71.8600  223.3810 C   0  0  2  0  0  0  0  0  0  0  0  0
  139.7650   72.7550  222.6540 N   0  0  0  0  0  0  0  0  0  0  0  0
  140.7340   72.3660  221.7150 C   0  0  0  0  0  0  0  0  0  0  0  0
  140.8820   71.1220  221.4690 O   0  0  0  0  0  0  0  0  0  0  0  0
  141.5900   73.3360  220.9990 C   0  0  0  0  0  0  0  0  0  0  0  0
  141.4390   74.6650  221.5260 N   0  0  0  0  0  0  0  0  0  0  0  0
  140.2300   75.3970  221.5220 C   0  0  0  0  0  0  0  0  0  0  0  0
  139.1990   74.8430  221.0180 O   0  0  0  0  0  0  0  0  0  0  0  0
  140.1690   76.7500  222.0820 C   0  0  0  0  0  0  0  0  0  0  0  0
  138.9750   77.3050  222.4290 C   0  0  0  0  0  0  0  0  0  0  0  0
  138.8940   78.5790  222.9560 C   0  0  0  0  0  0  0  0  0  0  0  0
  140.0810   79.2620  223.1130 C   0  0  0  0  0  0  0  0  0  0  0  0
  140.1130   80.5340  223.6290 C   0  0  0  0  0  0  0  0  0  0  0  0
  141.2730   81.2400  223.7990 C   0  0  0  0  0  0  0  0  0  0  0  0
  142.4990   80.7000  223.4550 C   0  0  0  0  0  0  0  0  0  0  0  0
  142.4700   79.4140  222.9340 C   0  0  0  0  0  0  0  0  0  0  0  0
  141.3060   78.7000  222.7610 C   0  0  0  0  0  0  0  0  0  0  0  0
  141.2940   77.4480  222.2520 N   0  0  0  0  0  0  0  0  0  0  0  0
  139.7020   71.1810  224.4390 C   0  0  0  0  0  0  0  0  0  0  0  0
  140.7010   71.8520  225.1450 C   0  0  0  0  0  0  0  0  0  0  0  0
  141.4420   71.1990  226.1310 C   0  0  0  0  0  0  0  0  0  0  0  0
  141.2040   69.8680  226.4320 C   0  0  0  0  0  0  0  0  0  0  0  0
  140.2010   69.2090  225.7180 C   0  0  0  0  0  0  0  0  0  0  0  0
  139.4670   69.8480  224.7450 C   0  0  0  0  0  0  0  0  0  0  0  0
  136.5913   75.0359  223.1531 H   0  0  0  0  0  0  0  0  0  0  0  0
  137.4015   74.3343  221.7116 H   0  0  0  0  0  0  0  0  0  0  0  0
  135.6219   74.5787  221.7116 H   0  0  0  0  0  0  0  0  0  0  0  0
  136.2534   70.6177  221.7682 H   0  0  0  0  0  0  0  0  0  0  0  0
  137.2576   71.9154  220.9823 H   0  0  0  0  0  0  0  0  0  0  0  0
  138.0093   69.9227  223.1063 H   0  0  0  0  0  0  0  0  0  0  0  0
  138.9427   70.5002  221.7042 H   0  0  0  0  0  0  0  0  0  0  0  0
  138.0881   72.4653  223.8085 H   0  0  0  0  0  0  0  0  0  0  0  0
  139.6490   73.7860  222.8540 H   0  0  0  0  0  0  0  0  0  0  0  0
  142.6411   73.0285  221.1019 H   0  0  0  0  0  0  0  0  0  0  0  0
  141.2860   73.3485  219.9419 H   0  0  0  0  0  0  0  0  0  0  0  0
  142.2790   75.1540  221.9530 H   0  0  0  0  0  0  0  0  0  0  0  0
  138.0519   76.7241  222.2860 H   0  0  0  0  0  0  0  0  0  0  0  0
  137.9293   79.0268  223.2367 H   0  0  0  0  0  0  0  0  0  0  0  0
  139.1632   81.0070  223.9189 H   0  0  0  0  0  0  0  0  0  0  0  0
  141.2295   82.2564  224.2172 H   0  0  0  0  0  0  0  0  0  0  0  0
  143.4392   81.2557  223.5863 H   0  0  0  0  0  0  0  0  0  0  0  0
  143.4216   78.9434  222.6459 H   0  0  0  0  0  0  0  0  0  0  0  0
  140.9072   72.9092  224.9216 H   0  0  0  0  0  0  0  0  0  0  0  0
  142.2244   71.7478  226.6756 H   0  0  0  0  0  0  0  0  0  0  0  0
  141.7855   69.3477  227.2073 H   0  0  0  0  0  0  0  0  0  0  0  0
  139.9923   68.1518  225.9390 H   0  0  0  0  0  0  0  0  0  0  0  0
  138.6849   69.2957  224.2035 H   0  0  0  0  0  0  0  0  0  0  0  0
  1  2  1  0
  2  3  1  0
  3  4  1  0
  4  5  1  0
  5  6  1  0
  6  7  1  0
  7  8  2  0
  7  9  1  0
  9 10  1  0
 10 11  1  0
 11 12  2  0
 11 13  1  0
 13 14  2  0
 14 15  1  0
 15 16  2  0
 16 17  1  0
 17 18  2  0
 18 19  1  0
 19 20  2  0
 20 21  1  0
 21 22  2  0
  5 23  1  0
 23 24  2  0
 24 25  1  0
 25 26  2  0
 26 27  1  0
 27 28  2  0
 22 13  1  0
 28 23  1  0
 21 16  1  0
  1 29  1  0
  1 30  1  0
  1 31  1  0
  3 32  1  0
  3 33  1  0
  4 34  1  0
  4 35  1  0
  5 36  1  1
  6 37  1  0
  9 38  1  0
  9 39  1  0
 10 40  1  0
 14 41  1  0
 15 42  1  0
 17 43  1  0
 18 44  1  0
 19 45  1  0
 20 46  1  0
 24 47  1  0
 25 48  1  0
 26 49  1  0
 27 50  1  0
 28 51  1  0
M  END
>  <smiles>  (27) 
CSCC[C@H](NC(=O)CNC(=O)c1ccc2ccccc2n1)c1ccccc1

>  <score_type>  (27) 
oracle

>  <origin>  (27) 
autodockgpu

>  <m_score__min__energy>  (27) 
-8.6099999999999994

>  <m_primary>  (27) 
energy

>  <rmsd>  (27) 
9.749747677923693

>  <m_score__min__rmsd>  (27) 
9.749747677923693

>  <meeko>  (27) 
{"free_energy": -7.05, "intermolecular_energy": -9.44, "internal_energy": -2.53, "cluster_size": 9, "cluster_id": 4, "rank_in_cluster": 9}

>  <energy>  (27) 
-7.5

>  <cluster_rmsd>  (27) 
0.68

>  <cluster>  (27) 
3

$$$$

     RDKit          3D

 51 53  0  0  0  0  0  0  0  0999 V2000
  143.9180   74.9490  219.8010 C   0  0  0  0  0  0  0  0  0  0  0  0
  143.3320   75.9590  218.4300 S   0  0  0  0  0  0  0  0  0  0  0  0
  141.6340   76.4790  218.6970 C   0  0  0  0  0  0  0  0  0  0  0  0
  141.5310   77.6680  219.6440 C   0  0  0  0  0  0  0  0  0  0  0  0
  141.4170   77.1180  221.0440 C   0  0  2  0  0  0  0  0  0  0  0  0
  140.3330   76.1810  221.2020 N   0  0  0  0  0  0  0  0  0  0  0  0
  140.4750   74.8100  221.4660 C   0  0  0  0  0  0  0  0  0  0  0  0
  141.6530   74.3280  221.5790 O   0  0  0  0  0  0  0  0  0  0  0  0
  139.3210   73.8990  221.6190 C   0  0  0  0  0  0  0  0  0  0  0  0
  139.5080   72.9880  222.7160 N   0  0  0  0  0  0  0  0  0  0  0  0
  139.1920   71.6110  222.6770 C   0  0  0  0  0  0  0  0  0  0  0  0
  138.7080   71.1400  221.5960 O   0  0  0  0  0  0  0  0  0  0  0  0
  139.4170   70.7540  223.8450 C   0  0  0  0  0  0  0  0  0  0  0  0
  139.0410   69.4460  223.8300 C   0  0  0  0  0  0  0  0  0  0  0  0
  139.2420   68.6220  224.9200 C   0  0  0  0  0  0  0  0  0  0  0  0
  139.8400   69.1890  226.0250 C   0  0  0  0  0  0  0  0  0  0  0  0
  140.0860   68.4590  227.1610 C   0  0  0  0  0  0  0  0  0  0  0  0
  140.6790   68.9900  228.2740 C   0  0  0  0  0  0  0  0  0  0  0  0
  141.0700   70.3160  228.3160 C   0  0  0  0  0  0  0  0  0  0  0  0
  140.8240   71.0570  227.1680 C   0  0  0  0  0  0  0  0  0  0  0  0
  140.2280   70.5270  226.0470 C   0  0  0  0  0  0  0  0  0  0  0  0
  139.9940   71.2620  224.9370 N   0  0  0  0  0  0  0  0  0  0  0  0
  141.2070   78.2510  221.9910 C   0  0  0  0  0  0  0  0  0  0  0  0
  142.1840   79.2250  222.1960 C   0  0  0  0  0  0  0  0  0  0  0  0
  141.9690   80.2760  223.0880 C   0  0  0  0  0  0  0  0  0  0  0  0
  140.7810   80.3770  223.7920 C   0  0  0  0  0  0  0  0  0  0  0  0
  139.8110   79.3960  223.5770 C   0  0  0  0  0  0  0  0  0  0  0  0
  140.0170   78.3570  222.6980 C   0  0  0  0  0  0  0  0  0  0  0  0
  143.6411   75.4263  220.7526 H   0  0  0  0  0  0  0  0  0  0  0  0
  143.4586   73.9512  219.7439 H   0  0  0  0  0  0  0  0  0  0  0  0
  145.0123   74.8526  219.7439 H   0  0  0  0  0  0  0  0  0  0  0  0
  141.1945   76.7600  217.7286 H   0  0  0  0  0  0  0  0  0  0  0  0
  141.0946   75.6376  219.1564 H   0  0  0  0  0  0  0  0  0  0  0  0
  142.4298   78.2963  219.5584 H   0  0  0  0  0  0  0  0  0  0  0  0
  140.6567   78.2881  219.3968 H   0  0  0  0  0  0  0  0  0  0  0  0
  142.3509   76.5760  221.2538 H   0  0  0  0  0  0  0  0  0  0  0  0
  139.3560   76.5730  221.1070 H   0  0  0  0  0  0  0  0  0  0  0  0
  138.4159   74.4969  221.8017 H   0  0  0  0  0  0  0  0  0  0  0  0
  139.2226   73.3099  220.6953 H   0  0  0  0  0  0  0  0  0  0  0  0
  139.9100   73.3480  223.6290 H   0  0  0  0  0  0  0  0  0  0  0  0
  138.5652   69.0350  222.9274 H   0  0  0  0  0  0  0  0  0  0  0  0
  138.9395   67.5645  224.9070 H   0  0  0  0  0  0  0  0  0  0  0  0
  139.7931   67.3988  227.1774 H   0  0  0  0  0  0  0  0  0  0  0  0
  140.8480   68.3498  229.1524 H   0  0  0  0  0  0  0  0  0  0  0  0
  141.5465   70.7564  229.2042 H   0  0  0  0  0  0  0  0  0  0  0  0
  141.1192   72.1166  227.1541 H   0  0  0  0  0  0  0  0  0  0  0  0
  143.1357   79.1638  221.6477 H   0  0  0  0  0  0  0  0  0  0  0  0
  142.7529   81.0338  223.2338 H   0  0  0  0  0  0  0  0  0  0  0  0
  140.6071   81.2029  224.4975 H   0  0  0  0  0  0  0  0  0  0  0  0
  138.8583   79.4550  224.1238 H   0  0  0  0  0  0  0  0  0  0  0  0
  139.2299   77.6022  222.5541 H   0  0  0  0  0  0  0  0  0  0  0  0
  1  2  1  0
  2  3  1  0
  3  4  1  0
  4  5  1  0
  5  6  1  0
  6  7  1  0
  7  8  2  0
  7  9  1  0
  9 10  1  0
 10 11  1  0
 11 12  2  0
 11 13  1  0
 13 14  2  0
 14 15  1  0
 15 16  2  0
 16 17  1  0
 17 18  2  0
 18 19  1  0
 19 20  2  0
 20 21  1  0
 21 22  2  0
  5 23  1  0
 23 24  2  0
 24 25  1  0
 25 26  2  0
 26 27  1  0
 27 28  2  0
 22 13  1  0
 28 23  1  0
 21 16  1  0
  1 29  1  0
  1 30  1  0
  1 31  1  0
  3 32  1  0
  3 33  1  0
  4 34  1  0
  4 35  1  0
  5 36  1  1
  6 37  1  0
  9 38  1  0
  9 39  1  0
 10 40  1  0
 14 41  1  0
 15 42  1  0
 17 43  1  0
 18 44  1  0
 19 45  1  0
 20 46  1  0
 24 47  1  0
 25 48  1  0
 26 49  1  0
 27 50  1  0
 28 51  1  0
M  END
>  <smiles>  (28) 
CSCC[C@H](NC(=O)CNC(=O)c1ccc2ccccc2n1)c1ccccc1

>  <score_type>  (28) 
oracle

>  <origin>  (28) 
autodockgpu

>  <m_score__min__energy>  (28) 
-8.6099999999999994

>  <m_primary>  (28) 
energy

>  <rmsd>  (28) 
4.321399700716093

>  <m_score__min__rmsd>  (28) 
4.321399700716093

>  <meeko>  (28) 
{"free_energy": -7.86, "intermolecular_energy": -10.24, "internal_energy": -1.65, "cluster_size": 8, "cluster_id": 1, "rank_in_cluster": 6}

>  <energy>  (28) 
-7.2

>  <cluster_rmsd>  (28) 
1.5

>  <cluster>  (28) 
3

$$$$

     RDKit          3D

 51 53  0  0  0  0  0  0  0  0999 V2000
  142.8730   80.1050  222.8550 C   0  0  0  0  0  0  0  0  0  0  0  0
  141.4150   79.2710  223.5050 S   0  0  0  0  0  0  0  0  0  0  0  0
  140.6830   78.1980  222.2620 C   0  0  0  0  0  0  0  0  0  0  0  0
  140.6680   76.7370  222.6900 C   0  0  0  0  0  0  0  0  0  0  0  0
  140.3770   75.9120  221.4610 C   0  0  2  0  0  0  0  0  0  0  0  0
  139.5830   74.7410  221.7370 N   0  0  0  0  0  0  0  0  0  0  0  0
  138.2930   74.4980  221.2400 C   0  0  0  0  0  0  0  0  0  0  0  0
  137.7550   75.3720  220.4800 O   0  0  0  0  0  0  0  0  0  0  0  0
  137.5290   73.2730  221.5580 C   0  0  0  0  0  0  0  0  0  0  0  0
  138.0610   72.6020  222.7140 N   0  0  0  0  0  0  0  0  0  0  0  0
  139.3110   71.9450  222.7560 C   0  0  0  0  0  0  0  0  0  0  0  0
  140.0200   71.9430  221.6970 O   0  0  0  0  0  0  0  0  0  0  0  0
  139.7740   71.2870  223.9810 C   0  0  0  0  0  0  0  0  0  0  0  0
  140.6780   71.8950  224.7970 C   0  0  0  0  0  0  0  0  0  0  0  0
  141.1290   71.2920  225.9560 C   0  0  0  0  0  0  0  0  0  0  0  0
  140.6200   70.0440  226.2450 C   0  0  0  0  0  0  0  0  0  0  0  0
  141.0000   69.3580  227.3700 C   0  0  0  0  0  0  0  0  0  0  0  0
  140.5130   68.1180  227.6880 C   0  0  0  0  0  0  0  0  0  0  0  0
  139.5940   67.4790  226.8760 C   0  0  0  0  0  0  0  0  0  0  0  0
  139.2070   68.1700  225.7370 C   0  0  0  0  0  0  0  0  0  0  0  0
  139.6940   69.4160  225.4140 C   0  0  0  0  0  0  0  0  0  0  0  0
  139.3070   70.0780  224.3000 N   0  0  0  0  0  0  0  0  0  0  0  0
  141.6680   75.4780  220.8540 C   0  0  0  0  0  0  0  0  0  0  0  0
  142.4700   76.3610  220.1320 C   0  0  0  0  0  0  0  0  0  0  0  0
  143.6750   75.9360  219.5690 C   0  0  0  0  0  0  0  0  0  0  0  0
  144.1010   74.6260  219.7150 C   0  0  0  0  0  0  0  0  0  0  0  0
  143.2880   73.7530  220.4410 C   0  0  0  0  0  0  0  0  0  0  0  0
  142.1000   74.1670  220.9980 C   0  0  0  0  0  0  0  0  0  0  0  0
  143.4947   80.4606  223.6899 H   0  0  0  0  0  0  0  0  0  0  0  0
  143.4533   79.4023  222.2391 H   0  0  0  0  0  0  0  0  0  0  0  0
  142.5614   80.9615  222.2391 H   0  0  0  0  0  0  0  0  0  0  0  0
  139.6480   78.5232  222.0803 H   0  0  0  0  0  0  0  0  0  0  0  0
  141.2959   78.2737  221.3517 H   0  0  0  0  0  0  0  0  0  0  0  0
  141.6462   76.4573  223.1081 H   0  0  0  0  0  0  0  0  0  0  0  0
  139.9048   76.5658  223.4634 H   0  0  0  0  0  0  0  0  0  0  0  0
  139.7966   76.5480  220.7764 H   0  0  0  0  0  0  0  0  0  0  0  0
  140.0210   74.0140  222.3660 H   0  0  0  0  0  0  0  0  0  0  0  0
  136.4818   73.5464  221.7544 H   0  0  0  0  0  0  0  0  0  0  0  0
  137.6023   72.5893  220.6994 H   0  0  0  0  0  0  0  0  0  0  0  0
  137.4960   72.5860  223.6120 H   0  0  0  0  0  0  0  0  0  0  0  0
  141.0591   72.8910  224.5273 H   0  0  0  0  0  0  0  0  0  0  0  0
  141.8587   71.7841  226.6158 H   0  0  0  0  0  0  0  0  0  0  0  0
  141.7294   69.8251  228.0481 H   0  0  0  0  0  0  0  0  0  0  0  0
  140.8593   67.6212  228.6063 H   0  0  0  0  0  0  0  0  0  0  0  0
  139.1941   66.4833  227.1185 H   0  0  0  0  0  0  0  0  0  0  0  0
  138.4773   67.7004  225.0609 H   0  0  0  0  0  0  0  0  0  0  0  0
  142.1494   77.4055  220.0044 H   0  0  0  0  0  0  0  0  0  0  0  0
  144.2927   76.6491  219.0034 H   0  0  0  0  0  0  0  0  0  0  0  0
  145.0488   74.2845  219.2734 H   0  0  0  0  0  0  0  0  0  0  0  0
  143.6055   72.7078  220.5708 H   0  0  0  0  0  0  0  0  0  0  0  0
  141.4858   73.4510  221.5637 H   0  0  0  0  0  0  0  0  0  0  0  0
  1  2  1  0
  2  3  1  0
  3  4  1  0
  4  5  1  0
  5  6  1  0
  6  7  1  0
  7  8  2  0
  7  9  1  0
  9 10  1  0
 10 11  1  0
 11 12  2  0
 11 13  1  0
 13 14  2  0
 14 15  1  0
 15 16  2  0
 16 17  1  0
 17 18  2  0
 18 19  1  0
 19 20  2  0
 20 21  1  0
 21 22  2  0
  5 23  1  0
 23 24  2  0
 24 25  1  0
 25 26  2  0
 26 27  1  0
 27 28  2  0
 22 13  1  0
 28 23  1  0
 21 16  1  0
  1 29  1  0
  1 30  1  0
  1 31  1  0
  3 32  1  0
  3 33  1  0
  4 34  1  0
  4 35  1  0
  5 36  1  6
  6 37  1  0
  9 38  1  0
  9 39  1  0
 10 40  1  0
 14 41  1  0
 15 42  1  0
 17 43  1  0
 18 44  1  0
 19 45  1  0
 20 46  1  0
 24 47  1  0
 25 48  1  0
 26 49  1  0
 27 50  1  0
 28 51  1  0
M  END
>  <smiles>  (29) 
CSCC[C@H](NC(=O)CNC(=O)c1ccc2ccccc2n1)c1ccccc1

>  <score_type>  (29) 
oracle

>  <origin>  (29) 
autodockgpu

>  <m_score__min__energy>  (29) 
-8.6099999999999994

>  <m_primary>  (29) 
energy

>  <rmsd>  (29) 
5.30217748390634

>  <m_score__min__rmsd>  (29) 
5.30217748390634

>  <meeko>  (29) 
{"free_energy": -7.66, "intermolecular_energy": -10.05, "internal_energy": -2.16, "cluster_size": 5, "cluster_id": 3, "rank_in_cluster": 3}

>  <energy>  (29) 
-8.02

>  <cluster_rmsd>  (29) 
0.0

>  <cluster>  (29) 
4

$$$$

     RDKit          3D

 51 53  0  0  0  0  0  0  0  0999 V2000
  142.5750   79.7870  222.8580 C   0  0  0  0  0  0  0  0  0  0  0  0
  140.9750   78.9590  222.8660 S   0  0  0  0  0  0  0  0  0  0  0  0
  140.9300   77.6380  221.6490 C   0  0  0  0  0  0  0  0  0  0  0  0
  140.9870   76.2570  222.2860 C   0  0  0  0  0  0  0  0  0  0  0  0
  140.7180   75.2490  221.1970 C   0  0  2  0  0  0  0  0  0  0  0  0
  139.7180   74.2740  221.5570 N   0  0  0  0  0  0  0  0  0  0  0  0
  138.3730   74.3040  221.1590 C   0  0  0  0  0  0  0  0  0  0  0  0
  137.9750   75.2650  220.4170 O   0  0  0  0  0  0  0  0  0  0  0  0
  137.3950   73.2710  221.5620 C   0  0  0  0  0  0  0  0  0  0  0  0
  137.8570   72.5180  222.6960 N   0  0  0  0  0  0  0  0  0  0  0  0
  138.9390   71.6080  222.6690 C   0  0  0  0  0  0  0  0  0  0  0  0
  139.5490   71.4410  221.5620 O   0  0  0  0  0  0  0  0  0  0  0  0
  139.3420   70.8820  223.8760 C   0  0  0  0  0  0  0  0  0  0  0  0
  139.1980   69.5310  223.9540 C   0  0  0  0  0  0  0  0  0  0  0  0
  139.5700   68.8270  225.0840 C   0  0  0  0  0  0  0  0  0  0  0  0
  140.0920   69.5590  226.1280 C   0  0  0  0  0  0  0  0  0  0  0  0
  140.4930   68.9580  227.2950 C   0  0  0  0  0  0  0  0  0  0  0  0
  141.0160   69.6560  228.3500 C   0  0  0  0  0  0  0  0  0  0  0  0
  141.1730   71.0290  228.2970 C   0  0  0  0  0  0  0  0  0  0  0  0
  140.7680   71.6390  227.1180 C   0  0  0  0  0  0  0  0  0  0  0  0
  140.2420   70.9430  226.0540 C   0  0  0  0  0  0  0  0  0  0  0  0
  139.8530   71.5520  224.9120 N   0  0  0  0  0  0  0  0  0  0  0  0
  141.9860   74.5320  220.8780 C   0  0  0  0  0  0  0  0  0  0  0  0
  142.1350   73.1660  221.1160 C   0  0  0  0  0  0  0  0  0  0  0  0
  143.3300   72.5130  220.8130 C   0  0  0  0  0  0  0  0  0  0  0  0
  144.3980   73.2070  220.2690 C   0  0  0  0  0  0  0  0  0  0  0  0
  144.2360   74.5740  220.0360 C   0  0  0  0  0  0  0  0  0  0  0  0
  143.0590   75.2230  220.3320 C   0  0  0  0  0  0  0  0  0  0  0  0
  142.9047   79.9576  223.8935 H   0  0  0  0  0  0  0  0  0  0  0  0
  143.3114   79.1568  222.3378 H   0  0  0  0  0  0  0  0  0  0  0  0
  142.4858   80.7521  222.3378 H   0  0  0  0  0  0  0  0  0  0  0  0
  139.9976   77.7219  221.0715 H   0  0  0  0  0  0  0  0  0  0  0  0
  141.8154   77.7461  221.0052 H   0  0  0  0  0  0  0  0  0  0  0  0
  141.9823   76.0841  222.7214 H   0  0  0  0  0  0  0  0  0  0  0  0
  140.2425   76.1685  223.0909 H   0  0  0  0  0  0  0  0  0  0  0  0
  140.3345   75.8076  220.3304 H   0  0  0  0  0  0  0  0  0  0  0  0
  140.0400   73.4780  222.1720 H   0  0  0  0  0  0  0  0  0  0  0  0
  136.4451   73.7610  221.8219 H   0  0  0  0  0  0  0  0  0  0  0  0
  137.2615   72.5766  220.7194 H   0  0  0  0  0  0  0  0  0  0  0  0
  137.3700   72.6350  223.6320 H   0  0  0  0  0  0  0  0  0  0  0  0
  138.7753   68.9860  223.0971 H   0  0  0  0  0  0  0  0  0  0  0  0
  139.4548   67.7348  225.1467 H   0  0  0  0  0  0  0  0  0  0  0  0
  140.3895   67.8667  227.3866 H   0  0  0  0  0  0  0  0  0  0  0  0
  141.3175   69.1138  229.2584 H   0  0  0  0  0  0  0  0  0  0  0  0
  141.5927   71.6019  229.1370 H   0  0  0  0  0  0  0  0  0  0  0  0
  140.8725   72.7305  227.0300 H   0  0  0  0  0  0  0  0  0  0  0  0
  141.2994   72.5960  221.5483 H   0  0  0  0  0  0  0  0  0  0  0  0
  143.4251   71.4347  221.0084 H   0  0  0  0  0  0  0  0  0  0  0  0
  145.3429   72.6978  220.0284 H   0  0  0  0  0  0  0  0  0  0  0  0
  145.0702   75.1469  219.6049 H   0  0  0  0  0  0  0  0  0  0  0  0
  142.9676   76.3011  220.1337 H   0  0  0  0  0  0  0  0  0  0  0  0
  1  2  1  0
  2  3  1  0
  3  4  1  0
  4  5  1  0
  5  6  1  0
  6  7  1  0
  7  8  2  0
  7  9  1  0
  9 10  1  0
 10 11  1  0
 11 12  2  0
 11 13  1  0
 13 14  2  0
 14 15  1  0
 15 16  2  0
 16 17  1  0
 17 18  2  0
 18 19  1  0
 19 20  2  0
 20 21  1  0
 21 22  2  0
  5 23  1  0
 23 24  2  0
 24 25  1  0
 25 26  2  0
 26 27  1  0
 27 28  2  0
 22 13  1  0
 28 23  1  0
 21 16  1  0
  1 29  1  0
  1 30  1  0
  1 31  1  0
  3 32  1  0
  3 33  1  0
  4 34  1  0
  4 35  1  0
  5 36  1  6
  6 37  1  0
  9 38  1  0
  9 39  1  0
 10 40  1  0
 14 41  1  0
 15 42  1  0
 17 43  1  0
 18 44  1  0
 19 45  1  0
 20 46  1  0
 24 47  1  0
 25 48  1  0
 26 49  1  0
 27 50  1  0
 28 51  1  0
M  END
>  <smiles>  (30) 
CSCC[C@H](NC(=O)CNC(=O)c1ccc2ccccc2n1)c1ccccc1

>  <score_type>  (30) 
oracle

>  <origin>  (30) 
autodockgpu

>  <m_score__min__energy>  (30) 
-8.6099999999999994

>  <m_primary>  (30) 
energy

>  <rmsd>  (30) 
5.960321839293862

>  <m_score__min__rmsd>  (30) 
5.960321839293862

>  <meeko>  (30) 
{"free_energy": -7.5, "intermolecular_energy": -9.88, "internal_energy": -2.18, "cluster_size": 5, "cluster_id": 3, "rank_in_cluster": 4}

>  <energy>  (30) 
-7.97

>  <cluster_rmsd>  (30) 
0.6

>  <cluster>  (30) 
4

$$$$

     RDKit          3D

 51 53  0  0  0  0  0  0  0  0999 V2000
  138.2660   80.1390  223.5040 C   0  0  0  0  0  0  0  0  0  0  0  0
  140.0260   80.5220  223.4660 S   0  0  0  0  0  0  0  0  0  0  0  0
  141.0070   79.0610  223.8290 C   0  0  0  0  0  0  0  0  0  0  0  0
  141.9300   78.6780  222.6810 C   0  0  0  0  0  0  0  0  0  0  0  0
  141.0590   78.3810  221.4850 C   0  0  2  0  0  0  0  0  0  0  0  0
  141.0720   76.9920  221.1030 N   0  0  0  0  0  0  0  0  0  0  0  0
  140.2970   75.9800  221.6910 C   0  0  0  0  0  0  0  0  0  0  0  0
  139.5100   76.2900  222.6480 O   0  0  0  0  0  0  0  0  0  0  0  0
  140.3540   74.5690  221.2520 C   0  0  0  0  0  0  0  0  0  0  0  0
  140.1140   73.6640  222.3430 N   0  0  0  0  0  0  0  0  0  0  0  0
  140.6070   72.3420  222.4120 C   0  0  0  0  0  0  0  0  0  0  0  0
  141.3130   71.9170  221.4390 O   0  0  0  0  0  0  0  0  0  0  0  0
  140.3120   71.4880  223.5660 C   0  0  0  0  0  0  0  0  0  0  0  0
  139.6410   70.3140  223.4090 C   0  0  0  0  0  0  0  0  0  0  0  0
  139.3510   69.4950  224.4830 C   0  0  0  0  0  0  0  0  0  0  0  0
  139.7740   69.9260  225.7230 C   0  0  0  0  0  0  0  0  0  0  0  0
  139.5370   69.1880  226.8560 C   0  0  0  0  0  0  0  0  0  0  0  0
  139.9440   69.5850  228.1010 C   0  0  0  0  0  0  0  0  0  0  0  0
  140.6270   70.7730  228.2890 C   0  0  0  0  0  0  0  0  0  0  0  0
  140.8670   71.5210  227.1450 C   0  0  0  0  0  0  0  0  0  0  0  0
  140.4610   71.1260  225.8910 C   0  0  0  0  0  0  0  0  0  0  0  0
  140.7020   71.8660  224.7860 N   0  0  0  0  0  0  0  0  0  0  0  0
  141.5330   79.1960  220.3290 C   0  0  0  0  0  0  0  0  0  0  0  0
  141.3920   80.5830  220.3040 C   0  0  0  0  0  0  0  0  0  0  0  0
  141.8410   81.3280  219.2130 C   0  0  0  0  0  0  0  0  0  0  0  0
  142.4350   80.7070  218.1270 C   0  0  0  0  0  0  0  0  0  0  0  0
  142.5700   79.3170  218.1650 C   0  0  0  0  0  0  0  0  0  0  0  0
  142.1310   78.5780  219.2390 C   0  0  0  0  0  0  0  0  0  0  0  0
  137.9292   80.0657  224.5486 H   0  0  0  0  0  0  0  0  0  0  0  0
  137.7061   80.9363  222.9933 H   0  0  0  0  0  0  0  0  0  0  0  0
  138.0881   79.1811  222.9933 H   0  0  0  0  0  0  0  0  0  0  0  0
  141.6182   79.2595  224.7217 H   0  0  0  0  0  0  0  0  0  0  0  0
  140.3120   78.2241  223.9922 H   0  0  0  0  0  0  0  0  0  0  0  0
  142.6120   79.5103  222.4526 H   0  0  0  0  0  0  0  0  0  0  0  0
  142.5389   77.8013  222.9467 H   0  0  0  0  0  0  0  0  0  0  0  0
  140.0264   78.6335  221.7678 H   0  0  0  0  0  0  0  0  0  0  0  0
  141.7220   76.7280  220.3130 H   0  0  0  0  0  0  0  0  0  0  0  0
  139.5899   74.4051  220.4778 H   0  0  0  0  0  0  0  0  0  0  0  0
  141.3620   74.3723  220.8579 H   0  0  0  0  0  0  0  0  0  0  0  0
  139.5310   73.9880  223.1680 H   0  0  0  0  0  0  0  0  0  0  0  0
  139.3216   70.0098  222.4013 H   0  0  0  0  0  0  0  0  0  0  0  0
  138.8095   68.5460  224.3556 H   0  0  0  0  0  0  0  0  0  0  0  0
  138.9959   68.2352  226.7590 H   0  0  0  0  0  0  0  0  0  0  0  0
  139.7236   68.9466  228.9693 H   0  0  0  0  0  0  0  0  0  0  0  0
  140.9594   71.1044  229.2838 H   0  0  0  0  0  0  0  0  0  0  0  0
  141.4070   72.4741  227.2454 H   0  0  0  0  0  0  0  0  0  0  0  0
  140.9208   81.0964  221.1551 H   0  0  0  0  0  0  0  0  0  0  0  0
  141.7218   82.4215  219.2155 H   0  0  0  0  0  0  0  0  0  0  0  0
  142.7888   81.2889  217.2631 H   0  0  0  0  0  0  0  0  0  0  0  0
  143.0392   78.8005  217.3147 H   0  0  0  0  0  0  0  0  0  0  0  0
  142.2551   77.4850  219.2342 H   0  0  0  0  0  0  0  0  0  0  0  0
  1  2  1  0
  2  3  1  0
  3  4  1  0
  4  5  1  0
  5  6  1  0
  6  7  1  0
  7  8  2  0
  7  9  1  0
  9 10  1  0
 10 11  1  0
 11 12  2  0
 11 13  1  0
 13 14  2  0
 14 15  1  0
 15 16  2  0
 16 17  1  0
 17 18  2  0
 18 19  1  0
 19 20  2  0
 20 21  1  0
 21 22  2  0
  5 23  1  0
 23 24  2  0
 24 25  1  0
 25 26  2  0
 26 27  1  0
 27 28  2  0
 22 13  1  0
 28 23  1  0
 21 16  1  0
  1 29  1  0
  1 30  1  0
  1 31  1  0
  3 32  1  0
  3 33  1  0
  4 34  1  0
  4 35  1  0
  5 36  1  1
  6 37  1  0
  9 38  1  0
  9 39  1  0
 10 40  1  0
 14 41  1  0
 15 42  1  0
 17 43  1  0
 18 44  1  0
 19 45  1  0
 20 46  1  0
 24 47  1  0
 25 48  1  0
 26 49  1  0
 27 50  1  0
 28 51  1  0
M  END
>  <smiles>  (31) 
CSCC[C@H](NC(=O)CNC(=O)c1ccc2ccccc2n1)c1ccccc1

>  <score_type>  (31) 
oracle

>  <origin>  (31) 
autodockgpu

>  <m_score__min__energy>  (31) 
-8.6099999999999994

>  <m_primary>  (31) 
energy

>  <rmsd>  (31) 
3.6782106947987256

>  <m_score__min__rmsd>  (31) 
3.6782106947987256

>  <meeko>  (31) 
{"free_energy": -7.96, "intermolecular_energy": -10.35, "internal_energy": -1.68, "cluster_size": 15, "cluster_id": 2, "rank_in_cluster": 15}

>  <energy>  (31) 
-7.28

>  <cluster_rmsd>  (31) 
1.22

>  <cluster>  (31) 
4

$$$$

     RDKit          3D

 51 53  0  0  0  0  0  0  0  0999 V2000
  145.6560   73.7590  220.8590 C   0  0  0  0  0  0  0  0  0  0  0  0
  143.8860   73.5340  220.6160 S   0  0  0  0  0  0  0  0  0  0  0  0
  143.3470   74.3010  219.0830 C   0  0  0  0  0  0  0  0  0  0  0  0
  142.1990   75.2790  219.2920 C   0  0  0  0  0  0  0  0  0  0  0  0
  141.8450   75.2480  220.7580 C   0  0  2  0  0  0  0  0  0  0  0  0
  140.7580   74.3520  221.0620 N   0  0  0  0  0  0  0  0  0  0  0  0
  139.4310   74.5060  220.6310 C   0  0  0  0  0  0  0  0  0  0  0  0
  139.1370   75.5180  219.9090 O   0  0  0  0  0  0  0  0  0  0  0  0
  138.3600   73.5480  220.9760 C   0  0  0  0  0  0  0  0  0  0  0  0
  138.6420   72.8580  222.2060 N   0  0  0  0  0  0  0  0  0  0  0  0
  139.6090   71.8370  222.3490 C   0  0  0  0  0  0  0  0  0  0  0  0
  140.2800   71.5020  221.3180 O   0  0  0  0  0  0  0  0  0  0  0  0
  139.8300   71.1880  223.6440 C   0  0  0  0  0  0  0  0  0  0  0  0
  139.5140   69.8760  223.8260 C   0  0  0  0  0  0  0  0  0  0  0  0
  139.7130   69.2440  225.0390 C   0  0  0  0  0  0  0  0  0  0  0  0
  140.2450   70.0070  226.0560 C   0  0  0  0  0  0  0  0  0  0  0  0
  140.4830   69.4780  227.3000 C   0  0  0  0  0  0  0  0  0  0  0  0
  141.0110   70.2060  228.3310 C   0  0  0  0  0  0  0  0  0  0  0  0
  141.3410   71.5400  228.1730 C   0  0  0  0  0  0  0  0  0  0  0  0
  141.1020   72.0780  226.9160 C   0  0  0  0  0  0  0  0  0  0  0  0
  140.5710   71.3500  225.8760 C   0  0  0  0  0  0  0  0  0  0  0  0
  140.3440   71.8890  224.6580 N   0  0  0  0  0  0  0  0  0  0  0  0
  141.4610   76.6230  221.1910 C   0  0  0  0  0  0  0  0  0  0  0  0
  141.7770   77.7460  220.4250 C   0  0  0  0  0  0  0  0  0  0  0  0
  141.4110   79.0250  220.8480 C   0  0  0  0  0  0  0  0  0  0  0  0
  140.7270   79.2090  222.0380 C   0  0  0  0  0  0  0  0  0  0  0  0
  140.4180   78.0770  222.7940 C   0  0  0  0  0  0  0  0  0  0  0  0
  140.7750   76.8140  222.3820 C   0  0  0  0  0  0  0  0  0  0  0  0
  145.8776   73.7872  221.9361 H   0  0  0  0  0  0  0  0  0  0  0  0
  146.1991   72.9227  220.3947 H   0  0  0  0  0  0  0  0  0  0  0  0
  145.9726   74.7046  220.3947 H   0  0  0  0  0  0  0  0  0  0  0  0
  144.1965   74.8433  218.6423 H   0  0  0  0  0  0  0  0  0  0  0  0
  142.9881   73.5018  218.4178 H   0  0  0  0  0  0  0  0  0  0  0  0
  142.5107   76.2931  219.0013 H   0  0  0  0  0  0  0  0  0  0  0  0
  141.3318   74.9992  218.6758 H   0  0  0  0  0  0  0  0  0  0  0  0
  142.7323   74.8820  221.2954 H   0  0  0  0  0  0  0  0  0  0  0  0
  140.9950   73.5140  221.6610 H   0  0  0  0  0  0  0  0  0  0  0  0
  137.4122   74.0958  221.0834 H   0  0  0  0  0  0  0  0  0  0  0  0
  138.2938   72.8017  220.1706 H   0  0  0  0  0  0  0  0  0  0  0  0
  138.1020   73.1140  223.0820 H   0  0  0  0  0  0  0  0  0  0  0  0
  139.0899   69.3050  222.9869 H   0  0  0  0  0  0  0  0  0  0  0  0
  139.4591   68.1838  225.1855 H   0  0  0  0  0  0  0  0  0  0  0  0
  140.2380   68.4202  227.4761 H   0  0  0  0  0  0  0  0  0  0  0  0
  141.1763   69.7211  229.3044 H   0  0  0  0  0  0  0  0  0  0  0  0
  141.7665   72.1375  228.9928 H   0  0  0  0  0  0  0  0  0  0  0  0
  141.3487   73.1360  226.7431 H   0  0  0  0  0  0  0  0  0  0  0  0
  142.3208   77.6219  219.4769 H   0  0  0  0  0  0  0  0  0  0  0  0
  141.6689   79.8969  220.2289 H   0  0  0  0  0  0  0  0  0  0  0  0
  140.4366   80.2145  222.3765 H   0  0  0  0  0  0  0  0  0  0  0  0
  139.8753   78.1979  223.7432 H   0  0  0  0  0  0  0  0  0  0  0  0
  140.5136   75.9452  223.0040 H   0  0  0  0  0  0  0  0  0  0  0  0
  1  2  1  0
  2  3  1  0
  3  4  1  0
  4  5  1  0
  5  6  1  0
  6  7  1  0
  7  8  2  0
  7  9  1  0
  9 10  1  0
 10 11  1  0
 11 12  2  0
 11 13  1  0
 13 14  2  0
 14 15  1  0
 15 16  2  0
 16 17  1  0
 17 18  2  0
 18 19  1  0
 19 20  2  0
 20 21  1  0
 21 22  2  0
  5 23  1  0
 23 24  2  0
 24 25  1  0
 25 26  2  0
 26 27  1  0
 27 28  2  0
 22 13  1  0
 28 23  1  0
 21 16  1  0
  1 29  1  0
  1 30  1  0
  1 31  1  0
  3 32  1  0
  3 33  1  0
  4 34  1  0
  4 35  1  0
  5 36  1  1
  6 37  1  0
  9 38  1  0
  9 39  1  0
 10 40  1  0
 14 41  1  0
 15 42  1  0
 17 43  1  0
 18 44  1  0
 19 45  1  0
 20 46  1  0
 24 47  1  0
 25 48  1  0
 26 49  1  0
 27 50  1  0
 28 51  1  0
M  END
>  <smiles>  (32) 
CSCC[C@H](NC(=O)CNC(=O)c1ccc2ccccc2n1)c1ccccc1

>  <score_type>  (32) 
oracle

>  <origin>  (32) 
autodockgpu

>  <m_score__min__energy>  (32) 
-8.6099999999999994

>  <m_primary>  (32) 
energy

>  <rmsd>  (32) 
4.747857538480961

>  <m_score__min__rmsd>  (32) 
4.747857538480961

>  <meeko>  (32) 
{"free_energy": -7.45, "intermolecular_energy": -9.84, "internal_energy": -2.28, "cluster_size": 8, "cluster_id": 1, "rank_in_cluster": 8}

>  <energy>  (32) 
-7.18

>  <cluster_rmsd>  (32) 
1.35

>  <cluster>  (32) 
4

$$$$

     RDKit          3D

 51 53  0  0  0  0  0  0  0  0999 V2000
  143.1750   74.2410  219.0060 C   0  0  0  0  0  0  0  0  0  0  0  0
  143.6830   75.8910  219.5190 S   0  0  0  0  0  0  0  0  0  0  0  0
  142.9360   77.1460  218.4720 C   0  0  0  0  0  0  0  0  0  0  0  0
  141.9760   78.0470  219.2360 C   0  0  0  0  0  0  0  0  0  0  0  0
  141.7410   77.4120  220.5840 C   0  0  2  0  0  0  0  0  0  0  0  0
  140.5640   76.5810  220.6240 N   0  0  0  0  0  0  0  0  0  0  0  0
  140.5010   75.2840  221.1560 C   0  0  0  0  0  0  0  0  0  0  0  0
  141.5630   74.7740  221.6500 O   0  0  0  0  0  0  0  0  0  0  0  0
  139.2600   74.4820  221.1690 C   0  0  0  0  0  0  0  0  0  0  0  0
  139.2380   73.5570  222.2700 N   0  0  0  0  0  0  0  0  0  0  0  0
  140.0530   72.4060  222.3660 C   0  0  0  0  0  0  0  0  0  0  0  0
  140.8630   72.1670  221.4120 O   0  0  0  0  0  0  0  0  0  0  0  0
  139.9640   71.5170  223.5280 C   0  0  0  0  0  0  0  0  0  0  0  0
  139.2970   70.3330  223.4470 C   0  0  0  0  0  0  0  0  0  0  0  0
  139.1990   69.4810  224.5310 C   0  0  0  0  0  0  0  0  0  0  0  0
  139.8090   69.8880  225.6980 C   0  0  0  0  0  0  0  0  0  0  0  0
  139.7720   69.1170  226.8320 C   0  0  0  0  0  0  0  0  0  0  0  0
  140.3680   69.4910  228.0070 C   0  0  0  0  0  0  0  0  0  0  0  0
  141.0510   70.6890  228.1160 C   0  0  0  0  0  0  0  0  0  0  0  0
  141.0900   71.4710  226.9700 C   0  0  0  0  0  0  0  0  0  0  0  0
  140.4930   71.0990  225.7870 C   0  0  0  0  0  0  0  0  0  0  0  0
  140.5400   71.8720  224.6790 N   0  0  0  0  0  0  0  0  0  0  0  0
  141.5970   78.4880  221.6060 C   0  0  0  0  0  0  0  0  0  0  0  0
  141.8300   79.8280  221.2960 C   0  0  0  0  0  0  0  0  0  0  0  0
  141.6920   80.8210  222.2670 C   0  0  0  0  0  0  0  0  0  0  0  0
  141.3220   80.5000  223.5620 C   0  0  0  0  0  0  0  0  0  0  0  0
  141.0930   79.1550  223.8590 C   0  0  0  0  0  0  0  0  0  0  0  0
  141.2260   78.1710  222.9060 C   0  0  0  0  0  0  0  0  0  0  0  0
  142.9847   73.6228  219.8957 H   0  0  0  0  0  0  0  0  0  0  0  0
  142.2567   74.3105  218.4045 H   0  0  0  0  0  0  0  0  0  0  0  0
  143.9734   73.7820  218.4045 H   0  0  0  0  0  0  0  0  0  0  0  0
  143.7351   77.7670  218.0409 H   0  0  0  0  0  0  0  0  0  0  0  0
  142.3592   76.6293  217.6908 H   0  0  0  0  0  0  0  0  0  0  0  0
  142.4179   79.0463  219.3626 H   0  0  0  0  0  0  0  0  0  0  0  0
  141.0287   78.1598  218.6883 H   0  0  0  0  0  0  0  0  0  0  0  0
  142.6065   76.7651  220.7901 H   0  0  0  0  0  0  0  0  0  0  0  0
  139.6820   76.9970  220.2160 H   0  0  0  0  0  0  0  0  0  0  0  0
  138.3980   75.1599  221.2552 H   0  0  0  0  0  0  0  0  0  0  0  0
  139.2142   73.9045  220.2339 H   0  0  0  0  0  0  0  0  0  0  0  0
  138.5750   73.7280  223.0800 H   0  0  0  0  0  0  0  0  0  0  0  0
  138.8245   70.0474  222.4956 H   0  0  0  0  0  0  0  0  0  0  0  0
  138.6602   68.5243  224.4654 H   0  0  0  0  0  0  0  0  0  0  0  0
  139.2397   68.1551  226.7960 H   0  0  0  0  0  0  0  0  0  0  0  0
  140.3023   68.8260  228.8808 H   0  0  0  0  0  0  0  0  0  0  0  0
  141.5336   71.0026  229.0534 H   0  0  0  0  0  0  0  0  0  0  0  0
  141.6227   72.4326  227.0090 H   0  0  0  0  0  0  0  0  0  0  0  0
  142.1262   80.1055  220.2736 H   0  0  0  0  0  0  0  0  0  0  0  0
  141.8795   81.8715  222.0002 H   0  0  0  0  0  0  0  0  0  0  0  0
  141.2121   81.2786  224.3312 H   0  0  0  0  0  0  0  0  0  0  0  0
  140.7987   78.8746  224.8811 H   0  0  0  0  0  0  0  0  0  0  0  0
  141.0363   77.1219  223.1771 H   0  0  0  0  0  0  0  0  0  0  0  0
  1  2  1  0
  2  3  1  0
  3  4  1  0
  4  5  1  0
  5  6  1  0
  6  7  1  0
  7  8  2  0
  7  9  1  0
  9 10  1  0
 10 11  1  0
 11 12  2  0
 11 13  1  0
 13 14  2  0
 14 15  1  0
 15 16  2  0
 16 17  1  0
 17 18  2  0
 18 19  1  0
 19 20  2  0
 20 21  1  0
 21 22  2  0
  5 23  1  0
 23 24  2  0
 24 25  1  0
 25 26  2  0
 26 27  1  0
 27 28  2  0
 22 13  1  0
 28 23  1  0
 21 16  1  0
  1 29  1  0
  1 30  1  0
  1 31  1  0
  3 32  1  0
  3 33  1  0
  4 34  1  0
  4 35  1  0
  5 36  1  1
  6 37  1  0
  9 38  1  0
  9 39  1  0
 10 40  1  0
 14 41  1  0
 15 42  1  0
 17 43  1  0
 18 44  1  0
 19 45  1  0
 20 46  1  0
 24 47  1  0
 25 48  1  0
 26 49  1  0
 27 50  1  0
 28 51  1  0
M  END
>  <smiles>  (33) 
CSCC[C@H](NC(=O)CNC(=O)c1ccc2ccccc2n1)c1ccccc1

>  <score_type>  (33) 
oracle

>  <origin>  (33) 
autodockgpu

>  <m_score__min__energy>  (33) 
-8.6099999999999994

>  <m_primary>  (33) 
energy

>  <rmsd>  (33) 
4.143913532154285

>  <m_score__min__rmsd>  (33) 
4.143913532154285

>  <meeko>  (33) 
{"free_energy": -8.43, "intermolecular_energy": -10.82, "internal_energy": -1.41, "cluster_size": 8, "cluster_id": 1, "rank_in_cluster": 3}

>  <energy>  (33) 
-7.18

>  <cluster_rmsd>  (33) 
1.36

>  <cluster>  (33) 
4

$$$$

     RDKit          3D

 51 53  0  0  0  0  0  0  0  0999 V2000
  136.2070   71.3880  223.8510 C   0  0  0  0  0  0  0  0  0  0  0  0
  136.8280   69.8330  224.5130 S   0  0  0  0  0  0  0  0  0  0  0  0
  138.0770   69.1290  223.4290 C   0  0  0  0  0  0  0  0  0  0  0  0
  139.4930   69.4250  223.9030 C   0  0  0  0  0  0  0  0  0  0  0  0
  139.5400   70.8790  224.3000 C   0  0  2  0  0  0  0  0  0  0  0  0
  140.3800   71.6770  223.4420 N   0  0  0  0  0  0  0  0  0  0  0  0
  139.9320   72.4700  222.3750 C   0  0  0  0  0  0  0  0  0  0  0  0
  138.6800   72.5040  222.1200 O   0  0  0  0  0  0  0  0  0  0  0  0
  140.8460   73.2690  221.5310 C   0  0  0  0  0  0  0  0  0  0  0  0
  140.8960   74.6420  221.9580 N   0  0  0  0  0  0  0  0  0  0  0  0
  139.7890   75.5200  221.9670 C   0  0  0  0  0  0  0  0  0  0  0  0
  138.6660   75.0680  221.5680 O   0  0  0  0  0  0  0  0  0  0  0  0
  139.9330   76.9070  222.4190 C   0  0  0  0  0  0  0  0  0  0  0  0
  138.8360   77.6670  222.6890 C   0  0  0  0  0  0  0  0  0  0  0  0
  138.9490   78.9760  223.1160 C   0  0  0  0  0  0  0  0  0  0  0  0
  140.2260   79.4760  223.2530 C   0  0  0  0  0  0  0  0  0  0  0  0
  140.4500   80.7640  223.6710 C   0  0  0  0  0  0  0  0  0  0  0  0
  141.7050   81.2910  223.8190 C   0  0  0  0  0  0  0  0  0  0  0  0
  142.8350   80.5410  223.5520 C   0  0  0  0  0  0  0  0  0  0  0  0
  142.6120   79.2380  223.1300 C   0  0  0  0  0  0  0  0  0  0  0  0
  141.3530   78.7030  222.9790 C   0  0  0  0  0  0  0  0  0  0  0  0
  141.1510   77.4320  222.5670 N   0  0  0  0  0  0  0  0  0  0  0  0
  140.0530   70.9820  225.6960 C   0  0  0  0  0  0  0  0  0  0  0  0
  140.9790   71.9580  226.0660 C   0  0  0  0  0  0  0  0  0  0  0  0
  141.4490   72.0360  227.3770 C   0  0  0  0  0  0  0  0  0  0  0  0
  141.0080   71.1470  228.3430 C   0  0  0  0  0  0  0  0  0  0  0  0
  140.0810   70.1760  227.9590 C   0  0  0  0  0  0  0  0  0  0  0  0
  139.6140   70.0940  226.6680 C   0  0  0  0  0  0  0  0  0  0  0  0
  135.9391   72.0588  224.6806 H   0  0  0  0  0  0  0  0  0  0  0  0
  136.9853   71.8607  223.2340 H   0  0  0  0  0  0  0  0  0  0  0  0
  135.3172   71.1945  223.2340 H   0  0  0  0  0  0  0  0  0  0  0  0
  137.9380   68.0384  223.3919 H   0  0  0  0  0  0  0  0  0  0  0  0
  137.9542   69.5859  222.4360 H   0  0  0  0  0  0  0  0  0  0  0  0
  139.7407   68.7910  224.7671 H   0  0  0  0  0  0  0  0  0  0  0  0
  140.2215   69.2160  223.1058 H   0  0  0  0  0  0  0  0  0  0  0  0
  138.5156   71.2698  224.2108 H   0  0  0  0  0  0  0  0  0  0  0  0
  141.4160   71.6530  223.6460 H   0  0  0  0  0  0  0  0  0  0  0  0
  141.8565   72.8389  221.5926 H   0  0  0  0  0  0  0  0  0  0  0  0
  140.4708   73.2434  220.4973 H   0  0  0  0  0  0  0  0  0  0  0  0
  141.8160   75.0480  222.2960 H   0  0  0  0  0  0  0  0  0  0  0  0
  137.8352   77.2279  222.5641 H   0  0  0  0  0  0  0  0  0  0  0  0
  138.0628   79.5894  223.3360 H   0  0  0  0  0  0  0  0  0  0  0  0
  139.5825   81.4014  223.8972 H   0  0  0  0  0  0  0  0  0  0  0  0
  141.8162   82.3318  224.1571 H   0  0  0  0  0  0  0  0  0  0  0  0
  143.8489   80.9519  223.6670 H   0  0  0  0  0  0  0  0  0  0  0  0
  143.4819   78.6032  222.9058 H   0  0  0  0  0  0  0  0  0  0  0  0
  141.3427   72.6745  225.3148 H   0  0  0  0  0  0  0  0  0  0  0  0
  142.1790   72.8133  227.6469 H   0  0  0  0  0  0  0  0  0  0  0  0
  141.3757   71.2039  229.3782 H   0  0  0  0  0  0  0  0  0  0  0  0
  139.7149   69.4584  228.7081 H   0  0  0  0  0  0  0  0  0  0  0  0
  138.8838   69.3153  226.4027 H   0  0  0  0  0  0  0  0  0  0  0  0
  1  2  1  0
  2  3  1  0
  3  4  1  0
  4  5  1  0
  5  6  1  0
  6  7  1  0
  7  8  2  0
  7  9  1  0
  9 10  1  0
 10 11  1  0
 11 12  2  0
 11 13  1  0
 13 14  2  0
 14 15  1  0
 15 16  2  0
 16 17  1  0
 17 18  2  0
 18 19  1  0
 19 20  2  0
 20 21  1  0
 21 22  2  0
  5 23  1  0
 23 24  2  0
 24 25  1  0
 25 26  2  0
 26 27  1  0
 27 28  2  0
 22 13  1  0
 28 23  1  0
 21 16  1  0
  1 29  1  0
  1 30  1  0
  1 31  1  0
  3 32  1  0
  3 33  1  0
  4 34  1  0
  4 35  1  0
  5 36  1  1
  6 37  1  0
  9 38  1  0
  9 39  1  0
 10 40  1  0
 14 41  1  0
 15 42  1  0
 17 43  1  0
 18 44  1  0
 19 45  1  0
 20 46  1  0
 24 47  1  0
 25 48  1  0
 26 49  1  0
 27 50  1  0
 28 51  1  0
M  END
>  <smiles>  (34) 
CSCC[C@H](NC(=O)CNC(=O)c1ccc2ccccc2n1)c1ccccc1

>  <score_type>  (34) 
oracle

>  <origin>  (34) 
autodockgpu

>  <m_score__min__energy>  (34) 
-8.6099999999999994

>  <m_primary>  (34) 
energy

>  <rmsd>  (34) 
9.98703239771397

>  <m_score__min__rmsd>  (34) 
9.98703239771397

>  <meeko>  (34) 
{"free_energy": -8.02, "intermolecular_energy": -10.4, "internal_energy": -1.68, "cluster_size": 9, "cluster_id": 4, "rank_in_cluster": 1}

>  <energy>  (34) 
-7.15

>  <cluster_rmsd>  (34) 
1.36

>  <cluster>  (34) 
4

$$$$

     RDKit          3D

 51 53  0  0  0  0  0  0  0  0999 V2000
  137.1400   81.2610  224.9070 C   0  0  0  0  0  0  0  0  0  0  0  0
  138.5330   80.4860  224.0690 S   0  0  0  0  0  0  0  0  0  0  0  0
  138.1080   80.0630  222.3750 C   0  0  0  0  0  0  0  0  0  0  0  0
  138.3020   78.5830  222.0780 C   0  0  0  0  0  0  0  0  0  0  0  0
  139.5180   78.4570  221.1960 C   0  0  2  0  0  0  0  0  0  0  0  0
  139.8280   77.0940  220.8440 N   0  0  0  0  0  0  0  0  0  0  0  0
  139.6610   75.9800  221.6800 C   0  0  0  0  0  0  0  0  0  0  0  0
  139.2000   76.1620  222.8580 O   0  0  0  0  0  0  0  0  0  0  0  0
  139.9960   74.6030  221.2580 C   0  0  0  0  0  0  0  0  0  0  0  0
  139.8610   73.6690  222.3430 N   0  0  0  0  0  0  0  0  0  0  0  0
  140.4160   72.3690  222.3560 C   0  0  0  0  0  0  0  0  0  0  0  0
  141.0820   71.9950  221.3360 O   0  0  0  0  0  0  0  0  0  0  0  0
  140.2270   71.4830  223.5090 C   0  0  0  0  0  0  0  0  0  0  0  0
  139.6070   70.2800  223.3650 C   0  0  0  0  0  0  0  0  0  0  0  0
  139.4180   69.4290  224.4380 C   0  0  0  0  0  0  0  0  0  0  0  0
  139.8870   69.8600  225.6600 C   0  0  0  0  0  0  0  0  0  0  0  0
  139.7500   69.0920  226.7900 C   0  0  0  0  0  0  0  0  0  0  0  0
  140.2040   69.4880  228.0190 C   0  0  0  0  0  0  0  0  0  0  0  0
  140.8380   70.7060  228.1920 C   0  0  0  0  0  0  0  0  0  0  0  0
  140.9770   71.4840  227.0520 C   0  0  0  0  0  0  0  0  0  0  0  0
  140.5220   71.0900  225.8140 C   0  0  0  0  0  0  0  0  0  0  0  0
  140.6660   71.8590  224.7120 N   0  0  0  0  0  0  0  0  0  0  0  0
  140.6920   79.0420  221.9060 C   0  0  0  0  0  0  0  0  0  0  0  0
  141.4370   80.0840  221.3540 C   0  0  0  0  0  0  0  0  0  0  0  0
  142.5330   80.6170  222.0330 C   0  0  0  0  0  0  0  0  0  0  0  0
  142.9090   80.1230  223.2720 C   0  0  0  0  0  0  0  0  0  0  0  0
  142.1540   79.0800  223.8120 C   0  0  0  0  0  0  0  0  0  0  0  0
  141.0720   78.5510  223.1480 C   0  0  0  0  0  0  0  0  0  0  0  0
  137.2781   81.1842  225.9956 H   0  0  0  0  0  0  0  0  0  0  0  0
  137.0822   82.3210  224.6186 H   0  0  0  0  0  0  0  0  0  0  0  0
  136.2089   80.7512  224.6186 H   0  0  0  0  0  0  0  0  0  0  0  0
  137.0534   80.3226  222.2005 H   0  0  0  0  0  0  0  0  0  0  0  0
  138.7787   80.6280  221.7109 H   0  0  0  0  0  0  0  0  0  0  0  0
  138.4579   78.0285  223.0152 H   0  0  0  0  0  0  0  0  0  0  0  0
  137.4146   78.1670  221.5786 H   0  0  0  0  0  0  0  0  0  0  0  0
  139.2945   78.9939  220.2623 H   0  0  0  0  0  0  0  0  0  0  0  0
  140.2110   76.9360  219.8710 H   0  0  0  0  0  0  0  0  0  0  0  0
  139.3192   74.3046  220.4438 H   0  0  0  0  0  0  0  0  0  0  0  0
  141.0435   74.5913  220.9224 H   0  0  0  0  0  0  0  0  0  0  0  0
  139.3130   73.9510  223.2070 H   0  0  0  0  0  0  0  0  0  0  0  0
  139.2474   69.9774  222.3704 H   0  0  0  0  0  0  0  0  0  0  0  0
  138.9180   68.4561  224.3221 H   0  0  0  0  0  0  0  0  0  0  0  0
  139.2530   68.1145  226.7036 H   0  0  0  0  0  0  0  0  0  0  0  0
  140.0623   68.8256  228.8857 H   0  0  0  0  0  0  0  0  0  0  0  0
  141.2089   71.0368  229.1733 H   0  0  0  0  0  0  0  0  0  0  0  0
  141.4739   72.4613  227.1414 H   0  0  0  0  0  0  0  0  0  0  0  0
  141.1569   80.4906  220.3710 H   0  0  0  0  0  0  0  0  0  0  0  0
  143.1057   81.4394  221.5794 H   0  0  0  0  0  0  0  0  0  0  0  0
  143.7728   80.5385  223.8116 H   0  0  0  0  0  0  0  0  0  0  0  0
  142.4319   78.6706  224.7944 H   0  0  0  0  0  0  0  0  0  0  0  0
  140.5012   77.7297  223.6060 H   0  0  0  0  0  0  0  0  0  0  0  0
  1  2  1  0
  2  3  1  0
  3  4  1  0
  4  5  1  0
  5  6  1  0
  6  7  1  0
  7  8  2  0
  7  9  1  0
  9 10  1  0
 10 11  1  0
 11 12  2  0
 11 13  1  0
 13 14  2  0
 14 15  1  0
 15 16  2  0
 16 17  1  0
 17 18  2  0
 18 19  1  0
 19 20  2  0
 20 21  1  0
 21 22  2  0
  5 23  1  0
 23 24  2  0
 24 25  1  0
 25 26  2  0
 26 27  1  0
 27 28  2  0
 22 13  1  0
 28 23  1  0
 21 16  1  0
  1 29  1  0
  1 30  1  0
  1 31  1  0
  3 32  1  0
  3 33  1  0
  4 34  1  0
  4 35  1  0
  5 36  1  6
  6 37  1  0
  9 38  1  0
  9 39  1  0
 10 40  1  0
 14 41  1  0
 15 42  1  0
 17 43  1  0
 18 44  1  0
 19 45  1  0
 20 46  1  0
 24 47  1  0
 25 48  1  0
 26 49  1  0
 27 50  1  0
 28 51  1  0
M  END
>  <smiles>  (35) 
CSCC[C@H](NC(=O)CNC(=O)c1ccc2ccccc2n1)c1ccccc1

>  <score_type>  (35) 
oracle

>  <origin>  (35) 
autodockgpu

>  <m_score__min__energy>  (35) 
-8.6099999999999994

>  <m_primary>  (35) 
energy

>  <rmsd>  (35) 
4.202776692185865

>  <m_score__min__rmsd>  (35) 
4.202776692185865

>  <meeko>  (35) 
{"free_energy": -8.26, "intermolecular_energy": -10.64, "internal_energy": -1.77, "cluster_size": 15, "cluster_id": 2, "rank_in_cluster": 4}

>  <energy>  (35) 
-7.06

>  <cluster_rmsd>  (35) 
1.47

>  <cluster>  (35) 
4

$$$$

     RDKit          3D

 51 53  0  0  0  0  0  0  0  0999 V2000
  138.6160   81.2060  223.0550 C   0  0  0  0  0  0  0  0  0  0  0  0
  139.2790   79.6310  223.6260 S   0  0  0  0  0  0  0  0  0  0  0  0
  141.0590   79.7290  223.8510 C   0  0  0  0  0  0  0  0  0  0  0  0
  141.7960   78.5860  223.1670 C   0  0  0  0  0  0  0  0  0  0  0  0
  140.9800   78.1800  221.9650 C   0  0  2  0  0  0  0  0  0  0  0  0
  141.1010   76.7810  221.6410 N   0  0  0  0  0  0  0  0  0  0  0  0
  140.0320   75.8840  221.4940 C   0  0  0  0  0  0  0  0  0  0  0  0
  138.8420   76.3200  221.6580 O   0  0  0  0  0  0  0  0  0  0  0  0
  140.2220   74.4580  221.1580 C   0  0  0  0  0  0  0  0  0  0  0  0
  140.0390   73.6130  222.3070 N   0  0  0  0  0  0  0  0  0  0  0  0
  140.5080   72.2840  222.4090 C   0  0  0  0  0  0  0  0  0  0  0  0
  141.1380   71.7960  221.4150 O   0  0  0  0  0  0  0  0  0  0  0  0
  140.2750   71.4960  223.6230 C   0  0  0  0  0  0  0  0  0  0  0  0
  139.5760   70.3290  223.5690 C   0  0  0  0  0  0  0  0  0  0  0  0
  139.3430   69.5710  224.7010 C   0  0  0  0  0  0  0  0  0  0  0  0
  139.8530   70.0540  225.8870 C   0  0  0  0  0  0  0  0  0  0  0  0
  139.6790   69.3790  227.0690 C   0  0  0  0  0  0  0  0  0  0  0  0
  140.1720   69.8300  228.2640 C   0  0  0  0  0  0  0  0  0  0  0  0
  140.8870   71.0110  228.3450 C   0  0  0  0  0  0  0  0  0  0  0  0
  141.0640   71.6960  227.1520 C   0  0  0  0  0  0  0  0  0  0  0  0
  140.5700   71.2470  225.9480 C   0  0  0  0  0  0  0  0  0  0  0  0
  140.7510   71.9260  224.7940 N   0  0  0  0  0  0  0  0  0  0  0  0
  141.4230   78.9810  220.7880 C   0  0  0  0  0  0  0  0  0  0  0  0
  141.8860   78.3720  219.6210 C   0  0  0  0  0  0  0  0  0  0  0  0
  142.2980   79.1390  218.5300 C   0  0  0  0  0  0  0  0  0  0  0  0
  142.2590   80.5220  218.5810 C   0  0  0  0  0  0  0  0  0  0  0  0
  141.7940   81.1180  219.7550 C   0  0  0  0  0  0  0  0  0  0  0  0
  141.3850   80.3670  220.8330 C   0  0  0  0  0  0  0  0  0  0  0  0
  138.3536   81.8295  223.9224 H   0  0  0  0  0  0  0  0  0  0  0  0
  139.3726   81.7235  222.4470 H   0  0  0  0  0  0  0  0  0  0  0  0
  137.7170   81.0266  222.4470 H   0  0  0  0  0  0  0  0  0  0  0  0
  141.4160   80.6808  223.4307 H   0  0  0  0  0  0  0  0  0  0  0  0
  141.2642   79.6615  224.9296 H   0  0  0  0  0  0  0  0  0  0  0  0
  142.7947   78.9195  222.8485 H   0  0  0  0  0  0  0  0  0  0  0  0
  141.9227   77.7376  223.8556 H   0  0  0  0  0  0  0  0  0  0  0  0
  139.9251   78.3681  222.2137 H   0  0  0  0  0  0  0  0  0  0  0  0
  142.0830   76.4140  221.5060 H   0  0  0  0  0  0  0  0  0  0  0  0
  139.4921   74.1732  220.3859 H   0  0  0  0  0  0  0  0  0  0  0  0
  141.2517   74.3251  220.7945 H   0  0  0  0  0  0  0  0  0  0  0  0
  139.5190   73.9900  223.1520 H   0  0  0  0  0  0  0  0  0  0  0  0
  139.1871   69.9808  222.6007 H   0  0  0  0  0  0  0  0  0  0  0  0
  138.7781   68.6282  224.6576 H   0  0  0  0  0  0  0  0  0  0  0  0
  139.1181   68.4328  227.0558 H   0  0  0  0  0  0  0  0  0  0  0  0
  139.9961   69.2419  229.1768 H   0  0  0  0  0  0  0  0  0  0  0  0
  141.2908   71.3844  229.2976 H   0  0  0  0  0  0  0  0  0  0  0  0
  141.6251   72.6420  227.1687 H   0  0  0  0  0  0  0  0  0  0  0  0
  141.9268   77.2744  219.5601 H   0  0  0  0  0  0  0  0  0  0  0  0
  142.6579   78.6387  217.6189 H   0  0  0  0  0  0  0  0  0  0  0  0
  142.5837   81.1314  217.7247 H   0  0  0  0  0  0  0  0  0  0  0  0
  141.7537   82.2153  219.8197 H   0  0  0  0  0  0  0  0  0  0  0  0
  141.0236   80.8716  221.7412 H   0  0  0  0  0  0  0  0  0  0  0  0
  1  2  1  0
  2  3  1  0
  3  4  1  0
  4  5  1  0
  5  6  1  0
  6  7  1  0
  7  8  2  0
  7  9  1  0
  9 10  1  0
 10 11  1  0
 11 12  2  0
 11 13  1  0
 13 14  2  0
 14 15  1  0
 15 16  2  0
 16 17  1  0
 17 18  2  0
 18 19  1  0
 19 20  2  0
 20 21  1  0
 21 22  2  0
  5 23  1  0
 23 24  2  0
 24 25  1  0
 25 26  2  0
 26 27  1  0
 27 28  2  0
 22 13  1  0
 28 23  1  0
 21 16  1  0
  1 29  1  0
  1 30  1  0
  1 31  1  0
  3 32  1  0
  3 33  1  0
  4 34  1  0
  4 35  1  0
  5 36  1  1
  6 37  1  0
  9 38  1  0
  9 39  1  0
 10 40  1  0
 14 41  1  0
 15 42  1  0
 17 43  1  0
 18 44  1  0
 19 45  1  0
 20 46  1  0
 24 47  1  0
 25 48  1  0
 26 49  1  0
 27 50  1  0
 28 51  1  0
M  END
>  <smiles>  (36) 
CSCC[C@H](NC(=O)CNC(=O)c1ccc2ccccc2n1)c1ccccc1

>  <score_type>  (36) 
oracle

>  <origin>  (36) 
autodockgpu

>  <m_score__min__energy>  (36) 
-8.6099999999999994

>  <m_primary>  (36) 
energy

>  <rmsd>  (36) 
3.745412268918576

>  <m_score__min__rmsd>  (36) 
3.745412268918576

>  <meeko>  (36) 
{"free_energy": -8.53, "intermolecular_energy": -10.92, "internal_energy": -1.36, "cluster_size": 15, "cluster_id": 2, "rank_in_cluster": 2}

>  <energy>  (36) 
-7.06

>  <cluster_rmsd>  (36) 
1.44

>  <cluster>  (36) 
4

$$$$

     RDKit          3D

 51 53  0  0  0  0  0  0  0  0999 V2000
  140.2960   68.8770  228.0510 C   0  0  0  0  0  0  0  0  0  0  0  0
  140.6510   70.6090  227.7070 S   0  0  0  0  0  0  0  0  0  0  0  0
  141.3550   70.8050  226.0650 C   0  0  0  0  0  0  0  0  0  0  0  0
  140.6860   71.9200  225.2740 C   0  0  0  0  0  0  0  0  0  0  0  0
  140.2220   71.3270  223.9670 C   0  0  2  0  0  0  0  0  0  0  0  0
  140.1290   72.2960  222.9030 N   0  0  0  0  0  0  0  0  0  0  0  0
  140.8940   72.2880  221.7270 C   0  0  0  0  0  0  0  0  0  0  0  0
  141.7520   71.3560  221.5620 O   0  0  0  0  0  0  0  0  0  0  0  0
  140.7500   73.3110  220.6700 C   0  0  0  0  0  0  0  0  0  0  0  0
  140.7970   74.6420  221.2120 N   0  0  0  0  0  0  0  0  0  0  0  0
  139.6970   75.3100  221.7970 C   0  0  0  0  0  0  0  0  0  0  0  0
  138.5840   74.6910  221.8500 O   0  0  0  0  0  0  0  0  0  0  0  0
  139.8370   76.6700  222.3250 C   0  0  0  0  0  0  0  0  0  0  0  0
  138.7450   77.3720  222.7330 C   0  0  0  0  0  0  0  0  0  0  0  0
  138.8540   78.6560  223.2320 C   0  0  0  0  0  0  0  0  0  0  0  0
  140.1220   79.1910  223.2970 C   0  0  0  0  0  0  0  0  0  0  0  0
  140.3420   80.4580  223.7770 C   0  0  0  0  0  0  0  0  0  0  0  0
  141.5880   81.0190  223.8560 C   0  0  0  0  0  0  0  0  0  0  0  0
  142.7140   80.3260  223.4490 C   0  0  0  0  0  0  0  0  0  0  0  0
  142.4950   79.0450  222.9630 C   0  0  0  0  0  0  0  0  0  0  0  0
  141.2450   78.4770  222.8820 C   0  0  0  0  0  0  0  0  0  0  0  0
  141.0470   77.2270  222.4060 N   0  0  0  0  0  0  0  0  0  0  0  0
  138.8790   70.7110  224.1660 C   0  0  0  0  0  0  0  0  0  0  0  0
  138.7180   69.5160  224.8690 C   0  0  0  0  0  0  0  0  0  0  0  0
  137.4530   68.9540  225.0430 C   0  0  0  0  0  0  0  0  0  0  0  0
  136.3270   69.5680  224.5220 C   0  0  0  0  0  0  0  0  0  0  0  0
  136.5020   70.7620  223.8200 C   0  0  0  0  0  0  0  0  0  0  0  0
  137.7460   71.3220  223.6460 C   0  0  0  0  0  0  0  0  0  0  0  0
  140.2635   68.7184  229.1390 H   0  0  0  0  0  0  0  0  0  0  0  0
  139.3240   68.6077  227.6120 H   0  0  0  0  0  0  0  0  0  0  0  0
  141.0837   68.2471  227.6120 H   0  0  0  0  0  0  0  0  0  0  0  0
  142.4256   71.0369  226.1654 H   0  0  0  0  0  0  0  0  0  0  0  0
  141.1949   69.8642  225.5179 H   0  0  0  0  0  0  0  0  0  0  0  0
  139.8259   72.3153  225.8344 H   0  0  0  0  0  0  0  0  0  0  0  0
  141.3883   72.7481  225.0982 H   0  0  0  0  0  0  0  0  0  0  0  0
  140.9737   70.5819  223.6673 H   0  0  0  0  0  0  0  0  0  0  0  0
  139.4220   73.0700  223.0340 H   0  0  0  0  0  0  0  0  0  0  0  0
  141.5679   73.1920  219.9442 H   0  0  0  0  0  0  0  0  0  0  0  0
  139.7721   73.1707  220.1862 H   0  0  0  0  0  0  0  0  0  0  0  0
  141.7090   75.1830  221.1840 H   0  0  0  0  0  0  0  0  0  0  0  0
  137.7510   76.9059  222.6639 H   0  0  0  0  0  0  0  0  0  0  0  0
  137.9711   79.2235  223.5614 H   0  0  0  0  0  0  0  0  0  0  0  0
  139.4777   81.0494  224.1134 H   0  0  0  0  0  0  0  0  0  0  0  0
  141.6960   82.0401  224.2505 H   0  0  0  0  0  0  0  0  0  0  0  0
  143.7215   80.7638  223.5071 H   0  0  0  0  0  0  0  0  0  0  0  0
  143.3613   78.4564  222.6269 H   0  0  0  0  0  0  0  0  0  0  0  0
  139.5994   69.0111  225.2911 H   0  0  0  0  0  0  0  0  0  0  0  0
  137.3491   68.0117  225.6009 H   0  0  0  0  0  0  0  0  0  0  0  0
  135.3272   69.1295  224.6567 H   0  0  0  0  0  0  0  0  0  0  0  0
  135.6224   71.2678  223.3952 H   0  0  0  0  0  0  0  0  0  0  0  0
  137.8444   72.2650  223.0883 H   0  0  0  0  0  0  0  0  0  0  0  0
  1  2  1  0
  2  3  1  0
  3  4  1  0
  4  5  1  0
  5  6  1  0
  6  7  1  0
  7  8  2  0
  7  9  1  0
  9 10  1  0
 10 11  1  0
 11 12  2  0
 11 13  1  0
 13 14  2  0
 14 15  1  0
 15 16  2  0
 16 17  1  0
 17 18  2  0
 18 19  1  0
 19 20  2  0
 20 21  1  0
 21 22  2  0
  5 23  1  0
 23 24  2  0
 24 25  1  0
 25 26  2  0
 26 27  1  0
 27 28  2  0
 22 13  1  0
 28 23  1  0
 21 16  1  0
  1 29  1  0
  1 30  1  0
  1 31  1  0
  3 32  1  0
  3 33  1  0
  4 34  1  0
  4 35  1  0
  5 36  1  6
  6 37  1  0
  9 38  1  0
  9 39  1  0
 10 40  1  0
 14 41  1  0
 15 42  1  0
 17 43  1  0
 18 44  1  0
 19 45  1  0
 20 46  1  0
 24 47  1  0
 25 48  1  0
 26 49  1  0
 27 50  1  0
 28 51  1  0
M  END
>  <smiles>  (37) 
CSCC[C@H](NC(=O)CNC(=O)c1ccc2ccccc2n1)c1ccccc1

>  <score_type>  (37) 
oracle

>  <origin>  (37) 
autodockgpu

>  <m_score__min__energy>  (37) 
-8.6099999999999994

>  <m_primary>  (37) 
energy

>  <rmsd>  (37) 
9.45933886302228

>  <m_score__min__rmsd>  (37) 
9.45933886302228

>  <meeko>  (37) 
{"free_energy": -7.31, "intermolecular_energy": -9.69, "internal_energy": -2.41, "cluster_size": 4, "cluster_id": 6, "rank_in_cluster": 3}

>  <energy>  (37) 
-7.05

>  <cluster_rmsd>  (37) 
1.45

>  <cluster>  (37) 
4

$$$$

     RDKit          3D

 51 53  0  0  0  0  0  0  0  0999 V2000
  141.4560   82.0550  222.3070 C   0  0  0  0  0  0  0  0  0  0  0  0
  141.6590   80.7450  223.5270 S   0  0  0  0  0  0  0  0  0  0  0  0
  140.6440   79.3210  223.1120 C   0  0  0  0  0  0  0  0  0  0  0  0
  141.4270   78.2420  222.3770 C   0  0  0  0  0  0  0  0  0  0  0  0
  140.6950   77.9540  221.0900 C   0  0  2  0  0  0  0  0  0  0  0  0
  140.6380   76.5500  220.7690 N   0  0  0  0  0  0  0  0  0  0  0  0
  140.0930   75.5500  221.5890 C   0  0  0  0  0  0  0  0  0  0  0  0
  139.6030   75.8860  222.7200 O   0  0  0  0  0  0  0  0  0  0  0  0
  140.0630   74.1240  221.2010 C   0  0  0  0  0  0  0  0  0  0  0  0
  139.9330   73.2660  222.3480 N   0  0  0  0  0  0  0  0  0  0  0  0
  140.2400   71.8860  222.3570 C   0  0  0  0  0  0  0  0  0  0  0  0
  140.6600   71.3620  221.2730 O   0  0  0  0  0  0  0  0  0  0  0  0
  140.0770   71.0870  223.5750 C   0  0  0  0  0  0  0  0  0  0  0  0
  139.4940   69.8580  223.5260 C   0  0  0  0  0  0  0  0  0  0  0  0
  139.3290   69.0890  224.6620 C   0  0  0  0  0  0  0  0  0  0  0  0
  139.7830   69.6270  225.8470 C   0  0  0  0  0  0  0  0  0  0  0  0
  139.6690   68.9470  227.0340 C   0  0  0  0  0  0  0  0  0  0  0  0
  140.1100   69.4510  228.2270 C   0  0  0  0  0  0  0  0  0  0  0  0
  140.7060   70.6970  228.3040 C   0  0  0  0  0  0  0  0  0  0  0  0
  140.8230   71.3870  227.1060 C   0  0  0  0  0  0  0  0  0  0  0  0
  140.3820   70.8840  225.9030 C   0  0  0  0  0  0  0  0  0  0  0  0
  140.5030   71.5690  224.7450 N   0  0  0  0  0  0  0  0  0  0  0  0
  141.3800   78.6680  219.9750 C   0  0  0  0  0  0  0  0  0  0  0  0
  142.1980   77.9940  219.0670 C   0  0  0  0  0  0  0  0  0  0  0  0
  142.8320   78.6810  218.0300 C   0  0  0  0  0  0  0  0  0  0  0  0
  142.6660   80.0470  217.8790 C   0  0  0  0  0  0  0  0  0  0  0  0
  141.8460   80.7090  218.7950 C   0  0  0  0  0  0  0  0  0  0  0  0
  141.2170   80.0380  219.8180 C   0  0  0  0  0  0  0  0  0  0  0  0
  141.3071   83.0156  222.8218 H   0  0  0  0  0  0  0  0  0  0  0  0
  142.3560   82.1122  221.6772 H   0  0  0  0  0  0  0  0  0  0  0  0
  140.5809   81.8371  221.6772 H   0  0  0  0  0  0  0  0  0  0  0  0
  140.2401   78.8928  224.0412 H   0  0  0  0  0  0  0  0  0  0  0  0
  139.8413   79.6658  222.4435 H   0  0  0  0  0  0  0  0  0  0  0  0
  142.4449   78.5978  222.1595 H   0  0  0  0  0  0  0  0  0  0  0  0
  141.5073   77.3328  222.9910 H   0  0  0  0  0  0  0  0  0  0  0  0
  139.6601   78.3018  221.2242 H   0  0  0  0  0  0  0  0  0  0  0  0
  141.0430   76.2650  219.8360 H   0  0  0  0  0  0  0  0  0  0  0  0
  139.2082   73.9546  220.5297 H   0  0  0  0  0  0  0  0  0  0  0  0
  141.0113   73.8843  220.6977 H   0  0  0  0  0  0  0  0  0  0  0  0
  139.5860   73.6720  223.2650 H   0  0  0  0  0  0  0  0  0  0  0  0
  139.1457   69.4675  222.5584 H   0  0  0  0  0  0  0  0  0  0  0  0
  138.8582   68.0956  224.6226 H   0  0  0  0  0  0  0  0  0  0  0  0
  139.2017   67.9512  227.0256 H   0  0  0  0  0  0  0  0  0  0  0  0
  139.9883   68.8538  229.1428 H   0  0  0  0  0  0  0  0  0  0  0  0
  141.0649   71.1149  229.2561 H   0  0  0  0  0  0  0  0  0  0  0  0
  141.2901   72.3828  227.1181 H   0  0  0  0  0  0  0  0  0  0  0  0
  142.3449   76.9087  219.1696 H   0  0  0  0  0  0  0  0  0  0  0  0
  143.4712   78.1301  217.3244 H   0  0  0  0  0  0  0  0  0  0  0  0
  143.1638   80.5930  217.0641 H   0  0  0  0  0  0  0  0  0  0  0  0
  141.6992   81.7947  218.6961 H   0  0  0  0  0  0  0  0  0  0  0  0
  140.5774   80.5933  220.5199 H   0  0  0  0  0  0  0  0  0  0  0  0
  1  2  1  0
  2  3  1  0
  3  4  1  0
  4  5  1  0
  5  6  1  0
  6  7  1  0
  7  8  2  0
  7  9  1  0
  9 10  1  0
 10 11  1  0
 11 12  2  0
 11 13  1  0
 13 14  2  0
 14 15  1  0
 15 16  2  0
 16 17  1  0
 17 18  2  0
 18 19  1  0
 19 20  2  0
 20 21  1  0
 21 22  2  0
  5 23  1  0
 23 24  2  0
 24 25  1  0
 25 26  2  0
 26 27  1  0
 27 28  2  0
 22 13  1  0
 28 23  1  0
 21 16  1  0
  1 29  1  0
  1 30  1  0
  1 31  1  0
  3 32  1  0
  3 33  1  0
  4 34  1  0
  4 35  1  0
  5 36  1  1
  6 37  1  0
  9 38  1  0
  9 39  1  0
 10 40  1  0
 14 41  1  0
 15 42  1  0
 17 43  1  0
 18 44  1  0
 19 45  1  0
 20 46  1  0
 24 47  1  0
 25 48  1  0
 26 49  1  0
 27 50  1  0
 28 51  1  0
M  END
>  <smiles>  (38) 
CSCC[C@H](NC(=O)CNC(=O)c1ccc2ccccc2n1)c1ccccc1

>  <score_type>  (38) 
oracle

>  <origin>  (38) 
autodockgpu

>  <m_score__min__energy>  (38) 
-8.6099999999999994

>  <m_primary>  (38) 
energy

>  <rmsd>  (38) 
4.023187880445667

>  <m_score__min__rmsd>  (38) 
4.023187880445667

>  <meeko>  (38) 
{"free_energy": -7.97, "intermolecular_energy": -10.36, "internal_energy": -1.77, "cluster_size": 15, "cluster_id": 2, "rank_in_cluster": 14}

>  <energy>  (38) 
-7.55

>  <cluster_rmsd>  (38) 
0.0

>  <cluster>  (38) 
5

$$$$

     RDKit          3D

 51 53  0  0  0  0  0  0  0  0999 V2000
  136.4860   74.4470  222.3900 C   0  0  0  0  0  0  0  0  0  0  0  0
  136.2020   72.7610  222.9560 S   0  0  0  0  0  0  0  0  0  0  0  0
  137.0260   71.5780  221.8840 C   0  0  0  0  0  0  0  0  0  0  0  0
  138.1760   70.8640  222.5800 C   0  0  0  0  0  0  0  0  0  0  0  0
  138.8740   71.8790  223.4500 C   0  0  2  0  0  0  0  0  0  0  0  0
  139.7390   72.7650  222.7110 N   0  0  0  0  0  0  0  0  0  0  0  0
  140.7120   72.3640  221.7830 C   0  0  0  0  0  0  0  0  0  0  0  0
  140.8650   71.1160  221.5570 O   0  0  0  0  0  0  0  0  0  0  0  0
  141.5670   73.3240  221.0540 C   0  0  0  0  0  0  0  0  0  0  0  0
  141.4340   74.6570  221.5780 N   0  0  0  0  0  0  0  0  0  0  0  0
  140.2350   75.4050  221.5710 C   0  0  0  0  0  0  0  0  0  0  0  0
  139.1970   74.8650  221.0650 O   0  0  0  0  0  0  0  0  0  0  0  0
  140.1920   76.7600  222.1290 C   0  0  0  0  0  0  0  0  0  0  0  0
  139.0050   77.3330  222.4700 C   0  0  0  0  0  0  0  0  0  0  0  0
  138.9410   78.6090  222.9960 C   0  0  0  0  0  0  0  0  0  0  0  0
  140.1370   79.2740  223.1570 C   0  0  0  0  0  0  0  0  0  0  0  0
  140.1860   80.5460  223.6710 C   0  0  0  0  0  0  0  0  0  0  0  0
  141.3560   81.2350  223.8450 C   0  0  0  0  0  0  0  0  0  0  0  0
  142.5750   80.6760  223.5070 C   0  0  0  0  0  0  0  0  0  0  0  0
  142.5290   79.3900  222.9870 C   0  0  0  0  0  0  0  0  0  0  0  0
  141.3550   78.6940  222.8100 C   0  0  0  0  0  0  0  0  0  0  0  0
  141.3260   77.4410  222.3020 N   0  0  0  0  0  0  0  0  0  0  0  0
  139.6910   71.1610  224.4700 C   0  0  0  0  0  0  0  0  0  0  0  0
  139.4910   69.8080  224.7470 C   0  0  0  0  0  0  0  0  0  0  0  0
  140.2650   69.1530  225.7070 C   0  0  0  0  0  0  0  0  0  0  0  0
  141.2490   69.8310  226.4070 C   0  0  0  0  0  0  0  0  0  0  0  0
  141.4380   71.1840  226.1190 C   0  0  0  0  0  0  0  0  0  0  0  0
  140.6790   71.8350  225.1740 C   0  0  0  0  0  0  0  0  0  0  0  0
  136.5979   75.1116  223.2593 H   0  0  0  0  0  0  0  0  0  0  0  0
  137.4024   74.4804  221.7825 H   0  0  0  0  0  0  0  0  0  0  0  0
  135.6311   74.7787  221.7825 H   0  0  0  0  0  0  0  0  0  0  0  0
  136.2915   70.8276  221.5561 H   0  0  0  0  0  0  0  0  0  0  0  0
  137.4441   72.1336  221.0317 H   0  0  0  0  0  0  0  0  0  0  0  0
  137.7887   70.0410  223.1986 H   0  0  0  0  0  0  0  0  0  0  0  0
  138.8728   70.4383  221.8430 H   0  0  0  0  0  0  0  0  0  0  0  0
  138.0907   72.4967  223.9135 H   0  0  0  0  0  0  0  0  0  0  0  0
  139.6180   73.7990  222.8940 H   0  0  0  0  0  0  0  0  0  0  0  0
  142.6166   73.0078  221.1453 H   0  0  0  0  0  0  0  0  0  0  0  0
  141.2499   73.3356  220.0008 H   0  0  0  0  0  0  0  0  0  0  0  0
  142.2790   75.1340  222.0060 H   0  0  0  0  0  0  0  0  0  0  0  0
  138.0739   76.7660  222.3231 H   0  0  0  0  0  0  0  0  0  0  0  0
  137.9820   79.0714  223.2727 H   0  0  0  0  0  0  0  0  0  0  0  0
  139.2422   81.0338  223.9560 H   0  0  0  0  0  0  0  0  0  0  0  0
  141.3260   82.2526  224.2616 H   0  0  0  0  0  0  0  0  0  0  0  0
  143.5229   81.2174  223.6420 H   0  0  0  0  0  0  0  0  0  0  0  0
  143.4745   78.9047  222.7033 H   0  0  0  0  0  0  0  0  0  0  0  0
  138.7144   69.2508  224.2026 H   0  0  0  0  0  0  0  0  0  0  0  0
  140.0911   68.0859  225.9097 H   0  0  0  0  0  0  0  0  0  0  0  0
  141.8614   69.3204  227.1648 H   0  0  0  0  0  0  0  0  0  0  0  0
  142.2138   71.7440  226.6617 H   0  0  0  0  0  0  0  0  0  0  0  0
  140.8573   72.9019  224.9742 H   0  0  0  0  0  0  0  0  0  0  0  0
  1  2  1  0
  2  3  1  0
  3  4  1  0
  4  5  1  0
  5  6  1  0
  6  7  1  0
  7  8  2  0
  7  9  1  0
  9 10  1  0
 10 11  1  0
 11 12  2  0
 11 13  1  0
 13 14  2  0
 14 15  1  0
 15 16  2  0
 16 17  1  0
 17 18  2  0
 18 19  1  0
 19 20  2  0
 20 21  1  0
 21 22  2  0
  5 23  1  0
 23 24  2  0
 24 25  1  0
 25 26  2  0
 26 27  1  0
 27 28  2  0
 22 13  1  0
 28 23  1  0
 21 16  1  0
  1 29  1  0
  1 30  1  0
  1 31  1  0
  3 32  1  0
  3 33  1  0
  4 34  1  0
  4 35  1  0
  5 36  1  1
  6 37  1  0
  9 38  1  0
  9 39  1  0
 10 40  1  0
 14 41  1  0
 15 42  1  0
 17 43  1  0
 18 44  1  0
 19 45  1  0
 20 46  1  0
 24 47  1  0
 25 48  1  0
 26 49  1  0
 27 50  1  0
 28 51  1  0
M  END
>  <smiles>  (39) 
CSCC[C@H](NC(=O)CNC(=O)c1ccc2ccccc2n1)c1ccccc1

>  <score_type>  (39) 
oracle

>  <origin>  (39) 
autodockgpu

>  <m_score__min__energy>  (39) 
-8.6099999999999994

>  <m_primary>  (39) 
energy

>  <rmsd>  (39) 
9.639027837163061

>  <m_score__min__rmsd>  (39) 
9.639027837163061

>  <meeko>  (39) 
{"free_energy": -7.06, "intermolecular_energy": -9.44, "internal_energy": -2.56, "cluster_size": 9, "cluster_id": 4, "rank_in_cluster": 7}

>  <energy>  (39) 
-7.43

>  <cluster_rmsd>  (39) 
0.67

>  <cluster>  (39) 
5

$$$$

     RDKit          3D

 51 53  0  0  0  0  0  0  0  0999 V2000
  138.1190   76.4750  222.6850 C   0  0  0  0  0  0  0  0  0  0  0  0
  139.6740   77.2790  222.2610 S   0  0  0  0  0  0  0  0  0  0  0  0
  140.9740   76.0650  222.0050 C   0  0  0  0  0  0  0  0  0  0  0  0
  141.5630   76.1290  220.6020 C   0  0  0  0  0  0  0  0  0  0  0  0
  141.5320   74.7300  220.0380 C   0  0  2  0  0  0  0  0  0  0  0  0
  140.4970   73.9070  220.6120 N   0  0  0  0  0  0  0  0  0  0  0  0
  139.1200   74.0540  220.3830 C   0  0  0  0  0  0  0  0  0  0  0  0
  138.7260   74.9880  219.6060 O   0  0  0  0  0  0  0  0  0  0  0  0
  138.1070   73.1740  221.0020 C   0  0  0  0  0  0  0  0  0  0  0  0
  138.5690   72.6300  222.2510 N   0  0  0  0  0  0  0  0  0  0  0  0
  139.5360   71.6070  222.3720 C   0  0  0  0  0  0  0  0  0  0  0  0
  140.0350   71.1290  221.3010 O   0  0  0  0  0  0  0  0  0  0  0  0
  139.9470   71.1130  223.6890 C   0  0  0  0  0  0  0  0  0  0  0  0
  140.6980   71.8890  224.5180 C   0  0  0  0  0  0  0  0  0  0  0  0
  141.0980   71.4430  225.7630 C   0  0  0  0  0  0  0  0  0  0  0  0
  140.7010   70.1730  226.1240 C   0  0  0  0  0  0  0  0  0  0  0  0
  141.0450   69.6340  227.3380 C   0  0  0  0  0  0  0  0  0  0  0  0
  140.6670   68.3780  227.7290 C   0  0  0  0  0  0  0  0  0  0  0  0
  139.9040   67.5690  226.9060 C   0  0  0  0  0  0  0  0  0  0  0  0
  139.5550   68.1120  225.6770 C   0  0  0  0  0  0  0  0  0  0  0  0
  139.9330   69.3740  225.2800 C   0  0  0  0  0  0  0  0  0  0  0  0
  139.5850   69.8890  224.0800 N   0  0  0  0  0  0  0  0  0  0  0  0
  142.8500   74.0800  220.2890 C   0  0  0  0  0  0  0  0  0  0  0  0
  142.9510   72.7190  220.5780 C   0  0  0  0  0  0  0  0  0  0  0  0
  144.1940   72.1280  220.8110 C   0  0  0  0  0  0  0  0  0  0  0  0
  145.3560   72.8800  220.7630 C   0  0  0  0  0  0  0  0  0  0  0  0
  145.2400   74.2400  220.4720 C   0  0  0  0  0  0  0  0  0  0  0  0
  144.0180   74.8280  220.2400 C   0  0  0  0  0  0  0  0  0  0  0  0
  138.0193   76.4235  223.7793 H   0  0  0  0  0  0  0  0  0  0  0  0
  137.2815   77.0531  222.2673 H   0  0  0  0  0  0  0  0  0  0  0  0
  138.1065   75.4575  222.2673 H   0  0  0  0  0  0  0  0  0  0  0  0
  141.7772   76.2492  222.7336 H   0  0  0  0  0  0  0  0  0  0  0  0
  140.5302   75.0671  222.1362 H   0  0  0  0  0  0  0  0  0  0  0  0
  140.9629   76.8021  219.9722 H   0  0  0  0  0  0  0  0  0  0  0  0
  142.5926   76.5151  220.6292 H   0  0  0  0  0  0  0  0  0  0  0  0
  141.3186   74.8211  218.9627 H   0  0  0  0  0  0  0  0  0  0  0  0
  140.8170   73.1340  221.2570 H   0  0  0  0  0  0  0  0  0  0  0  0
  137.1915   73.7562  221.1833 H   0  0  0  0  0  0  0  0  0  0  0  0
  137.9117   72.3380  220.3143 H   0  0  0  0  0  0  0  0  0  0  0  0
  138.1730   73.0070  223.1600 H   0  0  0  0  0  0  0  0  0  0  0  0
  140.9936   72.8960  224.1885 H   0  0  0  0  0  0  0  0  0  0  0  0
  141.7036   72.0705  226.4334 H   0  0  0  0  0  0  0  0  0  0  0  0
  141.6519   70.2386  228.0281 H   0  0  0  0  0  0  0  0  0  0  0  0
  140.9758   68.0046  228.7166 H   0  0  0  0  0  0  0  0  0  0  0  0
  139.5930   66.5577  227.2070 H   0  0  0  0  0  0  0  0  0  0  0  0
  138.9482   67.5053  224.9887 H   0  0  0  0  0  0  0  0  0  0  0  0
  142.0401   72.1040  220.6228 H   0  0  0  0  0  0  0  0  0  0  0  0
  144.2512   71.0526  221.0353 H   0  0  0  0  0  0  0  0  0  0  0  0
  146.3381   72.4204  220.9482 H   0  0  0  0  0  0  0  0  0  0  0  0
  146.1491   74.8577  220.4270 H   0  0  0  0  0  0  0  0  0  0  0  0
  143.9661   75.9031  220.0131 H   0  0  0  0  0  0  0  0  0  0  0  0
  1  2  1  0
  2  3  1  0
  3  4  1  0
  4  5  1  0
  5  6  1  0
  6  7  1  0
  7  8  2  0
  7  9  1  0
  9 10  1  0
 10 11  1  0
 11 12  2  0
 11 13  1  0
 13 14  2  0
 14 15  1  0
 15 16  2  0
 16 17  1  0
 17 18  2  0
 18 19  1  0
 19 20  2  0
 20 21  1  0
 21 22  2  0
  5 23  1  0
 23 24  2  0
 24 25  1  0
 25 26  2  0
 26 27  1  0
 27 28  2  0
 22 13  1  0
 28 23  1  0
 21 16  1  0
  1 29  1  0
  1 30  1  0
  1 31  1  0
  3 32  1  0
  3 33  1  0
  4 34  1  0
  4 35  1  0
  5 36  1  6
  6 37  1  0
  9 38  1  0
  9 39  1  0
 10 40  1  0
 14 41  1  0
 15 42  1  0
 17 43  1  0
 18 44  1  0
 19 45  1  0
 20 46  1  0
 24 47  1  0
 25 48  1  0
 26 49  1  0
 27 50  1  0
 28 51  1  0
M  END
>  <smiles>  (40) 
CSCC[C@H](NC(=O)CNC(=O)c1ccc2ccccc2n1)c1ccccc1

>  <score_type>  (40) 
oracle

>  <origin>  (40) 
autodockgpu

>  <m_score__min__energy>  (40) 
-8.6099999999999994

>  <m_primary>  (40) 
energy

>  <rmsd>  (40) 
6.004911051960413

>  <m_score__min__rmsd>  (40) 
6.004911051960413

>  <meeko>  (40) 
{"free_energy": -7.2, "intermolecular_energy": -9.59, "internal_energy": -2.4, "cluster_size": 5, "cluster_id": 3, "rank_in_cluster": 5}

>  <energy>  (40) 
-7.42

>  <cluster_rmsd>  (40) 
0.68

>  <cluster>  (40) 
5

$$$$

     RDKit          3D

 51 53  0  0  0  0  0  0  0  0999 V2000
  136.1710   71.9910  223.8030 C   0  0  0  0  0  0  0  0  0  0  0  0
  135.2210   73.4400  224.2940 S   0  0  0  0  0  0  0  0  0  0  0  0
  135.3810   74.7530  223.0770 C   0  0  0  0  0  0  0  0  0  0  0  0
  136.5620   75.6710  223.3620 C   0  0  0  0  0  0  0  0  0  0  0  0
  137.4990   75.5750  222.1840 C   0  0  2  0  0  0  0  0  0  0  0  0
  138.0070   74.2440  221.9670 N   0  0  0  0  0  0  0  0  0  0  0  0
  137.7930   73.4690  220.8160 C   0  0  0  0  0  0  0  0  0  0  0  0
  137.0930   73.9620  219.8680 O   0  0  0  0  0  0  0  0  0  0  0  0
  138.3440   72.1070  220.6530 C   0  0  0  0  0  0  0  0  0  0  0  0
  138.6710   71.5130  221.9210 N   0  0  0  0  0  0  0  0  0  0  0  0
  139.7200   71.9470  222.7630 C   0  0  0  0  0  0  0  0  0  0  0  0
  140.4270   72.9330  222.3760 O   0  0  0  0  0  0  0  0  0  0  0  0
  139.9810   71.2790  224.0420 C   0  0  0  0  0  0  0  0  0  0  0  0
  140.7130   71.8960  225.0100 C   0  0  0  0  0  0  0  0  0  0  0  0
  140.9730   71.2840  226.2220 C   0  0  0  0  0  0  0  0  0  0  0  0
  140.4560   70.0200  226.4020 C   0  0  0  0  0  0  0  0  0  0  0  0
  140.6550   69.3240  227.5680 C   0  0  0  0  0  0  0  0  0  0  0  0
  140.1560   68.0670  227.7800 C   0  0  0  0  0  0  0  0  0  0  0  0
  139.4090   67.4180  226.8130 C   0  0  0  0  0  0  0  0  0  0  0  0
  139.2060   68.1200  225.6330 C   0  0  0  0  0  0  0  0  0  0  0  0
  139.7060   69.3830  225.4150 C   0  0  0  0  0  0  0  0  0  0  0  0
  139.5000   70.0530  224.2600 N   0  0  0  0  0  0  0  0  0  0  0  0
  138.6530   76.4920  222.4090 C   0  0  0  0  0  0  0  0  0  0  0  0
  139.9720   76.0560  222.2790 C   0  0  0  0  0  0  0  0  0  0  0  0
  141.0380   76.9290  222.4960 C   0  0  0  0  0  0  0  0  0  0  0  0
  140.8130   78.2490  222.8470 C   0  0  0  0  0  0  0  0  0  0  0  0
  139.4890   78.6730  222.9740 C   0  0  0  0  0  0  0  0  0  0  0  0
  138.4330   77.8170  222.7610 C   0  0  0  0  0  0  0  0  0  0  0  0
  136.5195   71.4595  224.7008 H   0  0  0  0  0  0  0  0  0  0  0  0
  135.5358   71.3218  223.2041 H   0  0  0  0  0  0  0  0  0  0  0  0
  137.0380   72.3067  223.2041 H   0  0  0  0  0  0  0  0  0  0  0  0
  135.5183   74.2992  222.0844 H   0  0  0  0  0  0  0  0  0  0  0  0
  134.4660   75.3621  223.1200 H   0  0  0  0  0  0  0  0  0  0  0  0
  136.2130   76.7072  223.4819 H   0  0  0  0  0  0  0  0  0  0  0  0
  137.0716   75.3733  224.2903 H   0  0  0  0  0  0  0  0  0  0  0  0
  136.9214   75.8550  221.2907 H   0  0  0  0  0  0  0  0  0  0  0  0
  138.5860   73.8290  222.7480 H   0  0  0  0  0  0  0  0  0  0  0  0
  137.5972   71.4781  220.1462 H   0  0  0  0  0  0  0  0  0  0  0  0
  139.2666   72.1780  220.0582 H   0  0  0  0  0  0  0  0  0  0  0  0
  138.1010   70.6900  222.2720 H   0  0  0  0  0  0  0  0  0  0  0  0
  141.1070   72.9059  224.8232 H   0  0  0  0  0  0  0  0  0  0  0  0
  141.5640   71.7822  227.0046 H   0  0  0  0  0  0  0  0  0  0  0  0
  141.2421   69.7977  228.3685 H   0  0  0  0  0  0  0  0  0  0  0  0
  140.3528   67.5631  228.7378 H   0  0  0  0  0  0  0  0  0  0  0  0
  139.0013   66.4084  226.9697 H   0  0  0  0  0  0  0  0  0  0  0  0
  138.6177   67.6442  224.8346 H   0  0  0  0  0  0  0  0  0  0  0  0
  140.1737   75.0108  222.0019 H   0  0  0  0  0  0  0  0  0  0  0  0
  142.0700   76.5641  222.3869 H   0  0  0  0  0  0  0  0  0  0  0  0
  141.6501   78.9412  223.0202 H   0  0  0  0  0  0  0  0  0  0  0  0
  139.2848   79.7177  223.2513 H   0  0  0  0  0  0  0  0  0  0  0  0
  137.4028   78.1866  222.8708 H   0  0  0  0  0  0  0  0  0  0  0  0
  1  2  1  0
  2  3  1  0
  3  4  1  0
  4  5  1  0
  5  6  1  0
  6  7  1  0
  7  8  2  0
  7  9  1  0
  9 10  1  0
 10 11  1  0
 11 12  2  0
 11 13  1  0
 13 14  2  0
 14 15  1  0
 15 16  2  0
 16 17  1  0
 17 18  2  0
 18 19  1  0
 19 20  2  0
 20 21  1  0
 21 22  2  0
  5 23  1  0
 23 24  2  0
 24 25  1  0
 25 26  2  0
 26 27  1  0
 27 28  2  0
 22 13  1  0
 28 23  1  0
 21 16  1  0
  1 29  1  0
  1 30  1  0
  1 31  1  0
  3 32  1  0
  3 33  1  0
  4 34  1  0
  4 35  1  0
  5 36  1  6
  6 37  1  0
  9 38  1  0
  9 39  1  0
 10 40  1  0
 14 41  1  0
 15 42  1  0
 17 43  1  0
 18 44  1  0
 19 45  1  0
 20 46  1  0
 24 47  1  0
 25 48  1  0
 26 49  1  0
 27 50  1  0
 28 51  1  0
M  END
>  <smiles>  (41) 
CSCC[C@H](NC(=O)CNC(=O)c1ccc2ccccc2n1)c1ccccc1

>  <score_type>  (41) 
oracle

>  <origin>  (41) 
autodockgpu

>  <m_score__min__energy>  (41) 
-8.6099999999999994

>  <m_primary>  (41) 
energy

>  <rmsd>  (41) 
4.840741758823816

>  <m_score__min__rmsd>  (41) 
4.840741758823816

>  <meeko>  (41) 
{"free_energy": -7.19, "intermolecular_energy": -9.58, "internal_energy": -2.78, "cluster_size": 7, "cluster_id": 5, "rank_in_cluster": 5}

>  <energy>  (41) 
-7.22

>  <cluster_rmsd>  (41) 
0.68

>  <cluster>  (41) 
5

$$$$

     RDKit          3D

 51 53  0  0  0  0  0  0  0  0999 V2000
  145.4790   70.8540  218.9640 C   0  0  0  0  0  0  0  0  0  0  0  0
  143.8590   71.3100  219.6040 S   0  0  0  0  0  0  0  0  0  0  0  0
  143.9990   72.6090  220.8380 C   0  0  0  0  0  0  0  0  0  0  0  0
  144.4980   73.9210  220.2480 C   0  0  0  0  0  0  0  0  0  0  0  0
  143.3470   74.8960  220.2850 C   0  0  2  0  0  0  0  0  0  0  0  0
  142.0650   74.2580  220.4510 N   0  0  0  0  0  0  0  0  0  0  0  0
  140.8940   74.8900  220.8960 C   0  0  0  0  0  0  0  0  0  0  0  0
  140.9420   76.1330  221.1850 O   0  0  0  0  0  0  0  0  0  0  0  0
  139.6060   74.1790  221.0430 C   0  0  0  0  0  0  0  0  0  0  0  0
  139.5860   73.3590  222.2240 N   0  0  0  0  0  0  0  0  0  0  0  0
  140.2830   72.1370  222.3650 C   0  0  0  0  0  0  0  0  0  0  0  0
  140.9780   71.7300  221.3770 O   0  0  0  0  0  0  0  0  0  0  0  0
  140.2050   71.3660  223.6080 C   0  0  0  0  0  0  0  0  0  0  0  0
  139.6610   70.1180  223.6180 C   0  0  0  0  0  0  0  0  0  0  0  0
  139.5760   69.3740  224.7800 C   0  0  0  0  0  0  0  0  0  0  0  0
  140.0670   69.9570  225.9270 C   0  0  0  0  0  0  0  0  0  0  0  0
  140.0320   69.3040  227.1340 C   0  0  0  0  0  0  0  0  0  0  0  0
  140.5120   69.8540  228.2930 C   0  0  0  0  0  0  0  0  0  0  0  0
  141.0690   71.1200  228.3100 C   0  0  0  0  0  0  0  0  0  0  0  0
  141.1060   71.7820  227.0910 C   0  0  0  0  0  0  0  0  0  0  0  0
  140.6250   71.2340  225.9240 C   0  0  0  0  0  0  0  0  0  0  0  0
  140.6690   71.8920  224.7440 N   0  0  0  0  0  0  0  0  0  0  0  0
  143.3310   75.6710  219.0120 C   0  0  0  0  0  0  0  0  0  0  0  0
  142.9520   77.0130  218.9760 C   0  0  0  0  0  0  0  0  0  0  0  0
  142.9410   77.7210  217.7740 C   0  0  0  0  0  0  0  0  0  0  0  0
  143.3050   77.1080  216.5870 C   0  0  0  0  0  0  0  0  0  0  0  0
  143.6820   75.7650  216.6370 C   0  0  0  0  0  0  0  0  0  0  0  0
  143.6960   75.0610  217.8190 C   0  0  0  0  0  0  0  0  0  0  0  0
  146.1637   70.6613  219.8030 H   0  0  0  0  0  0  0  0  0  0  0  0
  145.3881   69.9465  218.3490 H   0  0  0  0  0  0  0  0  0  0  0  0
  145.8748   71.6756  218.3490 H   0  0  0  0  0  0  0  0  0  0  0  0
  143.0090   72.7777  221.2867 H   0  0  0  0  0  0  0  0  0  0  0  0
  144.7320   72.2795  221.5891 H   0  0  0  0  0  0  0  0  0  0  0  0
  145.3376   74.3069  220.8448 H   0  0  0  0  0  0  0  0  0  0  0  0
  144.8516   73.7748  219.2167 H   0  0  0  0  0  0  0  0  0  0  0  0
  143.5039   75.5464  221.1581 H   0  0  0  0  0  0  0  0  0  0  0  0
  142.0190   73.2290  220.2150 H   0  0  0  0  0  0  0  0  0  0  0  0
  138.7950   74.9193  221.1086 H   0  0  0  0  0  0  0  0  0  0  0  0
  139.4717   73.5258  220.1682 H   0  0  0  0  0  0  0  0  0  0  0  0
  139.0170   73.6700  223.0640 H   0  0  0  0  0  0  0  0  0  0  0  0
  139.2798   69.6913  222.6785 H   0  0  0  0  0  0  0  0  0  0  0  0
  139.1375   68.3652  224.7881 H   0  0  0  0  0  0  0  0  0  0  0  0
  139.5990   68.2935  227.1721 H   0  0  0  0  0  0  0  0  0  0  0  0
  140.4534   69.2778  229.2282 H   0  0  0  0  0  0  0  0  0  0  0  0
  141.4586   71.5741  229.2330 H   0  0  0  0  0  0  0  0  0  0  0  0
  141.5402   72.7921  227.0559 H   0  0  0  0  0  0  0  0  0  0  0  0
  142.6581   77.5194  219.9072 H   0  0  0  0  0  0  0  0  0  0  0  0
  142.6395   78.7789  217.7692 H   0  0  0  0  0  0  0  0  0  0  0  0
  143.2973   77.6610  215.6362 H   0  0  0  0  0  0  0  0  0  0  0  0
  143.9756   75.2561  215.7070 H   0  0  0  0  0  0  0  0  0  0  0  0
  143.9995   74.0037  217.8191 H   0  0  0  0  0  0  0  0  0  0  0  0
  1  2  1  0
  2  3  1  0
  3  4  1  0
  4  5  1  0
  5  6  1  0
  6  7  1  0
  7  8  2  0
  7  9  1  0
  9 10  1  0
 10 11  1  0
 11 12  2  0
 11 13  1  0
 13 14  2  0
 14 15  1  0
 15 16  2  0
 16 17  1  0
 17 18  2  0
 18 19  1  0
 19 20  2  0
 20 21  1  0
 21 22  2  0
  5 23  1  0
 23 24  2  0
 24 25  1  0
 25 26  2  0
 26 27  1  0
 27 28  2  0
 22 13  1  0
 28 23  1  0
 21 16  1  0
  1 29  1  0
  1 30  1  0
  1 31  1  0
  3 32  1  0
  3 33  1  0
  4 34  1  0
  4 35  1  0
  5 36  1  1
  6 37  1  0
  9 38  1  0
  9 39  1  0
 10 40  1  0
 14 41  1  0
 15 42  1  0
 17 43  1  0
 18 44  1  0
 19 45  1  0
 20 46  1  0
 24 47  1  0
 25 48  1  0
 26 49  1  0
 27 50  1  0
 28 51  1  0
M  END
>  <smiles>  (42) 
CSCC[C@H](NC(=O)CNC(=O)c1ccc2ccccc2n1)c1ccccc1

>  <score_type>  (42) 
oracle

>  <origin>  (42) 
autodockgpu

>  <m_score__min__energy>  (42) 
-8.6099999999999994

>  <m_primary>  (42) 
energy

>  <rmsd>  (42) 
5.53865770156229

>  <m_score__min__rmsd>  (42) 
5.53865770156229

>  <meeko>  (42) 
{"free_energy": -7.31, "intermolecular_energy": -9.7, "internal_energy": -2.34, "cluster_size": 1, "cluster_id": 7, "rank_in_cluster": 1}

>  <energy>  (42) 
-7.19

>  <cluster_rmsd>  (42) 
1.03

>  <cluster>  (42) 
5

$$$$

     RDKit          3D

 51 53  0  0  0  0  0  0  0  0999 V2000
  138.5050   80.4370  224.2150 C   0  0  0  0  0  0  0  0  0  0  0  0
  138.2270   80.1540  222.4590 S   0  0  0  0  0  0  0  0  0  0  0  0
  137.8940   78.4180  222.1340 C   0  0  0  0  0  0  0  0  0  0  0  0
  138.9660   77.5020  222.7090 C   0  0  0  0  0  0  0  0  0  0  0  0
  140.1450   77.5460  221.7700 C   0  0  2  0  0  0  0  0  0  0  0  0
  140.8430   76.2880  221.6740 N   0  0  0  0  0  0  0  0  0  0  0  0
  140.3210   75.1090  221.1180 C   0  0  0  0  0  0  0  0  0  0  0  0
  139.1320   75.1260  220.6530 O   0  0  0  0  0  0  0  0  0  0  0  0
  141.0900   73.8490  221.0470 C   0  0  0  0  0  0  0  0  0  0  0  0
  140.9450   73.0720  222.2480 N   0  0  0  0  0  0  0  0  0  0  0  0
  140.1660   71.8980  222.3550 C   0  0  0  0  0  0  0  0  0  0  0  0
  139.5450   71.4970  221.3170 O   0  0  0  0  0  0  0  0  0  0  0  0
  140.0760   71.1680  223.6230 C   0  0  0  0  0  0  0  0  0  0  0  0
  139.4480   69.9620  223.6880 C   0  0  0  0  0  0  0  0  0  0  0  0
  139.3510   69.2580  224.8730 C   0  0  0  0  0  0  0  0  0  0  0  0
  139.9190   69.8370  225.9870 C   0  0  0  0  0  0  0  0  0  0  0  0
  139.8790   69.2220  227.2130 C   0  0  0  0  0  0  0  0  0  0  0  0
  140.4340   69.7680  228.3390 C   0  0  0  0  0  0  0  0  0  0  0  0
  141.0780   70.9920  228.3010 C   0  0  0  0  0  0  0  0  0  0  0  0
  141.1200   71.6160  227.0620 C   0  0  0  0  0  0  0  0  0  0  0  0
  140.5640   71.0710  225.9280 C   0  0  0  0  0  0  0  0  0  0  0  0
  140.6130   71.6910  224.7280 N   0  0  0  0  0  0  0  0  0  0  0  0
  141.1030   78.5840  222.2460 C   0  0  0  0  0  0  0  0  0  0  0  0
  141.4620   78.6890  223.5900 C   0  0  0  0  0  0  0  0  0  0  0  0
  142.3590   79.6690  224.0170 C   0  0  0  0  0  0  0  0  0  0  0  0
  142.9140   80.5620  223.1160 C   0  0  0  0  0  0  0  0  0  0  0  0
  142.5460   80.4460  221.7730 C   0  0  0  0  0  0  0  0  0  0  0  0
  141.6630   79.4810  221.3470 C   0  0  0  0  0  0  0  0  0  0  0  0
  137.8527   79.7730  224.8012 H   0  0  0  0  0  0  0  0  0  0  0  0
  139.5568   80.2261  224.4584 H   0  0  0  0  0  0  0  0  0  0  0  0
  138.2754   81.4849  224.4584 H   0  0  0  0  0  0  0  0  0  0  0  0
  136.9257   78.1541  222.5842 H   0  0  0  0  0  0  0  0  0  0  0  0
  137.8839   78.2777  221.0430 H   0  0  0  0  0  0  0  0  0  0  0  0
  139.2663   77.8542  223.7069 H   0  0  0  0  0  0  0  0  0  0  0  0
  138.5868   76.4744  222.8097 H   0  0  0  0  0  0  0  0  0  0  0  0
  139.7511   77.7805  220.7701 H   0  0  0  0  0  0  0  0  0  0  0  0
  141.8270   76.2670  222.0580 H   0  0  0  0  0  0  0  0  0  0  0  0
  140.7279   73.2574  220.1932 H   0  0  0  0  0  0  0  0  0  0  0  0
  142.1539   74.1016  220.9270 H   0  0  0  0  0  0  0  0  0  0  0  0
  141.4500   73.3780  223.1300 H   0  0  0  0  0  0  0  0  0  0  0  0
  139.0067   69.5373  222.7743 H   0  0  0  0  0  0  0  0  0  0  0  0
  138.8449   68.2827  224.9246 H   0  0  0  0  0  0  0  0  0  0  0  0
  139.3782   68.2460  227.2947 H   0  0  0  0  0  0  0  0  0  0  0  0
  140.3667   69.2232  229.2922 H   0  0  0  0  0  0  0  0  0  0  0  0
  141.5289   71.4427  229.1974 H   0  0  0  0  0  0  0  0  0  0  0  0
  141.6213   72.5919  226.9832 H   0  0  0  0  0  0  0  0  0  0  0  0
  141.0324   77.9901  224.3228 H   0  0  0  0  0  0  0  0  0  0  0  0
  142.6283   79.7328  225.0816 H   0  0  0  0  0  0  0  0  0  0  0  0
  143.6212   81.3370  223.4465 H   0  0  0  0  0  0  0  0  0  0  0  0
  142.9732   81.1439  221.0379 H   0  0  0  0  0  0  0  0  0  0  0  0
  141.3976   79.4195  220.2813 H   0  0  0  0  0  0  0  0  0  0  0  0
  1  2  1  0
  2  3  1  0
  3  4  1  0
  4  5  1  0
  5  6  1  0
  6  7  1  0
  7  8  2  0
  7  9  1  0
  9 10  1  0
 10 11  1  0
 11 12  2  0
 11 13  1  0
 13 14  2  0
 14 15  1  0
 15 16  2  0
 16 17  1  0
 17 18  2  0
 18 19  1  0
 19 20  2  0
 20 21  1  0
 21 22  2  0
  5 23  1  0
 23 24  2  0
 24 25  1  0
 25 26  2  0
 26 27  1  0
 27 28  2  0
 22 13  1  0
 28 23  1  0
 21 16  1  0
  1 29  1  0
  1 30  1  0
  1 31  1  0
  3 32  1  0
  3 33  1  0
  4 34  1  0
  4 35  1  0
  5 36  1  6
  6 37  1  0
  9 38  1  0
  9 39  1  0
 10 40  1  0
 14 41  1  0
 15 42  1  0
 17 43  1  0
 18 44  1  0
 19 45  1  0
 20 46  1  0
 24 47  1  0
 25 48  1  0
 26 49  1  0
 27 50  1  0
 28 51  1  0
M  END
>  <smiles>  (43) 
CSCC[C@H](NC(=O)CNC(=O)c1ccc2ccccc2n1)c1ccccc1

>  <score_type>  (43) 
oracle

>  <origin>  (43) 
autodockgpu

>  <m_score__min__energy>  (43) 
-8.6099999999999994

>  <m_primary>  (43) 
energy

>  <rmsd>  (43) 
4.01752244218291

>  <m_score__min__rmsd>  (43) 
4.01752244218291

>  <meeko>  (43) 
{"free_energy": -8.1, "intermolecular_energy": -10.49, "internal_energy": -1.67, "cluster_size": 15, "cluster_id": 2, "rank_in_cluster": 10}

>  <energy>  (43) 
-7.16

>  <cluster_rmsd>  (43) 
1.04

>  <cluster>  (43) 
5

$$$$

     RDKit          3D

 51 53  0  0  0  0  0  0  0  0999 V2000
  142.9290   74.6130  219.3910 C   0  0  0  0  0  0  0  0  0  0  0  0
  143.6320   76.2670  219.5050 S   0  0  0  0  0  0  0  0  0  0  0  0
  142.6750   77.4390  218.5360 C   0  0  0  0  0  0  0  0  0  0  0  0
  141.7540   78.2920  219.3970 C   0  0  0  0  0  0  0  0  0  0  0  0
  141.5160   77.5400  220.6820 C   0  0  2  0  0  0  0  0  0  0  0  0
  140.4150   76.6130  220.6040 N   0  0  0  0  0  0  0  0  0  0  0  0
  140.2330   75.4940  221.4310 C   0  0  0  0  0  0  0  0  0  0  0  0
  141.1030   75.2550  222.3360 O   0  0  0  0  0  0  0  0  0  0  0  0
  139.0780   74.5810  221.3020 C   0  0  0  0  0  0  0  0  0  0  0  0
  139.0680   73.5890  222.3430 N   0  0  0  0  0  0  0  0  0  0  0  0
  140.0370   72.5700  222.4900 C   0  0  0  0  0  0  0  0  0  0  0  0
  140.9870   72.5240  221.6410 O   0  0  0  0  0  0  0  0  0  0  0  0
  139.9470   71.5990  223.5840 C   0  0  0  0  0  0  0  0  0  0  0  0
  139.3250   70.4020  223.4010 C   0  0  0  0  0  0  0  0  0  0  0  0
  139.2270   69.4730  224.4190 C   0  0  0  0  0  0  0  0  0  0  0  0
  139.7900   69.8180  225.6290 C   0  0  0  0  0  0  0  0  0  0  0  0
  139.7490   68.9680  226.7060 C   0  0  0  0  0  0  0  0  0  0  0  0
  140.2980   69.2780  227.9210 C   0  0  0  0  0  0  0  0  0  0  0  0
  140.9360   70.4870  228.1330 C   0  0  0  0  0  0  0  0  0  0  0  0
  140.9780   71.3480  227.0460 C   0  0  0  0  0  0  0  0  0  0  0  0
  140.4280   71.0410  225.8230 C   0  0  0  0  0  0  0  0  0  0  0  0
  140.4780   71.8910  224.7730 N   0  0  0  0  0  0  0  0  0  0  0  0
  141.2350   78.5200  221.7700 C   0  0  0  0  0  0  0  0  0  0  0  0
  139.9760   78.6160  222.3620 C   0  0  0  0  0  0  0  0  0  0  0  0
  139.7320   79.5410  223.3780 C   0  0  0  0  0  0  0  0  0  0  0  0
  140.7350   80.3870  223.8220 C   0  0  0  0  0  0  0  0  0  0  0  0
  141.9900   80.2810  223.2210 C   0  0  0  0  0  0  0  0  0  0  0  0
  142.2370   79.3700  222.2190 C   0  0  0  0  0  0  0  0  0  0  0  0
  142.7602   74.2158  220.4028 H   0  0  0  0  0  0  0  0  0  0  0  0
  141.9721   74.6578  218.8503 H   0  0  0  0  0  0  0  0  0  0  0  0
  143.6253   73.9551  218.8503 H   0  0  0  0  0  0  0  0  0  0  0  0
  143.3689   78.1016  217.9980 H   0  0  0  0  0  0  0  0  0  0  0  0
  142.0454   76.8634  217.8416 H   0  0  0  0  0  0  0  0  0  0  0  0
  142.2291   79.2609  219.6105 H   0  0  0  0  0  0  0  0  0  0  0  0
  140.8038   78.4847  218.8774 H   0  0  0  0  0  0  0  0  0  0  0  0
  142.4244   76.9535  220.8840 H   0  0  0  0  0  0  0  0  0  0  0  0
  139.6930   76.8050  219.8570 H   0  0  0  0  0  0  0  0  0  0  0  0
  138.1501   75.1689  221.3603 H   0  0  0  0  0  0  0  0  0  0  0  0
  139.1552   74.0634  220.3345 H   0  0  0  0  0  0  0  0  0  0  0  0
  138.2910   73.6010  223.0650 H   0  0  0  0  0  0  0  0  0  0  0  0
  138.8896   70.1686  222.4182 H   0  0  0  0  0  0  0  0  0  0  0  0
  138.7245   68.5057  224.2712 H   0  0  0  0  0  0  0  0  0  0  0  0
  139.2525   67.9936  226.5873 H   0  0  0  0  0  0  0  0  0  0  0  0
  140.2306   68.5519  228.7445 H   0  0  0  0  0  0  0  0  0  0  0  0
  141.3824   70.7495  229.1035 H   0  0  0  0  0  0  0  0  0  0  0  0
  141.4744   72.3220  227.1678 H   0  0  0  0  0  0  0  0  0  0  0  0
  139.1650   77.9542  222.0238 H   0  0  0  0  0  0  0  0  0  0  0  0
  138.7315   79.5990  223.8316 H   0  0  0  0  0  0  0  0  0  0  0  0
  140.5483   81.1184  224.6221 H   0  0  0  0  0  0  0  0  0  0  0  0
  142.8025   80.9422  223.5565 H   0  0  0  0  0  0  0  0  0  0  0  0
  143.2392   79.3148  221.7690 H   0  0  0  0  0  0  0  0  0  0  0  0
  1  2  1  0
  2  3  1  0
  3  4  1  0
  4  5  1  0
  5  6  1  0
  6  7  1  0
  7  8  2  0
  7  9  1  0
  9 10  1  0
 10 11  1  0
 11 12  2  0
 11 13  1  0
 13 14  2  0
 14 15  1  0
 15 16  2  0
 16 17  1  0
 17 18  2  0
 18 19  1  0
 19 20  2  0
 20 21  1  0
 21 22  2  0
  5 23  1  0
 23 24  2  0
 24 25  1  0
 25 26  2  0
 26 27  1  0
 27 28  2  0
 22 13  1  0
 28 23  1  0
 21 16  1  0
  1 29  1  0
  1 30  1  0
  1 31  1  0
  3 32  1  0
  3 33  1  0
  4 34  1  0
  4 35  1  0
  5 36  1  1
  6 37  1  0
  9 38  1  0
  9 39  1  0
 10 40  1  0
 14 41  1  0
 15 42  1  0
 17 43  1  0
 18 44  1  0
 19 45  1  0
 20 46  1  0
 24 47  1  0
 25 48  1  0
 26 49  1  0
 27 50  1  0
 28 51  1  0
M  END
>  <smiles>  (44) 
CSCC[C@H](NC(=O)CNC(=O)c1ccc2ccccc2n1)c1ccccc1

>  <score_type>  (44) 
oracle

>  <origin>  (44) 
autodockgpu

>  <m_score__min__energy>  (44) 
-8.6099999999999994

>  <m_primary>  (44) 
energy

>  <rmsd>  (44) 
3.885246297965923

>  <m_score__min__rmsd>  (44) 
3.885246297965923

>  <meeko>  (44) 
{"free_energy": -8.3, "intermolecular_energy": -10.68, "internal_energy": -1.45, "cluster_size": 8, "cluster_id": 1, "rank_in_cluster": 4}

>  <energy>  (44) 
-7.06

>  <cluster_rmsd>  (44) 
1.15

>  <cluster>  (44) 
5

$$$$

     RDKit          3D

 51 53  0  0  0  0  0  0  0  0999 V2000
  138.2570   79.8410  223.3180 C   0  0  0  0  0  0  0  0  0  0  0  0
  139.9170   80.5200  223.4800 S   0  0  0  0  0  0  0  0  0  0  0  0
  141.0680   79.2670  224.0590 C   0  0  0  0  0  0  0  0  0  0  0  0
  142.0050   78.7850  222.9600 C   0  0  0  0  0  0  0  0  0  0  0  0
  141.1490   78.3690  221.7900 C   0  0  2  0  0  0  0  0  0  0  0  0
  141.2880   76.9760  221.4490 N   0  0  0  0  0  0  0  0  0  0  0  0
  140.3030   75.9920  221.6270 C   0  0  0  0  0  0  0  0  0  0  0  0
  139.1810   76.3350  222.1330 O   0  0  0  0  0  0  0  0  0  0  0  0
  140.5070   74.5770  221.2540 C   0  0  0  0  0  0  0  0  0  0  0  0
  140.1920   73.6910  222.3420 N   0  0  0  0  0  0  0  0  0  0  0  0
  140.6880   72.3750  222.4750 C   0  0  0  0  0  0  0  0  0  0  0  0
  141.4680   71.9370  221.5670 O   0  0  0  0  0  0  0  0  0  0  0  0
  140.3130   71.5420  223.6210 C   0  0  0  0  0  0  0  0  0  0  0  0
  139.5610   70.4200  223.4480 C   0  0  0  0  0  0  0  0  0  0  0  0
  139.1950   69.6220  224.5150 C   0  0  0  0  0  0  0  0  0  0  0  0
  139.6270   70.0170  225.7620 C   0  0  0  0  0  0  0  0  0  0  0  0
  139.3200   69.2950  226.8890 C   0  0  0  0  0  0  0  0  0  0  0  0
  139.7330   69.6580  228.1420 C   0  0  0  0  0  0  0  0  0  0  0  0
  140.4980   70.7930  228.3450 C   0  0  0  0  0  0  0  0  0  0  0  0
  140.8100   71.5250  227.2080 C   0  0  0  0  0  0  0  0  0  0  0  0
  140.3970   71.1630  225.9460 C   0  0  0  0  0  0  0  0  0  0  0  0
  140.7100   71.8870  224.8480 N   0  0  0  0  0  0  0  0  0  0  0  0
  141.5250   79.1890  220.6020 C   0  0  0  0  0  0  0  0  0  0  0  0
  141.4750   80.5830  220.6290 C   0  0  0  0  0  0  0  0  0  0  0  0
  141.8290   81.3320  219.5060 C   0  0  0  0  0  0  0  0  0  0  0  0
  142.2390   80.7100  218.3390 C   0  0  0  0  0  0  0  0  0  0  0  0
  142.2850   79.3140  218.3260 C   0  0  0  0  0  0  0  0  0  0  0  0
  141.9370   78.5700  219.4300 C   0  0  0  0  0  0  0  0  0  0  0  0
  137.8327   79.6674  224.3179 H   0  0  0  0  0  0  0  0  0  0  0  0
  137.6222   80.5517  222.7686 H   0  0  0  0  0  0  0  0  0  0  0  0
  138.3022   78.8891  222.7686 H   0  0  0  0  0  0  0  0  0  0  0  0
  141.6705   79.6916  224.8755 H   0  0  0  0  0  0  0  0  0  0  0  0
  140.4786   78.4028  224.3992 H   0  0  0  0  0  0  0  0  0  0  0  0
  142.6828   79.5978  222.6601 H   0  0  0  0  0  0  0  0  0  0  0  0
  142.6176   77.9423  223.3129 H   0  0  0  0  0  0  0  0  0  0  0  0
  140.1015   78.5305  222.0842 H   0  0  0  0  0  0  0  0  0  0  0  0
  142.2150   76.6850  221.0310 H   0  0  0  0  0  0  0  0  0  0  0  0
  139.8584   74.3364  220.3987 H   0  0  0  0  0  0  0  0  0  0  0  0
  141.5671   74.4394  220.9947 H   0  0  0  0  0  0  0  0  0  0  0  0
  139.5450   74.0260  223.1140 H   0  0  0  0  0  0  0  0  0  0  0  0
  139.2370   70.1422  222.4342 H   0  0  0  0  0  0  0  0  0  0  0  0
  138.5881   68.7153  224.3754 H   0  0  0  0  0  0  0  0  0  0  0  0
  138.7145   68.3832  226.7795 H   0  0  0  0  0  0  0  0  0  0  0  0
  139.4515   69.0357  229.0043 H   0  0  0  0  0  0  0  0  0  0  0  0
  140.8380   71.0965  229.3462 H   0  0  0  0  0  0  0  0  0  0  0  0
  141.4153   72.4366  227.3206 H   0  0  0  0  0  0  0  0  0  0  0  0
  141.1528   81.0977  221.5462 H   0  0  0  0  0  0  0  0  0  0  0  0
  141.7817   82.4302  219.5485 H   0  0  0  0  0  0  0  0  0  0  0  0
  142.5193   81.2959  217.4512 H   0  0  0  0  0  0  0  0  0  0  0  0
  142.6075   78.7965  217.4104 H   0  0  0  0  0  0  0  0  0  0  0  0
  141.9859   77.4721  219.3832 H   0  0  0  0  0  0  0  0  0  0  0  0
  1  2  1  0
  2  3  1  0
  3  4  1  0
  4  5  1  0
  5  6  1  0
  6  7  1  0
  7  8  2  0
  7  9  1  0
  9 10  1  0
 10 11  1  0
 11 12  2  0
 11 13  1  0
 13 14  2  0
 14 15  1  0
 15 16  2  0
 16 17  1  0
 17 18  2  0
 18 19  1  0
 19 20  2  0
 20 21  1  0
 21 22  2  0
  5 23  1  0
 23 24  2  0
 24 25  1  0
 25 26  2  0
 26 27  1  0
 27 28  2  0
 22 13  1  0
 28 23  1  0
 21 16  1  0
  1 29  1  0
  1 30  1  0
  1 31  1  0
  3 32  1  0
  3 33  1  0
  4 34  1  0
  4 35  1  0
  5 36  1  1
  6 37  1  0
  9 38  1  0
  9 39  1  0
 10 40  1  0
 14 41  1  0
 15 42  1  0
 17 43  1  0
 18 44  1  0
 19 45  1  0
 20 46  1  0
 24 47  1  0
 25 48  1  0
 26 49  1  0
 27 50  1  0
 28 51  1  0
M  END
>  <smiles>  (45) 
CSCC[C@H](NC(=O)CNC(=O)c1ccc2ccccc2n1)c1ccccc1

>  <score_type>  (45) 
oracle

>  <origin>  (45) 
autodockgpu

>  <m_score__min__energy>  (45) 
-8.6099999999999994

>  <m_primary>  (45) 
energy

>  <rmsd>  (45) 
3.6143304422275806

>  <m_score__min__rmsd>  (45) 
3.6143304422275806

>  <meeko>  (45) 
{"free_energy": -8.24, "intermolecular_energy": -10.63, "internal_energy": -1.54, "cluster_size": 15, "cluster_id": 2, "rank_in_cluster": 5}

>  <energy>  (45) 
-7.34

>  <cluster_rmsd>  (45) 
0.0

>  <cluster>  (45) 
6

$$$$

     RDKit          3D

 51 53  0  0  0  0  0  0  0  0999 V2000
  136.2000   73.8990  222.7100 C   0  0  0  0  0  0  0  0  0  0  0  0
  136.1750   72.2470  223.4280 S   0  0  0  0  0  0  0  0  0  0  0  0
  136.8600   71.0410  222.2850 C   0  0  0  0  0  0  0  0  0  0  0  0
  138.1780   70.4570  222.7750 C   0  0  0  0  0  0  0  0  0  0  0  0
  138.8420   71.5040  223.6340 C   0  0  2  0  0  0  0  0  0  0  0  0
  139.7140   72.3800  222.8920 N   0  0  0  0  0  0  0  0  0  0  0  0
  140.6240   71.9750  221.9030 C   0  0  0  0  0  0  0  0  0  0  0  0
  140.7060   70.7320  221.6200 O   0  0  0  0  0  0  0  0  0  0  0  0
  141.4910   72.9250  221.1740 C   0  0  0  0  0  0  0  0  0  0  0  0
  141.3030   74.2740  221.6360 N   0  0  0  0  0  0  0  0  0  0  0  0
  140.0600   74.9470  221.6650 C   0  0  0  0  0  0  0  0  0  0  0  0
  139.0310   74.3170  221.2530 O   0  0  0  0  0  0  0  0  0  0  0  0
  139.9620   76.3250  222.1530 C   0  0  0  0  0  0  0  0  0  0  0  0
  138.7480   76.9020  222.3650 C   0  0  0  0  0  0  0  0  0  0  0  0
  138.6330   78.2010  222.8230 C   0  0  0  0  0  0  0  0  0  0  0  0
  139.8080   78.8840  223.0540 C   0  0  0  0  0  0  0  0  0  0  0  0
  139.8060   80.1780  223.5090 C   0  0  0  0  0  0  0  0  0  0  0  0
  140.9540   80.8850  223.7500 C   0  0  0  0  0  0  0  0  0  0  0  0
  142.2000   80.3220  223.5420 C   0  0  0  0  0  0  0  0  0  0  0  0
  142.2050   79.0130  223.0810 C   0  0  0  0  0  0  0  0  0  0  0  0
  141.0540   78.2990  222.8390 C   0  0  0  0  0  0  0  0  0  0  0  0
  141.0750   77.0240  222.3900 N   0  0  0  0  0  0  0  0  0  0  0  0
  139.6420   70.8240  224.6920 C   0  0  0  0  0  0  0  0  0  0  0  0
  140.6870   71.4720  225.3510 C   0  0  0  0  0  0  0  0  0  0  0  0
  141.4250   70.8180  226.3380 C   0  0  0  0  0  0  0  0  0  0  0  0
  141.1390   69.5090  226.6870 C   0  0  0  0  0  0  0  0  0  0  0  0
  140.0900   68.8720  226.0200 C   0  0  0  0  0  0  0  0  0  0  0  0
  139.3580   69.5120  225.0460 C   0  0  0  0  0  0  0  0  0  0  0  0
  136.2113   74.6485  223.5150 H   0  0  0  0  0  0  0  0  0  0  0  0
  137.1000   74.0150  222.0883 H   0  0  0  0  0  0  0  0  0  0  0  0
  135.3039   74.0422  222.0883 H   0  0  0  0  0  0  0  0  0  0  0  0
  136.1360   70.2223  222.1601 H   0  0  0  0  0  0  0  0  0  0  0  0
  137.0558   71.5561  221.3330 H   0  0  0  0  0  0  0  0  0  0  0  0
  137.9903   69.5488  223.3665 H   0  0  0  0  0  0  0  0  0  0  0  0
  138.8223   70.1846  221.9260 H   0  0  0  0  0  0  0  0  0  0  0  0
  138.0405   72.1242  224.0618 H   0  0  0  0  0  0  0  0  0  0  0  0
  139.6510   73.4090  223.1220 H   0  0  0  0  0  0  0  0  0  0  0  0
  142.5420   72.6385  221.3265 H   0  0  0  0  0  0  0  0  0  0  0  0
  141.2243   72.8859  220.1075 H   0  0  0  0  0  0  0  0  0  0  0  0
  142.1390   74.8260  221.9850 H   0  0  0  0  0  0  0  0  0  0  0  0
  137.8357   76.3203  222.1670 H   0  0  0  0  0  0  0  0  0  0  0  0
  137.6516   78.6672  222.9948 H   0  0  0  0  0  0  0  0  0  0  0  0
  138.8387   80.6701  223.6884 H   0  0  0  0  0  0  0  0  0  0  0  0
  140.8837   81.9200  224.1158 H   0  0  0  0  0  0  0  0  0  0  0  0
  143.1303   80.8778  223.7305 H   0  0  0  0  0  0  0  0  0  0  0  0
  143.1736   78.5238  222.9008 H   0  0  0  0  0  0  0  0  0  0  0  0
  140.9322   72.5118  225.0891 H   0  0  0  0  0  0  0  0  0  0  0  0
  142.2442   71.3488  226.8451 H   0  0  0  0  0  0  0  0  0  0  0  0
  141.7185   68.9882  227.4635 H   0  0  0  0  0  0  0  0  0  0  0  0
  139.8426   67.8322  226.2799 H   0  0  0  0  0  0  0  0  0  0  0  0
  138.5387   68.9780  224.5424 H   0  0  0  0  0  0  0  0  0  0  0  0
  1  2  1  0
  2  3  1  0
  3  4  1  0
  4  5  1  0
  5  6  1  0
  6  7  1  0
  7  8  2  0
  7  9  1  0
  9 10  1  0
 10 11  1  0
 11 12  2  0
 11 13  1  0
 13 14  2  0
 14 15  1  0
 15 16  2  0
 16 17  1  0
 17 18  2  0
 18 19  1  0
 19 20  2  0
 20 21  1  0
 21 22  2  0
  5 23  1  0
 23 24  2  0
 24 25  1  0
 25 26  2  0
 26 27  1  0
 27 28  2  0
 22 13  1  0
 28 23  1  0
 21 16  1  0
  1 29  1  0
  1 30  1  0
  1 31  1  0
  3 32  1  0
  3 33  1  0
  4 34  1  0
  4 35  1  0
  5 36  1  1
  6 37  1  0
  9 38  1  0
  9 39  1  0
 10 40  1  0
 14 41  1  0
 15 42  1  0
 17 43  1  0
 18 44  1  0
 19 45  1  0
 20 46  1  0
 24 47  1  0
 25 48  1  0
 26 49  1  0
 27 50  1  0
 28 51  1  0
M  END
>  <smiles>  (46) 
CSCC[C@H](NC(=O)CNC(=O)c1ccc2ccccc2n1)c1ccccc1

>  <score_type>  (46) 
oracle

>  <origin>  (46) 
autodockgpu

>  <m_score__min__energy>  (46) 
-8.6099999999999994

>  <m_primary>  (46) 
energy

>  <rmsd>  (46) 
9.840955392809432

>  <m_score__min__rmsd>  (46) 
9.840955392809432

>  <meeko>  (46) 
{"free_energy": -7.18, "intermolecular_energy": -9.56, "internal_energy": -2.46, "cluster_size": 9, "cluster_id": 4, "rank_in_cluster": 5}

>  <energy>  (46) 
-7.34

>  <cluster_rmsd>  (46) 
0.57

>  <cluster>  (46) 
6

$$$$

     RDKit          3D

 51 53  0  0  0  0  0  0  0  0999 V2000
  138.1380   74.5480  221.9390 C   0  0  0  0  0  0  0  0  0  0  0  0
  139.7490   73.7420  221.9280 S   0  0  0  0  0  0  0  0  0  0  0  0
  139.5980   72.0040  222.3590 C   0  0  0  0  0  0  0  0  0  0  0  0
  140.6390   71.5650  223.3800 C   0  0  0  0  0  0  0  0  0  0  0  0
  140.0010   70.5060  224.2440 C   0  0  2  0  0  0  0  0  0  0  0  0
  138.5710   70.4270  224.0860 N   0  0  0  0  0  0  0  0  0  0  0  0
  137.8110   69.2470  224.1240 C   0  0  0  0  0  0  0  0  0  0  0  0
  138.4160   68.1370  224.3110 O   0  0  0  0  0  0  0  0  0  0  0  0
  136.3430   69.2340  223.9570 C   0  0  0  0  0  0  0  0  0  0  0  0
  135.7320   70.3970  224.5420 N   0  0  0  0  0  0  0  0  0  0  0  0
  135.7970   71.6980  223.9950 C   0  0  0  0  0  0  0  0  0  0  0  0
  136.4420   71.8560  222.9070 O   0  0  0  0  0  0  0  0  0  0  0  0
  135.1430   72.8280  224.6620 C   0  0  0  0  0  0  0  0  0  0  0  0
  135.4710   74.1090  224.3400 C   0  0  0  0  0  0  0  0  0  0  0  0
  134.8680   75.1880  224.9570 C   0  0  0  0  0  0  0  0  0  0  0  0
  133.9190   74.9040  225.9160 C   0  0  0  0  0  0  0  0  0  0  0  0
  133.2600   75.9020  226.5890 C   0  0  0  0  0  0  0  0  0  0  0  0
  132.3120   75.6550  227.5460 C   0  0  0  0  0  0  0  0  0  0  0  0
  131.9610   74.3630  227.8920 C   0  0  0  0  0  0  0  0  0  0  0  0
  132.6260   73.3520  227.2130 C   0  0  0  0  0  0  0  0  0  0  0  0
  133.5790   73.5950  226.2500 C   0  0  0  0  0  0  0  0  0  0  0  0
  134.2180   72.5990  225.5970 N   0  0  0  0  0  0  0  0  0  0  0  0
  140.3050   70.8010  225.6740 C   0  0  0  0  0  0  0  0  0  0  0  0
  139.8050   70.0100  226.7080 C   0  0  0  0  0  0  0  0  0  0  0  0
  140.0990   70.3040  228.0400 C   0  0  0  0  0  0  0  0  0  0  0  0
  140.8950   71.3890  228.3670 C   0  0  0  0  0  0  0  0  0  0  0  0
  141.3900   72.1720  227.3220 C   0  0  0  0  0  0  0  0  0  0  0  0
  141.1030   71.8870  226.0070 C   0  0  0  0  0  0  0  0  0  0  0  0
  137.8158   74.7092  222.9783 H   0  0  0  0  0  0  0  0  0  0  0  0
  138.2091   75.5167  221.4227 H   0  0  0  0  0  0  0  0  0  0  0  0
  137.4054   73.9102  221.4227 H   0  0  0  0  0  0  0  0  0  0  0  0
  138.5964   71.8302  222.7791 H   0  0  0  0  0  0  0  0  0  0  0  0
  139.7592   71.4167  221.4429 H   0  0  0  0  0  0  0  0  0  0  0  0
  141.5193   71.1515  222.8661 H   0  0  0  0  0  0  0  0  0  0  0  0
  140.9700   72.4182  223.9903 H   0  0  0  0  0  0  0  0  0  0  0  0
  140.4194   69.5390  223.9278 H   0  0  0  0  0  0  0  0  0  0  0  0
  138.0650   71.3420  223.9300 H   0  0  0  0  0  0  0  0  0  0  0  0
  136.1064   69.2088  222.8831 H   0  0  0  0  0  0  0  0  0  0  0  0
  135.9471   68.3441  224.4682 H   0  0  0  0  0  0  0  0  0  0  0  0
  135.1880   70.2980  225.4480 H   0  0  0  0  0  0  0  0  0  0  0  0
  136.2350   74.2897  223.5695 H   0  0  0  0  0  0  0  0  0  0  0  0
  135.1322   76.2234  224.6959 H   0  0  0  0  0  0  0  0  0  0  0  0
  133.5042   76.9474  226.3490 H   0  0  0  0  0  0  0  0  0  0  0  0
  131.8203   76.5006  228.0491 H   0  0  0  0  0  0  0  0  0  0  0  0
  131.2013   74.1498  228.6584 H   0  0  0  0  0  0  0  0  0  0  0  0
  132.3801   72.3076  227.4556 H   0  0  0  0  0  0  0  0  0  0  0  0
  139.1707   69.1432  226.4705 H   0  0  0  0  0  0  0  0  0  0  0  0
  139.6938   69.6665  228.8396 H   0  0  0  0  0  0  0  0  0  0  0  0
  141.1296   71.6262  229.4152 H   0  0  0  0  0  0  0  0  0  0  0  0
  142.0256   73.0387  227.5562 H   0  0  0  0  0  0  0  0  0  0  0  0
  141.5105   72.5269  225.2105 H   0  0  0  0  0  0  0  0  0  0  0  0
  1  2  1  0
  2  3  1  0
  3  4  1  0
  4  5  1  0
  5  6  1  0
  6  7  1  0
  7  8  2  0
  7  9  1  0
  9 10  1  0
 10 11  1  0
 11 12  2  0
 11 13  1  0
 13 14  2  0
 14 15  1  0
 15 16  2  0
 16 17  1  0
 17 18  2  0
 18 19  1  0
 19 20  2  0
 20 21  1  0
 21 22  2  0
  5 23  1  0
 23 24  2  0
 24 25  1  0
 25 26  2  0
 26 27  1  0
 27 28  2  0
 22 13  1  0
 28 23  1  0
 21 16  1  0
  1 29  1  0
  1 30  1  0
  1 31  1  0
  3 32  1  0
  3 33  1  0
  4 34  1  0
  4 35  1  0
  5 36  1  6
  6 37  1  0
  9 38  1  0
  9 39  1  0
 10 40  1  0
 14 41  1  0
 15 42  1  0
 17 43  1  0
 18 44  1  0
 19 45  1  0
 20 46  1  0
 24 47  1  0
 25 48  1  0
 26 49  1  0
 27 50  1  0
 28 51  1  0
M  END
>  <smiles>  (47) 
CSCC[C@H](NC(=O)CNC(=O)c1ccc2ccccc2n1)c1ccccc1

>  <score_type>  (47) 
oracle

>  <origin>  (47) 
autodockgpu

>  <m_score__min__energy>  (47) 
-8.6099999999999994

>  <m_primary>  (47) 
energy

>  <rmsd>  (47) 
9.625423396087358

>  <m_score__min__rmsd>  (47) 
9.625423396087358

>  <meeko>  (47) 
{"free_energy": -7.22, "intermolecular_energy": -9.61, "internal_energy": -2.69, "cluster_size": 1, "cluster_id": 8, "rank_in_cluster": 1}

>  <energy>  (47) 
-7.31

>  <cluster_rmsd>  (47) 
0.64

>  <cluster>  (47) 
6

$$$$

     RDKit          3D

 51 53  0  0  0  0  0  0  0  0999 V2000
  138.3860   80.8590  224.5600 C   0  0  0  0  0  0  0  0  0  0  0  0
  137.2200   80.3240  223.2970 S   0  0  0  0  0  0  0  0  0  0  0  0
  138.0710   79.9350  221.7630 C   0  0  0  0  0  0  0  0  0  0  0  0
  138.3470   78.4460  221.6100 C   0  0  0  0  0  0  0  0  0  0  0  0
  139.6900   78.3050  220.9380 C   0  0  2  0  0  0  0  0  0  0  0  0
  140.0530   76.9350  220.6740 N   0  0  0  0  0  0  0  0  0  0  0  0
  139.8580   75.8580  221.5530 C   0  0  0  0  0  0  0  0  0  0  0  0
  139.3160   76.0850  222.6870 O   0  0  0  0  0  0  0  0  0  0  0  0
  140.2520   74.4730  221.2220 C   0  0  0  0  0  0  0  0  0  0  0  0
  140.0620   73.5870  222.3400 N   0  0  0  0  0  0  0  0  0  0  0  0
  140.5420   72.2590  222.4010 C   0  0  0  0  0  0  0  0  0  0  0  0
  141.1870   71.8110  221.3980 O   0  0  0  0  0  0  0  0  0  0  0  0
  140.3010   71.4270  223.5840 C   0  0  0  0  0  0  0  0  0  0  0  0
  139.6770   70.2230  223.4700 C   0  0  0  0  0  0  0  0  0  0  0  0
  139.4390   69.4230  224.5720 C   0  0  0  0  0  0  0  0  0  0  0  0
  139.8620   69.9050  225.7910 C   0  0  0  0  0  0  0  0  0  0  0  0
  139.6750   69.1910  226.9480 C   0  0  0  0  0  0  0  0  0  0  0  0
  140.0840   69.6390  228.1750 C   0  0  0  0  0  0  0  0  0  0  0  0
  140.7200   70.8590  228.3180 C   0  0  0  0  0  0  0  0  0  0  0  0
  140.9110   71.5840  227.1500 C   0  0  0  0  0  0  0  0  0  0  0  0
  140.5020   71.1370  225.9150 C   0  0  0  0  0  0  0  0  0  0  0  0
  140.6950   71.8550  224.7860 N   0  0  0  0  0  0  0  0  0  0  0  0
  140.7340   78.9140  221.8110 C   0  0  0  0  0  0  0  0  0  0  0  0
  141.5920   79.9080  221.3420 C   0  0  0  0  0  0  0  0  0  0  0  0
  142.5640   80.4640  222.1740 C   0  0  0  0  0  0  0  0  0  0  0  0
  142.7000   80.0420  223.4860 C   0  0  0  0  0  0  0  0  0  0  0  0
  141.8340   79.0460  223.9430 C   0  0  0  0  0  0  0  0  0  0  0  0
  140.8730   78.4950  223.1270 C   0  0  0  0  0  0  0  0  0  0  0  0
  137.9622   80.6645  225.5563 H   0  0  0  0  0  0  0  0  0  0  0  0
  139.3287   80.3034  224.4477 H   0  0  0  0  0  0  0  0  0  0  0  0
  138.5796   81.9360  224.4477 H   0  0  0  0  0  0  0  0  0  0  0  0
  137.4471   80.2664  220.9198 H   0  0  0  0  0  0  0  0  0  0  0  0
  139.0405   80.4545  221.7780 H   0  0  0  0  0  0  0  0  0  0  0  0
  138.3682   77.9637  222.5984 H   0  0  0  0  0  0  0  0  0  0  0  0
  137.5599   77.9637  221.0118 H   0  0  0  0  0  0  0  0  0  0  0  0
  139.6195   78.8181  219.9676 H   0  0  0  0  0  0  0  0  0  0  0  0
  140.5030   76.7410  219.7380 H   0  0  0  0  0  0  0  0  0  0  0  0
  139.6406   74.1198  220.3786 H   0  0  0  0  0  0  0  0  0  0  0  0
  141.3203   74.4723  220.9600 H   0  0  0  0  0  0  0  0  0  0  0  0
  139.5300   73.9310  223.1910 H   0  0  0  0  0  0  0  0  0  0  0  0
  139.3541   69.8779  222.4767 H   0  0  0  0  0  0  0  0  0  0  0  0
  138.9363   68.4489  224.4799 H   0  0  0  0  0  0  0  0  0  0  0  0
  139.1735   68.2139  226.8865 H   0  0  0  0  0  0  0  0  0  0  0  0
  139.9035   69.0171  229.0642 H   0  0  0  0  0  0  0  0  0  0  0  0
  141.0540   71.2318  229.2975 H   0  0  0  0  0  0  0  0  0  0  0  0
  141.4124   72.5609  227.2148 H   0  0  0  0  0  0  0  0  0  0  0  0
  141.5013   80.2581  220.3031 H   0  0  0  0  0  0  0  0  0  0  0  0
  143.2304   81.2470  221.7832 H   0  0  0  0  0  0  0  0  0  0  0  0
  143.4648   80.4768  224.1463 H   0  0  0  0  0  0  0  0  0  0  0  0
  141.9225   78.6933  224.9812 H   0  0  0  0  0  0  0  0  0  0  0  0
  140.2072   77.7135  223.5220 H   0  0  0  0  0  0  0  0  0  0  0  0
  1  2  1  0
  2  3  1  0
  3  4  1  0
  4  5  1  0
  5  6  1  0
  6  7  1  0
  7  8  2  0
  7  9  1  0
  9 10  1  0
 10 11  1  0
 11 12  2  0
 11 13  1  0
 13 14  2  0
 14 15  1  0
 15 16  2  0
 16 17  1  0
 17 18  2  0
 18 19  1  0
 19 20  2  0
 20 21  1  0
 21 22  2  0
  5 23  1  0
 23 24  2  0
 24 25  1  0
 25 26  2  0
 26 27  1  0
 27 28  2  0
 22 13  1  0
 28 23  1  0
 21 16  1  0
  1 29  1  0
  1 30  1  0
  1 31  1  0
  3 32  1  0
  3 33  1  0
  4 34  1  0
  4 35  1  0
  5 36  1  6
  6 37  1  0
  9 38  1  0
  9 39  1  0
 10 40  1  0
 14 41  1  0
 15 42  1  0
 17 43  1  0
 18 44  1  0
 19 45  1  0
 20 46  1  0
 24 47  1  0
 25 48  1  0
 26 49  1  0
 27 50  1  0
 28 51  1  0
M  END
>  <smiles>  (48) 
CSCC[C@H](NC(=O)CNC(=O)c1ccc2ccccc2n1)c1ccccc1

>  <score_type>  (48) 
oracle

>  <origin>  (48) 
autodockgpu

>  <m_score__min__energy>  (48) 
-8.6099999999999994

>  <m_primary>  (48) 
energy

>  <rmsd>  (48) 
4.257470709643076

>  <m_score__min__rmsd>  (48) 
4.257470709643076

>  <meeko>  (48) 
{"free_energy": -8.09, "intermolecular_energy": -10.48, "internal_energy": -1.92, "cluster_size": 15, "cluster_id": 2, "rank_in_cluster": 12}

>  <energy>  (48) 
-7.19

>  <cluster_rmsd>  (48) 
0.16

>  <cluster>  (48) 
6

$$$$

     RDKit          3D

 51 53  0  0  0  0  0  0  0  0999 V2000
  136.1950   73.8990  222.6860 C   0  0  0  0  0  0  0  0  0  0  0  0
  136.1710   72.2800  223.4730 S   0  0  0  0  0  0  0  0  0  0  0  0
  136.7840   71.0140  222.3540 C   0  0  0  0  0  0  0  0  0  0  0  0
  138.1510   70.4860  222.7650 C   0  0  0  0  0  0  0  0  0  0  0  0
  138.8090   71.5500  223.6080 C   0  0  2  0  0  0  0  0  0  0  0  0
  139.6640   72.4290  222.8500 N   0  0  0  0  0  0  0  0  0  0  0  0
  140.5780   72.0250  221.8650 C   0  0  0  0  0  0  0  0  0  0  0  0
  140.6810   70.7790  221.6000 O   0  0  0  0  0  0  0  0  0  0  0  0
  141.4270   72.9780  221.1200 C   0  0  0  0  0  0  0  0  0  0  0  0
  141.2600   74.3230  221.6010 N   0  0  0  0  0  0  0  0  0  0  0  0
  140.0280   75.0160  221.6370 C   0  0  0  0  0  0  0  0  0  0  0  0
  138.9900   74.4080  221.2150 O   0  0  0  0  0  0  0  0  0  0  0  0
  139.9520   76.3880  222.1450 C   0  0  0  0  0  0  0  0  0  0  0  0
  138.7470   76.9760  222.3810 C   0  0  0  0  0  0  0  0  0  0  0  0
  138.6530   78.2690  222.8580 C   0  0  0  0  0  0  0  0  0  0  0  0
  139.8380   78.9360  223.0830 C   0  0  0  0  0  0  0  0  0  0  0  0
  139.8570   80.2240  223.5570 C   0  0  0  0  0  0  0  0  0  0  0  0
  141.0150   80.9140  223.7920 C   0  0  0  0  0  0  0  0  0  0  0  0
  142.2520   80.3400  223.5620 C   0  0  0  0  0  0  0  0  0  0  0  0
  142.2360   79.0380  223.0830 C   0  0  0  0  0  0  0  0  0  0  0  0
  141.0750   78.3400  222.8450 C   0  0  0  0  0  0  0  0  0  0  0  0
  141.0760   77.0710  222.3780 N   0  0  0  0  0  0  0  0  0  0  0  0
  139.6260   70.8900  224.6660 C   0  0  0  0  0  0  0  0  0  0  0  0
  140.6650   71.5590  225.3130 C   0  0  0  0  0  0  0  0  0  0  0  0
  141.4190   70.9230  226.3000 C   0  0  0  0  0  0  0  0  0  0  0  0
  141.1550   69.6130  226.6610 C   0  0  0  0  0  0  0  0  0  0  0  0
  140.1130   68.9550  226.0050 C   0  0  0  0  0  0  0  0  0  0  0  0
  139.3650   69.5760  225.0320 C   0  0  0  0  0  0  0  0  0  0  0  0
  136.2066   74.6821  223.4585 H   0  0  0  0  0  0  0  0  0  0  0  0
  137.0946   73.9888  222.0593 H   0  0  0  0  0  0  0  0  0  0  0  0
  135.2985   74.0154  222.0593 H   0  0  0  0  0  0  0  0  0  0  0  0
  136.0707   70.1766  222.3438 H   0  0  0  0  0  0  0  0  0  0  0  0
  136.8869   71.4693  221.3580 H   0  0  0  0  0  0  0  0  0  0  0  0
  138.0370   69.5606  223.3487 H   0  0  0  0  0  0  0  0  0  0  0  0
  138.7623   70.2580  221.8794 H   0  0  0  0  0  0  0  0  0  0  0  0
  138.0037   72.1649  224.0363 H   0  0  0  0  0  0  0  0  0  0  0  0
  139.5840   73.4610  223.0650 H   0  0  0  0  0  0  0  0  0  0  0  0
  142.4807   72.6850  221.2376 H   0  0  0  0  0  0  0  0  0  0  0  0
  141.1278   72.9512  220.0618 H   0  0  0  0  0  0  0  0  0  0  0  0
  142.1050   74.8560  221.9590 H   0  0  0  0  0  0  0  0  0  0  0  0
  137.8255   76.4075  222.1871 H   0  0  0  0  0  0  0  0  0  0  0  0
  137.6792   78.7435  223.0491 H   0  0  0  0  0  0  0  0  0  0  0  0
  138.8979   80.7241  223.7570 H   0  0  0  0  0  0  0  0  0  0  0  0
  140.9610   81.9452  224.1712 H   0  0  0  0  0  0  0  0  0  0  0  0
  143.1909   80.8824  223.7474 H   0  0  0  0  0  0  0  0  0  0  0  0
  143.1968   78.5407  222.8842 H   0  0  0  0  0  0  0  0  0  0  0  0
  140.8927   72.6005  225.0419 H   0  0  0  0  0  0  0  0  0  0  0  0
  142.2336   71.4697  226.7976 H   0  0  0  0  0  0  0  0  0  0  0  0
  141.7464   69.1074  227.4386 H   0  0  0  0  0  0  0  0  0  0  0  0
  139.8843   67.9130  226.2732 H   0  0  0  0  0  0  0  0  0  0  0  0
  138.5507   69.0255  224.5381 H   0  0  0  0  0  0  0  0  0  0  0  0
  1  2  1  0
  2  3  1  0
  3  4  1  0
  4  5  1  0
  5  6  1  0
  6  7  1  0
  7  8  2  0
  7  9  1  0
  9 10  1  0
 10 11  1  0
 11 12  2  0
 11 13  1  0
 13 14  2  0
 14 15  1  0
 15 16  2  0
 16 17  1  0
 17 18  2  0
 18 19  1  0
 19 20  2  0
 20 21  1  0
 21 22  2  0
  5 23  1  0
 23 24  2  0
 24 25  1  0
 25 26  2  0
 26 27  1  0
 27 28  2  0
 22 13  1  0
 28 23  1  0
 21 16  1  0
  1 29  1  0
  1 30  1  0
  1 31  1  0
  3 32  1  0
  3 33  1  0
  4 34  1  0
  4 35  1  0
  5 36  1  1
  6 37  1  0
  9 38  1  0
  9 39  1  0
 10 40  1  0
 14 41  1  0
 15 42  1  0
 17 43  1  0
 18 44  1  0
 19 45  1  0
 20 46  1  0
 24 47  1  0
 25 48  1  0
 26 49  1  0
 27 50  1  0
 28 51  1  0
M  END
>  <smiles>  (49) 
CSCC[C@H](NC(=O)CNC(=O)c1ccc2ccccc2n1)c1ccccc1

>  <score_type>  (49) 
oracle

>  <origin>  (49) 
autodockgpu

>  <m_score__min__energy>  (49) 
-8.6099999999999994

>  <m_primary>  (49) 
energy

>  <rmsd>  (49) 
9.817213770545047

>  <m_score__min__rmsd>  (49) 
9.817213770545047

>  <meeko>  (49) 
{"free_energy": -7.18, "intermolecular_energy": -9.57, "internal_energy": -2.49, "cluster_size": 9, "cluster_id": 4, "rank_in_cluster": 4}

>  <energy>  (49) 
-7.31

>  <cluster_rmsd>  (49) 
0.0

>  <cluster>  (49) 
7

$$$$

     RDKit          3D

 51 53  0  0  0  0  0  0  0  0999 V2000
  142.9170   80.2340  223.0910 C   0  0  0  0  0  0  0  0  0  0  0  0
  141.3350   79.4400  223.4240 S   0  0  0  0  0  0  0  0  0  0  0  0
  140.9200   78.2690  222.1250 C   0  0  0  0  0  0  0  0  0  0  0  0
  140.7200   76.8570  222.6570 C   0  0  0  0  0  0  0  0  0  0  0  0
  140.2860   75.9970  221.4950 C   0  0  2  0  0  0  0  0  0  0  0  0
  139.2870   75.0210  221.8510 N   0  0  0  0  0  0  0  0  0  0  0  0
  138.4620   74.3350  220.9460 C   0  0  0  0  0  0  0  0  0  0  0  0
  138.5870   74.5790  219.6980 O   0  0  0  0  0  0  0  0  0  0  0  0
  137.4550   73.3410  221.3740 C   0  0  0  0  0  0  0  0  0  0  0  0
  137.8830   72.6250  222.5460 N   0  0  0  0  0  0  0  0  0  0  0  0
  139.0340   71.8060  222.6100 C   0  0  0  0  0  0  0  0  0  0  0  0
  139.7440   71.6920  221.5570 O   0  0  0  0  0  0  0  0  0  0  0  0
  139.3940   71.1120  223.8490 C   0  0  0  0  0  0  0  0  0  0  0  0
  139.1290   69.7860  224.0040 C   0  0  0  0  0  0  0  0  0  0  0  0
  139.4590   69.1120  225.1650 C   0  0  0  0  0  0  0  0  0  0  0  0
  140.0690   69.8480  226.1570 C   0  0  0  0  0  0  0  0  0  0  0  0
  140.4380   69.2760  227.3490 C   0  0  0  0  0  0  0  0  0  0  0  0
  141.0470   69.9770  228.3550 C   0  0  0  0  0  0  0  0  0  0  0  0
  141.3280   71.3250  228.2220 C   0  0  0  0  0  0  0  0  0  0  0  0
  140.9560   71.9060  227.0190 C   0  0  0  0  0  0  0  0  0  0  0  0
  140.3440   71.2050  226.0040 C   0  0  0  0  0  0  0  0  0  0  0  0
  139.9880   71.7850  224.8370 N   0  0  0  0  0  0  0  0  0  0  0  0
  141.4780   75.2820  220.9540 C   0  0  0  0  0  0  0  0  0  0  0  0
  142.4250   75.9310  220.1620 C   0  0  0  0  0  0  0  0  0  0  0  0
  143.5320   75.2440  219.6630 C   0  0  0  0  0  0  0  0  0  0  0  0
  143.7170   73.9000  219.9420 C   0  0  0  0  0  0  0  0  0  0  0  0
  142.7610   73.2620  220.7350 C   0  0  0  0  0  0  0  0  0  0  0  0
  141.6680   73.9350  221.2310 C   0  0  0  0  0  0  0  0  0  0  0  0
  143.4104   80.4816  224.0424 H   0  0  0  0  0  0  0  0  0  0  0  0
  143.5563   79.5499  222.5136 H   0  0  0  0  0  0  0  0  0  0  0  0
  142.7505   81.1554  222.5136 H   0  0  0  0  0  0  0  0  0  0  0  0
  139.9903   78.5975  221.6374 H   0  0  0  0  0  0  0  0  0  0  0  0
  141.7606   78.2437  221.4160 H   0  0  0  0  0  0  0  0  0  0  0  0
  141.6628   76.4756  223.0762 H   0  0  0  0  0  0  0  0  0  0  0  0
  139.9627   76.8450  223.4547 H   0  0  0  0  0  0  0  0  0  0  0  0
  139.8364   76.6673  220.7477 H   0  0  0  0  0  0  0  0  0  0  0  0
  139.1780   74.8160  222.8810 H   0  0  0  0  0  0  0  0  0  0  0  0
  136.5122   73.8616  221.5981 H   0  0  0  0  0  0  0  0  0  0  0  0
  137.3188   72.6158  220.5582 H   0  0  0  0  0  0  0  0  0  0  0  0
  137.3140   72.6990  223.4380 H   0  0  0  0  0  0  0  0  0  0  0  0
  138.6403   69.2372  223.1854 H   0  0  0  0  0  0  0  0  0  0  0  0
  139.2450   68.0404  225.2906 H   0  0  0  0  0  0  0  0  0  0  0  0
  140.2352   68.2059  227.5029 H   0  0  0  0  0  0  0  0  0  0  0  0
  141.3180   69.4586  229.2866 H   0  0  0  0  0  0  0  0  0  0  0  0
  141.8167   71.9009  229.0217 H   0  0  0  0  0  0  0  0  0  0  0  0
  141.1592   72.9765  226.8686 H   0  0  0  0  0  0  0  0  0  0  0  0
  142.2974   76.9982  219.9278 H   0  0  0  0  0  0  0  0  0  0  0  0
  144.2666   75.7760  219.0406 H   0  0  0  0  0  0  0  0  0  0  0  0
  144.5881   73.3533  219.5518 H   0  0  0  0  0  0  0  0  0  0  0  0
  142.8848   72.1944  220.9691 H   0  0  0  0  0  0  0  0  0  0  0  0
  140.9365   73.3996  221.8541 H   0  0  0  0  0  0  0  0  0  0  0  0
  1  2  1  0
  2  3  1  0
  3  4  1  0
  4  5  1  0
  5  6  1  0
  6  7  1  0
  7  8  2  0
  7  9  1  0
  9 10  1  0
 10 11  1  0
 11 12  2  0
 11 13  1  0
 13 14  2  0
 14 15  1  0
 15 16  2  0
 16 17  1  0
 17 18  2  0
 18 19  1  0
 19 20  2  0
 20 21  1  0
 21 22  2  0
  5 23  1  0
 23 24  2  0
 24 25  1  0
 25 26  2  0
 26 27  1  0
 27 28  2  0
 22 13  1  0
 28 23  1  0
 21 16  1  0
  1 29  1  0
  1 30  1  0
  1 31  1  0
  3 32  1  0
  3 33  1  0
  4 34  1  0
  4 35  1  0
  5 36  1  6
  6 37  1  0
  9 38  1  0
  9 39  1  0
 10 40  1  0
 14 41  1  0
 15 42  1  0
 17 43  1  0
 18 44  1  0
 19 45  1  0
 20 46  1  0
 24 47  1  0
 25 48  1  0
 26 49  1  0
 27 50  1  0
 28 51  1  0
M  END
>  <smiles>  (50) 
CSCC[C@H](NC(=O)CNC(=O)c1ccc2ccccc2n1)c1ccccc1

>  <score_type>  (50) 
oracle

>  <origin>  (50) 
autodockgpu

>  <m_score__min__energy>  (50) 
-8.6099999999999994

>  <m_primary>  (50) 
energy

>  <rmsd>  (50) 
5.751157240242595

>  <m_score__min__rmsd>  (50) 
5.751157240242595

>  <meeko>  (50) 
{"free_energy": -8.07, "intermolecular_energy": -10.46, "internal_energy": -1.67, "cluster_size": 5, "cluster_id": 3, "rank_in_cluster": 1}

>  <energy>  (50) 
-7.22

>  <cluster_rmsd>  (50) 
0.0

>  <cluster>  (50) 
8

$$$$
