
     RDKit          3D

 62 66  0  0  0  0  0  0  0  0999 V2000
  144.7990   71.4640  220.0800 N   0  0  0  0  0  0  0  0  0  0  0  0
  145.5530   72.9840  220.2950 S   0  0  0  0  0  0  0  0  0  0  0  0
  146.3010   73.3810  219.0450 O   0  0  0  0  0  0  0  0  0  0  0  0
  146.6140   72.8530  221.3860 O   0  0  0  0  0  0  0  0  0  0  0  0
  144.4750   74.2950  220.7220 C   0  0  0  0  0  0  0  0  0  0  0  0
  143.6910   74.8870  219.6030 C   0  0  0  0  0  0  0  0  0  0  0  0
  142.3850   74.2730  219.2600 C   0  0  0  0  0  0  0  0  0  0  0  0
  141.7040   73.6080  220.3890 C   0  0  0  0  0  0  0  0  0  0  0  0
  141.7730   72.2560  220.6520 C   0  0  0  0  0  0  0  0  0  0  0  0
  141.1290   71.6760  221.6960 N   0  0  0  0  0  0  0  0  0  0  0  0
  140.3960   72.4190  222.5120 C   0  0  0  0  0  0  0  0  0  0  0  0
  139.7200   71.8180  223.6090 N   0  0  0  0  0  0  0  0  0  0  0  0
  138.3880   71.2730  223.4840 C   0  0  0  0  0  0  0  0  0  0  0  0
  138.4410   69.7820  223.6690 C   0  0  0  0  0  0  0  0  0  0  0  0
  139.4350   69.4020  224.7050 C   0  0  0  0  0  0  0  0  0  0  0  0
  139.4490   68.0620  225.0930 C   0  0  0  0  0  0  0  0  0  0  0  0
  140.3390   67.5980  226.0560 C   0  0  0  0  0  0  0  0  0  0  0  0
  141.2220   68.5120  226.6290 C   0  0  0  0  0  0  0  0  0  0  0  0
  141.2110   69.8530  226.2450 C   0  0  0  0  0  0  0  0  0  0  0  0
  140.3120   70.2890  225.2800 C   0  0  0  0  0  0  0  0  0  0  0  0
  140.3640   71.7320  224.9260 C   0  0  0  0  0  0  0  0  0  0  0  0
  140.2810   73.7380  222.3200 N   0  0  0  0  0  0  0  0  0  0  0  0
  140.9200   74.3470  221.2750 C   0  0  0  0  0  0  0  0  0  0  0  0
  140.7150   75.7410  221.1740 N   0  0  0  0  0  0  0  0  0  0  0  0
  140.4950   76.4750  219.9510 C   0  0  0  0  0  0  0  0  0  0  0  0
  141.4140   77.6500  219.7580 C   0  0  0  0  0  0  0  0  0  0  0  0
  141.4850   78.4550  220.9990 C   0  0  0  0  0  0  0  0  0  0  0  0
  141.8930   79.7660  220.8800 C   0  0  0  0  0  0  0  0  0  0  0  0
  141.9850   80.5810  221.9930 C   0  0  0  0  0  0  0  0  0  0  0  0
  141.6580   80.0410  223.2180 C   0  0  0  0  0  0  0  0  0  0  0  0
  141.2470   78.7150  223.3210 C   0  0  0  0  0  0  0  0  0  0  0  0
  141.1540   77.9040  222.2160 C   0  0  0  0  0  0  0  0  0  0  0  0
  140.7120   76.5130  222.4120 C   0  0  0  0  0  0  0  0  0  0  0  0
  143.9240   71.5400  219.5120 H   0  0  0  0  0  0  0  0  0  0  0  0
  144.5280   71.0850  221.0040 H   0  0  0  0  0  0  0  0  0  0  0  0
  143.7618   73.9147  221.4682 H   0  0  0  0  0  0  0  0  0  0  0  0
  145.1234   75.1039  221.0899 H   0  0  0  0  0  0  0  0  0  0  0  0
  143.4991   75.9392  219.8602 H   0  0  0  0  0  0  0  0  0  0  0  0
  144.3145   74.7158  218.7131 H   0  0  0  0  0  0  0  0  0  0  0  0
  141.7233   75.0644  218.8780 H   0  0  0  0  0  0  0  0  0  0  0  0
  142.5939   73.4898  218.5164 H   0  0  0  0  0  0  0  0  0  0  0  0
  142.3760   71.6205  219.9868 H   0  0  0  0  0  0  0  0  0  0  0  0
  137.7365   71.7155  224.2520 H   0  0  0  0  0  0  0  0  0  0  0  0
  137.9869   71.5062  222.4866 H   0  0  0  0  0  0  0  0  0  0  0  0
  137.4476   69.4236  223.9769 H   0  0  0  0  0  0  0  0  0  0  0  0
  138.7414   69.3241  222.7150 H   0  0  0  0  0  0  0  0  0  0  0  0
  138.7424   67.3586  224.6283 H   0  0  0  0  0  0  0  0  0  0  0  0
  140.3459   66.5400  226.3569 H   0  0  0  0  0  0  0  0  0  0  0  0
  141.9361   68.1716  227.3933 H   0  0  0  0  0  0  0  0  0  0  0  0
  141.9129   70.5638  226.7055 H   0  0  0  0  0  0  0  0  0  0  0  0
  139.8148   72.3327  225.6660 H   0  0  0  0  0  0  0  0  0  0  0  0
  141.3935   72.1193  224.9112 H   0  0  0  0  0  0  0  0  0  0  0  0
  140.6360   75.7854  219.1057 H   0  0  0  0  0  0  0  0  0  0  0  0
  139.4741   76.8807  220.0075 H   0  0  0  0  0  0  0  0  0  0  0  0
  142.4203   77.2859  219.5034 H   0  0  0  0  0  0  0  0  0  0  0  0
  141.0245   78.2796  218.9444 H   0  0  0  0  0  0  0  0  0  0  0  0
  142.1483   80.1684  219.8886 H   0  0  0  0  0  0  0  0  0  0  0  0
  142.3092   81.6283  221.9035 H   0  0  0  0  0  0  0  0  0  0  0  0
  141.7224   80.6635  224.1227 H   0  0  0  0  0  0  0  0  0  0  0  0
  140.9908   78.3071  224.3099 H   0  0  0  0  0  0  0  0  0  0  0  0
  141.3878   76.0271  223.1312 H   0  0  0  0  0  0  0  0  0  0  0  0
  139.6766   76.5427  222.7823 H   0  0  0  0  0  0  0  0  0  0  0  0
  1  2  1  0
  2  3  2  0
  2  4  2  0
  2  5  1  0
  5  6  1  0
  6  7  1  0
  7  8  1  0
  8  9  2  0
  9 10  1  0
 10 11  2  0
 11 12  1  0
 12 13  1  0
 13 14  1  0
 14 15  1  0
 15 16  2  0
 16 17  1  0
 17 18  2  0
 18 19  1  0
 19 20  2  0
 20 21  1  0
 11 22  1  0
 22 23  2  0
 23 24  1  0
 24 25  1  0
 25 26  1  0
 26 27  1  0
 27 28  2  0
 28 29  1  0
 29 30  2  0
 30 31  1  0
 31 32  2  0
 32 33  1  0
 23  8  1  0
 33 24  1  0
 21 12  1  0
 32 27  1  0
 20 15  1  0
  1 34  1  0
  1 35  1  0
  5 36  1  0
  5 37  1  0
  6 38  1  0
  6 39  1  0
  7 40  1  0
  7 41  1  0
  9 42  1  0
 13 43  1  0
 13 44  1  0
 14 45  1  0
 14 46  1  0
 16 47  1  0
 17 48  1  0
 18 49  1  0
 19 50  1  0
 21 51  1  0
 21 52  1  0
 25 53  1  0
 25 54  1  0
 26 55  1  0
 26 56  1  0
 28 57  1  0
 29 58  1  0
 30 59  1  0
 31 60  1  0
 33 61  1  0
 33 62  1  0
M  END
>  <smiles>  (1) 
NS(=O)(=O)CCCc1cnc(N2CCc3ccccc3C2)nc1N1CCc2ccccc2C1

>  <score_type>  (1) 
oracle

>  <origin>  (1) 
autodockgpu

>  <m_score__min__energy>  (1) 
-10.720000000000001

>  <m_primary>  (1) 
energy

>  <rmsd>  (1) 
4.323155632936283

>  <m_score__min__rmsd>  (1) 
4.323155632936283

>  <meeko>  (1) 
{"free_energy": -10.29, "intermolecular_energy": -12.38, "internal_energy": -1.4, "cluster_size": 30, "cluster_id": 1, "rank_in_cluster": 10}

>  <energy>  (1) 
-10.72

>  <cluster_rmsd>  (1) 
0.0

>  <cluster>  (1) 
1

$$$$

     RDKit          3D

 62 66  0  0  0  0  0  0  0  0999 V2000
  146.3740   73.4070  219.1470 N   0  0  0  0  0  0  0  0  0  0  0  0
  145.3160   73.2410  220.4800 S   0  0  0  0  0  0  0  0  0  0  0  0
  146.0930   73.2550  221.7740 O   0  0  0  0  0  0  0  0  0  0  0  0
  144.6550   71.8650  220.4110 O   0  0  0  0  0  0  0  0  0  0  0  0
  144.0600   74.4560  220.5870 C   0  0  0  0  0  0  0  0  0  0  0  0
  143.3090   74.7330  219.3320 C   0  0  0  0  0  0  0  0  0  0  0  0
  142.0590   73.9770  219.0820 C   0  0  0  0  0  0  0  0  0  0  0  0
  141.4710   73.3470  220.2820 C   0  0  0  0  0  0  0  0  0  0  0  0
  141.5350   71.9990  220.5620 C   0  0  0  0  0  0  0  0  0  0  0  0
  140.9790   71.4510  221.6720 N   0  0  0  0  0  0  0  0  0  0  0  0
  140.3410   72.2240  222.5390 C   0  0  0  0  0  0  0  0  0  0  0  0
  139.7580   71.6580  223.7040 N   0  0  0  0  0  0  0  0  0  0  0  0
  138.3890   71.1970  223.7310 C   0  0  0  0  0  0  0  0  0  0  0  0
  138.3710   69.7040  223.9080 C   0  0  0  0  0  0  0  0  0  0  0  0
  139.4490   69.2550  224.8240 C   0  0  0  0  0  0  0  0  0  0  0  0
  139.4250   67.9140  225.2070 C   0  0  0  0  0  0  0  0  0  0  0  0
  140.3870   67.3900  226.0640 C   0  0  0  0  0  0  0  0  0  0  0  0
  141.3840   68.2430  226.5330 C   0  0  0  0  0  0  0  0  0  0  0  0
  141.4130   69.5860  226.1540 C   0  0  0  0  0  0  0  0  0  0  0  0
  140.4390   70.0830  225.2970 C   0  0  0  0  0  0  0  0  0  0  0  0
  140.5390   71.5230  224.9400 C   0  0  0  0  0  0  0  0  0  0  0  0
  140.2380   73.5420  222.3330 N   0  0  0  0  0  0  0  0  0  0  0  0
  140.7890   74.1190  221.2220 C   0  0  0  0  0  0  0  0  0  0  0  0
  140.6060   75.5150  221.1150 N   0  0  0  0  0  0  0  0  0  0  0  0
  140.2750   76.2320  219.9060 C   0  0  0  0  0  0  0  0  0  0  0  0
  141.1960   77.3810  219.5950 C   0  0  0  0  0  0  0  0  0  0  0  0
  141.4140   78.2060  220.8040 C   0  0  0  0  0  0  0  0  0  0  0  0
  141.8370   79.5040  220.6160 C   0  0  0  0  0  0  0  0  0  0  0  0
  142.0630   80.3370  221.6960 C   0  0  0  0  0  0  0  0  0  0  0  0
  141.8540   79.8270  222.9600 C   0  0  0  0  0  0  0  0  0  0  0  0
  141.4270   78.5140  223.1320 C   0  0  0  0  0  0  0  0  0  0  0  0
  141.2010   77.6850  222.0600 C   0  0  0  0  0  0  0  0  0  0  0  0
  140.7500   76.3100  222.3300 C   0  0  0  0  0  0  0  0  0  0  0  0
  147.1420   74.0890  219.3420 H   0  0  0  0  0  0  0  0  0  0  0  0
  145.8450   73.7690  218.3350 H   0  0  0  0  0  0  0  0  0  0  0  0
  143.3359   74.1250  221.3460 H   0  0  0  0  0  0  0  0  0  0  0  0
  144.5769   75.3946  220.8356 H   0  0  0  0  0  0  0  0  0  0  0  0
  143.0483   75.8016  219.3372 H   0  0  0  0  0  0  0  0  0  0  0  0
  143.9887   74.4081  218.5305 H   0  0  0  0  0  0  0  0  0  0  0  0
  141.3169   74.6708  218.6602 H   0  0  0  0  0  0  0  0  0  0  0  0
  142.3219   73.1576  218.3968 H   0  0  0  0  0  0  0  0  0  0  0  0
  142.0593   71.3390  219.8553 H   0  0  0  0  0  0  0  0  0  0  0  0
  137.8575   71.6728  224.5683 H   0  0  0  0  0  0  0  0  0  0  0  0
  137.8921   71.4621  222.7861 H   0  0  0  0  0  0  0  0  0  0  0  0
  137.3984   69.4047  224.3258 H   0  0  0  0  0  0  0  0  0  0  0  0
  138.5340   69.2366  222.9257 H   0  0  0  0  0  0  0  0  0  0  0  0
  138.6296   67.2580  224.8237 H   0  0  0  0  0  0  0  0  0  0  0  0
  140.3615   66.3318  226.3632 H   0  0  0  0  0  0  0  0  0  0  0  0
  142.1580   67.8530  227.2105 H   0  0  0  0  0  0  0  0  0  0  0  0
  142.2048   70.2490  226.5328 H   0  0  0  0  0  0  0  0  0  0  0  0
  140.1140   72.1504  225.7374 H   0  0  0  0  0  0  0  0  0  0  0  0
  141.5821   71.8470  224.8096 H   0  0  0  0  0  0  0  0  0  0  0  0
  140.3113   75.5241  219.0649 H   0  0  0  0  0  0  0  0  0  0  0  0
  139.2747   76.6630  220.0595 H   0  0  0  0  0  0  0  0  0  0  0  0
  142.1618   76.9875  219.2452 H   0  0  0  0  0  0  0  0  0  0  0  0
  140.7382   78.0052  218.8135 H   0  0  0  0  0  0  0  0  0  0  0  0
  141.9966   79.8815  219.5952 H   0  0  0  0  0  0  0  0  0  0  0  0
  142.3991   81.3744  221.5515 H   0  0  0  0  0  0  0  0  0  0  0  0
  142.0264   80.4639  223.8402 H   0  0  0  0  0  0  0  0  0  0  0  0
  141.2666   78.1306  224.1505 H   0  0  0  0  0  0  0  0  0  0  0  0
  141.4857   75.8208  222.9853 H   0  0  0  0  0  0  0  0  0  0  0  0
  139.7598   76.3727  222.8049 H   0  0  0  0  0  0  0  0  0  0  0  0
  1  2  1  0
  2  3  2  0
  2  4  2  0
  2  5  1  0
  5  6  1  0
  6  7  1  0
  7  8  1  0
  8  9  2  0
  9 10  1  0
 10 11  2  0
 11 12  1  0
 12 13  1  0
 13 14  1  0
 14 15  1  0
 15 16  2  0
 16 17  1  0
 17 18  2  0
 18 19  1  0
 19 20  2  0
 20 21  1  0
 11 22  1  0
 22 23  2  0
 23 24  1  0
 24 25  1  0
 25 26  1  0
 26 27  1  0
 27 28  2  0
 28 29  1  0
 29 30  2  0
 30 31  1  0
 31 32  2  0
 32 33  1  0
 23  8  1  0
 33 24  1  0
 21 12  1  0
 32 27  1  0
 20 15  1  0
  1 34  1  0
  1 35  1  0
  5 36  1  0
  5 37  1  0
  6 38  1  0
  6 39  1  0
  7 40  1  0
  7 41  1  0
  9 42  1  0
 13 43  1  0
 13 44  1  0
 14 45  1  0
 14 46  1  0
 16 47  1  0
 17 48  1  0
 18 49  1  0
 19 50  1  0
 21 51  1  0
 21 52  1  0
 25 53  1  0
 25 54  1  0
 26 55  1  0
 26 56  1  0
 28 57  1  0
 29 58  1  0
 30 59  1  0
 31 60  1  0
 33 61  1  0
 33 62  1  0
M  END
>  <smiles>  (2) 
NS(=O)(=O)CCCc1cnc(N2CCc3ccccc3C2)nc1N1CCc2ccccc2C1

>  <score_type>  (2) 
oracle

>  <origin>  (2) 
autodockgpu

>  <m_score__min__energy>  (2) 
-10.720000000000001

>  <m_primary>  (2) 
energy

>  <rmsd>  (2) 
4.264644546468996

>  <m_score__min__rmsd>  (2) 
4.264644546468996

>  <meeko>  (2) 
{"free_energy": -10.64, "intermolecular_energy": -12.73, "internal_energy": -1.52, "cluster_size": 30, "cluster_id": 1, "rank_in_cluster": 4}

>  <energy>  (2) 
-10.71

>  <cluster_rmsd>  (2) 
0.14

>  <cluster>  (2) 
1

$$$$

     RDKit          3D

 62 66  0  0  0  0  0  0  0  0999 V2000
  134.7760   68.3350  224.9790 N   0  0  0  0  0  0  0  0  0  0  0  0
  133.0970   68.1110  225.2180 S   0  0  0  0  0  0  0  0  0  0  0  0
  132.8510   67.1800  226.3810 O   0  0  0  0  0  0  0  0  0  0  0  0
  132.5190   67.4020  223.9940 O   0  0  0  0  0  0  0  0  0  0  0  0
  132.1830   69.5790  225.4940 C   0  0  0  0  0  0  0  0  0  0  0  0
  131.6700   70.2670  224.2780 C   0  0  0  0  0  0  0  0  0  0  0  0
  132.5540   71.2450  223.6000 C   0  0  0  0  0  0  0  0  0  0  0  0
  133.9860   70.8840  223.6040 C   0  0  0  0  0  0  0  0  0  0  0  0
  134.5770   70.0390  222.6870 C   0  0  0  0  0  0  0  0  0  0  0  0
  135.8960   69.7230  222.7230 N   0  0  0  0  0  0  0  0  0  0  0  0
  136.6710   70.2340  223.6680 C   0  0  0  0  0  0  0  0  0  0  0  0
  138.0530   69.9080  223.7100 N   0  0  0  0  0  0  0  0  0  0  0  0
  139.0780   70.8640  223.3610 C   0  0  0  0  0  0  0  0  0  0  0  0
  139.8870   71.1950  224.5850 C   0  0  0  0  0  0  0  0  0  0  0  0
  140.0810   70.0000  225.4440 C   0  0  0  0  0  0  0  0  0  0  0  0
  140.9630   70.1380  226.5150 C   0  0  0  0  0  0  0  0  0  0  0  0
  141.2180   69.0810  227.3820 C   0  0  0  0  0  0  0  0  0  0  0  0
  140.5660   67.8710  227.1520 C   0  0  0  0  0  0  0  0  0  0  0  0
  139.6820   67.7270  226.0810 C   0  0  0  0  0  0  0  0  0  0  0  0
  139.4460   68.8000  225.2310 C   0  0  0  0  0  0  0  0  0  0  0  0
  138.4920   68.5670  224.1150 C   0  0  0  0  0  0  0  0  0  0  0  0
  136.1680   71.0600  224.5930 N   0  0  0  0  0  0  0  0  0  0  0  0
  134.8410   71.3950  224.5790 C   0  0  0  0  0  0  0  0  0  0  0  0
  134.4310   72.2680  225.6110 N   0  0  0  0  0  0  0  0  0  0  0  0
  133.8440   71.8700  226.8690 C   0  0  0  0  0  0  0  0  0  0  0  0
  132.5460   72.5590  227.1930 C   0  0  0  0  0  0  0  0  0  0  0  0
  132.6660   74.0160  226.9590 C   0  0  0  0  0  0  0  0  0  0  0  0
  131.7700   74.8370  227.6100 C   0  0  0  0  0  0  0  0  0  0  0  0
  131.8180   76.2080  227.4420 C   0  0  0  0  0  0  0  0  0  0  0  0
  132.7860   76.7240  226.6070 C   0  0  0  0  0  0  0  0  0  0  0  0
  133.6830   75.8810  225.9570 C   0  0  0  0  0  0  0  0  0  0  0  0
  133.6370   74.5190  226.1240 C   0  0  0  0  0  0  0  0  0  0  0  0
  134.6230   73.6990  225.3990 C   0  0  0  0  0  0  0  0  0  0  0  0
  135.0750   69.3090  225.2120 H   0  0  0  0  0  0  0  0  0  0  0  0
  135.0010   68.1780  223.9810 H   0  0  0  0  0  0  0  0  0  0  0  0
  131.3194   69.3239  226.1258 H   0  0  0  0  0  0  0  0  0  0  0  0
  132.8881   70.2842  225.9583 H   0  0  0  0  0  0  0  0  0  0  0  0
  131.4218   69.4875  223.5427 H   0  0  0  0  0  0  0  0  0  0  0  0
  130.8256   70.8704  224.6425 H   0  0  0  0  0  0  0  0  0  0  0  0
  132.2260   71.3367  222.5540 H   0  0  0  0  0  0  0  0  0  0  0  0
  132.4678   72.1862  224.1628 H   0  0  0  0  0  0  0  0  0  0  0  0
  133.9524   69.6032  221.8933 H   0  0  0  0  0  0  0  0  0  0  0  0
  139.7355   70.4332  222.5915 H   0  0  0  0  0  0  0  0  0  0  0  0
  138.6101   71.7795  222.9700 H   0  0  0  0  0  0  0  0  0  0  0  0
  140.8708   71.5747  224.2721 H   0  0  0  0  0  0  0  0  0  0  0  0
  139.3427   71.9545  225.1654 H   0  0  0  0  0  0  0  0  0  0  0  0
  141.4671   71.1021  226.6774 H   0  0  0  0  0  0  0  0  0  0  0  0
  141.9146   69.1967  228.2254 H   0  0  0  0  0  0  0  0  0  0  0  0
  140.7501   67.0187  227.8226 H   0  0  0  0  0  0  0  0  0  0  0  0
  139.1738   66.7664  225.9107 H   0  0  0  0  0  0  0  0  0  0  0  0
  138.9909   68.0540  223.2796 H   0  0  0  0  0  0  0  0  0  0  0  0
  137.6490   67.9278  224.4163 H   0  0  0  0  0  0  0  0  0  0  0  0
  133.6595   70.7861  226.8353 H   0  0  0  0  0  0  0  0  0  0  0  0
  134.5579   72.1583  227.6546 H   0  0  0  0  0  0  0  0  0  0  0  0
  131.7496   72.1528  226.5521 H   0  0  0  0  0  0  0  0  0  0  0  0
  132.3028   72.3852  228.2516 H   0  0  0  0  0  0  0  0  0  0  0  0
  131.0087   74.3961  228.2703 H   0  0  0  0  0  0  0  0  0  0  0  0
  131.1054   76.8675  227.9589 H   0  0  0  0  0  0  0  0  0  0  0  0
  132.8501   77.8113  226.4530 H   0  0  0  0  0  0  0  0  0  0  0  0
  134.4459   76.3159  225.2946 H   0  0  0  0  0  0  0  0  0  0  0  0
  134.5335   73.9104  224.3232 H   0  0  0  0  0  0  0  0  0  0  0  0
  135.6197   73.9608  225.7837 H   0  0  0  0  0  0  0  0  0  0  0  0
  1  2  1  0
  2  3  2  0
  2  4  2  0
  2  5  1  0
  5  6  1  0
  6  7  1  0
  7  8  1  0
  8  9  2  0
  9 10  1  0
 10 11  2  0
 11 12  1  0
 12 13  1  0
 13 14  1  0
 14 15  1  0
 15 16  2  0
 16 17  1  0
 17 18  2  0
 18 19  1  0
 19 20  2  0
 20 21  1  0
 11 22  1  0
 22 23  2  0
 23 24  1  0
 24 25  1  0
 25 26  1  0
 26 27  1  0
 27 28  2  0
 28 29  1  0
 29 30  2  0
 30 31  1  0
 31 32  2  0
 32 33  1  0
 23  8  1  0
 33 24  1  0
 21 12  1  0
 32 27  1  0
 20 15  1  0
  1 34  1  0
  1 35  1  0
  5 36  1  0
  5 37  1  0
  6 38  1  0
  6 39  1  0
  7 40  1  0
  7 41  1  0
  9 42  1  0
 13 43  1  0
 13 44  1  0
 14 45  1  0
 14 46  1  0
 16 47  1  0
 17 48  1  0
 18 49  1  0
 19 50  1  0
 21 51  1  0
 21 52  1  0
 25 53  1  0
 25 54  1  0
 26 55  1  0
 26 56  1  0
 28 57  1  0
 29 58  1  0
 30 59  1  0
 31 60  1  0
 33 61  1  0
 33 62  1  0
M  END
>  <smiles>  (3) 
NS(=O)(=O)CCCc1cnc(N2CCc3ccccc3C2)nc1N1CCc2ccccc2C1

>  <score_type>  (3) 
oracle

>  <origin>  (3) 
autodockgpu

>  <m_score__min__energy>  (3) 
-10.720000000000001

>  <m_primary>  (3) 
energy

>  <rmsd>  (3) 
10.97011240905934

>  <m_score__min__rmsd>  (3) 
10.97011240905934

>  <meeko>  (3) 
{"free_energy": -7.32, "intermolecular_energy": -9.41, "internal_energy": -3.06, "cluster_size": 3, "cluster_id": 7, "rank_in_cluster": 2}

>  <energy>  (3) 
-10.68

>  <cluster_rmsd>  (3) 
0.23

>  <cluster>  (3) 
1

$$$$

     RDKit          3D

 62 66  0  0  0  0  0  0  0  0999 V2000
  135.8280   74.8910  224.2670 N   0  0  0  0  0  0  0  0  0  0  0  0
  134.6950   73.6580  224.6170 S   0  0  0  0  0  0  0  0  0  0  0  0
  133.4100   73.8950  223.8600 O   0  0  0  0  0  0  0  0  0  0  0  0
  134.3230   73.7420  226.0960 O   0  0  0  0  0  0  0  0  0  0  0  0
  135.2380   72.0300  224.2710 C   0  0  0  0  0  0  0  0  0  0  0  0
  136.6610   71.8900  223.8570 C   0  0  0  0  0  0  0  0  0  0  0  0
  136.9530   71.2170  222.5670 C   0  0  0  0  0  0  0  0  0  0  0  0
  138.0830   71.7980  221.8140 C   0  0  0  0  0  0  0  0  0  0  0  0
  137.9450   72.5720  220.6810 C   0  0  0  0  0  0  0  0  0  0  0  0
  139.0060   73.0860  220.0090 N   0  0  0  0  0  0  0  0  0  0  0  0
  140.2370   72.8480  220.4390 C   0  0  0  0  0  0  0  0  0  0  0  0
  141.3520   73.3850  219.7420 N   0  0  0  0  0  0  0  0  0  0  0  0
  141.5810   74.8070  219.6380 C   0  0  0  0  0  0  0  0  0  0  0  0
  142.8310   75.1670  220.3910 C   0  0  0  0  0  0  0  0  0  0  0  0
  143.8690   74.1150  220.2480 C   0  0  0  0  0  0  0  0  0  0  0  0
  145.1340   74.4140  220.7530 C   0  0  0  0  0  0  0  0  0  0  0  0
  146.1800   73.5000  220.6700 C   0  0  0  0  0  0  0  0  0  0  0  0
  145.9300   72.2690  220.0660 C   0  0  0  0  0  0  0  0  0  0  0  0
  144.6660   71.9650  219.5590 C   0  0  0  0  0  0  0  0  0  0  0  0
  143.6400   72.8960  219.6550 C   0  0  0  0  0  0  0  0  0  0  0  0
  142.3240   72.4970  219.0920 C   0  0  0  0  0  0  0  0  0  0  0  0
  140.4480   72.1050  221.5320 N   0  0  0  0  0  0  0  0  0  0  0  0
  139.3960   71.5750  222.2270 C   0  0  0  0  0  0  0  0  0  0  0  0
  139.7480   70.8030  223.3560 N   0  0  0  0  0  0  0  0  0  0  0  0
  139.3560   69.4350  223.5990 C   0  0  0  0  0  0  0  0  0  0  0  0
  138.7160   69.2020  224.9410 C   0  0  0  0  0  0  0  0  0  0  0  0
  139.5090   69.8540  226.0080 C   0  0  0  0  0  0  0  0  0  0  0  0
  139.3440   69.3850  227.2930 C   0  0  0  0  0  0  0  0  0  0  0  0
  140.0490   69.9420  228.3440 C   0  0  0  0  0  0  0  0  0  0  0  0
  140.9160   70.9770  228.0640 C   0  0  0  0  0  0  0  0  0  0  0  0
  141.0700   71.4380  226.7600 C   0  0  0  0  0  0  0  0  0  0  0  0
  140.3710   70.8850  225.7150 C   0  0  0  0  0  0  0  0  0  0  0  0
  140.5930   71.4330  224.3660 C   0  0  0  0  0  0  0  0  0  0  0  0
  135.5730   75.4190  223.4010 H   0  0  0  0  0  0  0  0  0  0  0  0
  136.7550   74.4630  224.1010 H   0  0  0  0  0  0  0  0  0  0  0  0
  135.0908   71.4263  225.1786 H   0  0  0  0  0  0  0  0  0  0  0  0
  134.6441   71.6970  223.4071 H   0  0  0  0  0  0  0  0  0  0  0  0
  137.0852   72.9033  223.7996 H   0  0  0  0  0  0  0  0  0  0  0  0
  137.1018   71.2271  224.6162 H   0  0  0  0  0  0  0  0  0  0  0  0
  137.1851   70.1621  222.7749 H   0  0  0  0  0  0  0  0  0  0  0  0
  136.0596   71.3456  221.9383 H   0  0  0  0  0  0  0  0  0  0  0  0
  136.9323   72.7815  220.3062 H   0  0  0  0  0  0  0  0  0  0  0  0
  141.6974   75.0837  218.5797 H   0  0  0  0  0  0  0  0  0  0  0  0
  140.7250   75.3496  220.0656 H   0  0  0  0  0  0  0  0  0  0  0  0
  143.2256   76.1155  219.9977 H   0  0  0  0  0  0  0  0  0  0  0  0
  142.5784   75.2628  221.4573 H   0  0  0  0  0  0  0  0  0  0  0  0
  145.3084   75.3916  221.2263 H   0  0  0  0  0  0  0  0  0  0  0  0
  147.1758   73.7421  221.0697 H   0  0  0  0  0  0  0  0  0  0  0  0
  146.7391   71.5279  219.9880 H   0  0  0  0  0  0  0  0  0  0  0  0
  144.4826   70.9898  219.0842 H   0  0  0  0  0  0  0  0  0  0  0  0
  142.3100   72.6396  218.0014 H   0  0  0  0  0  0  0  0  0  0  0  0
  142.1007   71.4350  219.2719 H   0  0  0  0  0  0  0  0  0  0  0  0
  138.6387   69.1387  222.8194 H   0  0  0  0  0  0  0  0  0  0  0  0
  140.2783   68.8358  223.5822 H   0  0  0  0  0  0  0  0  0  0  0  0
  137.6994   69.6221  224.9362 H   0  0  0  0  0  0  0  0  0  0  0  0
  138.6754   68.1201  225.1354 H   0  0  0  0  0  0  0  0  0  0  0  0
  138.6439   68.5586  227.4848 H   0  0  0  0  0  0  0  0  0  0  0  0
  139.9221   69.5709  229.3717 H   0  0  0  0  0  0  0  0  0  0  0  0
  141.4908   71.4422  228.8783 H   0  0  0  0  0  0  0  0  0  0  0  0
  141.7680   72.2647  226.5615 H   0  0  0  0  0  0  0  0  0  0  0  0
  140.3757   72.5112  224.3840 H   0  0  0  0  0  0  0  0  0  0  0  0
  141.6402   71.2336  224.0945 H   0  0  0  0  0  0  0  0  0  0  0  0
  1  2  1  0
  2  3  2  0
  2  4  2  0
  2  5  1  0
  5  6  1  0
  6  7  1  0
  7  8  1  0
  8  9  2  0
  9 10  1  0
 10 11  2  0
 11 12  1  0
 12 13  1  0
 13 14  1  0
 14 15  1  0
 15 16  2  0
 16 17  1  0
 17 18  2  0
 18 19  1  0
 19 20  2  0
 20 21  1  0
 11 22  1  0
 22 23  2  0
 23 24  1  0
 24 25  1  0
 25 26  1  0
 26 27  1  0
 27 28  2  0
 28 29  1  0
 29 30  2  0
 30 31  1  0
 31 32  2  0
 32 33  1  0
 23  8  1  0
 33 24  1  0
 21 12  1  0
 32 27  1  0
 20 15  1  0
  1 34  1  0
  1 35  1  0
  5 36  1  0
  5 37  1  0
  6 38  1  0
  6 39  1  0
  7 40  1  0
  7 41  1  0
  9 42  1  0
 13 43  1  0
 13 44  1  0
 14 45  1  0
 14 46  1  0
 16 47  1  0
 17 48  1  0
 18 49  1  0
 19 50  1  0
 21 51  1  0
 21 52  1  0
 25 53  1  0
 25 54  1  0
 26 55  1  0
 26 56  1  0
 28 57  1  0
 29 58  1  0
 30 59  1  0
 31 60  1  0
 33 61  1  0
 33 62  1  0
M  END
>  <smiles>  (4) 
NS(=O)(=O)CCCc1cnc(N2CCc3ccccc3C2)nc1N1CCc2ccccc2C1

>  <score_type>  (4) 
oracle

>  <origin>  (4) 
autodockgpu

>  <m_score__min__energy>  (4) 
-10.720000000000001

>  <m_primary>  (4) 
energy

>  <rmsd>  (4) 
10.392492116552349

>  <m_score__min__rmsd>  (4) 
10.392492116552349

>  <meeko>  (4) 
{"free_energy": -8.27, "intermolecular_energy": -10.36, "internal_energy": -1.39, "cluster_size": 1, "cluster_id": 5, "rank_in_cluster": 1}

>  <energy>  (4) 
-10.64

>  <cluster_rmsd>  (4) 
0.28

>  <cluster>  (4) 
1

$$$$

     RDKit          3D

 62 66  0  0  0  0  0  0  0  0999 V2000
  146.4160   73.5560  219.5460 N   0  0  0  0  0  0  0  0  0  0  0  0
  144.8140   73.0630  219.8840 S   0  0  0  0  0  0  0  0  0  0  0  0
  144.8130   71.9190  220.8690 O   0  0  0  0  0  0  0  0  0  0  0  0
  144.1940   72.5050  218.6040 O   0  0  0  0  0  0  0  0  0  0  0  0
  143.7660   74.3180  220.5080 C   0  0  0  0  0  0  0  0  0  0  0  0
  142.8550   74.9600  219.5210 C   0  0  0  0  0  0  0  0  0  0  0  0
  141.4840   74.4130  219.3720 C   0  0  0  0  0  0  0  0  0  0  0  0
  140.9840   73.6830  220.5540 C   0  0  0  0  0  0  0  0  0  0  0  0
  141.1160   72.3230  220.7400 C   0  0  0  0  0  0  0  0  0  0  0  0
  140.6390   71.6810  221.8360 N   0  0  0  0  0  0  0  0  0  0  0  0
  140.0150   72.3670  222.7820 C   0  0  0  0  0  0  0  0  0  0  0  0
  139.5140   71.7020  223.9340 N   0  0  0  0  0  0  0  0  0  0  0  0
  138.1730   71.1680  223.9890 C   0  0  0  0  0  0  0  0  0  0  0  0
  138.2380   69.6690  224.0730 C   0  0  0  0  0  0  0  0  0  0  0  0
  139.3780   69.2230  224.9130 C   0  0  0  0  0  0  0  0  0  0  0  0
  139.4380   67.8620  225.2120 C   0  0  0  0  0  0  0  0  0  0  0  0
  140.4630   67.3380  225.9930 C   0  0  0  0  0  0  0  0  0  0  0  0
  141.4370   68.2130  226.4720 C   0  0  0  0  0  0  0  0  0  0  0  0
  141.3810   69.5760  226.1770 C   0  0  0  0  0  0  0  0  0  0  0  0
  140.3460   70.0720  225.3940 C   0  0  0  0  0  0  0  0  0  0  0  0
  140.3570   71.5340  225.1240 C   0  0  0  0  0  0  0  0  0  0  0  0
  139.8480   73.6900  222.6700 N   0  0  0  0  0  0  0  0  0  0  0  0
  140.3200   74.3610  221.5750 C   0  0  0  0  0  0  0  0  0  0  0  0
  140.0750   75.7520  221.5700 N   0  0  0  0  0  0  0  0  0  0  0  0
  141.0690   76.7830  221.3850 C   0  0  0  0  0  0  0  0  0  0  0  0
  141.0700   77.8420  222.4530 C   0  0  0  0  0  0  0  0  0  0  0  0
  139.6900   78.3070  222.7170 C   0  0  0  0  0  0  0  0  0  0  0  0
  139.5400   79.5440  223.3050 C   0  0  0  0  0  0  0  0  0  0  0  0
  138.2830   80.0470  223.5840 C   0  0  0  0  0  0  0  0  0  0  0  0
  137.1900   79.2720  223.2570 C   0  0  0  0  0  0  0  0  0  0  0  0
  137.3590   78.0240  222.6640 C   0  0  0  0  0  0  0  0  0  0  0  0
  138.6070   77.5240  222.3860 C   0  0  0  0  0  0  0  0  0  0  0  0
  138.6970   76.1950  221.7580 C   0  0  0  0  0  0  0  0  0  0  0  0
  146.6850   74.4060  220.0920 H   0  0  0  0  0  0  0  0  0  0  0  0
  146.4920   73.8030  218.5440 H   0  0  0  0  0  0  0  0  0  0  0  0
  143.1448   73.8744  221.3000 H   0  0  0  0  0  0  0  0  0  0  0  0
  144.4365   75.1177  220.8556 H   0  0  0  0  0  0  0  0  0  0  0  0
  142.7548   76.0168  219.8092 H   0  0  0  0  0  0  0  0  0  0  0  0
  143.3310   74.7702  218.5477 H   0  0  0  0  0  0  0  0  0  0  0  0
  140.7999   75.2506  219.1708 H   0  0  0  0  0  0  0  0  0  0  0  0
  141.5257   73.6844  218.5490 H   0  0  0  0  0  0  0  0  0  0  0  0
  141.6301   71.7334  219.9667 H   0  0  0  0  0  0  0  0  0  0  0  0
  137.6561   71.5636  224.8758 H   0  0  0  0  0  0  0  0  0  0  0  0
  137.6218   71.4626  223.0838 H   0  0  0  0  0  0  0  0  0  0  0  0
  137.3017   69.2941  224.5120 H   0  0  0  0  0  0  0  0  0  0  0  0
  138.3795   69.2709  223.0574 H   0  0  0  0  0  0  0  0  0  0  0  0
  138.6594   67.1896  224.8225 H   0  0  0  0  0  0  0  0  0  0  0  0
  140.5039   66.2637  226.2260 H   0  0  0  0  0  0  0  0  0  0  0  0
  142.2598   67.8243  227.0901 H   0  0  0  0  0  0  0  0  0  0  0  0
  142.1545   70.2559  226.5635 H   0  0  0  0  0  0  0  0  0  0  0  0
  139.9385   72.0887  225.9768 H   0  0  0  0  0  0  0  0  0  0  0  0
  141.3754   71.9200  224.9692 H   0  0  0  0  0  0  0  0  0  0  0  0
  142.0605   76.3068  221.3713 H   0  0  0  0  0  0  0  0  0  0  0  0
  140.8244   77.2897  220.4398 H   0  0  0  0  0  0  0  0  0  0  0  0
  141.4953   77.4245  223.3776 H   0  0  0  0  0  0  0  0  0  0  0  0
  141.6754   78.6944  222.1110 H   0  0  0  0  0  0  0  0  0  0  0  0
  140.4311   80.1384  223.5554 H   0  0  0  0  0  0  0  0  0  0  0  0
  138.1584   81.0345  224.0522 H   0  0  0  0  0  0  0  0  0  0  0  0
  136.1760   79.6433  223.4666 H   0  0  0  0  0  0  0  0  0  0  0  0
  136.4718   77.4244  222.4122 H   0  0  0  0  0  0  0  0  0  0  0  0
  138.1779   75.4672  222.3990 H   0  0  0  0  0  0  0  0  0  0  0  0
  138.2326   76.2658  220.7634 H   0  0  0  0  0  0  0  0  0  0  0  0
  1  2  1  0
  2  3  2  0
  2  4  2  0
  2  5  1  0
  5  6  1  0
  6  7  1  0
  7  8  1  0
  8  9  2  0
  9 10  1  0
 10 11  2  0
 11 12  1  0
 12 13  1  0
 13 14  1  0
 14 15  1  0
 15 16  2  0
 16 17  1  0
 17 18  2  0
 18 19  1  0
 19 20  2  0
 20 21  1  0
 11 22  1  0
 22 23  2  0
 23 24  1  0
 24 25  1  0
 25 26  1  0
 26 27  1  0
 27 28  2  0
 28 29  1  0
 29 30  2  0
 30 31  1  0
 31 32  2  0
 32 33  1  0
 23  8  1  0
 33 24  1  0
 21 12  1  0
 32 27  1  0
 20 15  1  0
  1 34  1  0
  1 35  1  0
  5 36  1  0
  5 37  1  0
  6 38  1  0
  6 39  1  0
  7 40  1  0
  7 41  1  0
  9 42  1  0
 13 43  1  0
 13 44  1  0
 14 45  1  0
 14 46  1  0
 16 47  1  0
 17 48  1  0
 18 49  1  0
 19 50  1  0
 21 51  1  0
 21 52  1  0
 25 53  1  0
 25 54  1  0
 26 55  1  0
 26 56  1  0
 28 57  1  0
 29 58  1  0
 30 59  1  0
 31 60  1  0
 33 61  1  0
 33 62  1  0
M  END
>  <smiles>  (5) 
NS(=O)(=O)CCCc1cnc(N2CCc3ccccc3C2)nc1N1CCc2ccccc2C1

>  <score_type>  (5) 
oracle

>  <origin>  (5) 
autodockgpu

>  <m_score__min__energy>  (5) 
-10.720000000000001

>  <m_primary>  (5) 
energy

>  <rmsd>  (5) 
4.401981107082834

>  <m_score__min__rmsd>  (5) 
4.401981107082834

>  <meeko>  (5) 
{"free_energy": -9.15, "intermolecular_energy": -11.24, "internal_energy": -1.36, "cluster_size": 30, "cluster_id": 1, "rank_in_cluster": 21}

>  <energy>  (5) 
-10.58

>  <cluster_rmsd>  (5) 
1.08

>  <cluster>  (5) 
1

$$$$

     RDKit          3D

 62 66  0  0  0  0  0  0  0  0999 V2000
  146.2100   74.2620  216.7080 N   0  0  0  0  0  0  0  0  0  0  0  0
  145.5240   73.0070  217.6450 S   0  0  0  0  0  0  0  0  0  0  0  0
  146.0770   73.0370  219.0500 O   0  0  0  0  0  0  0  0  0  0  0  0
  145.9590   71.6650  217.0590 O   0  0  0  0  0  0  0  0  0  0  0  0
  143.7760   73.0270  217.7490 C   0  0  0  0  0  0  0  0  0  0  0  0
  143.2030   73.5420  219.0230 C   0  0  0  0  0  0  0  0  0  0  0  0
  141.7290   73.6600  219.1310 C   0  0  0  0  0  0  0  0  0  0  0  0
  141.1550   73.0800  220.3620 C   0  0  0  0  0  0  0  0  0  0  0  0
  141.1760   71.7360  220.6710 C   0  0  0  0  0  0  0  0  0  0  0  0
  140.6330   71.2350  221.8090 N   0  0  0  0  0  0  0  0  0  0  0  0
  140.0540   72.0510  222.6780 C   0  0  0  0  0  0  0  0  0  0  0  0
  139.4860   71.5330  223.8730 N   0  0  0  0  0  0  0  0  0  0  0  0
  138.1230   71.0610  223.9320 C   0  0  0  0  0  0  0  0  0  0  0  0
  138.1200   69.5770  224.1770 C   0  0  0  0  0  0  0  0  0  0  0  0
  139.2100   69.1810  225.1040 C   0  0  0  0  0  0  0  0  0  0  0  0
  139.2020   67.8590  225.5470 C   0  0  0  0  0  0  0  0  0  0  0  0
  140.1770   67.3830  226.4180 C   0  0  0  0  0  0  0  0  0  0  0  0
  141.1690   68.2660  226.8400 C   0  0  0  0  0  0  0  0  0  0  0  0
  141.1820   69.5900  226.4000 C   0  0  0  0  0  0  0  0  0  0  0  0
  140.1960   70.0390  225.5290 C   0  0  0  0  0  0  0  0  0  0  0  0
  140.2790   71.4610  225.1060 C   0  0  0  0  0  0  0  0  0  0  0  0
  139.9960   73.3680  222.4460 N   0  0  0  0  0  0  0  0  0  0  0  0
  140.5340   73.8980  221.3060 C   0  0  0  0  0  0  0  0  0  0  0  0
  140.4020   75.2980  221.1730 N   0  0  0  0  0  0  0  0  0  0  0  0
  140.1040   76.0050  219.9500 C   0  0  0  0  0  0  0  0  0  0  0  0
  141.0670   77.1140  219.6240 C   0  0  0  0  0  0  0  0  0  0  0  0
  141.3080   77.9520  220.8200 C   0  0  0  0  0  0  0  0  0  0  0  0
  141.7790   79.2300  220.6120 C   0  0  0  0  0  0  0  0  0  0  0  0
  142.0300   80.0730  221.6780 C   0  0  0  0  0  0  0  0  0  0  0  0
  141.7960   79.5940  222.9500 C   0  0  0  0  0  0  0  0  0  0  0  0
  141.3210   78.3000  223.1420 C   0  0  0  0  0  0  0  0  0  0  0  0
  141.0700   77.4620  222.0840 C   0  0  0  0  0  0  0  0  0  0  0  0
  140.5690   76.1080  222.3750 C   0  0  0  0  0  0  0  0  0  0  0  0
  147.1600   74.5310  217.0530 H   0  0  0  0  0  0  0  0  0  0  0  0
  145.6120   75.1040  216.7770 H   0  0  0  0  0  0  0  0  0  0  0  0
  143.3975   73.6574  216.9308 H   0  0  0  0  0  0  0  0  0  0  0  0
  143.4636   71.9741  217.6880 H   0  0  0  0  0  0  0  0  0  0  0  0
  143.5360   72.8683  219.8263 H   0  0  0  0  0  0  0  0  0  0  0  0
  143.5648   74.5790  219.0851 H   0  0  0  0  0  0  0  0  0  0  0  0
  141.4670   74.7279  219.1002 H   0  0  0  0  0  0  0  0  0  0  0  0
  141.3078   73.0884  218.2909 H   0  0  0  0  0  0  0  0  0  0  0  0
  141.6533   71.0407  219.9648 H   0  0  0  0  0  0  0  0  0  0  0  0
  137.5934   71.5695  224.7511 H   0  0  0  0  0  0  0  0  0  0  0  0
  137.6168   71.2779  222.9798 H   0  0  0  0  0  0  0  0  0  0  0  0
  137.1536   69.2883  224.6161 H   0  0  0  0  0  0  0  0  0  0  0  0
  138.2789   69.0662  223.2159 H   0  0  0  0  0  0  0  0  0  0  0  0
  138.4094   67.1791  225.2012 H   0  0  0  0  0  0  0  0  0  0  0  0
  140.1651   66.3388  226.7638 H   0  0  0  0  0  0  0  0  0  0  0  0
  141.9516   67.9148  227.5286 H   0  0  0  0  0  0  0  0  0  0  0  0
  141.9705   70.2768  226.7415 H   0  0  0  0  0  0  0  0  0  0  0  0
  139.8554   72.1202  225.8781 H   0  0  0  0  0  0  0  0  0  0  0  0
  141.3178   71.7878  224.9509 H   0  0  0  0  0  0  0  0  0  0  0  0
  140.1191   75.2814  219.1216 H   0  0  0  0  0  0  0  0  0  0  0  0
  139.1193   76.4748  220.0904 H   0  0  0  0  0  0  0  0  0  0  0  0
  142.0199   76.6800  219.2868 H   0  0  0  0  0  0  0  0  0  0  0  0
  140.6363   77.7402  218.8288 H   0  0  0  0  0  0  0  0  0  0  0  0
  141.9573   79.5834  219.5857 H   0  0  0  0  0  0  0  0  0  0  0  0
  142.4049   81.0945  221.5169 H   0  0  0  0  0  0  0  0  0  0  0  0
  141.9864   80.2399  223.8198 H   0  0  0  0  0  0  0  0  0  0  0  0
  141.1424   77.9401  224.1660 H   0  0  0  0  0  0  0  0  0  0  0  0
  141.2840   75.6042  223.0421 H   0  0  0  0  0  0  0  0  0  0  0  0
  139.5796   76.2139  222.8439 H   0  0  0  0  0  0  0  0  0  0  0  0
  1  2  1  0
  2  3  2  0
  2  4  2  0
  2  5  1  0
  5  6  1  0
  6  7  1  0
  7  8  1  0
  8  9  2  0
  9 10  1  0
 10 11  2  0
 11 12  1  0
 12 13  1  0
 13 14  1  0
 14 15  1  0
 15 16  2  0
 16 17  1  0
 17 18  2  0
 18 19  1  0
 19 20  2  0
 20 21  1  0
 11 22  1  0
 22 23  2  0
 23 24  1  0
 24 25  1  0
 25 26  1  0
 26 27  1  0
 27 28  2  0
 28 29  1  0
 29 30  2  0
 30 31  1  0
 31 32  2  0
 32 33  1  0
 23  8  1  0
 33 24  1  0
 21 12  1  0
 32 27  1  0
 20 15  1  0
  1 34  1  0
  1 35  1  0
  5 36  1  0
  5 37  1  0
  6 38  1  0
  6 39  1  0
  7 40  1  0
  7 41  1  0
  9 42  1  0
 13 43  1  0
 13 44  1  0
 14 45  1  0
 14 46  1  0
 16 47  1  0
 17 48  1  0
 18 49  1  0
 19 50  1  0
 21 51  1  0
 21 52  1  0
 25 53  1  0
 25 54  1  0
 26 55  1  0
 26 56  1  0
 28 57  1  0
 29 58  1  0
 30 59  1  0
 31 60  1  0
 33 61  1  0
 33 62  1  0
M  END
>  <smiles>  (6) 
NS(=O)(=O)CCCc1cnc(N2CCc3ccccc3C2)nc1N1CCc2ccccc2C1

>  <score_type>  (6) 
oracle

>  <origin>  (6) 
autodockgpu

>  <m_score__min__energy>  (6) 
-10.720000000000001

>  <m_primary>  (6) 
energy

>  <rmsd>  (6) 
4.389301142945253

>  <m_score__min__rmsd>  (6) 
4.389301142945253

>  <meeko>  (6) 
{"free_energy": -9.64, "intermolecular_energy": -11.73, "internal_energy": -1.02, "cluster_size": 30, "cluster_id": 1, "rank_in_cluster": 18}

>  <energy>  (6) 
-10.55

>  <cluster_rmsd>  (6) 
0.56

>  <cluster>  (6) 
1

$$$$

     RDKit          3D

 62 66  0  0  0  0  0  0  0  0999 V2000
  142.9710   78.6110  217.4180 N   0  0  0  0  0  0  0  0  0  0  0  0
  142.8260   77.0620  218.1290 S   0  0  0  0  0  0  0  0  0  0  0  0
  142.9000   77.1650  219.6330 O   0  0  0  0  0  0  0  0  0  0  0  0
  144.0310   76.2200  217.7140 O   0  0  0  0  0  0  0  0  0  0  0  0
  141.3670   76.1880  217.7140 C   0  0  0  0  0  0  0  0  0  0  0  0
  141.1000   74.9530  218.5010 C   0  0  0  0  0  0  0  0  0  0  0  0
  142.0040   74.6330  219.6320 C   0  0  0  0  0  0  0  0  0  0  0  0
  141.3750   73.8540  220.7190 C   0  0  0  0  0  0  0  0  0  0  0  0
  141.5320   72.4950  220.8930 C   0  0  0  0  0  0  0  0  0  0  0  0
  140.9350   71.8090  221.8990 N   0  0  0  0  0  0  0  0  0  0  0  0
  140.1630   72.4490  222.7660 C   0  0  0  0  0  0  0  0  0  0  0  0
  139.5360   71.7370  223.8230 N   0  0  0  0  0  0  0  0  0  0  0  0
  138.2370   71.1230  223.6710 C   0  0  0  0  0  0  0  0  0  0  0  0
  138.3810   69.6290  223.7550 C   0  0  0  0  0  0  0  0  0  0  0  0
  139.4060   69.2400  224.7560 C   0  0  0  0  0  0  0  0  0  0  0  0
  139.5040   67.8800  225.0520 C   0  0  0  0  0  0  0  0  0  0  0  0
  140.4300   67.4070  225.9760 C   0  0  0  0  0  0  0  0  0  0  0  0
  141.2640   68.3310  226.6030 C   0  0  0  0  0  0  0  0  0  0  0  0
  141.1690   69.6930  226.3110 C   0  0  0  0  0  0  0  0  0  0  0  0
  140.2360   70.1370  225.3830 C   0  0  0  0  0  0  0  0  0  0  0  0
  140.1970   71.6010  225.1270 C   0  0  0  0  0  0  0  0  0  0  0  0
  139.9630   73.7680  222.6600 N   0  0  0  0  0  0  0  0  0  0  0  0
  140.5530   74.4830  221.6540 C   0  0  0  0  0  0  0  0  0  0  0  0
  140.2590   75.8640  221.6450 N   0  0  0  0  0  0  0  0  0  0  0  0
  139.2670   76.5100  220.8190 C   0  0  0  0  0  0  0  0  0  0  0  0
  139.7850   77.6780  220.0250 C   0  0  0  0  0  0  0  0  0  0  0  0
  140.5950   78.5670  220.8890 C   0  0  0  0  0  0  0  0  0  0  0  0
  140.7620   79.8710  220.4750 C   0  0  0  0  0  0  0  0  0  0  0  0
  141.5050   80.7610  221.2270 C   0  0  0  0  0  0  0  0  0  0  0  0
  142.0700   80.3040  222.3990 C   0  0  0  0  0  0  0  0  0  0  0  0
  141.8910   78.9840  222.8020 C   0  0  0  0  0  0  0  0  0  0  0  0
  141.1530   78.0980  222.0570 C   0  0  0  0  0  0  0  0  0  0  0  0
  141.0130   76.7200  222.5550 C   0  0  0  0  0  0  0  0  0  0  0  0
  142.9740   78.5610  216.3740 H   0  0  0  0  0  0  0  0  0  0  0  0
  143.8710   79.0340  217.7050 H   0  0  0  0  0  0  0  0  0  0  0  0
  140.5148   76.8688  217.8566 H   0  0  0  0  0  0  0  0  0  0  0  0
  141.5070   75.8534  216.6755 H   0  0  0  0  0  0  0  0  0  0  0  0
  140.0832   75.0413  218.9113 H   0  0  0  0  0  0  0  0  0  0  0  0
  141.2598   74.1337  217.7846 H   0  0  0  0  0  0  0  0  0  0  0  0
  142.8522   74.0526  219.2400 H   0  0  0  0  0  0  0  0  0  0  0  0
  142.3068   75.5948  220.0717 H   0  0  0  0  0  0  0  0  0  0  0  0
  142.1688   71.9438  220.1854 H   0  0  0  0  0  0  0  0  0  0  0  0
  137.5690   71.4734  224.4716 H   0  0  0  0  0  0  0  0  0  0  0  0
  137.8113   71.3979  222.6947 H   0  0  0  0  0  0  0  0  0  0  0  0
  137.4140   69.1918  224.0443 H   0  0  0  0  0  0  0  0  0  0  0  0
  138.6988   69.2555  222.7704 H   0  0  0  0  0  0  0  0  0  0  0  0
  138.8361   67.1681  224.5449 H   0  0  0  0  0  0  0  0  0  0  0  0
  140.5020   66.3336  226.2054 H   0  0  0  0  0  0  0  0  0  0  0  0
  142.0060   67.9830  227.3367 H   0  0  0  0  0  0  0  0  0  0  0  0
  141.8314   70.4125  226.8146 H   0  0  0  0  0  0  0  0  0  0  0  0
  139.6200   72.1158  225.9093 H   0  0  0  0  0  0  0  0  0  0  0  0
  141.2012   72.0500  225.1320 H   0  0  0  0  0  0  0  0  0  0  0  0
  138.8676   75.7652  220.1148 H   0  0  0  0  0  0  0  0  0  0  0  0
  138.5016   76.9086  221.5011 H   0  0  0  0  0  0  0  0  0  0  0  0
  140.4096   77.3070  219.1990 H   0  0  0  0  0  0  0  0  0  0  0  0
  138.9319   78.2464  219.6260 H   0  0  0  0  0  0  0  0  0  0  0  0
  140.2987   80.2070  219.5356 H   0  0  0  0  0  0  0  0  0  0  0  0
  141.6416   81.8025  220.9006 H   0  0  0  0  0  0  0  0  0  0  0  0
  142.6668   80.9881  223.0202 H   0  0  0  0  0  0  0  0  0  0  0  0
  142.3521   78.6423  223.7404 H   0  0  0  0  0  0  0  0  0  0  0  0
  142.0170   76.2913  222.6900 H   0  0  0  0  0  0  0  0  0  0  0  0
  140.4579   76.7653  223.5036 H   0  0  0  0  0  0  0  0  0  0  0  0
  1  2  1  0
  2  3  2  0
  2  4  2  0
  2  5  1  0
  5  6  1  0
  6  7  1  0
  7  8  1  0
  8  9  2  0
  9 10  1  0
 10 11  2  0
 11 12  1  0
 12 13  1  0
 13 14  1  0
 14 15  1  0
 15 16  2  0
 16 17  1  0
 17 18  2  0
 18 19  1  0
 19 20  2  0
 20 21  1  0
 11 22  1  0
 22 23  2  0
 23 24  1  0
 24 25  1  0
 25 26  1  0
 26 27  1  0
 27 28  2  0
 28 29  1  0
 29 30  2  0
 30 31  1  0
 31 32  2  0
 32 33  1  0
 23  8  1  0
 33 24  1  0
 21 12  1  0
 32 27  1  0
 20 15  1  0
  1 34  1  0
  1 35  1  0
  5 36  1  0
  5 37  1  0
  6 38  1  0
  6 39  1  0
  7 40  1  0
  7 41  1  0
  9 42  1  0
 13 43  1  0
 13 44  1  0
 14 45  1  0
 14 46  1  0
 16 47  1  0
 17 48  1  0
 18 49  1  0
 19 50  1  0
 21 51  1  0
 21 52  1  0
 25 53  1  0
 25 54  1  0
 26 55  1  0
 26 56  1  0
 28 57  1  0
 29 58  1  0
 30 59  1  0
 31 60  1  0
 33 61  1  0
 33 62  1  0
M  END
>  <smiles>  (7) 
NS(=O)(=O)CCCc1cnc(N2CCc3ccccc3C2)nc1N1CCc2ccccc2C1

>  <score_type>  (7) 
oracle

>  <origin>  (7) 
autodockgpu

>  <m_score__min__energy>  (7) 
-10.720000000000001

>  <m_primary>  (7) 
energy

>  <rmsd>  (7) 
3.3536607341927267

>  <m_score__min__rmsd>  (7) 
3.3536607341927267

>  <meeko>  (7) 
{"free_energy": -8.31, "intermolecular_energy": -10.4, "internal_energy": -1.86, "cluster_size": 3, "cluster_id": 3, "rank_in_cluster": 3}

>  <energy>  (7) 
-10.54

>  <cluster_rmsd>  (7) 
0.35

>  <cluster>  (7) 
1

$$$$

     RDKit          3D

 62 66  0  0  0  0  0  0  0  0999 V2000
  144.6940   74.5350  217.1120 N   0  0  0  0  0  0  0  0  0  0  0  0
  145.2450   73.1450  217.9420 S   0  0  0  0  0  0  0  0  0  0  0  0
  146.5450   73.4380  218.6520 O   0  0  0  0  0  0  0  0  0  0  0  0
  145.5730   72.0610  216.9160 O   0  0  0  0  0  0  0  0  0  0  0  0
  144.1230   72.4830  219.1110 C   0  0  0  0  0  0  0  0  0  0  0  0
  142.6790   72.6030  218.7720 C   0  0  0  0  0  0  0  0  0  0  0  0
  141.8520   73.5530  219.5550 C   0  0  0  0  0  0  0  0  0  0  0  0
  141.2330   72.9750  220.7650 C   0  0  0  0  0  0  0  0  0  0  0  0
  141.3340   71.6490  221.1310 C   0  0  0  0  0  0  0  0  0  0  0  0
  140.7470   71.1480  222.2470 N   0  0  0  0  0  0  0  0  0  0  0  0
  140.0420   71.9460  223.0360 C   0  0  0  0  0  0  0  0  0  0  0  0
  139.4260   71.4290  224.2070 N   0  0  0  0  0  0  0  0  0  0  0  0
  138.0940   70.8700  224.1920 C   0  0  0  0  0  0  0  0  0  0  0  0
  138.1690   69.3980  224.4870 C   0  0  0  0  0  0  0  0  0  0  0  0
  139.2150   69.1020  225.4980 C   0  0  0  0  0  0  0  0  0  0  0  0
  139.2600   67.7970  225.9860 C   0  0  0  0  0  0  0  0  0  0  0  0
  140.2000   67.4120  226.9360 C   0  0  0  0  0  0  0  0  0  0  0  0
  141.1030   68.3710  227.3930 C   0  0  0  0  0  0  0  0  0  0  0  0
  141.0630   69.6790  226.9080 C   0  0  0  0  0  0  0  0  0  0  0  0
  140.1130   70.0350  225.9590 C   0  0  0  0  0  0  0  0  0  0  0  0
  140.1350   71.4470  225.4930 C   0  0  0  0  0  0  0  0  0  0  0  0
  139.8990   73.2440  222.7440 N   0  0  0  0  0  0  0  0  0  0  0  0
  140.4800   73.7740  221.6240 C   0  0  0  0  0  0  0  0  0  0  0  0
  140.2500   75.1530  221.4220 N   0  0  0  0  0  0  0  0  0  0  0  0
  141.1710   76.0810  220.8110 C   0  0  0  0  0  0  0  0  0  0  0  0
  141.4470   77.3120  221.6300 C   0  0  0  0  0  0  0  0  0  0  0  0
  140.1800   77.8870  222.1350 C   0  0  0  0  0  0  0  0  0  0  0  0
  140.1900   79.2150  222.5020 C   0  0  0  0  0  0  0  0  0  0  0  0
  139.0460   79.8240  222.9830 C   0  0  0  0  0  0  0  0  0  0  0  0
  137.9010   79.0620  223.0840 C   0  0  0  0  0  0  0  0  0  0  0  0
  137.9090   77.7210  222.7100 C   0  0  0  0  0  0  0  0  0  0  0  0
  139.0440   77.1150  222.2300 C   0  0  0  0  0  0  0  0  0  0  0  0
  138.9660   75.6930  221.8570 C   0  0  0  0  0  0  0  0  0  0  0  0
  144.8820   74.4750  216.0850 H   0  0  0  0  0  0  0  0  0  0  0  0
  145.2000   75.3650  217.4660 H   0  0  0  0  0  0  0  0  0  0  0  0
  144.3528   71.4138  219.2296 H   0  0  0  0  0  0  0  0  0  0  0  0
  144.2627   73.0785  220.0253 H   0  0  0  0  0  0  0  0  0  0  0  0
  142.6159   72.9083  217.7171 H   0  0  0  0  0  0  0  0  0  0  0  0
  142.2597   71.6147  219.0118 H   0  0  0  0  0  0  0  0  0  0  0  0
  142.4929   74.3918  219.8645 H   0  0  0  0  0  0  0  0  0  0  0  0
  141.0252   73.8619  218.8984 H   0  0  0  0  0  0  0  0  0  0  0  0
  141.9151   70.9688  220.4910 H   0  0  0  0  0  0  0  0  0  0  0  0
  137.4784   71.3669  224.9563 H   0  0  0  0  0  0  0  0  0  0  0  0
  137.6410   71.0245  223.2016 H   0  0  0  0  0  0  0  0  0  0  0  0
  137.1949   69.0594  224.8698 H   0  0  0  0  0  0  0  0  0  0  0  0
  138.4269   68.8707  223.5567 H   0  0  0  0  0  0  0  0  0  0  0  0
  138.5374   67.0567  225.6121 H   0  0  0  0  0  0  0  0  0  0  0  0
  140.2302   66.3802  227.3160 H   0  0  0  0  0  0  0  0  0  0  0  0
  141.8562   68.0932  228.1451 H   0  0  0  0  0  0  0  0  0  0  0  0
  141.7817   70.4260  227.2761 H   0  0  0  0  0  0  0  0  0  0  0  0
  139.6180   72.1002  226.2114 H   0  0  0  0  0  0  0  0  0  0  0  0
  141.1592   71.8365  225.3969 H   0  0  0  0  0  0  0  0  0  0  0  0
  142.1244   75.5589  220.6425 H   0  0  0  0  0  0  0  0  0  0  0  0
  140.6992   76.4236  219.8783 H   0  0  0  0  0  0  0  0  0  0  0  0
  142.0893   77.0446  222.4820 H   0  0  0  0  0  0  0  0  0  0  0  0
  141.9515   78.0573  220.9975 H   0  0  0  0  0  0  0  0  0  0  0  0
  141.1189   79.7972  222.4112 H   0  0  0  0  0  0  0  0  0  0  0  0
  139.0489   80.8842  223.2763 H   0  0  0  0  0  0  0  0  0  0  0  0
  136.9742   79.5173  223.4630 H   0  0  0  0  0  0  0  0  0  0  0  0
  136.9840   77.1328  222.8012 H   0  0  0  0  0  0  0  0  0  0  0  0
  138.6203   75.1189  222.7293 H   0  0  0  0  0  0  0  0  0  0  0  0
  138.2672   75.6094  221.0116 H   0  0  0  0  0  0  0  0  0  0  0  0
  1  2  1  0
  2  3  2  0
  2  4  2  0
  2  5  1  0
  5  6  1  0
  6  7  1  0
  7  8  1  0
  8  9  2  0
  9 10  1  0
 10 11  2  0
 11 12  1  0
 12 13  1  0
 13 14  1  0
 14 15  1  0
 15 16  2  0
 16 17  1  0
 17 18  2  0
 18 19  1  0
 19 20  2  0
 20 21  1  0
 11 22  1  0
 22 23  2  0
 23 24  1  0
 24 25  1  0
 25 26  1  0
 26 27  1  0
 27 28  2  0
 28 29  1  0
 29 30  2  0
 30 31  1  0
 31 32  2  0
 32 33  1  0
 23  8  1  0
 33 24  1  0
 21 12  1  0
 32 27  1  0
 20 15  1  0
  1 34  1  0
  1 35  1  0
  5 36  1  0
  5 37  1  0
  6 38  1  0
  6 39  1  0
  7 40  1  0
  7 41  1  0
  9 42  1  0
 13 43  1  0
 13 44  1  0
 14 45  1  0
 14 46  1  0
 16 47  1  0
 17 48  1  0
 18 49  1  0
 19 50  1  0
 21 51  1  0
 21 52  1  0
 25 53  1  0
 25 54  1  0
 26 55  1  0
 26 56  1  0
 28 57  1  0
 29 58  1  0
 30 59  1  0
 31 60  1  0
 33 61  1  0
 33 62  1  0
M  END
>  <smiles>  (8) 
NS(=O)(=O)CCCc1cnc(N2CCc3ccccc3C2)nc1N1CCc2ccccc2C1

>  <score_type>  (8) 
oracle

>  <origin>  (8) 
autodockgpu

>  <m_score__min__energy>  (8) 
-10.720000000000001

>  <m_primary>  (8) 
energy

>  <rmsd>  (8) 
4.6530567411270765

>  <m_score__min__rmsd>  (8) 
4.6530567411270765

>  <meeko>  (8) 
{"free_energy": -8.75, "intermolecular_energy": -10.84, "internal_energy": -0.89, "cluster_size": 30, "cluster_id": 1, "rank_in_cluster": 27}

>  <energy>  (8) 
-10.33

>  <cluster_rmsd>  (8) 
0.37

>  <cluster>  (8) 
1

$$$$

     RDKit          3D

 62 66  0  0  0  0  0  0  0  0999 V2000
  139.1670   74.6220  222.3470 N   0  0  0  0  0  0  0  0  0  0  0  0
  140.4320   74.5300  221.1980 S   0  0  0  0  0  0  0  0  0  0  0  0
  139.9180   73.9650  219.8960 O   0  0  0  0  0  0  0  0  0  0  0  0
  141.4740   73.5310  221.6980 O   0  0  0  0  0  0  0  0  0  0  0  0
  141.2350   76.0460  220.8540 C   0  0  0  0  0  0  0  0  0  0  0  0
  140.7450   76.7890  219.6610 C   0  0  0  0  0  0  0  0  0  0  0  0
  139.5260   77.6220  219.8050 C   0  0  0  0  0  0  0  0  0  0  0  0
  138.4020   76.9510  220.4880 C   0  0  0  0  0  0  0  0  0  0  0  0
  137.6230   75.9660  219.9180 C   0  0  0  0  0  0  0  0  0  0  0  0
  136.5920   75.3740  220.5720 N   0  0  0  0  0  0  0  0  0  0  0  0
  136.3010   75.7390  221.8120 C   0  0  0  0  0  0  0  0  0  0  0  0
  135.2250   75.1210  222.5040 N   0  0  0  0  0  0  0  0  0  0  0  0
  135.3320   73.7940  223.0630 C   0  0  0  0  0  0  0  0  0  0  0  0
  135.2610   73.8770  224.5620 C   0  0  0  0  0  0  0  0  0  0  0  0
  134.3000   74.9210  224.9990 C   0  0  0  0  0  0  0  0  0  0  0  0
  134.0140   74.9730  226.3630 C   0  0  0  0  0  0  0  0  0  0  0  0
  133.1260   75.9110  226.8810 C   0  0  0  0  0  0  0  0  0  0  0  0
  132.5260   76.8050  225.9960 C   0  0  0  0  0  0  0  0  0  0  0  0
  132.8080   76.7570  224.6300 C   0  0  0  0  0  0  0  0  0  0  0  0
  133.6990   75.8100  224.1410 C   0  0  0  0  0  0  0  0  0  0  0  0
  133.9470   75.8240  222.6750 C   0  0  0  0  0  0  0  0  0  0  0  0
  137.0130   76.6890  222.4300 N   0  0  0  0  0  0  0  0  0  0  0  0
  138.0570   77.3020  221.7930 C   0  0  0  0  0  0  0  0  0  0  0  0
  138.7240   78.2920  222.5470 N   0  0  0  0  0  0  0  0  0  0  0  0
  138.1700   79.5630  222.9490 C   0  0  0  0  0  0  0  0  0  0  0  0
  139.0170   80.7520  222.5860 C   0  0  0  0  0  0  0  0  0  0  0  0
  140.4290   80.5090  222.9570 C   0  0  0  0  0  0  0  0  0  0  0  0
  141.2390   81.6120  223.1190 C   0  0  0  0  0  0  0  0  0  0  0  0
  142.5700   81.4670  223.4650 C   0  0  0  0  0  0  0  0  0  0  0  0
  143.0560   80.1890  223.6400 C   0  0  0  0  0  0  0  0  0  0  0  0
  142.2250   79.0860  223.4720 C   0  0  0  0  0  0  0  0  0  0  0  0
  140.9020   79.2280  223.1290 C   0  0  0  0  0  0  0  0  0  0  0  0
  140.0920   78.0090  222.9710 C   0  0  0  0  0  0  0  0  0  0  0  0
  138.9220   73.6810  222.7310 H   0  0  0  0  0  0  0  0  0  0  0  0
  138.3180   74.9930  221.8880 H   0  0  0  0  0  0  0  0  0  0  0  0
  141.1114   76.6986  221.7308 H   0  0  0  0  0  0  0  0  0  0  0  0
  142.2798   75.7838  220.6310 H   0  0  0  0  0  0  0  0  0  0  0  0
  141.5579   77.4544  219.3348 H   0  0  0  0  0  0  0  0  0  0  0  0
  140.4541   76.0014  218.9504 H   0  0  0  0  0  0  0  0  0  0  0  0
  139.7905   78.5210  220.3811 H   0  0  0  0  0  0  0  0  0  0  0  0
  139.1810   77.8498  218.7856 H   0  0  0  0  0  0  0  0  0  0  0  0
  137.8470   75.6467  218.8895 H   0  0  0  0  0  0  0  0  0  0  0  0
  134.5056   73.1710  222.6903 H   0  0  0  0  0  0  0  0  0  0  0  0
  136.2912   73.3457  222.7647 H   0  0  0  0  0  0  0  0  0  0  0  0
  134.9383   72.9036  224.9600 H   0  0  0  0  0  0  0  0  0  0  0  0
  136.2584   74.1416  224.9430 H   0  0  0  0  0  0  0  0  0  0  0  0
  134.5002   74.2581  227.0432 H   0  0  0  0  0  0  0  0  0  0  0  0
  132.9041   75.9458  227.9578 H   0  0  0  0  0  0  0  0  0  0  0  0
  131.8213   77.5579  226.3790 H   0  0  0  0  0  0  0  0  0  0  0  0
  132.3259   77.4673  223.9422 H   0  0  0  0  0  0  0  0  0  0  0  0
  133.1415   75.2990  222.1407 H   0  0  0  0  0  0  0  0  0  0  0  0
  133.9776   76.8458  222.2688 H   0  0  0  0  0  0  0  0  0  0  0  0
  137.1887   79.6791  222.4657 H   0  0  0  0  0  0  0  0  0  0  0  0
  138.1073   79.5453  224.0471 H   0  0  0  0  0  0  0  0  0  0  0  0
  138.9515   80.9268  221.5020 H   0  0  0  0  0  0  0  0  0  0  0  0
  138.6499   81.6332  223.1326 H   0  0  0  0  0  0  0  0  0  0  0  0
  140.8221   82.6192  222.9714 H   0  0  0  0  0  0  0  0  0  0  0  0
  143.2206   82.3442  223.5965 H   0  0  0  0  0  0  0  0  0  0  0  0
  144.1106   80.0399  223.9150 H   0  0  0  0  0  0  0  0  0  0  0  0
  142.6368   78.0764  223.6172 H   0  0  0  0  0  0  0  0  0  0  0  0
  140.5682   77.3655  222.2165 H   0  0  0  0  0  0  0  0  0  0  0  0
  140.0400   77.5154  223.9526 H   0  0  0  0  0  0  0  0  0  0  0  0
  1  2  1  0
  2  3  2  0
  2  4  2  0
  2  5  1  0
  5  6  1  0
  6  7  1  0
  7  8  1  0
  8  9  2  0
  9 10  1  0
 10 11  2  0
 11 12  1  0
 12 13  1  0
 13 14  1  0
 14 15  1  0
 15 16  2  0
 16 17  1  0
 17 18  2  0
 18 19  1  0
 19 20  2  0
 20 21  1  0
 11 22  1  0
 22 23  2  0
 23 24  1  0
 24 25  1  0
 25 26  1  0
 26 27  1  0
 27 28  2  0
 28 29  1  0
 29 30  2  0
 30 31  1  0
 31 32  2  0
 32 33  1  0
 23  8  1  0
 33 24  1  0
 21 12  1  0
 32 27  1  0
 20 15  1  0
  1 34  1  0
  1 35  1  0
  5 36  1  0
  5 37  1  0
  6 38  1  0
  6 39  1  0
  7 40  1  0
  7 41  1  0
  9 42  1  0
 13 43  1  0
 13 44  1  0
 14 45  1  0
 14 46  1  0
 16 47  1  0
 17 48  1  0
 18 49  1  0
 19 50  1  0
 21 51  1  0
 21 52  1  0
 25 53  1  0
 25 54  1  0
 26 55  1  0
 26 56  1  0
 28 57  1  0
 29 58  1  0
 30 59  1  0
 31 60  1  0
 33 61  1  0
 33 62  1  0
M  END
>  <smiles>  (9) 
NS(=O)(=O)CCCc1cnc(N2CCc3ccccc3C2)nc1N1CCc2ccccc2C1

>  <score_type>  (9) 
oracle

>  <origin>  (9) 
autodockgpu

>  <m_score__min__energy>  (9) 
-10.720000000000001

>  <m_primary>  (9) 
energy

>  <rmsd>  (9) 
3.4893680951012036

>  <m_score__min__rmsd>  (9) 
3.4893680951012036

>  <meeko>  (9) 
{"free_energy": -6.3, "intermolecular_energy": -8.39, "internal_energy": -2.93, "cluster_size": 1, "cluster_id": 12, "rank_in_cluster": 1}

>  <energy>  (9) 
-10.33

>  <cluster_rmsd>  (9) 
1.09

>  <cluster>  (9) 
1

$$$$

     RDKit          3D

 62 66  0  0  0  0  0  0  0  0999 V2000
  145.2680   72.6510  221.3410 N   0  0  0  0  0  0  0  0  0  0  0  0
  145.6500   73.0560  219.7240 S   0  0  0  0  0  0  0  0  0  0  0  0
  145.8230   71.8050  218.8960 O   0  0  0  0  0  0  0  0  0  0  0  0
  147.0080   73.7550  219.7020 O   0  0  0  0  0  0  0  0  0  0  0  0
  144.4830   74.0830  218.9190 C   0  0  0  0  0  0  0  0  0  0  0  0
  143.0660   73.6290  218.9730 C   0  0  0  0  0  0  0  0  0  0  0  0
  142.1110   74.4080  219.7970 C   0  0  0  0  0  0  0  0  0  0  0  0
  141.4330   73.6280  220.8520 C   0  0  0  0  0  0  0  0  0  0  0  0
  141.6320   72.2820  221.0720 C   0  0  0  0  0  0  0  0  0  0  0  0
  140.9870   71.5930  222.0480 N   0  0  0  0  0  0  0  0  0  0  0  0
  140.1250   72.2180  222.8360 C   0  0  0  0  0  0  0  0  0  0  0  0
  139.4480   71.5040  223.8610 N   0  0  0  0  0  0  0  0  0  0  0  0
  138.2420   70.7520  223.6040 C   0  0  0  0  0  0  0  0  0  0  0  0
  138.5170   69.2870  223.8010 C   0  0  0  0  0  0  0  0  0  0  0  0
  139.4480   69.0600  224.9350 C   0  0  0  0  0  0  0  0  0  0  0  0
  139.6410   67.7360  225.3290 C   0  0  0  0  0  0  0  0  0  0  0  0
  140.4910   67.4120  226.3800 C   0  0  0  0  0  0  0  0  0  0  0  0
  141.1520   68.4490  227.0350 C   0  0  0  0  0  0  0  0  0  0  0  0
  140.9630   69.7760  226.6460 C   0  0  0  0  0  0  0  0  0  0  0  0
  140.1080   70.0710  225.5920 C   0  0  0  0  0  0  0  0  0  0  0  0
  139.9600   71.5080  225.2370 C   0  0  0  0  0  0  0  0  0  0  0  0
  139.8800   73.5250  222.6820 N   0  0  0  0  0  0  0  0  0  0  0  0
  140.5160   74.2420  221.7060 C   0  0  0  0  0  0  0  0  0  0  0  0
  140.1680   75.6090  221.6390 N   0  0  0  0  0  0  0  0  0  0  0  0
  141.0880   76.7060  221.4570 C   0  0  0  0  0  0  0  0  0  0  0  0
  140.9620   77.7980  222.4830 C   0  0  0  0  0  0  0  0  0  0  0  0
  139.5400   78.1630  222.6740 C   0  0  0  0  0  0  0  0  0  0  0  0
  139.2720   79.4050  223.2080 C   0  0  0  0  0  0  0  0  0  0  0  0
  137.9690   79.8180  223.4170 C   0  0  0  0  0  0  0  0  0  0  0  0
  136.9540   78.9500  223.0750 C   0  0  0  0  0  0  0  0  0  0  0  0
  137.2420   77.7000  222.5360 C   0  0  0  0  0  0  0  0  0  0  0  0
  138.5360   77.2890  222.3280 C   0  0  0  0  0  0  0  0  0  0  0  0
  138.7540   75.9500  221.7540 C   0  0  0  0  0  0  0  0  0  0  0  0
  146.1140   72.3460  221.8760 H   0  0  0  0  0  0  0  0  0  0  0  0
  144.6030   71.8590  221.3450 H   0  0  0  0  0  0  0  0  0  0  0  0
  144.5350   75.0791  219.3828 H   0  0  0  0  0  0  0  0  0  0  0  0
  144.7589   74.0668  217.8543 H   0  0  0  0  0  0  0  0  0  0  0  0
  142.6836   73.6307  217.9416 H   0  0  0  0  0  0  0  0  0  0  0  0
  143.1134   72.6470  219.4665 H   0  0  0  0  0  0  0  0  0  0  0  0
  142.6627   75.2292  220.2779 H   0  0  0  0  0  0  0  0  0  0  0  0
  141.3238   74.7600  219.1140 H   0  0  0  0  0  0  0  0  0  0  0  0
  142.3438   71.7430  220.4294 H   0  0  0  0  0  0  0  0  0  0  0  0
  137.4530   71.0743  224.2995 H   0  0  0  0  0  0  0  0  0  0  0  0
  137.9116   70.9286  222.5698 H   0  0  0  0  0  0  0  0  0  0  0  0
  137.5687   68.7690  224.0069 H   0  0  0  0  0  0  0  0  0  0  0  0
  138.9838   68.8954  222.8852 H   0  0  0  0  0  0  0  0  0  0  0  0
  139.1101   66.9324  224.7975 H   0  0  0  0  0  0  0  0  0  0  0  0
  140.6378   66.3657  226.6862 H   0  0  0  0  0  0  0  0  0  0  0  0
  141.8312   68.2190  227.8691 H   0  0  0  0  0  0  0  0  0  0  0  0
  141.4895   70.5856  227.1725 H   0  0  0  0  0  0  0  0  0  0  0  0
  139.2480   72.0030  225.9139 H   0  0  0  0  0  0  0  0  0  0  0  0
  140.9090   72.0572  225.3251 H   0  0  0  0  0  0  0  0  0  0  0  0
  142.1122   76.3074  221.5026 H   0  0  0  0  0  0  0  0  0  0  0  0
  140.8477   77.1596  220.4841 H   0  0  0  0  0  0  0  0  0  0  0  0
  141.3780   77.4473  223.4390 H   0  0  0  0  0  0  0  0  0  0  0  0
  141.5143   78.6827  222.1332 H   0  0  0  0  0  0  0  0  0  0  0  0
  140.1038   80.0751  223.4708 H   0  0  0  0  0  0  0  0  0  0  0  0
  137.7492   80.8081  223.8428 H   0  0  0  0  0  0  0  0  0  0  0  0
  135.9066   79.2484  223.2297 H   0  0  0  0  0  0  0  0  0  0  0  0
  136.4146   77.0256  222.2704 H   0  0  0  0  0  0  0  0  0  0  0  0
  138.2643   75.2064  222.4000 H   0  0  0  0  0  0  0  0  0  0  0  0
  138.3293   75.9508  220.7393 H   0  0  0  0  0  0  0  0  0  0  0  0
  1  2  1  0
  2  3  2  0
  2  4  2  0
  2  5  1  0
  5  6  1  0
  6  7  1  0
  7  8  1  0
  8  9  2  0
  9 10  1  0
 10 11  2  0
 11 12  1  0
 12 13  1  0
 13 14  1  0
 14 15  1  0
 15 16  2  0
 16 17  1  0
 17 18  2  0
 18 19  1  0
 19 20  2  0
 20 21  1  0
 11 22  1  0
 22 23  2  0
 23 24  1  0
 24 25  1  0
 25 26  1  0
 26 27  1  0
 27 28  2  0
 28 29  1  0
 29 30  2  0
 30 31  1  0
 31 32  2  0
 32 33  1  0
 23  8  1  0
 33 24  1  0
 21 12  1  0
 32 27  1  0
 20 15  1  0
  1 34  1  0
  1 35  1  0
  5 36  1  0
  5 37  1  0
  6 38  1  0
  6 39  1  0
  7 40  1  0
  7 41  1  0
  9 42  1  0
 13 43  1  0
 13 44  1  0
 14 45  1  0
 14 46  1  0
 16 47  1  0
 17 48  1  0
 18 49  1  0
 19 50  1  0
 21 51  1  0
 21 52  1  0
 25 53  1  0
 25 54  1  0
 26 55  1  0
 26 56  1  0
 28 57  1  0
 29 58  1  0
 30 59  1  0
 31 60  1  0
 33 61  1  0
 33 62  1  0
M  END
>  <smiles>  (10) 
NS(=O)(=O)CCCc1cnc(N2CCc3ccccc3C2)nc1N1CCc2ccccc2C1

>  <score_type>  (10) 
oracle

>  <origin>  (10) 
autodockgpu

>  <m_score__min__energy>  (10) 
-10.720000000000001

>  <m_primary>  (10) 
energy

>  <rmsd>  (10) 
4.577620241140996

>  <m_score__min__rmsd>  (10) 
4.577620241140996

>  <meeko>  (10) 
{"free_energy": -9.97, "intermolecular_energy": -12.06, "internal_energy": -1.09, "cluster_size": 30, "cluster_id": 1, "rank_in_cluster": 14}

>  <energy>  (10) 
-10.29

>  <cluster_rmsd>  (10) 
1.12

>  <cluster>  (10) 
1

$$$$

     RDKit          3D

 62 66  0  0  0  0  0  0  0  0999 V2000
  143.8940   70.8500  220.8150 N   0  0  0  0  0  0  0  0  0  0  0  0
  144.8330   72.0540  220.0430 S   0  0  0  0  0  0  0  0  0  0  0  0
  146.0510   71.4380  219.3980 O   0  0  0  0  0  0  0  0  0  0  0  0
  145.3690   73.0120  221.1050 O   0  0  0  0  0  0  0  0  0  0  0  0
  143.9880   72.9880  218.8270 C   0  0  0  0  0  0  0  0  0  0  0  0
  143.7830   74.4300  219.1360 C   0  0  0  0  0  0  0  0  0  0  0  0
  142.3990   74.9050  219.3810 C   0  0  0  0  0  0  0  0  0  0  0  0
  141.6650   74.1490  220.4150 C   0  0  0  0  0  0  0  0  0  0  0  0
  141.6640   72.7730  220.5190 C   0  0  0  0  0  0  0  0  0  0  0  0
  140.9730   72.1090  221.4790 N   0  0  0  0  0  0  0  0  0  0  0  0
  140.2610   72.7870  222.3670 C   0  0  0  0  0  0  0  0  0  0  0  0
  139.5370   72.0980  223.3760 N   0  0  0  0  0  0  0  0  0  0  0  0
  138.2070   71.5820  223.1500 C   0  0  0  0  0  0  0  0  0  0  0  0
  138.2410   70.0800  223.2010 C   0  0  0  0  0  0  0  0  0  0  0  0
  139.1880   69.5960  224.2370 C   0  0  0  0  0  0  0  0  0  0  0  0
  139.1760   68.2270  224.5020 C   0  0  0  0  0  0  0  0  0  0  0  0
  140.0220   67.6680  225.4540 C   0  0  0  0  0  0  0  0  0  0  0  0
  140.8880   68.5160  226.1420 C   0  0  0  0  0  0  0  0  0  0  0  0
  140.9030   69.8860  225.8820 C   0  0  0  0  0  0  0  0  0  0  0  0
  140.0480   70.4180  224.9250 C   0  0  0  0  0  0  0  0  0  0  0  0
  140.1250   71.8860  224.7050 C   0  0  0  0  0  0  0  0  0  0  0  0
  140.2140   74.1240  222.3290 N   0  0  0  0  0  0  0  0  0  0  0  0
  140.9010   74.8180  221.3710 C   0  0  0  0  0  0  0  0  0  0  0  0
  140.7650   76.2220  221.4310 N   0  0  0  0  0  0  0  0  0  0  0  0
  140.4820   77.0910  220.3140 C   0  0  0  0  0  0  0  0  0  0  0  0
  141.4450   78.2360  220.1590 C   0  0  0  0  0  0  0  0  0  0  0  0
  141.6670   78.9010  221.4630 C   0  0  0  0  0  0  0  0  0  0  0  0
  142.1350   80.1970  221.4410 C   0  0  0  0  0  0  0  0  0  0  0  0
  142.3670   80.8840  222.6180 C   0  0  0  0  0  0  0  0  0  0  0  0
  142.1170   80.2330  223.8070 C   0  0  0  0  0  0  0  0  0  0  0  0
  141.6440   78.9240  223.8110 C   0  0  0  0  0  0  0  0  0  0  0  0
  141.4120   78.2400  222.6430 C   0  0  0  0  0  0  0  0  0  0  0  0
  140.9120   76.8580  222.7360 C   0  0  0  0  0  0  0  0  0  0  0  0
  142.9320   71.1910  221.0380 H   0  0  0  0  0  0  0  0  0  0  0  0
  144.3420   70.5940  221.7120 H   0  0  0  0  0  0  0  0  0  0  0  0
  144.5643   72.9229  217.8923 H   0  0  0  0  0  0  0  0  0  0  0  0
  142.9800   72.5520  218.7662 H   0  0  0  0  0  0  0  0  0  0  0  0
  144.3701   74.6568  220.0382 H   0  0  0  0  0  0  0  0  0  0  0  0
  144.0916   74.9518  218.2181 H   0  0  0  0  0  0  0  0  0  0  0  0
  142.4480   75.9580  219.6955 H   0  0  0  0  0  0  0  0  0  0  0  0
  141.8484   74.7617  218.4395 H   0  0  0  0  0  0  0  0  0  0  0  0
  142.2485   72.1897  219.7923 H   0  0  0  0  0  0  0  0  0  0  0  0
  137.5288   71.9608  223.9288 H   0  0  0  0  0  0  0  0  0  0  0  0
  137.8479   71.9089  222.1630 H   0  0  0  0  0  0  0  0  0  0  0  0
  137.2330   69.7066  223.4346 H   0  0  0  0  0  0  0  0  0  0  0  0
  138.5773   69.7072  222.2223 H   0  0  0  0  0  0  0  0  0  0  0  0
  138.4839   67.5764  223.9473 H   0  0  0  0  0  0  0  0  0  0  0  0
  140.0080   66.5872  225.6581 H   0  0  0  0  0  0  0  0  0  0  0  0
  141.5682   68.0995  226.8995 H   0  0  0  0  0  0  0  0  0  0  0  0
  141.5905   70.5441  226.4336 H   0  0  0  0  0  0  0  0  0  0  0  0
  139.5499   72.4236  225.4733 H   0  0  0  0  0  0  0  0  0  0  0  0
  141.1571   72.2614  224.7669 H   0  0  0  0  0  0  0  0  0  0  0  0
  140.5117   76.4893  219.3936 H   0  0  0  0  0  0  0  0  0  0  0  0
  139.4937   77.5351  220.5038 H   0  0  0  0  0  0  0  0  0  0  0  0
  142.4040   77.8546  219.7783 H   0  0  0  0  0  0  0  0  0  0  0  0
  141.0225   78.9657  219.4526 H   0  0  0  0  0  0  0  0  0  0  0  0
  142.3260   80.6902  220.4765 H   0  0  0  0  0  0  0  0  0  0  0  0
  142.7398   81.9188  222.6060 H   0  0  0  0  0  0  0  0  0  0  0  0
  142.2928   80.7523  224.7606 H   0  0  0  0  0  0  0  0  0  0  0  0
  141.4514   78.4256  224.7725 H   0  0  0  0  0  0  0  0  0  0  0  0
  141.6193   76.2678  223.3371 H   0  0  0  0  0  0  0  0  0  0  0  0
  139.9156   76.8963  223.2004 H   0  0  0  0  0  0  0  0  0  0  0  0
  1  2  1  0
  2  3  2  0
  2  4  2  0
  2  5  1  0
  5  6  1  0
  6  7  1  0
  7  8  1  0
  8  9  2  0
  9 10  1  0
 10 11  2  0
 11 12  1  0
 12 13  1  0
 13 14  1  0
 14 15  1  0
 15 16  2  0
 16 17  1  0
 17 18  2  0
 18 19  1  0
 19 20  2  0
 20 21  1  0
 11 22  1  0
 22 23  2  0
 23 24  1  0
 24 25  1  0
 25 26  1  0
 26 27  1  0
 27 28  2  0
 28 29  1  0
 29 30  2  0
 30 31  1  0
 31 32  2  0
 32 33  1  0
 23  8  1  0
 33 24  1  0
 21 12  1  0
 32 27  1  0
 20 15  1  0
  1 34  1  0
  1 35  1  0
  5 36  1  0
  5 37  1  0
  6 38  1  0
  6 39  1  0
  7 40  1  0
  7 41  1  0
  9 42  1  0
 13 43  1  0
 13 44  1  0
 14 45  1  0
 14 46  1  0
 16 47  1  0
 17 48  1  0
 18 49  1  0
 19 50  1  0
 21 51  1  0
 21 52  1  0
 25 53  1  0
 25 54  1  0
 26 55  1  0
 26 56  1  0
 28 57  1  0
 29 58  1  0
 30 59  1  0
 31 60  1  0
 33 61  1  0
 33 62  1  0
M  END
>  <smiles>  (11) 
NS(=O)(=O)CCCc1cnc(N2CCc3ccccc3C2)nc1N1CCc2ccccc2C1

>  <score_type>  (11) 
oracle

>  <origin>  (11) 
autodockgpu

>  <m_score__min__energy>  (11) 
-10.720000000000001

>  <m_primary>  (11) 
energy

>  <rmsd>  (11) 
4.178052165714184

>  <m_score__min__rmsd>  (11) 
4.178052165714184

>  <meeko>  (11) 
{"free_energy": -9.03, "intermolecular_energy": -11.12, "internal_energy": -1.5, "cluster_size": 30, "cluster_id": 1, "rank_in_cluster": 23}

>  <energy>  (11) 
-10.27

>  <cluster_rmsd>  (11) 
1.01

>  <cluster>  (11) 
1

$$$$

     RDKit          3D

 62 66  0  0  0  0  0  0  0  0999 V2000
  146.0740   73.4280  218.4050 N   0  0  0  0  0  0  0  0  0  0  0  0
  145.2250   72.2690  219.3330 S   0  0  0  0  0  0  0  0  0  0  0  0
  144.9020   72.8240  220.6990 O   0  0  0  0  0  0  0  0  0  0  0  0
  146.1430   71.0740  219.5810 O   0  0  0  0  0  0  0  0  0  0  0  0
  143.7370   71.6880  218.6160 C   0  0  0  0  0  0  0  0  0  0  0  0
  142.7090   72.7220  218.3170 C   0  0  0  0  0  0  0  0  0  0  0  0
  142.3650   73.6970  219.3800 C   0  0  0  0  0  0  0  0  0  0  0  0
  141.6630   73.1170  220.5420 C   0  0  0  0  0  0  0  0  0  0  0  0
  141.7310   71.7890  220.9070 C   0  0  0  0  0  0  0  0  0  0  0  0
  141.0680   71.2860  221.9790 N   0  0  0  0  0  0  0  0  0  0  0  0
  140.3160   72.0840  222.7230 C   0  0  0  0  0  0  0  0  0  0  0  0
  139.6210   71.5650  223.8470 N   0  0  0  0  0  0  0  0  0  0  0  0
  138.2740   71.0530  223.7470 C   0  0  0  0  0  0  0  0  0  0  0  0
  138.2830   69.5730  224.0140 C   0  0  0  0  0  0  0  0  0  0  0  0
  139.2620   69.2220  225.0730 C   0  0  0  0  0  0  0  0  0  0  0  0
  139.2360   67.9050  225.5340 C   0  0  0  0  0  0  0  0  0  0  0  0
  140.1100   67.4700  226.5250 C   0  0  0  0  0  0  0  0  0  0  0  0
  141.0180   68.3870  227.0510 C   0  0  0  0  0  0  0  0  0  0  0  0
  141.0470   69.7050  226.5940 C   0  0  0  0  0  0  0  0  0  0  0  0
  140.1640   70.1130  225.6020 C   0  0  0  0  0  0  0  0  0  0  0  0
  140.2580   71.5320  225.1700 C   0  0  0  0  0  0  0  0  0  0  0  0
  140.2020   73.3850  222.4290 N   0  0  0  0  0  0  0  0  0  0  0  0
  140.8590   73.9160  221.3540 C   0  0  0  0  0  0  0  0  0  0  0  0
  140.6520   75.2980  221.1450 N   0  0  0  0  0  0  0  0  0  0  0  0
  140.5790   75.9550  219.8610 C   0  0  0  0  0  0  0  0  0  0  0  0
  141.5020   77.1340  219.7150 C   0  0  0  0  0  0  0  0  0  0  0  0
  141.4070   78.0110  220.9040 C   0  0  0  0  0  0  0  0  0  0  0  0
  141.8110   79.3200  220.7580 C   0  0  0  0  0  0  0  0  0  0  0  0
  141.7530   80.2010  221.8220 C   0  0  0  0  0  0  0  0  0  0  0  0
  141.2810   79.7270  223.0280 C   0  0  0  0  0  0  0  0  0  0  0  0
  140.8760   78.4020  223.1580 C   0  0  0  0  0  0  0  0  0  0  0  0
  140.9320   77.5260  222.1010 C   0  0  0  0  0  0  0  0  0  0  0  0
  140.4850   76.1410  222.3240 C   0  0  0  0  0  0  0  0  0  0  0  0
  146.7700   73.9540  218.9820 H   0  0  0  0  0  0  0  0  0  0  0  0
  145.4030   74.1220  218.0310 H   0  0  0  0  0  0  0  0  0  0  0  0
  143.9925   71.1847  217.6718 H   0  0  0  0  0  0  0  0  0  0  0  0
  143.2829   71.0279  219.3697 H   0  0  0  0  0  0  0  0  0  0  0  0
  143.0675   73.2972  217.4506 H   0  0  0  0  0  0  0  0  0  0  0  0
  141.7829   72.1487  218.1634 H   0  0  0  0  0  0  0  0  0  0  0  0
  143.2975   74.1580  219.7376 H   0  0  0  0  0  0  0  0  0  0  0  0
  141.6720   74.4210  218.9266 H   0  0  0  0  0  0  0  0  0  0  0  0
  142.3491   71.1081  220.3034 H   0  0  0  0  0  0  0  0  0  0  0  0
  137.6340   71.5559  224.4870 H   0  0  0  0  0  0  0  0  0  0  0  0
  137.8821   71.2425  222.7368 H   0  0  0  0  0  0  0  0  0  0  0  0
  137.2788   69.2610  224.3368 H   0  0  0  0  0  0  0  0  0  0  0  0
  138.5726   69.0549  223.0879 H   0  0  0  0  0  0  0  0  0  0  0  0
  138.5107   67.1976  225.1057 H   0  0  0  0  0  0  0  0  0  0  0  0
  140.0851   66.4304  226.8837 H   0  0  0  0  0  0  0  0  0  0  0  0
  141.7200   68.0681  227.8355 H   0  0  0  0  0  0  0  0  0  0  0  0
  141.7676   70.4197  227.0183 H   0  0  0  0  0  0  0  0  0  0  0  0
  139.7238   72.1874  225.8736 H   0  0  0  0  0  0  0  0  0  0  0  0
  141.2983   71.8882  225.1387 H   0  0  0  0  0  0  0  0  0  0  0  0
  140.8334   75.2200  219.0831 H   0  0  0  0  0  0  0  0  0  0  0  0
  139.5544   76.3434  219.7639 H   0  0  0  0  0  0  0  0  0  0  0  0
  142.5364   76.7744  219.6110 H   0  0  0  0  0  0  0  0  0  0  0  0
  141.2111   77.7079  218.8228 H   0  0  0  0  0  0  0  0  0  0  0  0
  142.1841   79.6683  219.7836 H   0  0  0  0  0  0  0  0  0  0  0  0
  142.0734   81.2473  221.7101 H   0  0  0  0  0  0  0  0  0  0  0  0
  141.2242   80.4021  223.8946 H   0  0  0  0  0  0  0  0  0  0  0  0
  140.5022   78.0476  224.1300 H   0  0  0  0  0  0  0  0  0  0  0  0
  141.0708   75.7109  223.1498 H   0  0  0  0  0  0  0  0  0  0  0  0
  139.4111   76.1727  222.5600 H   0  0  0  0  0  0  0  0  0  0  0  0
  1  2  1  0
  2  3  2  0
  2  4  2  0
  2  5  1  0
  5  6  1  0
  6  7  1  0
  7  8  1  0
  8  9  2  0
  9 10  1  0
 10 11  2  0
 11 12  1  0
 12 13  1  0
 13 14  1  0
 14 15  1  0
 15 16  2  0
 16 17  1  0
 17 18  2  0
 18 19  1  0
 19 20  2  0
 20 21  1  0
 11 22  1  0
 22 23  2  0
 23 24  1  0
 24 25  1  0
 25 26  1  0
 26 27  1  0
 27 28  2  0
 28 29  1  0
 29 30  2  0
 30 31  1  0
 31 32  2  0
 32 33  1  0
 23  8  1  0
 33 24  1  0
 21 12  1  0
 32 27  1  0
 20 15  1  0
  1 34  1  0
  1 35  1  0
  5 36  1  0
  5 37  1  0
  6 38  1  0
  6 39  1  0
  7 40  1  0
  7 41  1  0
  9 42  1  0
 13 43  1  0
 13 44  1  0
 14 45  1  0
 14 46  1  0
 16 47  1  0
 17 48  1  0
 18 49  1  0
 19 50  1  0
 21 51  1  0
 21 52  1  0
 25 53  1  0
 25 54  1  0
 26 55  1  0
 26 56  1  0
 28 57  1  0
 29 58  1  0
 30 59  1  0
 31 60  1  0
 33 61  1  0
 33 62  1  0
M  END
>  <smiles>  (12) 
NS(=O)(=O)CCCc1cnc(N2CCc3ccccc3C2)nc1N1CCc2ccccc2C1

>  <score_type>  (12) 
oracle

>  <origin>  (12) 
autodockgpu

>  <m_score__min__energy>  (12) 
-10.720000000000001

>  <m_primary>  (12) 
energy

>  <rmsd>  (12) 
4.4217525320146285

>  <m_score__min__rmsd>  (12) 
4.4217525320146285

>  <meeko>  (12) 
{"free_energy": -10.12, "intermolecular_energy": -12.21, "internal_energy": -1.05, "cluster_size": 30, "cluster_id": 1, "rank_in_cluster": 12}

>  <energy>  (12) 
-10.12

>  <cluster_rmsd>  (12) 
0.79

>  <cluster>  (12) 
1

$$$$

     RDKit          3D

 62 66  0  0  0  0  0  0  0  0999 V2000
  133.2890   69.8790  224.3010 N   0  0  0  0  0  0  0  0  0  0  0  0
  134.7040   68.9840  223.9520 S   0  0  0  0  0  0  0  0  0  0  0  0
  134.3490   67.5690  223.5620 O   0  0  0  0  0  0  0  0  0  0  0  0
  135.5330   68.8620  225.2290 O   0  0  0  0  0  0  0  0  0  0  0  0
  135.7180   69.6570  222.6930 C   0  0  0  0  0  0  0  0  0  0  0  0
  135.9100   71.1320  222.7280 C   0  0  0  0  0  0  0  0  0  0  0  0
  137.1040   71.6680  223.4260 C   0  0  0  0  0  0  0  0  0  0  0  0
  138.1820   72.1320  222.5290 C   0  0  0  0  0  0  0  0  0  0  0  0
  138.0020   73.0240  221.4930 C   0  0  0  0  0  0  0  0  0  0  0  0
  139.0140   73.4250  220.6830 N   0  0  0  0  0  0  0  0  0  0  0  0
  140.2380   72.9540  220.8750 C   0  0  0  0  0  0  0  0  0  0  0  0
  141.3030   73.3710  220.0330 N   0  0  0  0  0  0  0  0  0  0  0  0
  141.5220   74.7610  219.7040 C   0  0  0  0  0  0  0  0  0  0  0  0
  142.8200   75.2160  220.3100 C   0  0  0  0  0  0  0  0  0  0  0  0
  143.8470   74.1460  220.2550 C   0  0  0  0  0  0  0  0  0  0  0  0
  145.1430   74.5050  220.6240 C   0  0  0  0  0  0  0  0  0  0  0  0
  146.1820   73.5790  220.6080 C   0  0  0  0  0  0  0  0  0  0  0  0
  145.8930   72.2750  220.2120 C   0  0  0  0  0  0  0  0  0  0  0  0
  144.5990   71.9100  219.8410 C   0  0  0  0  0  0  0  0  0  0  0  0
  143.5800   72.8550  219.8670 C   0  0  0  0  0  0  0  0  0  0  0  0
  142.2290   72.3880  219.4580 C   0  0  0  0  0  0  0  0  0  0  0  0
  140.4890   72.0840  221.8610 N   0  0  0  0  0  0  0  0  0  0  0  0
  139.4860   71.6630  222.6900 C   0  0  0  0  0  0  0  0  0  0  0  0
  139.8760   70.7400  223.6850 N   0  0  0  0  0  0  0  0  0  0  0  0
  139.5610   69.3310  223.6980 C   0  0  0  0  0  0  0  0  0  0  0  0
  138.9270   68.8480  224.9740 C   0  0  0  0  0  0  0  0  0  0  0  0
  139.6750   69.3600  226.1440 C   0  0  0  0  0  0  0  0  0  0  0  0
  139.5300   68.6810  227.3340 C   0  0  0  0  0  0  0  0  0  0  0  0
  140.1960   69.0980  228.4720 C   0  0  0  0  0  0  0  0  0  0  0  0
  141.0040   70.2120  228.3760 C   0  0  0  0  0  0  0  0  0  0  0  0
  141.1390   70.8870  227.1670 C   0  0  0  0  0  0  0  0  0  0  0  0
  140.4790   70.4720  226.0350 C   0  0  0  0  0  0  0  0  0  0  0  0
  140.6770   71.2430  224.7960 C   0  0  0  0  0  0  0  0  0  0  0  0
  132.7890   70.1710  223.4300 H   0  0  0  0  0  0  0  0  0  0  0  0
  133.5500   70.7440  224.8050 H   0  0  0  0  0  0  0  0  0  0  0  0
  136.7093   69.1867  222.7721 H   0  0  0  0  0  0  0  0  0  0  0  0
  135.1947   69.4487  221.7481 H   0  0  0  0  0  0  0  0  0  0  0  0
  135.9587   71.4792  221.6854 H   0  0  0  0  0  0  0  0  0  0  0  0
  135.0598   71.5031  223.3192 H   0  0  0  0  0  0  0  0  0  0  0  0
  136.7856   72.5174  224.0482 H   0  0  0  0  0  0  0  0  0  0  0  0
  137.5220   70.8370  224.0131 H   0  0  0  0  0  0  0  0  0  0  0  0
  136.9944   73.4280  221.3155 H   0  0  0  0  0  0  0  0  0  0  0  0
  141.5659   74.8775  218.6111 H   0  0  0  0  0  0  0  0  0  0  0  0
  140.6961   75.3687  220.1024 H   0  0  0  0  0  0  0  0  0  0  0  0
  143.1862   76.0926  219.7555 H   0  0  0  0  0  0  0  0  0  0  0  0
  142.6398   75.4694  221.3651 H   0  0  0  0  0  0  0  0  0  0  0  0
  145.3482   75.5403  220.9338 H   0  0  0  0  0  0  0  0  0  0  0  0
  147.2023   73.8686  220.8997 H   0  0  0  0  0  0  0  0  0  0  0  0
  146.6959   71.5234  220.1917 H   0  0  0  0  0  0  0  0  0  0  0  0
  144.3854   70.8771  219.5287 H   0  0  0  0  0  0  0  0  0  0  0  0
  142.1413   72.3680  218.3617 H   0  0  0  0  0  0  0  0  0  0  0  0
  142.0194   71.3661  219.8070 H   0  0  0  0  0  0  0  0  0  0  0  0
  138.8668   69.1260  222.8697 H   0  0  0  0  0  0  0  0  0  0  0  0
  140.5163   68.7947  223.5993 H   0  0  0  0  0  0  0  0  0  0  0  0
  137.8883   69.2068  225.0218 H   0  0  0  0  0  0  0  0  0  0  0  0
  138.9464   67.7483  224.9897 H   0  0  0  0  0  0  0  0  0  0  0  0
  138.8769   67.7970  227.3794 H   0  0  0  0  0  0  0  0  0  0  0  0
  140.0849   68.5583  229.4240 H   0  0  0  0  0  0  0  0  0  0  0  0
  141.5465   70.5699  229.2635 H   0  0  0  0  0  0  0  0  0  0  0  0
  141.7888   71.7731  227.1159 H   0  0  0  0  0  0  0  0  0  0  0  0
  140.3982   72.2902  224.9849 H   0  0  0  0  0  0  0  0  0  0  0  0
  141.7354   71.1484  224.5117 H   0  0  0  0  0  0  0  0  0  0  0  0
  1  2  1  0
  2  3  2  0
  2  4  2  0
  2  5  1  0
  5  6  1  0
  6  7  1  0
  7  8  1  0
  8  9  2  0
  9 10  1  0
 10 11  2  0
 11 12  1  0
 12 13  1  0
 13 14  1  0
 14 15  1  0
 15 16  2  0
 16 17  1  0
 17 18  2  0
 18 19  1  0
 19 20  2  0
 20 21  1  0
 11 22  1  0
 22 23  2  0
 23 24  1  0
 24 25  1  0
 25 26  1  0
 26 27  1  0
 27 28  2  0
 28 29  1  0
 29 30  2  0
 30 31  1  0
 31 32  2  0
 32 33  1  0
 23  8  1  0
 33 24  1  0
 21 12  1  0
 32 27  1  0
 20 15  1  0
  1 34  1  0
  1 35  1  0
  5 36  1  0
  5 37  1  0
  6 38  1  0
  6 39  1  0
  7 40  1  0
  7 41  1  0
  9 42  1  0
 13 43  1  0
 13 44  1  0
 14 45  1  0
 14 46  1  0
 16 47  1  0
 17 48  1  0
 18 49  1  0
 19 50  1  0
 21 51  1  0
 21 52  1  0
 25 53  1  0
 25 54  1  0
 26 55  1  0
 26 56  1  0
 28 57  1  0
 29 58  1  0
 30 59  1  0
 31 60  1  0
 33 61  1  0
 33 62  1  0
M  END
>  <smiles>  (13) 
NS(=O)(=O)CCCc1cnc(N2CCc3ccccc3C2)nc1N1CCc2ccccc2C1

>  <score_type>  (13) 
oracle

>  <origin>  (13) 
autodockgpu

>  <m_score__min__energy>  (13) 
-10.720000000000001

>  <m_primary>  (13) 
energy

>  <rmsd>  (13) 
10.73120468526932

>  <m_score__min__rmsd>  (13) 
10.73120468526932

>  <meeko>  (13) 
{"free_energy": -7.8, "intermolecular_energy": -9.88, "internal_energy": -1.56, "cluster_size": 2, "cluster_id": 6, "rank_in_cluster": 2}

>  <energy>  (13) 
-10.04

>  <cluster_rmsd>  (13) 
1.26

>  <cluster>  (13) 
1

$$$$

     RDKit          3D

 62 66  0  0  0  0  0  0  0  0999 V2000
  136.8520   74.9100  223.1160 N   0  0  0  0  0  0  0  0  0  0  0  0
  135.6960   73.8380  223.7790 S   0  0  0  0  0  0  0  0  0  0  0  0
  134.5470   73.6450  222.8190 O   0  0  0  0  0  0  0  0  0  0  0  0
  135.0890   74.4820  225.0230 O   0  0  0  0  0  0  0  0  0  0  0  0
  136.3120   72.2580  224.2150 C   0  0  0  0  0  0  0  0  0  0  0  0
  135.9950   71.1500  223.2720 C   0  0  0  0  0  0  0  0  0  0  0  0
  136.8210   71.0130  222.0480 C   0  0  0  0  0  0  0  0  0  0  0  0
  137.6800   72.1780  221.7540 C   0  0  0  0  0  0  0  0  0  0  0  0
  137.3450   73.1880  220.8770 C   0  0  0  0  0  0  0  0  0  0  0  0
  138.1600   74.2430  220.6240 N   0  0  0  0  0  0  0  0  0  0  0  0
  139.3340   74.3290  221.2330 C   0  0  0  0  0  0  0  0  0  0  0  0
  140.1920   75.4310  220.9750 N   0  0  0  0  0  0  0  0  0  0  0  0
  140.1190   76.1900  219.7480 C   0  0  0  0  0  0  0  0  0  0  0  0
  139.6550   77.5870  220.0540 C   0  0  0  0  0  0  0  0  0  0  0  0
  140.2210   78.0750  221.3360 C   0  0  0  0  0  0  0  0  0  0  0  0
  140.0070   79.4190  221.6410 C   0  0  0  0  0  0  0  0  0  0  0  0
  140.4950   79.9800  222.8170 C   0  0  0  0  0  0  0  0  0  0  0  0
  141.2080   79.1600  223.6890 C   0  0  0  0  0  0  0  0  0  0  0  0
  141.4250   77.8150  223.3900 C   0  0  0  0  0  0  0  0  0  0  0  0
  140.9260   77.2810  222.2080 C   0  0  0  0  0  0  0  0  0  0  0  0
  141.1990   75.8400  221.9620 C   0  0  0  0  0  0  0  0  0  0  0  0
  139.7270   73.3850  222.0970 N   0  0  0  0  0  0  0  0  0  0  0  0
  138.9240   72.3120  222.3680 C   0  0  0  0  0  0  0  0  0  0  0  0
  139.4540   71.3820  223.2900 N   0  0  0  0  0  0  0  0  0  0  0  0
  139.2220   69.9570  223.2780 C   0  0  0  0  0  0  0  0  0  0  0  0
  138.7340   69.3970  224.5860 C   0  0  0  0  0  0  0  0  0  0  0  0
  139.5550   69.9150  225.7040 C   0  0  0  0  0  0  0  0  0  0  0  0
  139.5570   69.1910  226.8760 C   0  0  0  0  0  0  0  0  0  0  0  0
  140.2970   69.6110  227.9650 C   0  0  0  0  0  0  0  0  0  0  0  0
  141.0290   70.7730  227.8400 C   0  0  0  0  0  0  0  0  0  0  0  0
  141.0150   71.4930  226.6490 C   0  0  0  0  0  0  0  0  0  0  0  0
  140.2810   71.0760  225.5660 C   0  0  0  0  0  0  0  0  0  0  0  0
  140.3220   71.8960  224.3440 C   0  0  0  0  0  0  0  0  0  0  0  0
  137.7030   74.4040  222.7790 H   0  0  0  0  0  0  0  0  0  0  0  0
  137.1620   75.5710  223.8490 H   0  0  0  0  0  0  0  0  0  0  0  0
  137.4069   72.3328  224.2902 H   0  0  0  0  0  0  0  0  0  0  0  0
  135.8124   71.9955  225.1592 H   0  0  0  0  0  0  0  0  0  0  0  0
  136.0852   70.2083  223.8333 H   0  0  0  0  0  0  0  0  0  0  0  0
  134.9896   71.3912  222.8965 H   0  0  0  0  0  0  0  0  0  0  0  0
  137.4675   70.1310  222.1670 H   0  0  0  0  0  0  0  0  0  0  0  0
  136.1190   70.9220  221.2060 H   0  0  0  0  0  0  0  0  0  0  0  0
  136.3753   73.1362  220.3602 H   0  0  0  0  0  0  0  0  0  0  0  0
  141.1136   76.2276  219.2796 H   0  0  0  0  0  0  0  0  0  0  0  0
  139.4092   75.7088  219.0591 H   0  0  0  0  0  0  0  0  0  0  0  0
  139.9760   78.2569  219.2427 H   0  0  0  0  0  0  0  0  0  0  0  0
  138.5584   77.5773  220.1402 H   0  0  0  0  0  0  0  0  0  0  0  0
  139.4412   80.0479  220.9379 H   0  0  0  0  0  0  0  0  0  0  0  0
  140.3228   81.0408  223.0516 H   0  0  0  0  0  0  0  0  0  0  0  0
  141.6050   79.5788  224.6255 H   0  0  0  0  0  0  0  0  0  0  0  0
  141.9894   77.1789  224.0877 H   0  0  0  0  0  0  0  0  0  0  0  0
  142.2138   75.7008  221.5609 H   0  0  0  0  0  0  0  0  0  0  0  0
  141.1429   75.2433  222.8844 H   0  0  0  0  0  0  0  0  0  0  0  0
  138.4688   69.7373  222.5070 H   0  0  0  0  0  0  0  0  0  0  0  0
  140.1932   69.4820  223.0754 H   0  0  0  0  0  0  0  0  0  0  0  0
  137.6853   69.6921  224.7386 H   0  0  0  0  0  0  0  0  0  0  0  0
  138.8164   68.3004  224.5592 H   0  0  0  0  0  0  0  0  0  0  0  0
  138.9628   68.2680  226.9459 H   0  0  0  0  0  0  0  0  0  0  0  0
  140.3019   69.0360  228.9028 H   0  0  0  0  0  0  0  0  0  0  0  0
  141.6289   71.1338  228.6885 H   0  0  0  0  0  0  0  0  0  0  0  0
  141.6058   72.4178  226.5735 H   0  0  0  0  0  0  0  0  0  0  0  0
  140.0024   72.9181  224.5955 H   0  0  0  0  0  0  0  0  0  0  0  0
  141.3541   71.8736  223.9640 H   0  0  0  0  0  0  0  0  0  0  0  0
  1  2  1  0
  2  3  2  0
  2  4  2  0
  2  5  1  0
  5  6  1  0
  6  7  1  0
  7  8  1  0
  8  9  2  0
  9 10  1  0
 10 11  2  0
 11 12  1  0
 12 13  1  0
 13 14  1  0
 14 15  1  0
 15 16  2  0
 16 17  1  0
 17 18  2  0
 18 19  1  0
 19 20  2  0
 20 21  1  0
 11 22  1  0
 22 23  2  0
 23 24  1  0
 24 25  1  0
 25 26  1  0
 26 27  1  0
 27 28  2  0
 28 29  1  0
 29 30  2  0
 30 31  1  0
 31 32  2  0
 32 33  1  0
 23  8  1  0
 33 24  1  0
 21 12  1  0
 32 27  1  0
 20 15  1  0
  1 34  1  0
  1 35  1  0
  5 36  1  0
  5 37  1  0
  6 38  1  0
  6 39  1  0
  7 40  1  0
  7 41  1  0
  9 42  1  0
 13 43  1  0
 13 44  1  0
 14 45  1  0
 14 46  1  0
 16 47  1  0
 17 48  1  0
 18 49  1  0
 19 50  1  0
 21 51  1  0
 21 52  1  0
 25 53  1  0
 25 54  1  0
 26 55  1  0
 26 56  1  0
 28 57  1  0
 29 58  1  0
 30 59  1  0
 31 60  1  0
 33 61  1  0
 33 62  1  0
M  END
>  <smiles>  (14) 
NS(=O)(=O)CCCc1cnc(N2CCc3ccccc3C2)nc1N1CCc2ccccc2C1

>  <score_type>  (14) 
oracle

>  <origin>  (14) 
autodockgpu

>  <m_score__min__energy>  (14) 
-10.720000000000001

>  <m_primary>  (14) 
energy

>  <rmsd>  (14) 
10.331317445680554

>  <m_score__min__rmsd>  (14) 
10.331317445680554

>  <meeko>  (14) 
{"free_energy": -7.5, "intermolecular_energy": -9.59, "internal_energy": -2.51, "cluster_size": 1, "cluster_id": 9, "rank_in_cluster": 1}

>  <energy>  (14) 
-9.97

>  <cluster_rmsd>  (14) 
1.86

>  <cluster>  (14) 
1

$$$$

     RDKit          3D

 62 66  0  0  0  0  0  0  0  0999 V2000
  146.3950   72.6540  221.5340 N   0  0  0  0  0  0  0  0  0  0  0  0
  145.2210   72.9570  220.3270 S   0  0  0  0  0  0  0  0  0  0  0  0
  144.3300   71.7520  220.1470 O   0  0  0  0  0  0  0  0  0  0  0  0
  145.9340   73.1470  218.9900 O   0  0  0  0  0  0  0  0  0  0  0  0
  144.2010   74.3500  220.6160 C   0  0  0  0  0  0  0  0  0  0  0  0
  143.3850   74.8130  219.4610 C   0  0  0  0  0  0  0  0  0  0  0  0
  142.1180   74.1000  219.1650 C   0  0  0  0  0  0  0  0  0  0  0  0
  141.4880   73.4580  220.3370 C   0  0  0  0  0  0  0  0  0  0  0  0
  141.5490   72.1070  220.6090 C   0  0  0  0  0  0  0  0  0  0  0  0
  140.9540   71.5480  221.6920 N   0  0  0  0  0  0  0  0  0  0  0  0
  140.2790   72.3100  222.5400 C   0  0  0  0  0  0  0  0  0  0  0  0
  139.6550   71.7310  223.6770 N   0  0  0  0  0  0  0  0  0  0  0  0
  138.3040   71.2200  223.6340 C   0  0  0  0  0  0  0  0  0  0  0  0
  138.3310   69.7280  223.8240 C   0  0  0  0  0  0  0  0  0  0  0  0
  139.3740   69.3270  224.8010 C   0  0  0  0  0  0  0  0  0  0  0  0
  139.3780   67.9890  225.1950 C   0  0  0  0  0  0  0  0  0  0  0  0
  140.3110   67.5070  226.1070 C   0  0  0  0  0  0  0  0  0  0  0  0
  141.2490   68.4000  226.6220 C   0  0  0  0  0  0  0  0  0  0  0  0
  141.2490   69.7400  226.2320 C   0  0  0  0  0  0  0  0  0  0  0  0
  140.3060   70.1940  225.3190 C   0  0  0  0  0  0  0  0  0  0  0  0
  140.3720   71.6340  224.9540 C   0  0  0  0  0  0  0  0  0  0  0  0
  140.1760   73.6290  222.3410 N   0  0  0  0  0  0  0  0  0  0  0  0
  140.7670   74.2180  221.2560 C   0  0  0  0  0  0  0  0  0  0  0  0
  140.5800   75.6140  221.1530 N   0  0  0  0  0  0  0  0  0  0  0  0
  140.2740   76.3370  219.9420 C   0  0  0  0  0  0  0  0  0  0  0  0
  141.1960   77.4920  219.6590 C   0  0  0  0  0  0  0  0  0  0  0  0
  141.3830   78.3100  220.8780 C   0  0  0  0  0  0  0  0  0  0  0  0
  141.8040   79.6110  220.7080 C   0  0  0  0  0  0  0  0  0  0  0  0
  142.0020   80.4380  221.7980 C   0  0  0  0  0  0  0  0  0  0  0  0
  141.7660   79.9200  223.0540 C   0  0  0  0  0  0  0  0  0  0  0  0
  141.3410   78.6040  223.2080 C   0  0  0  0  0  0  0  0  0  0  0  0
  141.1430   77.7810  222.1260 C   0  0  0  0  0  0  0  0  0  0  0  0
  140.6930   76.4020  222.3770 C   0  0  0  0  0  0  0  0  0  0  0  0
  147.0190   71.8560  221.2780 H   0  0  0  0  0  0  0  0  0  0  0  0
  145.9170   72.3960  222.4150 H   0  0  0  0  0  0  0  0  0  0  0  0
  143.5117   74.0980  221.4353 H   0  0  0  0  0  0  0  0  0  0  0  0
  144.8883   75.1781  220.8439 H   0  0  0  0  0  0  0  0  0  0  0  0
  143.1304   75.8674  219.6438 H   0  0  0  0  0  0  0  0  0  0  0  0
  144.0190   74.6160  218.5839 H   0  0  0  0  0  0  0  0  0  0  0  0
  141.4052   74.8256  218.7462 H   0  0  0  0  0  0  0  0  0  0  0  0
  142.3707   73.2913  218.4635 H   0  0  0  0  0  0  0  0  0  0  0  0
  142.1039   71.4553  219.9180 H   0  0  0  0  0  0  0  0  0  0  0  0
  137.7106   71.6820  224.4367 H   0  0  0  0  0  0  0  0  0  0  0  0
  137.8500   71.4596  222.6611 H   0  0  0  0  0  0  0  0  0  0  0  0
  137.3490   69.3959  224.1919 H   0  0  0  0  0  0  0  0  0  0  0  0
  138.5633   69.2592  222.8564 H   0  0  0  0  0  0  0  0  0  0  0  0
  138.6285   67.3014  224.7762 H   0  0  0  0  0  0  0  0  0  0  0  0
  140.3086   66.4505  226.4132 H   0  0  0  0  0  0  0  0  0  0  0  0
  141.9983   68.0444  227.3445 H   0  0  0  0  0  0  0  0  0  0  0  0
  141.9941   70.4349  226.6467 H   0  0  0  0  0  0  0  0  0  0  0  0
  139.8817   72.2510  225.7214 H   0  0  0  0  0  0  0  0  0  0  0  0
  141.4080   71.9954  224.8767 H   0  0  0  0  0  0  0  0  0  0  0  0
  140.3329   75.6346  219.0975 H   0  0  0  0  0  0  0  0  0  0  0  0
  139.2686   76.7628  220.0756 H   0  0  0  0  0  0  0  0  0  0  0  0
  142.1712   77.1053  219.3282 H   0  0  0  0  0  0  0  0  0  0  0  0
  140.7528   78.1192  218.8715 H   0  0  0  0  0  0  0  0  0  0  0  0
  141.9846   79.9959  219.6935 H   0  0  0  0  0  0  0  0  0  0  0  0
  142.3375   81.4774  221.6674 H   0  0  0  0  0  0  0  0  0  0  0  0
  141.9150   80.5524  223.9416 H   0  0  0  0  0  0  0  0  0  0  0  0
  141.1593   78.2134  224.2201 H   0  0  0  0  0  0  0  0  0  0  0  0
  141.4164   75.9120  223.0453 H   0  0  0  0  0  0  0  0  0  0  0  0
  139.6922   76.4567  222.8302 H   0  0  0  0  0  0  0  0  0  0  0  0
  1  2  1  0
  2  3  2  0
  2  4  2  0
  2  5  1  0
  5  6  1  0
  6  7  1  0
  7  8  1  0
  8  9  2  0
  9 10  1  0
 10 11  2  0
 11 12  1  0
 12 13  1  0
 13 14  1  0
 14 15  1  0
 15 16  2  0
 16 17  1  0
 17 18  2  0
 18 19  1  0
 19 20  2  0
 20 21  1  0
 11 22  1  0
 22 23  2  0
 23 24  1  0
 24 25  1  0
 25 26  1  0
 26 27  1  0
 27 28  2  0
 28 29  1  0
 29 30  2  0
 30 31  1  0
 31 32  2  0
 32 33  1  0
 23  8  1  0
 33 24  1  0
 21 12  1  0
 32 27  1  0
 20 15  1  0
  1 34  1  0
  1 35  1  0
  5 36  1  0
  5 37  1  0
  6 38  1  0
  6 39  1  0
  7 40  1  0
  7 41  1  0
  9 42  1  0
 13 43  1  0
 13 44  1  0
 14 45  1  0
 14 46  1  0
 16 47  1  0
 17 48  1  0
 18 49  1  0
 19 50  1  0
 21 51  1  0
 21 52  1  0
 25 53  1  0
 25 54  1  0
 26 55  1  0
 26 56  1  0
 28 57  1  0
 29 58  1  0
 30 59  1  0
 31 60  1  0
 33 61  1  0
 33 62  1  0
M  END
>  <smiles>  (15) 
NS(=O)(=O)CCCc1cnc(N2CCc3ccccc3C2)nc1N1CCc2ccccc2C1

>  <score_type>  (15) 
oracle

>  <origin>  (15) 
autodockgpu

>  <m_score__min__energy>  (15) 
-10.720000000000001

>  <m_primary>  (15) 
energy

>  <rmsd>  (15) 
4.269741118260073

>  <m_score__min__rmsd>  (15) 
4.269741118260073

>  <meeko>  (15) 
{"free_energy": -10.58, "intermolecular_energy": -12.67, "internal_energy": -1.46, "cluster_size": 30, "cluster_id": 1, "rank_in_cluster": 5}

>  <energy>  (15) 
-9.81

>  <cluster_rmsd>  (15) 
1.31

>  <cluster>  (15) 
1

$$$$

     RDKit          3D

 62 66  0  0  0  0  0  0  0  0999 V2000
  144.5530   72.2390  221.1820 N   0  0  0  0  0  0  0  0  0  0  0  0
  145.2860   73.3340  220.0910 S   0  0  0  0  0  0  0  0  0  0  0  0
  146.4190   72.6620  219.3530 O   0  0  0  0  0  0  0  0  0  0  0  0
  145.9290   74.4640  220.8920 O   0  0  0  0  0  0  0  0  0  0  0  0
  144.2060   74.0360  218.9060 C   0  0  0  0  0  0  0  0  0  0  0  0
  143.0170   74.7510  219.4470 C   0  0  0  0  0  0  0  0  0  0  0  0
  141.6820   74.1350  219.2560 C   0  0  0  0  0  0  0  0  0  0  0  0
  141.1420   73.4550  220.4510 C   0  0  0  0  0  0  0  0  0  0  0  0
  141.2320   72.0980  220.6800 C   0  0  0  0  0  0  0  0  0  0  0  0
  140.7200   71.5040  221.7880 N   0  0  0  0  0  0  0  0  0  0  0  0
  140.1030   72.2370  222.7030 C   0  0  0  0  0  0  0  0  0  0  0  0
  139.5670   71.6220  223.8660 N   0  0  0  0  0  0  0  0  0  0  0  0
  138.2030   71.1470  223.9230 C   0  0  0  0  0  0  0  0  0  0  0  0
  138.2020   69.6490  224.0440 C   0  0  0  0  0  0  0  0  0  0  0  0
  139.3160   69.1750  224.9030 C   0  0  0  0  0  0  0  0  0  0  0  0
  139.3160   67.8200  225.2350 C   0  0  0  0  0  0  0  0  0  0  0  0
  140.3120   67.2720  226.0350 C   0  0  0  0  0  0  0  0  0  0  0  0
  141.3190   68.1150  226.5010 C   0  0  0  0  0  0  0  0  0  0  0  0
  141.3240   69.4720  226.1730 C   0  0  0  0  0  0  0  0  0  0  0  0
  140.3170   69.9930  225.3710 C   0  0  0  0  0  0  0  0  0  0  0  0
  140.3930   71.4460  225.0670 C   0  0  0  0  0  0  0  0  0  0  0  0
  139.9770   73.5600  222.5490 N   0  0  0  0  0  0  0  0  0  0  0  0
  140.4840   74.1830  221.4410 C   0  0  0  0  0  0  0  0  0  0  0  0
  140.2800   75.5800  221.3910 N   0  0  0  0  0  0  0  0  0  0  0  0
  139.6680   76.3040  220.3030 C   0  0  0  0  0  0  0  0  0  0  0  0
  140.4860   77.4570  219.7870 C   0  0  0  0  0  0  0  0  0  0  0  0
  140.9900   78.2740  220.9140 C   0  0  0  0  0  0  0  0  0  0  0  0
  141.3550   79.5740  220.6380 C   0  0  0  0  0  0  0  0  0  0  0  0
  141.8350   80.4000  221.6380 C   0  0  0  0  0  0  0  0  0  0  0  0
  141.9360   79.8810  222.9110 C   0  0  0  0  0  0  0  0  0  0  0  0
  141.5630   78.5660  223.1720 C   0  0  0  0  0  0  0  0  0  0  0  0
  141.0850   77.7450  222.1800 C   0  0  0  0  0  0  0  0  0  0  0  0
  140.7130   76.3670  222.5410 C   0  0  0  0  0  0  0  0  0  0  0  0
  145.1100   72.1350  222.0610 H   0  0  0  0  0  0  0  0  0  0  0  0
  144.5030   71.3030  220.7420 H   0  0  0  0  0  0  0  0  0  0  0  0
  144.7854   74.7532  218.3061 H   0  0  0  0  0  0  0  0  0  0  0  0
  143.8052   73.1877  218.3317 H   0  0  0  0  0  0  0  0  0  0  0  0
  143.1709   74.8666  220.5300 H   0  0  0  0  0  0  0  0  0  0  0  0
  142.9723   75.6839  218.8659 H   0  0  0  0  0  0  0  0  0  0  0  0
  140.9771   74.9274  218.9642 H   0  0  0  0  0  0  0  0  0  0  0  0
  141.8036   73.3603  218.4846 H   0  0  0  0  0  0  0  0  0  0  0  0
  141.7402   71.4704  219.9331 H   0  0  0  0  0  0  0  0  0  0  0  0
  137.6974   71.5862  224.7956 H   0  0  0  0  0  0  0  0  0  0  0  0
  137.6719   71.4424  223.0061 H   0  0  0  0  0  0  0  0  0  0  0  0
  137.2474   69.3261  224.4850 H   0  0  0  0  0  0  0  0  0  0  0  0
  138.3323   69.2201  223.0395 H   0  0  0  0  0  0  0  0  0  0  0  0
  138.5117   67.1723  224.8561 H   0  0  0  0  0  0  0  0  0  0  0  0
  140.3054   66.2027  226.2930 H   0  0  0  0  0  0  0  0  0  0  0  0
  142.1197   67.7063  227.1350 H   0  0  0  0  0  0  0  0  0  0  0  0
  142.1237   70.1270  226.5489 H   0  0  0  0  0  0  0  0  0  0  0  0
  139.9924   72.0382  225.9029 H   0  0  0  0  0  0  0  0  0  0  0  0
  141.4282   71.7840  224.9119 H   0  0  0  0  0  0  0  0  0  0  0  0
  139.5010   75.6017  219.4730 H   0  0  0  0  0  0  0  0  0  0  0  0
  138.7341   76.7321  220.6962 H   0  0  0  0  0  0  0  0  0  0  0  0
  141.3386   77.0681  219.2109 H   0  0  0  0  0  0  0  0  0  0  0  0
  139.8526   78.0859  219.1442 H   0  0  0  0  0  0  0  0  0  0  0  0
  141.2636   79.9587  219.6115 H   0  0  0  0  0  0  0  0  0  0  0  0
  142.1271   81.4387  221.4242 H   0  0  0  0  0  0  0  0  0  0  0  0
  142.3150   80.5122  223.7282 H   0  0  0  0  0  0  0  0  0  0  0  0
  141.6530   78.1751  224.1962 H   0  0  0  0  0  0  0  0  0  0  0  0
  141.5854   75.8748  222.9957 H   0  0  0  0  0  0  0  0  0  0  0  0
  139.8668   76.4244  223.2414 H   0  0  0  0  0  0  0  0  0  0  0  0
  1  2  1  0
  2  3  2  0
  2  4  2  0
  2  5  1  0
  5  6  1  0
  6  7  1  0
  7  8  1  0
  8  9  2  0
  9 10  1  0
 10 11  2  0
 11 12  1  0
 12 13  1  0
 13 14  1  0
 14 15  1  0
 15 16  2  0
 16 17  1  0
 17 18  2  0
 18 19  1  0
 19 20  2  0
 20 21  1  0
 11 22  1  0
 22 23  2  0
 23 24  1  0
 24 25  1  0
 25 26  1  0
 26 27  1  0
 27 28  2  0
 28 29  1  0
 29 30  2  0
 30 31  1  0
 31 32  2  0
 32 33  1  0
 23  8  1  0
 33 24  1  0
 21 12  1  0
 32 27  1  0
 20 15  1  0
  1 34  1  0
  1 35  1  0
  5 36  1  0
  5 37  1  0
  6 38  1  0
  6 39  1  0
  7 40  1  0
  7 41  1  0
  9 42  1  0
 13 43  1  0
 13 44  1  0
 14 45  1  0
 14 46  1  0
 16 47  1  0
 17 48  1  0
 18 49  1  0
 19 50  1  0
 21 51  1  0
 21 52  1  0
 25 53  1  0
 25 54  1  0
 26 55  1  0
 26 56  1  0
 28 57  1  0
 29 58  1  0
 30 59  1  0
 31 60  1  0
 33 61  1  0
 33 62  1  0
M  END
>  <smiles>  (16) 
NS(=O)(=O)CCCc1cnc(N2CCc3ccccc3C2)nc1N1CCc2ccccc2C1

>  <score_type>  (16) 
oracle

>  <origin>  (16) 
autodockgpu

>  <m_score__min__energy>  (16) 
-10.720000000000001

>  <m_primary>  (16) 
energy

>  <rmsd>  (16) 
4.152577123216209

>  <m_score__min__rmsd>  (16) 
4.152577123216209

>  <meeko>  (16) 
{"free_energy": -10.04, "intermolecular_energy": -12.13, "internal_energy": -1.44, "cluster_size": 30, "cluster_id": 1, "rank_in_cluster": 13}

>  <energy>  (16) 
-9.8

>  <cluster_rmsd>  (16) 
1.32

>  <cluster>  (16) 
1

$$$$

     RDKit          3D

 62 66  0  0  0  0  0  0  0  0999 V2000
  146.0190   73.5760  218.0020 N   0  0  0  0  0  0  0  0  0  0  0  0
  145.9580   73.0810  219.6380 S   0  0  0  0  0  0  0  0  0  0  0  0
  147.0310   73.7810  220.4390 O   0  0  0  0  0  0  0  0  0  0  0  0
  146.2940   71.5930  219.7120 O   0  0  0  0  0  0  0  0  0  0  0  0
  144.4240   73.3450  220.4380 C   0  0  0  0  0  0  0  0  0  0  0  0
  143.5810   74.4420  219.8890 C   0  0  0  0  0  0  0  0  0  0  0  0
  142.1430   74.1680  219.6490 C   0  0  0  0  0  0  0  0  0  0  0  0
  141.4590   73.4650  220.7530 C   0  0  0  0  0  0  0  0  0  0  0  0
  141.5670   72.1120  220.9970 C   0  0  0  0  0  0  0  0  0  0  0  0
  140.9190   71.4960  222.0180 N   0  0  0  0  0  0  0  0  0  0  0  0
  140.1450   72.2020  222.8290 C   0  0  0  0  0  0  0  0  0  0  0  0
  139.4660   71.5630  223.9010 N   0  0  0  0  0  0  0  0  0  0  0  0
  138.1660   70.9550  223.7330 C   0  0  0  0  0  0  0  0  0  0  0  0
  138.2860   69.4670  223.9130 C   0  0  0  0  0  0  0  0  0  0  0  0
  139.2640   69.1290  224.9770 C   0  0  0  0  0  0  0  0  0  0  0  0
  139.3310   67.7900  225.3600 C   0  0  0  0  0  0  0  0  0  0  0  0
  140.2130   67.3640  226.3490 C   0  0  0  0  0  0  0  0  0  0  0  0
  141.0320   68.3160  226.9520 C   0  0  0  0  0  0  0  0  0  0  0  0
  140.9680   69.6570  226.5740 C   0  0  0  0  0  0  0  0  0  0  0  0
  140.0790   70.0550  225.5830 C   0  0  0  0  0  0  0  0  0  0  0  0
  140.0710   71.5000  225.2370 C   0  0  0  0  0  0  0  0  0  0  0  0
  139.9910   73.5190  222.6530 N   0  0  0  0  0  0  0  0  0  0  0  0
  140.6320   74.1640  221.6310 C   0  0  0  0  0  0  0  0  0  0  0  0
  140.3830   75.5520  221.5460 N   0  0  0  0  0  0  0  0  0  0  0  0
  139.8030   76.2370  220.4160 C   0  0  0  0  0  0  0  0  0  0  0  0
  140.6060   77.4090  219.9210 C   0  0  0  0  0  0  0  0  0  0  0  0
  141.0240   78.2620  221.0580 C   0  0  0  0  0  0  0  0  0  0  0  0
  141.3580   79.5690  220.7780 C   0  0  0  0  0  0  0  0  0  0  0  0
  141.7580   80.4270  221.7860 C   0  0  0  0  0  0  0  0  0  0  0  0
  141.8120   79.9330  223.0720 C   0  0  0  0  0  0  0  0  0  0  0  0
  141.4720   78.6090  223.3360 C   0  0  0  0  0  0  0  0  0  0  0  0
  141.0730   77.7560  222.3370 C   0  0  0  0  0  0  0  0  0  0  0  0
  140.7310   76.3720  222.7020 C   0  0  0  0  0  0  0  0  0  0  0  0
  146.9110   74.0740  217.7790 H   0  0  0  0  0  0  0  0  0  0  0  0
  145.2470   74.2400  217.8190 H   0  0  0  0  0  0  0  0  0  0  0  0
  143.8456   72.4116  220.3729 H   0  0  0  0  0  0  0  0  0  0  0  0
  144.6742   73.6494  221.4650 H   0  0  0  0  0  0  0  0  0  0  0  0
  143.6392   75.2829  220.5957 H   0  0  0  0  0  0  0  0  0  0  0  0
  143.9941   74.6275  218.8865 H   0  0  0  0  0  0  0  0  0  0  0  0
  141.6331   75.1289  219.4859 H   0  0  0  0  0  0  0  0  0  0  0  0
  142.0941   73.5003  218.7762 H   0  0  0  0  0  0  0  0  0  0  0  0
  142.2051   71.5067  220.3364 H   0  0  0  0  0  0  0  0  0  0  0  0
  137.4709   71.3609  224.4827 H   0  0  0  0  0  0  0  0  0  0  0  0
  137.7842   71.1745  222.7250 H   0  0  0  0  0  0  0  0  0  0  0  0
  137.3022   69.0590  224.1880 H   0  0  0  0  0  0  0  0  0  0  0  0
  138.6381   69.0304  222.9667 H   0  0  0  0  0  0  0  0  0  0  0  0
  138.6739   67.0558  224.8710 H   0  0  0  0  0  0  0  0  0  0  0  0
  140.2619   66.3060  226.6459 H   0  0  0  0  0  0  0  0  0  0  0  0
  141.7382   68.0061  227.7363 H   0  0  0  0  0  0  0  0  0  0  0  0
  141.6200   70.3981  227.0594 H   0  0  0  0  0  0  0  0  0  0  0  0
  139.4697   72.0685  225.9617 H   0  0  0  0  0  0  0  0  0  0  0  0
  141.0803   71.9369  225.2565 H   0  0  0  0  0  0  0  0  0  0  0  0
  139.7021   75.5161  219.5913 H   0  0  0  0  0  0  0  0  0  0  0  0
  138.8366   76.6389  220.7546 H   0  0  0  0  0  0  0  0  0  0  0  0
  141.4996   77.0408  219.3957 H   0  0  0  0  0  0  0  0  0  0  0  0
  139.9851   78.0047  219.2357 H   0  0  0  0  0  0  0  0  0  0  0  0
  141.3059   79.9339  219.7416 H   0  0  0  0  0  0  0  0  0  0  0  0
  142.0249   81.4717  221.5684 H   0  0  0  0  0  0  0  0  0  0  0  0
  142.1263   80.5903  223.8962 H   0  0  0  0  0  0  0  0  0  0  0  0
  141.5243   78.2374  224.3700 H   0  0  0  0  0  0  0  0  0  0  0  0
  141.5960   75.9178  223.2075 H   0  0  0  0  0  0  0  0  0  0  0  0
  139.8490   76.4108  223.3582 H   0  0  0  0  0  0  0  0  0  0  0  0
  1  2  1  0
  2  3  2  0
  2  4  2  0
  2  5  1  0
  5  6  1  0
  6  7  1  0
  7  8  1  0
  8  9  2  0
  9 10  1  0
 10 11  2  0
 11 12  1  0
 12 13  1  0
 13 14  1  0
 14 15  1  0
 15 16  2  0
 16 17  1  0
 17 18  2  0
 18 19  1  0
 19 20  2  0
 20 21  1  0
 11 22  1  0
 22 23  2  0
 23 24  1  0
 24 25  1  0
 25 26  1  0
 26 27  1  0
 27 28  2  0
 28 29  1  0
 29 30  2  0
 30 31  1  0
 31 32  2  0
 32 33  1  0
 23  8  1  0
 33 24  1  0
 21 12  1  0
 32 27  1  0
 20 15  1  0
  1 34  1  0
  1 35  1  0
  5 36  1  0
  5 37  1  0
  6 38  1  0
  6 39  1  0
  7 40  1  0
  7 41  1  0
  9 42  1  0
 13 43  1  0
 13 44  1  0
 14 45  1  0
 14 46  1  0
 16 47  1  0
 17 48  1  0
 18 49  1  0
 19 50  1  0
 21 51  1  0
 21 52  1  0
 25 53  1  0
 25 54  1  0
 26 55  1  0
 26 56  1  0
 28 57  1  0
 29 58  1  0
 30 59  1  0
 31 60  1  0
 33 61  1  0
 33 62  1  0
M  END
>  <smiles>  (17) 
NS(=O)(=O)CCCc1cnc(N2CCc3ccccc3C2)nc1N1CCc2ccccc2C1

>  <score_type>  (17) 
oracle

>  <origin>  (17) 
autodockgpu

>  <m_score__min__energy>  (17) 
-10.720000000000001

>  <m_primary>  (17) 
energy

>  <rmsd>  (17) 
4.342430511121432

>  <m_score__min__rmsd>  (17) 
4.342430511121432

>  <meeko>  (17) 
{"free_energy": -10.55, "intermolecular_energy": -12.64, "internal_energy": -1.23, "cluster_size": 30, "cluster_id": 1, "rank_in_cluster": 6}

>  <energy>  (17) 
-9.75

>  <cluster_rmsd>  (17) 
1.11

>  <cluster>  (17) 
1

$$$$

     RDKit          3D

 62 66  0  0  0  0  0  0  0  0999 V2000
  142.1380   75.2650  220.5370 N   0  0  0  0  0  0  0  0  0  0  0  0
  142.3590   76.7040  219.6390 S   0  0  0  0  0  0  0  0  0  0  0  0
  143.6630   76.6550  218.8800 O   0  0  0  0  0  0  0  0  0  0  0  0
  142.4920   77.8730  220.6120 O   0  0  0  0  0  0  0  0  0  0  0  0
  141.0810   77.0720  218.5000 C   0  0  0  0  0  0  0  0  0  0  0  0
  139.9100   77.8090  219.0470 C   0  0  0  0  0  0  0  0  0  0  0  0
  138.7350   77.0230  219.4980 C   0  0  0  0  0  0  0  0  0  0  0  0
  139.0670   75.7190  220.1070 C   0  0  0  0  0  0  0  0  0  0  0  0
  139.0150   74.5140  219.4380 C   0  0  0  0  0  0  0  0  0  0  0  0
  139.3200   73.3310  220.0290 N   0  0  0  0  0  0  0  0  0  0  0  0
  139.6870   73.3060  221.3020 C   0  0  0  0  0  0  0  0  0  0  0  0
  140.0110   72.0720  221.9270 N   0  0  0  0  0  0  0  0  0  0  0  0
  141.0390   71.9690  222.9360 C   0  0  0  0  0  0  0  0  0  0  0  0
  140.4100   71.6100  224.2530 C   0  0  0  0  0  0  0  0  0  0  0  0
  139.2820   70.6620  224.0730 C   0  0  0  0  0  0  0  0  0  0  0  0
  138.7330   70.1180  225.2340 C   0  0  0  0  0  0  0  0  0  0  0  0
  137.6730   69.2190  225.1790 C   0  0  0  0  0  0  0  0  0  0  0  0
  137.1700   68.8720  223.9270 C   0  0  0  0  0  0  0  0  0  0  0  0
  137.7160   69.4130  222.7620 C   0  0  0  0  0  0  0  0  0  0  0  0
  138.7730   70.3090  222.8460 C   0  0  0  0  0  0  0  0  0  0  0  0
  139.2990   70.8410  221.5610 C   0  0  0  0  0  0  0  0  0  0  0  0
  139.7600   74.4360  222.0160 N   0  0  0  0  0  0  0  0  0  0  0  0
  139.4570   75.6410  221.4430 C   0  0  0  0  0  0  0  0  0  0  0  0
  139.5640   76.7580  222.3010 N   0  0  0  0  0  0  0  0  0  0  0  0
  138.4690   77.5850  222.7500 C   0  0  0  0  0  0  0  0  0  0  0  0
  138.6680   79.0580  222.5190 C   0  0  0  0  0  0  0  0  0  0  0  0
  140.0200   79.4690  222.9600 C   0  0  0  0  0  0  0  0  0  0  0  0
  140.2140   80.8030  223.2440 C   0  0  0  0  0  0  0  0  0  0  0  0
  141.4490   81.2640  223.6620 C   0  0  0  0  0  0  0  0  0  0  0  0
  142.4730   80.3500  223.7820 C   0  0  0  0  0  0  0  0  0  0  0  0
  142.2600   79.0050  223.4910 C   0  0  0  0  0  0  0  0  0  0  0  0
  141.0340   78.5460  223.0770 C   0  0  0  0  0  0  0  0  0  0  0  0
  140.8930   77.1080  222.7890 C   0  0  0  0  0  0  0  0  0  0  0  0
  141.2000   74.8380  220.3630 H   0  0  0  0  0  0  0  0  0  0  0  0
  142.1900   75.4850  221.5470 H   0  0  0  0  0  0  0  0  0  0  0  0
  141.5147   77.6811  217.6932 H   0  0  0  0  0  0  0  0  0  0  0  0
  140.6898   76.0984  218.1696 H   0  0  0  0  0  0  0  0  0  0  0  0
  140.2649   78.3900  219.9110 H   0  0  0  0  0  0  0  0  0  0  0  0
  139.5350   78.3954  218.1952 H   0  0  0  0  0  0  0  0  0  0  0  0
  138.1874   77.6201  220.2420 H   0  0  0  0  0  0  0  0  0  0  0  0
  138.1403   76.8056  218.5985 H   0  0  0  0  0  0  0  0  0  0  0  0
  138.7134   74.5117  218.3802 H   0  0  0  0  0  0  0  0  0  0  0  0
  141.7592   71.1889  222.6482 H   0  0  0  0  0  0  0  0  0  0  0  0
  141.5617   72.9324  223.0284 H   0  0  0  0  0  0  0  0  0  0  0  0
  141.1699   71.1441  224.8975 H   0  0  0  0  0  0  0  0  0  0  0  0
  140.0196   72.5299  224.7128 H   0  0  0  0  0  0  0  0  0  0  0  0
  139.1463   70.4054  226.2120 H   0  0  0  0  0  0  0  0  0  0  0  0
  137.2439   68.7939  226.0983 H   0  0  0  0  0  0  0  0  0  0  0  0
  136.3321   68.1628  223.8558 H   0  0  0  0  0  0  0  0  0  0  0  0
  137.3098   69.1301  221.7797 H   0  0  0  0  0  0  0  0  0  0  0  0
  139.9867   70.1196  221.0956 H   0  0  0  0  0  0  0  0  0  0  0  0
  138.4982   71.0266  220.8300 H   0  0  0  0  0  0  0  0  0  0  0  0
  137.5600   77.2725  222.2152 H   0  0  0  0  0  0  0  0  0  0  0  0
  138.3953   77.4449  223.8386 H   0  0  0  0  0  0  0  0  0  0  0  0
  138.5542   79.2758  221.4468 H   0  0  0  0  0  0  0  0  0  0  0  0
  137.9176   79.6157  223.0985 H   0  0  0  0  0  0  0  0  0  0  0  0
  139.3774   81.5092  223.1371 H   0  0  0  0  0  0  0  0  0  0  0  0
  141.6089   82.3278  223.8917 H   0  0  0  0  0  0  0  0  0  0  0  0
  143.4676   80.6857  224.1106 H   0  0  0  0  0  0  0  0  0  0  0  0
  143.0929   78.2941  223.5952 H   0  0  0  0  0  0  0  0  0  0  0  0
  141.6332   76.8282  222.0249 H   0  0  0  0  0  0  0  0  0  0  0  0
  141.0543   76.5637  223.7312 H   0  0  0  0  0  0  0  0  0  0  0  0
  1  2  1  0
  2  3  2  0
  2  4  2  0
  2  5  1  0
  5  6  1  0
  6  7  1  0
  7  8  1  0
  8  9  2  0
  9 10  1  0
 10 11  2  0
 11 12  1  0
 12 13  1  0
 13 14  1  0
 14 15  1  0
 15 16  2  0
 16 17  1  0
 17 18  2  0
 18 19  1  0
 19 20  2  0
 20 21  1  0
 11 22  1  0
 22 23  2  0
 23 24  1  0
 24 25  1  0
 25 26  1  0
 26 27  1  0
 27 28  2  0
 28 29  1  0
 29 30  2  0
 30 31  1  0
 31 32  2  0
 32 33  1  0
 23  8  1  0
 33 24  1  0
 21 12  1  0
 32 27  1  0
 20 15  1  0
  1 34  1  0
  1 35  1  0
  5 36  1  0
  5 37  1  0
  6 38  1  0
  6 39  1  0
  7 40  1  0
  7 41  1  0
  9 42  1  0
 13 43  1  0
 13 44  1  0
 14 45  1  0
 14 46  1  0
 16 47  1  0
 17 48  1  0
 18 49  1  0
 19 50  1  0
 21 51  1  0
 21 52  1  0
 25 53  1  0
 25 54  1  0
 26 55  1  0
 26 56  1  0
 28 57  1  0
 29 58  1  0
 30 59  1  0
 31 60  1  0
 33 61  1  0
 33 62  1  0
M  END
>  <smiles>  (18) 
NS(=O)(=O)CCCc1cnc(N2CCc3ccccc3C2)nc1N1CCc2ccccc2C1

>  <score_type>  (18) 
oracle

>  <origin>  (18) 
autodockgpu

>  <m_score__min__energy>  (18) 
-10.720000000000001

>  <m_primary>  (18) 
energy

>  <rmsd>  (18) 
3.3466375364668948

>  <m_score__min__rmsd>  (18) 
3.3466375364668948

>  <meeko>  (18) 
{"free_energy": -6.6, "intermolecular_energy": -8.69, "internal_energy": -3.02, "cluster_size": 1, "cluster_id": 11, "rank_in_cluster": 1}

>  <energy>  (18) 
-9.64

>  <cluster_rmsd>  (18) 
1.13

>  <cluster>  (18) 
1

$$$$

     RDKit          3D

 62 66  0  0  0  0  0  0  0  0999 V2000
  146.3310   73.0230  221.8260 N   0  0  0  0  0  0  0  0  0  0  0  0
  145.2260   72.9970  220.5210 S   0  0  0  0  0  0  0  0  0  0  0  0
  144.4970   71.6760  220.4750 O   0  0  0  0  0  0  0  0  0  0  0  0
  146.0130   73.0780  219.2140 O   0  0  0  0  0  0  0  0  0  0  0  0
  144.0320   74.2770  220.5320 C   0  0  0  0  0  0  0  0  0  0  0  0
  143.3500   74.5460  219.2360 C   0  0  0  0  0  0  0  0  0  0  0  0
  141.9470   74.0940  219.0760 C   0  0  0  0  0  0  0  0  0  0  0  0
  141.3640   73.4630  220.2770 C   0  0  0  0  0  0  0  0  0  0  0  0
  141.4070   72.1110  220.5430 C   0  0  0  0  0  0  0  0  0  0  0  0
  140.8560   71.5620  221.6550 N   0  0  0  0  0  0  0  0  0  0  0  0
  140.2440   72.3380  222.5380 C   0  0  0  0  0  0  0  0  0  0  0  0
  139.6660   71.7700  223.7060 N   0  0  0  0  0  0  0  0  0  0  0  0
  138.3150   71.2600  223.7230 C   0  0  0  0  0  0  0  0  0  0  0  0
  138.3480   69.7700  223.9250 C   0  0  0  0  0  0  0  0  0  0  0  0
  139.4300   69.3770  224.8630 C   0  0  0  0  0  0  0  0  0  0  0  0
  139.4490   68.0430  225.2680 C   0  0  0  0  0  0  0  0  0  0  0  0
  140.4190   67.5680  226.1460 C   0  0  0  0  0  0  0  0  0  0  0  0
  141.3770   68.4650  226.6140 C   0  0  0  0  0  0  0  0  0  0  0  0
  141.3630   69.8010  226.2120 C   0  0  0  0  0  0  0  0  0  0  0  0
  140.3830   70.2480  225.3340 C   0  0  0  0  0  0  0  0  0  0  0  0
  140.4360   71.6840  224.9530 C   0  0  0  0  0  0  0  0  0  0  0  0
  140.1620   73.6600  222.3470 N   0  0  0  0  0  0  0  0  0  0  0  0
  140.7090   74.2370  221.2340 C   0  0  0  0  0  0  0  0  0  0  0  0
  140.5500   75.6380  221.1440 N   0  0  0  0  0  0  0  0  0  0  0  0
  140.2880   76.3800  219.9340 C   0  0  0  0  0  0  0  0  0  0  0  0
  141.2380   77.5210  219.6880 C   0  0  0  0  0  0  0  0  0  0  0  0
  141.4080   78.3220  220.9220 C   0  0  0  0  0  0  0  0  0  0  0  0
  141.8570   79.6170  220.7780 C   0  0  0  0  0  0  0  0  0  0  0  0
  142.0410   80.4270  221.8830 C   0  0  0  0  0  0  0  0  0  0  0  0
  141.7640   79.8990  223.1260 C   0  0  0  0  0  0  0  0  0  0  0  0
  141.3120   78.5890  223.2530 C   0  0  0  0  0  0  0  0  0  0  0  0
  141.1270   77.7830  222.1560 C   0  0  0  0  0  0  0  0  0  0  0  0
  140.6460   76.4090  222.3790 C   0  0  0  0  0  0  0  0  0  0  0  0
  147.1450   73.6500  221.6350 H   0  0  0  0  0  0  0  0  0  0  0  0
  146.7080   72.0700  221.9710 H   0  0  0  0  0  0  0  0  0  0  0  0
  143.2603   74.0108  221.2693 H   0  0  0  0  0  0  0  0  0  0  0  0
  144.5860   75.1966  220.7715 H   0  0  0  0  0  0  0  0  0  0  0  0
  143.3616   75.6350  219.0811 H   0  0  0  0  0  0  0  0  0  0  0  0
  143.9136   73.9508  218.5025 H   0  0  0  0  0  0  0  0  0  0  0  0
  141.3325   74.9682  218.8151 H   0  0  0  0  0  0  0  0  0  0  0  0
  141.9553   73.3230  218.2915 H   0  0  0  0  0  0  0  0  0  0  0  0
  141.9096   71.4487  219.8228 H   0  0  0  0  0  0  0  0  0  0  0  0
  137.7553   71.7299  224.5452 H   0  0  0  0  0  0  0  0  0  0  0  0
  137.8221   71.4912  222.7672 H   0  0  0  0  0  0  0  0  0  0  0  0
  137.3814   69.4424  224.3354 H   0  0  0  0  0  0  0  0  0  0  0  0
  138.5401   69.2918  222.9532 H   0  0  0  0  0  0  0  0  0  0  0  0
  138.6825   67.3525  224.8862 H   0  0  0  0  0  0  0  0  0  0  0  0
  140.4290   66.5143  226.4615 H   0  0  0  0  0  0  0  0  0  0  0  0
  142.1543   68.1154  227.3093 H   0  0  0  0  0  0  0  0  0  0  0  0
  142.1255   70.4985  226.5890 H   0  0  0  0  0  0  0  0  0  0  0  0
  139.9793   72.3093  225.7343 H   0  0  0  0  0  0  0  0  0  0  0  0
  141.4684   72.0428  224.8290 H   0  0  0  0  0  0  0  0  0  0  0  0
  140.3556   75.6861  219.0832 H   0  0  0  0  0  0  0  0  0  0  0  0
  139.2873   76.8226  220.0469 H   0  0  0  0  0  0  0  0  0  0  0  0
  142.2143   77.1202  219.3780 H   0  0  0  0  0  0  0  0  0  0  0  0
  140.8271   78.1650  218.8966 H   0  0  0  0  0  0  0  0  0  0  0  0
  142.0712   80.0102  219.7733 H   0  0  0  0  0  0  0  0  0  0  0  0
  142.3977   81.4618  221.7737 H   0  0  0  0  0  0  0  0  0  0  0  0
  141.9014   80.5182  224.0247 H   0  0  0  0  0  0  0  0  0  0  0  0
  141.0978   78.1895  224.2553 H   0  0  0  0  0  0  0  0  0  0  0  0
  141.3433   75.8982  223.0593 H   0  0  0  0  0  0  0  0  0  0  0  0
  139.6352   76.4766  222.8076 H   0  0  0  0  0  0  0  0  0  0  0  0
  1  2  1  0
  2  3  2  0
  2  4  2  0
  2  5  1  0
  5  6  1  0
  6  7  1  0
  7  8  1  0
  8  9  2  0
  9 10  1  0
 10 11  2  0
 11 12  1  0
 12 13  1  0
 13 14  1  0
 14 15  1  0
 15 16  2  0
 16 17  1  0
 17 18  2  0
 18 19  1  0
 19 20  2  0
 20 21  1  0
 11 22  1  0
 22 23  2  0
 23 24  1  0
 24 25  1  0
 25 26  1  0
 26 27  1  0
 27 28  2  0
 28 29  1  0
 29 30  2  0
 30 31  1  0
 31 32  2  0
 32 33  1  0
 23  8  1  0
 33 24  1  0
 21 12  1  0
 32 27  1  0
 20 15  1  0
  1 34  1  0
  1 35  1  0
  5 36  1  0
  5 37  1  0
  6 38  1  0
  6 39  1  0
  7 40  1  0
  7 41  1  0
  9 42  1  0
 13 43  1  0
 13 44  1  0
 14 45  1  0
 14 46  1  0
 16 47  1  0
 17 48  1  0
 18 49  1  0
 19 50  1  0
 21 51  1  0
 21 52  1  0
 25 53  1  0
 25 54  1  0
 26 55  1  0
 26 56  1  0
 28 57  1  0
 29 58  1  0
 30 59  1  0
 31 60  1  0
 33 61  1  0
 33 62  1  0
M  END
>  <smiles>  (19) 
NS(=O)(=O)CCCc1cnc(N2CCc3ccccc3C2)nc1N1CCc2ccccc2C1

>  <score_type>  (19) 
oracle

>  <origin>  (19) 
autodockgpu

>  <m_score__min__energy>  (19) 
-10.720000000000001

>  <m_primary>  (19) 
energy

>  <rmsd>  (19) 
4.2163199870782115

>  <m_score__min__rmsd>  (19) 
4.2163199870782115

>  <meeko>  (19) 
{"free_energy": -10.27, "intermolecular_energy": -12.35, "internal_energy": -1.45, "cluster_size": 30, "cluster_id": 1, "rank_in_cluster": 11}

>  <energy>  (19) 
-9.34

>  <cluster_rmsd>  (19) 
1.61

>  <cluster>  (19) 
1

$$$$

     RDKit          3D

 62 66  0  0  0  0  0  0  0  0999 V2000
  145.8340   71.5130  220.0700 N   0  0  0  0  0  0  0  0  0  0  0  0
  145.8150   73.2050  219.8200 S   0  0  0  0  0  0  0  0  0  0  0  0
  145.9500   73.5200  218.3490 O   0  0  0  0  0  0  0  0  0  0  0  0
  147.0490   73.8110  220.4860 O   0  0  0  0  0  0  0  0  0  0  0  0
  144.3940   74.0300  220.4250 C   0  0  0  0  0  0  0  0  0  0  0  0
  143.5080   74.6430  219.3980 C   0  0  0  0  0  0  0  0  0  0  0  0
  142.1850   74.0210  219.1510 C   0  0  0  0  0  0  0  0  0  0  0  0
  141.5750   73.3860  220.3370 C   0  0  0  0  0  0  0  0  0  0  0  0
  141.6550   72.0400  220.6260 C   0  0  0  0  0  0  0  0  0  0  0  0
  141.0770   71.4880  221.7220 N   0  0  0  0  0  0  0  0  0  0  0  0
  140.4010   72.2530  222.5670 C   0  0  0  0  0  0  0  0  0  0  0  0
  139.7960   71.6810  223.7180 N   0  0  0  0  0  0  0  0  0  0  0  0
  138.4300   71.2110  223.7130 C   0  0  0  0  0  0  0  0  0  0  0  0
  138.4160   69.7180  223.8880 C   0  0  0  0  0  0  0  0  0  0  0  0
  139.4760   69.2750  224.8280 C   0  0  0  0  0  0  0  0  0  0  0  0
  139.4520   67.9330  225.2080 C   0  0  0  0  0  0  0  0  0  0  0  0
  140.3980   67.4130  226.0850 C   0  0  0  0  0  0  0  0  0  0  0  0
  141.3790   68.2720  226.5790 C   0  0  0  0  0  0  0  0  0  0  0  0
  141.4080   69.6150  226.2020 C   0  0  0  0  0  0  0  0  0  0  0  0
  140.4510   70.1080  225.3240 C   0  0  0  0  0  0  0  0  0  0  0  0
  140.5500   71.5490  224.9710 C   0  0  0  0  0  0  0  0  0  0  0  0
  140.2800   73.5680  222.3520 N   0  0  0  0  0  0  0  0  0  0  0  0
  140.8530   74.1490  221.2540 C   0  0  0  0  0  0  0  0  0  0  0  0
  140.6470   75.5410  221.1350 N   0  0  0  0  0  0  0  0  0  0  0  0
  140.3460   76.2480  219.9120 C   0  0  0  0  0  0  0  0  0  0  0  0
  141.2550   77.4130  219.6290 C   0  0  0  0  0  0  0  0  0  0  0  0
  141.4160   78.2460  220.8420 C   0  0  0  0  0  0  0  0  0  0  0  0
  141.8210   79.5510  220.6630 C   0  0  0  0  0  0  0  0  0  0  0  0
  141.9940   80.3910  221.7470 C   0  0  0  0  0  0  0  0  0  0  0  0
  141.7500   79.8820  223.0050 C   0  0  0  0  0  0  0  0  0  0  0  0
  141.3420   78.5620  223.1680 C   0  0  0  0  0  0  0  0  0  0  0  0
  141.1690   77.7260  222.0920 C   0  0  0  0  0  0  0  0  0  0  0  0
  140.7350   76.3430  222.3510 C   0  0  0  0  0  0  0  0  0  0  0  0
  145.0500   71.2020  220.6880 H   0  0  0  0  0  0  0  0  0  0  0  0
  146.7160   71.2490  220.5420 H   0  0  0  0  0  0  0  0  0  0  0  0
  143.7972   73.3003  220.9920 H   0  0  0  0  0  0  0  0  0  0  0  0
  144.7725   74.8683  221.0283 H   0  0  0  0  0  0  0  0  0  0  0  0
  143.3267   75.6841  219.7034 H   0  0  0  0  0  0  0  0  0  0  0  0
  144.0532   74.5071  218.4523 H   0  0  0  0  0  0  0  0  0  0  0  0
  141.5003   74.8023  218.7894 H   0  0  0  0  0  0  0  0  0  0  0  0
  142.3490   73.2187  218.4165 H   0  0  0  0  0  0  0  0  0  0  0  0
  142.2113   71.3860  219.9384 H   0  0  0  0  0  0  0  0  0  0  0  0
  137.8764   71.6826  224.5383 H   0  0  0  0  0  0  0  0  0  0  0  0
  137.9541   71.4737  222.7567 H   0  0  0  0  0  0  0  0  0  0  0  0
  137.4360   69.4128  224.2835 H   0  0  0  0  0  0  0  0  0  0  0  0
  138.6031   69.2520  222.9093 H   0  0  0  0  0  0  0  0  0  0  0  0
  138.6693   67.2729  224.8060 H   0  0  0  0  0  0  0  0  0  0  0  0
  140.3730   66.3538  226.3806 H   0  0  0  0  0  0  0  0  0  0  0  0
  142.1391   67.8862  227.2742 H   0  0  0  0  0  0  0  0  0  0  0  0
  142.1872   70.2822  226.5992 H   0  0  0  0  0  0  0  0  0  0  0  0
  140.1035   72.1727  225.7595 H   0  0  0  0  0  0  0  0  0  0  0  0
  141.5937   71.8795  224.8643 H   0  0  0  0  0  0  0  0  0  0  0  0
  140.4256   75.5381  219.0755 H   0  0  0  0  0  0  0  0  0  0  0  0
  139.3330   76.6607  220.0286 H   0  0  0  0  0  0  0  0  0  0  0  0
  142.2395   77.0368  219.3139 H   0  0  0  0  0  0  0  0  0  0  0  0
  140.8124   78.0262  218.8302 H   0  0  0  0  0  0  0  0  0  0  0  0
  142.0086   79.9281  219.6468 H   0  0  0  0  0  0  0  0  0  0  0  0
  142.3165   81.4337  221.6102 H   0  0  0  0  0  0  0  0  0  0  0  0
  141.8791   80.5255  223.8878 H   0  0  0  0  0  0  0  0  0  0  0  0
  141.1536   78.1790  224.1818 H   0  0  0  0  0  0  0  0  0  0  0  0
  141.4571   75.8698  223.0326 H   0  0  0  0  0  0  0  0  0  0  0  0
  139.7280   76.3888  222.7912 H   0  0  0  0  0  0  0  0  0  0  0  0
  1  2  1  0
  2  3  2  0
  2  4  2  0
  2  5  1  0
  5  6  1  0
  6  7  1  0
  7  8  1  0
  8  9  2  0
  9 10  1  0
 10 11  2  0
 11 12  1  0
 12 13  1  0
 13 14  1  0
 14 15  1  0
 15 16  2  0
 16 17  1  0
 17 18  2  0
 18 19  1  0
 19 20  2  0
 20 21  1  0
 11 22  1  0
 22 23  2  0
 23 24  1  0
 24 25  1  0
 25 26  1  0
 26 27  1  0
 27 28  2  0
 28 29  1  0
 29 30  2  0
 30 31  1  0
 31 32  2  0
 32 33  1  0
 23  8  1  0
 33 24  1  0
 21 12  1  0
 32 27  1  0
 20 15  1  0
  1 34  1  0
  1 35  1  0
  5 36  1  0
  5 37  1  0
  6 38  1  0
  6 39  1  0
  7 40  1  0
  7 41  1  0
  9 42  1  0
 13 43  1  0
 13 44  1  0
 14 45  1  0
 14 46  1  0
 16 47  1  0
 17 48  1  0
 18 49  1  0
 19 50  1  0
 21 51  1  0
 21 52  1  0
 25 53  1  0
 25 54  1  0
 26 55  1  0
 26 56  1  0
 28 57  1  0
 29 58  1  0
 30 59  1  0
 31 60  1  0
 33 61  1  0
 33 62  1  0
M  END
>  <smiles>  (20) 
NS(=O)(=O)CCCc1cnc(N2CCc3ccccc3C2)nc1N1CCc2ccccc2C1

>  <score_type>  (20) 
oracle

>  <origin>  (20) 
autodockgpu

>  <m_score__min__energy>  (20) 
-10.720000000000001

>  <m_primary>  (20) 
energy

>  <rmsd>  (20) 
4.31943675051655

>  <m_score__min__rmsd>  (20) 
4.31943675051655

>  <meeko>  (20) 
{"free_energy": -10.33, "intermolecular_energy": -12.42, "internal_energy": -1.32, "cluster_size": 30, "cluster_id": 1, "rank_in_cluster": 9}

>  <energy>  (20) 
-9.16

>  <cluster_rmsd>  (20) 
1.7

>  <cluster>  (20) 
1

$$$$

     RDKit          3D

 62 66  0  0  0  0  0  0  0  0999 V2000
  146.4230   73.4210  219.0890 N   0  0  0  0  0  0  0  0  0  0  0  0
  145.3760   73.1660  220.4170 S   0  0  0  0  0  0  0  0  0  0  0  0
  146.1600   73.1390  221.7070 O   0  0  0  0  0  0  0  0  0  0  0  0
  144.7500   71.7780  220.2870 O   0  0  0  0  0  0  0  0  0  0  0  0
  144.0910   74.3420  220.5870 C   0  0  0  0  0  0  0  0  0  0  0  0
  143.3450   74.6780  219.3430 C   0  0  0  0  0  0  0  0  0  0  0  0
  142.0440   74.0070  219.1020 C   0  0  0  0  0  0  0  0  0  0  0  0
  141.4510   73.3720  220.2960 C   0  0  0  0  0  0  0  0  0  0  0  0
  141.5160   72.0220  220.5710 C   0  0  0  0  0  0  0  0  0  0  0  0
  140.9540   71.4680  221.6750 N   0  0  0  0  0  0  0  0  0  0  0  0
  140.3110   72.2360  222.5430 C   0  0  0  0  0  0  0  0  0  0  0  0
  139.7220   71.6640  223.7020 N   0  0  0  0  0  0  0  0  0  0  0  0
  138.3580   71.1910  223.7160 C   0  0  0  0  0  0  0  0  0  0  0  0
  138.3510   69.6980  223.8920 C   0  0  0  0  0  0  0  0  0  0  0  0
  139.4250   69.2580  224.8180 C   0  0  0  0  0  0  0  0  0  0  0  0
  139.4090   67.9160  225.1990 C   0  0  0  0  0  0  0  0  0  0  0  0
  140.3690   67.3990  226.0640 C   0  0  0  0  0  0  0  0  0  0  0  0
  141.3540   68.2610  226.5430 C   0  0  0  0  0  0  0  0  0  0  0  0
  141.3740   69.6040  226.1650 C   0  0  0  0  0  0  0  0  0  0  0  0
  140.4040   70.0940  225.3000 C   0  0  0  0  0  0  0  0  0  0  0  0
  140.4940   71.5340  224.9450 C   0  0  0  0  0  0  0  0  0  0  0  0
  140.2060   73.5550  222.3420 N   0  0  0  0  0  0  0  0  0  0  0  0
  140.7630   74.1380  221.2370 C   0  0  0  0  0  0  0  0  0  0  0  0
  140.5780   75.5340  221.1350 N   0  0  0  0  0  0  0  0  0  0  0  0
  140.2380   76.2540  219.9300 C   0  0  0  0  0  0  0  0  0  0  0  0
  141.1550   77.4040  219.6160 C   0  0  0  0  0  0  0  0  0  0  0  0
  141.3820   78.2260  220.8260 C   0  0  0  0  0  0  0  0  0  0  0  0
  141.8030   79.5250  220.6380 C   0  0  0  0  0  0  0  0  0  0  0  0
  142.0370   80.3550  221.7190 C   0  0  0  0  0  0  0  0  0  0  0  0
  141.8370   79.8420  222.9830 C   0  0  0  0  0  0  0  0  0  0  0  0
  141.4130   78.5280  223.1550 C   0  0  0  0  0  0  0  0  0  0  0  0
  141.1790   77.7020  222.0820 C   0  0  0  0  0  0  0  0  0  0  0  0
  140.7310   76.3250  222.3510 C   0  0  0  0  0  0  0  0  0  0  0  0
  147.1570   74.1340  219.3040 H   0  0  0  0  0  0  0  0  0  0  0  0
  145.8750   73.7790  218.2880 H   0  0  0  0  0  0  0  0  0  0  0  0
  143.3684   73.9478  221.3167 H   0  0  0  0  0  0  0  0  0  0  0  0
  144.5825   75.2752  220.8993 H   0  0  0  0  0  0  0  0  0  0  0  0
  143.1550   75.7613  219.3594 H   0  0  0  0  0  0  0  0  0  0  0  0
  143.9926   74.3158  218.5310 H   0  0  0  0  0  0  0  0  0  0  0  0
  141.3348   74.7584  218.7247 H   0  0  0  0  0  0  0  0  0  0  0  0
  142.2382   73.1984  218.3820 H   0  0  0  0  0  0  0  0  0  0  0  0
  142.0463   71.3661  219.8649 H   0  0  0  0  0  0  0  0  0  0  0  0
  137.8146   71.6616  224.5486 H   0  0  0  0  0  0  0  0  0  0  0  0
  137.8679   71.4521  222.7665 H   0  0  0  0  0  0  0  0  0  0  0  0
  137.3773   69.3901  224.3008 H   0  0  0  0  0  0  0  0  0  0  0  0
  138.5266   69.2323  222.9110 H   0  0  0  0  0  0  0  0  0  0  0  0
  138.6224   67.2537  224.8082 H   0  0  0  0  0  0  0  0  0  0  0  0
  140.3509   66.3401  226.3612 H   0  0  0  0  0  0  0  0  0  0  0  0
  142.1251   67.8778  227.2275 H   0  0  0  0  0  0  0  0  0  0  0  0
  142.1566   70.2735  226.5514 H   0  0  0  0  0  0  0  0  0  0  0  0
  140.0569   72.1568  225.7394 H   0  0  0  0  0  0  0  0  0  0  0  0
  141.5353   71.8669  224.8233 H   0  0  0  0  0  0  0  0  0  0  0  0
  140.2693   75.5484  219.0867 H   0  0  0  0  0  0  0  0  0  0  0  0
  139.2383   76.6836  220.0914 H   0  0  0  0  0  0  0  0  0  0  0  0
  142.1184   77.0124  219.2575 H   0  0  0  0  0  0  0  0  0  0  0  0
  140.6903   78.0303  218.8402 H   0  0  0  0  0  0  0  0  0  0  0  0
  141.9544   79.9055  219.6171 H   0  0  0  0  0  0  0  0  0  0  0  0
  142.3724   81.3927  221.5748 H   0  0  0  0  0  0  0  0  0  0  0  0
  142.0142   80.4772  223.8634 H   0  0  0  0  0  0  0  0  0  0  0  0
  141.2616   78.1414  224.1736 H   0  0  0  0  0  0  0  0  0  0  0  0
  141.4722   75.8342  222.9989 H   0  0  0  0  0  0  0  0  0  0  0  0
  139.7445   76.3854  222.8338 H   0  0  0  0  0  0  0  0  0  0  0  0
  1  2  1  0
  2  3  2  0
  2  4  2  0
  2  5  1  0
  5  6  1  0
  6  7  1  0
  7  8  1  0
  8  9  2  0
  9 10  1  0
 10 11  2  0
 11 12  1  0
 12 13  1  0
 13 14  1  0
 14 15  1  0
 15 16  2  0
 16 17  1  0
 17 18  2  0
 18 19  1  0
 19 20  2  0
 20 21  1  0
 11 22  1  0
 22 23  2  0
 23 24  1  0
 24 25  1  0
 25 26  1  0
 26 27  1  0
 27 28  2  0
 28 29  1  0
 29 30  2  0
 30 31  1  0
 31 32  2  0
 32 33  1  0
 23  8  1  0
 33 24  1  0
 21 12  1  0
 32 27  1  0
 20 15  1  0
  1 34  1  0
  1 35  1  0
  5 36  1  0
  5 37  1  0
  6 38  1  0
  6 39  1  0
  7 40  1  0
  7 41  1  0
  9 42  1  0
 13 43  1  0
 13 44  1  0
 14 45  1  0
 14 46  1  0
 16 47  1  0
 17 48  1  0
 18 49  1  0
 19 50  1  0
 21 51  1  0
 21 52  1  0
 25 53  1  0
 25 54  1  0
 26 55  1  0
 26 56  1  0
 28 57  1  0
 29 58  1  0
 30 59  1  0
 31 60  1  0
 33 61  1  0
 33 62  1  0
M  END
>  <smiles>  (21) 
NS(=O)(=O)CCCc1cnc(N2CCc3ccccc3C2)nc1N1CCc2ccccc2C1

>  <score_type>  (21) 
oracle

>  <origin>  (21) 
autodockgpu

>  <m_score__min__energy>  (21) 
-10.720000000000001

>  <m_primary>  (21) 
energy

>  <rmsd>  (21) 
4.259483322957676

>  <m_score__min__rmsd>  (21) 
4.259483322957676

>  <meeko>  (21) 
{"free_energy": -10.68, "intermolecular_energy": -12.76, "internal_energy": -1.51, "cluster_size": 30, "cluster_id": 1, "rank_in_cluster": 3}

>  <energy>  (21) 
-9.15

>  <cluster_rmsd>  (21) 
1.51

>  <cluster>  (21) 
1

$$$$

     RDKit          3D

 62 66  0  0  0  0  0  0  0  0999 V2000
  146.8530   73.9990  220.5600 N   0  0  0  0  0  0  0  0  0  0  0  0
  145.8310   72.9890  219.6310 S   0  0  0  0  0  0  0  0  0  0  0  0
  146.2860   71.5530  219.7240 O   0  0  0  0  0  0  0  0  0  0  0  0
  145.9720   73.3720  218.1590 O   0  0  0  0  0  0  0  0  0  0  0  0
  144.1350   73.0510  220.0620 C   0  0  0  0  0  0  0  0  0  0  0  0
  143.2460   73.7760  219.1130 C   0  0  0  0  0  0  0  0  0  0  0  0
  141.8340   73.3370  219.0000 C   0  0  0  0  0  0  0  0  0  0  0  0
  141.2310   72.8780  220.2680 C   0  0  0  0  0  0  0  0  0  0  0  0
  140.6630   73.7150  221.2060 C   0  0  0  0  0  0  0  0  0  0  0  0
  140.1230   73.2610  222.3640 N   0  0  0  0  0  0  0  0  0  0  0  0
  140.1270   71.9620  222.6290 C   0  0  0  0  0  0  0  0  0  0  0  0
  139.5610   71.4790  223.8390 N   0  0  0  0  0  0  0  0  0  0  0  0
  138.1930   71.0210  223.9180 C   0  0  0  0  0  0  0  0  0  0  0  0
  138.1790   69.5440  224.1990 C   0  0  0  0  0  0  0  0  0  0  0  0
  139.2700   69.1610  225.1300 C   0  0  0  0  0  0  0  0  0  0  0  0
  139.2530   67.8510  225.6060 C   0  0  0  0  0  0  0  0  0  0  0  0
  140.2280   67.3870  226.4840 C   0  0  0  0  0  0  0  0  0  0  0  0
  141.2300   68.2720  226.8780 C   0  0  0  0  0  0  0  0  0  0  0  0
  141.2520   69.5840  226.4050 C   0  0  0  0  0  0  0  0  0  0  0  0
  140.2660   70.0200  225.5290 C   0  0  0  0  0  0  0  0  0  0  0  0
  140.3600   71.4310  225.0700 C   0  0  0  0  0  0  0  0  0  0  0  0
  140.6610   71.0900  221.7660 N   0  0  0  0  0  0  0  0  0  0  0  0
  141.2130   71.5220  220.5920 C   0  0  0  0  0  0  0  0  0  0  0  0
  141.7510   70.5070  219.7700 N   0  0  0  0  0  0  0  0  0  0  0  0
  141.0010   69.6700  218.8640 C   0  0  0  0  0  0  0  0  0  0  0  0
  141.2290   68.1940  219.0490 C   0  0  0  0  0  0  0  0  0  0  0  0
  142.6780   67.9090  219.1540 C   0  0  0  0  0  0  0  0  0  0  0  0
  143.0910   66.6230  218.8760 C   0  0  0  0  0  0  0  0  0  0  0  0
  144.4270   66.2790  218.9530 C   0  0  0  0  0  0  0  0  0  0  0  0
  145.3280   67.2580  219.3160 C   0  0  0  0  0  0  0  0  0  0  0  0
  144.8940   68.5500  219.5940 C   0  0  0  0  0  0  0  0  0  0  0  0
  143.5660   68.8950  219.5170 C   0  0  0  0  0  0  0  0  0  0  0  0
  143.1920   70.2850  219.8280 C   0  0  0  0  0  0  0  0  0  0  0  0
  146.4110   74.2700  221.4680 H   0  0  0  0  0  0  0  0  0  0  0  0
  147.0340   74.8730  220.0370 H   0  0  0  0  0  0  0  0  0  0  0  0
  143.7700   72.0164  220.1413 H   0  0  0  0  0  0  0  0  0  0  0  0
  144.0890   73.6183  221.0033 H   0  0  0  0  0  0  0  0  0  0  0  0
  143.2354   74.8326  219.4187 H   0  0  0  0  0  0  0  0  0  0  0  0
  143.6764   73.5664  218.1226 H   0  0  0  0  0  0  0  0  0  0  0  0
  141.2403   74.1832  218.6239 H   0  0  0  0  0  0  0  0  0  0  0  0
  141.8292   72.4719  218.3205 H   0  0  0  0  0  0  0  0  0  0  0  0
  140.6475   74.7966  221.0061 H   0  0  0  0  0  0  0  0  0  0  0  0
  137.6732   71.5541  224.7277 H   0  0  0  0  0  0  0  0  0  0  0  0
  137.6822   71.2195  222.9642 H   0  0  0  0  0  0  0  0  0  0  0  0
  137.2124   69.2742  224.6496 H   0  0  0  0  0  0  0  0  0  0  0  0
  138.3292   69.0089  223.2498 H   0  0  0  0  0  0  0  0  0  0  0  0
  138.4526   67.1700  225.2810 H   0  0  0  0  0  0  0  0  0  0  0  0
  140.2084   66.3520  226.8561 H   0  0  0  0  0  0  0  0  0  0  0  0
  142.0135   67.9314  227.5709 H   0  0  0  0  0  0  0  0  0  0  0  0
  142.0484   70.2720  226.7250 H   0  0  0  0  0  0  0  0  0  0  0  0
  139.9464   72.1132  225.8273 H   0  0  0  0  0  0  0  0  0  0  0  0
  141.4009   71.7445  224.9019 H   0  0  0  0  0  0  0  0  0  0  0  0
  139.9305   69.8742  219.0132 H   0  0  0  0  0  0  0  0  0  0  0  0
  141.3470   69.9165  217.8493 H   0  0  0  0  0  0  0  0  0  0  0  0
  140.7258   67.8612  219.9688 H   0  0  0  0  0  0  0  0  0  0  0  0
  140.8197   67.6563  218.1810 H   0  0  0  0  0  0  0  0  0  0  0  0
  142.3490   65.8630  218.5899 H   0  0  0  0  0  0  0  0  0  0  0  0
  144.7619   65.2549  218.7314 H   0  0  0  0  0  0  0  0  0  0  0  0
  146.3986   67.0152  219.3862 H   0  0  0  0  0  0  0  0  0  0  0  0
  145.6313   69.3137  219.8823 H   0  0  0  0  0  0  0  0  0  0  0  0
  143.5446   70.5259  220.8417 H   0  0  0  0  0  0  0  0  0  0  0  0
  143.6585   70.9320  219.0705 H   0  0  0  0  0  0  0  0  0  0  0  0
  1  2  1  0
  2  3  2  0
  2  4  2  0
  2  5  1  0
  5  6  1  0
  6  7  1  0
  7  8  1  0
  8  9  2  0
  9 10  1  0
 10 11  2  0
 11 12  1  0
 12 13  1  0
 13 14  1  0
 14 15  1  0
 15 16  2  0
 16 17  1  0
 17 18  2  0
 18 19  1  0
 19 20  2  0
 20 21  1  0
 11 22  1  0
 22 23  2  0
 23 24  1  0
 24 25  1  0
 25 26  1  0
 26 27  1  0
 27 28  2  0
 28 29  1  0
 29 30  2  0
 30 31  1  0
 31 32  2  0
 32 33  1  0
 23  8  1  0
 33 24  1  0
 21 12  1  0
 32 27  1  0
 20 15  1  0
  1 34  1  0
  1 35  1  0
  5 36  1  0
  5 37  1  0
  6 38  1  0
  6 39  1  0
  7 40  1  0
  7 41  1  0
  9 42  1  0
 13 43  1  0
 13 44  1  0
 14 45  1  0
 14 46  1  0
 16 47  1  0
 17 48  1  0
 18 49  1  0
 19 50  1  0
 21 51  1  0
 21 52  1  0
 25 53  1  0
 25 54  1  0
 26 55  1  0
 26 56  1  0
 28 57  1  0
 29 58  1  0
 30 59  1  0
 31 60  1  0
 33 61  1  0
 33 62  1  0
M  END
>  <smiles>  (22) 
NS(=O)(=O)CCCc1cnc(N2CCc3ccccc3C2)nc1N1CCc2ccccc2C1

>  <score_type>  (22) 
oracle

>  <origin>  (22) 
autodockgpu

>  <m_score__min__energy>  (22) 
-10.720000000000001

>  <m_primary>  (22) 
energy

>  <rmsd>  (22) 
10.846649688277783

>  <m_score__min__rmsd>  (22) 
10.846649688277783

>  <meeko>  (22) 
{"free_energy": -9.22, "intermolecular_energy": -11.31, "internal_energy": -1.49, "cluster_size": 2, "cluster_id": 2, "rank_in_cluster": 1}

>  <energy>  (22) 
-9.11

>  <cluster_rmsd>  (22) 
1.26

>  <cluster>  (22) 
1

$$$$

     RDKit          3D

 62 66  0  0  0  0  0  0  0  0999 V2000
  144.3500   74.4800  217.8640 N   0  0  0  0  0  0  0  0  0  0  0  0
  144.6120   73.2550  219.0280 S   0  0  0  0  0  0  0  0  0  0  0  0
  144.7830   73.8610  220.4000 O   0  0  0  0  0  0  0  0  0  0  0  0
  145.9370   72.5610  218.7170 O   0  0  0  0  0  0  0  0  0  0  0  0
  143.3560   72.0390  219.1240 C   0  0  0  0  0  0  0  0  0  0  0  0
  142.1440   72.2850  218.2950 C   0  0  0  0  0  0  0  0  0  0  0  0
  141.0280   73.0540  218.8960 C   0  0  0  0  0  0  0  0  0  0  0  0
  140.6050   72.5810  220.2300 C   0  0  0  0  0  0  0  0  0  0  0  0
  140.2690   71.2750  220.5200 C   0  0  0  0  0  0  0  0  0  0  0  0
  139.8780   70.8750  221.7560 N   0  0  0  0  0  0  0  0  0  0  0  0
  139.8080   71.7560  222.7430 C   0  0  0  0  0  0  0  0  0  0  0  0
  139.4020   71.3430  224.0410 N   0  0  0  0  0  0  0  0  0  0  0  0
  138.0540   70.9040  224.3190 C   0  0  0  0  0  0  0  0  0  0  0  0
  138.0700   69.4450  224.6780 C   0  0  0  0  0  0  0  0  0  0  0  0
  139.2710   69.0990  225.4790 C   0  0  0  0  0  0  0  0  0  0  0  0
  139.3100   67.8150  226.0220 C   0  0  0  0  0  0  0  0  0  0  0  0
  140.3890   67.3870  226.7900 C   0  0  0  0  0  0  0  0  0  0  0  0
  141.4380   68.2800  227.0040 C   0  0  0  0  0  0  0  0  0  0  0  0
  141.4040   69.5660  226.4630 C   0  0  0  0  0  0  0  0  0  0  0  0
  140.3140   69.9660  225.7000 C   0  0  0  0  0  0  0  0  0  0  0  0
  140.3530   71.3500  225.1590 C   0  0  0  0  0  0  0  0  0  0  0  0
  140.1180   73.0410  222.5360 N   0  0  0  0  0  0  0  0  0  0  0  0
  140.5140   73.4710  221.2990 C   0  0  0  0  0  0  0  0  0  0  0  0
  140.8070   74.8490  221.2060 N   0  0  0  0  0  0  0  0  0  0  0  0
  140.0190   75.9190  221.7730 C   0  0  0  0  0  0  0  0  0  0  0  0
  139.6430   76.9980  220.7940 C   0  0  0  0  0  0  0  0  0  0  0  0
  140.8240   77.4060  220.0020 C   0  0  0  0  0  0  0  0  0  0  0  0
  140.7860   78.6470  219.4030 C   0  0  0  0  0  0  0  0  0  0  0  0
  141.8510   79.1000  218.6460 C   0  0  0  0  0  0  0  0  0  0  0  0
  142.9450   78.2720  218.5100 C   0  0  0  0  0  0  0  0  0  0  0  0
  142.9670   77.0220  219.1200 C   0  0  0  0  0  0  0  0  0  0  0  0
  141.9110   76.5710  219.8740 C   0  0  0  0  0  0  0  0  0  0  0  0
  142.0150   75.2360  220.4850 C   0  0  0  0  0  0  0  0  0  0  0  0
  143.8770   74.1090  217.0080 H   0  0  0  0  0  0  0  0  0  0  0  0
  145.2620   74.8660  217.5650 H   0  0  0  0  0  0  0  0  0  0  0  0
  143.7914   71.0798  218.8071 H   0  0  0  0  0  0  0  0  0  0  0  0
  143.0090   72.0532  220.1677 H   0  0  0  0  0  0  0  0  0  0  0  0
  142.4687   72.8299  217.3963 H   0  0  0  0  0  0  0  0  0  0  0  0
  141.7233   71.2832  218.1236 H   0  0  0  0  0  0  0  0  0  0  0  0
  141.3447   74.1034  218.9883 H   0  0  0  0  0  0  0  0  0  0  0  0
  140.1632   72.9221  218.2292 H   0  0  0  0  0  0  0  0  0  0  0  0
  140.3202   70.5266  219.7155 H   0  0  0  0  0  0  0  0  0  0  0  0
  137.6446   71.4844  225.1589 H   0  0  0  0  0  0  0  0  0  0  0  0
  137.4260   71.0572  223.4289 H   0  0  0  0  0  0  0  0  0  0  0  0
  137.1690   69.2104  225.2638 H   0  0  0  0  0  0  0  0  0  0  0  0
  138.0932   68.8590  223.7473 H   0  0  0  0  0  0  0  0  0  0  0  0
  138.4714   67.1269  225.8397 H   0  0  0  0  0  0  0  0  0  0  0  0
  140.4134   66.3731  227.2159 H   0  0  0  0  0  0  0  0  0  0  0  0
  142.3033   67.9670  227.6068 H   0  0  0  0  0  0  0  0  0  0  0  0
  142.2380   70.2611  226.6402 H   0  0  0  0  0  0  0  0  0  0  0  0
  140.0435   72.0748  225.9264 H   0  0  0  0  0  0  0  0  0  0  0  0
  141.3646   71.6432  224.8415 H   0  0  0  0  0  0  0  0  0  0  0  0
  139.0935   75.4863  222.1808 H   0  0  0  0  0  0  0  0  0  0  0  0
  140.6437   76.3961  222.5425 H   0  0  0  0  0  0  0  0  0  0  0  0
  138.8649   76.6177  220.1158 H   0  0  0  0  0  0  0  0  0  0  0  0
  139.2656   77.8695  221.3491 H   0  0  0  0  0  0  0  0  0  0  0  0
  139.8983   79.2843  219.5286 H   0  0  0  0  0  0  0  0  0  0  0  0
  141.8261   80.0901  218.1673 H   0  0  0  0  0  0  0  0  0  0  0  0
  143.8082   78.6028  217.9138 H   0  0  0  0  0  0  0  0  0  0  0  0
  143.8511   76.3794  218.9956 H   0  0  0  0  0  0  0  0  0  0  0  0
  142.2011   74.4990  219.6899 H   0  0  0  0  0  0  0  0  0  0  0  0
  142.8393   75.2679  221.2126 H   0  0  0  0  0  0  0  0  0  0  0  0
  1  2  1  0
  2  3  2  0
  2  4  2  0
  2  5  1  0
  5  6  1  0
  6  7  1  0
  7  8  1  0
  8  9  2  0
  9 10  1  0
 10 11  2  0
 11 12  1  0
 12 13  1  0
 13 14  1  0
 14 15  1  0
 15 16  2  0
 16 17  1  0
 17 18  2  0
 18 19  1  0
 19 20  2  0
 20 21  1  0
 11 22  1  0
 22 23  2  0
 23 24  1  0
 24 25  1  0
 25 26  1  0
 26 27  1  0
 27 28  2  0
 28 29  1  0
 29 30  2  0
 30 31  1  0
 31 32  2  0
 32 33  1  0
 23  8  1  0
 33 24  1  0
 21 12  1  0
 32 27  1  0
 20 15  1  0
  1 34  1  0
  1 35  1  0
  5 36  1  0
  5 37  1  0
  6 38  1  0
  6 39  1  0
  7 40  1  0
  7 41  1  0
  9 42  1  0
 13 43  1  0
 13 44  1  0
 14 45  1  0
 14 46  1  0
 16 47  1  0
 17 48  1  0
 18 49  1  0
 19 50  1  0
 21 51  1  0
 21 52  1  0
 25 53  1  0
 25 54  1  0
 26 55  1  0
 26 56  1  0
 28 57  1  0
 29 58  1  0
 30 59  1  0
 31 60  1  0
 33 61  1  0
 33 62  1  0
M  END
>  <smiles>  (23) 
NS(=O)(=O)CCCc1cnc(N2CCc3ccccc3C2)nc1N1CCc2ccccc2C1

>  <score_type>  (23) 
oracle

>  <origin>  (23) 
autodockgpu

>  <m_score__min__energy>  (23) 
-10.720000000000001

>  <m_primary>  (23) 
energy

>  <rmsd>  (23) 
4.762281006422428

>  <m_score__min__rmsd>  (23) 
4.762281006422428

>  <meeko>  (23) 
{"free_energy": -8.26, "intermolecular_energy": -10.34, "internal_energy": -1.52, "cluster_size": 30, "cluster_id": 1, "rank_in_cluster": 30}

>  <energy>  (23) 
-9.03

>  <cluster_rmsd>  (23) 
1.52

>  <cluster>  (23) 
1

$$$$

     RDKit          3D

 62 66  0  0  0  0  0  0  0  0999 V2000
  143.7060   76.7310  219.5300 N   0  0  0  0  0  0  0  0  0  0  0  0
  142.5670   76.7740  218.2550 S   0  0  0  0  0  0  0  0  0  0  0  0
  143.0950   77.6010  217.1070 O   0  0  0  0  0  0  0  0  0  0  0  0
  141.3140   77.4990  218.7420 O   0  0  0  0  0  0  0  0  0  0  0  0
  142.0960   75.2100  217.6260 C   0  0  0  0  0  0  0  0  0  0  0  0
  142.0550   74.0950  218.6110 C   0  0  0  0  0  0  0  0  0  0  0  0
  142.3830   74.3970  220.0260 C   0  0  0  0  0  0  0  0  0  0  0  0
  141.6310   73.5970  221.0140 C   0  0  0  0  0  0  0  0  0  0  0  0
  141.8260   72.2490  221.2330 C   0  0  0  0  0  0  0  0  0  0  0  0
  141.1130   71.5420  222.1460 N   0  0  0  0  0  0  0  0  0  0  0  0
  140.1850   72.1490  222.8710 C   0  0  0  0  0  0  0  0  0  0  0  0
  139.4370   71.4150  223.8300 N   0  0  0  0  0  0  0  0  0  0  0  0
  138.2980   70.6080  223.4600 C   0  0  0  0  0  0  0  0  0  0  0  0
  138.6140   69.1590  223.7060 C   0  0  0  0  0  0  0  0  0  0  0  0
  139.4310   68.9850  224.9330 C   0  0  0  0  0  0  0  0  0  0  0  0
  139.6390   67.6750  225.3640 C   0  0  0  0  0  0  0  0  0  0  0  0
  140.3880   67.3990  226.5030 C   0  0  0  0  0  0  0  0  0  0  0  0
  140.9310   68.4710  227.2080 C   0  0  0  0  0  0  0  0  0  0  0  0
  140.7260   69.7840  226.7820 C   0  0  0  0  0  0  0  0  0  0  0  0
  139.9740   70.0310  225.6400 C   0  0  0  0  0  0  0  0  0  0  0  0
  139.8020   71.4550  225.2520 C   0  0  0  0  0  0  0  0  0  0  0  0
  139.9400   73.4550  222.7130 N   0  0  0  0  0  0  0  0  0  0  0  0
  140.6440   74.1910  221.8000 C   0  0  0  0  0  0  0  0  0  0  0  0
  140.2870   75.5550  221.7220 N   0  0  0  0  0  0  0  0  0  0  0  0
  141.2030   76.6580  221.5550 C   0  0  0  0  0  0  0  0  0  0  0  0
  141.0500   77.7520  222.5760 C   0  0  0  0  0  0  0  0  0  0  0  0
  139.6220   78.1080  222.7370 C   0  0  0  0  0  0  0  0  0  0  0  0
  139.3350   79.3490  223.2620 C   0  0  0  0  0  0  0  0  0  0  0  0
  138.0260   79.7540  223.4440 C   0  0  0  0  0  0  0  0  0  0  0  0
  137.0230   78.8790  223.0850 C   0  0  0  0  0  0  0  0  0  0  0  0
  137.3300   77.6290  222.5550 C   0  0  0  0  0  0  0  0  0  0  0  0
  138.6310   77.2260  222.3730 C   0  0  0  0  0  0  0  0  0  0  0  0
  138.8690   75.8870  221.8080 C   0  0  0  0  0  0  0  0  0  0  0  0
  143.2550   76.8900  220.4600 H   0  0  0  0  0  0  0  0  0  0  0  0
  144.3970   77.4890  219.3940 H   0  0  0  0  0  0  0  0  0  0  0  0
  141.0909   75.3113  217.1907 H   0  0  0  0  0  0  0  0  0  0  0  0
  142.8759   74.9356  216.9004 H   0  0  0  0  0  0  0  0  0  0  0  0
  141.0357   73.6817  218.5935 H   0  0  0  0  0  0  0  0  0  0  0  0
  142.8551   73.4140  218.2852 H   0  0  0  0  0  0  0  0  0  0  0  0
  143.4562   74.2092  220.1774 H   0  0  0  0  0  0  0  0  0  0  0  0
  142.1016   75.4469  220.1948 H   0  0  0  0  0  0  0  0  0  0  0  0
  142.5920   71.7249  220.6425 H   0  0  0  0  0  0  0  0  0  0  0  0
  137.4275   70.9020  224.0649 H   0  0  0  0  0  0  0  0  0  0  0  0
  138.0700   70.7594  222.3946 H   0  0  0  0  0  0  0  0  0  0  0  0
  137.6726   68.6016  223.8205 H   0  0  0  0  0  0  0  0  0  0  0  0
  139.1899   68.7793  222.8491 H   0  0  0  0  0  0  0  0  0  0  0  0
  139.2020   66.8435  224.7917 H   0  0  0  0  0  0  0  0  0  0  0  0
  140.5472   66.3634  226.8378 H   0  0  0  0  0  0  0  0  0  0  0  0
  141.5287   68.2801  228.1115 H   0  0  0  0  0  0  0  0  0  0  0  0
  141.1587   70.6214  227.3490 H   0  0  0  0  0  0  0  0  0  0  0  0
  139.0025   71.9241  225.8442 H   0  0  0  0  0  0  0  0  0  0  0  0
  140.7119   72.0468  225.4306 H   0  0  0  0  0  0  0  0  0  0  0  0
  142.2288   76.2665  221.6212 H   0  0  0  0  0  0  0  0  0  0  0  0
  140.9783   77.1077  220.5766 H   0  0  0  0  0  0  0  0  0  0  0  0
  141.4489   77.4062  223.5410 H   0  0  0  0  0  0  0  0  0  0  0  0
  141.6040   78.6393  222.2357 H   0  0  0  0  0  0  0  0  0  0  0  0
  140.1570   80.0253  223.5395 H   0  0  0  0  0  0  0  0  0  0  0  0
  137.7918   80.7440  223.8624 H   0  0  0  0  0  0  0  0  0  0  0  0
  135.9709   79.1711  223.2186 H   0  0  0  0  0  0  0  0  0  0  0  0
  136.5124   76.9483  222.2755 H   0  0  0  0  0  0  0  0  0  0  0  0
  138.3715   75.1423  222.4466 H   0  0  0  0  0  0  0  0  0  0  0  0
  138.4644   75.8818  220.7851 H   0  0  0  0  0  0  0  0  0  0  0  0
  1  2  1  0
  2  3  2  0
  2  4  2  0
  2  5  1  0
  5  6  1  0
  6  7  1  0
  7  8  1  0
  8  9  2  0
  9 10  1  0
 10 11  2  0
 11 12  1  0
 12 13  1  0
 13 14  1  0
 14 15  1  0
 15 16  2  0
 16 17  1  0
 17 18  2  0
 18 19  1  0
 19 20  2  0
 20 21  1  0
 11 22  1  0
 22 23  2  0
 23 24  1  0
 24 25  1  0
 25 26  1  0
 26 27  1  0
 27 28  2  0
 28 29  1  0
 29 30  2  0
 30 31  1  0
 31 32  2  0
 32 33  1  0
 23  8  1  0
 33 24  1  0
 21 12  1  0
 32 27  1  0
 20 15  1  0
  1 34  1  0
  1 35  1  0
  5 36  1  0
  5 37  1  0
  6 38  1  0
  6 39  1  0
  7 40  1  0
  7 41  1  0
  9 42  1  0
 13 43  1  0
 13 44  1  0
 14 45  1  0
 14 46  1  0
 16 47  1  0
 17 48  1  0
 18 49  1  0
 19 50  1  0
 21 51  1  0
 21 52  1  0
 25 53  1  0
 25 54  1  0
 26 55  1  0
 26 56  1  0
 28 57  1  0
 29 58  1  0
 30 59  1  0
 31 60  1  0
 33 61  1  0
 33 62  1  0
M  END
>  <smiles>  (24) 
NS(=O)(=O)CCCc1cnc(N2CCc3ccccc3C2)nc1N1CCc2ccccc2C1

>  <score_type>  (24) 
oracle

>  <origin>  (24) 
autodockgpu

>  <m_score__min__energy>  (24) 
-10.720000000000001

>  <m_primary>  (24) 
energy

>  <rmsd>  (24) 
4.289703154804674

>  <m_score__min__rmsd>  (24) 
4.289703154804674

>  <meeko>  (24) 
{"free_energy": -8.51, "intermolecular_energy": -10.6, "internal_energy": -1.2, "cluster_size": 3, "cluster_id": 3, "rank_in_cluster": 2}

>  <energy>  (24) 
-8.97

>  <cluster_rmsd>  (24) 
0.87

>  <cluster>  (24) 
1

$$$$

     RDKit          3D

 62 66  0  0  0  0  0  0  0  0999 V2000
  146.3250   73.4300  219.1210 N   0  0  0  0  0  0  0  0  0  0  0  0
  144.7220   73.2750  219.6990 S   0  0  0  0  0  0  0  0  0  0  0  0
  144.6280   72.1390  220.6890 O   0  0  0  0  0  0  0  0  0  0  0  0
  143.8180   72.8820  218.5330 O   0  0  0  0  0  0  0  0  0  0  0  0
  144.0630   74.7100  220.4550 C   0  0  0  0  0  0  0  0  0  0  0  0
  142.8000   75.2360  219.8690 C   0  0  0  0  0  0  0  0  0  0  0  0
  141.7270   74.2690  219.5330 C   0  0  0  0  0  0  0  0  0  0  0  0
  141.1660   73.5470  220.6930 C   0  0  0  0  0  0  0  0  0  0  0  0
  141.3330   72.1970  220.9220 C   0  0  0  0  0  0  0  0  0  0  0  0
  140.7990   71.5620  221.9960 N   0  0  0  0  0  0  0  0  0  0  0  0
  140.0830   72.2460  222.8770 C   0  0  0  0  0  0  0  0  0  0  0  0
  139.5230   71.5890  224.0050 N   0  0  0  0  0  0  0  0  0  0  0  0
  138.2120   70.9830  223.9670 C   0  0  0  0  0  0  0  0  0  0  0  0
  138.3470   69.4930  224.1070 C   0  0  0  0  0  0  0  0  0  0  0  0
  139.4340   69.1360  225.0530 C   0  0  0  0  0  0  0  0  0  0  0  0
  139.5400   67.7900  225.4020 C   0  0  0  0  0  0  0  0  0  0  0  0
  140.5220   67.3460  226.2820 C   0  0  0  0  0  0  0  0  0  0  0  0
  141.4040   68.2870  226.8100 C   0  0  0  0  0  0  0  0  0  0  0  0
  141.3020   69.6350  226.4650 C   0  0  0  0  0  0  0  0  0  0  0  0
  140.3120   70.0500  225.5840 C   0  0  0  0  0  0  0  0  0  0  0  0
  140.2700   71.5020  225.2660 C   0  0  0  0  0  0  0  0  0  0  0  0
  139.8780   73.5590  222.7200 N   0  0  0  0  0  0  0  0  0  0  0  0
  140.4050   74.2230  221.6460 C   0  0  0  0  0  0  0  0  0  0  0  0
  140.1130   75.6030  221.5890 N   0  0  0  0  0  0  0  0  0  0  0  0
  141.0790   76.6740  221.6540 C   0  0  0  0  0  0  0  0  0  0  0  0
  140.7800   77.7170  222.6950 C   0  0  0  0  0  0  0  0  0  0  0  0
  139.3580   78.1240  222.6200 C   0  0  0  0  0  0  0  0  0  0  0  0
  139.0220   79.3470  223.1610 C   0  0  0  0  0  0  0  0  0  0  0  0
  137.7150   79.7960  223.1300 C   0  0  0  0  0  0  0  0  0  0  0  0
  136.7650   78.9850  222.5450 C   0  0  0  0  0  0  0  0  0  0  0  0
  137.1230   77.7530  222.0050 C   0  0  0  0  0  0  0  0  0  0  0  0
  138.4210   77.3060  222.0340 C   0  0  0  0  0  0  0  0  0  0  0  0
  138.7140   75.9900  221.4400 C   0  0  0  0  0  0  0  0  0  0  0  0
  146.8830   74.1010  219.6970 H   0  0  0  0  0  0  0  0  0  0  0  0
  146.3030   73.8020  218.1560 H   0  0  0  0  0  0  0  0  0  0  0  0
  143.8710   74.4751  221.5123 H   0  0  0  0  0  0  0  0  0  0  0  0
  144.8134   75.4987  220.2976 H   0  0  0  0  0  0  0  0  0  0  0  0
  142.3794   75.9522  220.5902 H   0  0  0  0  0  0  0  0  0  0  0  0
  143.1037   75.6542  218.8980 H   0  0  0  0  0  0  0  0  0  0  0  0
  140.9101   74.8192  219.0432 H   0  0  0  0  0  0  0  0  0  0  0  0
  142.1845   73.5084  218.8833 H   0  0  0  0  0  0  0  0  0  0  0  0
  141.9241   71.6102  220.2035 H   0  0  0  0  0  0  0  0  0  0  0  0
  137.6020   71.3756  224.7939 H   0  0  0  0  0  0  0  0  0  0  0  0
  137.7253   71.2196  223.0093 H   0  0  0  0  0  0  0  0  0  0  0  0
  137.3978   69.0807  224.4799 H   0  0  0  0  0  0  0  0  0  0  0  0
  138.5933   69.0727  223.1208 H   0  0  0  0  0  0  0  0  0  0  0  0
  138.8330   67.0647  224.9729 H   0  0  0  0  0  0  0  0  0  0  0  0
  140.6000   66.2828  226.5532 H   0  0  0  0  0  0  0  0  0  0  0  0
  142.1904   67.9629  227.5075 H   0  0  0  0  0  0  0  0  0  0  0  0
  142.0042   70.3674  226.8899 H   0  0  0  0  0  0  0  0  0  0  0  0
  139.7528   72.0580  226.0618 H   0  0  0  0  0  0  0  0  0  0  0  0
  141.2765   71.9379  225.1830 H   0  0  0  0  0  0  0  0  0  0  0  0
  142.0632   76.2367  221.8778 H   0  0  0  0  0  0  0  0  0  0  0  0
  141.0483   77.1843  220.6800 H   0  0  0  0  0  0  0  0  0  0  0  0
  140.9871   77.3036  223.6931 H   0  0  0  0  0  0  0  0  0  0  0  0
  141.4145   78.5969  222.5130 H   0  0  0  0  0  0  0  0  0  0  0  0
  139.8016   79.9714  223.6217 H   0  0  0  0  0  0  0  0  0  0  0  0
  137.4407   80.7710  223.5591 H   0  0  0  0  0  0  0  0  0  0  0  0
  135.7162   79.3144  222.5049 H   0  0  0  0  0  0  0  0  0  0  0  0
  136.3480   77.1228  221.5443 H   0  0  0  0  0  0  0  0  0  0  0  0
  138.0854   75.2338  221.9329 H   0  0  0  0  0  0  0  0  0  0  0  0
  138.5011   76.0572  220.3629 H   0  0  0  0  0  0  0  0  0  0  0  0
  1  2  1  0
  2  3  2  0
  2  4  2  0
  2  5  1  0
  5  6  1  0
  6  7  1  0
  7  8  1  0
  8  9  2  0
  9 10  1  0
 10 11  2  0
 11 12  1  0
 12 13  1  0
 13 14  1  0
 14 15  1  0
 15 16  2  0
 16 17  1  0
 17 18  2  0
 18 19  1  0
 19 20  2  0
 20 21  1  0
 11 22  1  0
 22 23  2  0
 23 24  1  0
 24 25  1  0
 25 26  1  0
 26 27  1  0
 27 28  2  0
 28 29  1  0
 29 30  2  0
 30 31  1  0
 31 32  2  0
 32 33  1  0
 23  8  1  0
 33 24  1  0
 21 12  1  0
 32 27  1  0
 20 15  1  0
  1 34  1  0
  1 35  1  0
  5 36  1  0
  5 37  1  0
  6 38  1  0
  6 39  1  0
  7 40  1  0
  7 41  1  0
  9 42  1  0
 13 43  1  0
 13 44  1  0
 14 45  1  0
 14 46  1  0
 16 47  1  0
 17 48  1  0
 18 49  1  0
 19 50  1  0
 21 51  1  0
 21 52  1  0
 25 53  1  0
 25 54  1  0
 26 55  1  0
 26 56  1  0
 28 57  1  0
 29 58  1  0
 30 59  1  0
 31 60  1  0
 33 61  1  0
 33 62  1  0
M  END
>  <smiles>  (25) 
NS(=O)(=O)CCCc1cnc(N2CCc3ccccc3C2)nc1N1CCc2ccccc2C1

>  <score_type>  (25) 
oracle

>  <origin>  (25) 
autodockgpu

>  <m_score__min__energy>  (25) 
-10.720000000000001

>  <m_primary>  (25) 
energy

>  <rmsd>  (25) 
4.5565023207873105

>  <m_score__min__rmsd>  (25) 
4.5565023207873105

>  <meeko>  (25) 
{"free_energy": -9.34, "intermolecular_energy": -11.43, "internal_energy": -1.08, "cluster_size": 30, "cluster_id": 1, "rank_in_cluster": 19}

>  <energy>  (25) 
-8.94

>  <cluster_rmsd>  (25) 
1.57

>  <cluster>  (25) 
1

$$$$

     RDKit          3D

 62 66  0  0  0  0  0  0  0  0999 V2000
  146.1770   73.1680  221.0730 N   0  0  0  0  0  0  0  0  0  0  0  0
  144.5470   73.1260  220.5550 S   0  0  0  0  0  0  0  0  0  0  0  0
  143.7900   74.3120  221.1060 O   0  0  0  0  0  0  0  0  0  0  0  0
  143.8740   71.8940  221.1570 O   0  0  0  0  0  0  0  0  0  0  0  0
  144.3180   73.0940  218.8200 C   0  0  0  0  0  0  0  0  0  0  0  0
  142.9870   72.6280  218.3450 C   0  0  0  0  0  0  0  0  0  0  0  0
  141.7810   73.3440  218.8270 C   0  0  0  0  0  0  0  0  0  0  0  0
  141.2440   72.8470  220.1100 C   0  0  0  0  0  0  0  0  0  0  0  0
  141.1700   71.5150  220.4580 C   0  0  0  0  0  0  0  0  0  0  0  0
  140.6650   71.0910  221.6440 N   0  0  0  0  0  0  0  0  0  0  0  0
  140.2190   71.9760  222.5230 C   0  0  0  0  0  0  0  0  0  0  0  0
  139.6910   71.5400  223.7680 N   0  0  0  0  0  0  0  0  0  0  0  0
  138.3100   71.1450  223.9200 C   0  0  0  0  0  0  0  0  0  0  0  0
  138.2440   69.6760  224.2310 C   0  0  0  0  0  0  0  0  0  0  0  0
  139.3610   69.2590  225.1150 C   0  0  0  0  0  0  0  0  0  0  0  0
  139.3080   67.9590  225.6170 C   0  0  0  0  0  0  0  0  0  0  0  0
  140.3030   67.4670  226.4560 C   0  0  0  0  0  0  0  0  0  0  0  0
  141.3620   68.3120  226.7850 C   0  0  0  0  0  0  0  0  0  0  0  0
  141.4190   69.6140  226.2860 C   0  0  0  0  0  0  0  0  0  0  0  0
  140.4120   70.0790  225.4500 C   0  0  0  0  0  0  0  0  0  0  0  0
  140.5450   71.4770  224.9610 C   0  0  0  0  0  0  0  0  0  0  0  0
  140.2580   73.2870  222.2560 N   0  0  0  0  0  0  0  0  0  0  0  0
  140.7610   73.7400  221.0670 C   0  0  0  0  0  0  0  0  0  0  0  0
  140.7420   75.1420  220.9010 N   0  0  0  0  0  0  0  0  0  0  0  0
  141.2610   75.8640  219.7640 C   0  0  0  0  0  0  0  0  0  0  0  0
  142.2230   76.9660  220.1150 C   0  0  0  0  0  0  0  0  0  0  0  0
  141.6780   77.7900  221.2180 C   0  0  0  0  0  0  0  0  0  0  0  0
  142.1790   79.0650  221.3620 C   0  0  0  0  0  0  0  0  0  0  0  0
  141.7210   79.8950  222.3680 C   0  0  0  0  0  0  0  0  0  0  0  0
  140.7530   79.4060  223.2190 C   0  0  0  0  0  0  0  0  0  0  0  0
  140.2580   78.1150  223.0600 C   0  0  0  0  0  0  0  0  0  0  0  0
  140.7110   77.2900  222.0600 C   0  0  0  0  0  0  0  0  0  0  0  0
  140.1340   75.9380  221.9620 C   0  0  0  0  0  0  0  0  0  0  0  0
  146.8170   73.4970  220.3140 H   0  0  0  0  0  0  0  0  0  0  0  0
  146.4760   72.2120  221.3300 H   0  0  0  0  0  0  0  0  0  0  0  0
  144.4714   74.1154  218.4416 H   0  0  0  0  0  0  0  0  0  0  0  0
  145.0422   72.3587  218.4394 H   0  0  0  0  0  0  0  0  0  0  0  0
  142.9901   72.6966  217.2471 H   0  0  0  0  0  0  0  0  0  0  0  0
  142.8878   71.6152  218.7625 H   0  0  0  0  0  0  0  0  0  0  0  0
  142.0390   74.4061  218.9512 H   0  0  0  0  0  0  0  0  0  0  0  0
  140.9966   73.1763  218.0743 H   0  0  0  0  0  0  0  0  0  0  0  0
  141.5362   70.7633  219.7432 H   0  0  0  0  0  0  0  0  0  0  0  0
  137.8532   71.7154  224.7422 H   0  0  0  0  0  0  0  0  0  0  0  0
  137.7640   71.3487  222.9870 H   0  0  0  0  0  0  0  0  0  0  0  0
  137.2898   69.4590  224.7334 H   0  0  0  0  0  0  0  0  0  0  0  0
  138.3233   69.1182  223.2863 H   0  0  0  0  0  0  0  0  0  0  0  0
  138.4629   67.3098  225.3443 H   0  0  0  0  0  0  0  0  0  0  0  0
  140.2554   66.4405  226.8485 H   0  0  0  0  0  0  0  0  0  0  0  0
  142.1624   67.9480  227.4460 H   0  0  0  0  0  0  0  0  0  0  0  0
  142.2597   70.2707  226.5542 H   0  0  0  0  0  0  0  0  0  0  0  0
  140.1978   72.1891  225.7241 H   0  0  0  0  0  0  0  0  0  0  0  0
  141.5893   71.7415  224.7385 H   0  0  0  0  0  0  0  0  0  0  0  0
  141.7810   75.1485  219.1101 H   0  0  0  0  0  0  0  0  0  0  0  0
  140.3994   76.3427  219.2757 H   0  0  0  0  0  0  0  0  0  0  0  0
  143.1806   76.5256  220.4297 H   0  0  0  0  0  0  0  0  0  0  0  0
  142.3747   77.6042  219.2320 H   0  0  0  0  0  0  0  0  0  0  0  0
  142.9524   79.4268  220.6685 H   0  0  0  0  0  0  0  0  0  0  0  0
  142.1168   80.9145  222.4859 H   0  0  0  0  0  0  0  0  0  0  0  0
  140.3686   80.0414  224.0305 H   0  0  0  0  0  0  0  0  0  0  0  0
  139.4858   77.7469  223.7515 H   0  0  0  0  0  0  0  0  0  0  0  0
  140.2851   75.4205  222.9208 H   0  0  0  0  0  0  0  0  0  0  0  0
  139.0659   76.0490  221.7237 H   0  0  0  0  0  0  0  0  0  0  0  0
  1  2  1  0
  2  3  2  0
  2  4  2  0
  2  5  1  0
  5  6  1  0
  6  7  1  0
  7  8  1  0
  8  9  2  0
  9 10  1  0
 10 11  2  0
 11 12  1  0
 12 13  1  0
 13 14  1  0
 14 15  1  0
 15 16  2  0
 16 17  1  0
 17 18  2  0
 18 19  1  0
 19 20  2  0
 20 21  1  0
 11 22  1  0
 22 23  2  0
 23 24  1  0
 24 25  1  0
 25 26  1  0
 26 27  1  0
 27 28  2  0
 28 29  1  0
 29 30  2  0
 30 31  1  0
 31 32  2  0
 32 33  1  0
 23  8  1  0
 33 24  1  0
 21 12  1  0
 32 27  1  0
 20 15  1  0
  1 34  1  0
  1 35  1  0
  5 36  1  0
  5 37  1  0
  6 38  1  0
  6 39  1  0
  7 40  1  0
  7 41  1  0
  9 42  1  0
 13 43  1  0
 13 44  1  0
 14 45  1  0
 14 46  1  0
 16 47  1  0
 17 48  1  0
 18 49  1  0
 19 50  1  0
 21 51  1  0
 21 52  1  0
 25 53  1  0
 25 54  1  0
 26 55  1  0
 26 56  1  0
 28 57  1  0
 29 58  1  0
 30 59  1  0
 31 60  1  0
 33 61  1  0
 33 62  1  0
M  END
>  <smiles>  (26) 
NS(=O)(=O)CCCc1cnc(N2CCc3ccccc3C2)nc1N1CCc2ccccc2C1

>  <score_type>  (26) 
oracle

>  <origin>  (26) 
autodockgpu

>  <m_score__min__energy>  (26) 
-10.720000000000001

>  <m_primary>  (26) 
energy

>  <rmsd>  (26) 
4.624378621322053

>  <m_score__min__rmsd>  (26) 
4.624378621322053

>  <meeko>  (26) 
{"free_energy": -8.73, "intermolecular_energy": -10.82, "internal_energy": -1.29, "cluster_size": 30, "cluster_id": 1, "rank_in_cluster": 28}

>  <energy>  (26) 
-8.81

>  <cluster_rmsd>  (26) 
1.14

>  <cluster>  (26) 
1

$$$$

     RDKit          3D

 62 66  0  0  0  0  0  0  0  0999 V2000
  144.5260   75.4680  216.5660 N   0  0  0  0  0  0  0  0  0  0  0  0
  144.1020   73.8110  216.6120 S   0  0  0  0  0  0  0  0  0  0  0  0
  144.9380   73.0830  217.6380 O   0  0  0  0  0  0  0  0  0  0  0  0
  144.4570   73.1790  215.2680 O   0  0  0  0  0  0  0  0  0  0  0  0
  142.4170   73.4840  216.9520 C   0  0  0  0  0  0  0  0  0  0  0  0
  141.8330   74.2060  218.1160 C   0  0  0  0  0  0  0  0  0  0  0  0
  142.5630   74.1610  219.4070 C   0  0  0  0  0  0  0  0  0  0  0  0
  141.8330   73.4900  220.5010 C   0  0  0  0  0  0  0  0  0  0  0  0
  141.9230   72.1430  220.7840 C   0  0  0  0  0  0  0  0  0  0  0  0
  141.2330   71.5560  221.7950 N   0  0  0  0  0  0  0  0  0  0  0  0
  140.4320   72.2860  222.5570 C   0  0  0  0  0  0  0  0  0  0  0  0
  139.7090   71.6790  223.6180 N   0  0  0  0  0  0  0  0  0  0  0  0
  138.3950   71.1100  223.4240 C   0  0  0  0  0  0  0  0  0  0  0  0
  138.4650   69.6210  223.6200 C   0  0  0  0  0  0  0  0  0  0  0  0
  139.4060   69.2630  224.7100 C   0  0  0  0  0  0  0  0  0  0  0  0
  139.4230   67.9250  225.1060 C   0  0  0  0  0  0  0  0  0  0  0  0
  140.2670   67.4820  226.1190 C   0  0  0  0  0  0  0  0  0  0  0  0
  141.1020   68.4140  226.7340 C   0  0  0  0  0  0  0  0  0  0  0  0
  141.0880   69.7530  226.3430 C   0  0  0  0  0  0  0  0  0  0  0  0
  140.2360   70.1680  225.3270 C   0  0  0  0  0  0  0  0  0  0  0  0
  140.2810   71.6100  224.9680 C   0  0  0  0  0  0  0  0  0  0  0  0
  140.2940   73.6000  222.3420 N   0  0  0  0  0  0  0  0  0  0  0  0
  140.9770   74.2150  221.3290 C   0  0  0  0  0  0  0  0  0  0  0  0
  140.7410   75.6020  221.2000 N   0  0  0  0  0  0  0  0  0  0  0  0
  140.4180   76.2910  219.9730 C   0  0  0  0  0  0  0  0  0  0  0  0
  141.3000   77.4730  219.6750 C   0  0  0  0  0  0  0  0  0  0  0  0
  141.4480   78.3200  220.8810 C   0  0  0  0  0  0  0  0  0  0  0  0
  141.8240   79.6320  220.6890 C   0  0  0  0  0  0  0  0  0  0  0  0
  141.9840   80.4850  221.7650 C   0  0  0  0  0  0  0  0  0  0  0  0
  141.7570   79.9810  223.0290 C   0  0  0  0  0  0  0  0  0  0  0  0
  141.3790   78.6530  223.2040 C   0  0  0  0  0  0  0  0  0  0  0  0
  141.2190   77.8050  222.1360 C   0  0  0  0  0  0  0  0  0  0  0  0
  140.8170   76.4150  222.4090 C   0  0  0  0  0  0  0  0  0  0  0  0
  145.1920   75.7200  217.3320 H   0  0  0  0  0  0  0  0  0  0  0  0
  143.6750   76.0400  216.7020 H   0  0  0  0  0  0  0  0  0  0  0  0
  141.8346   73.7575  216.0598 H   0  0  0  0  0  0  0  0  0  0  0  0
  142.3691   72.4161  217.2115 H   0  0  0  0  0  0  0  0  0  0  0  0
  141.7404   75.2642  217.8304 H   0  0  0  0  0  0  0  0  0  0  0  0
  140.8890   73.6787  218.3181 H   0  0  0  0  0  0  0  0  0  0  0  0
  143.5105   73.6255  219.2473 H   0  0  0  0  0  0  0  0  0  0  0  0
  142.7064   75.2053  219.7215 H   0  0  0  0  0  0  0  0  0  0  0  0
  142.5821   71.5177  220.1639 H   0  0  0  0  0  0  0  0  0  0  0  0
  137.6951   71.5442  224.1532 H   0  0  0  0  0  0  0  0  0  0  0  0
  138.0439   71.3317  222.4054 H   0  0  0  0  0  0  0  0  0  0  0  0
  137.4628   69.2458  223.8746 H   0  0  0  0  0  0  0  0  0  0  0  0
  138.8264   69.1651  222.6864 H   0  0  0  0  0  0  0  0  0  0  0  0
  138.7559   67.2065  224.6073 H   0  0  0  0  0  0  0  0  0  0  0  0
  140.2755   66.4258  226.4264 H   0  0  0  0  0  0  0  0  0  0  0  0
  141.7800   68.0895  227.5372 H   0  0  0  0  0  0  0  0  0  0  0  0
  141.7501   70.4787  226.8380 H   0  0  0  0  0  0  0  0  0  0  0  0
  139.6814   72.2038  225.6736 H   0  0  0  0  0  0  0  0  0  0  0  0
  141.3027   72.0156  225.0070 H   0  0  0  0  0  0  0  0  0  0  0  0
  140.5086   75.5757  219.1423 H   0  0  0  0  0  0  0  0  0  0  0  0
  139.3968   76.6824  220.0914 H   0  0  0  0  0  0  0  0  0  0  0  0
  142.2911   77.1158  219.3584 H   0  0  0  0  0  0  0  0  0  0  0  0
  140.8408   78.0693  218.8727 H   0  0  0  0  0  0  0  0  0  0  0  0
  141.9986   80.0043  219.6688 H   0  0  0  0  0  0  0  0  0  0  0  0
  142.2831   81.5333  221.6179 H   0  0  0  0  0  0  0  0  0  0  0  0
  141.8758   80.6343  223.9060 H   0  0  0  0  0  0  0  0  0  0  0  0
  141.2043   78.2739  224.2217 H   0  0  0  0  0  0  0  0  0  0  0  0
  141.5528   75.9635  223.0907 H   0  0  0  0  0  0  0  0  0  0  0  0
  139.8116   76.4418  222.8545 H   0  0  0  0  0  0  0  0  0  0  0  0
  1  2  1  0
  2  3  2  0
  2  4  2  0
  2  5  1  0
  5  6  1  0
  6  7  1  0
  7  8  1  0
  8  9  2  0
  9 10  1  0
 10 11  2  0
 11 12  1  0
 12 13  1  0
 13 14  1  0
 14 15  1  0
 15 16  2  0
 16 17  1  0
 17 18  2  0
 18 19  1  0
 19 20  2  0
 20 21  1  0
 11 22  1  0
 22 23  2  0
 23 24  1  0
 24 25  1  0
 25 26  1  0
 26 27  1  0
 27 28  2  0
 28 29  1  0
 29 30  2  0
 30 31  1  0
 31 32  2  0
 32 33  1  0
 23  8  1  0
 33 24  1  0
 21 12  1  0
 32 27  1  0
 20 15  1  0
  1 34  1  0
  1 35  1  0
  5 36  1  0
  5 37  1  0
  6 38  1  0
  6 39  1  0
  7 40  1  0
  7 41  1  0
  9 42  1  0
 13 43  1  0
 13 44  1  0
 14 45  1  0
 14 46  1  0
 16 47  1  0
 17 48  1  0
 18 49  1  0
 19 50  1  0
 21 51  1  0
 21 52  1  0
 25 53  1  0
 25 54  1  0
 26 55  1  0
 26 56  1  0
 28 57  1  0
 29 58  1  0
 30 59  1  0
 31 60  1  0
 33 61  1  0
 33 62  1  0
M  END
>  <smiles>  (27) 
NS(=O)(=O)CCCc1cnc(N2CCc3ccccc3C2)nc1N1CCc2ccccc2C1

>  <score_type>  (27) 
oracle

>  <origin>  (27) 
autodockgpu

>  <m_score__min__energy>  (27) 
-10.720000000000001

>  <m_primary>  (27) 
energy

>  <rmsd>  (27) 
3.923005197573564

>  <m_score__min__rmsd>  (27) 
3.923005197573564

>  <meeko>  (27) 
{"free_energy": -8.39, "intermolecular_energy": -10.48, "internal_energy": -1.17, "cluster_size": 30, "cluster_id": 1, "rank_in_cluster": 29}

>  <energy>  (27) 
-8.75

>  <cluster_rmsd>  (27) 
1.71

>  <cluster>  (27) 
1

$$$$

     RDKit          3D

 62 66  0  0  0  0  0  0  0  0999 V2000
  146.6410   74.1010  216.7150 N   0  0  0  0  0  0  0  0  0  0  0  0
  145.6510   73.3110  217.8640 S   0  0  0  0  0  0  0  0  0  0  0  0
  146.2750   73.3870  219.2370 O   0  0  0  0  0  0  0  0  0  0  0  0
  145.5930   71.8240  217.5200 O   0  0  0  0  0  0  0  0  0  0  0  0
  144.0130   73.9190  217.9770 C   0  0  0  0  0  0  0  0  0  0  0  0
  143.1390   73.2610  218.9860 C   0  0  0  0  0  0  0  0  0  0  0  0
  142.1830   74.1050  219.7430 C   0  0  0  0  0  0  0  0  0  0  0  0
  141.4970   73.4110  220.8520 C   0  0  0  0  0  0  0  0  0  0  0  0
  141.6600   72.0750  221.1520 C   0  0  0  0  0  0  0  0  0  0  0  0
  141.0090   71.4660  222.1750 N   0  0  0  0  0  0  0  0  0  0  0  0
  140.1750   72.1630  222.9330 C   0  0  0  0  0  0  0  0  0  0  0  0
  139.4920   71.5330  224.0070 N   0  0  0  0  0  0  0  0  0  0  0  0
  138.2180   70.8760  223.8270 C   0  0  0  0  0  0  0  0  0  0  0  0
  138.3830   69.3990  224.0540 C   0  0  0  0  0  0  0  0  0  0  0  0
  139.3450   69.1250  225.1510 C   0  0  0  0  0  0  0  0  0  0  0  0
  139.4480   67.8010  225.5740 C   0  0  0  0  0  0  0  0  0  0  0  0
  140.3190   67.4340  226.5950 C   0  0  0  0  0  0  0  0  0  0  0  0
  141.0910   68.4300  227.1900 C   0  0  0  0  0  0  0  0  0  0  0  0
  140.9910   69.7580  226.7710 C   0  0  0  0  0  0  0  0  0  0  0  0
  140.1140   70.0950  225.7480 C   0  0  0  0  0  0  0  0  0  0  0  0
  140.0660   71.5290  225.3590 C   0  0  0  0  0  0  0  0  0  0  0  0
  139.9650   73.4640  222.7010 N   0  0  0  0  0  0  0  0  0  0  0  0
  140.6090   74.1010  221.6760 C   0  0  0  0  0  0  0  0  0  0  0  0
  140.2980   75.4710  221.5290 N   0  0  0  0  0  0  0  0  0  0  0  0
  141.2290   76.5130  221.1680 C   0  0  0  0  0  0  0  0  0  0  0  0
  141.2400   77.6890  222.1070 C   0  0  0  0  0  0  0  0  0  0  0  0
  139.8560   78.1230  222.4020 C   0  0  0  0  0  0  0  0  0  0  0  0
  139.6810   79.4130  222.8540 C   0  0  0  0  0  0  0  0  0  0  0  0
  138.4180   79.8920  223.1520 C   0  0  0  0  0  0  0  0  0  0  0  0
  137.3470   79.0400  222.9830 C   0  0  0  0  0  0  0  0  0  0  0  0
  137.5420   77.7410  222.5250 C   0  0  0  0  0  0  0  0  0  0  0  0
  138.7950   77.2630  222.2280 C   0  0  0  0  0  0  0  0  0  0  0  0
  138.9130   75.8760  221.7500 C   0  0  0  0  0  0  0  0  0  0  0  0
  146.4960   75.1370  216.7230 H   0  0  0  0  0  0  0  0  0  0  0  0
  146.3960   73.7660  215.7680 H   0  0  0  0  0  0  0  0  0  0  0  0
  144.0680   74.9889  218.2266 H   0  0  0  0  0  0  0  0  0  0  0  0
  143.5507   73.7063  217.0018 H   0  0  0  0  0  0  0  0  0  0  0  0
  142.5511   72.4955  218.4584 H   0  0  0  0  0  0  0  0  0  0  0  0
  143.8376   72.8888  219.7499 H   0  0  0  0  0  0  0  0  0  0  0  0
  142.7357   74.9589  220.1618 H   0  0  0  0  0  0  0  0  0  0  0  0
  141.4004   74.4061  219.0311 H   0  0  0  0  0  0  0  0  0  0  0  0
  142.3474   71.4772  220.5354 H   0  0  0  0  0  0  0  0  0  0  0  0
  137.4916   71.2795  224.5478 H   0  0  0  0  0  0  0  0  0  0  0  0
  137.8540   71.0528  222.8041 H   0  0  0  0  0  0  0  0  0  0  0  0
  137.4067   68.9659  224.3173 H   0  0  0  0  0  0  0  0  0  0  0  0
  138.7731   68.9476  223.1299 H   0  0  0  0  0  0  0  0  0  0  0  0
  138.8284   67.0310  225.0911 H   0  0  0  0  0  0  0  0  0  0  0  0
  140.3961   66.3870  226.9234 H   0  0  0  0  0  0  0  0  0  0  0  0
  141.7876   68.1667  227.9996 H   0  0  0  0  0  0  0  0  0  0  0  0
  141.6049   70.5352  227.2496 H   0  0  0  0  0  0  0  0  0  0  0  0
  139.4283   72.0972  226.0522 H   0  0  0  0  0  0  0  0  0  0  0  0
  141.0594   72.0005  225.3893 H   0  0  0  0  0  0  0  0  0  0  0  0
  142.2398   76.0795  221.1476 H   0  0  0  0  0  0  0  0  0  0  0  0
  140.9072   76.8962  220.1884 H   0  0  0  0  0  0  0  0  0  0  0  0
  141.7375   77.4002  223.0446 H   0  0  0  0  0  0  0  0  0  0  0  0
  141.7827   78.5204  221.6334 H   0  0  0  0  0  0  0  0  0  0  0  0
  140.5551   80.0689  222.9792 H   0  0  0  0  0  0  0  0  0  0  0  0
  138.2725   80.9209  223.5127 H   0  0  0  0  0  0  0  0  0  0  0  0
  136.3299   79.3905  223.2123 H   0  0  0  0  0  0  0  0  0  0  0  0
  136.6716   77.0806  222.3976 H   0  0  0  0  0  0  0  0  0  0  0  0
  138.4661   75.2064  222.4997 H   0  0  0  0  0  0  0  0  0  0  0  0
  138.3906   75.8124  220.7840 H   0  0  0  0  0  0  0  0  0  0  0  0
  1  2  1  0
  2  3  2  0
  2  4  2  0
  2  5  1  0
  5  6  1  0
  6  7  1  0
  7  8  1  0
  8  9  2  0
  9 10  1  0
 10 11  2  0
 11 12  1  0
 12 13  1  0
 13 14  1  0
 14 15  1  0
 15 16  2  0
 16 17  1  0
 17 18  2  0
 18 19  1  0
 19 20  2  0
 20 21  1  0
 11 22  1  0
 22 23  2  0
 23 24  1  0
 24 25  1  0
 25 26  1  0
 26 27  1  0
 27 28  2  0
 28 29  1  0
 29 30  2  0
 30 31  1  0
 31 32  2  0
 32 33  1  0
 23  8  1  0
 33 24  1  0
 21 12  1  0
 32 27  1  0
 20 15  1  0
  1 34  1  0
  1 35  1  0
  5 36  1  0
  5 37  1  0
  6 38  1  0
  6 39  1  0
  7 40  1  0
  7 41  1  0
  9 42  1  0
 13 43  1  0
 13 44  1  0
 14 45  1  0
 14 46  1  0
 16 47  1  0
 17 48  1  0
 18 49  1  0
 19 50  1  0
 21 51  1  0
 21 52  1  0
 25 53  1  0
 25 54  1  0
 26 55  1  0
 26 56  1  0
 28 57  1  0
 29 58  1  0
 30 59  1  0
 31 60  1  0
 33 61  1  0
 33 62  1  0
M  END
>  <smiles>  (28) 
NS(=O)(=O)CCCc1cnc(N2CCc3ccccc3C2)nc1N1CCc2ccccc2C1

>  <score_type>  (28) 
oracle

>  <origin>  (28) 
autodockgpu

>  <m_score__min__energy>  (28) 
-10.720000000000001

>  <m_primary>  (28) 
energy

>  <rmsd>  (28) 
4.480327520590169

>  <m_score__min__rmsd>  (28) 
4.480327520590169

>  <meeko>  (28) 
{"free_energy": -9.16, "intermolecular_energy": -11.25, "internal_energy": -0.93, "cluster_size": 30, "cluster_id": 1, "rank_in_cluster": 20}

>  <energy>  (28) 
-8.73

>  <cluster_rmsd>  (28) 
1.22

>  <cluster>  (28) 
1

$$$$

     RDKit          3D

 62 66  0  0  0  0  0  0  0  0999 V2000
  143.3170   77.9200  216.8380 N   0  0  0  0  0  0  0  0  0  0  0  0
  143.0840   76.4390  217.6600 S   0  0  0  0  0  0  0  0  0  0  0  0
  143.7460   75.3100  216.9070 O   0  0  0  0  0  0  0  0  0  0  0  0
  141.5920   76.1120  217.6650 O   0  0  0  0  0  0  0  0  0  0  0  0
  143.6650   76.4050  219.3110 C   0  0  0  0  0  0  0  0  0  0  0  0
  143.3950   75.1560  220.0740 C   0  0  0  0  0  0  0  0  0  0  0  0
  142.2940   74.2760  219.6120 C   0  0  0  0  0  0  0  0  0  0  0  0
  141.5980   73.5470  220.6910 C   0  0  0  0  0  0  0  0  0  0  0  0
  141.7100   72.1890  220.9090 C   0  0  0  0  0  0  0  0  0  0  0  0
  141.0520   71.5480  221.9070 N   0  0  0  0  0  0  0  0  0  0  0  0
  140.2610   72.2330  222.7210 C   0  0  0  0  0  0  0  0  0  0  0  0
  139.5700   71.5680  223.7700 N   0  0  0  0  0  0  0  0  0  0  0  0
  138.2990   70.9170  223.5590 C   0  0  0  0  0  0  0  0  0  0  0  0
  138.4630   69.4330  223.7400 C   0  0  0  0  0  0  0  0  0  0  0  0
  139.4170   69.1250  224.8350 C   0  0  0  0  0  0  0  0  0  0  0  0
  139.5190   67.7880  225.2170 C   0  0  0  0  0  0  0  0  0  0  0  0
  140.3820   67.3890  226.2320 C   0  0  0  0  0  0  0  0  0  0  0  0
  141.1480   68.3670  226.8640 C   0  0  0  0  0  0  0  0  0  0  0  0
  141.0510   69.7070  226.4870 C   0  0  0  0  0  0  0  0  0  0  0  0
  140.1810   70.0760  225.4680 C   0  0  0  0  0  0  0  0  0  0  0  0
  140.1350   71.5220  225.1250 C   0  0  0  0  0  0  0  0  0  0  0  0
  140.1030   73.5530  222.5710 N   0  0  0  0  0  0  0  0  0  0  0  0
  140.7550   74.2230  221.5720 C   0  0  0  0  0  0  0  0  0  0  0  0
  140.5000   75.6110  221.5120 N   0  0  0  0  0  0  0  0  0  0  0  0
  139.8600   76.3040  220.4200 C   0  0  0  0  0  0  0  0  0  0  0  0
  140.6350   77.4830  219.8950 C   0  0  0  0  0  0  0  0  0  0  0  0
  141.1090   78.3260  221.0160 C   0  0  0  0  0  0  0  0  0  0  0  0
  141.4260   79.6360  220.7310 C   0  0  0  0  0  0  0  0  0  0  0  0
  141.8760   80.4860  221.7240 C   0  0  0  0  0  0  0  0  0  0  0  0
  141.9970   79.9810  223.0010 C   0  0  0  0  0  0  0  0  0  0  0  0
  141.6740   78.6540  223.2720 C   0  0  0  0  0  0  0  0  0  0  0  0
  141.2250   77.8090  222.2860 C   0  0  0  0  0  0  0  0  0  0  0  0
  140.9050   76.4210  222.6570 C   0  0  0  0  0  0  0  0  0  0  0  0
  144.0050   77.8270  216.0570 H   0  0  0  0  0  0  0  0  0  0  0  0
  143.7000   78.6190  217.4990 H   0  0  0  0  0  0  0  0  0  0  0  0
  144.7544   76.5556  219.2872 H   0  0  0  0  0  0  0  0  0  0  0  0
  143.1113   77.1976  219.8357 H   0  0  0  0  0  0  0  0  0  0  0  0
  144.3184   74.5584  220.0585 H   0  0  0  0  0  0  0  0  0  0  0  0
  143.0662   75.5069  221.0633 H   0  0  0  0  0  0  0  0  0  0  0  0
  141.5551   74.8980  219.0857 H   0  0  0  0  0  0  0  0  0  0  0  0
  142.7535   73.5137  218.9657 H   0  0  0  0  0  0  0  0  0  0  0  0
  142.3608   71.6011  220.2450 H   0  0  0  0  0  0  0  0  0  0  0  0
  137.5666   71.2969  224.2865 H   0  0  0  0  0  0  0  0  0  0  0  0
  137.9433   71.1262  222.5393 H   0  0  0  0  0  0  0  0  0  0  0  0
  137.4851   68.9914  223.9821 H   0  0  0  0  0  0  0  0  0  0  0  0
  138.8600   69.0111  222.8049 H   0  0  0  0  0  0  0  0  0  0  0  0
  138.9042   67.0331  224.7050 H   0  0  0  0  0  0  0  0  0  0  0  0
  140.4579   66.3321  226.5275 H   0  0  0  0  0  0  0  0  0  0  0  0
  141.8381   68.0787  227.6706 H   0  0  0  0  0  0  0  0  0  0  0  0
  141.6611   70.4687  226.9946 H   0  0  0  0  0  0  0  0  0  0  0  0
  139.4924   72.0677  225.8316 H   0  0  0  0  0  0  0  0  0  0  0  0
  141.1276   71.9931  225.1774 H   0  0  0  0  0  0  0  0  0  0  0  0
  139.7180   75.5903  219.5951 H   0  0  0  0  0  0  0  0  0  0  0  0
  138.9112   76.6998  220.8112 H   0  0  0  0  0  0  0  0  0  0  0  0
  141.5011   77.1216  219.3212 H   0  0  0  0  0  0  0  0  0  0  0  0
  139.9786   78.0835  219.2480 H   0  0  0  0  0  0  0  0  0  0  0  0
  141.3199   80.0098  219.7019 H   0  0  0  0  0  0  0  0  0  0  0  0
  142.1297   81.5331  221.5020 H   0  0  0  0  0  0  0  0  0  0  0  0
  142.3519   80.6323  223.8133 H   0  0  0  0  0  0  0  0  0  0  0  0
  141.7807   78.2736  224.2986 H   0  0  0  0  0  0  0  0  0  0  0  0
  141.7956   75.9645  223.1136 H   0  0  0  0  0  0  0  0  0  0  0  0
  140.0584   76.4513  223.3587 H   0  0  0  0  0  0  0  0  0  0  0  0
  1  2  1  0
  2  3  2  0
  2  4  2  0
  2  5  1  0
  5  6  1  0
  6  7  1  0
  7  8  1  0
  8  9  2  0
  9 10  1  0
 10 11  2  0
 11 12  1  0
 12 13  1  0
 13 14  1  0
 14 15  1  0
 15 16  2  0
 16 17  1  0
 17 18  2  0
 18 19  1  0
 19 20  2  0
 20 21  1  0
 11 22  1  0
 22 23  2  0
 23 24  1  0
 24 25  1  0
 25 26  1  0
 26 27  1  0
 27 28  2  0
 28 29  1  0
 29 30  2  0
 30 31  1  0
 31 32  2  0
 32 33  1  0
 23  8  1  0
 33 24  1  0
 21 12  1  0
 32 27  1  0
 20 15  1  0
  1 34  1  0
  1 35  1  0
  5 36  1  0
  5 37  1  0
  6 38  1  0
  6 39  1  0
  7 40  1  0
  7 41  1  0
  9 42  1  0
 13 43  1  0
 13 44  1  0
 14 45  1  0
 14 46  1  0
 16 47  1  0
 17 48  1  0
 18 49  1  0
 19 50  1  0
 21 51  1  0
 21 52  1  0
 25 53  1  0
 25 54  1  0
 26 55  1  0
 26 56  1  0
 28 57  1  0
 29 58  1  0
 30 59  1  0
 31 60  1  0
 33 61  1  0
 33 62  1  0
M  END
>  <smiles>  (29) 
NS(=O)(=O)CCCc1cnc(N2CCc3ccccc3C2)nc1N1CCc2ccccc2C1

>  <score_type>  (29) 
oracle

>  <origin>  (29) 
autodockgpu

>  <m_score__min__energy>  (29) 
-10.720000000000001

>  <m_primary>  (29) 
energy

>  <rmsd>  (29) 
4.2225361811972775

>  <m_score__min__rmsd>  (29) 
4.2225361811972775

>  <meeko>  (29) 
{"free_energy": -8.94, "intermolecular_energy": -11.03, "internal_energy": -1.7, "cluster_size": 3, "cluster_id": 3, "rank_in_cluster": 1}

>  <energy>  (29) 
-8.39

>  <cluster_rmsd>  (29) 
1.58

>  <cluster>  (29) 
1

$$$$

     RDKit          3D

 62 66  0  0  0  0  0  0  0  0999 V2000
  146.5020   73.4250  219.0210 N   0  0  0  0  0  0  0  0  0  0  0  0
  145.5650   73.1500  220.4240 S   0  0  0  0  0  0  0  0  0  0  0  0
  146.4600   72.9420  221.6220 O   0  0  0  0  0  0  0  0  0  0  0  0
  144.7980   71.8400  220.2510 O   0  0  0  0  0  0  0  0  0  0  0  0
  144.4210   74.4160  220.8150 C   0  0  0  0  0  0  0  0  0  0  0  0
  143.5800   74.9070  219.6890 C   0  0  0  0  0  0  0  0  0  0  0  0
  142.3810   74.1190  219.3130 C   0  0  0  0  0  0  0  0  0  0  0  0
  141.6920   73.4720  220.4480 C   0  0  0  0  0  0  0  0  0  0  0  0
  141.7710   72.1260  220.7410 C   0  0  0  0  0  0  0  0  0  0  0  0
  141.1200   71.5620  221.7890 N   0  0  0  0  0  0  0  0  0  0  0  0
  140.3690   72.3150  222.5800 C   0  0  0  0  0  0  0  0  0  0  0  0
  139.6860   71.7310  223.6810 N   0  0  0  0  0  0  0  0  0  0  0  0
  138.3500   71.1950  223.5580 C   0  0  0  0  0  0  0  0  0  0  0  0
  138.3910   69.7060  223.7590 C   0  0  0  0  0  0  0  0  0  0  0  0
  139.3790   69.3280  224.8010 C   0  0  0  0  0  0  0  0  0  0  0  0
  139.3820   67.9930  225.2030 C   0  0  0  0  0  0  0  0  0  0  0  0
  140.2660   67.5320  226.1740 C   0  0  0  0  0  0  0  0  0  0  0  0
  141.1540   68.4450  226.7400 C   0  0  0  0  0  0  0  0  0  0  0  0
  141.1550   69.7830  226.3420 C   0  0  0  0  0  0  0  0  0  0  0  0
  140.2620   70.2150  225.3700 C   0  0  0  0  0  0  0  0  0  0  0  0
  140.3250   71.6540  225.0000 C   0  0  0  0  0  0  0  0  0  0  0  0
  140.2440   73.6280  222.3580 N   0  0  0  0  0  0  0  0  0  0  0  0
  140.8900   74.2210  221.3080 C   0  0  0  0  0  0  0  0  0  0  0  0
  140.6730   75.6100  221.1750 N   0  0  0  0  0  0  0  0  0  0  0  0
  140.3730   76.3030  219.9440 C   0  0  0  0  0  0  0  0  0  0  0  0
  141.2730   77.4740  219.6560 C   0  0  0  0  0  0  0  0  0  0  0  0
  141.4180   78.3190  220.8630 C   0  0  0  0  0  0  0  0  0  0  0  0
  141.8120   79.6260  220.6760 C   0  0  0  0  0  0  0  0  0  0  0  0
  141.9700   80.4780  221.7530 C   0  0  0  0  0  0  0  0  0  0  0  0
  141.7230   79.9780  223.0140 C   0  0  0  0  0  0  0  0  0  0  0  0
  141.3260   78.6550  223.1860 C   0  0  0  0  0  0  0  0  0  0  0  0
  141.1670   77.8080  222.1160 C   0  0  0  0  0  0  0  0  0  0  0  0
  140.7450   76.4230  222.3850 C   0  0  0  0  0  0  0  0  0  0  0  0
  147.2440   74.1440  219.1830 H   0  0  0  0  0  0  0  0  0  0  0  0
  145.8900   73.7860  218.2680 H   0  0  0  0  0  0  0  0  0  0  0  0
  143.7475   74.0317  221.5952 H   0  0  0  0  0  0  0  0  0  0  0  0
  145.0285   75.2777  221.1287 H   0  0  0  0  0  0  0  0  0  0  0  0
  143.2357   75.9171  219.9557 H   0  0  0  0  0  0  0  0  0  0  0  0
  144.2368   74.8395  218.8092 H   0  0  0  0  0  0  0  0  0  0  0  0
  141.6676   74.7942  218.8179 H   0  0  0  0  0  0  0  0  0  0  0  0
  142.7325   73.3085  218.6575 H   0  0  0  0  0  0  0  0  0  0  0  0
  142.3885   71.4825  220.0970 H   0  0  0  0  0  0  0  0  0  0  0  0
  137.6999   71.6507  224.3194 H   0  0  0  0  0  0  0  0  0  0  0  0
  137.9534   71.4207  222.5571 H   0  0  0  0  0  0  0  0  0  0  0  0
  137.3940   69.3588  224.0681 H   0  0  0  0  0  0  0  0  0  0  0  0
  138.6907   69.2363  222.8105 H   0  0  0  0  0  0  0  0  0  0  0  0
  138.6715   67.2901  224.7435 H   0  0  0  0  0  0  0  0  0  0  0  0
  140.2639   66.4771  226.4859 H   0  0  0  0  0  0  0  0  0  0  0  0
  141.8630   68.1070  227.5101 H   0  0  0  0  0  0  0  0  0  0  0  0
  141.8611   70.4932  226.7970 H   0  0  0  0  0  0  0  0  0  0  0  0
  139.7779   72.2665  225.7318 H   0  0  0  0  0  0  0  0  0  0  0  0
  141.3574   72.0334  224.9837 H   0  0  0  0  0  0  0  0  0  0  0  0
  140.4644   75.5864  219.1145 H   0  0  0  0  0  0  0  0  0  0  0  0
  139.3555   76.7072  220.0506 H   0  0  0  0  0  0  0  0  0  0  0  0
  142.2630   77.1044  219.3506 H   0  0  0  0  0  0  0  0  0  0  0  0
  140.8302   78.0758  218.8487 H   0  0  0  0  0  0  0  0  0  0  0  0
  142.0030   79.9958  219.6578 H   0  0  0  0  0  0  0  0  0  0  0  0
  142.2831   81.5226  221.6085 H   0  0  0  0  0  0  0  0  0  0  0  0
  141.8407   80.6304  223.8918 H   0  0  0  0  0  0  0  0  0  0  0  0
  141.1352   78.2790  224.2020 H   0  0  0  0  0  0  0  0  0  0  0  0
  141.4674   75.9630  223.0753 H   0  0  0  0  0  0  0  0  0  0  0  0
  139.7350   76.4622  222.8190 H   0  0  0  0  0  0  0  0  0  0  0  0
  1  2  1  0
  2  3  2  0
  2  4  2  0
  2  5  1  0
  5  6  1  0
  6  7  1  0
  7  8  1  0
  8  9  2  0
  9 10  1  0
 10 11  2  0
 11 12  1  0
 12 13  1  0
 13 14  1  0
 14 15  1  0
 15 16  2  0
 16 17  1  0
 17 18  2  0
 18 19  1  0
 19 20  2  0
 20 21  1  0
 11 22  1  0
 22 23  2  0
 23 24  1  0
 24 25  1  0
 25 26  1  0
 26 27  1  0
 27 28  2  0
 28 29  1  0
 29 30  2  0
 30 31  1  0
 31 32  2  0
 32 33  1  0
 23  8  1  0
 33 24  1  0
 21 12  1  0
 32 27  1  0
 20 15  1  0
  1 34  1  0
  1 35  1  0
  5 36  1  0
  5 37  1  0
  6 38  1  0
  6 39  1  0
  7 40  1  0
  7 41  1  0
  9 42  1  0
 13 43  1  0
 13 44  1  0
 14 45  1  0
 14 46  1  0
 16 47  1  0
 17 48  1  0
 18 49  1  0
 19 50  1  0
 21 51  1  0
 21 52  1  0
 25 53  1  0
 25 54  1  0
 26 55  1  0
 26 56  1  0
 28 57  1  0
 29 58  1  0
 30 59  1  0
 31 60  1  0
 33 61  1  0
 33 62  1  0
M  END
>  <smiles>  (30) 
NS(=O)(=O)CCCc1cnc(N2CCc3ccccc3C2)nc1N1CCc2ccccc2C1

>  <score_type>  (30) 
oracle

>  <origin>  (30) 
autodockgpu

>  <m_score__min__energy>  (30) 
-10.720000000000001

>  <m_primary>  (30) 
energy

>  <rmsd>  (30) 
4.341512280293845

>  <m_score__min__rmsd>  (30) 
4.341512280293845

>  <meeko>  (30) 
{"free_energy": -10.71, "intermolecular_energy": -12.8, "internal_energy": -1.5, "cluster_size": 30, "cluster_id": 1, "rank_in_cluster": 2}

>  <energy>  (30) 
-8.26

>  <cluster_rmsd>  (30) 
1.55

>  <cluster>  (30) 
1

$$$$

     RDKit          3D

 62 66  0  0  0  0  0  0  0  0999 V2000
  144.0720   71.7180  221.1690 N   0  0  0  0  0  0  0  0  0  0  0  0
  144.9340   73.0680  220.5700 S   0  0  0  0  0  0  0  0  0  0  0  0
  145.4050   72.8070  219.1590 O   0  0  0  0  0  0  0  0  0  0  0  0
  146.2040   73.2450  221.4010 O   0  0  0  0  0  0  0  0  0  0  0  0
  144.0490   74.5780  220.5780 C   0  0  0  0  0  0  0  0  0  0  0  0
  143.3450   74.9300  219.3150 C   0  0  0  0  0  0  0  0  0  0  0  0
  142.0270   74.3030  219.0490 C   0  0  0  0  0  0  0  0  0  0  0  0
  141.4100   73.6510  220.2220 C   0  0  0  0  0  0  0  0  0  0  0  0
  141.3930   72.2890  220.4350 C   0  0  0  0  0  0  0  0  0  0  0  0
  140.8110   71.7210  221.5210 N   0  0  0  0  0  0  0  0  0  0  0  0
  140.2280   72.4870  222.4320 C   0  0  0  0  0  0  0  0  0  0  0  0
  139.6180   71.9000  223.5730 N   0  0  0  0  0  0  0  0  0  0  0  0
  138.2680   71.3890  223.5440 C   0  0  0  0  0  0  0  0  0  0  0  0
  138.2960   69.8970  223.7230 C   0  0  0  0  0  0  0  0  0  0  0  0
  139.3520   69.4880  224.6830 C   0  0  0  0  0  0  0  0  0  0  0  0
  139.3600   68.1470  225.0660 C   0  0  0  0  0  0  0  0  0  0  0  0
  140.3060   67.6570  225.9620 C   0  0  0  0  0  0  0  0  0  0  0  0
  141.2510   68.5460  226.4710 C   0  0  0  0  0  0  0  0  0  0  0  0
  141.2460   69.8890  226.0910 C   0  0  0  0  0  0  0  0  0  0  0  0
  140.2910   70.3510  225.1940 C   0  0  0  0  0  0  0  0  0  0  0  0
  140.3530   71.7930  224.8400 C   0  0  0  0  0  0  0  0  0  0  0  0
  140.2040   73.8180  222.2920 N   0  0  0  0  0  0  0  0  0  0  0  0
  140.7830   74.4150  221.2060 C   0  0  0  0  0  0  0  0  0  0  0  0
  140.6850   75.8230  221.1700 N   0  0  0  0  0  0  0  0  0  0  0  0
  140.5510   76.6290  219.9790 C   0  0  0  0  0  0  0  0  0  0  0  0
  141.5600   77.7390  219.8650 C   0  0  0  0  0  0  0  0  0  0  0  0
  141.6600   78.4760  221.1450 C   0  0  0  0  0  0  0  0  0  0  0  0
  142.1680   79.7560  221.0990 C   0  0  0  0  0  0  0  0  0  0  0  0
  142.2920   80.5080  222.2530 C   0  0  0  0  0  0  0  0  0  0  0  0
  141.8950   79.9370  223.4430 C   0  0  0  0  0  0  0  0  0  0  0  0
  141.3840   78.6430  223.4710 C   0  0  0  0  0  0  0  0  0  0  0  0
  141.2590   77.8950  222.3260 C   0  0  0  0  0  0  0  0  0  0  0  0
  140.7090   76.5340  222.4440 C   0  0  0  0  0  0  0  0  0  0  0  0
  143.1040   71.9760  221.4680 H   0  0  0  0  0  0  0  0  0  0  0  0
  144.5590   71.3470  222.0040 H   0  0  0  0  0  0  0  0  0  0  0  0
  143.2963   74.5224  221.3782 H   0  0  0  0  0  0  0  0  0  0  0  0
  144.8052   75.3634  220.7240 H   0  0  0  0  0  0  0  0  0  0  0  0
  143.1931   76.0195  219.3190 H   0  0  0  0  0  0  0  0  0  0  0  0
  143.9981   74.5391  218.5208 H   0  0  0  0  0  0  0  0  0  0  0  0
  141.3411   75.0845  218.6902 H   0  0  0  0  0  0  0  0  0  0  0  0
  142.2022   73.5101  218.3070 H   0  0  0  0  0  0  0  0  0  0  0  0
  141.8721   71.6343  219.6921 H   0  0  0  0  0  0  0  0  0  0  0  0
  137.6851   71.8455  224.3575 H   0  0  0  0  0  0  0  0  0  0  0  0
  137.8023   71.6349  222.5783 H   0  0  0  0  0  0  0  0  0  0  0  0
  137.3187   69.5633  224.1019 H   0  0  0  0  0  0  0  0  0  0  0  0
  138.5147   69.4348  222.7491 H   0  0  0  0  0  0  0  0  0  0  0  0
  138.6042   67.4633  224.6521 H   0  0  0  0  0  0  0  0  0  0  0  0
  140.3076   66.5981  226.2599 H   0  0  0  0  0  0  0  0  0  0  0  0
  142.0099   68.1849  227.1807 H   0  0  0  0  0  0  0  0  0  0  0  0
  141.9969   70.5804  226.5010 H   0  0  0  0  0  0  0  0  0  0  0  0
  139.8737   72.4042  225.6189 H   0  0  0  0  0  0  0  0  0  0  0  0
  141.3880   72.1548  224.7515 H   0  0  0  0  0  0  0  0  0  0  0  0
  140.6619   75.9716  219.1040 H   0  0  0  0  0  0  0  0  0  0  0  0
  139.5618   77.1072  220.0323 H   0  0  0  0  0  0  0  0  0  0  0  0
  142.5423   77.3121  219.6144 H   0  0  0  0  0  0  0  0  0  0  0  0
  141.2389   78.4347  219.0757 H   0  0  0  0  0  0  0  0  0  0  0  0
  142.4781   80.1842  220.1344 H   0  0  0  0  0  0  0  0  0  0  0  0
  142.6953   81.5309  222.2221 H   0  0  0  0  0  0  0  0  0  0  0  0
  141.9829   80.5090  224.3784 H   0  0  0  0  0  0  0  0  0  0  0  0
  141.0729   78.2091  224.4327 H   0  0  0  0  0  0  0  0  0  0  0  0
  141.3281   75.9647  223.1529 H   0  0  0  0  0  0  0  0  0  0  0  0
  139.6698   76.6251  222.7928 H   0  0  0  0  0  0  0  0  0  0  0  0
  1  2  1  0
  2  3  2  0
  2  4  2  0
  2  5  1  0
  5  6  1  0
  6  7  1  0
  7  8  1  0
  8  9  2  0
  9 10  1  0
 10 11  2  0
 11 12  1  0
 12 13  1  0
 13 14  1  0
 14 15  1  0
 15 16  2  0
 16 17  1  0
 17 18  2  0
 18 19  1  0
 19 20  2  0
 20 21  1  0
 11 22  1  0
 22 23  2  0
 23 24  1  0
 24 25  1  0
 25 26  1  0
 26 27  1  0
 27 28  2  0
 28 29  1  0
 29 30  2  0
 30 31  1  0
 31 32  2  0
 32 33  1  0
 23  8  1  0
 33 24  1  0
 21 12  1  0
 32 27  1  0
 20 15  1  0
  1 34  1  0
  1 35  1  0
  5 36  1  0
  5 37  1  0
  6 38  1  0
  6 39  1  0
  7 40  1  0
  7 41  1  0
  9 42  1  0
 13 43  1  0
 13 44  1  0
 14 45  1  0
 14 46  1  0
 16 47  1  0
 17 48  1  0
 18 49  1  0
 19 50  1  0
 21 51  1  0
 21 52  1  0
 25 53  1  0
 25 54  1  0
 26 55  1  0
 26 56  1  0
 28 57  1  0
 29 58  1  0
 30 59  1  0
 31 60  1  0
 33 61  1  0
 33 62  1  0
M  END
>  <smiles>  (31) 
NS(=O)(=O)CCCc1cnc(N2CCc3ccccc3C2)nc1N1CCc2ccccc2C1

>  <score_type>  (31) 
oracle

>  <origin>  (31) 
autodockgpu

>  <m_score__min__energy>  (31) 
-10.720000000000001

>  <m_primary>  (31) 
energy

>  <rmsd>  (31) 
4.259331700947358

>  <m_score__min__rmsd>  (31) 
4.259331700947358

>  <meeko>  (31) 
{"free_energy": -9.8, "intermolecular_energy": -11.89, "internal_energy": -1.68, "cluster_size": 30, "cluster_id": 1, "rank_in_cluster": 16}

>  <energy>  (31) 
-9.22

>  <cluster_rmsd>  (31) 
0.0

>  <cluster>  (31) 
2

$$$$

     RDKit          3D

 62 66  0  0  0  0  0  0  0  0999 V2000
  146.4810   73.4520  218.8010 N   0  0  0  0  0  0  0  0  0  0  0  0
  145.6630   73.0490  220.2480 S   0  0  0  0  0  0  0  0  0  0  0  0
  146.6330   72.9980  221.4040 O   0  0  0  0  0  0  0  0  0  0  0  0
  145.1040   71.6340  220.1160 O   0  0  0  0  0  0  0  0  0  0  0  0
  144.3530   74.1260  220.6860 C   0  0  0  0  0  0  0  0  0  0  0  0
  143.5810   74.7080  219.5550 C   0  0  0  0  0  0  0  0  0  0  0  0
  142.2400   74.1470  219.2580 C   0  0  0  0  0  0  0  0  0  0  0  0
  141.5800   73.4940  220.4070 C   0  0  0  0  0  0  0  0  0  0  0  0
  141.6480   72.1440  220.6770 C   0  0  0  0  0  0  0  0  0  0  0  0
  141.0240   71.5750  221.7390 N   0  0  0  0  0  0  0  0  0  0  0  0
  140.3130   72.3270  222.5670 C   0  0  0  0  0  0  0  0  0  0  0  0
  139.6590   71.7380  223.6830 N   0  0  0  0  0  0  0  0  0  0  0  0
  138.3260   71.1910  223.5890 C   0  0  0  0  0  0  0  0  0  0  0  0
  138.3840   69.7020  223.7890 C   0  0  0  0  0  0  0  0  0  0  0  0
  139.3970   69.3340  224.8100 C   0  0  0  0  0  0  0  0  0  0  0  0
  139.4200   67.9980  225.2130 C   0  0  0  0  0  0  0  0  0  0  0  0
  140.3290   67.5460  226.1640 C   0  0  0  0  0  0  0  0  0  0  0  0
  141.2210   68.4670  226.7100 C   0  0  0  0  0  0  0  0  0  0  0  0
  141.2020   69.8040  226.3120 C   0  0  0  0  0  0  0  0  0  0  0  0
  140.2840   70.2280  225.3590 C   0  0  0  0  0  0  0  0  0  0  0  0
  140.3270   71.6670  224.9880 C   0  0  0  0  0  0  0  0  0  0  0  0
  140.2020   73.6460  222.3680 N   0  0  0  0  0  0  0  0  0  0  0  0
  140.8210   74.2440  221.3050 C   0  0  0  0  0  0  0  0  0  0  0  0
  140.6220   75.6380  221.1990 N   0  0  0  0  0  0  0  0  0  0  0  0
  140.2810   76.3520  219.9920 C   0  0  0  0  0  0  0  0  0  0  0  0
  141.1880   77.5120  219.6800 C   0  0  0  0  0  0  0  0  0  0  0  0
  141.3990   78.3380  220.8900 C   0  0  0  0  0  0  0  0  0  0  0  0
  141.8070   79.6410  220.7030 C   0  0  0  0  0  0  0  0  0  0  0  0
  142.0260   80.4750  221.7830 C   0  0  0  0  0  0  0  0  0  0  0  0
  141.8240   79.9620  223.0470 C   0  0  0  0  0  0  0  0  0  0  0  0
  141.4120   78.6440  223.2180 C   0  0  0  0  0  0  0  0  0  0  0  0
  141.1940   77.8140  222.1460 C   0  0  0  0  0  0  0  0  0  0  0  0
  140.7590   76.4330  222.4150 C   0  0  0  0  0  0  0  0  0  0  0  0
  147.2520   74.1380  218.9680 H   0  0  0  0  0  0  0  0  0  0  0  0
  145.8150   73.8980  218.1470 H   0  0  0  0  0  0  0  0  0  0  0  0
  143.6509   73.5623  221.3179 H   0  0  0  0  0  0  0  0  0  0  0  0
  144.8277   74.9799  221.1915 H   0  0  0  0  0  0  0  0  0  0  0  0
  143.4463   75.7785  219.7690 H   0  0  0  0  0  0  0  0  0  0  0  0
  144.1800   74.4672  218.6643 H   0  0  0  0  0  0  0  0  0  0  0  0
  141.5938   74.9669  218.9113 H   0  0  0  0  0  0  0  0  0  0  0  0
  142.3894   73.3658  218.4981 H   0  0  0  0  0  0  0  0  0  0  0  0
  142.2328   71.5008  220.0030 H   0  0  0  0  0  0  0  0  0  0  0  0
  137.6887   71.6412  224.3643 H   0  0  0  0  0  0  0  0  0  0  0  0
  137.9059   71.4132  222.5970 H   0  0  0  0  0  0  0  0  0  0  0  0
  137.3969   69.3461  224.1190 H   0  0  0  0  0  0  0  0  0  0  0  0
  138.6672   69.2342  222.8345 H   0  0  0  0  0  0  0  0  0  0  0  0
  138.7054   67.2887  224.7700 H   0  0  0  0  0  0  0  0  0  0  0  0
  140.3433   66.4913  226.4762 H   0  0  0  0  0  0  0  0  0  0  0  0
  141.9495   68.1355  227.4646 H   0  0  0  0  0  0  0  0  0  0  0  0
  141.9117   70.5204  226.7514 H   0  0  0  0  0  0  0  0  0  0  0  0
  139.7906   72.2750  225.7314 H   0  0  0  0  0  0  0  0  0  0  0  0
  141.3555   72.0553  224.9496 H   0  0  0  0  0  0  0  0  0  0  0  0
  140.3239   75.6453  219.1502 H   0  0  0  0  0  0  0  0  0  0  0  0
  139.2762   76.7715  220.1480 H   0  0  0  0  0  0  0  0  0  0  0  0
  142.1575   77.1302  219.3275 H   0  0  0  0  0  0  0  0  0  0  0  0
  140.7215   78.1318  218.9001 H   0  0  0  0  0  0  0  0  0  0  0  0
  141.9601   80.0216  219.6824 H   0  0  0  0  0  0  0  0  0  0  0  0
  142.3514   81.5158  221.6388 H   0  0  0  0  0  0  0  0  0  0  0  0
  141.9900   80.6001  223.9275 H   0  0  0  0  0  0  0  0  0  0  0  0
  141.2572   78.2577  224.2362 H   0  0  0  0  0  0  0  0  0  0  0  0
  141.5013   75.9513  223.0684 H   0  0  0  0  0  0  0  0  0  0  0  0
  139.7690   76.4837  222.8917 H   0  0  0  0  0  0  0  0  0  0  0  0
  1  2  1  0
  2  3  2  0
  2  4  2  0
  2  5  1  0
  5  6  1  0
  6  7  1  0
  7  8  1  0
  8  9  2  0
  9 10  1  0
 10 11  2  0
 11 12  1  0
 12 13  1  0
 13 14  1  0
 14 15  1  0
 15 16  2  0
 16 17  1  0
 17 18  2  0
 18 19  1  0
 19 20  2  0
 20 21  1  0
 11 22  1  0
 22 23  2  0
 23 24  1  0
 24 25  1  0
 25 26  1  0
 26 27  1  0
 27 28  2  0
 28 29  1  0
 29 30  2  0
 30 31  1  0
 31 32  2  0
 32 33  1  0
 23  8  1  0
 33 24  1  0
 21 12  1  0
 32 27  1  0
 20 15  1  0
  1 34  1  0
  1 35  1  0
  5 36  1  0
  5 37  1  0
  6 38  1  0
  6 39  1  0
  7 40  1  0
  7 41  1  0
  9 42  1  0
 13 43  1  0
 13 44  1  0
 14 45  1  0
 14 46  1  0
 16 47  1  0
 17 48  1  0
 18 49  1  0
 19 50  1  0
 21 51  1  0
 21 52  1  0
 25 53  1  0
 25 54  1  0
 26 55  1  0
 26 56  1  0
 28 57  1  0
 29 58  1  0
 30 59  1  0
 31 60  1  0
 33 61  1  0
 33 62  1  0
M  END
>  <smiles>  (32) 
NS(=O)(=O)CCCc1cnc(N2CCc3ccccc3C2)nc1N1CCc2ccccc2C1

>  <score_type>  (32) 
oracle

>  <origin>  (32) 
autodockgpu

>  <m_score__min__energy>  (32) 
-10.720000000000001

>  <m_primary>  (32) 
energy

>  <rmsd>  (32) 
4.302876849650245

>  <m_score__min__rmsd>  (32) 
4.302876849650245

>  <meeko>  (32) 
{"free_energy": -10.72, "intermolecular_energy": -12.81, "internal_energy": -1.43, "cluster_size": 30, "cluster_id": 1, "rank_in_cluster": 1}

>  <energy>  (32) 
-8.46

>  <cluster_rmsd>  (32) 
1.26

>  <cluster>  (32) 
2

$$$$

     RDKit          3D

 62 66  0  0  0  0  0  0  0  0999 V2000
  134.0620   67.4290  224.0510 N   0  0  0  0  0  0  0  0  0  0  0  0
  134.7300   68.9760  224.3440 S   0  0  0  0  0  0  0  0  0  0  0  0
  135.9340   68.8650  225.2500 O   0  0  0  0  0  0  0  0  0  0  0  0
  133.7100   69.8110  225.1150 O   0  0  0  0  0  0  0  0  0  0  0  0
  135.2070   69.8630  222.9120 C   0  0  0  0  0  0  0  0  0  0  0  0
  135.6720   71.2600  223.1340 C   0  0  0  0  0  0  0  0  0  0  0  0
  137.0140   71.4670  223.7290 C   0  0  0  0  0  0  0  0  0  0  0  0
  138.0460   71.9210  222.7730 C   0  0  0  0  0  0  0  0  0  0  0  0
  137.8290   72.8550  221.7830 C   0  0  0  0  0  0  0  0  0  0  0  0
  138.7980   73.2460  220.9170 N   0  0  0  0  0  0  0  0  0  0  0  0
  140.0120   72.7220  221.0060 C   0  0  0  0  0  0  0  0  0  0  0  0
  141.0320   73.1280  220.1040 N   0  0  0  0  0  0  0  0  0  0  0  0
  141.0890   74.4660  219.5610 C   0  0  0  0  0  0  0  0  0  0  0  0
  142.3140   75.1630  220.0830 C   0  0  0  0  0  0  0  0  0  0  0  0
  143.4620   74.2290  220.1920 C   0  0  0  0  0  0  0  0  0  0  0  0
  144.7000   74.7940  220.4950 C   0  0  0  0  0  0  0  0  0  0  0  0
  145.8420   74.0090  220.6190 C   0  0  0  0  0  0  0  0  0  0  0  0
  145.7180   72.6340  220.4330 C   0  0  0  0  0  0  0  0  0  0  0  0
  144.4810   72.0630  220.1290 C   0  0  0  0  0  0  0  0  0  0  0  0
  143.3570   72.8700  220.0110 C   0  0  0  0  0  0  0  0  0  0  0  0
  142.0780   72.1860  219.6860 C   0  0  0  0  0  0  0  0  0  0  0  0
  140.2960   71.8090  221.9420 N   0  0  0  0  0  0  0  0  0  0  0  0
  139.3370   71.3980  222.8270 C   0  0  0  0  0  0  0  0  0  0  0  0
  139.7580   70.4250  223.7610 N   0  0  0  0  0  0  0  0  0  0  0  0
  139.4100   69.0250  223.7340 C   0  0  0  0  0  0  0  0  0  0  0  0
  138.8350   68.5040  225.0240 C   0  0  0  0  0  0  0  0  0  0  0  0
  139.6580   68.9510  226.1700 C   0  0  0  0  0  0  0  0  0  0  0  0
  139.5610   68.2260  227.3380 C   0  0  0  0  0  0  0  0  0  0  0  0
  140.2980   68.5820  228.4530 C   0  0  0  0  0  0  0  0  0  0  0  0
  141.1260   69.6800  228.3570 C   0  0  0  0  0  0  0  0  0  0  0  0
  141.2120   70.4010  227.1700 C   0  0  0  0  0  0  0  0  0  0  0  0
  140.4810   70.0480  226.0610 C   0  0  0  0  0  0  0  0  0  0  0  0
  140.6300   70.8650  224.8450 C   0  0  0  0  0  0  0  0  0  0  0  0
  133.0170   67.4560  224.0190 H   0  0  0  0  0  0  0  0  0  0  0  0
  134.3260   66.7930  224.8230 H   0  0  0  0  0  0  0  0  0  0  0  0
  136.0255   69.3085  222.4298 H   0  0  0  0  0  0  0  0  0  0  0  0
  134.2977   69.9471  222.2988 H   0  0  0  0  0  0  0  0  0  0  0  0
  135.6678   71.7641  222.1563 H   0  0  0  0  0  0  0  0  0  0  0  0
  134.9765   71.6618  223.8856 H   0  0  0  0  0  0  0  0  0  0  0  0
  136.9248   72.2233  224.5228 H   0  0  0  0  0  0  0  0  0  0  0  0
  137.3444   70.4868  224.1033 H   0  0  0  0  0  0  0  0  0  0  0  0
  136.8283   73.3023  221.6909 H   0  0  0  0  0  0  0  0  0  0  0  0
  141.1351   74.4152  218.4631 H   0  0  0  0  0  0  0  0  0  0  0  0
  140.1908   75.0245  219.8632 H   0  0  0  0  0  0  0  0  0  0  0  0
  142.5810   75.9800  219.3965 H   0  0  0  0  0  0  0  0  0  0  0  0
  142.0891   75.5545  221.0861 H   0  0  0  0  0  0  0  0  0  0  0  0
  144.7754   75.8819  220.6389 H   0  0  0  0  0  0  0  0  0  0  0  0
  146.8158   74.4616  220.8573 H   0  0  0  0  0  0  0  0  0  0  0  0
  146.6053   71.9906  220.5268 H   0  0  0  0  0  0  0  0  0  0  0  0
  144.3967   70.9760  219.9832 H   0  0  0  0  0  0  0  0  0  0  0  0
  142.0095   71.9849  218.6067 H   0  0  0  0  0  0  0  0  0  0  0  0
  141.9871   71.2134  220.1918 H   0  0  0  0  0  0  0  0  0  0  0  0
  138.6665   68.8702  222.9382 H   0  0  0  0  0  0  0  0  0  0  0  0
  140.3446   68.4717  223.5598 H   0  0  0  0  0  0  0  0  0  0  0  0
  137.8095   68.8834  225.1437 H   0  0  0  0  0  0  0  0  0  0  0  0
  138.8287   67.4044  224.9950 H   0  0  0  0  0  0  0  0  0  0  0  0
  138.8905   67.3552  227.3840 H   0  0  0  0  0  0  0  0  0  0  0  0
  140.2256   68.0066  229.3877 H   0  0  0  0  0  0  0  0  0  0  0  0
  141.7243   69.9890  229.2268 H   0  0  0  0  0  0  0  0  0  0  0  0
  141.8802   71.2733  227.1181 H   0  0  0  0  0  0  0  0  0  0  0  0
  140.3867   71.9093  225.0906 H   0  0  0  0  0  0  0  0  0  0  0  0
  141.6690   70.7600  224.4993 H   0  0  0  0  0  0  0  0  0  0  0  0
  1  2  1  0
  2  3  2  0
  2  4  2  0
  2  5  1  0
  5  6  1  0
  6  7  1  0
  7  8  1  0
  8  9  2  0
  9 10  1  0
 10 11  2  0
 11 12  1  0
 12 13  1  0
 13 14  1  0
 14 15  1  0
 15 16  2  0
 16 17  1  0
 17 18  2  0
 18 19  1  0
 19 20  2  0
 20 21  1  0
 11 22  1  0
 22 23  2  0
 23 24  1  0
 24 25  1  0
 25 26  1  0
 26 27  1  0
 27 28  2  0
 28 29  1  0
 29 30  2  0
 30 31  1  0
 31 32  2  0
 32 33  1  0
 23  8  1  0
 33 24  1  0
 21 12  1  0
 32 27  1  0
 20 15  1  0
  1 34  1  0
  1 35  1  0
  5 36  1  0
  5 37  1  0
  6 38  1  0
  6 39  1  0
  7 40  1  0
  7 41  1  0
  9 42  1  0
 13 43  1  0
 13 44  1  0
 14 45  1  0
 14 46  1  0
 16 47  1  0
 17 48  1  0
 18 49  1  0
 19 50  1  0
 21 51  1  0
 21 52  1  0
 25 53  1  0
 25 54  1  0
 26 55  1  0
 26 56  1  0
 28 57  1  0
 29 58  1  0
 30 59  1  0
 31 60  1  0
 33 61  1  0
 33 62  1  0
M  END
>  <smiles>  (33) 
NS(=O)(=O)CCCc1cnc(N2CCc3ccccc3C2)nc1N1CCc2ccccc2C1

>  <score_type>  (33) 
oracle

>  <origin>  (33) 
autodockgpu

>  <m_score__min__energy>  (33) 
-10.720000000000001

>  <m_primary>  (33) 
energy

>  <rmsd>  (33) 
11.090705084441366

>  <m_score__min__rmsd>  (33) 
11.090705084441366

>  <meeko>  (33) 
{"free_energy": -7.91, "intermolecular_energy": -10.0, "internal_energy": -1.59, "cluster_size": 2, "cluster_id": 6, "rank_in_cluster": 1}

>  <energy>  (33) 
-8.94

>  <cluster_rmsd>  (33) 
0.0

>  <cluster>  (33) 
3

$$$$

     RDKit          3D

 62 66  0  0  0  0  0  0  0  0999 V2000
  145.4980   75.2990  216.0680 N   0  0  0  0  0  0  0  0  0  0  0  0
  145.0490   73.7670  216.6820 S   0  0  0  0  0  0  0  0  0  0  0  0
  145.9320   73.3880  217.8470 O   0  0  0  0  0  0  0  0  0  0  0  0
  145.3100   72.7140  215.6070 O   0  0  0  0  0  0  0  0  0  0  0  0
  143.3810   73.6330  217.1980 C   0  0  0  0  0  0  0  0  0  0  0  0
  143.1590   73.0310  218.5410 C   0  0  0  0  0  0  0  0  0  0  0  0
  142.8250   73.9350  219.6680 C   0  0  0  0  0  0  0  0  0  0  0  0
  142.0280   73.3080  220.7420 C   0  0  0  0  0  0  0  0  0  0  0  0
  142.1490   71.9900  221.1310 C   0  0  0  0  0  0  0  0  0  0  0  0
  141.3960   71.4430  222.1180 N   0  0  0  0  0  0  0  0  0  0  0  0
  140.5000   72.1860  222.7520 C   0  0  0  0  0  0  0  0  0  0  0  0
  139.7100   71.6200  223.7890 N   0  0  0  0  0  0  0  0  0  0  0  0
  138.4010   71.0630  223.5390 C   0  0  0  0  0  0  0  0  0  0  0  0
  138.4370   69.5800  223.7810 C   0  0  0  0  0  0  0  0  0  0  0  0
  139.3110   69.2410  224.9320 C   0  0  0  0  0  0  0  0  0  0  0  0
  139.2860   67.9160  225.3660 C   0  0  0  0  0  0  0  0  0  0  0  0
  140.0670   67.4910  226.4360 C   0  0  0  0  0  0  0  0  0  0  0  0
  140.8800   68.4290  227.0690 C   0  0  0  0  0  0  0  0  0  0  0  0
  140.9090   69.7570  226.6400 C   0  0  0  0  0  0  0  0  0  0  0  0
  140.1200   70.1530  225.5670 C   0  0  0  0  0  0  0  0  0  0  0  0
  140.2060   71.5830  225.1700 C   0  0  0  0  0  0  0  0  0  0  0  0
  140.3260   73.4730  222.4290 N   0  0  0  0  0  0  0  0  0  0  0  0
  141.0720   74.0480  221.4370 C   0  0  0  0  0  0  0  0  0  0  0  0
  140.7900   75.4090  221.1850 N   0  0  0  0  0  0  0  0  0  0  0  0
  140.6110   76.0060  219.8830 C   0  0  0  0  0  0  0  0  0  0  0  0
  141.4690   77.2160  219.6320 C   0  0  0  0  0  0  0  0  0  0  0  0
  141.4050   78.1390  220.7880 C   0  0  0  0  0  0  0  0  0  0  0  0
  141.7400   79.4570  220.5650 C   0  0  0  0  0  0  0  0  0  0  0  0
  141.7050   80.3790  221.5940 C   0  0  0  0  0  0  0  0  0  0  0  0
  141.3270   79.9380  222.8450 C   0  0  0  0  0  0  0  0  0  0  0  0
  140.9920   78.6030  223.0530 C   0  0  0  0  0  0  0  0  0  0  0  0
  141.0250   77.6860  222.0310 C   0  0  0  0  0  0  0  0  0  0  0  0
  140.6550   76.2940  222.3370 C   0  0  0  0  0  0  0  0  0  0  0  0
  145.5410   76.0230  216.8210 H   0  0  0  0  0  0  0  0  0  0  0  0
  144.7870   75.6130  215.3850 H   0  0  0  0  0  0  0  0  0  0  0  0
  142.9495   74.6448  217.2074 H   0  0  0  0  0  0  0  0  0  0  0  0
  142.9041   72.9464  216.4831 H   0  0  0  0  0  0  0  0  0  0  0  0
  142.3321   72.3122  218.4435 H   0  0  0  0  0  0  0  0  0  0  0  0
  144.1360   72.6054  218.8136 H   0  0  0  0  0  0  0  0  0  0  0  0
  143.7658   74.2992  220.1065 H   0  0  0  0  0  0  0  0  0  0  0  0
  142.2049   74.7410  219.2487 H   0  0  0  0  0  0  0  0  0  0  0  0
  142.8875   71.3556  220.6191 H   0  0  0  0  0  0  0  0  0  0  0  0
  137.6687   71.5279  224.2154 H   0  0  0  0  0  0  0  0  0  0  0  0
  138.1104   71.2590  222.4963 H   0  0  0  0  0  0  0  0  0  0  0  0
  137.4165   69.2264  223.9900 H   0  0  0  0  0  0  0  0  0  0  0  0
  138.8424   69.0919  222.8824 H   0  0  0  0  0  0  0  0  0  0  0  0
  138.6359   67.1926  224.8522 H   0  0  0  0  0  0  0  0  0  0  0  0
  140.0434   66.4441  226.7728 H   0  0  0  0  0  0  0  0  0  0  0  0
  141.5072   68.1190  227.9179 H   0  0  0  0  0  0  0  0  0  0  0  0
  141.5543   70.4876  227.1497 H   0  0  0  0  0  0  0  0  0  0  0  0
  139.5774   72.2051  225.8241 H   0  0  0  0  0  0  0  0  0  0  0  0
  141.2300   71.9760  225.2538 H   0  0  0  0  0  0  0  0  0  0  0  0
  140.8514   75.2495  219.1214 H   0  0  0  0  0  0  0  0  0  0  0  0
  139.5660   76.3459  219.8340 H   0  0  0  0  0  0  0  0  0  0  0  0
  142.5106   76.8971  219.4793 H   0  0  0  0  0  0  0  0  0  0  0  0
  141.0998   77.7374  218.7365 H   0  0  0  0  0  0  0  0  0  0  0  0
  142.0387   79.7789  219.5565 H   0  0  0  0  0  0  0  0  0  0  0  0
  141.9705   81.4323  221.4206 H   0  0  0  0  0  0  0  0  0  0  0  0
  141.2899   80.6470  223.6852 H   0  0  0  0  0  0  0  0  0  0  0  0
  140.6938   78.2747  224.0596 H   0  0  0  0  0  0  0  0  0  0  0  0
  141.3075   75.9254  223.1422 H   0  0  0  0  0  0  0  0  0  0  0  0
  139.5966   76.2899  222.6368 H   0  0  0  0  0  0  0  0  0  0  0  0
  1  2  1  0
  2  3  2  0
  2  4  2  0
  2  5  1  0
  5  6  1  0
  6  7  1  0
  7  8  1  0
  8  9  2  0
  9 10  1  0
 10 11  2  0
 11 12  1  0
 12 13  1  0
 13 14  1  0
 14 15  1  0
 15 16  2  0
 16 17  1  0
 17 18  2  0
 18 19  1  0
 19 20  2  0
 20 21  1  0
 11 22  1  0
 22 23  2  0
 23 24  1  0
 24 25  1  0
 25 26  1  0
 26 27  1  0
 27 28  2  0
 28 29  1  0
 29 30  2  0
 30 31  1  0
 31 32  2  0
 32 33  1  0
 23  8  1  0
 33 24  1  0
 21 12  1  0
 32 27  1  0
 20 15  1  0
  1 34  1  0
  1 35  1  0
  5 36  1  0
  5 37  1  0
  6 38  1  0
  6 39  1  0
  7 40  1  0
  7 41  1  0
  9 42  1  0
 13 43  1  0
 13 44  1  0
 14 45  1  0
 14 46  1  0
 16 47  1  0
 17 48  1  0
 18 49  1  0
 19 50  1  0
 21 51  1  0
 21 52  1  0
 25 53  1  0
 25 54  1  0
 26 55  1  0
 26 56  1  0
 28 57  1  0
 29 58  1  0
 30 59  1  0
 31 60  1  0
 33 61  1  0
 33 62  1  0
M  END
>  <smiles>  (34) 
NS(=O)(=O)CCCc1cnc(N2CCc3ccccc3C2)nc1N1CCc2ccccc2C1

>  <score_type>  (34) 
oracle

>  <origin>  (34) 
autodockgpu

>  <m_score__min__energy>  (34) 
-10.720000000000001

>  <m_primary>  (34) 
energy

>  <rmsd>  (34) 
4.181536808045386

>  <m_score__min__rmsd>  (34) 
4.181536808045386

>  <meeko>  (34) 
{"free_energy": -8.94, "intermolecular_energy": -11.02, "internal_energy": -1.08, "cluster_size": 30, "cluster_id": 1, "rank_in_cluster": 25}

>  <energy>  (34) 
-8.51

>  <cluster_rmsd>  (34) 
1.8

>  <cluster>  (34) 
3

$$$$

     RDKit          3D

 62 66  0  0  0  0  0  0  0  0999 V2000
  146.4010   73.5490  218.8780 N   0  0  0  0  0  0  0  0  0  0  0  0
  145.4260   73.3180  220.2650 S   0  0  0  0  0  0  0  0  0  0  0  0
  146.1660   73.7570  221.5060 O   0  0  0  0  0  0  0  0  0  0  0  0
  145.1750   71.8220  220.4420 O   0  0  0  0  0  0  0  0  0  0  0  0
  143.8810   74.1410  220.2330 C   0  0  0  0  0  0  0  0  0  0  0  0
  143.1430   74.0950  218.9420 C   0  0  0  0  0  0  0  0  0  0  0  0
  141.6670   73.9530  218.9830 C   0  0  0  0  0  0  0  0  0  0  0  0
  141.1450   73.3260  220.2140 C   0  0  0  0  0  0  0  0  0  0  0  0
  141.1720   71.9710  220.4680 C   0  0  0  0  0  0  0  0  0  0  0  0
  140.6780   71.4270  221.6080 N   0  0  0  0  0  0  0  0  0  0  0  0
  140.1400   72.2090  222.5330 C   0  0  0  0  0  0  0  0  0  0  0  0
  139.6220   71.6460  223.7300 N   0  0  0  0  0  0  0  0  0  0  0  0
  138.2610   71.1720  223.8290 C   0  0  0  0  0  0  0  0  0  0  0  0
  138.2650   69.6810  224.0160 C   0  0  0  0  0  0  0  0  0  0  0  0
  139.3930   69.2480  224.8800 C   0  0  0  0  0  0  0  0  0  0  0  0
  139.4000   67.9100  225.2720 C   0  0  0  0  0  0  0  0  0  0  0  0
  140.4100   67.3990  226.0810 C   0  0  0  0  0  0  0  0  0  0  0  0
  141.4220   68.2650  226.4940 C   0  0  0  0  0  0  0  0  0  0  0  0
  141.4190   69.6050  226.1050 C   0  0  0  0  0  0  0  0  0  0  0  0
  140.3980   70.0870  225.2960 C   0  0  0  0  0  0  0  0  0  0  0  0
  140.4670   71.5250  224.9250 C   0  0  0  0  0  0  0  0  0  0  0  0
  140.0780   73.5340  222.3550 N   0  0  0  0  0  0  0  0  0  0  0  0
  140.5680   74.1080  221.2150 C   0  0  0  0  0  0  0  0  0  0  0  0
  140.4370   75.5120  221.1430 N   0  0  0  0  0  0  0  0  0  0  0  0
  140.0950   76.2680  219.9620 C   0  0  0  0  0  0  0  0  0  0  0  0
  141.0490   77.3870  219.6440 C   0  0  0  0  0  0  0  0  0  0  0  0
  141.3400   78.1750  220.8620 C   0  0  0  0  0  0  0  0  0  0  0  0
  141.8070   79.4600  220.6870 C   0  0  0  0  0  0  0  0  0  0  0  0
  142.1020   80.2590  221.7760 C   0  0  0  0  0  0  0  0  0  0  0  0
  141.9160   79.7300  223.0350 C   0  0  0  0  0  0  0  0  0  0  0  0
  141.4430   78.4310  223.1940 C   0  0  0  0  0  0  0  0  0  0  0  0
  141.1490   77.6360  222.1130 C   0  0  0  0  0  0  0  0  0  0  0  0
  140.6540   76.2730  222.3690 C   0  0  0  0  0  0  0  0  0  0  0  0
  147.2420   74.1330  219.0870 H   0  0  0  0  0  0  0  0  0  0  0  0
  145.8530   74.0510  218.1580 H   0  0  0  0  0  0  0  0  0  0  0  0
  143.2410   73.6850  221.0027 H   0  0  0  0  0  0  0  0  0  0  0  0
  144.1077   75.2033  220.4067 H   0  0  0  0  0  0  0  0  0  0  0  0
  143.3660   75.0290  218.4054 H   0  0  0  0  0  0  0  0  0  0  0  0
  143.4926   73.1695  218.4611 H   0  0  0  0  0  0  0  0  0  0  0  0
  141.2230   74.9554  218.8934 H   0  0  0  0  0  0  0  0  0  0  0  0
  141.3943   73.2853  218.1525 H   0  0  0  0  0  0  0  0  0  0  0  0
  141.6130   71.3027  219.7138 H   0  0  0  0  0  0  0  0  0  0  0  0
  137.7679   71.6486  224.6891 H   0  0  0  0  0  0  0  0  0  0  0  0
  137.7153   71.4257  222.9082 H   0  0  0  0  0  0  0  0  0  0  0  0
  137.3175   69.3762  224.4844 H   0  0  0  0  0  0  0  0  0  0  0  0
  138.3818   69.2079  223.0298 H   0  0  0  0  0  0  0  0  0  0  0  0
  138.5910   67.2453  224.9350 H   0  0  0  0  0  0  0  0  0  0  0  0
  140.4103   66.3422  226.3861 H   0  0  0  0  0  0  0  0  0  0  0  0
  142.2326   67.8871  227.1344 H   0  0  0  0  0  0  0  0  0  0  0  0
  142.2230   70.2778  226.4381 H   0  0  0  0  0  0  0  0  0  0  0  0
  140.0786   72.1542  225.7394 H   0  0  0  0  0  0  0  0  0  0  0  0
  141.4992   71.8562  224.7385 H   0  0  0  0  0  0  0  0  0  0  0  0
  140.0756   75.5782  219.1053 H   0  0  0  0  0  0  0  0  0  0  0  0
  139.1182   76.7339  220.1588 H   0  0  0  0  0  0  0  0  0  0  0  0
  141.9862   76.9647  219.2524 H   0  0  0  0  0  0  0  0  0  0  0  0
  140.5899   78.0461  218.8925 H   0  0  0  0  0  0  0  0  0  0  0  0
  141.9465   79.8541  219.6696 H   0  0  0  0  0  0  0  0  0  0  0  0
  142.4738   81.2855  221.6417 H   0  0  0  0  0  0  0  0  0  0  0  0
  142.1434   80.3399  223.9218 H   0  0  0  0  0  0  0  0  0  0  0  0
  141.3012   78.0314  224.2090 H   0  0  0  0  0  0  0  0  0  0  0  0
  141.3922   75.7410  222.9871 H   0  0  0  0  0  0  0  0  0  0  0  0
  139.6840   76.3628  222.8798 H   0  0  0  0  0  0  0  0  0  0  0  0
  1  2  1  0
  2  3  2  0
  2  4  2  0
  2  5  1  0
  5  6  1  0
  6  7  1  0
  7  8  1  0
  8  9  2  0
  9 10  1  0
 10 11  2  0
 11 12  1  0
 12 13  1  0
 13 14  1  0
 14 15  1  0
 15 16  2  0
 16 17  1  0
 17 18  2  0
 18 19  1  0
 19 20  2  0
 20 21  1  0
 11 22  1  0
 22 23  2  0
 23 24  1  0
 24 25  1  0
 25 26  1  0
 26 27  1  0
 27 28  2  0
 28 29  1  0
 29 30  2  0
 30 31  1  0
 31 32  2  0
 32 33  1  0
 23  8  1  0
 33 24  1  0
 21 12  1  0
 32 27  1  0
 20 15  1  0
  1 34  1  0
  1 35  1  0
  5 36  1  0
  5 37  1  0
  6 38  1  0
  6 39  1  0
  7 40  1  0
  7 41  1  0
  9 42  1  0
 13 43  1  0
 13 44  1  0
 14 45  1  0
 14 46  1  0
 16 47  1  0
 17 48  1  0
 18 49  1  0
 19 50  1  0
 21 51  1  0
 21 52  1  0
 25 53  1  0
 25 54  1  0
 26 55  1  0
 26 56  1  0
 28 57  1  0
 29 58  1  0
 30 59  1  0
 31 60  1  0
 33 61  1  0
 33 62  1  0
M  END
>  <smiles>  (35) 
NS(=O)(=O)CCCc1cnc(N2CCc3ccccc3C2)nc1N1CCc2ccccc2C1

>  <score_type>  (35) 
oracle

>  <origin>  (35) 
autodockgpu

>  <m_score__min__energy>  (35) 
-10.720000000000001

>  <m_primary>  (35) 
energy

>  <rmsd>  (35) 
4.199492316444259

>  <m_score__min__rmsd>  (35) 
4.199492316444259

>  <meeko>  (35) 
{"free_energy": -10.33, "intermolecular_energy": -12.42, "internal_energy": -1.36, "cluster_size": 30, "cluster_id": 1, "rank_in_cluster": 8}

>  <energy>  (35) 
-8.31

>  <cluster_rmsd>  (35) 
0.88

>  <cluster>  (35) 
3

$$$$

     RDKit          3D

 62 66  0  0  0  0  0  0  0  0999 V2000
  146.0150   73.9820  220.1350 N   0  0  0  0  0  0  0  0  0  0  0  0
  144.3240   73.9770  219.8730 S   0  0  0  0  0  0  0  0  0  0  0  0
  143.8700   75.3180  219.3480 O   0  0  0  0  0  0  0  0  0  0  0  0
  143.6220   73.8020  221.2180 O   0  0  0  0  0  0  0  0  0  0  0  0
  143.7450   72.7410  218.7780 C   0  0  0  0  0  0  0  0  0  0  0  0
  142.4210   72.9940  218.1470 C   0  0  0  0  0  0  0  0  0  0  0  0
  141.4350   73.8140  218.8920 C   0  0  0  0  0  0  0  0  0  0  0  0
  140.9580   73.2070  220.1520 C   0  0  0  0  0  0  0  0  0  0  0  0
  140.9540   71.8520  220.4080 C   0  0  0  0  0  0  0  0  0  0  0  0
  140.5030   71.3250  221.5740 N   0  0  0  0  0  0  0  0  0  0  0  0
  140.0410   72.1260  222.5240 C   0  0  0  0  0  0  0  0  0  0  0  0
  139.5690   71.5820  223.7480 N   0  0  0  0  0  0  0  0  0  0  0  0
  138.2140   71.1090  223.9060 C   0  0  0  0  0  0  0  0  0  0  0  0
  138.2280   69.6210  224.1180 C   0  0  0  0  0  0  0  0  0  0  0  0
  139.3870   69.2040  224.9450 C   0  0  0  0  0  0  0  0  0  0  0  0
  139.4120   67.8720  225.3590 C   0  0  0  0  0  0  0  0  0  0  0  0
  140.4520   67.3760  226.1390 C   0  0  0  0  0  0  0  0  0  0  0  0
  141.4760   68.2500  226.4990 C   0  0  0  0  0  0  0  0  0  0  0  0
  141.4570   69.5830  226.0890 C   0  0  0  0  0  0  0  0  0  0  0  0
  140.4060   70.0510  225.3100 C   0  0  0  0  0  0  0  0  0  0  0  0
  140.4580   71.4830  224.9130 C   0  0  0  0  0  0  0  0  0  0  0  0
  140.0130   73.4530  222.3460 N   0  0  0  0  0  0  0  0  0  0  0  0
  140.4620   74.0080  221.1790 C   0  0  0  0  0  0  0  0  0  0  0  0
  140.3730   75.4160  221.1100 N   0  0  0  0  0  0  0  0  0  0  0  0
  140.0680   76.1850  219.9270 C   0  0  0  0  0  0  0  0  0  0  0  0
  141.0590   77.2750  219.6230 C   0  0  0  0  0  0  0  0  0  0  0  0
  141.3590   78.0520  220.8470 C   0  0  0  0  0  0  0  0  0  0  0  0
  141.8670   79.3220  220.6810 C   0  0  0  0  0  0  0  0  0  0  0  0
  142.1730   80.1090  221.7760 C   0  0  0  0  0  0  0  0  0  0  0  0
  141.9560   79.5830  223.0320 C   0  0  0  0  0  0  0  0  0  0  0  0
  141.4430   78.2980  223.1810 C   0  0  0  0  0  0  0  0  0  0  0  0
  141.1370   77.5150  222.0950 C   0  0  0  0  0  0  0  0  0  0  0  0
  140.5980   76.1670  222.3410 C   0  0  0  0  0  0  0  0  0  0  0  0
  146.3430   74.8890  220.5390 H   0  0  0  0  0  0  0  0  0  0  0  0
  146.4990   73.8590  219.2290 H   0  0  0  0  0  0  0  0  0  0  0  0
  144.4860   72.6317  217.9724 H   0  0  0  0  0  0  0  0  0  0  0  0
  143.6116   71.8393  219.3938 H   0  0  0  0  0  0  0  0  0  0  0  0
  142.6079   73.4999  217.1883 H   0  0  0  0  0  0  0  0  0  0  0  0
  141.9553   71.9996  218.0825 H   0  0  0  0  0  0  0  0  0  0  0  0
  141.9034   74.7799  219.1321 H   0  0  0  0  0  0  0  0  0  0  0  0
  140.5545   73.9121  218.2400 H   0  0  0  0  0  0  0  0  0  0  0  0
  141.3328   71.1689  219.6334 H   0  0  0  0  0  0  0  0  0  0  0  0
  137.7528   71.5996  224.7758 H   0  0  0  0  0  0  0  0  0  0  0  0
  137.6334   71.3467  223.0025 H   0  0  0  0  0  0  0  0  0  0  0  0
  137.2994   69.3230  224.6268 H   0  0  0  0  0  0  0  0  0  0  0  0
  138.3088   69.1317  223.1361 H   0  0  0  0  0  0  0  0  0  0  0  0
  138.5929   67.2002  225.0627 H   0  0  0  0  0  0  0  0  0  0  0  0
  140.4655   66.3246  226.4621 H   0  0  0  0  0  0  0  0  0  0  0  0
  142.3106   67.8836  227.1148 H   0  0  0  0  0  0  0  0  0  0  0  0
  142.2717   70.2618  226.3815 H   0  0  0  0  0  0  0  0  0  0  0  0
  140.0983   72.1251  225.7305 H   0  0  0  0  0  0  0  0  0  0  0  0
  141.4818   71.8132  224.6832 H   0  0  0  0  0  0  0  0  0  0  0  0
  140.0376   75.4982  219.0683 H   0  0  0  0  0  0  0  0  0  0  0  0
  139.1036   76.6801  220.1138 H   0  0  0  0  0  0  0  0  0  0  0  0
  141.9877   76.8253  219.2419 H   0  0  0  0  0  0  0  0  0  0  0  0
  140.6293   77.9491  218.8674 H   0  0  0  0  0  0  0  0  0  0  0  0
  142.0309   79.7141  219.6664 H   0  0  0  0  0  0  0  0  0  0  0  0
  142.5774   81.1241  221.6489 H   0  0  0  0  0  0  0  0  0  0  0  0
  142.1902   80.1838  223.9232 H   0  0  0  0  0  0  0  0  0  0  0  0
  141.2786   77.8998  224.1931 H   0  0  0  0  0  0  0  0  0  0  0  0
  141.3122   75.6114  222.9664 H   0  0  0  0  0  0  0  0  0  0  0  0
  139.6250   76.2848  222.8404 H   0  0  0  0  0  0  0  0  0  0  0  0
  1  2  1  0
  2  3  2  0
  2  4  2  0
  2  5  1  0
  5  6  1  0
  6  7  1  0
  7  8  1  0
  8  9  2  0
  9 10  1  0
 10 11  2  0
 11 12  1  0
 12 13  1  0
 13 14  1  0
 14 15  1  0
 15 16  2  0
 16 17  1  0
 17 18  2  0
 18 19  1  0
 19 20  2  0
 20 21  1  0
 11 22  1  0
 22 23  2  0
 23 24  1  0
 24 25  1  0
 25 26  1  0
 26 27  1  0
 27 28  2  0
 28 29  1  0
 29 30  2  0
 30 31  1  0
 31 32  2  0
 32 33  1  0
 23  8  1  0
 33 24  1  0
 21 12  1  0
 32 27  1  0
 20 15  1  0
  1 34  1  0
  1 35  1  0
  5 36  1  0
  5 37  1  0
  6 38  1  0
  6 39  1  0
  7 40  1  0
  7 41  1  0
  9 42  1  0
 13 43  1  0
 13 44  1  0
 14 45  1  0
 14 46  1  0
 16 47  1  0
 17 48  1  0
 18 49  1  0
 19 50  1  0
 21 51  1  0
 21 52  1  0
 25 53  1  0
 25 54  1  0
 26 55  1  0
 26 56  1  0
 28 57  1  0
 29 58  1  0
 30 59  1  0
 31 60  1  0
 33 61  1  0
 33 62  1  0
M  END
>  <smiles>  (36) 
NS(=O)(=O)CCCc1cnc(N2CCc3ccccc3C2)nc1N1CCc2ccccc2C1

>  <score_type>  (36) 
oracle

>  <origin>  (36) 
autodockgpu

>  <m_score__min__energy>  (36) 
-10.720000000000001

>  <m_primary>  (36) 
energy

>  <rmsd>  (36) 
4.304833642228986

>  <m_score__min__rmsd>  (36) 
4.304833642228986

>  <meeko>  (36) 
{"free_energy": -8.81, "intermolecular_energy": -10.9, "internal_energy": -1.64, "cluster_size": 30, "cluster_id": 1, "rank_in_cluster": 26}

>  <energy>  (36) 
-8.76

>  <cluster_rmsd>  (36) 
0.0

>  <cluster>  (36) 
4

$$$$

     RDKit          3D

 62 66  0  0  0  0  0  0  0  0999 V2000
  134.7090   68.5120  225.3930 N   0  0  0  0  0  0  0  0  0  0  0  0
  133.0030   68.4030  225.3380 S   0  0  0  0  0  0  0  0  0  0  0  0
  132.3840   69.3590  226.3290 O   0  0  0  0  0  0  0  0  0  0  0  0
  132.5880   67.0070  225.7990 O   0  0  0  0  0  0  0  0  0  0  0  0
  132.2880   68.7070  223.7700 C   0  0  0  0  0  0  0  0  0  0  0  0
  131.7200   70.0670  223.5630 C   0  0  0  0  0  0  0  0  0  0  0  0
  132.6590   71.2070  223.4340 C   0  0  0  0  0  0  0  0  0  0  0  0
  134.0880   70.8350  223.4920 C   0  0  0  0  0  0  0  0  0  0  0  0
  134.7140   70.0140  222.5780 C   0  0  0  0  0  0  0  0  0  0  0  0
  136.0280   69.6870  222.6640 N   0  0  0  0  0  0  0  0  0  0  0  0
  136.7630   70.1640  223.6580 C   0  0  0  0  0  0  0  0  0  0  0  0
  138.1400   69.8280  223.7530 N   0  0  0  0  0  0  0  0  0  0  0  0
  139.1840   70.7590  223.3950 C   0  0  0  0  0  0  0  0  0  0  0  0
  139.9620   71.1330  224.6260 C   0  0  0  0  0  0  0  0  0  0  0  0
  140.1190   69.9720  225.5380 C   0  0  0  0  0  0  0  0  0  0  0  0
  140.9720   70.1460  226.6280 C   0  0  0  0  0  0  0  0  0  0  0  0
  141.1910   69.1230  227.5440 C   0  0  0  0  0  0  0  0  0  0  0  0
  140.5330   67.9110  227.3460 C   0  0  0  0  0  0  0  0  0  0  0  0
  139.6790   67.7310  226.2570 C   0  0  0  0  0  0  0  0  0  0  0  0
  139.4780   68.7700  225.3570 C   0  0  0  0  0  0  0  0  0  0  0  0
  138.5530   68.5000  224.2250 C   0  0  0  0  0  0  0  0  0  0  0  0
  136.2230   70.9670  224.5830 N   0  0  0  0  0  0  0  0  0  0  0  0
  134.9010   71.3120  224.5200 C   0  0  0  0  0  0  0  0  0  0  0  0
  134.4490   72.1570  225.5560 N   0  0  0  0  0  0  0  0  0  0  0  0
  133.8570   71.7250  226.8000 C   0  0  0  0  0  0  0  0  0  0  0  0
  132.5350   72.3690  227.1150 C   0  0  0  0  0  0  0  0  0  0  0  0
  132.6130   73.8320  226.9030 C   0  0  0  0  0  0  0  0  0  0  0  0
  131.6830   74.6150  227.5510 C   0  0  0  0  0  0  0  0  0  0  0  0
  131.6900   75.9900  227.4030 C   0  0  0  0  0  0  0  0  0  0  0  0
  132.6530   76.5470  226.5890 C   0  0  0  0  0  0  0  0  0  0  0  0
  133.5850   75.7410  225.9410 C   0  0  0  0  0  0  0  0  0  0  0  0
  133.5790   74.3750  226.0880 C   0  0  0  0  0  0  0  0  0  0  0  0
  134.6000   73.5960  225.3670 C   0  0  0  0  0  0  0  0  0  0  0  0
  135.0930   69.0140  224.5600 H   0  0  0  0  0  0  0  0  0  0  0  0
  135.1110   67.5580  225.3850 H   0  0  0  0  0  0  0  0  0  0  0  0
  133.0663   68.5482  223.0090 H   0  0  0  0  0  0  0  0  0  0  0  0
  131.4357   68.0157  223.6944 H   0  0  0  0  0  0  0  0  0  0  0  0
  131.1201   70.0330  222.6416 H   0  0  0  0  0  0  0  0  0  0  0  0
  131.1657   70.2745  224.4902 H   0  0  0  0  0  0  0  0  0  0  0  0
  132.4712   71.6989  222.4682 H   0  0  0  0  0  0  0  0  0  0  0  0
  132.4722   71.8645  224.2959 H   0  0  0  0  0  0  0  0  0  0  0  0
  134.1233   69.6071  221.7441 H   0  0  0  0  0  0  0  0  0  0  0  0
  139.8582   70.2908  222.6627 H   0  0  0  0  0  0  0  0  0  0  0  0
  138.7364   71.6620  222.9543 H   0  0  0  0  0  0  0  0  0  0  0  0
  140.9581   71.4901  224.3257 H   0  0  0  0  0  0  0  0  0  0  0  0
  139.4106   71.9214  225.1592 H   0  0  0  0  0  0  0  0  0  0  0  0
  141.4813   71.1113  226.7656 H   0  0  0  0  0  0  0  0  0  0  0  0
  141.8651   69.2667  228.4013 H   0  0  0  0  0  0  0  0  0  0  0  0
  140.6885   67.0859  228.0567 H   0  0  0  0  0  0  0  0  0  0  0  0
  139.1663   66.7687  226.1116 H   0  0  0  0  0  0  0  0  0  0  0  0
  139.0694   67.9480  223.4258 H   0  0  0  0  0  0  0  0  0  0  0  0
  137.6951   67.8818  224.5282 H   0  0  0  0  0  0  0  0  0  0  0  0
  133.7062   70.6365  226.7497 H   0  0  0  0  0  0  0  0  0  0  0  0
  134.5509   72.0250  227.5990 H   0  0  0  0  0  0  0  0  0  0  0  0
  131.7603   71.9478  226.4574 H   0  0  0  0  0  0  0  0  0  0  0  0
  132.2831   72.1728  228.1676 H   0  0  0  0  0  0  0  0  0  0  0  0
  130.9262   74.1411  228.1934 H   0  0  0  0  0  0  0  0  0  0  0  0
  130.9501   76.6196  227.9188 H   0  0  0  0  0  0  0  0  0  0  0  0
  132.6853   77.6377  226.4503 H   0  0  0  0  0  0  0  0  0  0  0  0
  134.3438   76.2087  225.2964 H   0  0  0  0  0  0  0  0  0  0  0  0
  134.5200   73.8200  224.2930 H   0  0  0  0  0  0  0  0  0  0  0  0
  135.5824   73.8825  225.7706 H   0  0  0  0  0  0  0  0  0  0  0  0
  1  2  1  0
  2  3  2  0
  2  4  2  0
  2  5  1  0
  5  6  1  0
  6  7  1  0
  7  8  1  0
  8  9  2  0
  9 10  1  0
 10 11  2  0
 11 12  1  0
 12 13  1  0
 13 14  1  0
 14 15  1  0
 15 16  2  0
 16 17  1  0
 17 18  2  0
 18 19  1  0
 19 20  2  0
 20 21  1  0
 11 22  1  0
 22 23  2  0
 23 24  1  0
 24 25  1  0
 25 26  1  0
 26 27  1  0
 27 28  2  0
 28 29  1  0
 29 30  2  0
 30 31  1  0
 31 32  2  0
 32 33  1  0
 23  8  1  0
 33 24  1  0
 21 12  1  0
 32 27  1  0
 20 15  1  0
  1 34  1  0
  1 35  1  0
  5 36  1  0
  5 37  1  0
  6 38  1  0
  6 39  1  0
  7 40  1  0
  7 41  1  0
  9 42  1  0
 13 43  1  0
 13 44  1  0
 14 45  1  0
 14 46  1  0
 16 47  1  0
 17 48  1  0
 18 49  1  0
 19 50  1  0
 21 51  1  0
 21 52  1  0
 25 53  1  0
 25 54  1  0
 26 55  1  0
 26 56  1  0
 28 57  1  0
 29 58  1  0
 30 59  1  0
 31 60  1  0
 33 61  1  0
 33 62  1  0
M  END
>  <smiles>  (37) 
NS(=O)(=O)CCCc1cnc(N2CCc3ccccc3C2)nc1N1CCc2ccccc2C1

>  <score_type>  (37) 
oracle

>  <origin>  (37) 
autodockgpu

>  <m_score__min__energy>  (37) 
-10.720000000000001

>  <m_primary>  (37) 
energy

>  <rmsd>  (37) 
10.87081074928733

>  <m_score__min__rmsd>  (37) 
10.87081074928733

>  <meeko>  (37) 
{"free_energy": -7.18, "intermolecular_energy": -9.27, "internal_energy": -2.77, "cluster_size": 3, "cluster_id": 7, "rank_in_cluster": 3}

>  <energy>  (37) 
-8.05

>  <cluster_rmsd>  (37) 
1.09

>  <cluster>  (37) 
4

$$$$

     RDKit          3D

 62 66  0  0  0  0  0  0  0  0999 V2000
  144.3100   72.0860  221.0870 N   0  0  0  0  0  0  0  0  0  0  0  0
  145.1190   73.1950  220.0670 S   0  0  0  0  0  0  0  0  0  0  0  0
  146.3420   72.5530  219.4580 O   0  0  0  0  0  0  0  0  0  0  0  0
  145.6400   74.3510  220.9180 O   0  0  0  0  0  0  0  0  0  0  0  0
  144.1470   73.8540  218.7680 C   0  0  0  0  0  0  0  0  0  0  0  0
  142.9510   74.6370  219.1790 C   0  0  0  0  0  0  0  0  0  0  0  0
  141.6170   74.0020  219.0480 C   0  0  0  0  0  0  0  0  0  0  0  0
  141.1130   73.3710  220.2850 C   0  0  0  0  0  0  0  0  0  0  0  0
  141.1380   72.0140  220.5320 C   0  0  0  0  0  0  0  0  0  0  0  0
  140.6610   71.4670  221.6770 N   0  0  0  0  0  0  0  0  0  0  0  0
  140.1450   72.2470  222.6160 C   0  0  0  0  0  0  0  0  0  0  0  0
  139.6450   71.6800  223.8190 N   0  0  0  0  0  0  0  0  0  0  0  0
  138.2800   71.2250  223.9440 C   0  0  0  0  0  0  0  0  0  0  0  0
  138.2670   69.7320  224.1180 C   0  0  0  0  0  0  0  0  0  0  0  0
  139.4070   69.2760  224.9520 C   0  0  0  0  0  0  0  0  0  0  0  0
  139.4040   67.9340  225.3330 C   0  0  0  0  0  0  0  0  0  0  0  0
  140.4240   67.4020  226.1150 C   0  0  0  0  0  0  0  0  0  0  0  0
  141.4560   68.2490  226.5130 C   0  0  0  0  0  0  0  0  0  0  0  0
  141.4640   69.5930  226.1360 C   0  0  0  0  0  0  0  0  0  0  0  0
  140.4330   70.0970  225.3540 C   0  0  0  0  0  0  0  0  0  0  0  0
  140.5140   71.5370  224.9940 C   0  0  0  0  0  0  0  0  0  0  0  0
  140.0860   73.5730  222.4460 N   0  0  0  0  0  0  0  0  0  0  0  0
  140.5600   74.1500  221.3000 C   0  0  0  0  0  0  0  0  0  0  0  0
  140.4340   75.5550  221.2380 N   0  0  0  0  0  0  0  0  0  0  0  0
  140.0620   76.3180  220.0710 C   0  0  0  0  0  0  0  0  0  0  0  0
  141.0130   77.4330  219.7290 C   0  0  0  0  0  0  0  0  0  0  0  0
  141.3450   78.2150  220.9410 C   0  0  0  0  0  0  0  0  0  0  0  0
  141.8140   79.4970  220.7570 C   0  0  0  0  0  0  0  0  0  0  0  0
  142.1470   80.2900  221.8400 C   0  0  0  0  0  0  0  0  0  0  0  0
  141.9940   79.7570  223.1030 C   0  0  0  0  0  0  0  0  0  0  0  0
  141.5190   78.4590  223.2700 C   0  0  0  0  0  0  0  0  0  0  0  0
  141.1870   77.6710  222.1950 C   0  0  0  0  0  0  0  0  0  0  0  0
  140.6920   76.3100  222.4600 C   0  0  0  0  0  0  0  0  0  0  0  0
  143.4210   72.4830  221.4660 H   0  0  0  0  0  0  0  0  0  0  0  0
  144.9150   71.8660  221.8970 H   0  0  0  0  0  0  0  0  0  0  0  0
  144.7908   74.5137  218.1677 H   0  0  0  0  0  0  0  0  0  0  0  0
  143.7568   72.9838  218.2198 H   0  0  0  0  0  0  0  0  0  0  0  0
  143.0832   74.9019  220.2384 H   0  0  0  0  0  0  0  0  0  0  0  0
  142.9217   75.4796  218.4725 H   0  0  0  0  0  0  0  0  0  0  0  0
  140.8978   74.7749  218.7393 H   0  0  0  0  0  0  0  0  0  0  0  0
  141.7267   73.1952  218.3084 H   0  0  0  0  0  0  0  0  0  0  0  0
  141.5631   71.3474  219.7672 H   0  0  0  0  0  0  0  0  0  0  0  0
  137.8129   71.7008  224.8189 H   0  0  0  0  0  0  0  0  0  0  0  0
  137.7176   71.4949  223.0380 H   0  0  0  0  0  0  0  0  0  0  0  0
  137.3260   69.4362  224.6049 H   0  0  0  0  0  0  0  0  0  0  0  0
  138.3549   69.2661  223.1254 H   0  0  0  0  0  0  0  0  0  0  0  0
  138.5785   67.2835  225.0085 H   0  0  0  0  0  0  0  0  0  0  0  0
  140.4160   66.3425  226.4108 H   0  0  0  0  0  0  0  0  0  0  0  0
  142.2748   67.8537  227.1321 H   0  0  0  0  0  0  0  0  0  0  0  0
  142.2847   70.2511  226.4575 H   0  0  0  0  0  0  0  0  0  0  0  0
  140.1522   72.1643  225.8220 H   0  0  0  0  0  0  0  0  0  0  0  0
  141.5464   71.8557  224.7878 H   0  0  0  0  0  0  0  0  0  0  0  0
  140.0130   75.6320  219.2125 H   0  0  0  0  0  0  0  0  0  0  0  0
  139.0944   76.7890  220.2988 H   0  0  0  0  0  0  0  0  0  0  0  0
  141.9356   77.0067  219.3082 H   0  0  0  0  0  0  0  0  0  0  0  0
  140.5355   78.0977  218.9940 H   0  0  0  0  0  0  0  0  0  0  0  0
  141.9249   79.8945  219.7373 H   0  0  0  0  0  0  0  0  0  0  0  0
  142.5223   81.3143  221.6986 H   0  0  0  0  0  0  0  0  0  0  0  0
  142.2493   80.3623  223.9853 H   0  0  0  0  0  0  0  0  0  0  0  0
  141.4069   78.0549  224.2869 H   0  0  0  0  0  0  0  0  0  0  0  0
  141.4452   75.7713  223.0537 H   0  0  0  0  0  0  0  0  0  0  0  0
  139.7381   76.4034  222.9997 H   0  0  0  0  0  0  0  0  0  0  0  0
  1  2  1  0
  2  3  2  0
  2  4  2  0
  2  5  1  0
  5  6  1  0
  6  7  1  0
  7  8  1  0
  8  9  2  0
  9 10  1  0
 10 11  2  0
 11 12  1  0
 12 13  1  0
 13 14  1  0
 14 15  1  0
 15 16  2  0
 16 17  1  0
 17 18  2  0
 18 19  1  0
 19 20  2  0
 20 21  1  0
 11 22  1  0
 22 23  2  0
 23 24  1  0
 24 25  1  0
 25 26  1  0
 26 27  1  0
 27 28  2  0
 28 29  1  0
 29 30  2  0
 30 31  1  0
 31 32  2  0
 32 33  1  0
 23  8  1  0
 33 24  1  0
 21 12  1  0
 32 27  1  0
 20 15  1  0
  1 34  1  0
  1 35  1  0
  5 36  1  0
  5 37  1  0
  6 38  1  0
  6 39  1  0
  7 40  1  0
  7 41  1  0
  9 42  1  0
 13 43  1  0
 13 44  1  0
 14 45  1  0
 14 46  1  0
 16 47  1  0
 17 48  1  0
 18 49  1  0
 19 50  1  0
 21 51  1  0
 21 52  1  0
 25 53  1  0
 25 54  1  0
 26 55  1  0
 26 56  1  0
 28 57  1  0
 29 58  1  0
 30 59  1  0
 31 60  1  0
 33 61  1  0
 33 62  1  0
M  END
>  <smiles>  (38) 
NS(=O)(=O)CCCc1cnc(N2CCc3ccccc3C2)nc1N1CCc2ccccc2C1

>  <score_type>  (38) 
oracle

>  <origin>  (38) 
autodockgpu

>  <m_score__min__energy>  (38) 
-10.720000000000001

>  <m_primary>  (38) 
energy

>  <rmsd>  (38) 
4.259709397645889

>  <m_score__min__rmsd>  (38) 
4.259709397645889

>  <meeko>  (38) 
{"free_energy": -9.81, "intermolecular_energy": -11.9, "internal_energy": -1.44, "cluster_size": 30, "cluster_id": 1, "rank_in_cluster": 15}

>  <energy>  (38) 
-8.27

>  <cluster_rmsd>  (38) 
0.0

>  <cluster>  (38) 
5

$$$$

     RDKit          3D

 62 66  0  0  0  0  0  0  0  0999 V2000
  138.6050   74.2640  222.2890 N   0  0  0  0  0  0  0  0  0  0  0  0
  140.1660   74.3680  221.5980 S   0  0  0  0  0  0  0  0  0  0  0  0
  140.9710   75.4490  222.2790 O   0  0  0  0  0  0  0  0  0  0  0  0
  140.0280   74.8120  220.1430 O   0  0  0  0  0  0  0  0  0  0  0  0
  141.0990   72.8870  221.6420 C   0  0  0  0  0  0  0  0  0  0  0  0
  140.8260   71.9110  220.5520 C   0  0  0  0  0  0  0  0  0  0  0  0
  139.7710   70.8920  220.7710 C   0  0  0  0  0  0  0  0  0  0  0  0
  138.5040   71.4270  221.3090 C   0  0  0  0  0  0  0  0  0  0  0  0
  137.5570   72.0880  220.5550 C   0  0  0  0  0  0  0  0  0  0  0  0
  136.4050   72.5730  221.0830 N   0  0  0  0  0  0  0  0  0  0  0  0
  136.1540   72.4170  222.3750 C   0  0  0  0  0  0  0  0  0  0  0  0
  134.9490   72.9200  222.9340 N   0  0  0  0  0  0  0  0  0  0  0  0
  134.1480   72.1470  223.8540 C   0  0  0  0  0  0  0  0  0  0  0  0
  134.1690   72.8050  225.2060 C   0  0  0  0  0  0  0  0  0  0  0  0
  134.1560   74.2850  225.0860 C   0  0  0  0  0  0  0  0  0  0  0  0
  133.9940   75.0050  226.2700 C   0  0  0  0  0  0  0  0  0  0  0  0
  133.9670   76.3960  226.2710 C   0  0  0  0  0  0  0  0  0  0  0  0
  134.1070   77.0570  225.0530 C   0  0  0  0  0  0  0  0  0  0  0  0
  134.2690   76.3420  223.8650 C   0  0  0  0  0  0  0  0  0  0  0  0
  134.2930   74.9530  223.8930 C   0  0  0  0  0  0  0  0  0  0  0  0
  134.4700   74.2640  222.5880 C   0  0  0  0  0  0  0  0  0  0  0  0
  137.0280   71.7860  223.1690 N   0  0  0  0  0  0  0  0  0  0  0  0
  138.1970   71.2890  222.6620 C   0  0  0  0  0  0  0  0  0  0  0  0
  139.0370   70.6520  223.6020 N   0  0  0  0  0  0  0  0  0  0  0  0
  139.2000   69.2260  223.7570 C   0  0  0  0  0  0  0  0  0  0  0  0
  138.9990   68.7280  225.1620 C   0  0  0  0  0  0  0  0  0  0  0  0
  139.7420   69.5780  226.1200 C   0  0  0  0  0  0  0  0  0  0  0  0
  140.0430   69.0330  227.3490 C   0  0  0  0  0  0  0  0  0  0  0  0
  140.7340   69.7640  228.2970 C   0  0  0  0  0  0  0  0  0  0  0  0
  141.1090   71.0510  227.9730 C   0  0  0  0  0  0  0  0  0  0  0  0
  140.7970   71.5870  226.7270 C   0  0  0  0  0  0  0  0  0  0  0  0
  140.1110   70.8610  225.7840 C   0  0  0  0  0  0  0  0  0  0  0  0
  139.8220   71.5030  224.4910 C   0  0  0  0  0  0  0  0  0  0  0  0
  138.5220   73.4520  222.9430 H   0  0  0  0  0  0  0  0  0  0  0  0
  137.9100   74.1210  221.5370 H   0  0  0  0  0  0  0  0  0  0  0  0
  142.1638   73.1585  221.5917 H   0  0  0  0  0  0  0  0  0  0  0  0
  140.8070   72.3803  222.5736 H   0  0  0  0  0  0  0  0  0  0  0  0
  140.5409   72.4891  219.6606 H   0  0  0  0  0  0  0  0  0  0  0  0
  141.7550   71.3278  220.4698 H   0  0  0  0  0  0  0  0  0  0  0  0
  139.5571   70.4066  219.8074 H   0  0  0  0  0  0  0  0  0  0  0  0
  140.1619   70.1950  221.5269 H   0  0  0  0  0  0  0  0  0  0  0  0
  137.7436   72.2279  219.4800 H   0  0  0  0  0  0  0  0  0  0  0  0
  133.1125   72.0960  223.4863 H   0  0  0  0  0  0  0  0  0  0  0  0
  134.5574   71.1291  223.9334 H   0  0  0  0  0  0  0  0  0  0  0  0
  133.2838   72.4838  225.7746 H   0  0  0  0  0  0  0  0  0  0  0  0
  135.0930   72.5067  225.7230 H   0  0  0  0  0  0  0  0  0  0  0  0
  133.8856   74.4626  227.2208 H   0  0  0  0  0  0  0  0  0  0  0  0
  133.8386   76.9582  227.2077 H   0  0  0  0  0  0  0  0  0  0  0  0
  134.0897   78.1566  225.0268 H   0  0  0  0  0  0  0  0  0  0  0  0
  134.3773   76.8765  222.9097 H   0  0  0  0  0  0  0  0  0  0  0  0
  133.5138   74.2070  222.0473 H   0  0  0  0  0  0  0  0  0  0  0  0
  135.1711   74.7973  221.9292 H   0  0  0  0  0  0  0  0  0  0  0  0
  138.4699   68.7232  223.1058 H   0  0  0  0  0  0  0  0  0  0  0  0
  140.2419   68.9975  223.4884 H   0  0  0  0  0  0  0  0  0  0  0  0
  137.9271   68.7566  225.4072 H   0  0  0  0  0  0  0  0  0  0  0  0
  139.3745   67.6965  225.2331 H   0  0  0  0  0  0  0  0  0  0  0  0
  139.7297   68.0039  227.5786 H   0  0  0  0  0  0  0  0  0  0  0  0
  140.9772   69.3327  229.2792 H   0  0  0  0  0  0  0  0  0  0  0  0
  141.6595   71.6593  228.7058 H   0  0  0  0  0  0  0  0  0  0  0  0
  141.1070   72.6159  226.4919 H   0  0  0  0  0  0  0  0  0  0  0  0
  139.2606   72.4306  224.6764 H   0  0  0  0  0  0  0  0  0  0  0  0
  140.7843   71.7016  223.9964 H   0  0  0  0  0  0  0  0  0  0  0  0
  1  2  1  0
  2  3  2  0
  2  4  2  0
  2  5  1  0
  5  6  1  0
  6  7  1  0
  7  8  1  0
  8  9  2  0
  9 10  1  0
 10 11  2  0
 11 12  1  0
 12 13  1  0
 13 14  1  0
 14 15  1  0
 15 16  2  0
 16 17  1  0
 17 18  2  0
 18 19  1  0
 19 20  2  0
 20 21  1  0
 11 22  1  0
 22 23  2  0
 23 24  1  0
 24 25  1  0
 25 26  1  0
 26 27  1  0
 27 28  2  0
 28 29  1  0
 29 30  2  0
 30 31  1  0
 31 32  2  0
 32 33  1  0
 23  8  1  0
 33 24  1  0
 21 12  1  0
 32 27  1  0
 20 15  1  0
  1 34  1  0
  1 35  1  0
  5 36  1  0
  5 37  1  0
  6 38  1  0
  6 39  1  0
  7 40  1  0
  7 41  1  0
  9 42  1  0
 13 43  1  0
 13 44  1  0
 14 45  1  0
 14 46  1  0
 16 47  1  0
 17 48  1  0
 18 49  1  0
 19 50  1  0
 21 51  1  0
 21 52  1  0
 25 53  1  0
 25 54  1  0
 26 55  1  0
 26 56  1  0
 28 57  1  0
 29 58  1  0
 30 59  1  0
 31 60  1  0
 33 61  1  0
 33 62  1  0
M  END
>  <smiles>  (39) 
NS(=O)(=O)CCCc1cnc(N2CCc3ccccc3C2)nc1N1CCc2ccccc2C1

>  <score_type>  (39) 
oracle

>  <origin>  (39) 
autodockgpu

>  <m_score__min__energy>  (39) 
-10.720000000000001

>  <m_primary>  (39) 
energy

>  <rmsd>  (39) 
9.88009799726493

>  <m_score__min__rmsd>  (39) 
9.88009799726493

>  <meeko>  (39) 
{"free_energy": -6.95, "intermolecular_energy": -9.04, "internal_energy": -2.99, "cluster_size": 3, "cluster_id": 8, "rank_in_cluster": 3}

>  <energy>  (39) 
-7.91

>  <cluster_rmsd>  (39) 
0.0

>  <cluster>  (39) 
6

$$$$

     RDKit          3D

 62 66  0  0  0  0  0  0  0  0999 V2000
  141.4520   75.7780  221.9480 N   0  0  0  0  0  0  0  0  0  0  0  0
  140.4690   74.4720  221.4460 S   0  0  0  0  0  0  0  0  0  0  0  0
  139.2420   74.9830  220.7290 O   0  0  0  0  0  0  0  0  0  0  0  0
  139.9490   73.7460  222.6850 O   0  0  0  0  0  0  0  0  0  0  0  0
  141.2570   73.3040  220.4070 C   0  0  0  0  0  0  0  0  0  0  0  0
  141.4410   71.9420  220.9770 C   0  0  0  0  0  0  0  0  0  0  0  0
  140.3290   70.9690  220.8410 C   0  0  0  0  0  0  0  0  0  0  0  0
  139.0090   71.4850  221.2560 C   0  0  0  0  0  0  0  0  0  0  0  0
  138.1560   72.1890  220.4330 C   0  0  0  0  0  0  0  0  0  0  0  0
  136.9510   72.6550  220.8480 N   0  0  0  0  0  0  0  0  0  0  0  0
  136.5530   72.4360  222.0930 C   0  0  0  0  0  0  0  0  0  0  0  0
  135.2920   72.9180  222.5330 N   0  0  0  0  0  0  0  0  0  0  0  0
  134.2440   72.0300  222.9820 C   0  0  0  0  0  0  0  0  0  0  0  0
  133.9990   72.2500  224.4480 C   0  0  0  0  0  0  0  0  0  0  0  0
  134.1240   73.6850  224.8080 C   0  0  0  0  0  0  0  0  0  0  0  0
  133.7460   74.0390  226.1030 C   0  0  0  0  0  0  0  0  0  0  0  0
  133.8220   75.3570  226.5430 C   0  0  0  0  0  0  0  0  0  0  0  0
  134.2900   76.3210  225.6530 C   0  0  0  0  0  0  0  0  0  0  0  0
  134.6690   75.9730  224.3560 C   0  0  0  0  0  0  0  0  0  0  0  0
  134.5830   74.6490  223.9420 C   0  0  0  0  0  0  0  0  0  0  0  0
  135.0070   74.3590  222.5470 C   0  0  0  0  0  0  0  0  0  0  0  0
  137.3280   71.7600  222.9490 N   0  0  0  0  0  0  0  0  0  0  0  0
  138.5470   71.2810  222.5560 C   0  0  0  0  0  0  0  0  0  0  0  0
  139.2730   70.5920  223.5530 N   0  0  0  0  0  0  0  0  0  0  0  0
  139.3020   69.1610  223.7370 C   0  0  0  0  0  0  0  0  0  0  0  0
  138.9770   68.7090  225.1350 C   0  0  0  0  0  0  0  0  0  0  0  0
  139.7350   69.5100  226.1230 C   0  0  0  0  0  0  0  0  0  0  0  0
  139.9140   68.9640  227.3750 C   0  0  0  0  0  0  0  0  0  0  0  0
  140.6100   69.6510  228.3520 C   0  0  0  0  0  0  0  0  0  0  0  0
  141.1140   70.8940  228.0340 C   0  0  0  0  0  0  0  0  0  0  0  0
  140.9230   71.4310  226.7640 C   0  0  0  0  0  0  0  0  0  0  0  0
  140.2330   70.7490  225.7920 C   0  0  0  0  0  0  0  0  0  0  0  0
  140.0760   71.3890  224.4750 C   0  0  0  0  0  0  0  0  0  0  0  0
  141.3930   76.5860  221.2870 H   0  0  0  0  0  0  0  0  0  0  0  0
  142.4400   75.4720  221.9660 H   0  0  0  0  0  0  0  0  0  0  0  0
  140.6542   73.2071  219.4920 H   0  0  0  0  0  0  0  0  0  0  0  0
  142.2717   73.6942  220.2390 H   0  0  0  0  0  0  0  0  0  0  0  0
  142.3223   71.5004  220.4888 H   0  0  0  0  0  0  0  0  0  0  0  0
  141.5258   72.1093  222.0609 H   0  0  0  0  0  0  0  0  0  0  0  0
  140.2635   70.6676  219.7851 H   0  0  0  0  0  0  0  0  0  0  0  0
  140.5628   70.1310  221.5141 H   0  0  0  0  0  0  0  0  0  0  0  0
  138.4656   72.3813  219.3951 H   0  0  0  0  0  0  0  0  0  0  0  0
  133.3213   72.2374  222.4203 H   0  0  0  0  0  0  0  0  0  0  0  0
  134.5481   70.9866  222.8123 H   0  0  0  0  0  0  0  0  0  0  0  0
  132.9845   71.9054  224.6971 H   0  0  0  0  0  0  0  0  0  0  0  0
  134.7532   71.6837  225.0142 H   0  0  0  0  0  0  0  0  0  0  0  0
  133.3807   73.2613  226.7898 H   0  0  0  0  0  0  0  0  0  0  0  0
  133.5209   75.6300  227.5652 H   0  0  0  0  0  0  0  0  0  0  0  0
  134.3617   77.3698  225.9768 H   0  0  0  0  0  0  0  0  0  0  0  0
  135.0350   76.7447  223.6628 H   0  0  0  0  0  0  0  0  0  0  0  0
  134.2010   74.6014  221.8387 H   0  0  0  0  0  0  0  0  0  0  0  0
  135.8792   74.9576  222.2453 H   0  0  0  0  0  0  0  0  0  0  0  0
  138.5699   68.7106  223.0505 H   0  0  0  0  0  0  0  0  0  0  0  0
  140.3339   68.8385  223.5339 H   0  0  0  0  0  0  0  0  0  0  0  0
  137.8993   68.8349  225.3158 H   0  0  0  0  0  0  0  0  0  0  0  0
  139.2559   67.6504  225.2428 H   0  0  0  0  0  0  0  0  0  0  0  0
  139.4986   67.9706  227.5997 H   0  0  0  0  0  0  0  0  0  0  0  0
  140.7572   69.2189  229.3528 H   0  0  0  0  0  0  0  0  0  0  0  0
  141.6717   71.4662  228.7900 H   0  0  0  0  0  0  0  0  0  0  0  0
  141.3344   72.4248  226.5336 H   0  0  0  0  0  0  0  0  0  0  0  0
  139.5874   72.3647  224.6140 H   0  0  0  0  0  0  0  0  0  0  0  0
  141.0789   71.4948  224.0356 H   0  0  0  0  0  0  0  0  0  0  0  0
  1  2  1  0
  2  3  2  0
  2  4  2  0
  2  5  1  0
  5  6  1  0
  6  7  1  0
  7  8  1  0
  8  9  2  0
  9 10  1  0
 10 11  2  0
 11 12  1  0
 12 13  1  0
 13 14  1  0
 14 15  1  0
 15 16  2  0
 16 17  1  0
 17 18  2  0
 18 19  1  0
 19 20  2  0
 20 21  1  0
 11 22  1  0
 22 23  2  0
 23 24  1  0
 24 25  1  0
 25 26  1  0
 26 27  1  0
 27 28  2  0
 28 29  1  0
 29 30  2  0
 30 31  1  0
 31 32  2  0
 32 33  1  0
 23  8  1  0
 33 24  1  0
 21 12  1  0
 32 27  1  0
 20 15  1  0
  1 34  1  0
  1 35  1  0
  5 36  1  0
  5 37  1  0
  6 38  1  0
  6 39  1  0
  7 40  1  0
  7 41  1  0
  9 42  1  0
 13 43  1  0
 13 44  1  0
 14 45  1  0
 14 46  1  0
 16 47  1  0
 17 48  1  0
 18 49  1  0
 19 50  1  0
 21 51  1  0
 21 52  1  0
 25 53  1  0
 25 54  1  0
 26 55  1  0
 26 56  1  0
 28 57  1  0
 29 58  1  0
 30 59  1  0
 31 60  1  0
 33 61  1  0
 33 62  1  0
M  END
>  <smiles>  (40) 
NS(=O)(=O)CCCc1cnc(N2CCc3ccccc3C2)nc1N1CCc2ccccc2C1

>  <score_type>  (40) 
oracle

>  <origin>  (40) 
autodockgpu

>  <m_score__min__energy>  (40) 
-10.720000000000001

>  <m_primary>  (40) 
energy

>  <rmsd>  (40) 
9.901061388001155

>  <m_score__min__rmsd>  (40) 
9.901061388001155

>  <meeko>  (40) 
{"free_energy": -7.61, "intermolecular_energy": -9.7, "internal_energy": -1.8, "cluster_size": 3, "cluster_id": 8, "rank_in_cluster": 1}

>  <energy>  (40) 
-7.8

>  <cluster_rmsd>  (40) 
1.05

>  <cluster>  (40) 
6

$$$$

     RDKit          3D

 62 66  0  0  0  0  0  0  0  0999 V2000
  139.5770   74.1860  222.6620 N   0  0  0  0  0  0  0  0  0  0  0  0
  140.6200   74.6690  221.3950 S   0  0  0  0  0  0  0  0  0  0  0  0
  141.3800   75.9140  221.7850 O   0  0  0  0  0  0  0  0  0  0  0  0
  139.7720   75.0650  220.1880 O   0  0  0  0  0  0  0  0  0  0  0  0
  141.7810   73.4610  220.8870 C   0  0  0  0  0  0  0  0  0  0  0  0
  141.5870   72.0940  221.4410 C   0  0  0  0  0  0  0  0  0  0  0  0
  140.4610   71.2800  220.9210 C   0  0  0  0  0  0  0  0  0  0  0  0
  139.1220   71.7640  221.3130 C   0  0  0  0  0  0  0  0  0  0  0  0
  138.2970   72.5120  220.5000 C   0  0  0  0  0  0  0  0  0  0  0  0
  137.0730   72.9470  220.8940 N   0  0  0  0  0  0  0  0  0  0  0  0
  136.6290   72.6520  222.1060 C   0  0  0  0  0  0  0  0  0  0  0  0
  135.3480   73.1020  222.5250 N   0  0  0  0  0  0  0  0  0  0  0  0
  134.2980   72.1850  222.9030 C   0  0  0  0  0  0  0  0  0  0  0  0
  134.0030   72.3420  224.3680 C   0  0  0  0  0  0  0  0  0  0  0  0
  134.0980   73.7630  224.7880 C   0  0  0  0  0  0  0  0  0  0  0  0
  133.6730   74.0600  226.0830 C   0  0  0  0  0  0  0  0  0  0  0  0
  133.7180   75.3600  226.5780 C   0  0  0  0  0  0  0  0  0  0  0  0
  134.2020   76.3650  225.7430 C   0  0  0  0  0  0  0  0  0  0  0  0
  134.6280   76.0730  224.4460 C   0  0  0  0  0  0  0  0  0  0  0  0
  134.5720   74.7660  223.9780 C   0  0  0  0  0  0  0  0  0  0  0  0
  135.0440   74.5370  222.5870 C   0  0  0  0  0  0  0  0  0  0  0  0
  137.3740   71.9300  222.9520 N   0  0  0  0  0  0  0  0  0  0  0  0
  138.6110   71.4810  222.5790 C   0  0  0  0  0  0  0  0  0  0  0  0
  139.3010   70.7370  223.5610 N   0  0  0  0  0  0  0  0  0  0  0  0
  139.2870   69.3000  223.6950 C   0  0  0  0  0  0  0  0  0  0  0  0
  138.9280   68.8090  225.0710 C   0  0  0  0  0  0  0  0  0  0  0  0
  139.6930   69.5530  226.0980 C   0  0  0  0  0  0  0  0  0  0  0  0
  139.8380   68.9580  227.3320 C   0  0  0  0  0  0  0  0  0  0  0  0
  140.5380   69.5910  228.3430 C   0  0  0  0  0  0  0  0  0  0  0  0
  141.0810   70.8290  228.0760 C   0  0  0  0  0  0  0  0  0  0  0  0
  140.9250   71.4160  226.8230 C   0  0  0  0  0  0  0  0  0  0  0  0
  140.2310   70.7880  225.8180 C   0  0  0  0  0  0  0  0  0  0  0  0
  140.1120   71.4780  224.5220 C   0  0  0  0  0  0  0  0  0  0  0  0
  139.9770   73.3920  223.2130 H   0  0  0  0  0  0  0  0  0  0  0  0
  138.6830   73.8560  222.2580 H   0  0  0  0  0  0  0  0  0  0  0  0
  141.7335   73.3892  219.7904 H   0  0  0  0  0  0  0  0  0  0  0  0
  142.7520   73.8024  221.2750 H   0  0  0  0  0  0  0  0  0  0  0  0
  142.5122   71.5304  221.2502 H   0  0  0  0  0  0  0  0  0  0  0  0
  141.3362   72.2617  222.4988 H   0  0  0  0  0  0  0  0  0  0  0  0
  140.5174   71.2780  219.8225 H   0  0  0  0  0  0  0  0  0  0  0  0
  140.5716   70.2774  221.3598 H   0  0  0  0  0  0  0  0  0  0  0  0
  138.6457   72.7673  219.4885 H   0  0  0  0  0  0  0  0  0  0  0  0
  133.3913   72.4047  222.3203 H   0  0  0  0  0  0  0  0  0  0  0  0
  134.6208   71.1529  222.7013 H   0  0  0  0  0  0  0  0  0  0  0  0
  132.9856   71.9759  224.5699 H   0  0  0  0  0  0  0  0  0  0  0  0
  134.7452   71.7617  224.9358 H   0  0  0  0  0  0  0  0  0  0  0  0
  133.2950   73.2511  226.7254 H   0  0  0  0  0  0  0  0  0  0  0  0
  133.3809   75.5877  227.6000 H   0  0  0  0  0  0  0  0  0  0  0  0
  134.2490   77.4009  226.1101 H   0  0  0  0  0  0  0  0  0  0  0  0
  135.0070   76.8756  223.7963 H   0  0  0  0  0  0  0  0  0  0  0  0
  134.2579   74.7981  221.8632 H   0  0  0  0  0  0  0  0  0  0  0  0
  135.9175   75.1574  222.3377 H   0  0  0  0  0  0  0  0  0  0  0  0
  138.5533   68.8949  222.9826 H   0  0  0  0  0  0  0  0  0  0  0  0
  140.3125   68.9555  223.4957 H   0  0  0  0  0  0  0  0  0  0  0  0
  137.8516   68.9593  225.2406 H   0  0  0  0  0  0  0  0  0  0  0  0
  139.1754   67.7398  225.1453 H   0  0  0  0  0  0  0  0  0  0  0  0
  139.3924   67.9691  227.5151 H   0  0  0  0  0  0  0  0  0  0  0  0
  140.6576   69.1206  229.3301 H   0  0  0  0  0  0  0  0  0  0  0  0
  141.6427   71.3583  228.8598 H   0  0  0  0  0  0  0  0  0  0  0  0
  141.3677   72.4051  226.6339 H   0  0  0  0  0  0  0  0  0  0  0  0
  139.6490   72.4618  224.6885 H   0  0  0  0  0  0  0  0  0  0  0  0
  141.1240   71.5703  224.1009 H   0  0  0  0  0  0  0  0  0  0  0  0
  1  2  1  0
  2  3  2  0
  2  4  2  0
  2  5  1  0
  5  6  1  0
  6  7  1  0
  7  8  1  0
  8  9  2  0
  9 10  1  0
 10 11  2  0
 11 12  1  0
 12 13  1  0
 13 14  1  0
 14 15  1  0
 15 16  2  0
 16 17  1  0
 17 18  2  0
 18 19  1  0
 19 20  2  0
 20 21  1  0
 11 22  1  0
 22 23  2  0
 23 24  1  0
 24 25  1  0
 25 26  1  0
 26 27  1  0
 27 28  2  0
 28 29  1  0
 29 30  2  0
 30 31  1  0
 31 32  2  0
 32 33  1  0
 23  8  1  0
 33 24  1  0
 21 12  1  0
 32 27  1  0
 20 15  1  0
  1 34  1  0
  1 35  1  0
  5 36  1  0
  5 37  1  0
  6 38  1  0
  6 39  1  0
  7 40  1  0
  7 41  1  0
  9 42  1  0
 13 43  1  0
 13 44  1  0
 14 45  1  0
 14 46  1  0
 16 47  1  0
 17 48  1  0
 18 49  1  0
 19 50  1  0
 21 51  1  0
 21 52  1  0
 25 53  1  0
 25 54  1  0
 26 55  1  0
 26 56  1  0
 28 57  1  0
 29 58  1  0
 30 59  1  0
 31 60  1  0
 33 61  1  0
 33 62  1  0
M  END
>  <smiles>  (41) 
NS(=O)(=O)CCCc1cnc(N2CCc3ccccc3C2)nc1N1CCc2ccccc2C1

>  <score_type>  (41) 
oracle

>  <origin>  (41) 
autodockgpu

>  <m_score__min__energy>  (41) 
-10.720000000000001

>  <m_primary>  (41) 
energy

>  <rmsd>  (41) 
9.91636530496422

>  <m_score__min__rmsd>  (41) 
9.91636530496422

>  <meeko>  (41) 
{"free_energy": -7.3, "intermolecular_energy": -9.39, "internal_energy": -2.35, "cluster_size": 3, "cluster_id": 8, "rank_in_cluster": 2}

>  <energy>  (41) 
-7.76

>  <cluster_rmsd>  (41) 
0.0

>  <cluster>  (41) 
7

$$$$

     RDKit          3D

 62 66  0  0  0  0  0  0  0  0999 V2000
  146.0510   73.5160  219.1280 N   0  0  0  0  0  0  0  0  0  0  0  0
  144.4110   73.7640  219.5440 S   0  0  0  0  0  0  0  0  0  0  0  0
  143.5970   74.0730  218.3110 O   0  0  0  0  0  0  0  0  0  0  0  0
  144.3120   75.0070  220.4250 O   0  0  0  0  0  0  0  0  0  0  0  0
  143.6460   72.4290  220.3790 C   0  0  0  0  0  0  0  0  0  0  0  0
  142.3990   72.7520  221.1250 C   0  0  0  0  0  0  0  0  0  0  0  0
  141.3580   71.7020  221.2410 C   0  0  0  0  0  0  0  0  0  0  0  0
  139.9930   72.2130  221.4740 C   0  0  0  0  0  0  0  0  0  0  0  0
  139.3440   73.1020  220.6430 C   0  0  0  0  0  0  0  0  0  0  0  0
  138.0900   73.5580  220.8890 N   0  0  0  0  0  0  0  0  0  0  0  0
  137.4390   73.1460  221.9670 C   0  0  0  0  0  0  0  0  0  0  0  0
  136.1250   73.6170  222.2300 N   0  0  0  0  0  0  0  0  0  0  0  0
  134.9510   72.8380  221.9100 C   0  0  0  0  0  0  0  0  0  0  0  0
  134.2550   72.4400  223.1810 C   0  0  0  0  0  0  0  0  0  0  0  0
  134.3190   73.5250  224.1930 C   0  0  0  0  0  0  0  0  0  0  0  0
  133.5580   73.3450  225.3480 C   0  0  0  0  0  0  0  0  0  0  0  0
  133.5450   74.3000  226.3600 C   0  0  0  0  0  0  0  0  0  0  0  0
  134.3160   75.4480  226.1910 C   0  0  0  0  0  0  0  0  0  0  0  0
  135.0790   75.6330  225.0370 C   0  0  0  0  0  0  0  0  0  0  0  0
  135.0740   74.6630  224.0420 C   0  0  0  0  0  0  0  0  0  0  0  0
  135.9120   74.9330  222.8450 C   0  0  0  0  0  0  0  0  0  0  0  0
  138.0050   72.2840  222.8200 N   0  0  0  0  0  0  0  0  0  0  0  0
  139.2680   71.8100  222.5950 C   0  0  0  0  0  0  0  0  0  0  0  0
  139.7570   70.9130  223.5700 N   0  0  0  0  0  0  0  0  0  0  0  0
  139.5610   69.4830  223.5750 C   0  0  0  0  0  0  0  0  0  0  0  0
  139.0000   68.9380  224.8600 C   0  0  0  0  0  0  0  0  0  0  0  0
  139.7310   69.5000  226.0180 C   0  0  0  0  0  0  0  0  0  0  0  0
  139.6710   68.8000  227.2040 C   0  0  0  0  0  0  0  0  0  0  0  0
  140.3260   69.2620  228.3300 C   0  0  0  0  0  0  0  0  0  0  0  0
  141.0360   70.4390  228.2290 C   0  0  0  0  0  0  0  0  0  0  0  0
  141.0860   71.1340  227.0240 C   0  0  0  0  0  0  0  0  0  0  0  0
  140.4360   70.6760  225.9030 C   0  0  0  0  0  0  0  0  0  0  0  0
  140.5390   71.4720  224.6680 C   0  0  0  0  0  0  0  0  0  0  0  0
  146.6910   74.1200  219.6930 H   0  0  0  0  0  0  0  0  0  0  0  0
  146.1920   73.7700  218.1350 H   0  0  0  0  0  0  0  0  0  0  0  0
  143.4007   71.6608  219.6309 H   0  0  0  0  0  0  0  0  0  0  0  0
  144.3698   72.1026  221.1403 H   0  0  0  0  0  0  0  0  0  0  0  0
  142.6941   73.0326  222.1469 H   0  0  0  0  0  0  0  0  0  0  0  0
  141.9220   73.5429  220.5276 H   0  0  0  0  0  0  0  0  0  0  0  0
  141.3519   71.1203  220.3074 H   0  0  0  0  0  0  0  0  0  0  0  0
  141.6200   71.0994  222.1231 H   0  0  0  0  0  0  0  0  0  0  0  0
  139.8656   73.4567  219.7418 H   0  0  0  0  0  0  0  0  0  0  0  0
  134.2690   73.4393  221.2908 H   0  0  0  0  0  0  0  0  0  0  0  0
  135.2484   71.9357  221.3556 H   0  0  0  0  0  0  0  0  0  0  0  0
  133.2006   72.2193  222.9583 H   0  0  0  0  0  0  0  0  0  0  0  0
  134.7599   71.5527  223.5905 H   0  0  0  0  0  0  0  0  0  0  0  0
  132.9568   72.4308  225.4610 H   0  0  0  0  0  0  0  0  0  0  0  0
  132.9425   74.1526  227.2685 H   0  0  0  0  0  0  0  0  0  0  0  0
  134.3235   76.2180  226.9766 H   0  0  0  0  0  0  0  0  0  0  0  0
  135.6828   76.5444  224.9155 H   0  0  0  0  0  0  0  0  0  0  0  0
  135.3885   75.6053  222.1494 H   0  0  0  0  0  0  0  0  0  0  0  0
  136.8596   75.4274  223.1052 H   0  0  0  0  0  0  0  0  0  0  0  0
  138.8668   69.2279  222.7608 H   0  0  0  0  0  0  0  0  0  0  0  0
  140.5550   69.0291  223.4485 H   0  0  0  0  0  0  0  0  0  0  0  0
  137.9366   69.2091  224.9357 H   0  0  0  0  0  0  0  0  0  0  0  0
  139.1107   67.8436  224.8634 H   0  0  0  0  0  0  0  0  0  0  0  0
  139.0957   67.8638  227.2548 H   0  0  0  0  0  0  0  0  0  0  0  0
  140.2820   68.7068  229.2786 H   0  0  0  0  0  0  0  0  0  0  0  0
  141.5676   70.8324  229.1080 H   0  0  0  0  0  0  0  0  0  0  0  0
  141.6589   72.0713  226.9677 H   0  0  0  0  0  0  0  0  0  0  0  0
  140.1776   72.4902  224.8746 H   0  0  0  0  0  0  0  0  0  0  0  0
  141.5946   71.4696  224.3586 H   0  0  0  0  0  0  0  0  0  0  0  0
  1  2  1  0
  2  3  2  0
  2  4  2  0
  2  5  1  0
  5  6  1  0
  6  7  1  0
  7  8  1  0
  8  9  2  0
  9 10  1  0
 10 11  2  0
 11 12  1  0
 12 13  1  0
 13 14  1  0
 14 15  1  0
 15 16  2  0
 16 17  1  0
 17 18  2  0
 18 19  1  0
 19 20  2  0
 20 21  1  0
 11 22  1  0
 22 23  2  0
 23 24  1  0
 24 25  1  0
 25 26  1  0
 26 27  1  0
 27 28  2  0
 28 29  1  0
 29 30  2  0
 30 31  1  0
 31 32  2  0
 32 33  1  0
 23  8  1  0
 33 24  1  0
 21 12  1  0
 32 27  1  0
 20 15  1  0
  1 34  1  0
  1 35  1  0
  5 36  1  0
  5 37  1  0
  6 38  1  0
  6 39  1  0
  7 40  1  0
  7 41  1  0
  9 42  1  0
 13 43  1  0
 13 44  1  0
 14 45  1  0
 14 46  1  0
 16 47  1  0
 17 48  1  0
 18 49  1  0
 19 50  1  0
 21 51  1  0
 21 52  1  0
 25 53  1  0
 25 54  1  0
 26 55  1  0
 26 56  1  0
 28 57  1  0
 29 58  1  0
 30 59  1  0
 31 60  1  0
 33 61  1  0
 33 62  1  0
M  END
>  <smiles>  (42) 
NS(=O)(=O)CCCc1cnc(N2CCc3ccccc3C2)nc1N1CCc2ccccc2C1

>  <score_type>  (42) 
oracle

>  <origin>  (42) 
autodockgpu

>  <m_score__min__energy>  (42) 
-10.720000000000001

>  <m_primary>  (42) 
energy

>  <rmsd>  (42) 
10.112228132668646

>  <m_score__min__rmsd>  (42) 
10.112228132668646

>  <meeko>  (42) 
{"free_energy": -8.05, "intermolecular_energy": -10.14, "internal_energy": -1.23, "cluster_size": 2, "cluster_id": 4, "rank_in_cluster": 2}

>  <energy>  (42) 
-7.32

>  <cluster_rmsd>  (42) 
0.48

>  <cluster>  (42) 
7

$$$$

     RDKit          3D

 62 66  0  0  0  0  0  0  0  0999 V2000
  145.7480   72.6730  221.7890 N   0  0  0  0  0  0  0  0  0  0  0  0
  145.1160   73.3640  220.3570 S   0  0  0  0  0  0  0  0  0  0  0  0
  145.9860   73.0110  219.1750 O   0  0  0  0  0  0  0  0  0  0  0  0
  145.1830   74.8850  220.4780 O   0  0  0  0  0  0  0  0  0  0  0  0
  143.4690   72.9080  219.9760 C   0  0  0  0  0  0  0  0  0  0  0  0
  142.5080   72.9220  221.1110 C   0  0  0  0  0  0  0  0  0  0  0  0
  141.4400   71.8920  221.1390 C   0  0  0  0  0  0  0  0  0  0  0  0
  140.0830   72.4220  221.3800 C   0  0  0  0  0  0  0  0  0  0  0  0
  139.4570   73.3510  220.5760 C   0  0  0  0  0  0  0  0  0  0  0  0
  138.2100   73.8220  220.8300 N   0  0  0  0  0  0  0  0  0  0  0  0
  137.5440   73.3860  221.8890 C   0  0  0  0  0  0  0  0  0  0  0  0
  136.2370   73.8730  222.1600 N   0  0  0  0  0  0  0  0  0  0  0  0
  135.0510   73.1670  221.7330 C   0  0  0  0  0  0  0  0  0  0  0  0
  134.3050   72.6730  222.9410 C   0  0  0  0  0  0  0  0  0  0  0  0
  134.3700   73.6520  224.0540 C   0  0  0  0  0  0  0  0  0  0  0  0
  133.5690   73.3880  225.1650 C   0  0  0  0  0  0  0  0  0  0  0  0
  133.5530   74.2410  226.2640 C   0  0  0  0  0  0  0  0  0  0  0  0
  134.3640   75.3740  226.2280 C   0  0  0  0  0  0  0  0  0  0  0  0
  135.1670   75.6440  225.1190 C   0  0  0  0  0  0  0  0  0  0  0  0
  135.1640   74.7740  224.0350 C   0  0  0  0  0  0  0  0  0  0  0  0
  136.0460   75.1310  222.8930 C   0  0  0  0  0  0  0  0  0  0  0  0
  138.0880   72.4850  222.7160 N   0  0  0  0  0  0  0  0  0  0  0  0
  139.3440   71.9950  222.4830 C   0  0  0  0  0  0  0  0  0  0  0  0
  139.8090   71.0570  223.4300 N   0  0  0  0  0  0  0  0  0  0  0  0
  139.5910   69.6300  223.3820 C   0  0  0  0  0  0  0  0  0  0  0  0
  139.0090   69.0480  224.6410 C   0  0  0  0  0  0  0  0  0  0  0  0
  139.7360   69.5580  225.8260 C   0  0  0  0  0  0  0  0  0  0  0  0
  139.6540   68.8170  226.9850 C   0  0  0  0  0  0  0  0  0  0  0  0
  140.3050   69.2280  228.1330 C   0  0  0  0  0  0  0  0  0  0  0  0
  141.0330   70.3970  228.0800 C   0  0  0  0  0  0  0  0  0  0  0  0
  141.1060   71.1330  226.9010 C   0  0  0  0  0  0  0  0  0  0  0  0
  140.4610   70.7260  225.7590 C   0  0  0  0  0  0  0  0  0  0  0  0
  140.5890   71.5630  224.5550 C   0  0  0  0  0  0  0  0  0  0  0  0
  146.6840   72.2350  221.6290 H   0  0  0  0  0  0  0  0  0  0  0  0
  145.1130   71.9230  222.1130 H   0  0  0  0  0  0  0  0  0  0  0  0
  143.0957   73.6044  219.2107 H   0  0  0  0  0  0  0  0  0  0  0  0
  143.5210   71.8602  219.6452 H   0  0  0  0  0  0  0  0  0  0  0  0
  143.0936   72.8097  222.0354 H   0  0  0  0  0  0  0  0  0  0  0  0
  141.9665   73.8727  220.9976 H   0  0  0  0  0  0  0  0  0  0  0  0
  141.4385   71.3724  220.1695 H   0  0  0  0  0  0  0  0  0  0  0  0
  141.6700   71.2264  221.9840 H   0  0  0  0  0  0  0  0  0  0  0  0
  139.9914   73.7264  219.6908 H   0  0  0  0  0  0  0  0  0  0  0  0
  134.4067   73.8465  221.1557 H   0  0  0  0  0  0  0  0  0  0  0  0
  135.3377   72.3127  221.1021 H   0  0  0  0  0  0  0  0  0  0  0  0
  133.2518   72.5093  222.6692 H   0  0  0  0  0  0  0  0  0  0  0  0
  134.7713   71.7350  223.2767 H   0  0  0  0  0  0  0  0  0  0  0  0
  132.9374   72.4874  225.1724 H   0  0  0  0  0  0  0  0  0  0  0  0
  132.9183   74.0273  227.1366 H   0  0  0  0  0  0  0  0  0  0  0  0
  134.3712   76.0641  227.0846 H   0  0  0  0  0  0  0  0  0  0  0  0
  135.8007   76.5430  225.1028 H   0  0  0  0  0  0  0  0  0  0  0  0
  135.5644   75.8839  222.2518 H   0  0  0  0  0  0  0  0  0  0  0  0
  136.9996   75.5674  223.2250 H   0  0  0  0  0  0  0  0  0  0  0  0
  138.9012   69.4150  222.5526 H   0  0  0  0  0  0  0  0  0  0  0  0
  140.5792   69.1656  223.2489 H   0  0  0  0  0  0  0  0  0  0  0  0
  137.9488   69.3316  224.7157 H   0  0  0  0  0  0  0  0  0  0  0  0
  139.1042   67.9527  224.6065 H   0  0  0  0  0  0  0  0  0  0  0  0
  139.0642   67.8886  226.9967 H   0  0  0  0  0  0  0  0  0  0  0  0
  140.2439   68.6399  229.0606 H   0  0  0  0  0  0  0  0  0  0  0  0
  141.5611   70.7515  228.9775 H   0  0  0  0  0  0  0  0  0  0  0  0
  141.6941   72.0624  226.8835 H   0  0  0  0  0  0  0  0  0  0  0  0
  140.2422   72.5791  224.7946 H   0  0  0  0  0  0  0  0  0  0  0  0
  141.6474   71.5536  224.2556 H   0  0  0  0  0  0  0  0  0  0  0  0
  1  2  1  0
  2  3  2  0
  2  4  2  0
  2  5  1  0
  5  6  1  0
  6  7  1  0
  7  8  1  0
  8  9  2  0
  9 10  1  0
 10 11  2  0
 11 12  1  0
 12 13  1  0
 13 14  1  0
 14 15  1  0
 15 16  2  0
 16 17  1  0
 17 18  2  0
 18 19  1  0
 19 20  2  0
 20 21  1  0
 11 22  1  0
 22 23  2  0
 23 24  1  0
 24 25  1  0
 25 26  1  0
 26 27  1  0
 27 28  2  0
 28 29  1  0
 29 30  2  0
 30 31  1  0
 31 32  2  0
 32 33  1  0
 23  8  1  0
 33 24  1  0
 21 12  1  0
 32 27  1  0
 20 15  1  0
  1 34  1  0
  1 35  1  0
  5 36  1  0
  5 37  1  0
  6 38  1  0
  6 39  1  0
  7 40  1  0
  7 41  1  0
  9 42  1  0
 13 43  1  0
 13 44  1  0
 14 45  1  0
 14 46  1  0
 16 47  1  0
 17 48  1  0
 18 49  1  0
 19 50  1  0
 21 51  1  0
 21 52  1  0
 25 53  1  0
 25 54  1  0
 26 55  1  0
 26 56  1  0
 28 57  1  0
 29 58  1  0
 30 59  1  0
 31 60  1  0
 33 61  1  0
 33 62  1  0
M  END
>  <smiles>  (43) 
NS(=O)(=O)CCCc1cnc(N2CCc3ccccc3C2)nc1N1CCc2ccccc2C1

>  <score_type>  (43) 
oracle

>  <origin>  (43) 
autodockgpu

>  <m_score__min__energy>  (43) 
-10.720000000000001

>  <m_primary>  (43) 
energy

>  <rmsd>  (43) 
9.971368120333848

>  <m_score__min__rmsd>  (43) 
9.971368120333848

>  <meeko>  (43) 
{"free_energy": -8.76, "intermolecular_energy": -10.85, "internal_energy": -1.19, "cluster_size": 2, "cluster_id": 4, "rank_in_cluster": 1}

>  <energy>  (43) 
-7.18

>  <cluster_rmsd>  (43) 
0.39

>  <cluster>  (43) 
7

$$$$

     RDKit          3D

 62 66  0  0  0  0  0  0  0  0999 V2000
  145.3940   73.1090  221.6370 N   0  0  0  0  0  0  0  0  0  0  0  0
  145.0510   72.9560  219.9690 S   0  0  0  0  0  0  0  0  0  0  0  0
  144.0540   71.8460  219.7370 O   0  0  0  0  0  0  0  0  0  0  0  0
  146.3250   72.5220  219.2450 O   0  0  0  0  0  0  0  0  0  0  0  0
  144.4400   74.4040  219.1990 C   0  0  0  0  0  0  0  0  0  0  0  0
  143.0460   74.7910  219.5470 C   0  0  0  0  0  0  0  0  0  0  0  0
  141.9570   73.8260  219.2600 C   0  0  0  0  0  0  0  0  0  0  0  0
  141.3430   73.2190  220.4590 C   0  0  0  0  0  0  0  0  0  0  0  0
  141.4200   71.8800  220.7780 C   0  0  0  0  0  0  0  0  0  0  0  0
  140.8380   71.3540  221.8850 N   0  0  0  0  0  0  0  0  0  0  0  0
  140.1620   72.1390  222.7110 C   0  0  0  0  0  0  0  0  0  0  0  0
  139.5520   71.5950  223.8730 N   0  0  0  0  0  0  0  0  0  0  0  0
  138.2010   71.0840  223.8630 C   0  0  0  0  0  0  0  0  0  0  0  0
  138.2280   69.6000  224.0970 C   0  0  0  0  0  0  0  0  0  0  0  0
  139.2840   69.2250  225.0720 C   0  0  0  0  0  0  0  0  0  0  0  0
  139.2910   67.9000  225.5040 C   0  0  0  0  0  0  0  0  0  0  0  0
  140.2360   67.4430  226.4180 C   0  0  0  0  0  0  0  0  0  0  0  0
  141.1820   68.3490  226.8930 C   0  0  0  0  0  0  0  0  0  0  0  0
  141.1790   69.6770  226.4640 C   0  0  0  0  0  0  0  0  0  0  0  0
  140.2240   70.1060  225.5510 C   0  0  0  0  0  0  0  0  0  0  0  0
  140.2870   71.5340  225.1430 C   0  0  0  0  0  0  0  0  0  0  0  0
  140.0440   73.4490  222.4660 N   0  0  0  0  0  0  0  0  0  0  0  0
  140.6210   74.0040  221.3560 C   0  0  0  0  0  0  0  0  0  0  0  0
  140.4190   75.3940  221.2050 N   0  0  0  0  0  0  0  0  0  0  0  0
  139.9720   76.0550  220.0020 C   0  0  0  0  0  0  0  0  0  0  0  0
  140.8510   77.1910  219.5550 C   0  0  0  0  0  0  0  0  0  0  0  0
  141.1760   78.0700  220.7010 C   0  0  0  0  0  0  0  0  0  0  0  0
  141.5710   79.3600  220.4170 C   0  0  0  0  0  0  0  0  0  0  0  0
  141.8910   80.2400  221.4340 C   0  0  0  0  0  0  0  0  0  0  0  0
  141.8050   79.7870  222.7330 C   0  0  0  0  0  0  0  0  0  0  0  0
  141.4050   78.4820  223.0020 C   0  0  0  0  0  0  0  0  0  0  0  0
  141.0850   77.6060  221.9940 C   0  0  0  0  0  0  0  0  0  0  0  0
  140.6710   76.2430  222.3650 C   0  0  0  0  0  0  0  0  0  0  0  0
  146.1590   73.8000  221.8150 H   0  0  0  0  0  0  0  0  0  0  0  0
  145.7180   72.1970  222.0030 H   0  0  0  0  0  0  0  0  0  0  0  0
  145.1004   75.2380  219.4791 H   0  0  0  0  0  0  0  0  0  0  0  0
  144.4254   74.1825  218.1216 H   0  0  0  0  0  0  0  0  0  0  0  0
  143.0245   74.9947  220.6278 H   0  0  0  0  0  0  0  0  0  0  0  0
  142.8300   75.6476  218.8916 H   0  0  0  0  0  0  0  0  0  0  0  0
  141.1699   74.3529  218.7006 H   0  0  0  0  0  0  0  0  0  0  0  0
  142.4119   73.0019  218.6908 H   0  0  0  0  0  0  0  0  0  0  0  0
  141.9768   71.2097  220.1067 H   0  0  0  0  0  0  0  0  0  0  0  0
  137.6185   71.5707  224.6591 H   0  0  0  0  0  0  0  0  0  0  0  0
  137.7354   71.2944  222.8889 H   0  0  0  0  0  0  0  0  0  0  0  0
  137.2504   69.2813  224.4878 H   0  0  0  0  0  0  0  0  0  0  0  0
  138.4467   69.1023  223.1407 H   0  0  0  0  0  0  0  0  0  0  0  0
  138.5351   67.2019  225.1151 H   0  0  0  0  0  0  0  0  0  0  0  0
  140.2360   66.3962  226.7558 H   0  0  0  0  0  0  0  0  0  0  0  0
  141.9408   68.0133  227.6152 H   0  0  0  0  0  0  0  0  0  0  0  0
  141.9309   70.3822  226.8478 H   0  0  0  0  0  0  0  0  0  0  0  0
  139.8084   72.1742  225.8987 H   0  0  0  0  0  0  0  0  0  0  0  0
  141.3224   71.8909  225.0406 H   0  0  0  0  0  0  0  0  0  0  0  0
  139.9346   75.3100  219.1935 H   0  0  0  0  0  0  0  0  0  0  0  0
  138.9876   76.4900  220.2296 H   0  0  0  0  0  0  0  0  0  0  0  0
  141.7823   76.7851  219.1333 H   0  0  0  0  0  0  0  0  0  0  0  0
  140.3174   77.7784  218.7932 H   0  0  0  0  0  0  0  0  0  0  0  0
  141.6322   79.6925  219.3702 H   0  0  0  0  0  0  0  0  0  0  0  0
  142.2049   81.2709  221.2132 H   0  0  0  0  0  0  0  0  0  0  0  0
  142.0547   80.4631  223.5640 H   0  0  0  0  0  0  0  0  0  0  0  0
  141.3436   78.1438  224.0469 H   0  0  0  0  0  0  0  0  0  0  0  0
  141.4684   75.7855  222.9690 H   0  0  0  0  0  0  0  0  0  0  0  0
  139.7292   76.3241  222.9275 H   0  0  0  0  0  0  0  0  0  0  0  0
  1  2  1  0
  2  3  2  0
  2  4  2  0
  2  5  1  0
  5  6  1  0
  6  7  1  0
  7  8  1  0
  8  9  2  0
  9 10  1  0
 10 11  2  0
 11 12  1  0
 12 13  1  0
 13 14  1  0
 14 15  1  0
 15 16  2  0
 16 17  1  0
 17 18  2  0
 18 19  1  0
 19 20  2  0
 20 21  1  0
 11 22  1  0
 22 23  2  0
 23 24  1  0
 24 25  1  0
 25 26  1  0
 26 27  1  0
 27 28  2  0
 28 29  1  0
 29 30  2  0
 30 31  1  0
 31 32  2  0
 32 33  1  0
 23  8  1  0
 33 24  1  0
 21 12  1  0
 32 27  1  0
 20 15  1  0
  1 34  1  0
  1 35  1  0
  5 36  1  0
  5 37  1  0
  6 38  1  0
  6 39  1  0
  7 40  1  0
  7 41  1  0
  9 42  1  0
 13 43  1  0
 13 44  1  0
 14 45  1  0
 14 46  1  0
 16 47  1  0
 17 48  1  0
 18 49  1  0
 19 50  1  0
 21 51  1  0
 21 52  1  0
 25 53  1  0
 25 54  1  0
 26 55  1  0
 26 56  1  0
 28 57  1  0
 29 58  1  0
 30 59  1  0
 31 60  1  0
 33 61  1  0
 33 62  1  0
M  END
>  <smiles>  (44) 
NS(=O)(=O)CCCc1cnc(N2CCc3ccccc3C2)nc1N1CCc2ccccc2C1

>  <score_type>  (44) 
oracle

>  <origin>  (44) 
autodockgpu

>  <m_score__min__energy>  (44) 
-10.720000000000001

>  <m_primary>  (44) 
energy

>  <rmsd>  (44) 
4.337220467301399

>  <m_score__min__rmsd>  (44) 
4.337220467301399

>  <meeko>  (44) 
{"free_energy": -9.75, "intermolecular_energy": -11.84, "internal_energy": -1.38, "cluster_size": 30, "cluster_id": 1, "rank_in_cluster": 17}

>  <energy>  (44) 
-7.61

>  <cluster_rmsd>  (44) 
0.0

>  <cluster>  (44) 
8

$$$$

     RDKit          3D

 62 66  0  0  0  0  0  0  0  0999 V2000
  146.2380   73.5270  218.2750 N   0  0  0  0  0  0  0  0  0  0  0  0
  145.8340   73.1470  219.8930 S   0  0  0  0  0  0  0  0  0  0  0  0
  146.8870   73.6780  220.8360 O   0  0  0  0  0  0  0  0  0  0  0  0
  145.8600   71.6290  220.0600 O   0  0  0  0  0  0  0  0  0  0  0  0
  144.2760   73.7390  220.4290 C   0  0  0  0  0  0  0  0  0  0  0  0
  143.4320   74.3900  219.3910 C   0  0  0  0  0  0  0  0  0  0  0  0
  142.0600   73.8690  219.1740 C   0  0  0  0  0  0  0  0  0  0  0  0
  141.4410   73.2560  220.3670 C   0  0  0  0  0  0  0  0  0  0  0  0
  141.4930   71.9110  220.6650 C   0  0  0  0  0  0  0  0  0  0  0  0
  140.9080   71.3780  221.7680 N   0  0  0  0  0  0  0  0  0  0  0  0
  140.2530   72.1640  222.6100 C   0  0  0  0  0  0  0  0  0  0  0  0
  139.6400   71.6140  223.7680 N   0  0  0  0  0  0  0  0  0  0  0  0
  138.2810   71.1230  223.7570 C   0  0  0  0  0  0  0  0  0  0  0  0
  138.2880   69.6350  223.9710 C   0  0  0  0  0  0  0  0  0  0  0  0
  139.3420   69.2330  224.9370 C   0  0  0  0  0  0  0  0  0  0  0  0
  139.3320   67.9020  225.3520 C   0  0  0  0  0  0  0  0  0  0  0  0
  140.2740   67.4200  226.2560 C   0  0  0  0  0  0  0  0  0  0  0  0
  141.2340   68.3070  226.7390 C   0  0  0  0  0  0  0  0  0  0  0  0
  141.2480   69.6400  226.3270 C   0  0  0  0  0  0  0  0  0  0  0  0
  140.2960   70.0940  225.4240 C   0  0  0  0  0  0  0  0  0  0  0  0
  140.3780   71.5260  225.0340 C   0  0  0  0  0  0  0  0  0  0  0  0
  140.1590   73.4800  222.3860 N   0  0  0  0  0  0  0  0  0  0  0  0
  140.7400   74.0410  221.2820 C   0  0  0  0  0  0  0  0  0  0  0  0
  140.5640   75.4370  221.1540 N   0  0  0  0  0  0  0  0  0  0  0  0
  140.2420   76.1380  219.9330 C   0  0  0  0  0  0  0  0  0  0  0  0
  141.1700   77.2770  219.6090 C   0  0  0  0  0  0  0  0  0  0  0  0
  141.3880   78.1180  220.8080 C   0  0  0  0  0  0  0  0  0  0  0  0
  141.8190   79.4110  220.6030 C   0  0  0  0  0  0  0  0  0  0  0  0
  142.0450   80.2580  221.6720 C   0  0  0  0  0  0  0  0  0  0  0  0
  141.8280   79.7680  222.9420 C   0  0  0  0  0  0  0  0  0  0  0  0
  141.3940   78.4600  223.1310 C   0  0  0  0  0  0  0  0  0  0  0  0
  141.1670   77.6170  222.0700 C   0  0  0  0  0  0  0  0  0  0  0  0
  140.7090   76.2480  222.3580 C   0  0  0  0  0  0  0  0  0  0  0  0
  147.1340   74.0610  218.2130 H   0  0  0  0  0  0  0  0  0  0  0  0
  145.4970   74.1270  217.8720 H   0  0  0  0  0  0  0  0  0  0  0  0
  143.7128   72.8851  220.8334 H   0  0  0  0  0  0  0  0  0  0  0  0
  144.4958   74.5244  221.1671 H   0  0  0  0  0  0  0  0  0  0  0  0
  143.3382   75.4511  219.6655 H   0  0  0  0  0  0  0  0  0  0  0  0
  143.9547   74.1824  218.4456 H   0  0  0  0  0  0  0  0  0  0  0  0
  141.4231   74.7043  218.8475 H   0  0  0  0  0  0  0  0  0  0  0  0
  142.1439   73.0717  218.4208 H   0  0  0  0  0  0  0  0  0  0  0  0
  142.0319   71.2406  219.9793 H   0  0  0  0  0  0  0  0  0  0  0  0
  137.7089   71.6072  224.5622 H   0  0  0  0  0  0  0  0  0  0  0  0
  137.8140   71.3535  222.7881 H   0  0  0  0  0  0  0  0  0  0  0  0
  137.3074   69.3246  224.3610 H   0  0  0  0  0  0  0  0  0  0  0  0
  138.4962   69.1469  223.0074 H   0  0  0  0  0  0  0  0  0  0  0  0
  138.5648   67.2197  224.9573 H   0  0  0  0  0  0  0  0  0  0  0  0
  140.2611   66.3689  226.5799 H   0  0  0  0  0  0  0  0  0  0  0  0
  141.9905   67.9518  227.4542 H   0  0  0  0  0  0  0  0  0  0  0  0
  142.0114   70.3295  226.7166 H   0  0  0  0  0  0  0  0  0  0  0  0
  139.9112   72.1632  225.7995 H   0  0  0  0  0  0  0  0  0  0  0  0
  141.4181   71.8692  224.9324 H   0  0  0  0  0  0  0  0  0  0  0  0
  140.2781   75.4175  219.1025 H   0  0  0  0  0  0  0  0  0  0  0  0
  139.2434   76.5766  220.0760 H   0  0  0  0  0  0  0  0  0  0  0  0
  142.1349   76.8735  219.2683 H   0  0  0  0  0  0  0  0  0  0  0  0
  140.7187   77.8926  218.8169 H   0  0  0  0  0  0  0  0  0  0  0  0
  141.9850   79.7730  219.5776 H   0  0  0  0  0  0  0  0  0  0  0  0
  142.3875   81.2913  221.5139 H   0  0  0  0  0  0  0  0  0  0  0  0
  141.9995   80.4169  223.8135 H   0  0  0  0  0  0  0  0  0  0  0  0
  141.2286   78.0918  224.1542 H   0  0  0  0  0  0  0  0  0  0  0  0
  141.4409   75.7645  223.0217 H   0  0  0  0  0  0  0  0  0  0  0  0
  139.7180   76.3219  222.8297 H   0  0  0  0  0  0  0  0  0  0  0  0
  1  2  1  0
  2  3  2  0
  2  4  2  0
  2  5  1  0
  5  6  1  0
  6  7  1  0
  7  8  1  0
  8  9  2  0
  9 10  1  0
 10 11  2  0
 11 12  1  0
 12 13  1  0
 13 14  1  0
 14 15  1  0
 15 16  2  0
 16 17  1  0
 17 18  2  0
 18 19  1  0
 19 20  2  0
 20 21  1  0
 11 22  1  0
 22 23  2  0
 23 24  1  0
 24 25  1  0
 25 26  1  0
 26 27  1  0
 27 28  2  0
 28 29  1  0
 29 30  2  0
 30 31  1  0
 31 32  2  0
 32 33  1  0
 23  8  1  0
 33 24  1  0
 21 12  1  0
 32 27  1  0
 20 15  1  0
  1 34  1  0
  1 35  1  0
  5 36  1  0
  5 37  1  0
  6 38  1  0
  6 39  1  0
  7 40  1  0
  7 41  1  0
  9 42  1  0
 13 43  1  0
 13 44  1  0
 14 45  1  0
 14 46  1  0
 16 47  1  0
 17 48  1  0
 18 49  1  0
 19 50  1  0
 21 51  1  0
 21 52  1  0
 25 53  1  0
 25 54  1  0
 26 55  1  0
 26 56  1  0
 28 57  1  0
 29 58  1  0
 30 59  1  0
 31 60  1  0
 33 61  1  0
 33 62  1  0
M  END
>  <smiles>  (45) 
NS(=O)(=O)CCCc1cnc(N2CCc3ccccc3C2)nc1N1CCc2ccccc2C1

>  <score_type>  (45) 
oracle

>  <origin>  (45) 
autodockgpu

>  <m_score__min__energy>  (45) 
-10.720000000000001

>  <m_primary>  (45) 
energy

>  <rmsd>  (45) 
4.357355231740751

>  <m_score__min__rmsd>  (45) 
4.357355231740751

>  <meeko>  (45) 
{"free_energy": -10.54, "intermolecular_energy": -12.63, "internal_energy": -1.29, "cluster_size": 30, "cluster_id": 1, "rank_in_cluster": 7}

>  <energy>  (45) 
-7.3

>  <cluster_rmsd>  (45) 
1.11

>  <cluster>  (45) 
8

$$$$

     RDKit          3D

 62 66  0  0  0  0  0  0  0  0999 V2000
  136.6430   73.3380  222.8270 N   0  0  0  0  0  0  0  0  0  0  0  0
  135.3720   74.2120  222.0870 S   0  0  0  0  0  0  0  0  0  0  0  0
  135.9270   75.2220  221.1120 O   0  0  0  0  0  0  0  0  0  0  0  0
  134.6510   75.0270  223.1590 O   0  0  0  0  0  0  0  0  0  0  0  0
  134.1900   73.2340  221.2440 C   0  0  0  0  0  0  0  0  0  0  0  0
  133.0180   72.7890  222.0460 C   0  0  0  0  0  0  0  0  0  0  0  0
  133.1630   71.5770  222.8880 C   0  0  0  0  0  0  0  0  0  0  0  0
  134.5590   71.1580  223.1250 C   0  0  0  0  0  0  0  0  0  0  0  0
  135.3370   70.4890  222.2030 C   0  0  0  0  0  0  0  0  0  0  0  0
  136.6160   70.1130  222.4550 N   0  0  0  0  0  0  0  0  0  0  0  0
  137.1650   70.3880  223.6290 C   0  0  0  0  0  0  0  0  0  0  0  0
  138.5040   69.9990  223.8990 N   0  0  0  0  0  0  0  0  0  0  0  0
  139.6250   70.8690  223.6310 C   0  0  0  0  0  0  0  0  0  0  0  0
  140.2710   71.2630  224.9300 C   0  0  0  0  0  0  0  0  0  0  0  0
  140.2660   70.1390  225.8990 C   0  0  0  0  0  0  0  0  0  0  0  0
  140.9940   70.3240  227.0740 C   0  0  0  0  0  0  0  0  0  0  0  0
  141.0570   69.3340  228.0490 C   0  0  0  0  0  0  0  0  0  0  0  0
  140.3710   68.1430  227.8210 C   0  0  0  0  0  0  0  0  0  0  0  0
  139.6420   67.9510  226.6470 C   0  0  0  0  0  0  0  0  0  0  0  0
  139.5950   68.9580  225.6900 C   0  0  0  0  0  0  0  0  0  0  0  0
  138.7970   68.6770  224.4670 C   0  0  0  0  0  0  0  0  0  0  0  0
  136.4710   71.0340  224.5740 N   0  0  0  0  0  0  0  0  0  0  0  0
  135.1800   71.4240  224.3450 C   0  0  0  0  0  0  0  0  0  0  0  0
  134.5530   72.0890  225.4210 N   0  0  0  0  0  0  0  0  0  0  0  0
  133.7660   71.4630  226.4570 C   0  0  0  0  0  0  0  0  0  0  0  0
  132.4030   72.0700  226.6530 C   0  0  0  0  0  0  0  0  0  0  0  0
  132.5010   73.5460  226.7090 C   0  0  0  0  0  0  0  0  0  0  0  0
  131.4680   74.2250  227.3180 C   0  0  0  0  0  0  0  0  0  0  0  0
  131.4870   75.6040  227.4090 C   0  0  0  0  0  0  0  0  0  0  0  0
  132.5670   76.2730  226.8730 C   0  0  0  0  0  0  0  0  0  0  0  0
  133.6010   75.5720  226.2620 C   0  0  0  0  0  0  0  0  0  0  0  0
  133.5850   74.2010  226.1710 C   0  0  0  0  0  0  0  0  0  0  0  0
  134.7190   73.5370  225.5080 C   0  0  0  0  0  0  0  0  0  0  0  0
  136.5310   72.3060  222.7000 H   0  0  0  0  0  0  0  0  0  0  0  0
  136.6350   73.5230  223.8450 H   0  0  0  0  0  0  0  0  0  0  0  0
  133.8124   73.8212  220.3940 H   0  0  0  0  0  0  0  0  0  0  0  0
  134.7187   72.3132  220.9565 H   0  0  0  0  0  0  0  0  0  0  0  0
  132.7461   73.6194  222.7142 H   0  0  0  0  0  0  0  0  0  0  0  0
  132.2646   72.5097  221.2947 H   0  0  0  0  0  0  0  0  0  0  0  0
  132.6947   71.7781  223.8628 H   0  0  0  0  0  0  0  0  0  0  0  0
  132.6793   70.7556  222.3390 H   0  0  0  0  0  0  0  0  0  0  0  0
  134.9018   70.2501  221.2214 H   0  0  0  0  0  0  0  0  0  0  0  0
  140.3571   70.3415  223.0019 H   0  0  0  0  0  0  0  0  0  0  0  0
  139.2745   71.7699  223.1061 H   0  0  0  0  0  0  0  0  0  0  0  0
  141.3111   71.5638  224.7359 H   0  0  0  0  0  0  0  0  0  0  0  0
  139.6984   72.0965  225.3630 H   0  0  0  0  0  0  0  0  0  0  0  0
  141.5291   71.2718  227.2329 H   0  0  0  0  0  0  0  0  0  0  0  0
  141.6323   69.4871  228.9740 H   0  0  0  0  0  0  0  0  0  0  0  0
  140.4046   67.3439  228.5762 H   0  0  0  0  0  0  0  0  0  0  0  0
  139.1059   67.0053  226.4792 H   0  0  0  0  0  0  0  0  0  0  0  0
  139.3773   68.0699  223.7566 H   0  0  0  0  0  0  0  0  0  0  0  0
  137.8820   68.1084  224.6895 H   0  0  0  0  0  0  0  0  0  0  0  0
  133.6363   70.4020  226.1971 H   0  0  0  0  0  0  0  0  0  0  0  0
  134.3138   71.6090  227.3996 H   0  0  0  0  0  0  0  0  0  0  0  0
  131.7531   71.7811  225.8139 H   0  0  0  0  0  0  0  0  0  0  0  0
  131.9809   71.7033  227.6003 H   0  0  0  0  0  0  0  0  0  0  0  0
  130.6194   73.6636  227.7361 H   0  0  0  0  0  0  0  0  0  0  0  0
  130.6654   76.1512  227.8943 H   0  0  0  0  0  0  0  0  0  0  0  0
  132.6111   77.3707  226.9292 H   0  0  0  0  0  0  0  0  0  0  0  0
  134.4518   76.1282  225.8416 H   0  0  0  0  0  0  0  0  0  0  0  0
  134.8171   73.9416  224.4898 H   0  0  0  0  0  0  0  0  0  0  0  0
  135.6172   73.7323  226.1122 H   0  0  0  0  0  0  0  0  0  0  0  0
  1  2  1  0
  2  3  2  0
  2  4  2  0
  2  5  1  0
  5  6  1  0
  6  7  1  0
  7  8  1  0
  8  9  2  0
  9 10  1  0
 10 11  2  0
 11 12  1  0
 12 13  1  0
 13 14  1  0
 14 15  1  0
 15 16  2  0
 16 17  1  0
 17 18  2  0
 18 19  1  0
 19 20  2  0
 20 21  1  0
 11 22  1  0
 22 23  2  0
 23 24  1  0
 24 25  1  0
 25 26  1  0
 26 27  1  0
 27 28  2  0
 28 29  1  0
 29 30  2  0
 30 31  1  0
 31 32  2  0
 32 33  1  0
 23  8  1  0
 33 24  1  0
 21 12  1  0
 32 27  1  0
 20 15  1  0
  1 34  1  0
  1 35  1  0
  5 36  1  0
  5 37  1  0
  6 38  1  0
  6 39  1  0
  7 40  1  0
  7 41  1  0
  9 42  1  0
 13 43  1  0
 13 44  1  0
 14 45  1  0
 14 46  1  0
 16 47  1  0
 17 48  1  0
 18 49  1  0
 19 50  1  0
 21 51  1  0
 21 52  1  0
 25 53  1  0
 25 54  1  0
 26 55  1  0
 26 56  1  0
 28 57  1  0
 29 58  1  0
 30 59  1  0
 31 60  1  0
 33 61  1  0
 33 62  1  0
M  END
>  <smiles>  (46) 
NS(=O)(=O)CCCc1cnc(N2CCc3ccccc3C2)nc1N1CCc2ccccc2C1

>  <score_type>  (46) 
oracle

>  <origin>  (46) 
autodockgpu

>  <m_score__min__energy>  (46) 
-10.720000000000001

>  <m_primary>  (46) 
energy

>  <rmsd>  (46) 
10.1499909093308

>  <m_score__min__rmsd>  (46) 
10.1499909093308

>  <meeko>  (46) 
{"free_energy": -6.7, "intermolecular_energy": -8.79, "internal_energy": -3.1, "cluster_size": 1, "cluster_id": 10, "rank_in_cluster": 1}

>  <energy>  (46) 
-6.95

>  <cluster_rmsd>  (46) 
1.31

>  <cluster>  (46) 
8

$$$$

     RDKit          3D

 62 66  0  0  0  0  0  0  0  0999 V2000
  134.7550   68.1460  224.4670 N   0  0  0  0  0  0  0  0  0  0  0  0
  133.1630   68.2270  225.0870 S   0  0  0  0  0  0  0  0  0  0  0  0
  133.1390   69.0200  226.3720 O   0  0  0  0  0  0  0  0  0  0  0  0
  132.7130   66.8170  225.4650 O   0  0  0  0  0  0  0  0  0  0  0  0
  131.9760   68.9160  224.0010 C   0  0  0  0  0  0  0  0  0  0  0  0
  131.7370   70.3790  224.1370 C   0  0  0  0  0  0  0  0  0  0  0  0
  132.6540   71.3080  223.4330 C   0  0  0  0  0  0  0  0  0  0  0  0
  134.0790   70.9220  223.4880 C   0  0  0  0  0  0  0  0  0  0  0  0
  134.7030   70.1180  222.5570 C   0  0  0  0  0  0  0  0  0  0  0  0
  136.0130   69.7770  222.6410 N   0  0  0  0  0  0  0  0  0  0  0  0
  136.7480   70.2240  223.6490 C   0  0  0  0  0  0  0  0  0  0  0  0
  138.1210   69.8730  223.7420 N   0  0  0  0  0  0  0  0  0  0  0  0
  139.1740   70.7930  223.3800 C   0  0  0  0  0  0  0  0  0  0  0  0
  139.9590   71.1590  224.6090 C   0  0  0  0  0  0  0  0  0  0  0  0
  140.1050   69.9980  225.5230 C   0  0  0  0  0  0  0  0  0  0  0  0
  140.9620   70.1650  226.6100 C   0  0  0  0  0  0  0  0  0  0  0  0
  141.1720   69.1400  227.5280 C   0  0  0  0  0  0  0  0  0  0  0  0
  140.5010   67.9350  227.3320 C   0  0  0  0  0  0  0  0  0  0  0  0
  139.6430   67.7630  226.2450 C   0  0  0  0  0  0  0  0  0  0  0  0
  139.4510   68.8030  225.3450 C   0  0  0  0  0  0  0  0  0  0  0  0
  138.5210   68.5410  224.2140 C   0  0  0  0  0  0  0  0  0  0  0  0
  136.2110   71.0080  224.5910 N   0  0  0  0  0  0  0  0  0  0  0  0
  134.8920   71.3660  224.5300 C   0  0  0  0  0  0  0  0  0  0  0  0
  134.4430   72.1900  225.5860 N   0  0  0  0  0  0  0  0  0  0  0  0
  133.8450   71.7320  226.8170 C   0  0  0  0  0  0  0  0  0  0  0  0
  132.5260   72.3780  227.1440 C   0  0  0  0  0  0  0  0  0  0  0  0
  132.6140   73.8450  226.9660 C   0  0  0  0  0  0  0  0  0  0  0  0
  131.6870   74.6190  227.6310 C   0  0  0  0  0  0  0  0  0  0  0  0
  131.7040   75.9960  227.5140 C   0  0  0  0  0  0  0  0  0  0  0  0
  132.6720   76.5660  226.7160 C   0  0  0  0  0  0  0  0  0  0  0  0
  133.6000   75.7690  226.0510 C   0  0  0  0  0  0  0  0  0  0  0  0
  133.5860   74.4010  226.1670 C   0  0  0  0  0  0  0  0  0  0  0  0
  134.6030   73.6320  225.4300 C   0  0  0  0  0  0  0  0  0  0  0  0
  135.2940   69.0190  224.6660 H   0  0  0  0  0  0  0  0  0  0  0  0
  134.7140   68.0420  223.4380 H   0  0  0  0  0  0  0  0  0  0  0  0
  132.3112   68.7243  222.9710 H   0  0  0  0  0  0  0  0  0  0  0  0
  131.0218   68.4347  224.2615 H   0  0  0  0  0  0  0  0  0  0  0  0
  130.7213   70.5794  223.7652 H   0  0  0  0  0  0  0  0  0  0  0  0
  131.9075   70.5847  225.2041 H   0  0  0  0  0  0  0  0  0  0  0  0
  132.3513   71.3545  222.3765 H   0  0  0  0  0  0  0  0  0  0  0  0
  132.5726   72.2770  223.9471 H   0  0  0  0  0  0  0  0  0  0  0  0
  134.1130   69.7371  221.7103 H   0  0  0  0  0  0  0  0  0  0  0  0
  139.8412   70.3173  222.6461 H   0  0  0  0  0  0  0  0  0  0  0  0
  138.7350   71.7004  222.9396 H   0  0  0  0  0  0  0  0  0  0  0  0
  140.9585   71.5040  224.3059 H   0  0  0  0  0  0  0  0  0  0  0  0
  139.4173   71.9541  225.1423 H   0  0  0  0  0  0  0  0  0  0  0  0
  141.4820   71.1249  226.7447 H   0  0  0  0  0  0  0  0  0  0  0  0
  141.8488   69.2776  228.3842 H   0  0  0  0  0  0  0  0  0  0  0  0
  140.6494   67.1088  228.0429 H   0  0  0  0  0  0  0  0  0  0  0  0
  139.1200   66.8060  226.1014 H   0  0  0  0  0  0  0  0  0  0  0  0
  139.0305   67.9832  223.4144 H   0  0  0  0  0  0  0  0  0  0  0  0
  137.6575   67.9315  224.5187 H   0  0  0  0  0  0  0  0  0  0  0  0
  133.6868   70.6462  226.7397 H   0  0  0  0  0  0  0  0  0  0  0  0
  134.5388   72.0072  227.6250 H   0  0  0  0  0  0  0  0  0  0  0  0
  131.7500   71.9773  226.4752 H   0  0  0  0  0  0  0  0  0  0  0  0
  132.2705   72.1594  228.1914 H   0  0  0  0  0  0  0  0  0  0  0  0
  130.9260   74.1356  228.2612 H   0  0  0  0  0  0  0  0  0  0  0  0
  130.9667   76.6184  228.0422 H   0  0  0  0  0  0  0  0  0  0  0  0
  132.7119   77.6595  226.6034 H   0  0  0  0  0  0  0  0  0  0  0  0
  134.3623   76.2466  225.4178 H   0  0  0  0  0  0  0  0  0  0  0  0
  134.5259   73.8808  224.3613 H   0  0  0  0  0  0  0  0  0  0  0  0
  135.5865   73.9030  225.8415 H   0  0  0  0  0  0  0  0  0  0  0  0
  1  2  1  0
  2  3  2  0
  2  4  2  0
  2  5  1  0
  5  6  1  0
  6  7  1  0
  7  8  1  0
  8  9  2  0
  9 10  1  0
 10 11  2  0
 11 12  1  0
 12 13  1  0
 13 14  1  0
 14 15  1  0
 15 16  2  0
 16 17  1  0
 17 18  2  0
 18 19  1  0
 19 20  2  0
 20 21  1  0
 11 22  1  0
 22 23  2  0
 23 24  1  0
 24 25  1  0
 25 26  1  0
 26 27  1  0
 27 28  2  0
 28 29  1  0
 29 30  2  0
 30 31  1  0
 31 32  2  0
 32 33  1  0
 23  8  1  0
 33 24  1  0
 21 12  1  0
 32 27  1  0
 20 15  1  0
  1 34  1  0
  1 35  1  0
  5 36  1  0
  5 37  1  0
  6 38  1  0
  6 39  1  0
  7 40  1  0
  7 41  1  0
  9 42  1  0
 13 43  1  0
 13 44  1  0
 14 45  1  0
 14 46  1  0
 16 47  1  0
 17 48  1  0
 18 49  1  0
 19 50  1  0
 21 51  1  0
 21 52  1  0
 25 53  1  0
 25 54  1  0
 26 55  1  0
 26 56  1  0
 28 57  1  0
 29 58  1  0
 30 59  1  0
 31 60  1  0
 33 61  1  0
 33 62  1  0
M  END
>  <smiles>  (47) 
NS(=O)(=O)CCCc1cnc(N2CCc3ccccc3C2)nc1N1CCc2ccccc2C1

>  <score_type>  (47) 
oracle

>  <origin>  (47) 
autodockgpu

>  <m_score__min__energy>  (47) 
-10.720000000000001

>  <m_primary>  (47) 
energy

>  <rmsd>  (47) 
10.947923193217111

>  <m_score__min__rmsd>  (47) 
10.947923193217111

>  <meeko>  (47) 
{"free_energy": -7.76, "intermolecular_energy": -9.85, "internal_energy": -3.16, "cluster_size": 3, "cluster_id": 7, "rank_in_cluster": 1}

>  <energy>  (47) 
-7.5

>  <cluster_rmsd>  (47) 
0.0

>  <cluster>  (47) 
9

$$$$

     RDKit          3D

 62 66  0  0  0  0  0  0  0  0999 V2000
  145.8740   72.6970  221.9940 N   0  0  0  0  0  0  0  0  0  0  0  0
  145.6780   73.4960  220.4940 S   0  0  0  0  0  0  0  0  0  0  0  0
  145.3520   72.5000  219.4070 O   0  0  0  0  0  0  0  0  0  0  0  0
  147.0130   74.1210  220.0940 O   0  0  0  0  0  0  0  0  0  0  0  0
  144.4510   74.7450  220.4720 C   0  0  0  0  0  0  0  0  0  0  0  0
  143.6650   74.8670  219.2140 C   0  0  0  0  0  0  0  0  0  0  0  0
  142.6380   73.8370  218.9250 C   0  0  0  0  0  0  0  0  0  0  0  0
  141.9630   73.2920  220.1210 C   0  0  0  0  0  0  0  0  0  0  0  0
  142.0790   71.9870  220.5510 C   0  0  0  0  0  0  0  0  0  0  0  0
  141.4400   71.5160  221.6510 N   0  0  0  0  0  0  0  0  0  0  0  0
  140.6660   72.3240  222.3600 C   0  0  0  0  0  0  0  0  0  0  0  0
  139.9950   71.8390  223.5150 N   0  0  0  0  0  0  0  0  0  0  0  0
  138.6070   71.4410  223.4850 C   0  0  0  0  0  0  0  0  0  0  0  0
  138.5080   69.9600  223.7250 C   0  0  0  0  0  0  0  0  0  0  0  0
  139.5140   69.5060  224.7180 C   0  0  0  0  0  0  0  0  0  0  0  0
  139.4060   68.1860  225.1570 C   0  0  0  0  0  0  0  0  0  0  0  0
  140.2960   67.6580  226.0870 C   0  0  0  0  0  0  0  0  0  0  0  0
  141.3050   68.4860  226.5740 C   0  0  0  0  0  0  0  0  0  0  0  0
  141.4180   69.8080  226.1390 C   0  0  0  0  0  0  0  0  0  0  0  0
  140.5160   70.3090  225.2090 C   0  0  0  0  0  0  0  0  0  0  0  0
  140.7020   71.7250  224.7960 C   0  0  0  0  0  0  0  0  0  0  0  0
  140.5040   73.6040  222.0030 N   0  0  0  0  0  0  0  0  0  0  0  0
  141.1370   74.1030  220.8980 C   0  0  0  0  0  0  0  0  0  0  0  0
  140.8810   75.4640  220.6210 N   0  0  0  0  0  0  0  0  0  0  0  0
  140.5010   76.0080  219.3390 C   0  0  0  0  0  0  0  0  0  0  0  0
  141.3580   77.1530  218.8720 C   0  0  0  0  0  0  0  0  0  0  0  0
  141.5460   78.1320  219.9660 C   0  0  0  0  0  0  0  0  0  0  0  0
  141.8990   79.4160  219.6120 C   0  0  0  0  0  0  0  0  0  0  0  0
  142.0940   80.3870  220.5760 C   0  0  0  0  0  0  0  0  0  0  0  0
  141.9240   80.0290  221.8970 C   0  0  0  0  0  0  0  0  0  0  0  0
  141.5670   78.7280  222.2380 C   0  0  0  0  0  0  0  0  0  0  0  0
  141.3730   77.7620  221.2800 C   0  0  0  0  0  0  0  0  0  0  0  0
  140.9970   76.4100  221.7260 C   0  0  0  0  0  0  0  0  0  0  0  0
  146.2490   73.3390  222.7290 H   0  0  0  0  0  0  0  0  0  0  0  0
  146.5590   71.9290  221.8820 H   0  0  0  0  0  0  0  0  0  0  0  0
  143.7458   74.5381  221.2905 H   0  0  0  0  0  0  0  0  0  0  0  0
  144.9946   75.6958  220.5748 H   0  0  0  0  0  0  0  0  0  0  0  0
  143.1518   75.8395  219.2434 H   0  0  0  0  0  0  0  0  0  0  0  0
  144.4099   74.7400  218.4146 H   0  0  0  0  0  0  0  0  0  0  0  0
  141.8737   74.2870  218.2743 H   0  0  0  0  0  0  0  0  0  0  0  0
  143.1642   72.9948  218.4519 H   0  0  0  0  0  0  0  0  0  0  0  0
  142.7170   71.2984  219.9775 H   0  0  0  0  0  0  0  0  0  0  0  0
  138.0540   71.9779  224.2698 H   0  0  0  0  0  0  0  0  0  0  0  0
  138.1757   71.6842  222.5027 H   0  0  0  0  0  0  0  0  0  0  0  0
  137.5015   69.7245  224.1012 H   0  0  0  0  0  0  0  0  0  0  0  0
  138.6995   69.4407  222.7744 H   0  0  0  0  0  0  0  0  0  0  0  0
  138.6011   67.5501  224.7599 H   0  0  0  0  0  0  0  0  0  0  0  0
  140.2055   66.6162  226.4281 H   0  0  0  0  0  0  0  0  0  0  0  0
  142.0216   68.0934  227.3104 H   0  0  0  0  0  0  0  0  0  0  0  0
  142.2193   70.4511  226.5318 H   0  0  0  0  0  0  0  0  0  0  0  0
  140.2656   72.4063  225.5412 H   0  0  0  0  0  0  0  0  0  0  0  0
  141.7647   71.9954  224.7088 H   0  0  0  0  0  0  0  0  0  0  0  0
  140.5641   75.2036  218.5914 H   0  0  0  0  0  0  0  0  0  0  0  0
  139.4819   76.4054  219.4557 H   0  0  0  0  0  0  0  0  0  0  0  0
  142.3390   76.7675  218.5572 H   0  0  0  0  0  0  0  0  0  0  0  0
  140.8607   77.6513  218.0268 H   0  0  0  0  0  0  0  0  0  0  0  0
  142.0271   79.6712  218.5497 H   0  0  0  0  0  0  0  0  0  0  0  0
  142.3760   81.4133  220.2983 H   0  0  0  0  0  0  0  0  0  0  0  0
  142.0720   80.7787  222.6882 H   0  0  0  0  0  0  0  0  0  0  0  0
  141.4371   78.4668  223.2986 H   0  0  0  0  0  0  0  0  0  0  0  0
  141.7644   76.0436  222.4238 H   0  0  0  0  0  0  0  0  0  0  0  0
  140.0103   76.4814  222.2070 H   0  0  0  0  0  0  0  0  0  0  0  0
  1  2  1  0
  2  3  2  0
  2  4  2  0
  2  5  1  0
  5  6  1  0
  6  7  1  0
  7  8  1  0
  8  9  2  0
  9 10  1  0
 10 11  2  0
 11 12  1  0
 12 13  1  0
 13 14  1  0
 14 15  1  0
 15 16  2  0
 16 17  1  0
 17 18  2  0
 18 19  1  0
 19 20  2  0
 20 21  1  0
 11 22  1  0
 22 23  2  0
 23 24  1  0
 24 25  1  0
 25 26  1  0
 26 27  1  0
 27 28  2  0
 28 29  1  0
 29 30  2  0
 30 31  1  0
 31 32  2  0
 32 33  1  0
 23  8  1  0
 33 24  1  0
 21 12  1  0
 32 27  1  0
 20 15  1  0
  1 34  1  0
  1 35  1  0
  5 36  1  0
  5 37  1  0
  6 38  1  0
  6 39  1  0
  7 40  1  0
  7 41  1  0
  9 42  1  0
 13 43  1  0
 13 44  1  0
 14 45  1  0
 14 46  1  0
 16 47  1  0
 17 48  1  0
 18 49  1  0
 19 50  1  0
 21 51  1  0
 21 52  1  0
 25 53  1  0
 25 54  1  0
 26 55  1  0
 26 56  1  0
 28 57  1  0
 29 58  1  0
 30 59  1  0
 31 60  1  0
 33 61  1  0
 33 62  1  0
M  END
>  <smiles>  (48) 
NS(=O)(=O)CCCc1cnc(N2CCc3ccccc3C2)nc1N1CCc2ccccc2C1

>  <score_type>  (48) 
oracle

>  <origin>  (48) 
autodockgpu

>  <m_score__min__energy>  (48) 
-10.720000000000001

>  <m_primary>  (48) 
energy

>  <rmsd>  (48) 
4.312648004196616

>  <m_score__min__rmsd>  (48) 
4.312648004196616

>  <meeko>  (48) 
{"free_energy": -9.11, "intermolecular_energy": -11.2, "internal_energy": -1.56, "cluster_size": 30, "cluster_id": 1, "rank_in_cluster": 22}

>  <energy>  (48) 
-6.7

>  <cluster_rmsd>  (48) 
0.0

>  <cluster>  (48) 
10

$$$$

     RDKit          3D

 62 66  0  0  0  0  0  0  0  0999 V2000
  146.3260   73.4130  217.4290 N   0  0  0  0  0  0  0  0  0  0  0  0
  145.0680   73.3300  218.5850 S   0  0  0  0  0  0  0  0  0  0  0  0
  145.6300   73.0230  219.9520 O   0  0  0  0  0  0  0  0  0  0  0  0
  144.1620   72.1510  218.2370 O   0  0  0  0  0  0  0  0  0  0  0  0
  144.0810   74.7710  218.7140 C   0  0  0  0  0  0  0  0  0  0  0  0
  142.9250   74.6890  219.6480 C   0  0  0  0  0  0  0  0  0  0  0  0
  141.8730   73.6800  219.3750 C   0  0  0  0  0  0  0  0  0  0  0  0
  141.2540   73.0970  220.5830 C   0  0  0  0  0  0  0  0  0  0  0  0
  141.3410   71.7670  220.9370 C   0  0  0  0  0  0  0  0  0  0  0  0
  140.7540   71.2630  222.0510 N   0  0  0  0  0  0  0  0  0  0  0  0
  140.0620   72.0620  222.8510 C   0  0  0  0  0  0  0  0  0  0  0  0
  139.4470   71.5410  224.0200 N   0  0  0  0  0  0  0  0  0  0  0  0
  138.1040   71.0070  224.0090 C   0  0  0  0  0  0  0  0  0  0  0  0
  138.1540   69.5300  224.2850 C   0  0  0  0  0  0  0  0  0  0  0  0
  139.2030   69.2030  225.2840 C   0  0  0  0  0  0  0  0  0  0  0  0
  139.2280   67.8910  225.7550 C   0  0  0  0  0  0  0  0  0  0  0  0
  140.1680   67.4770  226.6930 C   0  0  0  0  0  0  0  0  0  0  0  0
  141.0920   68.4130  227.1530 C   0  0  0  0  0  0  0  0  0  0  0  0
  141.0720   69.7280  226.6860 C   0  0  0  0  0  0  0  0  0  0  0  0
  140.1210   70.1130  225.7490 C   0  0  0  0  0  0  0  0  0  0  0  0
  140.1660   71.5300  225.3000 C   0  0  0  0  0  0  0  0  0  0  0  0
  139.9330   73.3650  222.5710 N   0  0  0  0  0  0  0  0  0  0  0  0
  140.5150   73.8970  221.4530 C   0  0  0  0  0  0  0  0  0  0  0  0
  140.3000   75.2810  221.2650 N   0  0  0  0  0  0  0  0  0  0  0  0
  139.7280   75.8930  220.0900 C   0  0  0  0  0  0  0  0  0  0  0  0
  140.5570   77.0040  219.5030 C   0  0  0  0  0  0  0  0  0  0  0  0
  141.0040   77.9280  220.5690 C   0  0  0  0  0  0  0  0  0  0  0  0
  141.3690   79.2020  220.1900 C   0  0  0  0  0  0  0  0  0  0  0  0
  141.7980   80.1230  221.1270 C   0  0  0  0  0  0  0  0  0  0  0  0
  141.8500   79.7260  222.4460 C   0  0  0  0  0  0  0  0  0  0  0  0
  141.4790   78.4360  222.8130 C   0  0  0  0  0  0  0  0  0  0  0  0
  141.0510   77.5200  221.8830 C   0  0  0  0  0  0  0  0  0  0  0  0
  140.6770   76.1760  222.3540 C   0  0  0  0  0  0  0  0  0  0  0  0
  146.8530   74.3140  217.4910 H   0  0  0  0  0  0  0  0  0  0  0  0
  145.9180   73.3650  216.4790 H   0  0  0  0  0  0  0  0  0  0  0  0
  144.7288   75.5934  219.0517 H   0  0  0  0  0  0  0  0  0  0  0  0
  143.6451   74.9221  217.7154 H   0  0  0  0  0  0  0  0  0  0  0  0
  143.3289   74.4763  220.6488 H   0  0  0  0  0  0  0  0  0  0  0  0
  142.4122   75.6552  219.5321 H   0  0  0  0  0  0  0  0  0  0  0  0
  141.0815   74.1610  218.7816 H   0  0  0  0  0  0  0  0  0  0  0  0
  142.3650   72.8512  218.8450 H   0  0  0  0  0  0  0  0  0  0  0  0
  141.9109   71.0857  220.2881 H   0  0  0  0  0  0  0  0  0  0  0  0
  137.5040   71.5056  224.7845 H   0  0  0  0  0  0  0  0  0  0  0  0
  137.6459   71.1825  223.0245 H   0  0  0  0  0  0  0  0  0  0  0  0
  137.1770   69.2044  224.6717 H   0  0  0  0  0  0  0  0  0  0  0  0
  138.3941   69.0093  223.3463 H   0  0  0  0  0  0  0  0  0  0  0  0
  138.4894   67.1687  225.3772 H   0  0  0  0  0  0  0  0  0  0  0  0
  140.1815   66.4405  227.0610 H   0  0  0  0  0  0  0  0  0  0  0  0
  141.8471   68.1115  227.8939 H   0  0  0  0  0  0  0  0  0  0  0  0
  141.8066   70.4572  227.0584 H   0  0  0  0  0  0  0  0  0  0  0  0
  139.6670   72.1839  226.0303 H   0  0  0  0  0  0  0  0  0  0  0  0
  141.1966   71.9014  225.2005 H   0  0  0  0  0  0  0  0  0  0  0  0
  139.6026   75.1147  219.3228 H   0  0  0  0  0  0  0  0  0  0  0  0
  138.7744   76.3435  220.4026 H   0  0  0  0  0  0  0  0  0  0  0  0
  141.4372   76.5746  219.0021 H   0  0  0  0  0  0  0  0  0  0  0  0
  139.9464   77.5620  218.7779 H   0  0  0  0  0  0  0  0  0  0  0  0
  141.3183   79.4891  219.1293 H   0  0  0  0  0  0  0  0  0  0  0  0
  142.0889   81.1412  220.8294 H   0  0  0  0  0  0  0  0  0  0  0  0
  142.1879   80.4355  223.2157 H   0  0  0  0  0  0  0  0  0  0  0  0
  141.5296   78.1430  223.8721 H   0  0  0  0  0  0  0  0  0  0  0  0
  141.5341   75.7392  222.8875 H   0  0  0  0  0  0  0  0  0  0  0  0
  139.8015   76.2864  223.0108 H   0  0  0  0  0  0  0  0  0  0  0  0
  1  2  1  0
  2  3  2  0
  2  4  2  0
  2  5  1  0
  5  6  1  0
  6  7  1  0
  7  8  1  0
  8  9  2  0
  9 10  1  0
 10 11  2  0
 11 12  1  0
 12 13  1  0
 13 14  1  0
 14 15  1  0
 15 16  2  0
 16 17  1  0
 17 18  2  0
 18 19  1  0
 19 20  2  0
 20 21  1  0
 11 22  1  0
 22 23  2  0
 23 24  1  0
 24 25  1  0
 25 26  1  0
 26 27  1  0
 27 28  2  0
 28 29  1  0
 29 30  2  0
 30 31  1  0
 31 32  2  0
 32 33  1  0
 23  8  1  0
 33 24  1  0
 21 12  1  0
 32 27  1  0
 20 15  1  0
  1 34  1  0
  1 35  1  0
  5 36  1  0
  5 37  1  0
  6 38  1  0
  6 39  1  0
  7 40  1  0
  7 41  1  0
  9 42  1  0
 13 43  1  0
 13 44  1  0
 14 45  1  0
 14 46  1  0
 16 47  1  0
 17 48  1  0
 18 49  1  0
 19 50  1  0
 21 51  1  0
 21 52  1  0
 25 53  1  0
 25 54  1  0
 26 55  1  0
 26 56  1  0
 28 57  1  0
 29 58  1  0
 30 59  1  0
 31 60  1  0
 33 61  1  0
 33 62  1  0
M  END
>  <smiles>  (49) 
NS(=O)(=O)CCCc1cnc(N2CCc3ccccc3C2)nc1N1CCc2ccccc2C1

>  <score_type>  (49) 
oracle

>  <origin>  (49) 
autodockgpu

>  <m_score__min__energy>  (49) 
-10.720000000000001

>  <m_primary>  (49) 
energy

>  <rmsd>  (49) 
4.283608913455286

>  <m_score__min__rmsd>  (49) 
4.283608913455286

>  <meeko>  (49) 
{"free_energy": -8.97, "intermolecular_energy": -11.05, "internal_energy": -1.43, "cluster_size": 30, "cluster_id": 1, "rank_in_cluster": 24}

>  <energy>  (49) 
-6.6

>  <cluster_rmsd>  (49) 
0.0

>  <cluster>  (49) 
11

$$$$

     RDKit          3D

 62 66  0  0  0  0  0  0  0  0999 V2000
  146.6250   73.4760  217.0430 N   0  0  0  0  0  0  0  0  0  0  0  0
  145.3770   72.9230  218.0740 S   0  0  0  0  0  0  0  0  0  0  0  0
  145.9600   72.3160  219.3280 O   0  0  0  0  0  0  0  0  0  0  0  0
  144.6320   71.7880  217.3750 O   0  0  0  0  0  0  0  0  0  0  0  0
  144.2120   74.1410  218.5510 C   0  0  0  0  0  0  0  0  0  0  0  0
  143.3730   73.8140  219.7360 C   0  0  0  0  0  0  0  0  0  0  0  0
  141.9310   73.5410  219.5200 C   0  0  0  0  0  0  0  0  0  0  0  0
  141.2400   72.9410  220.6790 C   0  0  0  0  0  0  0  0  0  0  0  0
  140.6020   73.6650  221.6640 C   0  0  0  0  0  0  0  0  0  0  0  0
  139.9810   73.0820  222.7200 N   0  0  0  0  0  0  0  0  0  0  0  0
  139.9730   71.7620  222.8330 C   0  0  0  0  0  0  0  0  0  0  0  0
  139.3230   71.1450  223.9350 N   0  0  0  0  0  0  0  0  0  0  0  0
  138.1430   70.3270  223.7710 C   0  0  0  0  0  0  0  0  0  0  0  0
  138.4700   68.9050  224.1310 C   0  0  0  0  0  0  0  0  0  0  0  0
  139.4110   68.8400  225.2780 C   0  0  0  0  0  0  0  0  0  0  0  0
  139.6500   67.5760  225.8170 C   0  0  0  0  0  0  0  0  0  0  0  0
  140.5130   67.4020  226.8940 C   0  0  0  0  0  0  0  0  0  0  0  0
  141.1380   68.5290  227.4250 C   0  0  0  0  0  0  0  0  0  0  0  0
  140.9020   69.7960  226.8890 C   0  0  0  0  0  0  0  0  0  0  0  0
  140.0350   69.9410  225.8130 C   0  0  0  0  0  0  0  0  0  0  0  0
  139.8360   71.3220  225.3000 C   0  0  0  0  0  0  0  0  0  0  0  0
  140.5720   70.9930  221.9160 N   0  0  0  0  0  0  0  0  0  0  0  0
  141.2060   71.5560  220.8420 C   0  0  0  0  0  0  0  0  0  0  0  0
  141.8060   70.6410  219.9500 N   0  0  0  0  0  0  0  0  0  0  0  0
  141.1080   69.8170  218.9910 C   0  0  0  0  0  0  0  0  0  0  0  0
  141.4420   68.3530  219.0720 C   0  0  0  0  0  0  0  0  0  0  0  0
  142.9080   68.1640  219.1520 C   0  0  0  0  0  0  0  0  0  0  0  0
  143.4080   66.9330  218.7830 C   0  0  0  0  0  0  0  0  0  0  0  0
  144.7660   66.6790  218.8310 C   0  0  0  0  0  0  0  0  0  0  0  0
  145.5980   67.6920  219.2580 C   0  0  0  0  0  0  0  0  0  0  0  0
  145.0770   68.9290  219.6260 C   0  0  0  0  0  0  0  0  0  0  0  0
  143.7280   69.1830  219.5790 C   0  0  0  0  0  0  0  0  0  0  0  0
  143.2590   70.5180  219.9860 C   0  0  0  0  0  0  0  0  0  0  0  0
  146.7770   74.5070  217.1350 H   0  0  0  0  0  0  0  0  0  0  0  0
  146.3580   73.2950  216.0600 H   0  0  0  0  0  0  0  0  0  0  0  0
  144.7645   75.0655  218.7748 H   0  0  0  0  0  0  0  0  0  0  0  0
  143.5117   74.2275  217.7071 H   0  0  0  0  0  0  0  0  0  0  0  0
  143.8074   72.9196  220.2064 H   0  0  0  0  0  0  0  0  0  0  0  0
  143.3888   74.7314  220.3427 H   0  0  0  0  0  0  0  0  0  0  0  0
  141.4339   74.4921  219.2785 H   0  0  0  0  0  0  0  0  0  0  0  0
  141.8711   72.8046  218.7051 H   0  0  0  0  0  0  0  0  0  0  0  0
  140.5963   74.7625  221.5904 H   0  0  0  0  0  0  0  0  0  0  0  0
  137.3441   70.6983  224.4297 H   0  0  0  0  0  0  0  0  0  0  0  0
  137.8048   70.3738  222.7253 H   0  0  0  0  0  0  0  0  0  0  0  0
  137.5409   68.3810  224.3999 H   0  0  0  0  0  0  0  0  0  0  0  0
  138.9488   68.4290  223.2626 H   0  0  0  0  0  0  0  0  0  0  0  0
  139.1464   66.7000  225.3821 H   0  0  0  0  0  0  0  0  0  0  0  0
  140.6971   66.4026  227.3150 H   0  0  0  0  0  0  0  0  0  0  0  0
  141.8254   68.4186  228.2766 H   0  0  0  0  0  0  0  0  0  0  0  0
  141.4012   70.6776  227.3175 H   0  0  0  0  0  0  0  0  0  0  0  0
  139.1075   71.8646  225.9204 H   0  0  0  0  0  0  0  0  0  0  0  0
  140.7649   71.9107  225.3213 H   0  0  0  0  0  0  0  0  0  0  0  0
  140.0272   69.9334  219.1592 H   0  0  0  0  0  0  0  0  0  0  0  0
  141.4253   70.1572  217.9942 H   0  0  0  0  0  0  0  0  0  0  0  0
  140.9712   67.9225  219.9681 H   0  0  0  0  0  0  0  0  0  0  0  0
  141.0651   67.8496  218.1695 H   0  0  0  0  0  0  0  0  0  0  0  0
  142.7187   66.1445  218.4468 H   0  0  0  0  0  0  0  0  0  0  0  0
  145.1703   65.6990  218.5376 H   0  0  0  0  0  0  0  0  0  0  0  0
  146.6835   67.5210  219.3083 H   0  0  0  0  0  0  0  0  0  0  0  0
  145.7615   69.7217  219.9623 H   0  0  0  0  0  0  0  0  0  0  0  0
  143.6031   70.7138  221.0123 H   0  0  0  0  0  0  0  0  0  0  0  0
  143.6712   71.2462  219.2719 H   0  0  0  0  0  0  0  0  0  0  0  0
  1  2  1  0
  2  3  2  0
  2  4  2  0
  2  5  1  0
  5  6  1  0
  6  7  1  0
  7  8  1  0
  8  9  2  0
  9 10  1  0
 10 11  2  0
 11 12  1  0
 12 13  1  0
 13 14  1  0
 14 15  1  0
 15 16  2  0
 16 17  1  0
 17 18  2  0
 18 19  1  0
 19 20  2  0
 20 21  1  0
 11 22  1  0
 22 23  2  0
 23 24  1  0
 24 25  1  0
 25 26  1  0
 26 27  1  0
 27 28  2  0
 28 29  1  0
 29 30  2  0
 30 31  1  0
 31 32  2  0
 32 33  1  0
 23  8  1  0
 33 24  1  0
 21 12  1  0
 32 27  1  0
 20 15  1  0
  1 34  1  0
  1 35  1  0
  5 36  1  0
  5 37  1  0
  6 38  1  0
  6 39  1  0
  7 40  1  0
  7 41  1  0
  9 42  1  0
 13 43  1  0
 13 44  1  0
 14 45  1  0
 14 46  1  0
 16 47  1  0
 17 48  1  0
 18 49  1  0
 19 50  1  0
 21 51  1  0
 21 52  1  0
 25 53  1  0
 25 54  1  0
 26 55  1  0
 26 56  1  0
 28 57  1  0
 29 58  1  0
 30 59  1  0
 31 60  1  0
 33 61  1  0
 33 62  1  0
M  END
>  <smiles>  (50) 
NS(=O)(=O)CCCc1cnc(N2CCc3ccccc3C2)nc1N1CCc2ccccc2C1

>  <score_type>  (50) 
oracle

>  <origin>  (50) 
autodockgpu

>  <m_score__min__energy>  (50) 
-10.720000000000001

>  <m_primary>  (50) 
energy

>  <rmsd>  (50) 
10.683491837463308

>  <m_score__min__rmsd>  (50) 
10.683491837463308

>  <meeko>  (50) 
{"free_energy": -8.46, "intermolecular_energy": -10.54, "internal_energy": -1.79, "cluster_size": 2, "cluster_id": 2, "rank_in_cluster": 2}

>  <energy>  (50) 
-6.3

>  <cluster_rmsd>  (50) 
0.0

>  <cluster>  (50) 
12

$$$$
