
     RDKit          3D

 38 40  0  0  0  0  0  0  0  0999 V2000
  139.9370   73.4590  222.3960 O   0  0  0  0  0  0  0  0  0  0  0  0
  140.4580   72.2990  222.4790 C   0  0  0  0  0  0  0  0  0  0  0  0
  141.2170   71.7290  221.4240 N   0  0  0  0  0  0  0  0  0  0  0  0
  141.3980   72.5010  220.2170 C   0  0  0  0  0  0  0  0  0  0  0  0
  142.3820   73.5650  220.4590 C   0  0  0  0  0  0  0  0  0  0  0  0
  142.0170   74.7300  220.7720 O   0  0  0  0  0  0  0  0  0  0  0  0
  143.7830   73.3440  220.3550 N   0  0  0  0  0  0  0  0  0  0  0  0
  144.8180   74.3270  220.5740 C   0  0  0  0  0  0  0  0  0  0  0  0
  145.9900   73.4470  221.0240 C   0  0  0  0  0  0  0  0  0  0  0  0
  145.8690   72.3150  220.0330 C   0  0  0  0  0  0  0  0  0  0  0  0
  144.3780   72.0680  220.0060 C   0  0  0  0  0  0  0  0  0  0  0  0
  140.2860   71.5010  223.6940 C   0  0  0  0  0  0  0  0  0  0  0  0
  139.6120   70.2830  223.6090 C   0  0  0  0  0  0  0  0  0  0  0  0
  139.4280   69.4960  224.7280 C   0  0  0  0  0  0  0  0  0  0  0  0
  139.9070   69.9050  225.9440 C   0  0  0  0  0  0  0  0  0  0  0  0
  139.7560   69.1630  227.1070 C   0  0  0  0  0  0  0  0  0  0  0  0
  140.2740   69.6530  228.2940 C   0  0  0  0  0  0  0  0  0  0  0  0
  140.9330   70.8620  228.3330 C   0  0  0  0  0  0  0  0  0  0  0  0
  141.0790   71.5930  227.1710 C   0  0  0  0  0  0  0  0  0  0  0  0
  140.5730   71.1280  225.9730 C   0  0  0  0  0  0  0  0  0  0  0  0
  140.7460   71.8840  224.8800 N   0  0  0  0  0  0  0  0  0  0  0  0
  141.6370   70.7840  221.4980 H   0  0  0  0  0  0  0  0  0  0  0  0
  141.7590   71.8439  219.4121 H   0  0  0  0  0  0  0  0  0  0  0  0
  140.4381   72.9496  219.9213 H   0  0  0  0  0  0  0  0  0  0  0  0
  145.0570   74.8710  219.6483 H   0  0  0  0  0  0  0  0  0  0  0  0
  144.5446   75.1109  221.2956 H   0  0  0  0  0  0  0  0  0  0  0  0
  146.9527   73.9706  220.9290 H   0  0  0  0  0  0  0  0  0  0  0  0
  145.9589   73.1413  222.0802 H   0  0  0  0  0  0  0  0  0  0  0  0
  146.2415   72.6121  219.0416 H   0  0  0  0  0  0  0  0  0  0  0  0
  146.4576   71.4266  220.3054 H   0  0  0  0  0  0  0  0  0  0  0  0
  144.0560   71.7521  219.0028 H   0  0  0  0  0  0  0  0  0  0  0  0
  144.0778   71.2675  220.6981 H   0  0  0  0  0  0  0  0  0  0  0  0
  139.2220   69.9451  222.6376 H   0  0  0  0  0  0  0  0  0  0  0  0
  138.8950   68.5375  224.6427 H   0  0  0  0  0  0  0  0  0  0  0  0
  139.2308   68.1967  227.0861 H   0  0  0  0  0  0  0  0  0  0  0  0
  140.1576   69.0687  229.2187 H   0  0  0  0  0  0  0  0  0  0  0  0
  141.3395   71.2418  229.2820 H   0  0  0  0  0  0  0  0  0  0  0  0
  141.6053   72.5585  227.1997 H   0  0  0  0  0  0  0  0  0  0  0  0
  1  2  2  0
  2  3  1  0
  3  4  1  0
  4  5  1  0
  5  6  2  0
  5  7  1  0
  7  8  1  0
  8  9  1  0
  9 10  1  0
 10 11  1  0
  2 12  1  0
 12 13  2  0
 13 14  1  0
 14 15  2  0
 15 16  1  0
 16 17  2  0
 17 18  1  0
 18 19  2  0
 19 20  1  0
 20 21  2  0
 11  7  1  0
 21 12  1  0
 20 15  1  0
  3 22  1  0
  4 23  1  0
  4 24  1  0
  8 25  1  0
  8 26  1  0
  9 27  1  0
  9 28  1  0
 10 29  1  0
 10 30  1  0
 11 31  1  0
 11 32  1  0
 13 33  1  0
 14 34  1  0
 16 35  1  0
 17 36  1  0
 18 37  1  0
 19 38  1  0
M  END
>  <smiles>  (1) 
O=C(NCC(=O)N1CCCC1)c1ccc2ccccc2n1

>  <score_type>  (1) 
oracle

>  <origin>  (1) 
autodockgpu

>  <m_score__min__energy>  (1) 
-7.3300000000000001

>  <m_primary>  (1) 
energy

>  <rmsd>  (1) 
3.9636280199429472

>  <m_score__min__rmsd>  (1) 
3.9636280199429472

>  <meeko>  (1) 
{"free_energy": -7.33, "intermolecular_energy": -8.22, "internal_energy": -0.68, "cluster_size": 23, "cluster_id": 1, "rank_in_cluster": 7}

>  <energy>  (1) 
-7.33

>  <cluster_rmsd>  (1) 
0.0

>  <cluster>  (1) 
1

$$$$

     RDKit          3D

 38 40  0  0  0  0  0  0  0  0999 V2000
  140.1540   70.9670  221.2680 O   0  0  0  0  0  0  0  0  0  0  0  0
  139.9500   71.6210  222.3410 C   0  0  0  0  0  0  0  0  0  0  0  0
  139.7370   73.0240  222.3490 N   0  0  0  0  0  0  0  0  0  0  0  0
  139.7570   73.7250  221.0860 C   0  0  0  0  0  0  0  0  0  0  0  0
  140.3660   75.0500  221.2700 C   0  0  0  0  0  0  0  0  0  0  0  0
  140.2180   75.6900  222.3450 O   0  0  0  0  0  0  0  0  0  0  0  0
  141.1450   75.6760  220.2590 N   0  0  0  0  0  0  0  0  0  0  0  0
  141.7780   76.9710  220.3520 C   0  0  0  0  0  0  0  0  0  0  0  0
  142.9630   76.8060  219.3930 C   0  0  0  0  0  0  0  0  0  0  0  0
  142.2810   76.0980  218.2470 C   0  0  0  0  0  0  0  0  0  0  0  0
  141.4170   75.0850  218.9630 C   0  0  0  0  0  0  0  0  0  0  0  0
  139.9250   70.9280  223.6310 C   0  0  0  0  0  0  0  0  0  0  0  0
  139.4300   69.6260  223.6870 C   0  0  0  0  0  0  0  0  0  0  0  0
  139.3880   68.9340  224.8800 C   0  0  0  0  0  0  0  0  0  0  0  0
  139.8360   69.5220  226.0330 C   0  0  0  0  0  0  0  0  0  0  0  0
  139.8220   68.8840  227.2650 C   0  0  0  0  0  0  0  0  0  0  0  0
  140.2950   69.5550  228.3800 C   0  0  0  0  0  0  0  0  0  0  0  0
  140.7760   70.8420  228.2810 C   0  0  0  0  0  0  0  0  0  0  0  0
  140.7860   71.4690  227.0510 C   0  0  0  0  0  0  0  0  0  0  0  0
  140.3200   70.8240  225.9220 C   0  0  0  0  0  0  0  0  0  0  0  0
  140.3560   71.4860  224.7570 N   0  0  0  0  0  0  0  0  0  0  0  0
  139.5710   73.5500  223.2260 H   0  0  0  0  0  0  0  0  0  0  0  0
  140.3455   73.1492  220.3565 H   0  0  0  0  0  0  0  0  0  0  0  0
  138.7278   73.8429  220.7160 H   0  0  0  0  0  0  0  0  0  0  0  0
  141.1019   77.7728  220.0201 H   0  0  0  0  0  0  0  0  0  0  0  0
  142.0668   77.2550  221.3747 H   0  0  0  0  0  0  0  0  0  0  0  0
  143.3758   77.7777  219.0841 H   0  0  0  0  0  0  0  0  0  0  0  0
  143.8283   76.2741  219.8152 H   0  0  0  0  0  0  0  0  0  0  0  0
  141.6700   76.7952  217.6549 H   0  0  0  0  0  0  0  0  0  0  0  0
  142.9812   75.6494  217.5270 H   0  0  0  0  0  0  0  0  0  0  0  0
  140.4809   74.9156  218.4108 H   0  0  0  0  0  0  0  0  0  0  0  0
  141.9119   74.1064  219.0498 H   0  0  0  0  0  0  0  0  0  0  0  0
  139.0678   69.1435  222.7672 H   0  0  0  0  0  0  0  0  0  0  0  0
  138.9937   67.9074  224.9051 H   0  0  0  0  0  0  0  0  0  0  0  0
  139.4394   67.8566  227.3549 H   0  0  0  0  0  0  0  0  0  0  0  0
  140.2865   69.0532  229.3588 H   0  0  0  0  0  0  0  0  0  0  0  0
  141.1487   71.3654  229.1738 H   0  0  0  0  0  0  0  0  0  0  0  0
  141.1704   72.4964  226.9690 H   0  0  0  0  0  0  0  0  0  0  0  0
  1  2  2  0
  2  3  1  0
  3  4  1  0
  4  5  1  0
  5  6  2  0
  5  7  1  0
  7  8  1  0
  8  9  1  0
  9 10  1  0
 10 11  1  0
  2 12  1  0
 12 13  2  0
 13 14  1  0
 14 15  2  0
 15 16  1  0
 16 17  2  0
 17 18  1  0
 18 19  2  0
 19 20  1  0
 20 21  2  0
 11  7  1  0
 21 12  1  0
 20 15  1  0
  3 22  1  0
  4 23  1  0
  4 24  1  0
  8 25  1  0
  8 26  1  0
  9 27  1  0
  9 28  1  0
 10 29  1  0
 10 30  1  0
 11 31  1  0
 11 32  1  0
 13 33  1  0
 14 34  1  0
 16 35  1  0
 17 36  1  0
 18 37  1  0
 19 38  1  0
M  END
>  <smiles>  (2) 
O=C(NCC(=O)N1CCCC1)c1ccc2ccccc2n1

>  <score_type>  (2) 
oracle

>  <origin>  (2) 
autodockgpu

>  <m_score__min__energy>  (2) 
-7.3300000000000001

>  <m_primary>  (2) 
energy

>  <rmsd>  (2) 
1.5513753823395933

>  <m_score__min__rmsd>  (2) 
1.5513753823395933

>  <meeko>  (2) 
{"free_energy": -6.71, "intermolecular_energy": -7.61, "internal_energy": -1.13, "cluster_size": 26, "cluster_id": 2, "rank_in_cluster": 18}

>  <energy>  (2) 
-7.33

>  <cluster_rmsd>  (2) 
0.04

>  <cluster>  (2) 
1

$$$$

     RDKit          3D

 38 40  0  0  0  0  0  0  0  0999 V2000
  139.7000   73.4240  222.4190 O   0  0  0  0  0  0  0  0  0  0  0  0
  140.3490   72.3320  222.5060 C   0  0  0  0  0  0  0  0  0  0  0  0
  141.2000   71.8690  221.4690 N   0  0  0  0  0  0  0  0  0  0  0  0
  141.3260   72.6740  220.2780 C   0  0  0  0  0  0  0  0  0  0  0  0
  142.3670   73.6920  220.4800 C   0  0  0  0  0  0  0  0  0  0  0  0
  142.0670   74.8830  220.7590 O   0  0  0  0  0  0  0  0  0  0  0  0
  143.7540   73.3930  220.3750 N   0  0  0  0  0  0  0  0  0  0  0  0
  144.8410   74.3250  220.5580 C   0  0  0  0  0  0  0  0  0  0  0  0
  145.9680   73.3980  221.0280 C   0  0  0  0  0  0  0  0  0  0  0  0
  145.7790   72.2450  220.0730 C   0  0  0  0  0  0  0  0  0  0  0  0
  144.2770   72.0770  220.0630 C   0  0  0  0  0  0  0  0  0  0  0  0
  140.2360   71.5010  223.7070 C   0  0  0  0  0  0  0  0  0  0  0  0
  139.6340   70.2470  223.6030 C   0  0  0  0  0  0  0  0  0  0  0  0
  139.5070   69.4300  224.7080 C   0  0  0  0  0  0  0  0  0  0  0  0
  139.9720   69.8430  225.9270 C   0  0  0  0  0  0  0  0  0  0  0  0
  139.8750   69.0710  227.0760 C   0  0  0  0  0  0  0  0  0  0  0  0
  140.3730   69.5680  228.2690 C   0  0  0  0  0  0  0  0  0  0  0  0
  140.9600   70.8130  228.3270 C   0  0  0  0  0  0  0  0  0  0  0  0
  141.0520   71.5740  227.1780 C   0  0  0  0  0  0  0  0  0  0  0  0
  140.5640   71.1030  225.9750 C   0  0  0  0  0  0  0  0  0  0  0  0
  140.6820   71.8890  224.8960 N   0  0  0  0  0  0  0  0  0  0  0  0
  141.7260   70.9790  221.5460 H   0  0  0  0  0  0  0  0  0  0  0  0
  141.6020   72.0313  219.4290 H   0  0  0  0  0  0  0  0  0  0  0  0
  140.3664   73.1689  220.0678 H   0  0  0  0  0  0  0  0  0  0  0  0
  145.1018   74.8273  219.6148 H   0  0  0  0  0  0  0  0  0  0  0  0
  144.6149   75.1437  221.2570 H   0  0  0  0  0  0  0  0  0  0  0  0
  146.9565   73.8663  220.9112 H   0  0  0  0  0  0  0  0  0  0  0  0
  145.9290   73.1267  222.0933 H   0  0  0  0  0  0  0  0  0  0  0  0
  146.1588   72.4918  219.0706 H   0  0  0  0  0  0  0  0  0  0  0  0
  146.3218   71.3351  220.3687 H   0  0  0  0  0  0  0  0  0  0  0  0
  143.9307   71.7475  219.0723 H   0  0  0  0  0  0  0  0  0  0  0  0
  143.9400   71.3156  220.7818 H   0  0  0  0  0  0  0  0  0  0  0  0
  139.2559   69.9051  222.6283 H   0  0  0  0  0  0  0  0  0  0  0  0
  139.0304   68.4436  224.6086 H   0  0  0  0  0  0  0  0  0  0  0  0
  139.4080   68.0757  227.0397 H   0  0  0  0  0  0  0  0  0  0  0  0
  140.2988   68.9602  229.1828 H   0  0  0  0  0  0  0  0  0  0  0  0
  141.3520   71.1977  229.2801 H   0  0  0  0  0  0  0  0  0  0  0  0
  141.5202   72.5684  227.2217 H   0  0  0  0  0  0  0  0  0  0  0  0
  1  2  2  0
  2  3  1  0
  3  4  1  0
  4  5  1  0
  5  6  2  0
  5  7  1  0
  7  8  1  0
  8  9  1  0
  9 10  1  0
 10 11  1  0
  2 12  1  0
 12 13  2  0
 13 14  1  0
 14 15  2  0
 15 16  1  0
 16 17  2  0
 17 18  1  0
 18 19  2  0
 19 20  1  0
 20 21  2  0
 11  7  1  0
 21 12  1  0
 20 15  1  0
  3 22  1  0
  4 23  1  0
  4 24  1  0
  8 25  1  0
  8 26  1  0
  9 27  1  0
  9 28  1  0
 10 29  1  0
 10 30  1  0
 11 31  1  0
 11 32  1  0
 13 33  1  0
 14 34  1  0
 16 35  1  0
 17 36  1  0
 18 37  1  0
 19 38  1  0
M  END
>  <smiles>  (3) 
O=C(NCC(=O)N1CCCC1)c1ccc2ccccc2n1

>  <score_type>  (3) 
oracle

>  <origin>  (3) 
autodockgpu

>  <m_score__min__energy>  (3) 
-7.3300000000000001

>  <m_primary>  (3) 
energy

>  <rmsd>  (3) 
3.9290669401184264

>  <m_score__min__rmsd>  (3) 
3.9290669401184264

>  <meeko>  (3) 
{"free_energy": -7.28, "intermolecular_energy": -8.18, "internal_energy": -0.69, "cluster_size": 23, "cluster_id": 1, "rank_in_cluster": 20}

>  <energy>  (3) 
-7.33

>  <cluster_rmsd>  (3) 
0.03

>  <cluster>  (3) 
1

$$$$

     RDKit          3D

 38 40  0  0  0  0  0  0  0  0999 V2000
  139.9030   73.4530  222.3670 O   0  0  0  0  0  0  0  0  0  0  0  0
  140.4470   72.3060  222.4680 C   0  0  0  0  0  0  0  0  0  0  0  0
  141.2390   71.7460  221.4330 N   0  0  0  0  0  0  0  0  0  0  0  0
  141.4280   72.5140  220.2250 C   0  0  0  0  0  0  0  0  0  0  0  0
  142.4130   73.5780  220.4690 C   0  0  0  0  0  0  0  0  0  0  0  0
  142.0480   74.7440  220.7740 O   0  0  0  0  0  0  0  0  0  0  0  0
  143.8140   73.3530  220.3760 N   0  0  0  0  0  0  0  0  0  0  0  0
  144.8490   74.3350  220.5990 C   0  0  0  0  0  0  0  0  0  0  0  0
  146.0160   73.4540  221.0610 C   0  0  0  0  0  0  0  0  0  0  0  0
  145.9000   72.3180  220.0740 C   0  0  0  0  0  0  0  0  0  0  0  0
  144.4090   72.0740  220.0380 C   0  0  0  0  0  0  0  0  0  0  0  0
  140.2670   71.5110  223.6850 C   0  0  0  0  0  0  0  0  0  0  0  0
  139.5770   70.3020  223.6040 C   0  0  0  0  0  0  0  0  0  0  0  0
  139.3850   69.5200  224.7240 C   0  0  0  0  0  0  0  0  0  0  0  0
  139.8730   69.9240  225.9380 C   0  0  0  0  0  0  0  0  0  0  0  0
  139.7140   69.1860  227.1020 C   0  0  0  0  0  0  0  0  0  0  0  0
  140.2410   69.6700  228.2880 C   0  0  0  0  0  0  0  0  0  0  0  0
  140.9160   70.8720  228.3240 C   0  0  0  0  0  0  0  0  0  0  0  0
  141.0690   71.5990  227.1600 C   0  0  0  0  0  0  0  0  0  0  0  0
  140.5540   71.1390  225.9630 C   0  0  0  0  0  0  0  0  0  0  0  0
  140.7350   71.8910  224.8690 N   0  0  0  0  0  0  0  0  0  0  0  0
  141.6790   70.8110  221.5220 H   0  0  0  0  0  0  0  0  0  0  0  0
  141.7924   71.8538  219.4242 H   0  0  0  0  0  0  0  0  0  0  0  0
  140.4705   72.9634  219.9230 H   0  0  0  0  0  0  0  0  0  0  0  0
  145.0959   74.8751  219.6731 H   0  0  0  0  0  0  0  0  0  0  0  0
  144.5718   75.1223  221.3155 H   0  0  0  0  0  0  0  0  0  0  0  0
  146.9805   73.9752  220.9708 H   0  0  0  0  0  0  0  0  0  0  0  0
  145.9763   73.1526  222.1182 H   0  0  0  0  0  0  0  0  0  0  0  0
  146.2799   72.6101  219.0839 H   0  0  0  0  0  0  0  0  0  0  0  0
  146.4852   71.4296  220.3540 H   0  0  0  0  0  0  0  0  0  0  0  0
  144.0933   71.7533  219.0342 H   0  0  0  0  0  0  0  0  0  0  0  0
  144.1025   71.2779  220.7324 H   0  0  0  0  0  0  0  0  0  0  0  0
  139.1805   69.9674  222.6340 H   0  0  0  0  0  0  0  0  0  0  0  0
  138.8383   68.5690  224.6417 H   0  0  0  0  0  0  0  0  0  0  0  0
  139.1754   68.2271  227.0832 H   0  0  0  0  0  0  0  0  0  0  0  0
  140.1195   69.0879  229.2134 H   0  0  0  0  0  0  0  0  0  0  0  0
  141.3289   71.2483  229.2716 H   0  0  0  0  0  0  0  0  0  0  0  0
  141.6082   72.5574  227.1859 H   0  0  0  0  0  0  0  0  0  0  0  0
  1  2  2  0
  2  3  1  0
  3  4  1  0
  4  5  1  0
  5  6  2  0
  5  7  1  0
  7  8  1  0
  8  9  1  0
  9 10  1  0
 10 11  1  0
  2 12  1  0
 12 13  2  0
 13 14  1  0
 14 15  2  0
 15 16  1  0
 16 17  2  0
 17 18  1  0
 18 19  2  0
 19 20  1  0
 20 21  2  0
 11  7  1  0
 21 12  1  0
 20 15  1  0
  3 22  1  0
  4 23  1  0
  4 24  1  0
  8 25  1  0
  8 26  1  0
  9 27  1  0
  9 28  1  0
 10 29  1  0
 10 30  1  0
 11 31  1  0
 11 32  1  0
 13 33  1  0
 14 34  1  0
 16 35  1  0
 17 36  1  0
 18 37  1  0
 19 38  1  0
M  END
>  <smiles>  (4) 
O=C(NCC(=O)N1CCCC1)c1ccc2ccccc2n1

>  <score_type>  (4) 
oracle

>  <origin>  (4) 
autodockgpu

>  <m_score__min__energy>  (4) 
-7.3300000000000001

>  <m_primary>  (4) 
energy

>  <rmsd>  (4) 
3.9821229738376913

>  <m_score__min__rmsd>  (4) 
3.9821229738376913

>  <meeko>  (4) 
{"free_energy": -7.33, "intermolecular_energy": -8.22, "internal_energy": -0.68, "cluster_size": 23, "cluster_id": 1, "rank_in_cluster": 5}

>  <energy>  (4) 
-7.33

>  <cluster_rmsd>  (4) 
0.03

>  <cluster>  (4) 
1

$$$$

     RDKit          3D

 38 40  0  0  0  0  0  0  0  0999 V2000
  139.9030   73.4590  222.3990 O   0  0  0  0  0  0  0  0  0  0  0  0
  140.4370   72.3060  222.4800 C   0  0  0  0  0  0  0  0  0  0  0  0
  141.2010   71.7450  221.4230 N   0  0  0  0  0  0  0  0  0  0  0  0
  141.3700   72.5200  220.2170 C   0  0  0  0  0  0  0  0  0  0  0  0
  142.3670   73.5750  220.4470 C   0  0  0  0  0  0  0  0  0  0  0  0
  142.0160   74.7480  220.7430 O   0  0  0  0  0  0  0  0  0  0  0  0
  143.7650   73.3350  220.3500 N   0  0  0  0  0  0  0  0  0  0  0  0
  144.8120   74.3070  220.5590 C   0  0  0  0  0  0  0  0  0  0  0  0
  145.9720   73.4180  221.0240 C   0  0  0  0  0  0  0  0  0  0  0  0
  145.8390   72.2750  220.0480 C   0  0  0  0  0  0  0  0  0  0  0  0
  144.3450   72.0470  220.0200 C   0  0  0  0  0  0  0  0  0  0  0  0
  140.2780   71.5050  223.6960 C   0  0  0  0  0  0  0  0  0  0  0  0
  139.6190   70.2790  223.6120 C   0  0  0  0  0  0  0  0  0  0  0  0
  139.4460   69.4890  224.7300 C   0  0  0  0  0  0  0  0  0  0  0  0
  139.9230   69.9030  225.9450 C   0  0  0  0  0  0  0  0  0  0  0  0
  139.7830   69.1590  227.1080 C   0  0  0  0  0  0  0  0  0  0  0  0
  140.2970   69.6550  228.2950 C   0  0  0  0  0  0  0  0  0  0  0  0
  140.9410   70.8730  228.3330 C   0  0  0  0  0  0  0  0  0  0  0  0
  141.0760   71.6060  227.1710 C   0  0  0  0  0  0  0  0  0  0  0  0
  140.5730   71.1350  225.9730 C   0  0  0  0  0  0  0  0  0  0  0  0
  140.7350   71.8940  224.8810 N   0  0  0  0  0  0  0  0  0  0  0  0
  141.6330   70.8060  221.4960 H   0  0  0  0  0  0  0  0  0  0  0  0
  141.7127   71.8629  219.4041 H   0  0  0  0  0  0  0  0  0  0  0  0
  140.4095   72.9782  219.9386 H   0  0  0  0  0  0  0  0  0  0  0  0
  145.0604   74.8357  219.6269 H   0  0  0  0  0  0  0  0  0  0  0  0
  144.5468   75.1036  221.2697 H   0  0  0  0  0  0  0  0  0  0  0  0
  146.9415   73.9280  220.9247 H   0  0  0  0  0  0  0  0  0  0  0  0
  145.9344   73.1268  222.0841 H   0  0  0  0  0  0  0  0  0  0  0  0
  146.2180   72.5541  219.0538 H   0  0  0  0  0  0  0  0  0  0  0  0
  146.4153   71.3827  220.3338 H   0  0  0  0  0  0  0  0  0  0  0  0
  144.0218   71.7217  219.0202 H   0  0  0  0  0  0  0  0  0  0  0  0
  144.0328   71.2600  220.7222 H   0  0  0  0  0  0  0  0  0  0  0  0
  139.2317   69.9369  222.6410 H   0  0  0  0  0  0  0  0  0  0  0  0
  138.9238   68.5246  224.6451 H   0  0  0  0  0  0  0  0  0  0  0  0
  139.2697   68.1863  227.0876 H   0  0  0  0  0  0  0  0  0  0  0  0
  140.1897   69.0689  229.2196 H   0  0  0  0  0  0  0  0  0  0  0  0
  141.3441   71.2578  229.2814 H   0  0  0  0  0  0  0  0  0  0  0  0
  141.5907   72.5777  227.1990 H   0  0  0  0  0  0  0  0  0  0  0  0
  1  2  2  0
  2  3  1  0
  3  4  1  0
  4  5  1  0
  5  6  2  0
  5  7  1  0
  7  8  1  0
  8  9  1  0
  9 10  1  0
 10 11  1  0
  2 12  1  0
 12 13  2  0
 13 14  1  0
 14 15  2  0
 15 16  1  0
 16 17  2  0
 17 18  1  0
 18 19  2  0
 19 20  1  0
 20 21  2  0
 11  7  1  0
 21 12  1  0
 20 15  1  0
  3 22  1  0
  4 23  1  0
  4 24  1  0
  8 25  1  0
  8 26  1  0
  9 27  1  0
  9 28  1  0
 10 29  1  0
 10 30  1  0
 11 31  1  0
 11 32  1  0
 13 33  1  0
 14 34  1  0
 16 35  1  0
 17 36  1  0
 18 37  1  0
 19 38  1  0
M  END
>  <smiles>  (5) 
O=C(NCC(=O)N1CCCC1)c1ccc2ccccc2n1

>  <score_type>  (5) 
oracle

>  <origin>  (5) 
autodockgpu

>  <m_score__min__energy>  (5) 
-7.3300000000000001

>  <m_primary>  (5) 
energy

>  <rmsd>  (5) 
3.9579218214274734

>  <m_score__min__rmsd>  (5) 
3.9579218214274734

>  <meeko>  (5) 
{"free_energy": -7.32, "intermolecular_energy": -8.22, "internal_energy": -0.69, "cluster_size": 23, "cluster_id": 1, "rank_in_cluster": 10}

>  <energy>  (5) 
-7.33

>  <cluster_rmsd>  (5) 
0.06

>  <cluster>  (5) 
1

$$$$

     RDKit          3D

 38 40  0  0  0  0  0  0  0  0999 V2000
  140.0970   71.0060  221.2430 O   0  0  0  0  0  0  0  0  0  0  0  0
  139.9280   71.6540  222.3260 C   0  0  0  0  0  0  0  0  0  0  0  0
  139.7320   73.0600  222.3490 N   0  0  0  0  0  0  0  0  0  0  0  0
  139.7270   73.7690  221.0910 C   0  0  0  0  0  0  0  0  0  0  0  0
  140.3580   75.0850  221.2680 C   0  0  0  0  0  0  0  0  0  0  0  0
  140.2220   75.7330  222.3390 O   0  0  0  0  0  0  0  0  0  0  0  0
  141.1460   75.6930  220.2520 N   0  0  0  0  0  0  0  0  0  0  0  0
  141.8010   76.9760  220.3380 C   0  0  0  0  0  0  0  0  0  0  0  0
  142.9820   76.7870  219.3780 C   0  0  0  0  0  0  0  0  0  0  0  0
  142.2860   76.0850  218.2370 C   0  0  0  0  0  0  0  0  0  0  0  0
  141.4070   75.0900  218.9590 C   0  0  0  0  0  0  0  0  0  0  0  0
  139.9300   70.9530  223.6120 C   0  0  0  0  0  0  0  0  0  0  0  0
  139.4630   69.6400  223.6620 C   0  0  0  0  0  0  0  0  0  0  0  0
  139.4470   68.9390  224.8510 C   0  0  0  0  0  0  0  0  0  0  0  0
  139.8920   69.5290  226.0040 C   0  0  0  0  0  0  0  0  0  0  0  0
  139.9020   68.8820  227.2310 C   0  0  0  0  0  0  0  0  0  0  0  0
  140.3700   69.5550  228.3470 C   0  0  0  0  0  0  0  0  0  0  0  0
  140.8220   70.8540  228.2530 C   0  0  0  0  0  0  0  0  0  0  0  0
  140.8080   71.4900  227.0270 C   0  0  0  0  0  0  0  0  0  0  0  0
  140.3470   70.8410  225.8980 C   0  0  0  0  0  0  0  0  0  0  0  0
  140.3580   71.5120  224.7380 N   0  0  0  0  0  0  0  0  0  0  0  0
  139.5950   73.5810  223.2340 H   0  0  0  0  0  0  0  0  0  0  0  0
  140.2882   73.1910  220.3420 H   0  0  0  0  0  0  0  0  0  0  0  0
  138.6900   73.9024  220.7493 H   0  0  0  0  0  0  0  0  0  0  0  0
  141.1383   77.7878  220.0035 H   0  0  0  0  0  0  0  0  0  0  0  0
  142.0964   77.2591  221.3591 H   0  0  0  0  0  0  0  0  0  0  0  0
  143.4102   77.7502  219.0637 H   0  0  0  0  0  0  0  0  0  0  0  0
  143.8394   76.2432  219.8013 H   0  0  0  0  0  0  0  0  0  0  0  0
  141.6854   76.7895  217.6429 H   0  0  0  0  0  0  0  0  0  0  0  0
  142.9773   75.6214  217.5179 H   0  0  0  0  0  0  0  0  0  0  0  0
  140.4677   74.9324  218.4086 H   0  0  0  0  0  0  0  0  0  0  0  0
  141.8860   74.1040  219.0507 H   0  0  0  0  0  0  0  0  0  0  0  0
  139.1027   69.1566  222.7420 H   0  0  0  0  0  0  0  0  0  0  0  0
  139.0759   67.9037  224.8725 H   0  0  0  0  0  0  0  0  0  0  0  0
  139.5422   67.8460  227.3165 H   0  0  0  0  0  0  0  0  0  0  0  0
  140.3813   69.0461  229.3221 H   0  0  0  0  0  0  0  0  0  0  0  0
  141.1905   71.3793  229.1464 H   0  0  0  0  0  0  0  0  0  0  0  0
  141.1685   72.5263  226.9486 H   0  0  0  0  0  0  0  0  0  0  0  0
  1  2  2  0
  2  3  1  0
  3  4  1  0
  4  5  1  0
  5  6  2  0
  5  7  1  0
  7  8  1  0
  8  9  1  0
  9 10  1  0
 10 11  1  0
  2 12  1  0
 12 13  2  0
 13 14  1  0
 14 15  2  0
 15 16  1  0
 16 17  2  0
 17 18  1  0
 18 19  2  0
 19 20  1  0
 20 21  2  0
 11  7  1  0
 21 12  1  0
 20 15  1  0
  3 22  1  0
  4 23  1  0
  4 24  1  0
  8 25  1  0
  8 26  1  0
  9 27  1  0
  9 28  1  0
 10 29  1  0
 10 30  1  0
 11 31  1  0
 11 32  1  0
 13 33  1  0
 14 34  1  0
 16 35  1  0
 17 36  1  0
 18 37  1  0
 19 38  1  0
M  END
>  <smiles>  (6) 
O=C(NCC(=O)N1CCCC1)c1ccc2ccccc2n1

>  <score_type>  (6) 
oracle

>  <origin>  (6) 
autodockgpu

>  <m_score__min__energy>  (6) 
-7.3300000000000001

>  <m_primary>  (6) 
energy

>  <rmsd>  (6) 
1.5468231644440373

>  <m_score__min__rmsd>  (6) 
1.5468231644440373

>  <meeko>  (6) 
{"free_energy": -6.72, "intermolecular_energy": -7.61, "internal_energy": -1.13, "cluster_size": 26, "cluster_id": 2, "rank_in_cluster": 16}

>  <energy>  (6) 
-7.33

>  <cluster_rmsd>  (6) 
0.03

>  <cluster>  (6) 
1

$$$$

     RDKit          3D

 38 40  0  0  0  0  0  0  0  0999 V2000
  139.6700   73.3890  222.4110 O   0  0  0  0  0  0  0  0  0  0  0  0
  140.3610   72.3250  222.5180 C   0  0  0  0  0  0  0  0  0  0  0  0
  141.2560   71.8940  221.5040 N   0  0  0  0  0  0  0  0  0  0  0  0
  141.3790   72.7000  220.3130 C   0  0  0  0  0  0  0  0  0  0  0  0
  142.4250   73.7130  220.5120 C   0  0  0  0  0  0  0  0  0  0  0  0
  142.1310   74.9050  220.7960 O   0  0  0  0  0  0  0  0  0  0  0  0
  143.8100   73.4090  220.3970 N   0  0  0  0  0  0  0  0  0  0  0  0
  144.9010   74.3370  220.5760 C   0  0  0  0  0  0  0  0  0  0  0  0
  146.0280   73.4050  221.0360 C   0  0  0  0  0  0  0  0  0  0  0  0
  145.8290   72.2540  220.0790 C   0  0  0  0  0  0  0  0  0  0  0  0
  144.3270   72.0920  220.0780 C   0  0  0  0  0  0  0  0  0  0  0  0
  140.2510   71.4930  223.7180 C   0  0  0  0  0  0  0  0  0  0  0  0
  139.6440   70.2420  223.6170 C   0  0  0  0  0  0  0  0  0  0  0  0
  139.5200   69.4240  224.7220 C   0  0  0  0  0  0  0  0  0  0  0  0
  139.9930   69.8340  225.9390 C   0  0  0  0  0  0  0  0  0  0  0  0
  139.8990   69.0620  227.0880 C   0  0  0  0  0  0  0  0  0  0  0  0
  140.4050   69.5560  228.2790 C   0  0  0  0  0  0  0  0  0  0  0  0
  140.9970   70.7990  228.3350 C   0  0  0  0  0  0  0  0  0  0  0  0
  141.0850   71.5600  227.1860 C   0  0  0  0  0  0  0  0  0  0  0  0
  140.5890   71.0920  225.9850 C   0  0  0  0  0  0  0  0  0  0  0  0
  140.7050   71.8780  224.9060 N   0  0  0  0  0  0  0  0  0  0  0  0
  141.8150   71.0260  221.5980 H   0  0  0  0  0  0  0  0  0  0  0  0
  141.6483   72.0574  219.4618 H   0  0  0  0  0  0  0  0  0  0  0  0
  140.4203   73.1988  220.1076 H   0  0  0  0  0  0  0  0  0  0  0  0
  145.1575   74.8414  219.6327 H   0  0  0  0  0  0  0  0  0  0  0  0
  144.6819   75.1542  221.2790 H   0  0  0  0  0  0  0  0  0  0  0  0
  147.0172   73.8704  220.9137 H   0  0  0  0  0  0  0  0  0  0  0  0
  145.9950   73.1311  222.1008 H   0  0  0  0  0  0  0  0  0  0  0  0
  146.2036   72.5016  219.0748 H   0  0  0  0  0  0  0  0  0  0  0  0
  146.3702   71.3414  220.3692 H   0  0  0  0  0  0  0  0  0  0  0  0
  143.9734   71.7665  219.0885 H   0  0  0  0  0  0  0  0  0  0  0  0
  143.9920   71.3300  220.7971 H   0  0  0  0  0  0  0  0  0  0  0  0
  139.2589   69.9024  222.6442 H   0  0  0  0  0  0  0  0  0  0  0  0
  139.0394   68.4394  224.6240 H   0  0  0  0  0  0  0  0  0  0  0  0
  139.4279   68.0686  227.0535 H   0  0  0  0  0  0  0  0  0  0  0  0
  140.3333   68.9477  229.1927 H   0  0  0  0  0  0  0  0  0  0  0  0
  141.3958   71.1816  229.2861 H   0  0  0  0  0  0  0  0  0  0  0  0
  141.5568   72.5528  227.2279 H   0  0  0  0  0  0  0  0  0  0  0  0
  1  2  2  0
  2  3  1  0
  3  4  1  0
  4  5  1  0
  5  6  2  0
  5  7  1  0
  7  8  1  0
  8  9  1  0
  9 10  1  0
 10 11  1  0
  2 12  1  0
 12 13  2  0
 13 14  1  0
 14 15  2  0
 15 16  1  0
 16 17  2  0
 17 18  1  0
 18 19  2  0
 19 20  1  0
 20 21  2  0
 11  7  1  0
 21 12  1  0
 20 15  1  0
  3 22  1  0
  4 23  1  0
  4 24  1  0
  8 25  1  0
  8 26  1  0
  9 27  1  0
  9 28  1  0
 10 29  1  0
 10 30  1  0
 11 31  1  0
 11 32  1  0
 13 33  1  0
 14 34  1  0
 16 35  1  0
 17 36  1  0
 18 37  1  0
 19 38  1  0
M  END
>  <smiles>  (7) 
O=C(NCC(=O)N1CCCC1)c1ccc2ccccc2n1

>  <score_type>  (7) 
oracle

>  <origin>  (7) 
autodockgpu

>  <m_score__min__energy>  (7) 
-7.3300000000000001

>  <m_primary>  (7) 
energy

>  <rmsd>  (7) 
3.954150967522028

>  <m_score__min__rmsd>  (7) 
3.954150967522028

>  <meeko>  (7) 
{"free_energy": -7.28, "intermolecular_energy": -8.17, "internal_energy": -0.69, "cluster_size": 23, "cluster_id": 1, "rank_in_cluster": 21}

>  <energy>  (7) 
-7.33

>  <cluster_rmsd>  (7) 
0.05

>  <cluster>  (7) 
1

$$$$

     RDKit          3D

 38 40  0  0  0  0  0  0  0  0999 V2000
  140.3390   70.9120  221.3160 O   0  0  0  0  0  0  0  0  0  0  0  0
  140.0490   71.5790  222.3620 C   0  0  0  0  0  0  0  0  0  0  0  0
  139.8080   72.9780  222.3290 N   0  0  0  0  0  0  0  0  0  0  0  0
  139.9000   73.6570  221.0580 C   0  0  0  0  0  0  0  0  0  0  0  0
  140.2560   75.0650  221.2790 C   0  0  0  0  0  0  0  0  0  0  0  0
  139.9530   75.6530  222.3520 O   0  0  0  0  0  0  0  0  0  0  0  0
  140.9550   75.8350  220.3090 N   0  0  0  0  0  0  0  0  0  0  0  0
  141.3450   77.2190  220.4400 C   0  0  0  0  0  0  0  0  0  0  0  0
  142.5800   77.2800  219.5330 C   0  0  0  0  0  0  0  0  0  0  0  0
  142.0830   76.4810  218.3530 C   0  0  0  0  0  0  0  0  0  0  0  0
  141.3830   75.3210  219.0210 C   0  0  0  0  0  0  0  0  0  0  0  0
  139.9500   70.9090  223.6600 C   0  0  0  0  0  0  0  0  0  0  0  0
  139.4030   69.6270  223.7150 C   0  0  0  0  0  0  0  0  0  0  0  0
  139.2920   68.9570  224.9160 C   0  0  0  0  0  0  0  0  0  0  0  0
  139.7200   69.5450  226.0760 C   0  0  0  0  0  0  0  0  0  0  0  0
  139.6370   68.9270  227.3150 C   0  0  0  0  0  0  0  0  0  0  0  0
  140.0950   69.5960  228.4380 C   0  0  0  0  0  0  0  0  0  0  0  0
  140.6300   70.8620  228.3380 C   0  0  0  0  0  0  0  0  0  0  0  0
  140.7090   71.4690  227.1000 C   0  0  0  0  0  0  0  0  0  0  0  0
  140.2590   70.8240  225.9640 C   0  0  0  0  0  0  0  0  0  0  0  0
  140.3620   71.4670  224.7930 N   0  0  0  0  0  0  0  0  0  0  0  0
  139.5730   73.5150  223.1830 H   0  0  0  0  0  0  0  0  0  0  0  0
  140.6729   73.1760  220.4406 H   0  0  0  0  0  0  0  0  0  0  0  0
  138.9304   73.6009  220.5416 H   0  0  0  0  0  0  0  0  0  0  0  0
  140.5527   77.8944  220.0849 H   0  0  0  0  0  0  0  0  0  0  0  0
  141.5359   77.5334  221.4767 H   0  0  0  0  0  0  0  0  0  0  0  0
  142.8273   78.3138  219.2501 H   0  0  0  0  0  0  0  0  0  0  0  0
  143.5070   76.9023  219.9890 H   0  0  0  0  0  0  0  0  0  0  0  0
  141.3837   77.0687  217.7402 H   0  0  0  0  0  0  0  0  0  0  0  0
  142.8814   76.1742  217.6613 H   0  0  0  0  0  0  0  0  0  0  0  0
  140.5162   74.9974  218.4260 H   0  0  0  0  0  0  0  0  0  0  0  0
  142.0392   74.4440  219.1223 H   0  0  0  0  0  0  0  0  0  0  0  0
  139.0559   69.1443  222.7895 H   0  0  0  0  0  0  0  0  0  0  0  0
  138.8580   67.9466  224.9416 H   0  0  0  0  0  0  0  0  0  0  0  0
  139.2120   67.9164  227.4048 H   0  0  0  0  0  0  0  0  0  0  0  0
  140.0308   69.1102  229.4228 H   0  0  0  0  0  0  0  0  0  0  0  0
  140.9909   71.3844  229.2362 H   0  0  0  0  0  0  0  0  0  0  0  0
  141.1359   72.4794  227.0173 H   0  0  0  0  0  0  0  0  0  0  0  0
  1  2  2  0
  2  3  1  0
  3  4  1  0
  4  5  1  0
  5  6  2  0
  5  7  1  0
  7  8  1  0
  8  9  1  0
  9 10  1  0
 10 11  1  0
  2 12  1  0
 12 13  2  0
 13 14  1  0
 14 15  2  0
 15 16  1  0
 16 17  2  0
 17 18  1  0
 18 19  2  0
 19 20  1  0
 20 21  2  0
 11  7  1  0
 21 12  1  0
 20 15  1  0
  3 22  1  0
  4 23  1  0
  4 24  1  0
  8 25  1  0
  8 26  1  0
  9 27  1  0
  9 28  1  0
 10 29  1  0
 10 30  1  0
 11 31  1  0
 11 32  1  0
 13 33  1  0
 14 34  1  0
 16 35  1  0
 17 36  1  0
 18 37  1  0
 19 38  1  0
M  END
>  <smiles>  (8) 
O=C(NCC(=O)N1CCCC1)c1ccc2ccccc2n1

>  <score_type>  (8) 
oracle

>  <origin>  (8) 
autodockgpu

>  <m_score__min__energy>  (8) 
-7.3300000000000001

>  <m_primary>  (8) 
energy

>  <rmsd>  (8) 
1.5510908274469615

>  <m_score__min__rmsd>  (8) 
1.5510908274469615

>  <meeko>  (8) 
{"free_energy": -6.64, "intermolecular_energy": -7.53, "internal_energy": -1.18, "cluster_size": 26, "cluster_id": 2, "rank_in_cluster": 26}

>  <energy>  (8) 
-7.33

>  <cluster_rmsd>  (8) 
0.06

>  <cluster>  (8) 
1

$$$$

     RDKit          3D

 38 40  0  0  0  0  0  0  0  0999 V2000
  139.6570   73.4550  222.4130 O   0  0  0  0  0  0  0  0  0  0  0  0
  140.3590   72.3950  222.4870 C   0  0  0  0  0  0  0  0  0  0  0  0
  141.2540   72.0020  221.4580 N   0  0  0  0  0  0  0  0  0  0  0  0
  141.3620   72.8420  220.2890 C   0  0  0  0  0  0  0  0  0  0  0  0
  142.4380   73.8220  220.4870 C   0  0  0  0  0  0  0  0  0  0  0  0
  142.1810   75.0250  220.7610 O   0  0  0  0  0  0  0  0  0  0  0  0
  143.8130   73.4750  220.3810 N   0  0  0  0  0  0  0  0  0  0  0  0
  144.9330   74.3680  220.5590 C   0  0  0  0  0  0  0  0  0  0  0  0
  146.0270   73.4040  221.0320 C   0  0  0  0  0  0  0  0  0  0  0  0
  145.7970   72.2540  220.0810 C   0  0  0  0  0  0  0  0  0  0  0  0
  144.2900   72.1400  220.0730 C   0  0  0  0  0  0  0  0  0  0  0  0
  140.2650   71.5300  223.6650 C   0  0  0  0  0  0  0  0  0  0  0  0
  139.6740   70.2740  223.5320 C   0  0  0  0  0  0  0  0  0  0  0  0
  139.5640   69.4250  224.6140 C   0  0  0  0  0  0  0  0  0  0  0  0
  140.0370   69.8080  225.8410 C   0  0  0  0  0  0  0  0  0  0  0  0
  139.9570   69.0040  226.9680 C   0  0  0  0  0  0  0  0  0  0  0  0
  140.4620   69.4710  228.1700 C   0  0  0  0  0  0  0  0  0  0  0  0
  141.0390   70.7200  228.2580 C   0  0  0  0  0  0  0  0  0  0  0  0
  141.1140   71.5130  227.1300 C   0  0  0  0  0  0  0  0  0  0  0  0
  140.6180   71.0710  225.9190 C   0  0  0  0  0  0  0  0  0  0  0  0
  140.7190   71.8880  224.8610 N   0  0  0  0  0  0  0  0  0  0  0  0
  141.8220   71.1380  221.5250 H   0  0  0  0  0  0  0  0  0  0  0  0
  141.5896   72.2202  219.4106 H   0  0  0  0  0  0  0  0  0  0  0  0
  140.4106   73.3701  220.1283 H   0  0  0  0  0  0  0  0  0  0  0  0
  145.2105   74.8566  219.6133 H   0  0  0  0  0  0  0  0  0  0  0  0
  144.7369   75.1970  221.2550 H   0  0  0  0  0  0  0  0  0  0  0  0
  147.0312   73.8369  220.9129 H   0  0  0  0  0  0  0  0  0  0  0  0
  145.9792   73.1383  222.0984 H   0  0  0  0  0  0  0  0  0  0  0  0
  146.1846   72.4832  219.0774 H   0  0  0  0  0  0  0  0  0  0  0  0
  146.3076   71.3265  220.3794 H   0  0  0  0  0  0  0  0  0  0  0  0
  143.9314   71.8195  219.0837 H   0  0  0  0  0  0  0  0  0  0  0  0
  143.9273   71.3938  220.7953 H   0  0  0  0  0  0  0  0  0  0  0  0
  139.2904   69.9559  222.5514 H   0  0  0  0  0  0  0  0  0  0  0  0
  139.0950   68.4376  224.4908 H   0  0  0  0  0  0  0  0  0  0  0  0
  139.4975   68.0064  226.9079 H   0  0  0  0  0  0  0  0  0  0  0  0
  140.4019   68.8367  229.0667 H   0  0  0  0  0  0  0  0  0  0  0  0
  141.4360   71.0816  229.2180 H   0  0  0  0  0  0  0  0  0  0  0  0
  141.5747   72.5096  227.1967 H   0  0  0  0  0  0  0  0  0  0  0  0
  1  2  2  0
  2  3  1  0
  3  4  1  0
  4  5  1  0
  5  6  2  0
  5  7  1  0
  7  8  1  0
  8  9  1  0
  9 10  1  0
 10 11  1  0
  2 12  1  0
 12 13  2  0
 13 14  1  0
 14 15  2  0
 15 16  1  0
 16 17  2  0
 17 18  1  0
 18 19  2  0
 19 20  1  0
 20 21  2  0
 11  7  1  0
 21 12  1  0
 20 15  1  0
  3 22  1  0
  4 23  1  0
  4 24  1  0
  8 25  1  0
  8 26  1  0
  9 27  1  0
  9 28  1  0
 10 29  1  0
 10 30  1  0
 11 31  1  0
 11 32  1  0
 13 33  1  0
 14 34  1  0
 16 35  1  0
 17 36  1  0
 18 37  1  0
 19 38  1  0
M  END
>  <smiles>  (9) 
O=C(NCC(=O)N1CCCC1)c1ccc2ccccc2n1

>  <score_type>  (9) 
oracle

>  <origin>  (9) 
autodockgpu

>  <m_score__min__energy>  (9) 
-7.3300000000000001

>  <m_primary>  (9) 
energy

>  <rmsd>  (9) 
3.938357582645564

>  <m_score__min__rmsd>  (9) 
3.938357582645564

>  <meeko>  (9) 
{"free_energy": -7.24, "intermolecular_energy": -8.14, "internal_energy": -0.69, "cluster_size": 23, "cluster_id": 1, "rank_in_cluster": 22}

>  <energy>  (9) 
-7.33

>  <cluster_rmsd>  (9) 
0.07

>  <cluster>  (9) 
1

$$$$

     RDKit          3D

 38 40  0  0  0  0  0  0  0  0999 V2000
  139.9490   73.7270  222.5190 O   0  0  0  0  0  0  0  0  0  0  0  0
  140.4020   72.5410  222.4150 C   0  0  0  0  0  0  0  0  0  0  0  0
  141.0370   72.0700  221.2360 N   0  0  0  0  0  0  0  0  0  0  0  0
  141.1660   72.9770  220.1210 C   0  0  0  0  0  0  0  0  0  0  0  0
  142.2660   73.9180  220.3780 C   0  0  0  0  0  0  0  0  0  0  0  0
  142.0370   75.1250  220.6560 O   0  0  0  0  0  0  0  0  0  0  0  0
  143.6310   73.5240  220.3290 N   0  0  0  0  0  0  0  0  0  0  0  0
  144.7720   74.3760  220.5680 C   0  0  0  0  0  0  0  0  0  0  0  0
  145.8100   73.3700  221.0770 C   0  0  0  0  0  0  0  0  0  0  0  0
  145.5840   72.2390  220.1030 C   0  0  0  0  0  0  0  0  0  0  0  0
  144.0760   72.1770  220.0260 C   0  0  0  0  0  0  0  0  0  0  0  0
  140.2810   71.6060  223.5360 C   0  0  0  0  0  0  0  0  0  0  0  0
  139.6870   70.3640  223.3150 C   0  0  0  0  0  0  0  0  0  0  0  0
  139.5530   69.4510  224.3400 C   0  0  0  0  0  0  0  0  0  0  0  0
  140.0040   69.7550  225.5970 C   0  0  0  0  0  0  0  0  0  0  0  0
  139.9000   68.8830  226.6710 C   0  0  0  0  0  0  0  0  0  0  0  0
  140.3840   69.2730  227.9090 C   0  0  0  0  0  0  0  0  0  0  0  0
  140.9640   70.5110  228.0840 C   0  0  0  0  0  0  0  0  0  0  0  0
  141.0640   71.3710  227.0080 C   0  0  0  0  0  0  0  0  0  0  0  0
  140.5890   71.0080  225.7630 C   0  0  0  0  0  0  0  0  0  0  0  0
  140.7150   71.8870  224.7600 N   0  0  0  0  0  0  0  0  0  0  0  0
  141.4040   71.1030  221.1590 H   0  0  0  0  0  0  0  0  0  0  0  0
  141.3794   72.4049  219.2060 H   0  0  0  0  0  0  0  0  0  0  0  0
  140.2276   73.5366  219.9937 H   0  0  0  0  0  0  0  0  0  0  0  0
  145.1082   74.8651  219.6418 H   0  0  0  0  0  0  0  0  0  0  0  0
  144.5731   75.2035  221.2649 H   0  0  0  0  0  0  0  0  0  0  0  0
  146.8326   73.7693  221.0079 H   0  0  0  0  0  0  0  0  0  0  0  0
  145.7054   73.0947  222.1368 H   0  0  0  0  0  0  0  0  0  0  0  0
  146.0241   72.4653  219.1206 H   0  0  0  0  0  0  0  0  0  0  0  0
  146.0486   71.2913  220.4129 H   0  0  0  0  0  0  0  0  0  0  0  0
  143.7519   71.8800  219.0177 H   0  0  0  0  0  0  0  0  0  0  0  0
  143.6560   71.4358  220.7219 H   0  0  0  0  0  0  0  0  0  0  0  0
  139.3204   70.1090  222.3097 H   0  0  0  0  0  0  0  0  0  0  0  0
  139.0824   68.4756  224.1474 H   0  0  0  0  0  0  0  0  0  0  0  0
  139.4384   67.8930  226.5410 H   0  0  0  0  0  0  0  0  0  0  0  0
  140.3044   68.5854  228.7639 H   0  0  0  0  0  0  0  0  0  0  0  0
  141.3438   70.8113  229.0717 H   0  0  0  0  0  0  0  0  0  0  0  0
  141.5284   72.3588  227.1445 H   0  0  0  0  0  0  0  0  0  0  0  0
  1  2  2  0
  2  3  1  0
  3  4  1  0
  4  5  1  0
  5  6  2  0
  5  7  1  0
  7  8  1  0
  8  9  1  0
  9 10  1  0
 10 11  1  0
  2 12  1  0
 12 13  2  0
 13 14  1  0
 14 15  2  0
 15 16  1  0
 16 17  2  0
 17 18  1  0
 18 19  2  0
 19 20  1  0
 20 21  2  0
 11  7  1  0
 21 12  1  0
 20 15  1  0
  3 22  1  0
  4 23  1  0
  4 24  1  0
  8 25  1  0
  8 26  1  0
  9 27  1  0
  9 28  1  0
 10 29  1  0
 10 30  1  0
 11 31  1  0
 11 32  1  0
 13 33  1  0
 14 34  1  0
 16 35  1  0
 17 36  1  0
 18 37  1  0
 19 38  1  0
M  END
>  <smiles>  (10) 
O=C(NCC(=O)N1CCCC1)c1ccc2ccccc2n1

>  <score_type>  (10) 
oracle

>  <origin>  (10) 
autodockgpu

>  <m_score__min__energy>  (10) 
-7.3300000000000001

>  <m_primary>  (10) 
energy

>  <rmsd>  (10) 
3.8455414832432573

>  <m_score__min__rmsd>  (10) 
3.8455414832432573

>  <meeko>  (10) 
{"free_energy": -7.13, "intermolecular_energy": -8.02, "internal_energy": -0.72, "cluster_size": 23, "cluster_id": 1, "rank_in_cluster": 23}

>  <energy>  (10) 
-7.32

>  <cluster_rmsd>  (10) 
0.06

>  <cluster>  (10) 
1

$$$$

     RDKit          3D

 38 40  0  0  0  0  0  0  0  0999 V2000
  139.8030   73.4240  222.3860 O   0  0  0  0  0  0  0  0  0  0  0  0
  140.4030   72.3060  222.4960 C   0  0  0  0  0  0  0  0  0  0  0  0
  141.2380   71.7870  221.4720 N   0  0  0  0  0  0  0  0  0  0  0  0
  141.4040   72.5640  220.2670 C   0  0  0  0  0  0  0  0  0  0  0  0
  142.4100   73.6120  220.4930 C   0  0  0  0  0  0  0  0  0  0  0  0
  142.0690   74.7860  220.7960 O   0  0  0  0  0  0  0  0  0  0  0  0
  143.8060   73.3630  220.3840 N   0  0  0  0  0  0  0  0  0  0  0  0
  144.8600   74.3270  220.5890 C   0  0  0  0  0  0  0  0  0  0  0  0
  146.0180   73.4300  221.0430 C   0  0  0  0  0  0  0  0  0  0  0  0
  145.8700   72.2910  220.0630 C   0  0  0  0  0  0  0  0  0  0  0  0
  144.3750   72.0720  220.0460 C   0  0  0  0  0  0  0  0  0  0  0  0
  140.2480   71.5030  223.7110 C   0  0  0  0  0  0  0  0  0  0  0  0
  139.5860   70.2790  223.6280 C   0  0  0  0  0  0  0  0  0  0  0  0
  139.4170   69.4880  224.7470 C   0  0  0  0  0  0  0  0  0  0  0  0
  139.9010   69.8990  225.9590 C   0  0  0  0  0  0  0  0  0  0  0  0
  139.7650   69.1530  227.1220 C   0  0  0  0  0  0  0  0  0  0  0  0
  140.2860   69.6450  228.3070 C   0  0  0  0  0  0  0  0  0  0  0  0
  140.9340   70.8610  228.3440 C   0  0  0  0  0  0  0  0  0  0  0  0
  141.0640   71.5960  227.1820 C   0  0  0  0  0  0  0  0  0  0  0  0
  140.5540   71.1280  225.9860 C   0  0  0  0  0  0  0  0  0  0  0  0
  140.7120   71.8890  224.8940 N   0  0  0  0  0  0  0  0  0  0  0  0
  141.7230   70.8760  221.5680 H   0  0  0  0  0  0  0  0  0  0  0  0
  141.7367   71.9068  219.4501 H   0  0  0  0  0  0  0  0  0  0  0  0
  140.4448   73.0295  219.9964 H   0  0  0  0  0  0  0  0  0  0  0  0
  145.1052   74.8573  219.6570 H   0  0  0  0  0  0  0  0  0  0  0  0
  144.6045   75.1225  221.3045 H   0  0  0  0  0  0  0  0  0  0  0  0
  146.9899   73.9344  220.9383 H   0  0  0  0  0  0  0  0  0  0  0  0
  145.9871   73.1356  222.1024 H   0  0  0  0  0  0  0  0  0  0  0  0
  146.2427   72.5718  219.0669 H   0  0  0  0  0  0  0  0  0  0  0  0
  146.4431   71.3941  220.3407 H   0  0  0  0  0  0  0  0  0  0  0  0
  144.0419   71.7514  219.0479 H   0  0  0  0  0  0  0  0  0  0  0  0
  144.0633   71.2848  220.7483 H   0  0  0  0  0  0  0  0  0  0  0  0
  139.1932   69.9389  222.6585 H   0  0  0  0  0  0  0  0  0  0  0  0
  138.8920   68.5250  224.6639 H   0  0  0  0  0  0  0  0  0  0  0  0
  139.2490   68.1817  227.1024 H   0  0  0  0  0  0  0  0  0  0  0  0
  140.1813   69.0576  229.2311 H   0  0  0  0  0  0  0  0  0  0  0  0
  141.3440   71.2426  229.2907 H   0  0  0  0  0  0  0  0  0  0  0  0
  141.5804   72.5669  227.2089 H   0  0  0  0  0  0  0  0  0  0  0  0
  1  2  2  0
  2  3  1  0
  3  4  1  0
  4  5  1  0
  5  6  2  0
  5  7  1  0
  7  8  1  0
  8  9  1  0
  9 10  1  0
 10 11  1  0
  2 12  1  0
 12 13  2  0
 13 14  1  0
 14 15  2  0
 15 16  1  0
 16 17  2  0
 17 18  1  0
 18 19  2  0
 19 20  1  0
 20 21  2  0
 11  7  1  0
 21 12  1  0
 20 15  1  0
  3 22  1  0
  4 23  1  0
  4 24  1  0
  8 25  1  0
  8 26  1  0
  9 27  1  0
  9 28  1  0
 10 29  1  0
 10 30  1  0
 11 31  1  0
 11 32  1  0
 13 33  1  0
 14 34  1  0
 16 35  1  0
 17 36  1  0
 18 37  1  0
 19 38  1  0
M  END
>  <smiles>  (11) 
O=C(NCC(=O)N1CCCC1)c1ccc2ccccc2n1

>  <score_type>  (11) 
oracle

>  <origin>  (11) 
autodockgpu

>  <m_score__min__energy>  (11) 
-7.3300000000000001

>  <m_primary>  (11) 
energy

>  <rmsd>  (11) 
3.969557708022332

>  <m_score__min__rmsd>  (11) 
3.969557708022332

>  <meeko>  (11) 
{"free_energy": -7.32, "intermolecular_energy": -8.21, "internal_energy": -0.68, "cluster_size": 23, "cluster_id": 1, "rank_in_cluster": 16}

>  <energy>  (11) 
-7.32

>  <cluster_rmsd>  (11) 
0.07

>  <cluster>  (11) 
1

$$$$

     RDKit          3D

 38 40  0  0  0  0  0  0  0  0999 V2000
  140.8010   71.1330  221.4420 O   0  0  0  0  0  0  0  0  0  0  0  0
  140.3490   71.6560  222.5120 C   0  0  0  0  0  0  0  0  0  0  0  0
  139.9980   73.0280  222.5980 N   0  0  0  0  0  0  0  0  0  0  0  0
  140.1640   73.8520  221.4240 C   0  0  0  0  0  0  0  0  0  0  0  0
  139.9650   75.2630  221.7810 C   0  0  0  0  0  0  0  0  0  0  0  0
  139.1990   75.5930  222.7260 O   0  0  0  0  0  0  0  0  0  0  0  0
  140.6170   76.3220  221.0920 N   0  0  0  0  0  0  0  0  0  0  0  0
  140.4810   77.7320  221.3740 C   0  0  0  0  0  0  0  0  0  0  0  0
  141.8300   78.2760  220.8890 C   0  0  0  0  0  0  0  0  0  0  0  0
  141.9720   77.5170  219.5920 C   0  0  0  0  0  0  0  0  0  0  0  0
  141.5310   76.1250  219.9830 C   0  0  0  0  0  0  0  0  0  0  0  0
  140.1720   70.8380  223.7130 C   0  0  0  0  0  0  0  0  0  0  0  0
  139.4600   69.6430  223.6150 C   0  0  0  0  0  0  0  0  0  0  0  0
  139.2690   68.8400  224.7210 C   0  0  0  0  0  0  0  0  0  0  0  0
  139.7800   69.2080  225.9360 C   0  0  0  0  0  0  0  0  0  0  0  0
  139.6240   68.4470  227.0860 C   0  0  0  0  0  0  0  0  0  0  0  0
  140.1750   68.8960  228.2740 C   0  0  0  0  0  0  0  0  0  0  0  0
  140.8720   70.0840  228.3270 C   0  0  0  0  0  0  0  0  0  0  0  0
  141.0220   70.8340  227.1780 C   0  0  0  0  0  0  0  0  0  0  0  0
  140.4830   70.4100  225.9790 C   0  0  0  0  0  0  0  0  0  0  0  0
  140.6620   71.1830  224.8990 N   0  0  0  0  0  0  0  0  0  0  0  0
  139.6300   73.4480  223.4720 H   0  0  0  0  0  0  0  0  0  0  0  0
  141.1786   73.7157  221.0214 H   0  0  0  0  0  0  0  0  0  0  0  0
  139.4243   73.5593  220.6643 H   0  0  0  0  0  0  0  0  0  0  0  0
  139.6448   78.1746  220.8129 H   0  0  0  0  0  0  0  0  0  0  0  0
  140.2605   77.9580  222.4277 H   0  0  0  0  0  0  0  0  0  0  0  0
  141.7955   79.3629  220.7235 H   0  0  0  0  0  0  0  0  0  0  0  0
  142.6626   78.1430  221.5955 H   0  0  0  0  0  0  0  0  0  0  0  0
  141.3204   77.9367  218.8115 H   0  0  0  0  0  0  0  0  0  0  0  0
  142.9865   77.5548  219.1685 H   0  0  0  0  0  0  0  0  0  0  0  0
  141.0204   75.6305  219.1435 H   0  0  0  0  0  0  0  0  0  0  0  0
  142.3810   75.4821  220.2555 H   0  0  0  0  0  0  0  0  0  0  0  0
  139.0452   69.3364  222.6434 H   0  0  0  0  0  0  0  0  0  0  0  0
  138.7041   67.9010  224.6256 H   0  0  0  0  0  0  0  0  0  0  0  0
  139.0689   67.4979  227.0539 H   0  0  0  0  0  0  0  0  0  0  0  0
  140.0549   68.2964  229.1884 H   0  0  0  0  0  0  0  0  0  0  0  0
  141.3049   70.4313  229.2767 H   0  0  0  0  0  0  0  0  0  0  0  0
  141.5783   71.7821  227.2177 H   0  0  0  0  0  0  0  0  0  0  0  0
  1  2  2  0
  2  3  1  0
  3  4  1  0
  4  5  1  0
  5  6  2  0
  5  7  1  0
  7  8  1  0
  8  9  1  0
  9 10  1  0
 10 11  1  0
  2 12  1  0
 12 13  2  0
 13 14  1  0
 14 15  2  0
 15 16  1  0
 16 17  2  0
 17 18  1  0
 18 19  2  0
 19 20  1  0
 20 21  2  0
 11  7  1  0
 21 12  1  0
 20 15  1  0
  3 22  1  0
  4 23  1  0
  4 24  1  0
  8 25  1  0
  8 26  1  0
  9 27  1  0
  9 28  1  0
 10 29  1  0
 10 30  1  0
 11 31  1  0
 11 32  1  0
 13 33  1  0
 14 34  1  0
 16 35  1  0
 17 36  1  0
 18 37  1  0
 19 38  1  0
M  END
>  <smiles>  (12) 
O=C(NCC(=O)N1CCCC1)c1ccc2ccccc2n1

>  <score_type>  (12) 
oracle

>  <origin>  (12) 
autodockgpu

>  <m_score__min__energy>  (12) 
-7.3300000000000001

>  <m_primary>  (12) 
energy

>  <rmsd>  (12) 
2.004748192981822

>  <m_score__min__rmsd>  (12) 
2.004748192981822

>  <meeko>  (12) 
{"free_energy": -6.71, "intermolecular_energy": -7.61, "internal_energy": -1.14, "cluster_size": 26, "cluster_id": 2, "rank_in_cluster": 20}

>  <energy>  (12) 
-7.32

>  <cluster_rmsd>  (12) 
0.04

>  <cluster>  (12) 
1

$$$$

     RDKit          3D

 38 40  0  0  0  0  0  0  0  0999 V2000
  139.9650   73.4620  222.3890 O   0  0  0  0  0  0  0  0  0  0  0  0
  140.4620   72.2920  222.4760 C   0  0  0  0  0  0  0  0  0  0  0  0
  141.2030   71.7000  221.4200 N   0  0  0  0  0  0  0  0  0  0  0  0
  141.3910   72.4610  220.2080 C   0  0  0  0  0  0  0  0  0  0  0  0
  142.3670   73.5330  220.4480 C   0  0  0  0  0  0  0  0  0  0  0  0
  141.9930   74.7000  220.7420 O   0  0  0  0  0  0  0  0  0  0  0  0
  143.7710   73.3180  220.3640 N   0  0  0  0  0  0  0  0  0  0  0  0
  144.7980   74.3080  220.5840 C   0  0  0  0  0  0  0  0  0  0  0  0
  145.9690   73.4400  221.0590 C   0  0  0  0  0  0  0  0  0  0  0  0
  145.8650   72.2960  220.0800 C   0  0  0  0  0  0  0  0  0  0  0  0
  144.3760   72.0410  220.0380 C   0  0  0  0  0  0  0  0  0  0  0  0
  140.2820   71.5050  223.6980 C   0  0  0  0  0  0  0  0  0  0  0  0
  139.6070   70.2880  223.6200 C   0  0  0  0  0  0  0  0  0  0  0  0
  139.4150   69.5120  224.7450 C   0  0  0  0  0  0  0  0  0  0  0  0
  139.8880   69.9300  225.9600 C   0  0  0  0  0  0  0  0  0  0  0  0
  139.7290   69.1990  227.1280 C   0  0  0  0  0  0  0  0  0  0  0  0
  140.2410   69.6980  228.3140 C   0  0  0  0  0  0  0  0  0  0  0  0
  140.9030   70.9070  228.3460 C   0  0  0  0  0  0  0  0  0  0  0  0
  141.0560   71.6270  227.1780 C   0  0  0  0  0  0  0  0  0  0  0  0
  140.5560   71.1520  225.9810 C   0  0  0  0  0  0  0  0  0  0  0  0
  140.7370   71.8980  224.8830 N   0  0  0  0  0  0  0  0  0  0  0  0
  141.6050   70.7480  221.4980 H   0  0  0  0  0  0  0  0  0  0  0  0
  141.7629   71.7980  219.4129 H   0  0  0  0  0  0  0  0  0  0  0  0
  140.4314   72.9016  219.8996 H   0  0  0  0  0  0  0  0  0  0  0  0
  145.0458   74.8422  219.6549 H   0  0  0  0  0  0  0  0  0  0  0  0
  144.5117   75.0988  221.2930 H   0  0  0  0  0  0  0  0  0  0  0  0
  146.9301   73.9674  220.9693 H   0  0  0  0  0  0  0  0  0  0  0  0
  145.9272   73.1470  222.1184 H   0  0  0  0  0  0  0  0  0  0  0  0
  146.2479   72.5834  219.0896 H   0  0  0  0  0  0  0  0  0  0  0  0
  146.4545   71.4137  220.3699 H   0  0  0  0  0  0  0  0  0  0  0  0
  144.0677   71.7112  219.0349 H   0  0  0  0  0  0  0  0  0  0  0  0
  144.0713   71.2474  220.7361 H   0  0  0  0  0  0  0  0  0  0  0  0
  139.2224   69.9416  222.6494 H   0  0  0  0  0  0  0  0  0  0  0  0
  138.8800   68.5542  224.6653 H   0  0  0  0  0  0  0  0  0  0  0  0
  139.2020   68.2336  227.1124 H   0  0  0  0  0  0  0  0  0  0  0  0
  140.1179   69.1220  229.2430 H   0  0  0  0  0  0  0  0  0  0  0  0
  141.3056   71.2944  229.2935 H   0  0  0  0  0  0  0  0  0  0  0  0
  141.5833   72.5921  227.2008 H   0  0  0  0  0  0  0  0  0  0  0  0
  1  2  2  0
  2  3  1  0
  3  4  1  0
  4  5  1  0
  5  6  2  0
  5  7  1  0
  7  8  1  0
  8  9  1  0
  9 10  1  0
 10 11  1  0
  2 12  1  0
 12 13  2  0
 13 14  1  0
 14 15  2  0
 15 16  1  0
 16 17  2  0
 17 18  1  0
 18 19  2  0
 19 20  1  0
 20 21  2  0
 11  7  1  0
 21 12  1  0
 20 15  1  0
  3 22  1  0
  4 23  1  0
  4 24  1  0
  8 25  1  0
  8 26  1  0
  9 27  1  0
  9 28  1  0
 10 29  1  0
 10 30  1  0
 11 31  1  0
 11 32  1  0
 13 33  1  0
 14 34  1  0
 16 35  1  0
 17 36  1  0
 18 37  1  0
 19 38  1  0
M  END
>  <smiles>  (13) 
O=C(NCC(=O)N1CCCC1)c1ccc2ccccc2n1

>  <score_type>  (13) 
oracle

>  <origin>  (13) 
autodockgpu

>  <m_score__min__energy>  (13) 
-7.3300000000000001

>  <m_primary>  (13) 
energy

>  <rmsd>  (13) 
3.972352790200596

>  <m_score__min__rmsd>  (13) 
3.972352790200596

>  <meeko>  (13) 
{"free_energy": -7.33, "intermolecular_energy": -8.22, "internal_energy": -0.68, "cluster_size": 23, "cluster_id": 1, "rank_in_cluster": 6}

>  <energy>  (13) 
-7.32

>  <cluster_rmsd>  (13) 
0.05

>  <cluster>  (13) 
1

$$$$

     RDKit          3D

 38 40  0  0  0  0  0  0  0  0999 V2000
  139.9390   73.4610  222.3740 O   0  0  0  0  0  0  0  0  0  0  0  0
  140.4280   72.2890  222.4630 C   0  0  0  0  0  0  0  0  0  0  0  0
  141.1580   71.6870  221.4050 N   0  0  0  0  0  0  0  0  0  0  0  0
  141.3460   72.4410  220.1890 C   0  0  0  0  0  0  0  0  0  0  0  0
  142.3180   73.5170  220.4240 C   0  0  0  0  0  0  0  0  0  0  0  0
  141.9400   74.6870  220.7030 O   0  0  0  0  0  0  0  0  0  0  0  0
  143.7230   73.3040  220.3520 N   0  0  0  0  0  0  0  0  0  0  0  0
  144.7470   74.2980  220.5680 C   0  0  0  0  0  0  0  0  0  0  0  0
  145.9160   73.4360  221.0610 C   0  0  0  0  0  0  0  0  0  0  0  0
  145.8210   72.2810  220.0940 C   0  0  0  0  0  0  0  0  0  0  0  0
  144.3320   72.0240  220.0450 C   0  0  0  0  0  0  0  0  0  0  0  0
  140.2490   71.5070  223.6890 C   0  0  0  0  0  0  0  0  0  0  0  0
  139.5460   70.3050  223.6230 C   0  0  0  0  0  0  0  0  0  0  0  0
  139.3540   69.5350  224.7530 C   0  0  0  0  0  0  0  0  0  0  0  0
  139.8540   69.9450  225.9590 C   0  0  0  0  0  0  0  0  0  0  0  0
  139.6960   69.2200  227.1310 C   0  0  0  0  0  0  0  0  0  0  0  0
  140.2360   69.7100  228.3080 C   0  0  0  0  0  0  0  0  0  0  0  0
  140.9240   70.9040  228.3280 C   0  0  0  0  0  0  0  0  0  0  0  0
  141.0760   71.6180  227.1570 C   0  0  0  0  0  0  0  0  0  0  0  0
  140.5480   71.1530  225.9680 C   0  0  0  0  0  0  0  0  0  0  0  0
  140.7290   71.8930  224.8660 N   0  0  0  0  0  0  0  0  0  0  0  0
  141.5530   70.7320  221.4840 H   0  0  0  0  0  0  0  0  0  0  0  0
  141.7213   71.7743  219.3987 H   0  0  0  0  0  0  0  0  0  0  0  0
  140.3857   72.8769  219.8763 H   0  0  0  0  0  0  0  0  0  0  0  0
  145.0006   74.8221  219.6347 H   0  0  0  0  0  0  0  0  0  0  0  0
  144.4549   75.0965  221.2659 H   0  0  0  0  0  0  0  0  0  0  0  0
  146.8772   73.9636  220.9726 H   0  0  0  0  0  0  0  0  0  0  0  0
  145.8664   73.1544  222.1232 H   0  0  0  0  0  0  0  0  0  0  0  0
  146.2103   72.5579  219.1032 H   0  0  0  0  0  0  0  0  0  0  0  0
  146.4100   71.4028  220.3973 H   0  0  0  0  0  0  0  0  0  0  0  0
  144.0308   71.6822  219.0438 H   0  0  0  0  0  0  0  0  0  0  0  0
  144.0236   71.2384  220.7505 H   0  0  0  0  0  0  0  0  0  0  0  0
  139.1393   69.9658  222.6589 H   0  0  0  0  0  0  0  0  0  0  0  0
  138.7973   68.5889  224.6835 H   0  0  0  0  0  0  0  0  0  0  0  0
  139.1478   68.2664  227.1254 H   0  0  0  0  0  0  0  0  0  0  0  0
  140.1142   69.1384  229.2399 H   0  0  0  0  0  0  0  0  0  0  0  0
  141.3481   71.2844  229.2690 H   0  0  0  0  0  0  0  0  0  0  0  0
  141.6254   72.5709  227.1704 H   0  0  0  0  0  0  0  0  0  0  0  0
  1  2  2  0
  2  3  1  0
  3  4  1  0
  4  5  1  0
  5  6  2  0
  5  7  1  0
  7  8  1  0
  8  9  1  0
  9 10  1  0
 10 11  1  0
  2 12  1  0
 12 13  2  0
 13 14  1  0
 14 15  2  0
 15 16  1  0
 16 17  2  0
 17 18  1  0
 18 19  2  0
 19 20  1  0
 20 21  2  0
 11  7  1  0
 21 12  1  0
 20 15  1  0
  3 22  1  0
  4 23  1  0
  4 24  1  0
  8 25  1  0
  8 26  1  0
  9 27  1  0
  9 28  1  0
 10 29  1  0
 10 30  1  0
 11 31  1  0
 11 32  1  0
 13 33  1  0
 14 34  1  0
 16 35  1  0
 17 36  1  0
 18 37  1  0
 19 38  1  0
M  END
>  <smiles>  (14) 
O=C(NCC(=O)N1CCCC1)c1ccc2ccccc2n1

>  <score_type>  (14) 
oracle

>  <origin>  (14) 
autodockgpu

>  <m_score__min__energy>  (14) 
-7.3300000000000001

>  <m_primary>  (14) 
energy

>  <rmsd>  (14) 
3.952560556151391

>  <m_score__min__rmsd>  (14) 
3.952560556151391

>  <meeko>  (14) 
{"free_energy": -7.32, "intermolecular_energy": -8.22, "internal_energy": -0.69, "cluster_size": 23, "cluster_id": 1, "rank_in_cluster": 12}

>  <energy>  (14) 
-7.32

>  <cluster_rmsd>  (14) 
0.06

>  <cluster>  (14) 
1

$$$$

     RDKit          3D

 38 40  0  0  0  0  0  0  0  0999 V2000
  140.1110   71.0280  221.2590 O   0  0  0  0  0  0  0  0  0  0  0  0
  139.9310   71.6790  222.3390 C   0  0  0  0  0  0  0  0  0  0  0  0
  139.7250   73.0830  222.3550 N   0  0  0  0  0  0  0  0  0  0  0  0
  139.7240   73.7880  221.0960 C   0  0  0  0  0  0  0  0  0  0  0  0
  140.3490   75.1060  221.2710 C   0  0  0  0  0  0  0  0  0  0  0  0
  140.2170   75.7520  222.3450 O   0  0  0  0  0  0  0  0  0  0  0  0
  141.1280   75.7200  220.2520 N   0  0  0  0  0  0  0  0  0  0  0  0
  141.7780   77.0070  220.3370 C   0  0  0  0  0  0  0  0  0  0  0  0
  142.9540   76.8250  219.3690 C   0  0  0  0  0  0  0  0  0  0  0  0
  142.2550   76.1220  218.2310 C   0  0  0  0  0  0  0  0  0  0  0  0
  141.3840   75.1210  218.9560 C   0  0  0  0  0  0  0  0  0  0  0  0
  139.9280   70.9810  223.6260 C   0  0  0  0  0  0  0  0  0  0  0  0
  139.4350   69.6780  223.6850 C   0  0  0  0  0  0  0  0  0  0  0  0
  139.4140   68.9820  224.8760 C   0  0  0  0  0  0  0  0  0  0  0  0
  139.8800   69.5660  226.0240 C   0  0  0  0  0  0  0  0  0  0  0  0
  139.8870   68.9230  227.2530 C   0  0  0  0  0  0  0  0  0  0  0  0
  140.3770   69.5900  228.3630 C   0  0  0  0  0  0  0  0  0  0  0  0
  140.8550   70.8780  228.2610 C   0  0  0  0  0  0  0  0  0  0  0  0
  140.8440   71.5100  227.0330 C   0  0  0  0  0  0  0  0  0  0  0  0
  140.3610   70.8680  225.9090 C   0  0  0  0  0  0  0  0  0  0  0  0
  140.3770   71.5350  224.7470 N   0  0  0  0  0  0  0  0  0  0  0  0
  139.5780   73.6060  223.2380 H   0  0  0  0  0  0  0  0  0  0  0  0
  140.2908   73.2096  220.3516 H   0  0  0  0  0  0  0  0  0  0  0  0
  138.6880   73.9171  220.7494 H   0  0  0  0  0  0  0  0  0  0  0  0
  141.1096   77.8165  220.0084 H   0  0  0  0  0  0  0  0  0  0  0  0
  142.0783   77.2895  221.3568 H   0  0  0  0  0  0  0  0  0  0  0  0
  143.3758   77.7908  219.0539 H   0  0  0  0  0  0  0  0  0  0  0  0
  143.8162   76.2841  219.7862 H   0  0  0  0  0  0  0  0  0  0  0  0
  141.6479   76.8249  217.6416 H   0  0  0  0  0  0  0  0  0  0  0  0
  142.9446   75.6628  217.5074 H   0  0  0  0  0  0  0  0  0  0  0  0
  140.4422   74.9607  218.4107 H   0  0  0  0  0  0  0  0  0  0  0  0
  141.8676   74.1368  219.0425 H   0  0  0  0  0  0  0  0  0  0  0  0
  139.0578   69.1986  222.7696 H   0  0  0  0  0  0  0  0  0  0  0  0
  139.0217   67.9547  224.9038 H   0  0  0  0  0  0  0  0  0  0  0  0
  139.5075   67.8946  227.3448 H   0  0  0  0  0  0  0  0  0  0  0  0
  140.3847   69.0844  229.3399 H   0  0  0  0  0  0  0  0  0  0  0  0
  141.2419   71.3984  229.1495 H   0  0  0  0  0  0  0  0  0  0  0  0
  141.2250   72.5385  226.9487 H   0  0  0  0  0  0  0  0  0  0  0  0
  1  2  2  0
  2  3  1  0
  3  4  1  0
  4  5  1  0
  5  6  2  0
  5  7  1  0
  7  8  1  0
  8  9  1  0
  9 10  1  0
 10 11  1  0
  2 12  1  0
 12 13  2  0
 13 14  1  0
 14 15  2  0
 15 16  1  0
 16 17  2  0
 17 18  1  0
 18 19  2  0
 19 20  1  0
 20 21  2  0
 11  7  1  0
 21 12  1  0
 20 15  1  0
  3 22  1  0
  4 23  1  0
  4 24  1  0
  8 25  1  0
  8 26  1  0
  9 27  1  0
  9 28  1  0
 10 29  1  0
 10 30  1  0
 11 31  1  0
 11 32  1  0
 13 33  1  0
 14 34  1  0
 16 35  1  0
 17 36  1  0
 18 37  1  0
 19 38  1  0
M  END
>  <smiles>  (15) 
O=C(NCC(=O)N1CCCC1)c1ccc2ccccc2n1

>  <score_type>  (15) 
oracle

>  <origin>  (15) 
autodockgpu

>  <m_score__min__energy>  (15) 
-7.3300000000000001

>  <m_primary>  (15) 
energy

>  <rmsd>  (15) 
1.5435735713275929

>  <m_score__min__rmsd>  (15) 
1.5435735713275929

>  <meeko>  (15) 
{"free_energy": -6.72, "intermolecular_energy": -7.62, "internal_energy": -1.13, "cluster_size": 26, "cluster_id": 2, "rank_in_cluster": 12}

>  <energy>  (15) 
-7.32

>  <cluster_rmsd>  (15) 
0.08

>  <cluster>  (15) 
1

$$$$

     RDKit          3D

 38 40  0  0  0  0  0  0  0  0999 V2000
  141.4120   72.3100  221.8190 O   0  0  0  0  0  0  0  0  0  0  0  0
  140.3980   72.4420  222.5790 C   0  0  0  0  0  0  0  0  0  0  0  0
  139.3950   73.4190  222.3470 N   0  0  0  0  0  0  0  0  0  0  0  0
  139.5410   74.2900  221.2050 C   0  0  0  0  0  0  0  0  0  0  0  0
  140.5340   75.3310  221.5050 C   0  0  0  0  0  0  0  0  0  0  0  0
  141.7620   75.1370  221.3010 O   0  0  0  0  0  0  0  0  0  0  0  0
  140.1710   76.5990  222.0370 N   0  0  0  0  0  0  0  0  0  0  0  0
  141.0750   77.6770  222.3600 C   0  0  0  0  0  0  0  0  0  0  0  0
  140.1710   78.9030  222.1850 C   0  0  0  0  0  0  0  0  0  0  0  0
  138.9140   78.4050  222.8570 C   0  0  0  0  0  0  0  0  0  0  0  0
  138.8060   76.9920  222.3330 C   0  0  0  0  0  0  0  0  0  0  0  0
  140.2320   71.5670  223.7420 C   0  0  0  0  0  0  0  0  0  0  0  0
  139.5530   70.3600  223.5840 C   0  0  0  0  0  0  0  0  0  0  0  0
  139.3730   69.5040  224.6520 C   0  0  0  0  0  0  0  0  0  0  0  0
  139.8620   69.8320  225.8880 C   0  0  0  0  0  0  0  0  0  0  0  0
  139.7160   69.0190  227.0020 C   0  0  0  0  0  0  0  0  0  0  0  0
  140.2430   69.4300  228.2150 C   0  0  0  0  0  0  0  0  0  0  0  0
  140.9070   70.6320  228.3260 C   0  0  0  0  0  0  0  0  0  0  0  0
  141.0480   71.4350  227.2120 C   0  0  0  0  0  0  0  0  0  0  0  0
  140.5320   71.0490  225.9900 C   0  0  0  0  0  0  0  0  0  0  0  0
  140.7010   71.8730  224.9470 N   0  0  0  0  0  0  0  0  0  0  0  0
  138.5730   73.5200  222.9700 H   0  0  0  0  0  0  0  0  0  0  0  0
  139.8761   73.7032  220.3371 H   0  0  0  0  0  0  0  0  0  0  0  0
  138.5734   74.7615  220.9781 H   0  0  0  0  0  0  0  0  0  0  0  0
  141.4441   77.5950  223.3930 H   0  0  0  0  0  0  0  0  0  0  0  0
  141.9832   77.6994  221.7398 H   0  0  0  0  0  0  0  0  0  0  0  0
  140.5816   79.7880  222.6931 H   0  0  0  0  0  0  0  0  0  0  0  0
  140.0382   79.2341  221.1444 H   0  0  0  0  0  0  0  0  0  0  0  0
  139.0164   78.4169  223.9522 H   0  0  0  0  0  0  0  0  0  0  0  0
  138.0280   79.0217  222.6457 H   0  0  0  0  0  0  0  0  0  0  0  0
  138.3687   76.3292  223.0942 H   0  0  0  0  0  0  0  0  0  0  0  0
  138.1549   76.9266  221.4488 H   0  0  0  0  0  0  0  0  0  0  0  0
  139.1555   70.0860  222.5956 H   0  0  0  0  0  0  0  0  0  0  0  0
  138.8349   68.5552  224.5094 H   0  0  0  0  0  0  0  0  0  0  0  0
  139.1871   68.0577  226.9230 H   0  0  0  0  0  0  0  0  0  0  0  0
  140.1299   68.7884  229.1013 H   0  0  0  0  0  0  0  0  0  0  0  0
  141.3214   70.9493  229.2943 H   0  0  0  0  0  0  0  0  0  0  0  0
  141.5782   72.3949  227.2985 H   0  0  0  0  0  0  0  0  0  0  0  0
  1  2  2  0
  2  3  1  0
  3  4  1  0
  4  5  1  0
  5  6  2  0
  5  7  1  0
  7  8  1  0
  8  9  1  0
  9 10  1  0
 10 11  1  0
  2 12  1  0
 12 13  2  0
 13 14  1  0
 14 15  2  0
 15 16  1  0
 16 17  2  0
 17 18  1  0
 18 19  2  0
 19 20  1  0
 20 21  2  0
 11  7  1  0
 21 12  1  0
 20 15  1  0
  3 22  1  0
  4 23  1  0
  4 24  1  0
  8 25  1  0
  8 26  1  0
  9 27  1  0
  9 28  1  0
 10 29  1  0
 10 30  1  0
 11 31  1  0
 11 32  1  0
 13 33  1  0
 14 34  1  0
 16 35  1  0
 17 36  1  0
 18 37  1  0
 19 38  1  0
M  END
>  <smiles>  (16) 
O=C(NCC(=O)N1CCCC1)c1ccc2ccccc2n1

>  <score_type>  (16) 
oracle

>  <origin>  (16) 
autodockgpu

>  <m_score__min__energy>  (16) 
-7.3300000000000001

>  <m_primary>  (16) 
energy

>  <rmsd>  (16) 
2.8130877078381498

>  <m_score__min__rmsd>  (16) 
2.8130877078381498

>  <meeko>  (16) 
{"free_energy": -7.13, "intermolecular_energy": -8.02, "internal_energy": -0.67, "cluster_size": 26, "cluster_id": 2, "rank_in_cluster": 1}

>  <energy>  (16) 
-7.32

>  <cluster_rmsd>  (16) 
0.09

>  <cluster>  (16) 
1

$$$$

     RDKit          3D

 38 40  0  0  0  0  0  0  0  0999 V2000
  140.1430   70.9820  221.2610 O   0  0  0  0  0  0  0  0  0  0  0  0
  139.9470   71.6350  222.3370 C   0  0  0  0  0  0  0  0  0  0  0  0
  139.7410   73.0390  222.3480 N   0  0  0  0  0  0  0  0  0  0  0  0
  139.7580   73.7420  221.0870 C   0  0  0  0  0  0  0  0  0  0  0  0
  140.3560   75.0710  221.2750 C   0  0  0  0  0  0  0  0  0  0  0  0
  140.1930   75.7130  222.3460 O   0  0  0  0  0  0  0  0  0  0  0  0
  141.1430   75.7000  220.2710 N   0  0  0  0  0  0  0  0  0  0  0  0
  141.7670   76.9990  220.3680 C   0  0  0  0  0  0  0  0  0  0  0  0
  142.9630   76.8390  219.4220 C   0  0  0  0  0  0  0  0  0  0  0  0
  142.2980   76.1240  218.2710 C   0  0  0  0  0  0  0  0  0  0  0  0
  141.4330   75.1070  218.9790 C   0  0  0  0  0  0  0  0  0  0  0  0
  139.9250   70.9400  223.6260 C   0  0  0  0  0  0  0  0  0  0  0  0
  139.4310   69.6370  223.6800 C   0  0  0  0  0  0  0  0  0  0  0  0
  139.3920   68.9430  224.8720 C   0  0  0  0  0  0  0  0  0  0  0  0
  139.8410   69.5300  226.0250 C   0  0  0  0  0  0  0  0  0  0  0  0
  139.8290   68.8890  227.2560 C   0  0  0  0  0  0  0  0  0  0  0  0
  140.3030   69.5580  228.3720 C   0  0  0  0  0  0  0  0  0  0  0  0
  140.7830   70.8460  228.2740 C   0  0  0  0  0  0  0  0  0  0  0  0
  140.7910   71.4750  227.0450 C   0  0  0  0  0  0  0  0  0  0  0  0
  140.3240   70.8310  225.9150 C   0  0  0  0  0  0  0  0  0  0  0  0
  140.3570   71.4960  224.7520 N   0  0  0  0  0  0  0  0  0  0  0  0
  139.5810   73.5640  223.2270 H   0  0  0  0  0  0  0  0  0  0  0  0
  140.3525   73.1723  220.3576 H   0  0  0  0  0  0  0  0  0  0  0  0
  138.7287   73.8524  220.7149 H   0  0  0  0  0  0  0  0  0  0  0  0
  141.0897   77.7959  220.0272 H   0  0  0  0  0  0  0  0  0  0  0  0
  142.0431   77.2870  221.3931 H   0  0  0  0  0  0  0  0  0  0  0  0
  143.3729   77.8125  219.1149 H   0  0  0  0  0  0  0  0  0  0  0  0
  143.8271   76.3136  219.8548 H   0  0  0  0  0  0  0  0  0  0  0  0
  141.6889   76.8160  217.6708 H   0  0  0  0  0  0  0  0  0  0  0  0
  143.0091   75.6782  217.5600 H   0  0  0  0  0  0  0  0  0  0  0  0
  140.5042   74.9303  218.4168 H   0  0  0  0  0  0  0  0  0  0  0  0
  141.9327   74.1316  219.0733 H   0  0  0  0  0  0  0  0  0  0  0  0
  139.0675   69.1560  222.7599 H   0  0  0  0  0  0  0  0  0  0  0  0
  138.9993   67.9158  224.8962 H   0  0  0  0  0  0  0  0  0  0  0  0
  139.4473   67.8611  227.3441 H   0  0  0  0  0  0  0  0  0  0  0  0
  140.2963   69.0544  229.3499 H   0  0  0  0  0  0  0  0  0  0  0  0
  141.1565   71.3684  229.1671 H   0  0  0  0  0  0  0  0  0  0  0  0
  141.1744   72.5029  226.9642 H   0  0  0  0  0  0  0  0  0  0  0  0
  1  2  2  0
  2  3  1  0
  3  4  1  0
  4  5  1  0
  5  6  2  0
  5  7  1  0
  7  8  1  0
  8  9  1  0
  9 10  1  0
 10 11  1  0
  2 12  1  0
 12 13  2  0
 13 14  1  0
 14 15  2  0
 15 16  1  0
 16 17  2  0
 17 18  1  0
 18 19  2  0
 19 20  1  0
 20 21  2  0
 11  7  1  0
 21 12  1  0
 20 15  1  0
  3 22  1  0
  4 23  1  0
  4 24  1  0
  8 25  1  0
  8 26  1  0
  9 27  1  0
  9 28  1  0
 10 29  1  0
 10 30  1  0
 11 31  1  0
 11 32  1  0
 13 33  1  0
 14 34  1  0
 16 35  1  0
 17 36  1  0
 18 37  1  0
 19 38  1  0
M  END
>  <smiles>  (17) 
O=C(NCC(=O)N1CCCC1)c1ccc2ccccc2n1

>  <score_type>  (17) 
oracle

>  <origin>  (17) 
autodockgpu

>  <m_score__min__energy>  (17) 
-7.3300000000000001

>  <m_primary>  (17) 
energy

>  <rmsd>  (17) 
1.5590071819570541

>  <m_score__min__rmsd>  (17) 
1.5590071819570541

>  <meeko>  (17) 
{"free_energy": -6.71, "intermolecular_energy": -7.61, "internal_energy": -1.14, "cluster_size": 26, "cluster_id": 2, "rank_in_cluster": 22}

>  <energy>  (17) 
-7.31

>  <cluster_rmsd>  (17) 
0.11

>  <cluster>  (17) 
1

$$$$

     RDKit          3D

 38 40  0  0  0  0  0  0  0  0999 V2000
  139.8640   73.4540  222.3920 O   0  0  0  0  0  0  0  0  0  0  0  0
  140.4110   72.3070  222.4770 C   0  0  0  0  0  0  0  0  0  0  0  0
  141.1900   71.7560  221.4270 N   0  0  0  0  0  0  0  0  0  0  0  0
  141.3610   72.5340  220.2220 C   0  0  0  0  0  0  0  0  0  0  0  0
  142.3520   73.5930  220.4590 C   0  0  0  0  0  0  0  0  0  0  0  0
  141.9940   74.7630  220.7610 O   0  0  0  0  0  0  0  0  0  0  0  0
  143.7520   73.3610  220.3610 N   0  0  0  0  0  0  0  0  0  0  0  0
  144.7930   74.3380  220.5760 C   0  0  0  0  0  0  0  0  0  0  0  0
  145.9570   73.4540  221.0380 C   0  0  0  0  0  0  0  0  0  0  0  0
  145.8310   72.3150  220.0550 C   0  0  0  0  0  0  0  0  0  0  0  0
  144.3390   72.0780  220.0250 C   0  0  0  0  0  0  0  0  0  0  0  0
  140.2500   71.5030  223.6900 C   0  0  0  0  0  0  0  0  0  0  0  0
  139.5920   70.2770  223.6030 C   0  0  0  0  0  0  0  0  0  0  0  0
  139.4190   69.4850  224.7200 C   0  0  0  0  0  0  0  0  0  0  0  0
  139.8930   69.8970  225.9360 C   0  0  0  0  0  0  0  0  0  0  0  0
  139.7510   69.1500  227.0970 C   0  0  0  0  0  0  0  0  0  0  0  0
  140.2620   69.6440  228.2860 C   0  0  0  0  0  0  0  0  0  0  0  0
  140.9050   70.8620  228.3280 C   0  0  0  0  0  0  0  0  0  0  0  0
  141.0410   71.5980  227.1670 C   0  0  0  0  0  0  0  0  0  0  0  0
  140.5410   71.1290  225.9680 C   0  0  0  0  0  0  0  0  0  0  0  0
  140.7050   71.8900  224.8770 N   0  0  0  0  0  0  0  0  0  0  0  0
  141.6320   70.8220  221.5030 H   0  0  0  0  0  0  0  0  0  0  0  0
  141.7106   71.8798  219.4097 H   0  0  0  0  0  0  0  0  0  0  0  0
  140.3998   72.9880  219.9392 H   0  0  0  0  0  0  0  0  0  0  0  0
  145.0395   74.8726  219.6468 H   0  0  0  0  0  0  0  0  0  0  0  0
  144.5223   75.1296  221.2902 H   0  0  0  0  0  0  0  0  0  0  0  0
  146.9238   73.9700  220.9425 H   0  0  0  0  0  0  0  0  0  0  0  0
  145.9203   73.1572  222.0966 H   0  0  0  0  0  0  0  0  0  0  0  0
  146.2087   72.6019  219.0625 H   0  0  0  0  0  0  0  0  0  0  0  0
  146.4125   71.4246  220.3361 H   0  0  0  0  0  0  0  0  0  0  0  0
  144.0181   71.7557  219.0234 H   0  0  0  0  0  0  0  0  0  0  0  0
  144.0309   71.2855  220.7228 H   0  0  0  0  0  0  0  0  0  0  0  0
  139.2055   69.9363  222.6311 H   0  0  0  0  0  0  0  0  0  0  0  0
  138.8986   68.5198  224.6327 H   0  0  0  0  0  0  0  0  0  0  0  0
  139.2386   68.1769  227.0733 H   0  0  0  0  0  0  0  0  0  0  0  0
  140.1530   69.0560  229.2092 H   0  0  0  0  0  0  0  0  0  0  0  0
  141.3065   71.2449  229.2778 H   0  0  0  0  0  0  0  0  0  0  0  0
  141.5543   72.5704  227.1978 H   0  0  0  0  0  0  0  0  0  0  0  0
  1  2  2  0
  2  3  1  0
  3  4  1  0
  4  5  1  0
  5  6  2  0
  5  7  1  0
  7  8  1  0
  8  9  1  0
  9 10  1  0
 10 11  1  0
  2 12  1  0
 12 13  2  0
 13 14  1  0
 14 15  2  0
 15 16  1  0
 16 17  2  0
 17 18  1  0
 18 19  2  0
 19 20  1  0
 20 21  2  0
 11  7  1  0
 21 12  1  0
 20 15  1  0
  3 22  1  0
  4 23  1  0
  4 24  1  0
  8 25  1  0
  8 26  1  0
  9 27  1  0
  9 28  1  0
 10 29  1  0
 10 30  1  0
 11 31  1  0
 11 32  1  0
 13 33  1  0
 14 34  1  0
 16 35  1  0
 17 36  1  0
 18 37  1  0
 19 38  1  0
M  END
>  <smiles>  (18) 
O=C(NCC(=O)N1CCCC1)c1ccc2ccccc2n1

>  <score_type>  (18) 
oracle

>  <origin>  (18) 
autodockgpu

>  <m_score__min__energy>  (18) 
-7.3300000000000001

>  <m_primary>  (18) 
energy

>  <rmsd>  (18) 
3.9415135882517793

>  <m_score__min__rmsd>  (18) 
3.9415135882517793

>  <meeko>  (18) 
{"free_energy": -7.32, "intermolecular_energy": -8.22, "internal_energy": -0.69, "cluster_size": 23, "cluster_id": 1, "rank_in_cluster": 14}

>  <energy>  (18) 
-7.3

>  <cluster_rmsd>  (18) 
0.1

>  <cluster>  (18) 
1

$$$$

     RDKit          3D

 38 40  0  0  0  0  0  0  0  0999 V2000
  140.4130   71.2490  221.2480 O   0  0  0  0  0  0  0  0  0  0  0  0
  140.1250   71.8810  222.3150 C   0  0  0  0  0  0  0  0  0  0  0  0
  139.8160   73.2660  222.3190 N   0  0  0  0  0  0  0  0  0  0  0  0
  139.8320   73.9730  221.0600 C   0  0  0  0  0  0  0  0  0  0  0  0
  140.4600   75.2890  221.2430 C   0  0  0  0  0  0  0  0  0  0  0  0
  140.3970   75.8910  222.3480 O   0  0  0  0  0  0  0  0  0  0  0  0
  141.1660   75.9470  220.1990 N   0  0  0  0  0  0  0  0  0  0  0  0
  141.8120   77.2350  220.2900 C   0  0  0  0  0  0  0  0  0  0  0  0
  142.9220   77.1000  219.2400 C   0  0  0  0  0  0  0  0  0  0  0  0
  142.1520   76.4350  218.1240 C   0  0  0  0  0  0  0  0  0  0  0  0
  141.3380   75.4000  218.8670 C   0  0  0  0  0  0  0  0  0  0  0  0
  140.1030   71.1820  223.6020 C   0  0  0  0  0  0  0  0  0  0  0  0
  139.5690   69.8950  223.6590 C   0  0  0  0  0  0  0  0  0  0  0  0
  139.5290   69.1980  224.8500 C   0  0  0  0  0  0  0  0  0  0  0  0
  140.0150   69.7660  225.9970 C   0  0  0  0  0  0  0  0  0  0  0  0
  140.0030   69.1210  227.2250 C   0  0  0  0  0  0  0  0  0  0  0  0
  140.5170   69.7700  228.3360 C   0  0  0  0  0  0  0  0  0  0  0  0
  141.0350   71.0430  228.2340 C   0  0  0  0  0  0  0  0  0  0  0  0
  141.0420   71.6770  227.0080 C   0  0  0  0  0  0  0  0  0  0  0  0
  140.5360   71.0520  225.8840 C   0  0  0  0  0  0  0  0  0  0  0  0
  140.5710   71.7200  224.7230 N   0  0  0  0  0  0  0  0  0  0  0  0
  139.5820   73.7750  223.1910 H   0  0  0  0  0  0  0  0  0  0  0  0
  140.4051   73.3931  220.3215 H   0  0  0  0  0  0  0  0  0  0  0  0
  138.8004   74.1065  220.7022 H   0  0  0  0  0  0  0  0  0  0  0  0
  141.1182   78.0505  220.0377 H   0  0  0  0  0  0  0  0  0  0  0  0
  142.1777   77.4813  221.2978 H   0  0  0  0  0  0  0  0  0  0  0  0
  143.3164   78.0806  218.9353 H   0  0  0  0  0  0  0  0  0  0  0  0
  143.8133   76.5508  219.5777 H   0  0  0  0  0  0  0  0  0  0  0  0
  141.5025   77.1546  217.6041 H   0  0  0  0  0  0  0  0  0  0  0  0
  142.7938   76.0099  217.3382 H   0  0  0  0  0  0  0  0  0  0  0  0
  140.3627   75.2522  218.3803 H   0  0  0  0  0  0  0  0  0  0  0  0
  141.8326   74.4176  218.8833 H   0  0  0  0  0  0  0  0  0  0  0  0
  139.1748   69.4294  222.7437 H   0  0  0  0  0  0  0  0  0  0  0  0
  139.1054   68.1832  224.8775 H   0  0  0  0  0  0  0  0  0  0  0  0
  139.5900   68.1055  227.3158 H   0  0  0  0  0  0  0  0  0  0  0  0
  140.5115   69.2626  229.3120 H   0  0  0  0  0  0  0  0  0  0  0  0
  141.4396   71.5497  229.1225 H   0  0  0  0  0  0  0  0  0  0  0  0
  141.4557   72.6928  226.9245 H   0  0  0  0  0  0  0  0  0  0  0  0
  1  2  2  0
  2  3  1  0
  3  4  1  0
  4  5  1  0
  5  6  2  0
  5  7  1  0
  7  8  1  0
  8  9  1  0
  9 10  1  0
 10 11  1  0
  2 12  1  0
 12 13  2  0
 13 14  1  0
 14 15  2  0
 15 16  1  0
 16 17  2  0
 17 18  1  0
 18 19  2  0
 19 20  1  0
 20 21  2  0
 11  7  1  0
 21 12  1  0
 20 15  1  0
  3 22  1  0
  4 23  1  0
  4 24  1  0
  8 25  1  0
  8 26  1  0
  9 27  1  0
  9 28  1  0
 10 29  1  0
 10 30  1  0
 11 31  1  0
 11 32  1  0
 13 33  1  0
 14 34  1  0
 16 35  1  0
 17 36  1  0
 18 37  1  0
 19 38  1  0
M  END
>  <smiles>  (19) 
O=C(NCC(=O)N1CCCC1)c1ccc2ccccc2n1

>  <score_type>  (19) 
oracle

>  <origin>  (19) 
autodockgpu

>  <m_score__min__energy>  (19) 
-7.3300000000000001

>  <m_primary>  (19) 
energy

>  <rmsd>  (19) 
1.6000484416583556

>  <m_score__min__rmsd>  (19) 
1.6000484416583556

>  <meeko>  (19) 
{"free_energy": -6.76, "intermolecular_energy": -7.66, "internal_energy": -1.08, "cluster_size": 26, "cluster_id": 2, "rank_in_cluster": 6}

>  <energy>  (19) 
-7.3

>  <cluster_rmsd>  (19) 
0.12

>  <cluster>  (19) 
1

$$$$

     RDKit          3D

 38 40  0  0  0  0  0  0  0  0999 V2000
  139.8730   73.4410  222.3870 O   0  0  0  0  0  0  0  0  0  0  0  0
  140.4300   72.3000  222.4850 C   0  0  0  0  0  0  0  0  0  0  0  0
  141.2270   71.7510  221.4470 N   0  0  0  0  0  0  0  0  0  0  0  0
  141.4050   72.5240  220.2410 C   0  0  0  0  0  0  0  0  0  0  0  0
  142.4040   73.5760  220.4740 C   0  0  0  0  0  0  0  0  0  0  0  0
  142.0560   74.7500  220.7720 O   0  0  0  0  0  0  0  0  0  0  0  0
  143.8020   73.3330  220.3780 N   0  0  0  0  0  0  0  0  0  0  0  0
  144.8500   74.3020  220.5910 C   0  0  0  0  0  0  0  0  0  0  0  0
  146.0080   73.4100  221.0560 C   0  0  0  0  0  0  0  0  0  0  0  0
  145.8730   72.2690  220.0770 C   0  0  0  0  0  0  0  0  0  0  0  0
  144.3790   72.0440  220.0470 C   0  0  0  0  0  0  0  0  0  0  0  0
  140.2630   71.5010  223.7010 C   0  0  0  0  0  0  0  0  0  0  0  0
  139.5890   70.2830  223.6190 C   0  0  0  0  0  0  0  0  0  0  0  0
  139.4090   69.4970  224.7380 C   0  0  0  0  0  0  0  0  0  0  0  0
  139.8930   69.9050  225.9520 C   0  0  0  0  0  0  0  0  0  0  0  0
  139.7460   69.1630  227.1150 C   0  0  0  0  0  0  0  0  0  0  0  0
  140.2680   69.6520  228.3000 C   0  0  0  0  0  0  0  0  0  0  0  0
  140.9280   70.8620  228.3380 C   0  0  0  0  0  0  0  0  0  0  0  0
  141.0690   71.5930  227.1750 C   0  0  0  0  0  0  0  0  0  0  0  0
  140.5580   71.1280  225.9780 C   0  0  0  0  0  0  0  0  0  0  0  0
  140.7280   71.8850  224.8850 N   0  0  0  0  0  0  0  0  0  0  0  0
  141.6780   70.8220  221.5330 H   0  0  0  0  0  0  0  0  0  0  0  0
  141.7496   71.8646  219.4308 H   0  0  0  0  0  0  0  0  0  0  0  0
  140.4474   72.9852  219.9575 H   0  0  0  0  0  0  0  0  0  0  0  0
  145.1010   74.8324  219.6606 H   0  0  0  0  0  0  0  0  0  0  0  0
  144.5850   75.0973  221.3032 H   0  0  0  0  0  0  0  0  0  0  0  0
  146.9787   73.9182  220.9586 H   0  0  0  0  0  0  0  0  0  0  0  0
  145.9692   73.1170  222.1156 H   0  0  0  0  0  0  0  0  0  0  0  0
  146.2535   72.5495  219.0837 H   0  0  0  0  0  0  0  0  0  0  0  0
  146.4470   71.3748  220.3615 H   0  0  0  0  0  0  0  0  0  0  0  0
  144.0561   71.7206  219.0464 H   0  0  0  0  0  0  0  0  0  0  0  0
  144.0641   71.2566  220.7476 H   0  0  0  0  0  0  0  0  0  0  0  0
  139.1957   69.9446  222.6491 H   0  0  0  0  0  0  0  0  0  0  0  0
  138.8747   68.5391  224.6548 H   0  0  0  0  0  0  0  0  0  0  0  0
  139.2205   68.1969  227.0956 H   0  0  0  0  0  0  0  0  0  0  0  0
  140.1547   69.0670  229.2246 H   0  0  0  0  0  0  0  0  0  0  0  0
  141.3382   71.2413  229.2855 H   0  0  0  0  0  0  0  0  0  0  0  0
  141.5952   72.5586  227.2016 H   0  0  0  0  0  0  0  0  0  0  0  0
  1  2  2  0
  2  3  1  0
  3  4  1  0
  4  5  1  0
  5  6  2  0
  5  7  1  0
  7  8  1  0
  8  9  1  0
  9 10  1  0
 10 11  1  0
  2 12  1  0
 12 13  2  0
 13 14  1  0
 14 15  2  0
 15 16  1  0
 16 17  2  0
 17 18  1  0
 18 19  2  0
 19 20  1  0
 20 21  2  0
 11  7  1  0
 21 12  1  0
 20 15  1  0
  3 22  1  0
  4 23  1  0
  4 24  1  0
  8 25  1  0
  8 26  1  0
  9 27  1  0
  9 28  1  0
 10 29  1  0
 10 30  1  0
 11 31  1  0
 11 32  1  0
 13 33  1  0
 14 34  1  0
 16 35  1  0
 17 36  1  0
 18 37  1  0
 19 38  1  0
M  END
>  <smiles>  (20) 
O=C(NCC(=O)N1CCCC1)c1ccc2ccccc2n1

>  <score_type>  (20) 
oracle

>  <origin>  (20) 
autodockgpu

>  <m_score__min__energy>  (20) 
-7.3300000000000001

>  <m_primary>  (20) 
energy

>  <rmsd>  (20) 
3.9800495006830943

>  <m_score__min__rmsd>  (20) 
3.9800495006830943

>  <meeko>  (20) 
{"free_energy": -7.33, "intermolecular_energy": -8.22, "internal_energy": -0.69, "cluster_size": 23, "cluster_id": 1, "rank_in_cluster": 9}

>  <energy>  (20) 
-7.28

>  <cluster_rmsd>  (20) 
0.16

>  <cluster>  (20) 
1

$$$$

     RDKit          3D

 38 40  0  0  0  0  0  0  0  0999 V2000
  140.1130   71.0190  221.2450 O   0  0  0  0  0  0  0  0  0  0  0  0
  139.9350   71.6670  222.3270 C   0  0  0  0  0  0  0  0  0  0  0  0
  139.7340   73.0720  222.3490 N   0  0  0  0  0  0  0  0  0  0  0  0
  139.7340   73.7810  221.0910 C   0  0  0  0  0  0  0  0  0  0  0  0
  140.3520   75.1020  221.2730 C   0  0  0  0  0  0  0  0  0  0  0  0
  140.2080   75.7450  222.3470 O   0  0  0  0  0  0  0  0  0  0  0  0
  141.1350   75.7230  220.2620 N   0  0  0  0  0  0  0  0  0  0  0  0
  141.7770   77.0120  220.3530 C   0  0  0  0  0  0  0  0  0  0  0  0
  142.9610   76.8380  219.3950 C   0  0  0  0  0  0  0  0  0  0  0  0
  142.2750   76.1340  218.2500 C   0  0  0  0  0  0  0  0  0  0  0  0
  141.4040   75.1270  218.9660 C   0  0  0  0  0  0  0  0  0  0  0  0
  139.9300   70.9660  223.6130 C   0  0  0  0  0  0  0  0  0  0  0  0
  139.4480   69.6590  223.6650 C   0  0  0  0  0  0  0  0  0  0  0  0
  139.4250   68.9590  224.8540 C   0  0  0  0  0  0  0  0  0  0  0  0
  139.8790   69.5430  226.0060 C   0  0  0  0  0  0  0  0  0  0  0  0
  139.8830   68.8970  227.2330 C   0  0  0  0  0  0  0  0  0  0  0  0
  140.3610   69.5640  228.3480 C   0  0  0  0  0  0  0  0  0  0  0  0
  140.8290   70.8570  228.2530 C   0  0  0  0  0  0  0  0  0  0  0  0
  140.8200   71.4920  227.0270 C   0  0  0  0  0  0  0  0  0  0  0  0
  140.3500   70.8500  225.8980 C   0  0  0  0  0  0  0  0  0  0  0  0
  140.3670   71.5200  224.7380 N   0  0  0  0  0  0  0  0  0  0  0  0
  139.5890   73.5930  223.2330 H   0  0  0  0  0  0  0  0  0  0  0  0
  140.3066   73.2077  220.3470 H   0  0  0  0  0  0  0  0  0  0  0  0
  138.6988   73.9057  220.7405 H   0  0  0  0  0  0  0  0  0  0  0  0
  141.1068   77.8181  220.0199 H   0  0  0  0  0  0  0  0  0  0  0  0
  142.0678   77.2947  221.3755 H   0  0  0  0  0  0  0  0  0  0  0  0
  143.3806   77.8065  219.0854 H   0  0  0  0  0  0  0  0  0  0  0  0
  143.8225   76.3006  219.8181 H   0  0  0  0  0  0  0  0  0  0  0  0
  141.6688   76.8349  217.6573 H   0  0  0  0  0  0  0  0  0  0  0  0
  142.9726   75.6802  217.5307 H   0  0  0  0  0  0  0  0  0  0  0  0
  140.4673   74.9628  218.4133 H   0  0  0  0  0  0  0  0  0  0  0  0
  141.8919   74.1451  219.0542 H   0  0  0  0  0  0  0  0  0  0  0  0
  139.0810   69.1791  222.7457 H   0  0  0  0  0  0  0  0  0  0  0  0
  139.0407   67.9286  224.8763 H   0  0  0  0  0  0  0  0  0  0  0  0
  139.5104   67.8657  227.3195 H   0  0  0  0  0  0  0  0  0  0  0  0
  140.3674   69.0551  229.3232 H   0  0  0  0  0  0  0  0  0  0  0  0
  141.2060   71.3780  229.1454 H   0  0  0  0  0  0  0  0  0  0  0  0
  141.1925   72.5240  226.9483 H   0  0  0  0  0  0  0  0  0  0  0  0
  1  2  2  0
  2  3  1  0
  3  4  1  0
  4  5  1  0
  5  6  2  0
  5  7  1  0
  7  8  1  0
  8  9  1  0
  9 10  1  0
 10 11  1  0
  2 12  1  0
 12 13  2  0
 13 14  1  0
 14 15  2  0
 15 16  1  0
 16 17  2  0
 17 18  1  0
 18 19  2  0
 19 20  1  0
 20 21  2  0
 11  7  1  0
 21 12  1  0
 20 15  1  0
  3 22  1  0
  4 23  1  0
  4 24  1  0
  8 25  1  0
  8 26  1  0
  9 27  1  0
  9 28  1  0
 10 29  1  0
 10 30  1  0
 11 31  1  0
 11 32  1  0
 13 33  1  0
 14 34  1  0
 16 35  1  0
 17 36  1  0
 18 37  1  0
 19 38  1  0
M  END
>  <smiles>  (21) 
O=C(NCC(=O)N1CCCC1)c1ccc2ccccc2n1

>  <score_type>  (21) 
oracle

>  <origin>  (21) 
autodockgpu

>  <m_score__min__energy>  (21) 
-7.3300000000000001

>  <m_primary>  (21) 
energy

>  <rmsd>  (21) 
1.5482448196206795

>  <m_score__min__rmsd>  (21) 
1.5482448196206795

>  <meeko>  (21) 
{"free_energy": -6.72, "intermolecular_energy": -7.61, "internal_energy": -1.13, "cluster_size": 26, "cluster_id": 2, "rank_in_cluster": 17}

>  <energy>  (21) 
-7.28

>  <cluster_rmsd>  (21) 
0.19

>  <cluster>  (21) 
1

$$$$

     RDKit          3D

 38 40  0  0  0  0  0  0  0  0999 V2000
  139.8270   73.4470  222.4060 O   0  0  0  0  0  0  0  0  0  0  0  0
  140.3970   72.3110  222.4960 C   0  0  0  0  0  0  0  0  0  0  0  0
  141.1940   71.7750  221.4520 N   0  0  0  0  0  0  0  0  0  0  0  0
  141.3560   72.5540  220.2480 C   0  0  0  0  0  0  0  0  0  0  0  0
  142.3650   73.5990  220.4720 C   0  0  0  0  0  0  0  0  0  0  0  0
  142.0280   74.7790  220.7600 O   0  0  0  0  0  0  0  0  0  0  0  0
  143.7610   73.3430  220.3790 N   0  0  0  0  0  0  0  0  0  0  0  0
  144.8180   74.3040  220.5830 C   0  0  0  0  0  0  0  0  0  0  0  0
  145.9670   73.4050  221.0560 C   0  0  0  0  0  0  0  0  0  0  0  0
  145.8230   72.2570  220.0870 C   0  0  0  0  0  0  0  0  0  0  0  0
  144.3260   72.0460  220.0580 C   0  0  0  0  0  0  0  0  0  0  0  0
  140.2440   71.5050  223.7100 C   0  0  0  0  0  0  0  0  0  0  0  0
  139.5830   70.2800  223.6250 C   0  0  0  0  0  0  0  0  0  0  0  0
  139.4170   69.4870  224.7420 C   0  0  0  0  0  0  0  0  0  0  0  0
  139.9020   69.8960  225.9550 C   0  0  0  0  0  0  0  0  0  0  0  0
  139.7690   69.1470  227.1160 C   0  0  0  0  0  0  0  0  0  0  0  0
  140.2920   69.6370  228.3010 C   0  0  0  0  0  0  0  0  0  0  0  0
  140.9380   70.8540  228.3400 C   0  0  0  0  0  0  0  0  0  0  0  0
  141.0660   71.5920  227.1800 C   0  0  0  0  0  0  0  0  0  0  0  0
  140.5540   71.1260  225.9840 C   0  0  0  0  0  0  0  0  0  0  0  0
  140.7100   71.8890  224.8930 N   0  0  0  0  0  0  0  0  0  0  0  0
  141.6540   70.8500  221.5320 H   0  0  0  0  0  0  0  0  0  0  0  0
  141.6836   71.8978  219.4282 H   0  0  0  0  0  0  0  0  0  0  0  0
  140.3966   73.0219  219.9824 H   0  0  0  0  0  0  0  0  0  0  0  0
  145.0739   74.8234  219.6477 H   0  0  0  0  0  0  0  0  0  0  0  0
  144.5608   75.1085  221.2877 H   0  0  0  0  0  0  0  0  0  0  0  0
  146.9424   73.9034  220.9553 H   0  0  0  0  0  0  0  0  0  0  0  0
  145.9240   73.1211  222.1179 H   0  0  0  0  0  0  0  0  0  0  0  0
  146.2069   72.5252  219.0917 H   0  0  0  0  0  0  0  0  0  0  0  0
  146.3888   71.3601  220.3794 H   0  0  0  0  0  0  0  0  0  0  0  0
  144.0005   71.7182  219.0597 H   0  0  0  0  0  0  0  0  0  0  0  0
  144.0034   71.2670  220.7644 H   0  0  0  0  0  0  0  0  0  0  0  0
  139.1890   69.9416  222.6553 H   0  0  0  0  0  0  0  0  0  0  0  0
  138.8934   68.5233  224.6575 H   0  0  0  0  0  0  0  0  0  0  0  0
  139.2540   68.1752  227.0951 H   0  0  0  0  0  0  0  0  0  0  0  0
  140.1905   69.0469  229.2238 H   0  0  0  0  0  0  0  0  0  0  0  0
  141.3481   71.2341  229.2873 H   0  0  0  0  0  0  0  0  0  0  0  0
  141.5820   72.5631  227.2083 H   0  0  0  0  0  0  0  0  0  0  0  0
  1  2  2  0
  2  3  1  0
  3  4  1  0
  4  5  1  0
  5  6  2  0
  5  7  1  0
  7  8  1  0
  8  9  1  0
  9 10  1  0
 10 11  1  0
  2 12  1  0
 12 13  2  0
 13 14  1  0
 14 15  2  0
 15 16  1  0
 16 17  2  0
 17 18  1  0
 18 19  2  0
 19 20  1  0
 20 21  2  0
 11  7  1  0
 21 12  1  0
 20 15  1  0
  3 22  1  0
  4 23  1  0
  4 24  1  0
  8 25  1  0
  8 26  1  0
  9 27  1  0
  9 28  1  0
 10 29  1  0
 10 30  1  0
 11 31  1  0
 11 32  1  0
 13 33  1  0
 14 34  1  0
 16 35  1  0
 17 36  1  0
 18 37  1  0
 19 38  1  0
M  END
>  <smiles>  (22) 
O=C(NCC(=O)N1CCCC1)c1ccc2ccccc2n1

>  <score_type>  (22) 
oracle

>  <origin>  (22) 
autodockgpu

>  <m_score__min__energy>  (22) 
-7.3300000000000001

>  <m_primary>  (22) 
energy

>  <rmsd>  (22) 
3.9552073982282105

>  <m_score__min__rmsd>  (22) 
3.9552073982282105

>  <meeko>  (22) 
{"free_energy": -7.32, "intermolecular_energy": -8.21, "internal_energy": -0.69, "cluster_size": 23, "cluster_id": 1, "rank_in_cluster": 15}

>  <energy>  (22) 
-7.24

>  <cluster_rmsd>  (22) 
0.26

>  <cluster>  (22) 
1

$$$$

     RDKit          3D

 38 40  0  0  0  0  0  0  0  0999 V2000
  141.4190   71.6260  221.6800 O   0  0  0  0  0  0  0  0  0  0  0  0
  140.6080   72.0020  222.5870 C   0  0  0  0  0  0  0  0  0  0  0  0
  139.9310   73.2480  222.5340 N   0  0  0  0  0  0  0  0  0  0  0  0
  140.1800   74.1130  221.4050 C   0  0  0  0  0  0  0  0  0  0  0  0
  139.9560   75.5110  221.7990 C   0  0  0  0  0  0  0  0  0  0  0  0
  139.1560   75.8050  222.7270 O   0  0  0  0  0  0  0  0  0  0  0  0
  140.6190   76.5970  221.1630 N   0  0  0  0  0  0  0  0  0  0  0  0
  140.4610   77.9950  221.4840 C   0  0  0  0  0  0  0  0  0  0  0  0
  141.8200   78.5660  221.0600 C   0  0  0  0  0  0  0  0  0  0  0  0
  142.0120   77.8480  219.7460 C   0  0  0  0  0  0  0  0  0  0  0  0
  141.5710   76.4410  220.0790 C   0  0  0  0  0  0  0  0  0  0  0  0
  140.3420   71.1390  223.7400 C   0  0  0  0  0  0  0  0  0  0  0  0
  139.5810   69.9850  223.5560 C   0  0  0  0  0  0  0  0  0  0  0  0
  139.3060   69.1420  224.6130 C   0  0  0  0  0  0  0  0  0  0  0  0
  139.7800   69.4300  225.8650 C   0  0  0  0  0  0  0  0  0  0  0  0
  139.5400   68.6250  226.9690 C   0  0  0  0  0  0  0  0  0  0  0  0
  140.0600   68.9920  228.2000 C   0  0  0  0  0  0  0  0  0  0  0  0
  140.8070   70.1420  228.3380 C   0  0  0  0  0  0  0  0  0  0  0  0
  141.0410   70.9360  227.2320 C   0  0  0  0  0  0  0  0  0  0  0  0
  140.5350   70.5930  225.9930 C   0  0  0  0  0  0  0  0  0  0  0  0
  140.7960   71.4050  224.9600 N   0  0  0  0  0  0  0  0  0  0  0  0
  139.2720   73.5480  223.2760 H   0  0  0  0  0  0  0  0  0  0  0  0
  141.2205   73.9887  221.0705 H   0  0  0  0  0  0  0  0  0  0  0  0
  139.4966   73.8498  220.5842 H   0  0  0  0  0  0  0  0  0  0  0  0
  139.6390   78.4479  220.9103 H   0  0  0  0  0  0  0  0  0  0  0  0
  140.2050   78.1856  222.5367 H   0  0  0  0  0  0  0  0  0  0  0  0
  141.7799   79.6571  220.9262 H   0  0  0  0  0  0  0  0  0  0  0  0
  142.6304   78.4192  221.7892 H   0  0  0  0  0  0  0  0  0  0  0  0
  141.3830   78.2862  218.9572 H   0  0  0  0  0  0  0  0  0  0  0  0
  143.0398   77.9069  219.3585 H   0  0  0  0  0  0  0  0  0  0  0  0
  141.0927   75.9687  219.2083 H   0  0  0  0  0  0  0  0  0  0  0  0
  142.4171   75.7964  220.3593 H   0  0  0  0  0  0  0  0  0  0  0  0
  139.1948   69.7436  222.5547 H   0  0  0  0  0  0  0  0  0  0  0  0
  138.7042   68.2358  224.4495 H   0  0  0  0  0  0  0  0  0  0  0  0
  138.9438   67.7060  226.8684 H   0  0  0  0  0  0  0  0  0  0  0  0
  139.8741   68.3570  229.0787 H   0  0  0  0  0  0  0  0  0  0  0  0
  141.2133   70.4251  229.3202 H   0  0  0  0  0  0  0  0  0  0  0  0
  141.6382   71.8536  227.3392 H   0  0  0  0  0  0  0  0  0  0  0  0
  1  2  2  0
  2  3  1  0
  3  4  1  0
  4  5  1  0
  5  6  2  0
  5  7  1  0
  7  8  1  0
  8  9  1  0
  9 10  1  0
 10 11  1  0
  2 12  1  0
 12 13  2  0
 13 14  1  0
 14 15  2  0
 15 16  1  0
 16 17  2  0
 17 18  1  0
 18 19  2  0
 19 20  1  0
 20 21  2  0
 11  7  1  0
 21 12  1  0
 20 15  1  0
  3 22  1  0
  4 23  1  0
  4 24  1  0
  8 25  1  0
  8 26  1  0
  9 27  1  0
  9 28  1  0
 10 29  1  0
 10 30  1  0
 11 31  1  0
 11 32  1  0
 13 33  1  0
 14 34  1  0
 16 35  1  0
 17 36  1  0
 18 37  1  0
 19 38  1  0
M  END
>  <smiles>  (23) 
O=C(NCC(=O)N1CCCC1)c1ccc2ccccc2n1

>  <score_type>  (23) 
oracle

>  <origin>  (23) 
autodockgpu

>  <m_score__min__energy>  (23) 
-7.3300000000000001

>  <m_primary>  (23) 
energy

>  <rmsd>  (23) 
2.1795253179147607

>  <m_score__min__rmsd>  (23) 
2.1795253179147607

>  <meeko>  (23) 
{"free_energy": -6.78, "intermolecular_energy": -7.68, "internal_energy": -1.06, "cluster_size": 26, "cluster_id": 2, "rank_in_cluster": 2}

>  <energy>  (23) 
-7.13

>  <cluster_rmsd>  (23) 
0.39

>  <cluster>  (23) 
1

$$$$

     RDKit          3D

 38 40  0  0  0  0  0  0  0  0999 V2000
  141.3630   71.5840  221.6390 O   0  0  0  0  0  0  0  0  0  0  0  0
  140.5830   71.9790  222.5650 C   0  0  0  0  0  0  0  0  0  0  0  0
  139.9340   73.2400  222.5270 N   0  0  0  0  0  0  0  0  0  0  0  0
  140.1740   74.0970  221.3900 C   0  0  0  0  0  0  0  0  0  0  0  0
  139.9450   75.4970  221.7750 C   0  0  0  0  0  0  0  0  0  0  0  0
  139.1510   75.7940  222.7070 O   0  0  0  0  0  0  0  0  0  0  0  0
  140.5970   76.5810  221.1250 N   0  0  0  0  0  0  0  0  0  0  0  0
  140.4330   77.9820  221.4360 C   0  0  0  0  0  0  0  0  0  0  0  0
  141.7860   78.5560  220.9970 C   0  0  0  0  0  0  0  0  0  0  0  0
  141.9710   77.8300  219.6870 C   0  0  0  0  0  0  0  0  0  0  0  0
  141.5410   76.4230  220.0350 C   0  0  0  0  0  0  0  0  0  0  0  0
  140.3260   71.1230  223.7260 C   0  0  0  0  0  0  0  0  0  0  0  0
  139.5870   69.9540  223.5500 C   0  0  0  0  0  0  0  0  0  0  0  0
  139.3220   69.1170  224.6140 C   0  0  0  0  0  0  0  0  0  0  0  0
  139.7830   69.4260  225.8650 C   0  0  0  0  0  0  0  0  0  0  0  0
  139.5520   68.6300  226.9770 C   0  0  0  0  0  0  0  0  0  0  0  0
  140.0570   69.0190  228.2060 C   0  0  0  0  0  0  0  0  0  0  0  0
  140.7830   70.1830  228.3360 C   0  0  0  0  0  0  0  0  0  0  0  0
  141.0090   70.9700  227.2240 C   0  0  0  0  0  0  0  0  0  0  0  0
  140.5160   70.6050  225.9860 C   0  0  0  0  0  0  0  0  0  0  0  0
  140.7680   71.4110  224.9450 N   0  0  0  0  0  0  0  0  0  0  0  0
  139.3000   73.5550  223.2840 H   0  0  0  0  0  0  0  0  0  0  0  0
  141.2136   73.9750  221.0518 H   0  0  0  0  0  0  0  0  0  0  0  0
  139.4887   73.8242  220.5740 H   0  0  0  0  0  0  0  0  0  0  0  0
  139.6043   78.4257  220.8646 H   0  0  0  0  0  0  0  0  0  0  0  0
  140.1832   78.1804  222.4887 H   0  0  0  0  0  0  0  0  0  0  0  0
  141.7398   79.6459  220.8559 H   0  0  0  0  0  0  0  0  0  0  0  0
  142.6028   78.4179  221.7207 H   0  0  0  0  0  0  0  0  0  0  0  0
  141.3326   78.2586  218.9004 H   0  0  0  0  0  0  0  0  0  0  0  0
  142.9948   77.8922  219.2897 H   0  0  0  0  0  0  0  0  0  0  0  0
  141.0587   75.9409  219.1719 H   0  0  0  0  0  0  0  0  0  0  0  0
  142.3934   75.7861  220.3140 H   0  0  0  0  0  0  0  0  0  0  0  0
  139.2102   69.6956  222.5494 H   0  0  0  0  0  0  0  0  0  0  0  0
  138.7382   68.1981  224.4564 H   0  0  0  0  0  0  0  0  0  0  0  0
  138.9735   67.6991  226.8835 H   0  0  0  0  0  0  0  0  0  0  0  0
  139.8763   68.3905  229.0905 H   0  0  0  0  0  0  0  0  0  0  0  0
  141.1792   70.4828  229.3174 H   0  0  0  0  0  0  0  0  0  0  0  0
  141.5889   71.8993  227.3252 H   0  0  0  0  0  0  0  0  0  0  0  0
  1  2  2  0
  2  3  1  0
  3  4  1  0
  4  5  1  0
  5  6  2  0
  5  7  1  0
  7  8  1  0
  8  9  1  0
  9 10  1  0
 10 11  1  0
  2 12  1  0
 12 13  2  0
 13 14  1  0
 14 15  2  0
 15 16  1  0
 16 17  2  0
 17 18  1  0
 18 19  2  0
 19 20  1  0
 20 21  2  0
 11  7  1  0
 21 12  1  0
 20 15  1  0
  3 22  1  0
  4 23  1  0
  4 24  1  0
  8 25  1  0
  8 26  1  0
  9 27  1  0
  9 28  1  0
 10 29  1  0
 10 30  1  0
 11 31  1  0
 11 32  1  0
 13 33  1  0
 14 34  1  0
 16 35  1  0
 17 36  1  0
 18 37  1  0
 19 38  1  0
M  END
>  <smiles>  (24) 
O=C(NCC(=O)N1CCCC1)c1ccc2ccccc2n1

>  <score_type>  (24) 
oracle

>  <origin>  (24) 
autodockgpu

>  <m_score__min__energy>  (24) 
-7.3300000000000001

>  <m_primary>  (24) 
energy

>  <rmsd>  (24) 
2.1449065509467435

>  <m_score__min__rmsd>  (24) 
2.1449065509467435

>  <meeko>  (24) 
{"free_energy": -6.76, "intermolecular_energy": -7.66, "internal_energy": -1.08, "cluster_size": 26, "cluster_id": 2, "rank_in_cluster": 5}

>  <energy>  (24) 
-7.13

>  <cluster_rmsd>  (24) 
0.0

>  <cluster>  (24) 
2

$$$$

     RDKit          3D

 38 40  0  0  0  0  0  0  0  0999 V2000
  140.2270   71.0070  221.2690 O   0  0  0  0  0  0  0  0  0  0  0  0
  139.9980   71.6540  222.3420 C   0  0  0  0  0  0  0  0  0  0  0  0
  139.7510   73.0510  222.3500 N   0  0  0  0  0  0  0  0  0  0  0  0
  139.7630   73.7540  221.0880 C   0  0  0  0  0  0  0  0  0  0  0  0
  140.3880   75.0720  221.2670 C   0  0  0  0  0  0  0  0  0  0  0  0
  140.2580   75.7130  222.3440 O   0  0  0  0  0  0  0  0  0  0  0  0
  141.1630   75.6910  220.2490 N   0  0  0  0  0  0  0  0  0  0  0  0
  141.8120   76.9780  220.3370 C   0  0  0  0  0  0  0  0  0  0  0  0
  142.9850   76.8020  219.3650 C   0  0  0  0  0  0  0  0  0  0  0  0
  142.2830   76.1020  218.2260 C   0  0  0  0  0  0  0  0  0  0  0  0
  141.4160   75.0980  218.9490 C   0  0  0  0  0  0  0  0  0  0  0  0
  139.9800   70.9590  223.6310 C   0  0  0  0  0  0  0  0  0  0  0  0
  139.4350   69.6770  223.6980 C   0  0  0  0  0  0  0  0  0  0  0  0
  139.3990   68.9840  224.8910 C   0  0  0  0  0  0  0  0  0  0  0  0
  139.9000   69.5510  226.0320 C   0  0  0  0  0  0  0  0  0  0  0  0
  139.8940   68.9100  227.2620 C   0  0  0  0  0  0  0  0  0  0  0  0
  140.4230   69.5580  228.3650 C   0  0  0  0  0  0  0  0  0  0  0  0
  140.9530   70.8250  228.2560 C   0  0  0  0  0  0  0  0  0  0  0  0
  140.9550   71.4550  227.0270 C   0  0  0  0  0  0  0  0  0  0  0  0
  140.4330   70.8320  225.9100 C   0  0  0  0  0  0  0  0  0  0  0  0
  140.4640   71.4960  224.7460 N   0  0  0  0  0  0  0  0  0  0  0  0
  139.5650   73.5720  223.2260 H   0  0  0  0  0  0  0  0  0  0  0  0
  140.3365   73.1734  220.3504 H   0  0  0  0  0  0  0  0  0  0  0  0
  138.7307   73.8833  220.7307 H   0  0  0  0  0  0  0  0  0  0  0  0
  141.1416   77.7880  220.0139 H   0  0  0  0  0  0  0  0  0  0  0  0
  142.1154   77.2562  221.3571 H   0  0  0  0  0  0  0  0  0  0  0  0
  143.4042   77.7698  219.0524 H   0  0  0  0  0  0  0  0  0  0  0  0
  143.8496   76.2611  219.7772 H   0  0  0  0  0  0  0  0  0  0  0  0
  141.6733   76.8063  217.6410 H   0  0  0  0  0  0  0  0  0  0  0  0
  142.9710   75.6462  217.4987 H   0  0  0  0  0  0  0  0  0  0  0  0
  140.4727   74.9391  218.4059 H   0  0  0  0  0  0  0  0  0  0  0  0
  141.9012   74.1141  219.0300 H   0  0  0  0  0  0  0  0  0  0  0  0
  139.0284   69.2120  222.7878 H   0  0  0  0  0  0  0  0  0  0  0  0
  138.9665   67.9732  224.9252 H   0  0  0  0  0  0  0  0  0  0  0  0
  139.4737   67.8982  227.3599 H   0  0  0  0  0  0  0  0  0  0  0  0
  140.4201   69.0540  229.3427 H   0  0  0  0  0  0  0  0  0  0  0  0
  141.3706   71.3300  229.1395 H   0  0  0  0  0  0  0  0  0  0  0  0
  141.3779   72.4664  226.9363 H   0  0  0  0  0  0  0  0  0  0  0  0
  1  2  2  0
  2  3  1  0
  3  4  1  0
  4  5  1  0
  5  6  2  0
  5  7  1  0
  7  8  1  0
  8  9  1  0
  9 10  1  0
 10 11  1  0
  2 12  1  0
 12 13  2  0
 13 14  1  0
 14 15  2  0
 15 16  1  0
 16 17  2  0
 17 18  1  0
 18 19  2  0
 19 20  1  0
 20 21  2  0
 11  7  1  0
 21 12  1  0
 20 15  1  0
  3 22  1  0
  4 23  1  0
  4 24  1  0
  8 25  1  0
  8 26  1  0
  9 27  1  0
  9 28  1  0
 10 29  1  0
 10 30  1  0
 11 31  1  0
 11 32  1  0
 13 33  1  0
 14 34  1  0
 16 35  1  0
 17 36  1  0
 18 37  1  0
 19 38  1  0
M  END
>  <smiles>  (25) 
O=C(NCC(=O)N1CCCC1)c1ccc2ccccc2n1

>  <score_type>  (25) 
oracle

>  <origin>  (25) 
autodockgpu

>  <m_score__min__energy>  (25) 
-7.3300000000000001

>  <m_primary>  (25) 
energy

>  <rmsd>  (25) 
1.5615356020087028

>  <m_score__min__rmsd>  (25) 
1.5615356020087028

>  <meeko>  (25) 
{"free_energy": -6.74, "intermolecular_energy": -7.64, "internal_energy": -1.1, "cluster_size": 26, "cluster_id": 2, "rank_in_cluster": 7}

>  <energy>  (25) 
-6.78

>  <cluster_rmsd>  (25) 
1.19

>  <cluster>  (25) 
2

$$$$

     RDKit          3D

 38 40  0  0  0  0  0  0  0  0999 V2000
  139.7530   73.4400  222.3920 O   0  0  0  0  0  0  0  0  0  0  0  0
  140.3630   72.3270  222.4930 C   0  0  0  0  0  0  0  0  0  0  0  0
  141.1930   71.8170  221.4610 N   0  0  0  0  0  0  0  0  0  0  0  0
  141.3430   72.5990  220.2570 C   0  0  0  0  0  0  0  0  0  0  0  0
  142.3620   73.6360  220.4680 C   0  0  0  0  0  0  0  0  0  0  0  0
  142.0360   74.8210  220.7480 O   0  0  0  0  0  0  0  0  0  0  0  0
  143.7550   73.3660  220.3700 N   0  0  0  0  0  0  0  0  0  0  0  0
  144.8220   74.3200  220.5620 C   0  0  0  0  0  0  0  0  0  0  0  0
  145.9650   73.4150  221.0360 C   0  0  0  0  0  0  0  0  0  0  0  0
  145.8060   72.2600  220.0770 C   0  0  0  0  0  0  0  0  0  0  0  0
  144.3070   72.0620  220.0570 C   0  0  0  0  0  0  0  0  0  0  0  0
  140.2250   71.5200  223.7070 C   0  0  0  0  0  0  0  0  0  0  0  0
  139.5710   70.2900  223.6270 C   0  0  0  0  0  0  0  0  0  0  0  0
  139.4180   69.4960  224.7450 C   0  0  0  0  0  0  0  0  0  0  0  0
  139.9090   69.9070  225.9550 C   0  0  0  0  0  0  0  0  0  0  0  0
  139.7890   69.1580  227.1160 C   0  0  0  0  0  0  0  0  0  0  0  0
  140.3170   69.6510  228.2980 C   0  0  0  0  0  0  0  0  0  0  0  0
  140.9560   70.8720  228.3330 C   0  0  0  0  0  0  0  0  0  0  0  0
  141.0700   71.6100  227.1720 C   0  0  0  0  0  0  0  0  0  0  0  0
  140.5530   71.1420  225.9790 C   0  0  0  0  0  0  0  0  0  0  0  0
  140.6960   71.9060  224.8880 N   0  0  0  0  0  0  0  0  0  0  0  0
  141.6870   70.9100  221.5510 H   0  0  0  0  0  0  0  0  0  0  0  0
  141.6537   71.9430  219.4305 H   0  0  0  0  0  0  0  0  0  0  0  0
  140.3830   73.0748  220.0079 H   0  0  0  0  0  0  0  0  0  0  0  0
  145.0779   74.8303  219.6217 H   0  0  0  0  0  0  0  0  0  0  0  0
  144.5751   75.1319  221.2619 H   0  0  0  0  0  0  0  0  0  0  0  0
  146.9442   73.9040  220.9262 H   0  0  0  0  0  0  0  0  0  0  0  0
  145.9250   73.1401  222.1003 H   0  0  0  0  0  0  0  0  0  0  0  0
  146.1873   72.5166  219.0776 H   0  0  0  0  0  0  0  0  0  0  0  0
  146.3652   71.3606  220.3741 H   0  0  0  0  0  0  0  0  0  0  0  0
  143.9737   71.7289  219.0630 H   0  0  0  0  0  0  0  0  0  0  0  0
  143.9812   71.2917  220.7714 H   0  0  0  0  0  0  0  0  0  0  0  0
  139.1723   69.9490  222.6602 H   0  0  0  0  0  0  0  0  0  0  0  0
  138.8996   68.5292  224.6637 H   0  0  0  0  0  0  0  0  0  0  0  0
  139.2801   68.1830  227.0985 H   0  0  0  0  0  0  0  0  0  0  0  0
  140.2251   69.0601  229.2213 H   0  0  0  0  0  0  0  0  0  0  0  0
  141.3711   71.2546  229.2771 H   0  0  0  0  0  0  0  0  0  0  0  0
  141.5797   72.5845  227.1968 H   0  0  0  0  0  0  0  0  0  0  0  0
  1  2  2  0
  2  3  1  0
  3  4  1  0
  4  5  1  0
  5  6  2  0
  5  7  1  0
  7  8  1  0
  8  9  1  0
  9 10  1  0
 10 11  1  0
  2 12  1  0
 12 13  2  0
 13 14  1  0
 14 15  2  0
 15 16  1  0
 16 17  2  0
 17 18  1  0
 18 19  2  0
 19 20  1  0
 20 21  2  0
 11  7  1  0
 21 12  1  0
 20 15  1  0
  3 22  1  0
  4 23  1  0
  4 24  1  0
  8 25  1  0
  8 26  1  0
  9 27  1  0
  9 28  1  0
 10 29  1  0
 10 30  1  0
 11 31  1  0
 11 32  1  0
 13 33  1  0
 14 34  1  0
 16 35  1  0
 17 36  1  0
 18 37  1  0
 19 38  1  0
M  END
>  <smiles>  (26) 
O=C(NCC(=O)N1CCCC1)c1ccc2ccccc2n1

>  <score_type>  (26) 
oracle

>  <origin>  (26) 
autodockgpu

>  <m_score__min__energy>  (26) 
-7.3300000000000001

>  <m_primary>  (26) 
energy

>  <rmsd>  (26) 
3.942537270741452

>  <m_score__min__rmsd>  (26) 
3.942537270741452

>  <meeko>  (26) 
{"free_energy": -7.3, "intermolecular_energy": -8.2, "internal_energy": -0.69, "cluster_size": 23, "cluster_id": 1, "rank_in_cluster": 18}

>  <energy>  (26) 
-6.78

>  <cluster_rmsd>  (26) 
1.19

>  <cluster>  (26) 
2

$$$$

     RDKit          3D

 38 40  0  0  0  0  0  0  0  0999 V2000
  140.9790   71.2010  221.4810 O   0  0  0  0  0  0  0  0  0  0  0  0
  140.4330   71.7010  222.5180 C   0  0  0  0  0  0  0  0  0  0  0  0
  139.9890   73.0480  222.5680 N   0  0  0  0  0  0  0  0  0  0  0  0
  140.1690   73.8710  221.3960 C   0  0  0  0  0  0  0  0  0  0  0  0
  139.9720   75.2830  221.7530 C   0  0  0  0  0  0  0  0  0  0  0  0
  139.2130   75.6140  222.7030 O   0  0  0  0  0  0  0  0  0  0  0  0
  140.6170   76.3420  221.0560 N   0  0  0  0  0  0  0  0  0  0  0  0
  140.4830   77.7520  221.3370 C   0  0  0  0  0  0  0  0  0  0  0  0
  141.8280   78.2960  220.8400 C   0  0  0  0  0  0  0  0  0  0  0  0
  141.9590   77.5350  219.5430 C   0  0  0  0  0  0  0  0  0  0  0  0
  141.5220   76.1440  219.9400 C   0  0  0  0  0  0  0  0  0  0  0  0
  140.2400   70.8820  223.7160 C   0  0  0  0  0  0  0  0  0  0  0  0
  139.5400   69.6810  223.6060 C   0  0  0  0  0  0  0  0  0  0  0  0
  139.3360   68.8770  224.7080 C   0  0  0  0  0  0  0  0  0  0  0  0
  139.8210   69.2500  225.9330 C   0  0  0  0  0  0  0  0  0  0  0  0
  139.6500   68.4890  227.0800 C   0  0  0  0  0  0  0  0  0  0  0  0
  140.1750   68.9430  228.2780 C   0  0  0  0  0  0  0  0  0  0  0  0
  140.8610   70.1370  228.3430 C   0  0  0  0  0  0  0  0  0  0  0  0
  141.0260   70.8880  227.1960 C   0  0  0  0  0  0  0  0  0  0  0  0
  140.5120   70.4580  225.9880 C   0  0  0  0  0  0  0  0  0  0  0  0
  140.7050   71.2320  224.9110 N   0  0  0  0  0  0  0  0  0  0  0  0
  139.5450   73.4490  223.4150 H   0  0  0  0  0  0  0  0  0  0  0  0
  141.1867   73.7310  221.0026 H   0  0  0  0  0  0  0  0  0  0  0  0
  139.4358   73.5814  220.6288 H   0  0  0  0  0  0  0  0  0  0  0  0
  139.6420   78.1935  220.7822 H   0  0  0  0  0  0  0  0  0  0  0  0
  140.2713   77.9793  222.3922 H   0  0  0  0  0  0  0  0  0  0  0  0
  141.7917   79.3827  220.6732 H   0  0  0  0  0  0  0  0  0  0  0  0
  142.6666   78.1646  221.5396 H   0  0  0  0  0  0  0  0  0  0  0  0
  141.3005   77.9533  218.7675 H   0  0  0  0  0  0  0  0  0  0  0  0
  142.9697   77.5725  219.1106 H   0  0  0  0  0  0  0  0  0  0  0  0
  141.0048   75.6478  219.1056 H   0  0  0  0  0  0  0  0  0  0  0  0
  142.3746   75.5022  220.2068 H   0  0  0  0  0  0  0  0  0  0  0  0
  139.1452   69.3707  222.6273 H   0  0  0  0  0  0  0  0  0  0  0  0
  138.7817   67.9328  224.6024 H   0  0  0  0  0  0  0  0  0  0  0  0
  139.1033   67.5354  227.0383 H   0  0  0  0  0  0  0  0  0  0  0  0
  140.0429   68.3428  229.1903 H   0  0  0  0  0  0  0  0  0  0  0  0
  141.2734   70.4885  229.3003 H   0  0  0  0  0  0  0  0  0  0  0  0
  141.5737   71.8407  227.2448 H   0  0  0  0  0  0  0  0  0  0  0  0
  1  2  2  0
  2  3  1  0
  3  4  1  0
  4  5  1  0
  5  6  2  0
  5  7  1  0
  7  8  1  0
  8  9  1  0
  9 10  1  0
 10 11  1  0
  2 12  1  0
 12 13  2  0
 13 14  1  0
 14 15  2  0
 15 16  1  0
 16 17  2  0
 17 18  1  0
 18 19  2  0
 19 20  1  0
 20 21  2  0
 11  7  1  0
 21 12  1  0
 20 15  1  0
  3 22  1  0
  4 23  1  0
  4 24  1  0
  8 25  1  0
  8 26  1  0
  9 27  1  0
  9 28  1  0
 10 29  1  0
 10 30  1  0
 11 31  1  0
 11 32  1  0
 13 33  1  0
 14 34  1  0
 16 35  1  0
 17 36  1  0
 18 37  1  0
 19 38  1  0
M  END
>  <smiles>  (27) 
O=C(NCC(=O)N1CCCC1)c1ccc2ccccc2n1

>  <score_type>  (27) 
oracle

>  <origin>  (27) 
autodockgpu

>  <m_score__min__energy>  (27) 
-7.3300000000000001

>  <m_primary>  (27) 
energy

>  <rmsd>  (27) 
2.0025763180729963

>  <m_score__min__rmsd>  (27) 
2.0025763180729963

>  <meeko>  (27) 
{"free_energy": -6.72, "intermolecular_energy": -7.62, "internal_energy": -1.13, "cluster_size": 26, "cluster_id": 2, "rank_in_cluster": 13}

>  <energy>  (27) 
-6.78

>  <cluster_rmsd>  (27) 
1.2

>  <cluster>  (27) 
2

$$$$

     RDKit          3D

 38 40  0  0  0  0  0  0  0  0999 V2000
  139.8820   73.4530  222.3770 O   0  0  0  0  0  0  0  0  0  0  0  0
  140.4180   72.3010  222.4660 C   0  0  0  0  0  0  0  0  0  0  0  0
  141.1950   71.7400  221.4190 N   0  0  0  0  0  0  0  0  0  0  0  0
  141.3770   72.5140  220.2140 C   0  0  0  0  0  0  0  0  0  0  0  0
  142.3640   73.5750  220.4560 C   0  0  0  0  0  0  0  0  0  0  0  0
  142.0030   74.7430  220.7620 O   0  0  0  0  0  0  0  0  0  0  0  0
  143.7650   73.3480  220.3620 N   0  0  0  0  0  0  0  0  0  0  0  0
  144.8030   74.3270  220.5830 C   0  0  0  0  0  0  0  0  0  0  0  0
  145.9680   73.4440  221.0440 C   0  0  0  0  0  0  0  0  0  0  0  0
  145.8480   72.3080  220.0570 C   0  0  0  0  0  0  0  0  0  0  0  0
  144.3570   72.0670  220.0230 C   0  0  0  0  0  0  0  0  0  0  0  0
  140.2450   71.5010  223.6800 C   0  0  0  0  0  0  0  0  0  0  0  0
  139.5780   70.2790  223.5920 C   0  0  0  0  0  0  0  0  0  0  0  0
  139.3930   69.4910  224.7100 C   0  0  0  0  0  0  0  0  0  0  0  0
  139.8650   69.9020  225.9270 C   0  0  0  0  0  0  0  0  0  0  0  0
  139.7130   69.1590  227.0890 C   0  0  0  0  0  0  0  0  0  0  0  0
  140.2230   69.6500  228.2790 C   0  0  0  0  0  0  0  0  0  0  0  0
  140.8760   70.8630  228.3220 C   0  0  0  0  0  0  0  0  0  0  0  0
  141.0230   71.5960  227.1600 C   0  0  0  0  0  0  0  0  0  0  0  0
  140.5240   71.1280  225.9600 C   0  0  0  0  0  0  0  0  0  0  0  0
  140.6980   71.8860  224.8680 N   0  0  0  0  0  0  0  0  0  0  0  0
  141.6280   70.8020  221.4980 H   0  0  0  0  0  0  0  0  0  0  0  0
  141.7352   71.8574  219.4074 H   0  0  0  0  0  0  0  0  0  0  0  0
  140.4180   72.9662  219.9211 H   0  0  0  0  0  0  0  0  0  0  0  0
  145.0502   74.8658  219.6564 H   0  0  0  0  0  0  0  0  0  0  0  0
  144.5288   75.1153  221.2995 H   0  0  0  0  0  0  0  0  0  0  0  0
  146.9336   73.9629  220.9527 H   0  0  0  0  0  0  0  0  0  0  0  0
  145.9290   73.1431  222.1013 H   0  0  0  0  0  0  0  0  0  0  0  0
  146.2271   72.5993  219.0663 H   0  0  0  0  0  0  0  0  0  0  0  0
  146.4317   71.4184  220.3363 H   0  0  0  0  0  0  0  0  0  0  0  0
  144.0393   71.7470  219.0197 H   0  0  0  0  0  0  0  0  0  0  0  0
  144.0497   71.2714  220.7177 H   0  0  0  0  0  0  0  0  0  0  0  0
  139.1944   69.9389  222.6188 H   0  0  0  0  0  0  0  0  0  0  0  0
  138.8648   68.5301  224.6226 H   0  0  0  0  0  0  0  0  0  0  0  0
  139.1928   68.1901  227.0651 H   0  0  0  0  0  0  0  0  0  0  0  0
  140.1054   69.0641  229.2025 H   0  0  0  0  0  0  0  0  0  0  0  0
  141.2766   71.2442  229.2729 H   0  0  0  0  0  0  0  0  0  0  0  0
  141.5439   72.5644  227.1909 H   0  0  0  0  0  0  0  0  0  0  0  0
  1  2  2  0
  2  3  1  0
  3  4  1  0
  4  5  1  0
  5  6  2  0
  5  7  1  0
  7  8  1  0
  8  9  1  0
  9 10  1  0
 10 11  1  0
  2 12  1  0
 12 13  2  0
 13 14  1  0
 14 15  2  0
 15 16  1  0
 16 17  2  0
 17 18  1  0
 18 19  2  0
 19 20  1  0
 20 21  2  0
 11  7  1  0
 21 12  1  0
 20 15  1  0
  3 22  1  0
  4 23  1  0
  4 24  1  0
  8 25  1  0
  8 26  1  0
  9 27  1  0
  9 28  1  0
 10 29  1  0
 10 30  1  0
 11 31  1  0
 11 32  1  0
 13 33  1  0
 14 34  1  0
 16 35  1  0
 17 36  1  0
 18 37  1  0
 19 38  1  0
M  END
>  <smiles>  (28) 
O=C(NCC(=O)N1CCCC1)c1ccc2ccccc2n1

>  <score_type>  (28) 
oracle

>  <origin>  (28) 
autodockgpu

>  <m_score__min__energy>  (28) 
-7.3300000000000001

>  <m_primary>  (28) 
energy

>  <rmsd>  (28) 
3.952784593454648

>  <m_score__min__rmsd>  (28) 
3.952784593454648

>  <meeko>  (28) 
{"free_energy": -7.32, "intermolecular_energy": -8.22, "internal_energy": -0.69, "cluster_size": 23, "cluster_id": 1, "rank_in_cluster": 13}

>  <energy>  (28) 
-6.76

>  <cluster_rmsd>  (28) 
1.2

>  <cluster>  (28) 
2

$$$$

     RDKit          3D

 38 40  0  0  0  0  0  0  0  0999 V2000
  140.1400   70.9530  221.2400 O   0  0  0  0  0  0  0  0  0  0  0  0
  139.9470   71.6080  222.3150 C   0  0  0  0  0  0  0  0  0  0  0  0
  139.7370   73.0120  222.3240 N   0  0  0  0  0  0  0  0  0  0  0  0
  139.7460   73.7120  221.0610 C   0  0  0  0  0  0  0  0  0  0  0  0
  140.2000   75.0940  221.2700 C   0  0  0  0  0  0  0  0  0  0  0  0
  139.9660   75.6990  222.3500 O   0  0  0  0  0  0  0  0  0  0  0  0
  140.9180   75.8170  220.2780 N   0  0  0  0  0  0  0  0  0  0  0  0
  141.4010   77.1720  220.3960 C   0  0  0  0  0  0  0  0  0  0  0  0
  142.6110   77.1540  219.4540 C   0  0  0  0  0  0  0  0  0  0  0  0
  142.0280   76.3890  218.2890 C   0  0  0  0  0  0  0  0  0  0  0  0
  141.2740   75.2760  218.9800 C   0  0  0  0  0  0  0  0  0  0  0  0
  139.9340   70.9160  223.6060 C   0  0  0  0  0  0  0  0  0  0  0  0
  139.4430   69.6120  223.6650 C   0  0  0  0  0  0  0  0  0  0  0  0
  139.4120   68.9210  224.8590 C   0  0  0  0  0  0  0  0  0  0  0  0
  139.8660   69.5110  226.0080 C   0  0  0  0  0  0  0  0  0  0  0  0
  139.8620   68.8730  227.2400 C   0  0  0  0  0  0  0  0  0  0  0  0
  140.3410   69.5460  228.3520 C   0  0  0  0  0  0  0  0  0  0  0  0
  140.8170   70.8350  228.2490 C   0  0  0  0  0  0  0  0  0  0  0  0
  140.8170   71.4610  227.0180 C   0  0  0  0  0  0  0  0  0  0  0  0
  140.3450   70.8140  225.8930 C   0  0  0  0  0  0  0  0  0  0  0  0
  140.3710   71.4760  224.7280 N   0  0  0  0  0  0  0  0  0  0  0  0
  139.5800   73.5380  223.2030 H   0  0  0  0  0  0  0  0  0  0  0  0
  140.4287   73.2031  220.3646 H   0  0  0  0  0  0  0  0  0  0  0  0
  138.7303   73.7197  220.6388 H   0  0  0  0  0  0  0  0  0  0  0  0
  140.6444   77.8978  220.0631 H   0  0  0  0  0  0  0  0  0  0  0  0
  141.6419   77.4720  221.4265 H   0  0  0  0  0  0  0  0  0  0  0  0
  142.9164   78.1699  219.1630 H   0  0  0  0  0  0  0  0  0  0  0  0
  143.5248   76.7172  219.8832 H   0  0  0  0  0  0  0  0  0  0  0  0
  141.3504   77.0211  217.6963 H   0  0  0  0  0  0  0  0  0  0  0  0
  142.7838   76.0316  217.5741 H   0  0  0  0  0  0  0  0  0  0  0  0
  140.3712   75.0087  218.4112 H   0  0  0  0  0  0  0  0  0  0  0  0
  141.8749   74.3585  219.0641 H   0  0  0  0  0  0  0  0  0  0  0  0
  139.0757   69.1281  222.7479 H   0  0  0  0  0  0  0  0  0  0  0  0
  139.0214   67.8931  224.8877 H   0  0  0  0  0  0  0  0  0  0  0  0
  139.4828   67.8446  227.3327 H   0  0  0  0  0  0  0  0  0  0  0  0
  140.3414   69.0444  229.3310 H   0  0  0  0  0  0  0  0  0  0  0  0
  141.1935   71.3605  229.1390 H   0  0  0  0  0  0  0  0  0  0  0  0
  141.1983   72.4893  226.9324 H   0  0  0  0  0  0  0  0  0  0  0  0
  1  2  2  0
  2  3  1  0
  3  4  1  0
  4  5  1  0
  5  6  2  0
  5  7  1  0
  7  8  1  0
  8  9  1  0
  9 10  1  0
 10 11  1  0
  2 12  1  0
 12 13  2  0
 13 14  1  0
 14 15  2  0
 15 16  1  0
 16 17  2  0
 17 18  1  0
 18 19  2  0
 19 20  1  0
 20 21  2  0
 11  7  1  0
 21 12  1  0
 20 15  1  0
  3 22  1  0
  4 23  1  0
  4 24  1  0
  8 25  1  0
  8 26  1  0
  9 27  1  0
  9 28  1  0
 10 29  1  0
 10 30  1  0
 11 31  1  0
 11 32  1  0
 13 33  1  0
 14 34  1  0
 16 35  1  0
 17 36  1  0
 18 37  1  0
 19 38  1  0
M  END
>  <smiles>  (29) 
O=C(NCC(=O)N1CCCC1)c1ccc2ccccc2n1

>  <score_type>  (29) 
oracle

>  <origin>  (29) 
autodockgpu

>  <m_score__min__energy>  (29) 
-7.3300000000000001

>  <m_primary>  (29) 
energy

>  <rmsd>  (29) 
1.4773948273799609

>  <m_score__min__rmsd>  (29) 
1.4773948273799609

>  <meeko>  (29) 
{"free_energy": -6.65, "intermolecular_energy": -7.55, "internal_energy": -1.17, "cluster_size": 26, "cluster_id": 2, "rank_in_cluster": 23}

>  <energy>  (29) 
-6.76

>  <cluster_rmsd>  (29) 
1.59

>  <cluster>  (29) 
2

$$$$

     RDKit          3D

 38 40  0  0  0  0  0  0  0  0999 V2000
  139.7710   73.4410  222.4030 O   0  0  0  0  0  0  0  0  0  0  0  0
  140.3760   72.3240  222.4990 C   0  0  0  0  0  0  0  0  0  0  0  0
  141.2050   71.8170  221.4640 N   0  0  0  0  0  0  0  0  0  0  0  0
  141.3580   72.6040  220.2640 C   0  0  0  0  0  0  0  0  0  0  0  0
  142.3770   73.6400  220.4830 C   0  0  0  0  0  0  0  0  0  0  0  0
  142.0510   74.8240  220.7670 O   0  0  0  0  0  0  0  0  0  0  0  0
  143.7700   73.3700  220.3890 N   0  0  0  0  0  0  0  0  0  0  0  0
  144.8370   74.3210  220.5880 C   0  0  0  0  0  0  0  0  0  0  0  0
  145.9780   73.4130  221.0620 C   0  0  0  0  0  0  0  0  0  0  0  0
  145.8210   72.2630  220.0980 C   0  0  0  0  0  0  0  0  0  0  0  0
  144.3220   72.0660  220.0730 C   0  0  0  0  0  0  0  0  0  0  0  0
  140.2340   71.5110  223.7090 C   0  0  0  0  0  0  0  0  0  0  0  0
  139.5860   70.2800  223.6200 C   0  0  0  0  0  0  0  0  0  0  0  0
  139.4300   69.4800  224.7330 C   0  0  0  0  0  0  0  0  0  0  0  0
  139.9130   69.8880  225.9470 C   0  0  0  0  0  0  0  0  0  0  0  0
  139.7890   69.1330  227.1050 C   0  0  0  0  0  0  0  0  0  0  0  0
  140.3090   69.6230  228.2910 C   0  0  0  0  0  0  0  0  0  0  0  0
  140.9420   70.8460  228.3350 C   0  0  0  0  0  0  0  0  0  0  0  0
  141.0600   71.5900  227.1780 C   0  0  0  0  0  0  0  0  0  0  0  0
  140.5520   71.1250  225.9810 C   0  0  0  0  0  0  0  0  0  0  0  0
  140.6980   71.8940  224.8930 N   0  0  0  0  0  0  0  0  0  0  0  0
  141.6950   70.9080  221.5490 H   0  0  0  0  0  0  0  0  0  0  0  0
  141.6708   71.9517  219.4353 H   0  0  0  0  0  0  0  0  0  0  0  0
  140.3988   73.0808  220.0140 H   0  0  0  0  0  0  0  0  0  0  0  0
  145.0964   74.8347  219.6505 H   0  0  0  0  0  0  0  0  0  0  0  0
  144.5888   75.1301  221.2907 H   0  0  0  0  0  0  0  0  0  0  0  0
  146.9580   73.9016  220.9574 H   0  0  0  0  0  0  0  0  0  0  0  0
  145.9345   73.1336  222.1250 H   0  0  0  0  0  0  0  0  0  0  0  0
  146.2052   72.5238  219.1008 H   0  0  0  0  0  0  0  0  0  0  0  0
  146.3789   71.3619  220.3927 H   0  0  0  0  0  0  0  0  0  0  0  0
  143.9913   71.7366  219.0770 H   0  0  0  0  0  0  0  0  0  0  0  0
  143.9935   71.2934  220.7837 H   0  0  0  0  0  0  0  0  0  0  0  0
  139.1939   69.9420  222.6494 H   0  0  0  0  0  0  0  0  0  0  0  0
  138.9160   68.5115  224.6446 H   0  0  0  0  0  0  0  0  0  0  0  0
  139.2833   68.1564  227.0808 H   0  0  0  0  0  0  0  0  0  0  0  0
  140.2154   69.0275  229.2111 H   0  0  0  0  0  0  0  0  0  0  0  0
  141.3496   71.2262  229.2833 H   0  0  0  0  0  0  0  0  0  0  0  0
  141.5655   72.5664  227.2100 H   0  0  0  0  0  0  0  0  0  0  0  0
  1  2  2  0
  2  3  1  0
  3  4  1  0
  4  5  1  0
  5  6  2  0
  5  7  1  0
  7  8  1  0
  8  9  1  0
  9 10  1  0
 10 11  1  0
  2 12  1  0
 12 13  2  0
 13 14  1  0
 14 15  2  0
 15 16  1  0
 16 17  2  0
 17 18  1  0
 18 19  2  0
 19 20  1  0
 20 21  2  0
 11  7  1  0
 21 12  1  0
 20 15  1  0
  3 22  1  0
  4 23  1  0
  4 24  1  0
  8 25  1  0
  8 26  1  0
  9 27  1  0
  9 28  1  0
 10 29  1  0
 10 30  1  0
 11 31  1  0
 11 32  1  0
 13 33  1  0
 14 34  1  0
 16 35  1  0
 17 36  1  0
 18 37  1  0
 19 38  1  0
M  END
>  <smiles>  (30) 
O=C(NCC(=O)N1CCCC1)c1ccc2ccccc2n1

>  <score_type>  (30) 
oracle

>  <origin>  (30) 
autodockgpu

>  <m_score__min__energy>  (30) 
-7.3300000000000001

>  <m_primary>  (30) 
energy

>  <rmsd>  (30) 
3.951811387346509

>  <m_score__min__rmsd>  (30) 
3.951811387346509

>  <meeko>  (30) 
{"free_energy": -7.31, "intermolecular_energy": -8.2, "internal_energy": -0.69, "cluster_size": 23, "cluster_id": 1, "rank_in_cluster": 17}

>  <energy>  (30) 
-6.74

>  <cluster_rmsd>  (30) 
1.6

>  <cluster>  (30) 
2

$$$$

     RDKit          3D

 38 40  0  0  0  0  0  0  0  0999 V2000
  141.4070   71.6180  221.6630 O   0  0  0  0  0  0  0  0  0  0  0  0
  140.6040   71.9980  222.5750 C   0  0  0  0  0  0  0  0  0  0  0  0
  139.9330   73.2470  222.5260 N   0  0  0  0  0  0  0  0  0  0  0  0
  140.1790   74.1100  221.3950 C   0  0  0  0  0  0  0  0  0  0  0  0
  139.9600   75.5090  221.7890 C   0  0  0  0  0  0  0  0  0  0  0  0
  139.1730   75.8060  222.7270 O   0  0  0  0  0  0  0  0  0  0  0  0
  140.6170   76.5930  221.1430 N   0  0  0  0  0  0  0  0  0  0  0  0
  140.4630   77.9930  221.4630 C   0  0  0  0  0  0  0  0  0  0  0  0
  141.8170   78.5610  221.0220 C   0  0  0  0  0  0  0  0  0  0  0  0
  141.9920   77.8420  219.7060 C   0  0  0  0  0  0  0  0  0  0  0  0
  141.5540   76.4360  220.0480 C   0  0  0  0  0  0  0  0  0  0  0  0
  140.3410   71.1360  223.7300 C   0  0  0  0  0  0  0  0  0  0  0  0
  139.5900   69.9750  223.5460 C   0  0  0  0  0  0  0  0  0  0  0  0
  139.3190   69.1330  224.6050 C   0  0  0  0  0  0  0  0  0  0  0  0
  139.7850   69.4280  225.8570 C   0  0  0  0  0  0  0  0  0  0  0  0
  139.5470   68.6260  226.9640 C   0  0  0  0  0  0  0  0  0  0  0  0
  140.0580   69.0010  228.1950 C   0  0  0  0  0  0  0  0  0  0  0  0
  140.7950   70.1580  228.3320 C   0  0  0  0  0  0  0  0  0  0  0  0
  141.0260   70.9500  227.2250 C   0  0  0  0  0  0  0  0  0  0  0  0
  140.5290   70.5990  225.9850 C   0  0  0  0  0  0  0  0  0  0  0  0
  140.7870   71.4100  224.9510 N   0  0  0  0  0  0  0  0  0  0  0  0
  139.2800   73.5500  223.2720 H   0  0  0  0  0  0  0  0  0  0  0  0
  141.2177   73.9829  221.0560 H   0  0  0  0  0  0  0  0  0  0  0  0
  139.4915   73.8476  220.5774 H   0  0  0  0  0  0  0  0  0  0  0  0
  139.6348   78.4452  220.8977 H   0  0  0  0  0  0  0  0  0  0  0  0
  140.2188   78.1866  222.5179 H   0  0  0  0  0  0  0  0  0  0  0  0
  141.7771   79.6521  220.8881 H   0  0  0  0  0  0  0  0  0  0  0  0
  142.6360   78.4130  221.7413 H   0  0  0  0  0  0  0  0  0  0  0  0
  141.3532   78.2796  218.9247 H   0  0  0  0  0  0  0  0  0  0  0  0
  143.0144   77.9000  219.3043 H   0  0  0  0  0  0  0  0  0  0  0  0
  141.0642   75.9624  219.1844 H   0  0  0  0  0  0  0  0  0  0  0  0
  142.4036   75.7921  220.3192 H   0  0  0  0  0  0  0  0  0  0  0  0
  139.2091   69.7276  222.5442 H   0  0  0  0  0  0  0  0  0  0  0  0
  138.7260   68.2210  224.4420 H   0  0  0  0  0  0  0  0  0  0  0  0
  138.9585   67.7020  226.8647 H   0  0  0  0  0  0  0  0  0  0  0  0
  139.8735   68.3675  229.0751 H   0  0  0  0  0  0  0  0  0  0  0  0
  141.1955   70.4476  229.3147 H   0  0  0  0  0  0  0  0  0  0  0  0
  141.6141   71.8734  227.3320 H   0  0  0  0  0  0  0  0  0  0  0  0
  1  2  2  0
  2  3  1  0
  3  4  1  0
  4  5  1  0
  5  6  2  0
  5  7  1  0
  7  8  1  0
  8  9  1  0
  9 10  1  0
 10 11  1  0
  2 12  1  0
 12 13  2  0
 13 14  1  0
 14 15  2  0
 15 16  1  0
 16 17  2  0
 17 18  1  0
 18 19  2  0
 19 20  1  0
 20 21  2  0
 11  7  1  0
 21 12  1  0
 20 15  1  0
  3 22  1  0
  4 23  1  0
  4 24  1  0
  8 25  1  0
  8 26  1  0
  9 27  1  0
  9 28  1  0
 10 29  1  0
 10 30  1  0
 11 31  1  0
 11 32  1  0
 13 33  1  0
 14 34  1  0
 16 35  1  0
 17 36  1  0
 18 37  1  0
 19 38  1  0
M  END
>  <smiles>  (31) 
O=C(NCC(=O)N1CCCC1)c1ccc2ccccc2n1

>  <score_type>  (31) 
oracle

>  <origin>  (31) 
autodockgpu

>  <m_score__min__energy>  (31) 
-7.3300000000000001

>  <m_primary>  (31) 
energy

>  <rmsd>  (31) 
2.162197320606236

>  <m_score__min__rmsd>  (31) 
2.162197320606236

>  <meeko>  (31) 
{"free_energy": -6.78, "intermolecular_energy": -7.67, "internal_energy": -1.08, "cluster_size": 26, "cluster_id": 2, "rank_in_cluster": 4}

>  <energy>  (31) 
-6.73

>  <cluster_rmsd>  (31) 
1.22

>  <cluster>  (31) 
2

$$$$

     RDKit          3D

 38 40  0  0  0  0  0  0  0  0999 V2000
  140.1030   70.9850  221.2590 O   0  0  0  0  0  0  0  0  0  0  0  0
  139.9200   71.6360  222.3380 C   0  0  0  0  0  0  0  0  0  0  0  0
  139.7200   73.0410  222.3550 N   0  0  0  0  0  0  0  0  0  0  0  0
  139.7260   73.7460  221.0950 C   0  0  0  0  0  0  0  0  0  0  0  0
  140.3510   75.0640  221.2740 C   0  0  0  0  0  0  0  0  0  0  0  0
  140.1950   75.7190  222.3400 O   0  0  0  0  0  0  0  0  0  0  0  0
  141.1550   75.6690  220.2690 N   0  0  0  0  0  0  0  0  0  0  0  0
  141.8050   76.9550  220.3590 C   0  0  0  0  0  0  0  0  0  0  0  0
  143.0030   76.7620  219.4210 C   0  0  0  0  0  0  0  0  0  0  0  0
  142.3300   76.0510  218.2720 C   0  0  0  0  0  0  0  0  0  0  0  0
  141.4400   75.0590  218.9840 C   0  0  0  0  0  0  0  0  0  0  0  0
  139.9090   70.9380  223.6260 C   0  0  0  0  0  0  0  0  0  0  0  0
  139.4290   69.6300  223.6790 C   0  0  0  0  0  0  0  0  0  0  0  0
  139.4010   68.9340  224.8700 C   0  0  0  0  0  0  0  0  0  0  0  0
  139.8470   69.5220  226.0220 C   0  0  0  0  0  0  0  0  0  0  0  0
  139.8460   68.8790  227.2520 C   0  0  0  0  0  0  0  0  0  0  0  0
  140.3170   69.5510  228.3680 C   0  0  0  0  0  0  0  0  0  0  0  0
  140.7840   70.8440  228.2710 C   0  0  0  0  0  0  0  0  0  0  0  0
  140.7810   71.4760  227.0430 C   0  0  0  0  0  0  0  0  0  0  0  0
  140.3170   70.8290  225.9140 C   0  0  0  0  0  0  0  0  0  0  0  0
  140.3400   71.4970  224.7520 N   0  0  0  0  0  0  0  0  0  0  0  0
  139.5710   73.5640  223.2370 H   0  0  0  0  0  0  0  0  0  0  0  0
  140.2966   73.1673  220.3537 H   0  0  0  0  0  0  0  0  0  0  0  0
  138.6921   73.8754  220.7423 H   0  0  0  0  0  0  0  0  0  0  0  0
  141.1464   77.7630  220.0077 H   0  0  0  0  0  0  0  0  0  0  0  0
  142.0812   77.2459  221.3833 H   0  0  0  0  0  0  0  0  0  0  0  0
  143.4347   77.7241  219.1081 H   0  0  0  0  0  0  0  0  0  0  0  0
  143.8534   76.2224  219.8633 H   0  0  0  0  0  0  0  0  0  0  0  0
  141.7391   76.7502  217.6621 H   0  0  0  0  0  0  0  0  0  0  0  0
  143.0356   75.5842  217.5690 H   0  0  0  0  0  0  0  0  0  0  0  0
  140.5109   74.8967  218.4180 H   0  0  0  0  0  0  0  0  0  0  0  0
  141.9189   74.0744  219.0899 H   0  0  0  0  0  0  0  0  0  0  0  0
  139.0679   69.1466  222.7592 H   0  0  0  0  0  0  0  0  0  0  0  0
  139.0188   67.9028  224.8934 H   0  0  0  0  0  0  0  0  0  0  0  0
  139.4752   67.8471  227.3397 H   0  0  0  0  0  0  0  0  0  0  0  0
  140.3183   69.0457  229.3450 H   0  0  0  0  0  0  0  0  0  0  0  0
  141.1558   71.3681  229.1638 H   0  0  0  0  0  0  0  0  0  0  0  0
  141.1530   72.5081  226.9628 H   0  0  0  0  0  0  0  0  0  0  0  0
  1  2  2  0
  2  3  1  0
  3  4  1  0
  4  5  1  0
  5  6  2  0
  5  7  1  0
  7  8  1  0
  8  9  1  0
  9 10  1  0
 10 11  1  0
  2 12  1  0
 12 13  2  0
 13 14  1  0
 14 15  2  0
 15 16  1  0
 16 17  2  0
 17 18  1  0
 18 19  2  0
 19 20  1  0
 20 21  2  0
 11  7  1  0
 21 12  1  0
 20 15  1  0
  3 22  1  0
  4 23  1  0
  4 24  1  0
  8 25  1  0
  8 26  1  0
  9 27  1  0
  9 28  1  0
 10 29  1  0
 10 30  1  0
 11 31  1  0
 11 32  1  0
 13 33  1  0
 14 34  1  0
 16 35  1  0
 17 36  1  0
 18 37  1  0
 19 38  1  0
M  END
>  <smiles>  (32) 
O=C(NCC(=O)N1CCCC1)c1ccc2ccccc2n1

>  <score_type>  (32) 
oracle

>  <origin>  (32) 
autodockgpu

>  <m_score__min__energy>  (32) 
-7.3300000000000001

>  <m_primary>  (32) 
energy

>  <rmsd>  (32) 
1.5610725130273087

>  <m_score__min__rmsd>  (32) 
1.5610725130273087

>  <meeko>  (32) 
{"free_energy": -6.72, "intermolecular_energy": -7.62, "internal_energy": -1.12, "cluster_size": 26, "cluster_id": 2, "rank_in_cluster": 14}

>  <energy>  (32) 
-6.73

>  <cluster_rmsd>  (32) 
1.22

>  <cluster>  (32) 
2

$$$$

     RDKit          3D

 38 40  0  0  0  0  0  0  0  0999 V2000
  139.9460   73.4460  222.3700 O   0  0  0  0  0  0  0  0  0  0  0  0
  140.4390   72.2750  222.4630 C   0  0  0  0  0  0  0  0  0  0  0  0
  141.1760   71.6740  221.4100 N   0  0  0  0  0  0  0  0  0  0  0  0
  141.3670   72.4270  220.1930 C   0  0  0  0  0  0  0  0  0  0  0  0
  142.3360   73.5060  220.4310 C   0  0  0  0  0  0  0  0  0  0  0  0
  141.9540   74.6710  220.7220 O   0  0  0  0  0  0  0  0  0  0  0  0
  143.7400   73.3000  220.3460 N   0  0  0  0  0  0  0  0  0  0  0  0
  144.7610   74.2980  220.5630 C   0  0  0  0  0  0  0  0  0  0  0  0
  145.9380   73.4380  221.0400 C   0  0  0  0  0  0  0  0  0  0  0  0
  145.8420   72.2910  220.0640 C   0  0  0  0  0  0  0  0  0  0  0  0
  144.3540   72.0260  220.0240 C   0  0  0  0  0  0  0  0  0  0  0  0
  140.2570   71.4950  223.6890 C   0  0  0  0  0  0  0  0  0  0  0  0
  139.5700   70.2840  223.6210 C   0  0  0  0  0  0  0  0  0  0  0  0
  139.3750   69.5150  224.7500 C   0  0  0  0  0  0  0  0  0  0  0  0
  139.8580   69.9350  225.9610 C   0  0  0  0  0  0  0  0  0  0  0  0
  139.6960   69.2120  227.1330 C   0  0  0  0  0  0  0  0  0  0  0  0
  140.2180   69.7120  228.3150 C   0  0  0  0  0  0  0  0  0  0  0  0
  140.8900   70.9150  228.3380 C   0  0  0  0  0  0  0  0  0  0  0  0
  141.0460   71.6280  227.1650 C   0  0  0  0  0  0  0  0  0  0  0  0
  140.5360   71.1520  225.9730 C   0  0  0  0  0  0  0  0  0  0  0  0
  140.7190   71.8900  224.8700 N   0  0  0  0  0  0  0  0  0  0  0  0
  141.5740   70.7200  221.4930 H   0  0  0  0  0  0  0  0  0  0  0  0
  141.7471   71.7601  219.4051 H   0  0  0  0  0  0  0  0  0  0  0  0
  140.4070   72.8600  219.8755 H   0  0  0  0  0  0  0  0  0  0  0  0
  145.0050   74.8313  219.6324 H   0  0  0  0  0  0  0  0  0  0  0  0
  144.4699   75.0890  221.2698 H   0  0  0  0  0  0  0  0  0  0  0  0
  146.8957   73.9714  220.9491 H   0  0  0  0  0  0  0  0  0  0  0  0
  145.8976   73.1470  222.1000 H   0  0  0  0  0  0  0  0  0  0  0  0
  146.2222   72.5785  219.0727 H   0  0  0  0  0  0  0  0  0  0  0  0
  146.4381   71.4136  220.3553 H   0  0  0  0  0  0  0  0  0  0  0  0
  144.0473   71.6906  219.0223 H   0  0  0  0  0  0  0  0  0  0  0  0
  144.0553   71.2330  220.7254 H   0  0  0  0  0  0  0  0  0  0  0  0
  139.1779   69.9365  222.6538 H   0  0  0  0  0  0  0  0  0  0  0  0
  138.8302   68.5621  224.6773 H   0  0  0  0  0  0  0  0  0  0  0  0
  139.1590   68.2520  227.1244 H   0  0  0  0  0  0  0  0  0  0  0  0
  140.0945   69.1413  229.2472 H   0  0  0  0  0  0  0  0  0  0  0  0
  141.2986   71.3042  229.2822 H   0  0  0  0  0  0  0  0  0  0  0  0
  141.5836   72.5876  227.1806 H   0  0  0  0  0  0  0  0  0  0  0  0
  1  2  2  0
  2  3  1  0
  3  4  1  0
  4  5  1  0
  5  6  2  0
  5  7  1  0
  7  8  1  0
  8  9  1  0
  9 10  1  0
 10 11  1  0
  2 12  1  0
 12 13  2  0
 13 14  1  0
 14 15  2  0
 15 16  1  0
 16 17  2  0
 17 18  1  0
 18 19  2  0
 19 20  1  0
 20 21  2  0
 11  7  1  0
 21 12  1  0
 20 15  1  0
  3 22  1  0
  4 23  1  0
  4 24  1  0
  8 25  1  0
  8 26  1  0
  9 27  1  0
  9 28  1  0
 10 29  1  0
 10 30  1  0
 11 31  1  0
 11 32  1  0
 13 33  1  0
 14 34  1  0
 16 35  1  0
 17 36  1  0
 18 37  1  0
 19 38  1  0
M  END
>  <smiles>  (33) 
O=C(NCC(=O)N1CCCC1)c1ccc2ccccc2n1

>  <score_type>  (33) 
oracle

>  <origin>  (33) 
autodockgpu

>  <m_score__min__energy>  (33) 
-7.3300000000000001

>  <m_primary>  (33) 
energy

>  <rmsd>  (33) 
3.9582837729898914

>  <m_score__min__rmsd>  (33) 
3.9582837729898914

>  <meeko>  (33) 
{"free_energy": -7.33, "intermolecular_energy": -8.23, "internal_energy": -0.68, "cluster_size": 23, "cluster_id": 1, "rank_in_cluster": 3}

>  <energy>  (33) 
-6.73

>  <cluster_rmsd>  (33) 
1.27

>  <cluster>  (33) 
2

$$$$

     RDKit          3D

 38 40  0  0  0  0  0  0  0  0999 V2000
  139.7360   73.4260  222.3910 O   0  0  0  0  0  0  0  0  0  0  0  0
  140.3640   72.3230  222.4930 C   0  0  0  0  0  0  0  0  0  0  0  0
  141.2080   71.8300  221.4640 N   0  0  0  0  0  0  0  0  0  0  0  0
  141.3520   72.6170  220.2630 C   0  0  0  0  0  0  0  0  0  0  0  0
  142.3750   73.6510  220.4720 C   0  0  0  0  0  0  0  0  0  0  0  0
  142.0550   74.8360  220.7560 O   0  0  0  0  0  0  0  0  0  0  0  0
  143.7670   73.3760  220.3690 N   0  0  0  0  0  0  0  0  0  0  0  0
  144.8380   74.3260  220.5590 C   0  0  0  0  0  0  0  0  0  0  0  0
  145.9790   73.4160  221.0280 C   0  0  0  0  0  0  0  0  0  0  0  0
  145.8120   72.2630  220.0670 C   0  0  0  0  0  0  0  0  0  0  0  0
  144.3140   72.0700  220.0520 C   0  0  0  0  0  0  0  0  0  0  0  0
  140.2320   71.5100  223.7040 C   0  0  0  0  0  0  0  0  0  0  0  0
  139.5940   70.2730  223.6180 C   0  0  0  0  0  0  0  0  0  0  0  0
  139.4480   69.4730  224.7330 C   0  0  0  0  0  0  0  0  0  0  0  0
  139.9310   69.8870  225.9460 C   0  0  0  0  0  0  0  0  0  0  0  0
  139.8170   69.1320  227.1040 C   0  0  0  0  0  0  0  0  0  0  0  0
  140.3350   69.6280  228.2890 C   0  0  0  0  0  0  0  0  0  0  0  0
  140.9580   70.8570  228.3300 C   0  0  0  0  0  0  0  0  0  0  0  0
  141.0670   71.6000  227.1710 C   0  0  0  0  0  0  0  0  0  0  0  0
  140.5590   71.1290  225.9760 C   0  0  0  0  0  0  0  0  0  0  0  0
  140.6960   71.8980  224.8870 N   0  0  0  0  0  0  0  0  0  0  0  0
  141.7170   70.9310  221.5540 H   0  0  0  0  0  0  0  0  0  0  0  0
  141.6557   71.9641  219.4315 H   0  0  0  0  0  0  0  0  0  0  0  0
  140.3915   73.0962  220.0224 H   0  0  0  0  0  0  0  0  0  0  0  0
  145.0928   74.8367  219.6187 H   0  0  0  0  0  0  0  0  0  0  0  0
  144.5963   75.1378  221.2608 H   0  0  0  0  0  0  0  0  0  0  0  0
  146.9598   73.9013  220.9158 H   0  0  0  0  0  0  0  0  0  0  0  0
  145.9416   73.1395  222.0920 H   0  0  0  0  0  0  0  0  0  0  0  0
  146.1904   72.5203  219.0667 H   0  0  0  0  0  0  0  0  0  0  0  0
  146.3691   71.3611  220.3605 H   0  0  0  0  0  0  0  0  0  0  0  0
  143.9761   71.7394  219.0587 H   0  0  0  0  0  0  0  0  0  0  0  0
  143.9882   71.2997  220.7664 H   0  0  0  0  0  0  0  0  0  0  0  0
  139.2021   69.9305  222.6489 H   0  0  0  0  0  0  0  0  0  0  0  0
  138.9422   68.4999  224.6473 H   0  0  0  0  0  0  0  0  0  0  0  0
  139.3209   68.1505  227.0815 H   0  0  0  0  0  0  0  0  0  0  0  0
  140.2481   69.0330  229.2101 H   0  0  0  0  0  0  0  0  0  0  0  0
  141.3644   71.2422  229.2768 H   0  0  0  0  0  0  0  0  0  0  0  0
  141.5652   72.5803  227.1999 H   0  0  0  0  0  0  0  0  0  0  0  0
  1  2  2  0
  2  3  1  0
  3  4  1  0
  4  5  1  0
  5  6  2  0
  5  7  1  0
  7  8  1  0
  8  9  1  0
  9 10  1  0
 10 11  1  0
  2 12  1  0
 12 13  2  0
 13 14  1  0
 14 15  2  0
 15 16  1  0
 16 17  2  0
 17 18  1  0
 18 19  2  0
 19 20  1  0
 20 21  2  0
 11  7  1  0
 21 12  1  0
 20 15  1  0
  3 22  1  0
  4 23  1  0
  4 24  1  0
  8 25  1  0
  8 26  1  0
  9 27  1  0
  9 28  1  0
 10 29  1  0
 10 30  1  0
 11 31  1  0
 11 32  1  0
 13 33  1  0
 14 34  1  0
 16 35  1  0
 17 36  1  0
 18 37  1  0
 19 38  1  0
M  END
>  <smiles>  (34) 
O=C(NCC(=O)N1CCCC1)c1ccc2ccccc2n1

>  <score_type>  (34) 
oracle

>  <origin>  (34) 
autodockgpu

>  <m_score__min__energy>  (34) 
-7.3300000000000001

>  <m_primary>  (34) 
energy

>  <rmsd>  (34) 
3.943089625965824

>  <m_score__min__rmsd>  (34) 
3.943089625965824

>  <meeko>  (34) 
{"free_energy": -7.3, "intermolecular_energy": -8.2, "internal_energy": -0.69, "cluster_size": 23, "cluster_id": 1, "rank_in_cluster": 19}

>  <energy>  (34) 
-6.73

>  <cluster_rmsd>  (34) 
1.27

>  <cluster>  (34) 
2

$$$$

     RDKit          3D

 38 40  0  0  0  0  0  0  0  0999 V2000
  140.9240   71.2730  221.3440 O   0  0  0  0  0  0  0  0  0  0  0  0
  140.7040   72.3340  222.0130 C   0  0  0  0  0  0  0  0  0  0  0  0
  140.0960   72.3130  223.2950 N   0  0  0  0  0  0  0  0  0  0  0  0
  139.7160   71.0350  223.8490 C   0  0  0  0  0  0  0  0  0  0  0  0
  140.2860   70.8960  225.1970 C   0  0  0  0  0  0  0  0  0  0  0  0
  140.8090   71.8780  225.7870 O   0  0  0  0  0  0  0  0  0  0  0  0
  140.2780   69.6610  225.9030 N   0  0  0  0  0  0  0  0  0  0  0  0
  140.8130   69.4340  227.2250 C   0  0  0  0  0  0  0  0  0  0  0  0
  139.9440   68.2680  227.7140 C   0  0  0  0  0  0  0  0  0  0  0  0
  139.9270   67.4100  226.4720 C   0  0  0  0  0  0  0  0  0  0  0  0
  139.7180   68.4310  225.3770 C   0  0  0  0  0  0  0  0  0  0  0  0
  141.0830   73.6400  221.4680 C   0  0  0  0  0  0  0  0  0  0  0  0
  141.8800   73.6860  220.3250 C   0  0  0  0  0  0  0  0  0  0  0  0
  142.2600   74.8940  219.7760 C   0  0  0  0  0  0  0  0  0  0  0  0
  141.8570   76.0690  220.3500 C   0  0  0  0  0  0  0  0  0  0  0  0
  142.2040   77.3160  219.8500 C   0  0  0  0  0  0  0  0  0  0  0  0
  141.7510   78.4540  220.4950 C   0  0  0  0  0  0  0  0  0  0  0  0
  140.9650   78.3630  221.6240 C   0  0  0  0  0  0  0  0  0  0  0  0
  140.6240   77.1180  222.1140 C   0  0  0  0  0  0  0  0  0  0  0  0
  141.0620   75.9660  221.4900 C   0  0  0  0  0  0  0  0  0  0  0  0
  140.6990   74.7880  222.0150 N   0  0  0  0  0  0  0  0  0  0  0  0
  139.9200   73.1800  223.8340 H   0  0  0  0  0  0  0  0  0  0  0  0
  138.6193   70.9717  223.9064 H   0  0  0  0  0  0  0  0  0  0  0  0
  140.0967   70.2285  223.2051 H   0  0  0  0  0  0  0  0  0  0  0  0
  141.8758   69.1532  227.1851 H   0  0  0  0  0  0  0  0  0  0  0  0
  140.7828   70.3188  227.8778 H   0  0  0  0  0  0  0  0  0  0  0  0
  140.4051   67.7447  228.5646 H   0  0  0  0  0  0  0  0  0  0  0  0
  138.9513   68.5574  228.0891 H   0  0  0  0  0  0  0  0  0  0  0  0
  140.8807   66.8772  226.3430 H   0  0  0  0  0  0  0  0  0  0  0  0
  139.1595   66.6223  226.4917 H   0  0  0  0  0  0  0  0  0  0  0  0
  140.2434   68.1277  224.4594 H   0  0  0  0  0  0  0  0  0  0  0  0
  138.6567   68.5401  225.1091 H   0  0  0  0  0  0  0  0  0  0  0  0
  142.2101   72.7479  219.8549 H   0  0  0  0  0  0  0  0  0  0  0  0
  142.8891   74.9123  218.8738 H   0  0  0  0  0  0  0  0  0  0  0  0
  142.8322   77.3993  218.9509 H   0  0  0  0  0  0  0  0  0  0  0  0
  142.0220   79.4447  220.1012 H   0  0  0  0  0  0  0  0  0  0  0  0
  140.6127   79.2740  222.1298 H   0  0  0  0  0  0  0  0  0  0  0  0
  139.9951   77.0424  223.0133 H   0  0  0  0  0  0  0  0  0  0  0  0
  1  2  2  0
  2  3  1  0
  3  4  1  0
  4  5  1  0
  5  6  2  0
  5  7  1  0
  7  8  1  0
  8  9  1  0
  9 10  1  0
 10 11  1  0
  2 12  1  0
 12 13  2  0
 13 14  1  0
 14 15  2  0
 15 16  1  0
 16 17  2  0
 17 18  1  0
 18 19  2  0
 19 20  1  0
 20 21  2  0
 11  7  1  0
 21 12  1  0
 20 15  1  0
  3 22  1  0
  4 23  1  0
  4 24  1  0
  8 25  1  0
  8 26  1  0
  9 27  1  0
  9 28  1  0
 10 29  1  0
 10 30  1  0
 11 31  1  0
 11 32  1  0
 13 33  1  0
 14 34  1  0
 16 35  1  0
 17 36  1  0
 18 37  1  0
 19 38  1  0
M  END
>  <smiles>  (35) 
O=C(NCC(=O)N1CCCC1)c1ccc2ccccc2n1

>  <score_type>  (35) 
oracle

>  <origin>  (35) 
autodockgpu

>  <m_score__min__energy>  (35) 
-7.3300000000000001

>  <m_primary>  (35) 
energy

>  <rmsd>  (35) 
8.754808767926116

>  <m_score__min__rmsd>  (35) 
8.754808767926116

>  <meeko>  (35) 
{"free_energy": -6.63, "intermolecular_energy": -7.52, "internal_energy": -1.12, "cluster_size": 1, "cluster_id": 3, "rank_in_cluster": 1}

>  <energy>  (35) 
-6.72

>  <cluster_rmsd>  (35) 
1.6

>  <cluster>  (35) 
2

$$$$

     RDKit          3D

 38 40  0  0  0  0  0  0  0  0999 V2000
  140.1750   70.9090  221.2730 O   0  0  0  0  0  0  0  0  0  0  0  0
  139.9650   71.5690  222.3410 C   0  0  0  0  0  0  0  0  0  0  0  0
  139.7510   72.9720  222.3400 N   0  0  0  0  0  0  0  0  0  0  0  0
  139.7770   73.6650  221.0740 C   0  0  0  0  0  0  0  0  0  0  0  0
  140.2030   75.0550  221.2840 C   0  0  0  0  0  0  0  0  0  0  0  0
  139.9470   75.6590  222.3600 O   0  0  0  0  0  0  0  0  0  0  0  0
  140.9200   75.7890  220.2990 N   0  0  0  0  0  0  0  0  0  0  0  0
  141.3780   77.1530  220.4190 C   0  0  0  0  0  0  0  0  0  0  0  0
  142.5980   77.1540  219.4900 C   0  0  0  0  0  0  0  0  0  0  0  0
  142.0420   76.3770  218.3210 C   0  0  0  0  0  0  0  0  0  0  0  0
  141.3000   75.2520  219.0060 C   0  0  0  0  0  0  0  0  0  0  0  0
  139.9340   70.8840  223.6360 C   0  0  0  0  0  0  0  0  0  0  0  0
  139.4380   69.5820  223.6960 C   0  0  0  0  0  0  0  0  0  0  0  0
  139.3910   68.8980  224.8940 C   0  0  0  0  0  0  0  0  0  0  0  0
  139.8350   69.4920  226.0450 C   0  0  0  0  0  0  0  0  0  0  0  0
  139.8150   68.8600  227.2800 C   0  0  0  0  0  0  0  0  0  0  0  0
  140.2850   69.5370  228.3930 C   0  0  0  0  0  0  0  0  0  0  0  0
  140.7680   70.8230  228.2880 C   0  0  0  0  0  0  0  0  0  0  0  0
  140.7830   71.4430  227.0550 C   0  0  0  0  0  0  0  0  0  0  0  0
  140.3210   70.7920  225.9280 C   0  0  0  0  0  0  0  0  0  0  0  0
  140.3620   71.4480  224.7600 N   0  0  0  0  0  0  0  0  0  0  0  0
  139.5800   73.5030  223.2130 H   0  0  0  0  0  0  0  0  0  0  0  0
  140.4835   73.1636  220.3962 H   0  0  0  0  0  0  0  0  0  0  0  0
  138.7708   73.6536  220.6296 H   0  0  0  0  0  0  0  0  0  0  0  0
  140.6125   77.8647  220.0763 H   0  0  0  0  0  0  0  0  0  0  0  0
  141.6025   77.4595  221.4513 H   0  0  0  0  0  0  0  0  0  0  0  0
  142.8888   78.1745  219.2000 H   0  0  0  0  0  0  0  0  0  0  0  0
  143.5144   76.7339  219.9302 H   0  0  0  0  0  0  0  0  0  0  0  0
  141.3600   76.9959  217.7194 H   0  0  0  0  0  0  0  0  0  0  0  0
  142.8119   76.0316  217.6154 H   0  0  0  0  0  0  0  0  0  0  0  0
  140.4085   74.9677  218.4277 H   0  0  0  0  0  0  0  0  0  0  0  0
  141.9160   74.3454  219.0987 H   0  0  0  0  0  0  0  0  0  0  0  0
  139.0799   69.0942  222.7774 H   0  0  0  0  0  0  0  0  0  0  0  0
  138.9954   67.8720  224.9241 H   0  0  0  0  0  0  0  0  0  0  0  0
  139.4305   67.8337  227.3740 H   0  0  0  0  0  0  0  0  0  0  0  0
  140.2725   69.0410  229.3747 H   0  0  0  0  0  0  0  0  0  0  0  0
  141.1384   71.3510  229.1790 H   0  0  0  0  0  0  0  0  0  0  0  0
  141.1682   72.4697  226.9687 H   0  0  0  0  0  0  0  0  0  0  0  0
  1  2  2  0
  2  3  1  0
  3  4  1  0
  4  5  1  0
  5  6  2  0
  5  7  1  0
  7  8  1  0
  8  9  1  0
  9 10  1  0
 10 11  1  0
  2 12  1  0
 12 13  2  0
 13 14  1  0
 14 15  2  0
 15 16  1  0
 16 17  2  0
 17 18  1  0
 18 19  2  0
 19 20  1  0
 20 21  2  0
 11  7  1  0
 21 12  1  0
 20 15  1  0
  3 22  1  0
  4 23  1  0
  4 24  1  0
  8 25  1  0
  8 26  1  0
  9 27  1  0
  9 28  1  0
 10 29  1  0
 10 30  1  0
 11 31  1  0
 11 32  1  0
 13 33  1  0
 14 34  1  0
 16 35  1  0
 17 36  1  0
 18 37  1  0
 19 38  1  0
M  END
>  <smiles>  (36) 
O=C(NCC(=O)N1CCCC1)c1ccc2ccccc2n1

>  <score_type>  (36) 
oracle

>  <origin>  (36) 
autodockgpu

>  <m_score__min__energy>  (36) 
-7.3300000000000001

>  <m_primary>  (36) 
energy

>  <rmsd>  (36) 
1.4913929809254969

>  <m_score__min__rmsd>  (36) 
1.4913929809254969

>  <meeko>  (36) 
{"free_energy": -6.65, "intermolecular_energy": -7.54, "internal_energy": -1.18, "cluster_size": 26, "cluster_id": 2, "rank_in_cluster": 24}

>  <energy>  (36) 
-6.72

>  <cluster_rmsd>  (36) 
1.27

>  <cluster>  (36) 
2

$$$$

     RDKit          3D

 38 40  0  0  0  0  0  0  0  0999 V2000
  140.9650   71.2880  221.3720 O   0  0  0  0  0  0  0  0  0  0  0  0
  140.4340   71.8870  222.3620 C   0  0  0  0  0  0  0  0  0  0  0  0
  140.0120   73.2400  222.2960 N   0  0  0  0  0  0  0  0  0  0  0  0
  140.1990   73.9540  221.0550 C   0  0  0  0  0  0  0  0  0  0  0  0
  140.3010   75.3950  221.3270 C   0  0  0  0  0  0  0  0  0  0  0  0
  139.8990   75.8800  222.4180 O   0  0  0  0  0  0  0  0  0  0  0  0
  140.8500   76.3100  220.3880 N   0  0  0  0  0  0  0  0  0  0  0  0
  140.9890   77.7360  220.5710 C   0  0  0  0  0  0  0  0  0  0  0  0
  142.1930   78.0480  219.6730 C   0  0  0  0  0  0  0  0  0  0  0  0
  141.8440   77.2160  218.4630 C   0  0  0  0  0  0  0  0  0  0  0  0
  141.3610   75.9270  219.0860 C   0  0  0  0  0  0  0  0  0  0  0  0
  140.2340   71.1800  223.6290 C   0  0  0  0  0  0  0  0  0  0  0  0
  139.5650   69.9570  223.6190 C   0  0  0  0  0  0  0  0  0  0  0  0
  139.3560   69.2550  224.7890 C   0  0  0  0  0  0  0  0  0  0  0  0
  139.8050   69.7540  225.9820 C   0  0  0  0  0  0  0  0  0  0  0  0
  139.6280   69.1010  227.1920 C   0  0  0  0  0  0  0  0  0  0  0  0
  140.1160   69.6790  228.3520 C   0  0  0  0  0  0  0  0  0  0  0  0
  140.7720   70.8910  228.3170 C   0  0  0  0  0  0  0  0  0  0  0  0
  140.9440   71.5340  227.1070 C   0  0  0  0  0  0  0  0  0  0  0  0
  140.4670   70.9790  225.9350 C   0  0  0  0  0  0  0  0  0  0  0  0
  140.6650   71.6520  224.7940 N   0  0  0  0  0  0  0  0  0  0  0  0
  139.5800   73.7220  223.1050 H   0  0  0  0  0  0  0  0  0  0  0  0
  141.1223   73.6069  220.5682 H   0  0  0  0  0  0  0  0  0  0  0  0
  139.3412   73.7666  220.3923 H   0  0  0  0  0  0  0  0  0  0  0  0
  140.0892   78.2730  220.2363 H   0  0  0  0  0  0  0  0  0  0  0  0
  141.1225   78.0411  221.6194 H   0  0  0  0  0  0  0  0  0  0  0  0
  142.2524   79.1188  219.4282 H   0  0  0  0  0  0  0  0  0  0  0  0
  143.1730   77.8251  220.1201 H   0  0  0  0  0  0  0  0  0  0  0  0
  141.0511   77.6921  217.8676 H   0  0  0  0  0  0  0  0  0  0  0  0
  142.6834   77.0802  217.7652 H   0  0  0  0  0  0  0  0  0  0  0  0
  140.5649   75.4765  218.4751 H   0  0  0  0  0  0  0  0  0  0  0  0
  142.1625   75.1772  219.1600 H   0  0  0  0  0  0  0  0  0  0  0  0
  139.1990   69.5461  222.6665 H   0  0  0  0  0  0  0  0  0  0  0  0
  138.8267   68.2911  224.7626 H   0  0  0  0  0  0  0  0  0  0  0  0
  139.1054   68.1338  227.2303 H   0  0  0  0  0  0  0  0  0  0  0  0
  139.9783   69.1641  229.3143 H   0  0  0  0  0  0  0  0  0  0  0  0
  141.1550   71.3418  229.2444 H   0  0  0  0  0  0  0  0  0  0  0  0
  141.4677   72.5008  227.0758 H   0  0  0  0  0  0  0  0  0  0  0  0
  1  2  2  0
  2  3  1  0
  3  4  1  0
  4  5  1  0
  5  6  2  0
  5  7  1  0
  7  8  1  0
  8  9  1  0
  9 10  1  0
 10 11  1  0
  2 12  1  0
 12 13  2  0
 13 14  1  0
 14 15  2  0
 15 16  1  0
 16 17  2  0
 17 18  1  0
 18 19  2  0
 19 20  1  0
 20 21  2  0
 11  7  1  0
 21 12  1  0
 20 15  1  0
  3 22  1  0
  4 23  1  0
  4 24  1  0
  8 25  1  0
  8 26  1  0
  9 27  1  0
  9 28  1  0
 10 29  1  0
 10 30  1  0
 11 31  1  0
 11 32  1  0
 13 33  1  0
 14 34  1  0
 16 35  1  0
 17 36  1  0
 18 37  1  0
 19 38  1  0
M  END
>  <smiles>  (37) 
O=C(NCC(=O)N1CCCC1)c1ccc2ccccc2n1

>  <score_type>  (37) 
oracle

>  <origin>  (37) 
autodockgpu

>  <m_score__min__energy>  (37) 
-7.3300000000000001

>  <m_primary>  (37) 
energy

>  <rmsd>  (37) 
1.7322619062159306

>  <m_score__min__rmsd>  (37) 
1.7322619062159306

>  <meeko>  (37) 
{"free_energy": -6.64, "intermolecular_energy": -7.54, "internal_energy": -1.16, "cluster_size": 26, "cluster_id": 2, "rank_in_cluster": 25}

>  <energy>  (37) 
-6.72

>  <cluster_rmsd>  (37) 
1.6

>  <cluster>  (37) 
2

$$$$

     RDKit          3D

 38 40  0  0  0  0  0  0  0  0999 V2000
  139.9520   73.4530  222.3670 O   0  0  0  0  0  0  0  0  0  0  0  0
  140.4510   72.2860  222.4620 C   0  0  0  0  0  0  0  0  0  0  0  0
  141.1990   71.6900  221.4140 N   0  0  0  0  0  0  0  0  0  0  0  0
  141.3930   72.4450  220.1990 C   0  0  0  0  0  0  0  0  0  0  0  0
  142.3590   73.5260  220.4420 C   0  0  0  0  0  0  0  0  0  0  0  0
  141.9740   74.6850  220.7510 O   0  0  0  0  0  0  0  0  0  0  0  0
  143.7640   73.3280  220.3440 N   0  0  0  0  0  0  0  0  0  0  0  0
  144.7820   74.3270  220.5660 C   0  0  0  0  0  0  0  0  0  0  0  0
  145.9670   73.4670  221.0220 C   0  0  0  0  0  0  0  0  0  0  0  0
  145.8680   72.3320  220.0330 C   0  0  0  0  0  0  0  0  0  0  0  0
  144.3810   72.0610  220.0000 C   0  0  0  0  0  0  0  0  0  0  0  0
  140.2650   71.5040  223.6870 C   0  0  0  0  0  0  0  0  0  0  0  0
  139.5680   70.2980  223.6160 C   0  0  0  0  0  0  0  0  0  0  0  0
  139.3700   69.5280  224.7430 C   0  0  0  0  0  0  0  0  0  0  0  0
  139.8580   69.9400  225.9540 C   0  0  0  0  0  0  0  0  0  0  0  0
  139.6940   69.2140  227.1250 C   0  0  0  0  0  0  0  0  0  0  0  0
  140.2220   69.7070  228.3070 C   0  0  0  0  0  0  0  0  0  0  0  0
  140.9050   70.9040  228.3320 C   0  0  0  0  0  0  0  0  0  0  0  0
  141.0630   71.6190  227.1610 C   0  0  0  0  0  0  0  0  0  0  0  0
  140.5470   71.1510  225.9690 C   0  0  0  0  0  0  0  0  0  0  0  0
  140.7340   71.8910  224.8680 N   0  0  0  0  0  0  0  0  0  0  0  0
  141.6020   70.7390  221.4980 H   0  0  0  0  0  0  0  0  0  0  0  0
  141.7775   71.7800  219.4117 H   0  0  0  0  0  0  0  0  0  0  0  0
  140.4332   72.8765  219.8786 H   0  0  0  0  0  0  0  0  0  0  0  0
  145.0159   74.8737  219.6406 H   0  0  0  0  0  0  0  0  0  0  0  0
  144.4930   75.1069  221.2859 H   0  0  0  0  0  0  0  0  0  0  0  0
  146.9213   74.0061  220.9295 H   0  0  0  0  0  0  0  0  0  0  0  0
  145.9372   73.1627  222.0787 H   0  0  0  0  0  0  0  0  0  0  0  0
  146.2399   72.6332  219.0426 H   0  0  0  0  0  0  0  0  0  0  0  0
  146.4694   71.4535  220.3096 H   0  0  0  0  0  0  0  0  0  0  0  0
  144.0685   71.7381  218.9960 H   0  0  0  0  0  0  0  0  0  0  0  0
  144.0907   71.2571  220.6924 H   0  0  0  0  0  0  0  0  0  0  0  0
  139.1710   69.9565  222.6486 H   0  0  0  0  0  0  0  0  0  0  0  0
  138.8180   68.5794  224.6686 H   0  0  0  0  0  0  0  0  0  0  0  0
  139.1507   68.2576  227.1149 H   0  0  0  0  0  0  0  0  0  0  0  0
  140.0945   69.1355  229.2382 H   0  0  0  0  0  0  0  0  0  0  0  0
  141.3204   71.2863  229.2761 H   0  0  0  0  0  0  0  0  0  0  0  0
  141.6075   72.5746  227.1783 H   0  0  0  0  0  0  0  0  0  0  0  0
  1  2  2  0
  2  3  1  0
  3  4  1  0
  4  5  1  0
  5  6  2  0
  5  7  1  0
  7  8  1  0
  8  9  1  0
  9 10  1  0
 10 11  1  0
  2 12  1  0
 12 13  2  0
 13 14  1  0
 14 15  2  0
 15 16  1  0
 16 17  2  0
 17 18  1  0
 18 19  2  0
 19 20  1  0
 20 21  2  0
 11  7  1  0
 21 12  1  0
 20 15  1  0
  3 22  1  0
  4 23  1  0
  4 24  1  0
  8 25  1  0
  8 26  1  0
  9 27  1  0
  9 28  1  0
 10 29  1  0
 10 30  1  0
 11 31  1  0
 11 32  1  0
 13 33  1  0
 14 34  1  0
 16 35  1  0
 17 36  1  0
 18 37  1  0
 19 38  1  0
M  END
>  <smiles>  (38) 
O=C(NCC(=O)N1CCCC1)c1ccc2ccccc2n1

>  <score_type>  (38) 
oracle

>  <origin>  (38) 
autodockgpu

>  <m_score__min__energy>  (38) 
-7.3300000000000001

>  <m_primary>  (38) 
energy

>  <rmsd>  (38) 
3.959791030899675

>  <m_score__min__rmsd>  (38) 
3.959791030899675

>  <meeko>  (38) 
{"free_energy": -7.33, "intermolecular_energy": -8.23, "internal_energy": -0.68, "cluster_size": 23, "cluster_id": 1, "rank_in_cluster": 1}

>  <energy>  (38) 
-6.72

>  <cluster_rmsd>  (38) 
1.6

>  <cluster>  (38) 
2

$$$$

     RDKit          3D

 38 40  0  0  0  0  0  0  0  0999 V2000
  140.1130   70.9860  221.2630 O   0  0  0  0  0  0  0  0  0  0  0  0
  139.9280   71.6370  222.3420 C   0  0  0  0  0  0  0  0  0  0  0  0
  139.7210   73.0410  222.3570 N   0  0  0  0  0  0  0  0  0  0  0  0
  139.7230   73.7450  221.0970 C   0  0  0  0  0  0  0  0  0  0  0  0
  140.3390   75.0680  221.2750 C   0  0  0  0  0  0  0  0  0  0  0  0
  140.1770   75.7230  222.3390 O   0  0  0  0  0  0  0  0  0  0  0  0
  141.1420   75.6750  220.2700 N   0  0  0  0  0  0  0  0  0  0  0  0
  141.7840   76.9650  220.3590 C   0  0  0  0  0  0  0  0  0  0  0  0
  142.9840   76.7780  219.4230 C   0  0  0  0  0  0  0  0  0  0  0  0
  142.3170   76.0610  218.2750 C   0  0  0  0  0  0  0  0  0  0  0  0
  141.4320   75.0650  218.9870 C   0  0  0  0  0  0  0  0  0  0  0  0
  139.9220   70.9400  223.6300 C   0  0  0  0  0  0  0  0  0  0  0  0
  139.4480   69.6300  223.6840 C   0  0  0  0  0  0  0  0  0  0  0  0
  139.4250   68.9340  224.8760 C   0  0  0  0  0  0  0  0  0  0  0  0
  139.8700   69.5260  226.0280 C   0  0  0  0  0  0  0  0  0  0  0  0
  139.8730   68.8840  227.2570 C   0  0  0  0  0  0  0  0  0  0  0  0
  140.3420   69.5580  228.3720 C   0  0  0  0  0  0  0  0  0  0  0  0
  140.8020   70.8540  228.2740 C   0  0  0  0  0  0  0  0  0  0  0  0
  140.7950   71.4850  227.0460 C   0  0  0  0  0  0  0  0  0  0  0  0
  140.3330   70.8350  225.9170 C   0  0  0  0  0  0  0  0  0  0  0  0
  140.3510   71.5020  224.7550 N   0  0  0  0  0  0  0  0  0  0  0  0
  139.5710   73.5640  223.2390 H   0  0  0  0  0  0  0  0  0  0  0  0
  140.2980   73.1696  220.3565 H   0  0  0  0  0  0  0  0  0  0  0  0
  138.6884   73.8671  220.7439 H   0  0  0  0  0  0  0  0  0  0  0  0
  141.1209   77.7685  220.0058 H   0  0  0  0  0  0  0  0  0  0  0  0
  142.0571   77.2590  221.3832 H   0  0  0  0  0  0  0  0  0  0  0  0
  143.4100   77.7423  219.1089 H   0  0  0  0  0  0  0  0  0  0  0  0
  143.8373   76.2446  219.8672 H   0  0  0  0  0  0  0  0  0  0  0  0
  141.7228   76.7555  217.6630 H   0  0  0  0  0  0  0  0  0  0  0  0
  143.0265   75.5971  217.5740 H   0  0  0  0  0  0  0  0  0  0  0  0
  140.5046   74.8965  218.4200 H   0  0  0  0  0  0  0  0  0  0  0  0
  141.9164   74.0833  219.0950 H   0  0  0  0  0  0  0  0  0  0  0  0
  139.0877   69.1447  222.7649 H   0  0  0  0  0  0  0  0  0  0  0  0
  139.0481   67.9009  224.9006 H   0  0  0  0  0  0  0  0  0  0  0  0
  139.5068   67.8505  227.3453 H   0  0  0  0  0  0  0  0  0  0  0  0
  140.3476   69.0526  229.3490 H   0  0  0  0  0  0  0  0  0  0  0  0
  141.1713   71.3806  229.1663 H   0  0  0  0  0  0  0  0  0  0  0  0
  141.1620   72.5188  226.9650 H   0  0  0  0  0  0  0  0  0  0  0  0
  1  2  2  0
  2  3  1  0
  3  4  1  0
  4  5  1  0
  5  6  2  0
  5  7  1  0
  7  8  1  0
  8  9  1  0
  9 10  1  0
 10 11  1  0
  2 12  1  0
 12 13  2  0
 13 14  1  0
 14 15  2  0
 15 16  1  0
 16 17  2  0
 17 18  1  0
 18 19  2  0
 19 20  1  0
 20 21  2  0
 11  7  1  0
 21 12  1  0
 20 15  1  0
  3 22  1  0
  4 23  1  0
  4 24  1  0
  8 25  1  0
  8 26  1  0
  9 27  1  0
  9 28  1  0
 10 29  1  0
 10 30  1  0
 11 31  1  0
 11 32  1  0
 13 33  1  0
 14 34  1  0
 16 35  1  0
 17 36  1  0
 18 37  1  0
 19 38  1  0
M  END
>  <smiles>  (39) 
O=C(NCC(=O)N1CCCC1)c1ccc2ccccc2n1

>  <score_type>  (39) 
oracle

>  <origin>  (39) 
autodockgpu

>  <m_score__min__energy>  (39) 
-7.3300000000000001

>  <m_primary>  (39) 
energy

>  <rmsd>  (39) 
1.5581573226606003

>  <m_score__min__rmsd>  (39) 
1.5581573226606003

>  <meeko>  (39) 
{"free_energy": -6.72, "intermolecular_energy": -7.61, "internal_energy": -1.12, "cluster_size": 26, "cluster_id": 2, "rank_in_cluster": 15}

>  <energy>  (39) 
-6.72

>  <cluster_rmsd>  (39) 
1.61

>  <cluster>  (39) 
2

$$$$

     RDKit          3D

 38 40  0  0  0  0  0  0  0  0999 V2000
  140.1050   71.0210  221.2520 O   0  0  0  0  0  0  0  0  0  0  0  0
  139.9260   71.6700  222.3330 C   0  0  0  0  0  0  0  0  0  0  0  0
  139.7250   73.0750  222.3520 N   0  0  0  0  0  0  0  0  0  0  0  0
  139.7270   73.7820  221.0930 C   0  0  0  0  0  0  0  0  0  0  0  0
  140.3440   75.1040  221.2740 C   0  0  0  0  0  0  0  0  0  0  0  0
  140.1920   75.7520  222.3440 O   0  0  0  0  0  0  0  0  0  0  0  0
  141.1370   75.7180  220.2660 N   0  0  0  0  0  0  0  0  0  0  0  0
  141.7800   77.0070  220.3570 C   0  0  0  0  0  0  0  0  0  0  0  0
  142.9720   76.8270  219.4090 C   0  0  0  0  0  0  0  0  0  0  0  0
  142.2940   76.1170  218.2620 C   0  0  0  0  0  0  0  0  0  0  0  0
  141.4170   75.1150  218.9760 C   0  0  0  0  0  0  0  0  0  0  0  0
  139.9200   70.9700  223.6190 C   0  0  0  0  0  0  0  0  0  0  0  0
  139.4520   69.6580  223.6700 C   0  0  0  0  0  0  0  0  0  0  0  0
  139.4290   68.9600  224.8600 C   0  0  0  0  0  0  0  0  0  0  0  0
  139.8680   69.5510  226.0140 C   0  0  0  0  0  0  0  0  0  0  0  0
  139.8720   68.9060  227.2420 C   0  0  0  0  0  0  0  0  0  0  0  0
  140.3350   69.5800  228.3590 C   0  0  0  0  0  0  0  0  0  0  0  0
  140.7900   70.8770  228.2650 C   0  0  0  0  0  0  0  0  0  0  0  0
  140.7830   71.5110  227.0380 C   0  0  0  0  0  0  0  0  0  0  0  0
  140.3260   70.8620  225.9080 C   0  0  0  0  0  0  0  0  0  0  0  0
  140.3440   71.5310  224.7470 N   0  0  0  0  0  0  0  0  0  0  0  0
  139.5800   73.5970  223.2350 H   0  0  0  0  0  0  0  0  0  0  0  0
  140.3013   73.2079  220.3510 H   0  0  0  0  0  0  0  0  0  0  0  0
  138.6924   73.9055  220.7404 H   0  0  0  0  0  0  0  0  0  0  0  0
  141.1137   77.8126  220.0150 H   0  0  0  0  0  0  0  0  0  0  0  0
  142.0627   77.2939  221.3806 H   0  0  0  0  0  0  0  0  0  0  0  0
  143.3947   77.7936  219.0975 H   0  0  0  0  0  0  0  0  0  0  0  0
  143.8298   76.2914  219.8417 H   0  0  0  0  0  0  0  0  0  0  0  0
  141.6930   76.8152  217.6608 H   0  0  0  0  0  0  0  0  0  0  0  0
  142.9969   75.6587  217.5507 H   0  0  0  0  0  0  0  0  0  0  0  0
  140.4850   74.9479  218.4162 H   0  0  0  0  0  0  0  0  0  0  0  0
  141.9039   74.1335  219.0741 H   0  0  0  0  0  0  0  0  0  0  0  0
  139.0962   69.1726  222.7492 H   0  0  0  0  0  0  0  0  0  0  0  0
  139.0567   67.9252  224.8814 H   0  0  0  0  0  0  0  0  0  0  0  0
  139.5112   67.8703  227.3273 H   0  0  0  0  0  0  0  0  0  0  0  0
  140.3397   69.0730  229.3352 H   0  0  0  0  0  0  0  0  0  0  0  0
  141.1556   71.4030  229.1593 H   0  0  0  0  0  0  0  0  0  0  0  0
  141.1462   72.5464  226.9599 H   0  0  0  0  0  0  0  0  0  0  0  0
  1  2  2  0
  2  3  1  0
  3  4  1  0
  4  5  1  0
  5  6  2  0
  5  7  1  0
  7  8  1  0
  8  9  1  0
  9 10  1  0
 10 11  1  0
  2 12  1  0
 12 13  2  0
 13 14  1  0
 14 15  2  0
 15 16  1  0
 16 17  2  0
 17 18  1  0
 18 19  2  0
 19 20  1  0
 20 21  2  0
 11  7  1  0
 21 12  1  0
 20 15  1  0
  3 22  1  0
  4 23  1  0
  4 24  1  0
  8 25  1  0
  8 26  1  0
  9 27  1  0
  9 28  1  0
 10 29  1  0
 10 30  1  0
 11 31  1  0
 11 32  1  0
 13 33  1  0
 14 34  1  0
 16 35  1  0
 17 36  1  0
 18 37  1  0
 19 38  1  0
M  END
>  <smiles>  (40) 
O=C(NCC(=O)N1CCCC1)c1ccc2ccccc2n1

>  <score_type>  (40) 
oracle

>  <origin>  (40) 
autodockgpu

>  <m_score__min__energy>  (40) 
-7.3300000000000001

>  <m_primary>  (40) 
energy

>  <rmsd>  (40) 
1.5551277704457

>  <m_score__min__rmsd>  (40) 
1.5551277704457

>  <meeko>  (40) 
{"free_energy": -6.71, "intermolecular_energy": -7.61, "internal_energy": -1.13, "cluster_size": 26, "cluster_id": 2, "rank_in_cluster": 19}

>  <energy>  (40) 
-6.72

>  <cluster_rmsd>  (40) 
1.6

>  <cluster>  (40) 
2

$$$$

     RDKit          3D

 38 40  0  0  0  0  0  0  0  0999 V2000
  139.9530   73.4630  222.3960 O   0  0  0  0  0  0  0  0  0  0  0  0
  140.4510   72.2940  222.4750 C   0  0  0  0  0  0  0  0  0  0  0  0
  141.1860   71.7070  221.4120 N   0  0  0  0  0  0  0  0  0  0  0  0
  141.3690   72.4740  220.2030 C   0  0  0  0  0  0  0  0  0  0  0  0
  142.3410   73.5490  220.4460 C   0  0  0  0  0  0  0  0  0  0  0  0
  141.9620   74.7120  220.7480 O   0  0  0  0  0  0  0  0  0  0  0  0
  143.7450   73.3410  220.3560 N   0  0  0  0  0  0  0  0  0  0  0  0
  144.7680   74.3350  220.5780 C   0  0  0  0  0  0  0  0  0  0  0  0
  145.9450   73.4690  221.0440 C   0  0  0  0  0  0  0  0  0  0  0  0
  145.8430   72.3300  220.0590 C   0  0  0  0  0  0  0  0  0  0  0  0
  144.3550   72.0680  220.0210 C   0  0  0  0  0  0  0  0  0  0  0  0
  140.2760   71.5000  223.6930 C   0  0  0  0  0  0  0  0  0  0  0  0
  139.6050   70.2810  223.6120 C   0  0  0  0  0  0  0  0  0  0  0  0
  139.4180   69.4990  224.7330 C   0  0  0  0  0  0  0  0  0  0  0  0
  139.8930   69.9130  225.9490 C   0  0  0  0  0  0  0  0  0  0  0  0
  139.7390   69.1770  227.1140 C   0  0  0  0  0  0  0  0  0  0  0  0
  140.2520   69.6720  228.3010 C   0  0  0  0  0  0  0  0  0  0  0  0
  140.9090   70.8830  228.3370 C   0  0  0  0  0  0  0  0  0  0  0  0
  141.0570   71.6090  227.1720 C   0  0  0  0  0  0  0  0  0  0  0  0
  140.5560   71.1380  225.9740 C   0  0  0  0  0  0  0  0  0  0  0  0
  140.7320   71.8900  224.8790 N   0  0  0  0  0  0  0  0  0  0  0  0
  141.5880   70.7540  221.4830 H   0  0  0  0  0  0  0  0  0  0  0  0
  141.7424   71.8159  219.4045 H   0  0  0  0  0  0  0  0  0  0  0  0
  140.4071   72.9120  219.8981 H   0  0  0  0  0  0  0  0  0  0  0  0
  145.0100   74.8757  219.6511 H   0  0  0  0  0  0  0  0  0  0  0  0
  144.4806   75.1206  221.2923 H   0  0  0  0  0  0  0  0  0  0  0  0
  146.9035   74.0012  220.9540 H   0  0  0  0  0  0  0  0  0  0  0  0
  145.9080   73.1697  222.1019 H   0  0  0  0  0  0  0  0  0  0  0  0
  146.2208   72.6248  219.0689 H   0  0  0  0  0  0  0  0  0  0  0  0
  146.4379   71.4490  220.3418 H   0  0  0  0  0  0  0  0  0  0  0  0
  144.0446   71.7420  219.0173 H   0  0  0  0  0  0  0  0  0  0  0  0
  144.0565   71.2693  220.7159 H   0  0  0  0  0  0  0  0  0  0  0  0
  139.2192   69.9377  222.6407 H   0  0  0  0  0  0  0  0  0  0  0  0
  138.8857   68.5400  224.6499 H   0  0  0  0  0  0  0  0  0  0  0  0
  139.2148   68.2101  227.0954 H   0  0  0  0  0  0  0  0  0  0  0  0
  140.1336   69.0910  229.2275 H   0  0  0  0  0  0  0  0  0  0  0  0
  141.3119   71.2677  229.2855 H   0  0  0  0  0  0  0  0  0  0  0  0
  141.5811   72.5758  227.1982 H   0  0  0  0  0  0  0  0  0  0  0  0
  1  2  2  0
  2  3  1  0
  3  4  1  0
  4  5  1  0
  5  6  2  0
  5  7  1  0
  7  8  1  0
  8  9  1  0
  9 10  1  0
 10 11  1  0
  2 12  1  0
 12 13  2  0
 13 14  1  0
 14 15  2  0
 15 16  1  0
 16 17  2  0
 17 18  1  0
 18 19  2  0
 19 20  1  0
 20 21  2  0
 11  7  1  0
 21 12  1  0
 20 15  1  0
  3 22  1  0
  4 23  1  0
  4 24  1  0
  8 25  1  0
  8 26  1  0
  9 27  1  0
  9 28  1  0
 10 29  1  0
 10 30  1  0
 11 31  1  0
 11 32  1  0
 13 33  1  0
 14 34  1  0
 16 35  1  0
 17 36  1  0
 18 37  1  0
 19 38  1  0
M  END
>  <smiles>  (41) 
O=C(NCC(=O)N1CCCC1)c1ccc2ccccc2n1

>  <score_type>  (41) 
oracle

>  <origin>  (41) 
autodockgpu

>  <m_score__min__energy>  (41) 
-7.3300000000000001

>  <m_primary>  (41) 
energy

>  <rmsd>  (41) 
3.9481091451421038

>  <m_score__min__rmsd>  (41) 
3.9481091451421038

>  <meeko>  (41) 
{"free_energy": -7.33, "intermolecular_energy": -8.23, "internal_energy": -0.68, "cluster_size": 23, "cluster_id": 1, "rank_in_cluster": 4}

>  <energy>  (41) 
-6.71

>  <cluster_rmsd>  (41) 
1.6

>  <cluster>  (41) 
2

$$$$

     RDKit          3D

 38 40  0  0  0  0  0  0  0  0999 V2000
  139.9450   73.4600  222.3840 O   0  0  0  0  0  0  0  0  0  0  0  0
  140.4350   72.2870  222.4710 C   0  0  0  0  0  0  0  0  0  0  0  0
  141.1720   71.6910  221.4150 N   0  0  0  0  0  0  0  0  0  0  0  0
  141.3680   72.4510  220.2040 C   0  0  0  0  0  0  0  0  0  0  0  0
  142.3390   73.5260  220.4510 C   0  0  0  0  0  0  0  0  0  0  0  0
  141.9590   74.6900  220.7500 O   0  0  0  0  0  0  0  0  0  0  0  0
  143.7430   73.3180  220.3670 N   0  0  0  0  0  0  0  0  0  0  0  0
  144.7660   74.3120  220.5930 C   0  0  0  0  0  0  0  0  0  0  0  0
  145.9400   73.4460  221.0650 C   0  0  0  0  0  0  0  0  0  0  0  0
  145.8430   72.3060  220.0810 C   0  0  0  0  0  0  0  0  0  0  0  0
  144.3550   72.0450  220.0360 C   0  0  0  0  0  0  0  0  0  0  0  0
  140.2480   71.5000  223.6920 C   0  0  0  0  0  0  0  0  0  0  0  0
  139.5690   70.2840  223.6110 C   0  0  0  0  0  0  0  0  0  0  0  0
  139.3710   69.5080  224.7350 C   0  0  0  0  0  0  0  0  0  0  0  0
  139.8410   69.9250  225.9510 C   0  0  0  0  0  0  0  0  0  0  0  0
  139.6750   69.1950  227.1190 C   0  0  0  0  0  0  0  0  0  0  0  0
  140.1840   69.6920  228.3070 C   0  0  0  0  0  0  0  0  0  0  0  0
  140.8490   70.8990  228.3420 C   0  0  0  0  0  0  0  0  0  0  0  0
  141.0090   71.6190  227.1740 C   0  0  0  0  0  0  0  0  0  0  0  0
  140.5120   71.1460  225.9760 C   0  0  0  0  0  0  0  0  0  0  0  0
  140.6990   71.8920  224.8780 N   0  0  0  0  0  0  0  0  0  0  0  0
  141.5680   70.7360  221.4930 H   0  0  0  0  0  0  0  0  0  0  0  0
  141.7484   71.7882  219.4128 H   0  0  0  0  0  0  0  0  0  0  0  0
  140.4098   72.8886  219.8871 H   0  0  0  0  0  0  0  0  0  0  0  0
  145.0125   74.8518  219.6668 H   0  0  0  0  0  0  0  0  0  0  0  0
  144.4757   75.0983  221.3054 H   0  0  0  0  0  0  0  0  0  0  0  0
  146.8990   73.9779  220.9792 H   0  0  0  0  0  0  0  0  0  0  0  0
  145.8973   73.1475  222.1229 H   0  0  0  0  0  0  0  0  0  0  0  0
  146.2260   72.5994  219.0925 H   0  0  0  0  0  0  0  0  0  0  0  0
  146.4362   71.4251  220.3676 H   0  0  0  0  0  0  0  0  0  0  0  0
  144.0495   71.7183  219.0310 H   0  0  0  0  0  0  0  0  0  0  0  0
  144.0531   71.2472  220.7305 H   0  0  0  0  0  0  0  0  0  0  0  0
  139.1866   69.9393  222.6389 H   0  0  0  0  0  0  0  0  0  0  0  0
  138.8339   68.5515  224.6534 H   0  0  0  0  0  0  0  0  0  0  0  0
  139.1446   68.2315  227.1015 H   0  0  0  0  0  0  0  0  0  0  0  0
  140.0560   69.1159  229.2353 H   0  0  0  0  0  0  0  0  0  0  0  0
  141.2486   71.2853  229.2913 H   0  0  0  0  0  0  0  0  0  0  0  0
  141.5396   72.5823  227.1988 H   0  0  0  0  0  0  0  0  0  0  0  0
  1  2  2  0
  2  3  1  0
  3  4  1  0
  4  5  1  0
  5  6  2  0
  5  7  1  0
  7  8  1  0
  8  9  1  0
  9 10  1  0
 10 11  1  0
  2 12  1  0
 12 13  2  0
 13 14  1  0
 14 15  2  0
 15 16  1  0
 16 17  2  0
 17 18  1  0
 18 19  2  0
 19 20  1  0
 20 21  2  0
 11  7  1  0
 21 12  1  0
 20 15  1  0
  3 22  1  0
  4 23  1  0
  4 24  1  0
  8 25  1  0
  8 26  1  0
  9 27  1  0
  9 28  1  0
 10 29  1  0
 10 30  1  0
 11 31  1  0
 11 32  1  0
 13 33  1  0
 14 34  1  0
 16 35  1  0
 17 36  1  0
 18 37  1  0
 19 38  1  0
M  END
>  <smiles>  (42) 
O=C(NCC(=O)N1CCCC1)c1ccc2ccccc2n1

>  <score_type>  (42) 
oracle

>  <origin>  (42) 
autodockgpu

>  <m_score__min__energy>  (42) 
-7.3300000000000001

>  <m_primary>  (42) 
energy

>  <rmsd>  (42) 
3.9561450672197838

>  <m_score__min__rmsd>  (42) 
3.9561450672197838

>  <meeko>  (42) 
{"free_energy": -7.33, "intermolecular_energy": -8.23, "internal_energy": -0.68, "cluster_size": 23, "cluster_id": 1, "rank_in_cluster": 2}

>  <energy>  (42) 
-6.71

>  <cluster_rmsd>  (42) 
1.6

>  <cluster>  (42) 
2

$$$$

     RDKit          3D

 38 40  0  0  0  0  0  0  0  0999 V2000
  140.9820   71.2230  221.4910 O   0  0  0  0  0  0  0  0  0  0  0  0
  140.4400   71.7230  222.5290 C   0  0  0  0  0  0  0  0  0  0  0  0
  140.0000   73.0710  222.5830 N   0  0  0  0  0  0  0  0  0  0  0  0
  140.1810   73.8960  221.4130 C   0  0  0  0  0  0  0  0  0  0  0  0
  139.9780   75.3070  221.7710 C   0  0  0  0  0  0  0  0  0  0  0  0
  139.2180   75.6350  222.7210 O   0  0  0  0  0  0  0  0  0  0  0  0
  140.6190   76.3690  221.0740 N   0  0  0  0  0  0  0  0  0  0  0  0
  140.4790   77.7780  221.3560 C   0  0  0  0  0  0  0  0  0  0  0  0
  141.8210   78.3280  220.8590 C   0  0  0  0  0  0  0  0  0  0  0  0
  141.9560   77.5680  219.5620 C   0  0  0  0  0  0  0  0  0  0  0  0
  141.5240   76.1750  219.9580 C   0  0  0  0  0  0  0  0  0  0  0  0
  140.2470   70.9020  223.7260 C   0  0  0  0  0  0  0  0  0  0  0  0
  139.5300   69.7120  223.6180 C   0  0  0  0  0  0  0  0  0  0  0  0
  139.3250   68.9060  224.7190 C   0  0  0  0  0  0  0  0  0  0  0  0
  139.8260   69.2680  225.9410 C   0  0  0  0  0  0  0  0  0  0  0  0
  139.6560   68.5050  227.0870 C   0  0  0  0  0  0  0  0  0  0  0  0
  140.1980   68.9470  228.2810 C   0  0  0  0  0  0  0  0  0  0  0  0
  140.9010   70.1310  228.3440 C   0  0  0  0  0  0  0  0  0  0  0  0
  141.0660   70.8840  227.1980 C   0  0  0  0  0  0  0  0  0  0  0  0
  140.5350   70.4660  225.9930 C   0  0  0  0  0  0  0  0  0  0  0  0
  140.7280   71.2410  224.9180 N   0  0  0  0  0  0  0  0  0  0  0  0
  139.5590   73.4720  223.4320 H   0  0  0  0  0  0  0  0  0  0  0  0
  141.2004   73.7599  221.0228 H   0  0  0  0  0  0  0  0  0  0  0  0
  139.4512   73.6049  220.6431 H   0  0  0  0  0  0  0  0  0  0  0  0
  139.6359   78.2162  220.8019 H   0  0  0  0  0  0  0  0  0  0  0  0
  140.2667   78.0037  222.4115 H   0  0  0  0  0  0  0  0  0  0  0  0
  141.7796   79.4145  220.6923 H   0  0  0  0  0  0  0  0  0  0  0  0
  142.6601   78.2002  221.5587 H   0  0  0  0  0  0  0  0  0  0  0  0
  141.2965   77.9840  218.7861 H   0  0  0  0  0  0  0  0  0  0  0  0
  142.9670   77.6095  219.1306 H   0  0  0  0  0  0  0  0  0  0  0  0
  141.0083   75.6776  219.1233 H   0  0  0  0  0  0  0  0  0  0  0  0
  142.3789   75.5359  220.2240 H   0  0  0  0  0  0  0  0  0  0  0  0
  139.1219   69.4111  222.6418 H   0  0  0  0  0  0  0  0  0  0  0  0
  138.7573   67.9696  224.6148 H   0  0  0  0  0  0  0  0  0  0  0  0
  139.0964   67.5588  227.0470 H   0  0  0  0  0  0  0  0  0  0  0  0
  140.0660   68.3453  229.1923 H   0  0  0  0  0  0  0  0  0  0  0  0
  141.3269   70.4732  229.2987 H   0  0  0  0  0  0  0  0  0  0  0  0
  141.6274   71.8287  227.2453 H   0  0  0  0  0  0  0  0  0  0  0  0
  1  2  2  0
  2  3  1  0
  3  4  1  0
  4  5  1  0
  5  6  2  0
  5  7  1  0
  7  8  1  0
  8  9  1  0
  9 10  1  0
 10 11  1  0
  2 12  1  0
 12 13  2  0
 13 14  1  0
 14 15  2  0
 15 16  1  0
 16 17  2  0
 17 18  1  0
 18 19  2  0
 19 20  1  0
 20 21  2  0
 11  7  1  0
 21 12  1  0
 20 15  1  0
  3 22  1  0
  4 23  1  0
  4 24  1  0
  8 25  1  0
  8 26  1  0
  9 27  1  0
  9 28  1  0
 10 29  1  0
 10 30  1  0
 11 31  1  0
 11 32  1  0
 13 33  1  0
 14 34  1  0
 16 35  1  0
 17 36  1  0
 18 37  1  0
 19 38  1  0
M  END
>  <smiles>  (43) 
O=C(NCC(=O)N1CCCC1)c1ccc2ccccc2n1

>  <score_type>  (43) 
oracle

>  <origin>  (43) 
autodockgpu

>  <m_score__min__energy>  (43) 
-7.3300000000000001

>  <m_primary>  (43) 
energy

>  <rmsd>  (43) 
2.020531287581981

>  <m_score__min__rmsd>  (43) 
2.020531287581981

>  <meeko>  (43) 
{"free_energy": -6.73, "intermolecular_energy": -7.62, "internal_energy": -1.13, "cluster_size": 26, "cluster_id": 2, "rank_in_cluster": 11}

>  <energy>  (43) 
-6.71

>  <cluster_rmsd>  (43) 
1.29

>  <cluster>  (43) 
2

$$$$

     RDKit          3D

 38 40  0  0  0  0  0  0  0  0999 V2000
  140.9600   71.2140  221.4790 O   0  0  0  0  0  0  0  0  0  0  0  0
  140.4210   71.7140  222.5190 C   0  0  0  0  0  0  0  0  0  0  0  0
  139.9780   73.0610  222.5730 N   0  0  0  0  0  0  0  0  0  0  0  0
  140.1520   73.8850  221.4000 C   0  0  0  0  0  0  0  0  0  0  0  0
  139.9580   75.2970  221.7590 C   0  0  0  0  0  0  0  0  0  0  0  0
  139.1990   75.6290  222.7080 O   0  0  0  0  0  0  0  0  0  0  0  0
  140.6080   76.3550  221.0660 N   0  0  0  0  0  0  0  0  0  0  0  0
  140.4770   77.7640  221.3490 C   0  0  0  0  0  0  0  0  0  0  0  0
  141.8250   78.3050  220.8550 C   0  0  0  0  0  0  0  0  0  0  0  0
  141.9570   77.5460  219.5570 C   0  0  0  0  0  0  0  0  0  0  0  0
  141.5140   76.1560  219.9510 C   0  0  0  0  0  0  0  0  0  0  0  0
  140.2350   70.8940  223.7180 C   0  0  0  0  0  0  0  0  0  0  0  0
  139.5330   69.6940  223.6110 C   0  0  0  0  0  0  0  0  0  0  0  0
  139.3350   68.8890  224.7140 C   0  0  0  0  0  0  0  0  0  0  0  0
  139.8280   69.2610  225.9360 C   0  0  0  0  0  0  0  0  0  0  0  0
  139.6630   68.5000  227.0840 C   0  0  0  0  0  0  0  0  0  0  0  0
  140.1960   68.9530  228.2790 C   0  0  0  0  0  0  0  0  0  0  0  0
  140.8830   70.1460  228.3410 C   0  0  0  0  0  0  0  0  0  0  0  0
  141.0410   70.8970  227.1930 C   0  0  0  0  0  0  0  0  0  0  0  0
  140.5210   70.4690  225.9880 C   0  0  0  0  0  0  0  0  0  0  0  0
  140.7070   71.2430  224.9100 N   0  0  0  0  0  0  0  0  0  0  0  0
  139.5390   73.4620  223.4230 H   0  0  0  0  0  0  0  0  0  0  0  0
  141.1673   73.7445  221.0007 H   0  0  0  0  0  0  0  0  0  0  0  0
  139.4142   73.5964  220.6368 H   0  0  0  0  0  0  0  0  0  0  0  0
  139.6382   78.2086  220.7934 H   0  0  0  0  0  0  0  0  0  0  0  0
  140.2637   77.9904  222.4041 H   0  0  0  0  0  0  0  0  0  0  0  0
  141.7921   79.3920  220.6899 H   0  0  0  0  0  0  0  0  0  0  0  0
  142.6617   78.1697  221.5561 H   0  0  0  0  0  0  0  0  0  0  0  0
  141.3021   77.9678  218.7804 H   0  0  0  0  0  0  0  0  0  0  0  0
  142.9689   77.5808  219.1271 H   0  0  0  0  0  0  0  0  0  0  0  0
  140.9963   75.6633  219.1148 H   0  0  0  0  0  0  0  0  0  0  0  0
  142.3639   75.5107  220.2181 H   0  0  0  0  0  0  0  0  0  0  0  0
  139.1318   69.3851  222.6345 H   0  0  0  0  0  0  0  0  0  0  0  0
  138.7793   67.9453  224.6113 H   0  0  0  0  0  0  0  0  0  0  0  0
  139.1147   67.5471  227.0454 H   0  0  0  0  0  0  0  0  0  0  0  0
  140.0693   68.3522  229.1917 H   0  0  0  0  0  0  0  0  0  0  0  0
  141.3015   70.4967  229.2959 H   0  0  0  0  0  0  0  0  0  0  0  0
  141.5889   71.8497  227.2394 H   0  0  0  0  0  0  0  0  0  0  0  0
  1  2  2  0
  2  3  1  0
  3  4  1  0
  4  5  1  0
  5  6  2  0
  5  7  1  0
  7  8  1  0
  8  9  1  0
  9 10  1  0
 10 11  1  0
  2 12  1  0
 12 13  2  0
 13 14  1  0
 14 15  2  0
 15 16  1  0
 16 17  2  0
 17 18  1  0
 18 19  2  0
 19 20  1  0
 20 21  2  0
 11  7  1  0
 21 12  1  0
 20 15  1  0
  3 22  1  0
  4 23  1  0
  4 24  1  0
  8 25  1  0
  8 26  1  0
  9 27  1  0
  9 28  1  0
 10 29  1  0
 10 30  1  0
 11 31  1  0
 11 32  1  0
 13 33  1  0
 14 34  1  0
 16 35  1  0
 17 36  1  0
 18 37  1  0
 19 38  1  0
M  END
>  <smiles>  (44) 
O=C(NCC(=O)N1CCCC1)c1ccc2ccccc2n1

>  <score_type>  (44) 
oracle

>  <origin>  (44) 
autodockgpu

>  <m_score__min__energy>  (44) 
-7.3300000000000001

>  <m_primary>  (44) 
energy

>  <rmsd>  (44) 
2.005795130240675

>  <m_score__min__rmsd>  (44) 
2.005795130240675

>  <meeko>  (44) 
{"free_energy": -6.73, "intermolecular_energy": -7.62, "internal_energy": -1.12, "cluster_size": 26, "cluster_id": 2, "rank_in_cluster": 10}

>  <energy>  (44) 
-6.71

>  <cluster_rmsd>  (44) 
1.6

>  <cluster>  (44) 
2

$$$$

     RDKit          3D

 38 40  0  0  0  0  0  0  0  0999 V2000
  141.1140   71.4260  221.5280 O   0  0  0  0  0  0  0  0  0  0  0  0
  140.4860   71.8900  222.5340 C   0  0  0  0  0  0  0  0  0  0  0  0
  139.9710   73.2120  222.5660 N   0  0  0  0  0  0  0  0  0  0  0  0
  140.1720   74.0520  221.4090 C   0  0  0  0  0  0  0  0  0  0  0  0
  139.9670   75.4580  221.7820 C   0  0  0  0  0  0  0  0  0  0  0  0
  139.1960   75.7750  222.7260 O   0  0  0  0  0  0  0  0  0  0  0  0
  140.6170   76.5280  221.1060 N   0  0  0  0  0  0  0  0  0  0  0  0
  140.4760   77.9330  221.4040 C   0  0  0  0  0  0  0  0  0  0  0  0
  141.8250   78.4880  220.9300 C   0  0  0  0  0  0  0  0  0  0  0  0
  141.9750   77.7440  219.6250 C   0  0  0  0  0  0  0  0  0  0  0  0
  141.5370   76.3460  219.9990 C   0  0  0  0  0  0  0  0  0  0  0  0
  140.2710   71.0540  223.7170 C   0  0  0  0  0  0  0  0  0  0  0  0
  139.5730   69.8560  223.5760 C   0  0  0  0  0  0  0  0  0  0  0  0
  139.3480   69.0350  224.6630 C   0  0  0  0  0  0  0  0  0  0  0  0
  139.8100   69.3910  225.9020 C   0  0  0  0  0  0  0  0  0  0  0  0
  139.6180   68.6130  227.0350 C   0  0  0  0  0  0  0  0  0  0  0  0
  140.1210   69.0500  228.2490 C   0  0  0  0  0  0  0  0  0  0  0  0
  140.8060   70.2420  228.3440 C   0  0  0  0  0  0  0  0  0  0  0  0
  140.9920   71.0090  227.2110 C   0  0  0  0  0  0  0  0  0  0  0  0
  140.5010   70.5970  225.9870 C   0  0  0  0  0  0  0  0  0  0  0  0
  140.7140   71.3860  224.9250 N   0  0  0  0  0  0  0  0  0  0  0  0
  139.4610   73.5840  223.3890 H   0  0  0  0  0  0  0  0  0  0  0  0
  141.1969   73.9184  221.0327 H   0  0  0  0  0  0  0  0  0  0  0  0
  139.4535   73.7727  220.6243 H   0  0  0  0  0  0  0  0  0  0  0  0
  139.6401   78.3795  220.8455 H   0  0  0  0  0  0  0  0  0  0  0  0
  140.2518   78.1453  222.4598 H   0  0  0  0  0  0  0  0  0  0  0  0
  141.7866   79.5766  220.7765 H   0  0  0  0  0  0  0  0  0  0  0  0
  142.6555   78.3505  221.6381 H   0  0  0  0  0  0  0  0  0  0  0  0
  141.3252   78.1702  218.8465 H   0  0  0  0  0  0  0  0  0  0  0  0
  142.9910   77.7900  219.2060 H   0  0  0  0  0  0  0  0  0  0  0  0
  141.0320   75.8588  219.1519 H   0  0  0  0  0  0  0  0  0  0  0  0
  142.3879   75.7031  220.2684 H   0  0  0  0  0  0  0  0  0  0  0  0
  139.1964   69.5606  222.5856 H   0  0  0  0  0  0  0  0  0  0  0  0
  138.7961   68.0923  224.5334 H   0  0  0  0  0  0  0  0  0  0  0  0
  139.0725   67.6600  226.9695 H   0  0  0  0  0  0  0  0  0  0  0  0
  139.9717   68.4371  229.1501 H   0  0  0  0  0  0  0  0  0  0  0  0
  141.2010   70.5794  229.3136 H   0  0  0  0  0  0  0  0  0  0  0  0
  141.5385   71.9609  227.2839 H   0  0  0  0  0  0  0  0  0  0  0  0
  1  2  2  0
  2  3  1  0
  3  4  1  0
  4  5  1  0
  5  6  2  0
  5  7  1  0
  7  8  1  0
  8  9  1  0
  9 10  1  0
 10 11  1  0
  2 12  1  0
 12 13  2  0
 13 14  1  0
 14 15  2  0
 15 16  1  0
 16 17  2  0
 17 18  1  0
 18 19  2  0
 19 20  1  0
 20 21  2  0
 11  7  1  0
 21 12  1  0
 20 15  1  0
  3 22  1  0
  4 23  1  0
  4 24  1  0
  8 25  1  0
  8 26  1  0
  9 27  1  0
  9 28  1  0
 10 29  1  0
 10 30  1  0
 11 31  1  0
 11 32  1  0
 13 33  1  0
 14 34  1  0
 16 35  1  0
 17 36  1  0
 18 37  1  0
 19 38  1  0
M  END
>  <smiles>  (45) 
O=C(NCC(=O)N1CCCC1)c1ccc2ccccc2n1

>  <score_type>  (45) 
oracle

>  <origin>  (45) 
autodockgpu

>  <m_score__min__energy>  (45) 
-7.3300000000000001

>  <m_primary>  (45) 
energy

>  <rmsd>  (45) 
2.090660098706996

>  <m_score__min__rmsd>  (45) 
2.090660098706996

>  <meeko>  (45) 
{"free_energy": -6.73, "intermolecular_energy": -7.63, "internal_energy": -1.13, "cluster_size": 26, "cluster_id": 2, "rank_in_cluster": 8}

>  <energy>  (45) 
-6.71

>  <cluster_rmsd>  (45) 
1.6

>  <cluster>  (45) 
2

$$$$

     RDKit          3D

 38 40  0  0  0  0  0  0  0  0999 V2000
  140.1420   70.9880  221.2530 O   0  0  0  0  0  0  0  0  0  0  0  0
  139.9430   71.6420  222.3280 C   0  0  0  0  0  0  0  0  0  0  0  0
  139.7320   73.0450  222.3370 N   0  0  0  0  0  0  0  0  0  0  0  0
  139.7480   73.7470  221.0750 C   0  0  0  0  0  0  0  0  0  0  0  0
  140.3430   75.0770  221.2610 C   0  0  0  0  0  0  0  0  0  0  0  0
  140.1740   75.7230  222.3290 O   0  0  0  0  0  0  0  0  0  0  0  0
  141.1340   75.7040  220.2580 N   0  0  0  0  0  0  0  0  0  0  0  0
  141.7560   77.0030  220.3540 C   0  0  0  0  0  0  0  0  0  0  0  0
  142.9570   76.8420  219.4150 C   0  0  0  0  0  0  0  0  0  0  0  0
  142.2990   76.1220  218.2620 C   0  0  0  0  0  0  0  0  0  0  0  0
  141.4320   75.1070  218.9700 C   0  0  0  0  0  0  0  0  0  0  0  0
  139.9230   70.9490  223.6180 C   0  0  0  0  0  0  0  0  0  0  0  0
  139.4310   69.6450  223.6730 C   0  0  0  0  0  0  0  0  0  0  0  0
  139.3940   68.9530  224.8660 C   0  0  0  0  0  0  0  0  0  0  0  0
  139.8420   69.5410  226.0180 C   0  0  0  0  0  0  0  0  0  0  0  0
  139.8320   68.9020  227.2500 C   0  0  0  0  0  0  0  0  0  0  0  0
  140.3050   69.5730  228.3650 C   0  0  0  0  0  0  0  0  0  0  0  0
  140.7820   70.8630  228.2650 C   0  0  0  0  0  0  0  0  0  0  0  0
  140.7880   71.4900  227.0350 C   0  0  0  0  0  0  0  0  0  0  0  0
  140.3220   70.8440  225.9070 C   0  0  0  0  0  0  0  0  0  0  0  0
  140.3540   71.5070  224.7430 N   0  0  0  0  0  0  0  0  0  0  0  0
  139.5700   73.5710  223.2150 H   0  0  0  0  0  0  0  0  0  0  0  0
  140.3438   73.1776  220.3464 H   0  0  0  0  0  0  0  0  0  0  0  0
  138.7185   73.8551  220.7029 H   0  0  0  0  0  0  0  0  0  0  0  0
  141.0796   77.7982  220.0073 H   0  0  0  0  0  0  0  0  0  0  0  0
  142.0267   77.2940  221.3797 H   0  0  0  0  0  0  0  0  0  0  0  0
  143.3670   77.8152  219.1071 H   0  0  0  0  0  0  0  0  0  0  0  0
  143.8195   76.3192  219.8540 H   0  0  0  0  0  0  0  0  0  0  0  0
  141.6922   76.8110  217.6561 H   0  0  0  0  0  0  0  0  0  0  0  0
  143.0140   75.6748  217.5558 H   0  0  0  0  0  0  0  0  0  0  0  0
  140.5064   74.9265  218.4037 H   0  0  0  0  0  0  0  0  0  0  0  0
  141.9333   74.1331  219.0711 H   0  0  0  0  0  0  0  0  0  0  0  0
  139.0679   69.1623  222.7537 H   0  0  0  0  0  0  0  0  0  0  0  0
  139.0031   67.9251  224.8915 H   0  0  0  0  0  0  0  0  0  0  0  0
  139.4524   67.8735  227.3397 H   0  0  0  0  0  0  0  0  0  0  0  0
  140.3002   69.0704  229.3435 H   0  0  0  0  0  0  0  0  0  0  0  0
  141.1544   71.3877  229.1572 H   0  0  0  0  0  0  0  0  0  0  0  0
  141.1693   72.5185  226.9524 H   0  0  0  0  0  0  0  0  0  0  0  0
  1  2  2  0
  2  3  1  0
  3  4  1  0
  4  5  1  0
  5  6  2  0
  5  7  1  0
  7  8  1  0
  8  9  1  0
  9 10  1  0
 10 11  1  0
  2 12  1  0
 12 13  2  0
 13 14  1  0
 14 15  2  0
 15 16  1  0
 16 17  2  0
 17 18  1  0
 18 19  2  0
 19 20  1  0
 20 21  2  0
 11  7  1  0
 21 12  1  0
 20 15  1  0
  3 22  1  0
  4 23  1  0
  4 24  1  0
  8 25  1  0
  8 26  1  0
  9 27  1  0
  9 28  1  0
 10 29  1  0
 10 30  1  0
 11 31  1  0
 11 32  1  0
 13 33  1  0
 14 34  1  0
 16 35  1  0
 17 36  1  0
 18 37  1  0
 19 38  1  0
M  END
>  <smiles>  (46) 
O=C(NCC(=O)N1CCCC1)c1ccc2ccccc2n1

>  <score_type>  (46) 
oracle

>  <origin>  (46) 
autodockgpu

>  <m_score__min__energy>  (46) 
-7.3300000000000001

>  <m_primary>  (46) 
energy

>  <rmsd>  (46) 
1.5556550900347685

>  <m_score__min__rmsd>  (46) 
1.5556550900347685

>  <meeko>  (46) 
{"free_energy": -6.71, "intermolecular_energy": -7.61, "internal_energy": -1.14, "cluster_size": 26, "cluster_id": 2, "rank_in_cluster": 21}

>  <energy>  (46) 
-6.65

>  <cluster_rmsd>  (46) 
1.56

>  <cluster>  (46) 
2

$$$$

     RDKit          3D

 38 40  0  0  0  0  0  0  0  0999 V2000
  141.4660   71.6530  221.6920 O   0  0  0  0  0  0  0  0  0  0  0  0
  140.6310   72.0160  222.5820 C   0  0  0  0  0  0  0  0  0  0  0  0
  139.9370   73.2520  222.5150 N   0  0  0  0  0  0  0  0  0  0  0  0
  140.1960   74.1210  221.3910 C   0  0  0  0  0  0  0  0  0  0  0  0
  139.9700   75.5170  221.7880 C   0  0  0  0  0  0  0  0  0  0  0  0
  139.1730   75.8090  222.7190 O   0  0  0  0  0  0  0  0  0  0  0  0
  140.6290   76.6060  221.1530 N   0  0  0  0  0  0  0  0  0  0  0  0
  140.4690   78.0030  221.4760 C   0  0  0  0  0  0  0  0  0  0  0  0
  141.8260   78.5780  221.0490 C   0  0  0  0  0  0  0  0  0  0  0  0
  142.0150   77.8630  219.7330 C   0  0  0  0  0  0  0  0  0  0  0  0
  141.5780   76.4550  220.0660 C   0  0  0  0  0  0  0  0  0  0  0  0
  140.3540   71.1490  223.7300 C   0  0  0  0  0  0  0  0  0  0  0  0
  139.5940   69.9970  223.5350 C   0  0  0  0  0  0  0  0  0  0  0  0
  139.3090   69.1500  224.5860 C   0  0  0  0  0  0  0  0  0  0  0  0
  139.7730   69.4320  225.8430 C   0  0  0  0  0  0  0  0  0  0  0  0
  139.5220   68.6240  226.9420 C   0  0  0  0  0  0  0  0  0  0  0  0
  140.0320   68.9860  228.1780 C   0  0  0  0  0  0  0  0  0  0  0  0
  140.7790   70.1340  228.3270 C   0  0  0  0  0  0  0  0  0  0  0  0
  141.0230   70.9320  227.2270 C   0  0  0  0  0  0  0  0  0  0  0  0
  140.5280   70.5940  225.9820 C   0  0  0  0  0  0  0  0  0  0  0  0
  140.7980   71.4100  224.9540 N   0  0  0  0  0  0  0  0  0  0  0  0
  139.2590   73.5420  223.2430 H   0  0  0  0  0  0  0  0  0  0  0  0
  141.2391   73.9971  221.0647 H   0  0  0  0  0  0  0  0  0  0  0  0
  139.5192   73.8613  220.5637 H   0  0  0  0  0  0  0  0  0  0  0  0
  139.6444   78.4548  220.9050 H   0  0  0  0  0  0  0  0  0  0  0  0
  140.2155   78.1917  222.5296 H   0  0  0  0  0  0  0  0  0  0  0  0
  141.7832   79.6693  220.9176 H   0  0  0  0  0  0  0  0  0  0  0  0
  142.6390   78.4316  221.7753 H   0  0  0  0  0  0  0  0  0  0  0  0
  141.3823   78.3012  218.9471 H   0  0  0  0  0  0  0  0  0  0  0  0
  143.0411   77.9248  219.3414 H   0  0  0  0  0  0  0  0  0  0  0  0
  141.0982   75.9827  219.1961 H   0  0  0  0  0  0  0  0  0  0  0  0
  142.4268   75.8127  220.3435 H   0  0  0  0  0  0  0  0  0  0  0  0
  139.2163   69.7600  222.5294 H   0  0  0  0  0  0  0  0  0  0  0  0
  138.7073   68.2455  224.4137 H   0  0  0  0  0  0  0  0  0  0  0  0
  138.9250   67.7065  226.8334 H   0  0  0  0  0  0  0  0  0  0  0  0
  139.8378   68.3480  229.0528 H   0  0  0  0  0  0  0  0  0  0  0  0
  141.1776   70.4124  229.3137 H   0  0  0  0  0  0  0  0  0  0  0  0
  141.6193   71.8490  227.3433 H   0  0  0  0  0  0  0  0  0  0  0  0
  1  2  2  0
  2  3  1  0
  3  4  1  0
  4  5  1  0
  5  6  2  0
  5  7  1  0
  7  8  1  0
  8  9  1  0
  9 10  1  0
 10 11  1  0
  2 12  1  0
 12 13  2  0
 13 14  1  0
 14 15  2  0
 15 16  1  0
 16 17  2  0
 17 18  1  0
 18 19  2  0
 19 20  1  0
 20 21  2  0
 11  7  1  0
 21 12  1  0
 20 15  1  0
  3 22  1  0
  4 23  1  0
  4 24  1  0
  8 25  1  0
  8 26  1  0
  9 27  1  0
  9 28  1  0
 10 29  1  0
 10 30  1  0
 11 31  1  0
 11 32  1  0
 13 33  1  0
 14 34  1  0
 16 35  1  0
 17 36  1  0
 18 37  1  0
 19 38  1  0
M  END
>  <smiles>  (47) 
O=C(NCC(=O)N1CCCC1)c1ccc2ccccc2n1

>  <score_type>  (47) 
oracle

>  <origin>  (47) 
autodockgpu

>  <m_score__min__energy>  (47) 
-7.3300000000000001

>  <m_primary>  (47) 
energy

>  <rmsd>  (47) 
2.1845236046252263

>  <m_score__min__rmsd>  (47) 
2.1845236046252263

>  <meeko>  (47) 
{"free_energy": -6.78, "intermolecular_energy": -7.67, "internal_energy": -1.06, "cluster_size": 26, "cluster_id": 2, "rank_in_cluster": 3}

>  <energy>  (47) 
-6.65

>  <cluster_rmsd>  (47) 
1.56

>  <cluster>  (47) 
2

$$$$

     RDKit          3D

 38 40  0  0  0  0  0  0  0  0999 V2000
  141.1040   71.4330  221.5210 O   0  0  0  0  0  0  0  0  0  0  0  0
  140.4790   71.8990  222.5270 C   0  0  0  0  0  0  0  0  0  0  0  0
  139.9660   73.2220  222.5590 N   0  0  0  0  0  0  0  0  0  0  0  0
  140.1680   74.0610  221.4010 C   0  0  0  0  0  0  0  0  0  0  0  0
  139.9600   75.4670  221.7720 C   0  0  0  0  0  0  0  0  0  0  0  0
  139.1890   75.7840  222.7170 O   0  0  0  0  0  0  0  0  0  0  0  0
  140.6080   76.5370  221.0940 N   0  0  0  0  0  0  0  0  0  0  0  0
  140.4640   77.9430  221.3900 C   0  0  0  0  0  0  0  0  0  0  0  0
  141.8120   78.4990  220.9140 C   0  0  0  0  0  0  0  0  0  0  0  0
  141.9620   77.7530  219.6110 C   0  0  0  0  0  0  0  0  0  0  0  0
  141.5270   76.3560  219.9860 C   0  0  0  0  0  0  0  0  0  0  0  0
  140.2630   71.0640  223.7110 C   0  0  0  0  0  0  0  0  0  0  0  0
  139.5710   69.8620  223.5700 C   0  0  0  0  0  0  0  0  0  0  0  0
  139.3450   69.0430  224.6570 C   0  0  0  0  0  0  0  0  0  0  0  0
  139.8010   69.4030  225.8970 C   0  0  0  0  0  0  0  0  0  0  0  0
  139.6080   68.6260  227.0300 C   0  0  0  0  0  0  0  0  0  0  0  0
  140.1040   69.0670  228.2450 C   0  0  0  0  0  0  0  0  0  0  0  0
  140.7830   70.2630  228.3410 C   0  0  0  0  0  0  0  0  0  0  0  0
  140.9710   71.0280  227.2070 C   0  0  0  0  0  0  0  0  0  0  0  0
  140.4860   70.6120  225.9820 C   0  0  0  0  0  0  0  0  0  0  0  0
  140.7000   71.4000  224.9200 N   0  0  0  0  0  0  0  0  0  0  0  0
  139.4580   73.5950  223.3820 H   0  0  0  0  0  0  0  0  0  0  0  0
  141.1939   73.9285  221.0268 H   0  0  0  0  0  0  0  0  0  0  0  0
  139.4516   73.7796  220.6152 H   0  0  0  0  0  0  0  0  0  0  0  0
  139.6270   78.3870  220.8312 H   0  0  0  0  0  0  0  0  0  0  0  0
  140.2396   78.1571  222.4454 H   0  0  0  0  0  0  0  0  0  0  0  0
  141.7720   79.5872  220.7584 H   0  0  0  0  0  0  0  0  0  0  0  0
  142.6432   78.3641  221.6218 H   0  0  0  0  0  0  0  0  0  0  0  0
  141.3110   78.1771  218.8323 H   0  0  0  0  0  0  0  0  0  0  0  0
  142.9780   77.7997  219.1919 H   0  0  0  0  0  0  0  0  0  0  0  0
  141.0218   75.8675  219.1397 H   0  0  0  0  0  0  0  0  0  0  0  0
  142.3793   75.7146  220.2549 H   0  0  0  0  0  0  0  0  0  0  0  0
  139.2002   69.5625  222.5787 H   0  0  0  0  0  0  0  0  0  0  0  0
  138.7970   68.0981  224.5272 H   0  0  0  0  0  0  0  0  0  0  0  0
  139.0671   67.6705  226.9637 H   0  0  0  0  0  0  0  0  0  0  0  0
  139.9542   68.4546  229.1464 H   0  0  0  0  0  0  0  0  0  0  0  0
  141.1713   70.6046  229.3118 H   0  0  0  0  0  0  0  0  0  0  0  0
  141.5143   71.9817  227.2799 H   0  0  0  0  0  0  0  0  0  0  0  0
  1  2  2  0
  2  3  1  0
  3  4  1  0
  4  5  1  0
  5  6  2  0
  5  7  1  0
  7  8  1  0
  8  9  1  0
  9 10  1  0
 10 11  1  0
  2 12  1  0
 12 13  2  0
 13 14  1  0
 14 15  2  0
 15 16  1  0
 16 17  2  0
 17 18  1  0
 18 19  2  0
 19 20  1  0
 20 21  2  0
 11  7  1  0
 21 12  1  0
 20 15  1  0
  3 22  1  0
  4 23  1  0
  4 24  1  0
  8 25  1  0
  8 26  1  0
  9 27  1  0
  9 28  1  0
 10 29  1  0
 10 30  1  0
 11 31  1  0
 11 32  1  0
 13 33  1  0
 14 34  1  0
 16 35  1  0
 17 36  1  0
 18 37  1  0
 19 38  1  0
M  END
>  <smiles>  (48) 
O=C(NCC(=O)N1CCCC1)c1ccc2ccccc2n1

>  <score_type>  (48) 
oracle

>  <origin>  (48) 
autodockgpu

>  <m_score__min__energy>  (48) 
-7.3300000000000001

>  <m_primary>  (48) 
energy

>  <rmsd>  (48) 
2.085428608899113

>  <m_score__min__rmsd>  (48) 
2.085428608899113

>  <meeko>  (48) 
{"free_energy": -6.73, "intermolecular_energy": -7.63, "internal_energy": -1.13, "cluster_size": 26, "cluster_id": 2, "rank_in_cluster": 9}

>  <energy>  (48) 
-6.64

>  <cluster_rmsd>  (48) 
1.45

>  <cluster>  (48) 
2

$$$$

     RDKit          3D

 38 40  0  0  0  0  0  0  0  0999 V2000
  139.8700   73.4530  222.3770 O   0  0  0  0  0  0  0  0  0  0  0  0
  140.4280   72.3120  222.4770 C   0  0  0  0  0  0  0  0  0  0  0  0
  141.2310   71.7650  221.4430 N   0  0  0  0  0  0  0  0  0  0  0  0
  141.4150   72.5400  220.2380 C   0  0  0  0  0  0  0  0  0  0  0  0
  142.4100   73.5950  220.4800 C   0  0  0  0  0  0  0  0  0  0  0  0
  142.0560   74.7660  220.7800 O   0  0  0  0  0  0  0  0  0  0  0  0
  143.8090   73.3560  220.3910 N   0  0  0  0  0  0  0  0  0  0  0  0
  144.8540   74.3280  220.6110 C   0  0  0  0  0  0  0  0  0  0  0  0
  146.0110   73.4380  221.0790 C   0  0  0  0  0  0  0  0  0  0  0  0
  145.8850   72.2990  220.0960 C   0  0  0  0  0  0  0  0  0  0  0  0
  144.3920   72.0700  220.0580 C   0  0  0  0  0  0  0  0  0  0  0  0
  140.2550   71.5110  223.6910 C   0  0  0  0  0  0  0  0  0  0  0  0
  139.5720   70.2990  223.6050 C   0  0  0  0  0  0  0  0  0  0  0  0
  139.3850   69.5100  224.7220 C   0  0  0  0  0  0  0  0  0  0  0  0
  139.8720   69.9120  225.9370 C   0  0  0  0  0  0  0  0  0  0  0  0
  139.7190   69.1680  227.0980 C   0  0  0  0  0  0  0  0  0  0  0  0
  140.2440   69.6500  228.2850 C   0  0  0  0  0  0  0  0  0  0  0  0
  140.9130   70.8550  228.3260 C   0  0  0  0  0  0  0  0  0  0  0  0
  141.0600   71.5880  227.1650 C   0  0  0  0  0  0  0  0  0  0  0  0
  140.5460   71.1300  225.9670 C   0  0  0  0  0  0  0  0  0  0  0  0
  140.7220   71.8880  224.8760 N   0  0  0  0  0  0  0  0  0  0  0  0
  141.6830   70.8360  221.5300 H   0  0  0  0  0  0  0  0  0  0  0  0
  141.7672   71.8825  219.4295 H   0  0  0  0  0  0  0  0  0  0  0  0
  140.4582   72.9985  219.9477 H   0  0  0  0  0  0  0  0  0  0  0  0
  145.1079   74.8611  219.6829 H   0  0  0  0  0  0  0  0  0  0  0  0
  144.5838   75.1213  221.3235 H   0  0  0  0  0  0  0  0  0  0  0  0
  146.9808   73.9491  220.9884 H   0  0  0  0  0  0  0  0  0  0  0  0
  145.9668   73.1416  222.1374 H   0  0  0  0  0  0  0  0  0  0  0  0
  146.2697   72.5833  219.1055 H   0  0  0  0  0  0  0  0  0  0  0  0
  146.4605   71.4058  220.3807 H   0  0  0  0  0  0  0  0  0  0  0  0
  144.0750   71.7494  219.0547 H   0  0  0  0  0  0  0  0  0  0  0  0
  144.0763   71.2792  220.7544 H   0  0  0  0  0  0  0  0  0  0  0  0
  139.1767   69.9668  222.6337 H   0  0  0  0  0  0  0  0  0  0  0  0
  138.8436   68.5563  224.6360 H   0  0  0  0  0  0  0  0  0  0  0  0
  139.1864   68.2058  227.0757 H   0  0  0  0  0  0  0  0  0  0  0  0
  140.1258   69.0636  229.2081 H   0  0  0  0  0  0  0  0  0  0  0  0
  141.3257   71.2289  229.2746 H   0  0  0  0  0  0  0  0  0  0  0  0
  141.5935   72.5495  227.1943 H   0  0  0  0  0  0  0  0  0  0  0  0
  1  2  2  0
  2  3  1  0
  3  4  1  0
  4  5  1  0
  5  6  2  0
  5  7  1  0
  7  8  1  0
  8  9  1  0
  9 10  1  0
 10 11  1  0
  2 12  1  0
 12 13  2  0
 13 14  1  0
 14 15  2  0
 15 16  1  0
 16 17  2  0
 17 18  1  0
 18 19  2  0
 19 20  1  0
 20 21  2  0
 11  7  1  0
 21 12  1  0
 20 15  1  0
  3 22  1  0
  4 23  1  0
  4 24  1  0
  8 25  1  0
  8 26  1  0
  9 27  1  0
  9 28  1  0
 10 29  1  0
 10 30  1  0
 11 31  1  0
 11 32  1  0
 13 33  1  0
 14 34  1  0
 16 35  1  0
 17 36  1  0
 18 37  1  0
 19 38  1  0
M  END
>  <smiles>  (49) 
O=C(NCC(=O)N1CCCC1)c1ccc2ccccc2n1

>  <score_type>  (49) 
oracle

>  <origin>  (49) 
autodockgpu

>  <m_score__min__energy>  (49) 
-7.3300000000000001

>  <m_primary>  (49) 
energy

>  <rmsd>  (49) 
3.979829222334019

>  <m_score__min__rmsd>  (49) 
3.979829222334019

>  <meeko>  (49) 
{"free_energy": -7.32, "intermolecular_energy": -8.22, "internal_energy": -0.69, "cluster_size": 23, "cluster_id": 1, "rank_in_cluster": 11}

>  <energy>  (49) 
-6.64

>  <cluster_rmsd>  (49) 
1.55

>  <cluster>  (49) 
2

$$$$

     RDKit          3D

 38 40  0  0  0  0  0  0  0  0999 V2000
  139.9320   73.4590  222.4050 O   0  0  0  0  0  0  0  0  0  0  0  0
  140.4550   72.3000  222.4800 C   0  0  0  0  0  0  0  0  0  0  0  0
  141.2050   71.7340  221.4180 N   0  0  0  0  0  0  0  0  0  0  0  0
  141.3750   72.5090  220.2120 C   0  0  0  0  0  0  0  0  0  0  0  0
  142.3670   73.5680  220.4440 C   0  0  0  0  0  0  0  0  0  0  0  0
  142.0110   74.7400  220.7360 O   0  0  0  0  0  0  0  0  0  0  0  0
  143.7660   73.3320  220.3530 N   0  0  0  0  0  0  0  0  0  0  0  0
  144.8090   74.3090  220.5650 C   0  0  0  0  0  0  0  0  0  0  0  0
  145.9700   73.4250  221.0370 C   0  0  0  0  0  0  0  0  0  0  0  0
  145.8450   72.2790  220.0620 C   0  0  0  0  0  0  0  0  0  0  0  0
  144.3520   72.0460  220.0290 C   0  0  0  0  0  0  0  0  0  0  0  0
  140.2950   71.4980  223.6960 C   0  0  0  0  0  0  0  0  0  0  0  0
  139.6480   70.2660  223.6090 C   0  0  0  0  0  0  0  0  0  0  0  0
  139.4760   69.4770  224.7270 C   0  0  0  0  0  0  0  0  0  0  0  0
  139.9410   69.8960  225.9440 C   0  0  0  0  0  0  0  0  0  0  0  0
  139.8010   69.1520  227.1070 C   0  0  0  0  0  0  0  0  0  0  0  0
  140.3030   69.6520  228.2960 C   0  0  0  0  0  0  0  0  0  0  0  0
  140.9370   70.8760  228.3380 C   0  0  0  0  0  0  0  0  0  0  0  0
  141.0720   71.6090  227.1750 C   0  0  0  0  0  0  0  0  0  0  0  0
  140.5800   71.1330  225.9750 C   0  0  0  0  0  0  0  0  0  0  0  0
  140.7420   71.8920  224.8830 N   0  0  0  0  0  0  0  0  0  0  0  0
  141.6290   70.7900  221.4860 H   0  0  0  0  0  0  0  0  0  0  0  0
  141.7228   71.8526  219.4007 H   0  0  0  0  0  0  0  0  0  0  0  0
  140.4136   72.9635  219.9305 H   0  0  0  0  0  0  0  0  0  0  0  0
  145.0598   74.8368  219.6330 H   0  0  0  0  0  0  0  0  0  0  0  0
  144.5377   75.1061  221.2728 H   0  0  0  0  0  0  0  0  0  0  0  0
  146.9382   73.9381  220.9410 H   0  0  0  0  0  0  0  0  0  0  0  0
  145.9288   73.1358  222.0975 H   0  0  0  0  0  0  0  0  0  0  0  0
  146.2268   72.5575  219.0687 H   0  0  0  0  0  0  0  0  0  0  0  0
  146.4235   71.3893  220.3513 H   0  0  0  0  0  0  0  0  0  0  0  0
  144.0338   71.7167  219.0288 H   0  0  0  0  0  0  0  0  0  0  0  0
  144.0401   71.2600  220.7325 H   0  0  0  0  0  0  0  0  0  0  0  0
  139.2699   69.9189  222.6361 H   0  0  0  0  0  0  0  0  0  0  0  0
  138.9633   68.5076  224.6402 H   0  0  0  0  0  0  0  0  0  0  0  0
  139.2962   68.1749  227.0842 H   0  0  0  0  0  0  0  0  0  0  0  0
  140.1948   69.0651  229.2200 H   0  0  0  0  0  0  0  0  0  0  0  0
  141.3314   71.2648  229.2884 H   0  0  0  0  0  0  0  0  0  0  0  0
  141.5782   72.5851  227.2047 H   0  0  0  0  0  0  0  0  0  0  0  0
  1  2  2  0
  2  3  1  0
  3  4  1  0
  4  5  1  0
  5  6  2  0
  5  7  1  0
  7  8  1  0
  8  9  1  0
  9 10  1  0
 10 11  1  0
  2 12  1  0
 12 13  2  0
 13 14  1  0
 14 15  2  0
 15 16  1  0
 16 17  2  0
 17 18  1  0
 18 19  2  0
 19 20  1  0
 20 21  2  0
 11  7  1  0
 21 12  1  0
 20 15  1  0
  3 22  1  0
  4 23  1  0
  4 24  1  0
  8 25  1  0
  8 26  1  0
  9 27  1  0
  9 28  1  0
 10 29  1  0
 10 30  1  0
 11 31  1  0
 11 32  1  0
 13 33  1  0
 14 34  1  0
 16 35  1  0
 17 36  1  0
 18 37  1  0
 19 38  1  0
M  END
>  <smiles>  (50) 
O=C(NCC(=O)N1CCCC1)c1ccc2ccccc2n1

>  <score_type>  (50) 
oracle

>  <origin>  (50) 
autodockgpu

>  <m_score__min__energy>  (50) 
-7.3300000000000001

>  <m_primary>  (50) 
energy

>  <rmsd>  (50) 
3.9616999535970976

>  <m_score__min__rmsd>  (50) 
3.9616999535970976

>  <meeko>  (50) 
{"free_energy": -7.33, "intermolecular_energy": -8.22, "internal_energy": -0.69, "cluster_size": 23, "cluster_id": 1, "rank_in_cluster": 8}

>  <energy>  (50) 
-6.63

>  <cluster_rmsd>  (50) 
0.0

>  <cluster>  (50) 
3

$$$$
