
     RDKit          3D

 69 74  0  0  0  0  0  0  0  0999 V2000
  140.4300   67.3390  226.4510 N   0  0  0  0  0  0  0  0  0  0  0  0
  139.5720   68.4380  226.6960 C   0  0  0  0  0  0  0  0  0  0  0  0
  139.7320   69.1570  227.7400 O   0  0  0  0  0  0  0  0  0  0  0  0
  138.4730   68.8100  225.7900 C   0  0  0  0  0  0  0  0  0  0  0  0
  138.7480   70.0540  224.9760 C   0  0  0  0  0  0  0  0  0  0  0  0
  138.8300   69.6070  223.5310 C   0  0  0  0  0  0  0  0  0  0  0  0
  138.9150   70.9000  222.7140 C   0  0  0  0  0  0  0  0  0  0  0  0
  140.2320   71.4360  223.0010 N   0  0  0  0  0  0  0  0  0  0  0  0
  140.8520   72.2620  222.0220 C   0  0  0  0  0  0  0  0  0  0  0  0
  141.4790   71.6920  220.9760 N   0  0  0  0  0  0  0  0  0  0  0  0
  142.0730   72.4470  220.0370 C   0  0  0  0  0  0  0  0  0  0  0  0
  142.7310   71.8290  218.9390 N   0  0  0  0  0  0  0  0  0  0  0  0
  141.9530   71.1040  217.9400 C   0  0  0  0  0  0  0  0  0  0  0  0
  142.5470   69.7870  217.5660 C   0  0  0  0  0  0  0  0  0  0  0  0
  143.8670   69.5150  218.1730 C   0  0  0  0  0  0  0  0  0  0  0  0
  144.3470   68.2250  218.1640 C   0  0  0  0  0  0  0  0  0  0  0  0
  145.5690   67.8700  218.7050 C   0  0  0  0  0  0  0  0  0  0  0  0
  146.3280   68.8730  219.2780 C   0  0  0  0  0  0  0  0  0  0  0  0
  145.9000   70.1850  219.3170 C   0  0  0  0  0  0  0  0  0  0  0  0
  144.6620   70.4770  218.7550 C   0  0  0  0  0  0  0  0  0  0  0  0
  144.1670   71.8980  218.7830 C   0  0  0  0  0  0  0  0  0  0  0  0
  142.0370   73.7820  220.1490 N   0  0  0  0  0  0  0  0  0  0  0  0
  141.4130   74.3960  221.1910 C   0  0  0  0  0  0  0  0  0  0  0  0
  141.4090   75.8010  221.2520 N   0  0  0  0  0  0  0  0  0  0  0  0
  142.0580   76.5290  220.1720 C   0  0  0  0  0  0  0  0  0  0  0  0
  141.2540   77.7980  219.9410 C   0  0  0  0  0  0  0  0  0  0  0  0
  141.4270   78.5920  221.1950 C   0  0  0  0  0  0  0  0  0  0  0  0
  141.8070   79.9180  221.1800 C   0  0  0  0  0  0  0  0  0  0  0  0
  141.9460   80.5770  222.3850 C   0  0  0  0  0  0  0  0  0  0  0  0
  141.7150   79.9470  223.6070 C   0  0  0  0  0  0  0  0  0  0  0  0
  141.3340   78.6040  223.5630 C   0  0  0  0  0  0  0  0  0  0  0  0
  141.1870   77.9210  222.3790 C   0  0  0  0  0  0  0  0  0  0  0  0
  140.7770   76.4800  222.3590 C   0  0  0  0  0  0  0  0  0  0  0  0
  140.8310   73.6050  222.1100 N   0  0  0  0  0  0  0  0  0  0  0  0
  140.9090   71.1430  224.2480 C   0  0  0  0  0  0  0  0  0  0  0  0
  139.9940   70.7720  225.3590 C   0  0  0  0  0  0  0  0  0  0  0  0
  140.9180   67.2240  225.5390 H   0  0  0  0  0  0  0  0  0  0  0  0
  140.5500   66.6510  227.2270 H   0  0  0  0  0  0  0  0  0  0  0  0
  138.2967   67.9741  225.0971 H   0  0  0  0  0  0  0  0  0  0  0  0
  137.5976   69.0263  226.4200 H   0  0  0  0  0  0  0  0  0  0  0  0
  137.9397   70.7780  225.1562 H   0  0  0  0  0  0  0  0  0  0  0  0
  139.7253   68.9888  223.3688 H   0  0  0  0  0  0  0  0  0  0  0  0
  137.9640   68.9939  223.2409 H   0  0  0  0  0  0  0  0  0  0  0  0
  138.8093   70.6870  221.6400 H   0  0  0  0  0  0  0  0  0  0  0  0
  138.1139   71.6077  222.9737 H   0  0  0  0  0  0  0  0  0  0  0  0
  140.9445   70.9295  218.3431 H   0  0  0  0  0  0  0  0  0  0  0  0
  141.9366   71.7224  217.0304 H   0  0  0  0  0  0  0  0  0  0  0  0
  141.8531   68.9947  217.8834 H   0  0  0  0  0  0  0  0  0  0  0  0
  142.7026   69.8120  216.4773 H   0  0  0  0  0  0  0  0  0  0  0  0
  143.7292   67.4393  217.7047 H   0  0  0  0  0  0  0  0  0  0  0  0
  145.9236   66.8290  218.6803 H   0  0  0  0  0  0  0  0  0  0  0  0
  147.3039   68.6178  219.7168 H   0  0  0  0  0  0  0  0  0  0  0  0
  146.5165   70.9716  219.7764 H   0  0  0  0  0  0  0  0  0  0  0  0
  144.6156   72.4402  219.6285 H   0  0  0  0  0  0  0  0  0  0  0  0
  144.4421   72.4335  217.8624 H   0  0  0  0  0  0  0  0  0  0  0  0
  143.0902   76.7828  220.4551 H   0  0  0  0  0  0  0  0  0  0  0  0
  142.0975   75.9190  219.2575 H   0  0  0  0  0  0  0  0  0  0  0  0
  141.6444   78.3519  219.0745 H   0  0  0  0  0  0  0  0  0  0  0  0
  140.1962   77.5864  219.7257 H   0  0  0  0  0  0  0  0  0  0  0  0
  141.9950   80.4385  220.2293 H   0  0  0  0  0  0  0  0  0  0  0  0
  142.2491   81.6344  222.3809 H   0  0  0  0  0  0  0  0  0  0  0  0
  141.8275   80.4826  224.5612 H   0  0  0  0  0  0  0  0  0  0  0  0
  141.1450   78.0744  224.5084 H   0  0  0  0  0  0  0  0  0  0  0  0
  141.0818   76.0016  223.3015 H   0  0  0  0  0  0  0  0  0  0  0  0
  139.6848   76.4173  222.2444 H   0  0  0  0  0  0  0  0  0  0  0  0
  141.6026   70.3066  224.0770 H   0  0  0  0  0  0  0  0  0  0  0  0
  141.4251   72.0647  224.5546 H   0  0  0  0  0  0  0  0  0  0  0  0
  140.5532   70.1263  226.0521 H   0  0  0  0  0  0  0  0  0  0  0  0
  139.6606   71.7254  225.7948 H   0  0  0  0  0  0  0  0  0  0  0  0
  1  2  1  0
  2  3  2  0
  2  4  1  0
  4  5  1  0
  5  6  1  0
  6  7  1  0
  7  8  1  0
  8  9  1  0
  9 10  2  0
 10 11  1  0
 11 12  1  0
 12 13  1  0
 13 14  1  0
 14 15  1  0
 15 16  2  0
 16 17  1  0
 17 18  2  0
 18 19  1  0
 19 20  2  0
 20 21  1  0
 11 22  2  0
 22 23  1  0
 23 24  1  0
 24 25  1  0
 25 26  1  0
 26 27  1  0
 27 28  2  0
 28 29  1  0
 29 30  2  0
 30 31  1  0
 31 32  2  0
 32 33  1  0
 23 34  2  0
  8 35  1  0
 35 36  1  0
 36  5  1  0
 34  9  1  0
 21 12  1  0
 33 24  1  0
 20 15  1  0
 32 27  1  0
  1 37  1  0
  1 38  1  0
  4 39  1  0
  4 40  1  0
  5 41  1  0
  6 42  1  0
  6 43  1  0
  7 44  1  0
  7 45  1  0
 13 46  1  0
 13 47  1  0
 14 48  1  0
 14 49  1  0
 16 50  1  0
 17 51  1  0
 18 52  1  0
 19 53  1  0
 21 54  1  0
 21 55  1  0
 25 56  1  0
 25 57  1  0
 26 58  1  0
 26 59  1  0
 28 60  1  0
 29 61  1  0
 30 62  1  0
 31 63  1  0
 33 64  1  0
 33 65  1  0
 35 66  1  0
 35 67  1  0
 36 68  1  0
 36 69  1  0
M  END
>  <smiles>  (1) 
NC(=O)CC1CCN(c2nc(N3CCc4ccccc4C3)nc(N3CCc4ccccc4C3)n2)CC1

>  <score_type>  (1) 
oracle

>  <origin>  (1) 
autodockgpu

>  <m_score__min__energy>  (1) 
-9.3499999999999996

>  <m_primary>  (1) 
energy

>  <rmsd>  (1) 
8.65925849662818

>  <m_score__min__rmsd>  (1) 
8.65925849662818

>  <meeko>  (1) 
{"free_energy": -9.09, "intermolecular_energy": -10.58, "internal_energy": -1.12, "cluster_size": 28, "cluster_id": 1, "rank_in_cluster": 10}

>  <energy>  (1) 
-9.35

>  <cluster_rmsd>  (1) 
0.0

>  <cluster>  (1) 
1

$$$$

     RDKit          3D

 69 74  0  0  0  0  0  0  0  0999 V2000
  140.8090   67.3430  226.5280 N   0  0  0  0  0  0  0  0  0  0  0  0
  140.0730   68.4790  226.9440 C   0  0  0  0  0  0  0  0  0  0  0  0
  140.4960   69.1980  227.9120 O   0  0  0  0  0  0  0  0  0  0  0  0
  138.8120   68.8910  226.3060 C   0  0  0  0  0  0  0  0  0  0  0  0
  138.9620   70.0540  225.3520 C   0  0  0  0  0  0  0  0  0  0  0  0
  139.2000   69.4520  223.9830 C   0  0  0  0  0  0  0  0  0  0  0  0
  139.1560   70.6360  223.0100 C   0  0  0  0  0  0  0  0  0  0  0  0
  140.3630   71.3900  223.2870 N   0  0  0  0  0  0  0  0  0  0  0  0
  140.9230   72.1740  222.2400 C   0  0  0  0  0  0  0  0  0  0  0  0
  141.4990   71.5610  221.1900 N   0  0  0  0  0  0  0  0  0  0  0  0
  142.0360   72.2750  220.1860 C   0  0  0  0  0  0  0  0  0  0  0  0
  142.6410   71.6120  219.0850 N   0  0  0  0  0  0  0  0  0  0  0  0
  141.8220   70.8120  218.1800 C   0  0  0  0  0  0  0  0  0  0  0  0
  142.4280   69.4910  217.8430 C   0  0  0  0  0  0  0  0  0  0  0  0
  143.7900   69.2860  218.3770 C   0  0  0  0  0  0  0  0  0  0  0  0
  144.3050   68.0100  218.4100 C   0  0  0  0  0  0  0  0  0  0  0  0
  145.5680   67.7160  218.8900 C   0  0  0  0  0  0  0  0  0  0  0  0
  146.3340   68.7690  219.3550 C   0  0  0  0  0  0  0  0  0  0  0  0
  145.8720   70.0710  219.3490 C   0  0  0  0  0  0  0  0  0  0  0  0
  144.5940   70.3000  218.8520 C   0  0  0  0  0  0  0  0  0  0  0  0
  144.0620   71.7070  218.8330 C   0  0  0  0  0  0  0  0  0  0  0  0
  141.9940   73.6140  220.2390 N   0  0  0  0  0  0  0  0  0  0  0  0
  141.4200   74.2720  221.2840 C   0  0  0  0  0  0  0  0  0  0  0  0
  141.4080   75.6780  221.2810 N   0  0  0  0  0  0  0  0  0  0  0  0
  142.0790   76.3600  220.1860 C   0  0  0  0  0  0  0  0  0  0  0  0
  141.2740   77.6130  219.8770 C   0  0  0  0  0  0  0  0  0  0  0  0
  141.4130   78.4630  221.0970 C   0  0  0  0  0  0  0  0  0  0  0  0
  141.7860   79.7900  221.0310 C   0  0  0  0  0  0  0  0  0  0  0  0
  141.8900   80.5040  222.2090 C   0  0  0  0  0  0  0  0  0  0  0  0
  141.6330   79.9290  223.4520 C   0  0  0  0  0  0  0  0  0  0  0  0
  141.2600   78.5820  223.4590 C   0  0  0  0  0  0  0  0  0  0  0  0
  141.1460   77.8450  222.3040 C   0  0  0  0  0  0  0  0  0  0  0  0
  140.7450   76.4020  222.3400 C   0  0  0  0  0  0  0  0  0  0  0  0
  140.8940   73.5200  222.2680 N   0  0  0  0  0  0  0  0  0  0  0  0
  140.9910   71.3530  224.5920 C   0  0  0  0  0  0  0  0  0  0  0  0
  140.0670   70.9880  225.6970 C   0  0  0  0  0  0  0  0  0  0  0  0
  141.0700   67.2010  225.5310 H   0  0  0  0  0  0  0  0  0  0  0  0
  141.0760   66.6560  227.2670 H   0  0  0  0  0  0  0  0  0  0  0  0
  138.4100   68.0334  225.7467 H   0  0  0  0  0  0  0  0  0  0  0  0
  138.1391   69.2218  227.1108 H   0  0  0  0  0  0  0  0  0  0  0  0
  138.0502   70.6676  225.3987 H   0  0  0  0  0  0  0  0  0  0  0  0
  140.1818   68.9574  223.9445 H   0  0  0  0  0  0  0  0  0  0  0  0
  138.4495   68.6872  223.7341 H   0  0  0  0  0  0  0  0  0  0  0  0
  139.1513   70.2815  221.9687 H   0  0  0  0  0  0  0  0  0  0  0  0
  138.2486   71.2444  223.1381 H   0  0  0  0  0  0  0  0  0  0  0  0
  140.8461   70.6365  218.6562 H   0  0  0  0  0  0  0  0  0  0  0  0
  141.7309   71.3764  217.2402 H   0  0  0  0  0  0  0  0  0  0  0  0
  141.7779   68.7017  218.2484 H   0  0  0  0  0  0  0  0  0  0  0  0
  142.5142   69.4576  216.7469 H   0  0  0  0  0  0  0  0  0  0  0  0
  143.6817   67.1842  218.0365 H   0  0  0  0  0  0  0  0  0  0  0  0
  145.9487   66.6840  218.9015 H   0  0  0  0  0  0  0  0  0  0  0  0
  147.3430   68.5636  219.7419 H   0  0  0  0  0  0  0  0  0  0  0  0
  146.4935   70.8974  219.7243 H   0  0  0  0  0  0  0  0  0  0  0  0
  144.5476   72.3075  219.6163 H   0  0  0  0  0  0  0  0  0  0  0  0
  144.2632   72.1954  217.8681 H   0  0  0  0  0  0  0  0  0  0  0  0
  143.1025   76.6330  220.4825 H   0  0  0  0  0  0  0  0  0  0  0  0
  142.1440   75.7092  219.3015 H   0  0  0  0  0  0  0  0  0  0  0  0
  141.6827   78.1292  218.9959 H   0  0  0  0  0  0  0  0  0  0  0  0
  140.2229   77.3859  219.6453 H   0  0  0  0  0  0  0  0  0  0  0  0
  141.9956   80.2681  220.0628 H   0  0  0  0  0  0  0  0  0  0  0  0
  142.1858   81.5625  222.1643 H   0  0  0  0  0  0  0  0  0  0  0  0
  141.7196   80.5077  224.3835 H   0  0  0  0  0  0  0  0  0  0  0  0
  141.0503   78.0944  224.4225 H   0  0  0  0  0  0  0  0  0  0  0  0
  141.0293   75.9691  223.3105 H   0  0  0  0  0  0  0  0  0  0  0  0
  139.6563   76.3265  222.2020 H   0  0  0  0  0  0  0  0  0  0  0  0
  141.8051   70.6137  224.5633 H   0  0  0  0  0  0  0  0  0  0  0  0
  141.3508   72.3712  224.8011 H   0  0  0  0  0  0  0  0  0  0  0  0
  140.6650   70.5200  226.4928 H   0  0  0  0  0  0  0  0  0  0  0  0
  139.5756   71.9274  225.9902 H   0  0  0  0  0  0  0  0  0  0  0  0
  1  2  1  0
  2  3  2  0
  2  4  1  0
  4  5  1  0
  5  6  1  0
  6  7  1  0
  7  8  1  0
  8  9  1  0
  9 10  2  0
 10 11  1  0
 11 12  1  0
 12 13  1  0
 13 14  1  0
 14 15  1  0
 15 16  2  0
 16 17  1  0
 17 18  2  0
 18 19  1  0
 19 20  2  0
 20 21  1  0
 11 22  2  0
 22 23  1  0
 23 24  1  0
 24 25  1  0
 25 26  1  0
 26 27  1  0
 27 28  2  0
 28 29  1  0
 29 30  2  0
 30 31  1  0
 31 32  2  0
 32 33  1  0
 23 34  2  0
  8 35  1  0
 35 36  1  0
 36  5  1  0
 34  9  1  0
 21 12  1  0
 33 24  1  0
 20 15  1  0
 32 27  1  0
  1 37  1  0
  1 38  1  0
  4 39  1  0
  4 40  1  0
  5 41  1  0
  6 42  1  0
  6 43  1  0
  7 44  1  0
  7 45  1  0
 13 46  1  0
 13 47  1  0
 14 48  1  0
 14 49  1  0
 16 50  1  0
 17 51  1  0
 18 52  1  0
 19 53  1  0
 21 54  1  0
 21 55  1  0
 25 56  1  0
 25 57  1  0
 26 58  1  0
 26 59  1  0
 28 60  1  0
 29 61  1  0
 30 62  1  0
 31 63  1  0
 33 64  1  0
 33 65  1  0
 35 66  1  0
 35 67  1  0
 36 68  1  0
 36 69  1  0
M  END
>  <smiles>  (2) 
NC(=O)CC1CCN(c2nc(N3CCc4ccccc4C3)nc(N3CCc4ccccc4C3)n2)CC1

>  <score_type>  (2) 
oracle

>  <origin>  (2) 
autodockgpu

>  <m_score__min__energy>  (2) 
-9.3499999999999996

>  <m_primary>  (2) 
energy

>  <rmsd>  (2) 
8.851810675924455

>  <m_score__min__rmsd>  (2) 
8.851810675924455

>  <meeko>  (2) 
{"free_energy": -9.08, "intermolecular_energy": -10.57, "internal_energy": -1.13, "cluster_size": 28, "cluster_id": 1, "rank_in_cluster": 12}

>  <energy>  (2) 
-9.24

>  <cluster_rmsd>  (2) 
1.27

>  <cluster>  (2) 
1

$$$$

     RDKit          3D

 69 74  0  0  0  0  0  0  0  0999 V2000
  142.9490   79.4100  222.4720 N   0  0  0  0  0  0  0  0  0  0  0  0
  141.5660   79.7040  222.4040 C   0  0  0  0  0  0  0  0  0  0  0  0
  140.9670   80.2080  223.4130 O   0  0  0  0  0  0  0  0  0  0  0  0
  140.7550   79.4550  221.2010 C   0  0  0  0  0  0  0  0  0  0  0  0
  140.3760   78.0040  221.0090 C   0  0  0  0  0  0  0  0  0  0  0  0
  140.4290   77.3660  222.3820 C   0  0  0  0  0  0  0  0  0  0  0  0
  139.8580   75.9570  222.1930 C   0  0  0  0  0  0  0  0  0  0  0  0
  140.8650   75.2480  221.4260 N   0  0  0  0  0  0  0  0  0  0  0  0
  140.9440   73.8340  221.5640 C   0  0  0  0  0  0  0  0  0  0  0  0
  141.3460   73.0890  220.5180 N   0  0  0  0  0  0  0  0  0  0  0  0
  141.4310   71.7510  220.6180 C   0  0  0  0  0  0  0  0  0  0  0  0
  141.8580   70.9790  219.5040 N   0  0  0  0  0  0  0  0  0  0  0  0
  140.9680   69.9740  218.9330 C   0  0  0  0  0  0  0  0  0  0  0  0
  141.6460   68.6780  218.6420 C   0  0  0  0  0  0  0  0  0  0  0  0
  143.1070   68.6870  218.8630 C   0  0  0  0  0  0  0  0  0  0  0  0
  143.7730   67.4850  218.9430 C   0  0  0  0  0  0  0  0  0  0  0  0
  145.1380   67.3890  219.1460 C   0  0  0  0  0  0  0  0  0  0  0  0
  145.8480   68.5680  219.2730 C   0  0  0  0  0  0  0  0  0  0  0  0
  145.2360   69.8040  219.2010 C   0  0  0  0  0  0  0  0  0  0  0  0
  143.8610   69.8320  218.9950 C   0  0  0  0  0  0  0  0  0  0  0  0
  143.1650   71.1640  218.9130 C   0  0  0  0  0  0  0  0  0  0  0  0
  141.1100   71.1600  221.7780 N   0  0  0  0  0  0  0  0  0  0  0  0
  140.7000   71.8780  222.8580 C   0  0  0  0  0  0  0  0  0  0  0  0
  140.3760   71.1990  224.0470 N   0  0  0  0  0  0  0  0  0  0  0  0
  141.0720   71.5920  225.2630 C   0  0  0  0  0  0  0  0  0  0  0  0
  140.0810   71.4580  226.4090 C   0  0  0  0  0  0  0  0  0  0  0  0
  139.7980   69.9940  226.4970 C   0  0  0  0  0  0  0  0  0  0  0  0
  139.8730   69.3010  227.6880 C   0  0  0  0  0  0  0  0  0  0  0  0
  139.5950   67.9480  227.6810 C   0  0  0  0  0  0  0  0  0  0  0  0
  139.2450   67.2680  226.5160 C   0  0  0  0  0  0  0  0  0  0  0  0
  139.1850   68.0190  225.3400 C   0  0  0  0  0  0  0  0  0  0  0  0
  139.4540   69.3670  225.3150 C   0  0  0  0  0  0  0  0  0  0  0  0
  139.3840   70.1500  224.0400 C   0  0  0  0  0  0  0  0  0  0  0  0
  140.6280   73.2140  222.7170 N   0  0  0  0  0  0  0  0  0  0  0  0
  141.7710   75.9510  220.5410 C   0  0  0  0  0  0  0  0  0  0  0  0
  141.2570   77.2620  220.0680 C   0  0  0  0  0  0  0  0  0  0  0  0
  143.6130   79.7520  221.7470 H   0  0  0  0  0  0  0  0  0  0  0  0
  143.2710   78.8340  223.2810 H   0  0  0  0  0  0  0  0  0  0  0  0
  139.8313   80.0474  221.2770 H   0  0  0  0  0  0  0  0  0  0  0  0
  141.3700   79.7423  220.3354 H   0  0  0  0  0  0  0  0  0  0  0  0
  139.3761   77.9588  220.5527 H   0  0  0  0  0  0  0  0  0  0  0  0
  141.4664   77.3163  222.7444 H   0  0  0  0  0  0  0  0  0  0  0  0
  139.8604   77.9435  223.1257 H   0  0  0  0  0  0  0  0  0  0  0  0
  139.6983   75.4700  223.1663 H   0  0  0  0  0  0  0  0  0  0  0  0
  138.8823   75.9694  221.6853 H   0  0  0  0  0  0  0  0  0  0  0  0
  140.1505   69.7875  219.6450 H   0  0  0  0  0  0  0  0  0  0  0  0
  140.6026   70.3713  217.9745 H   0  0  0  0  0  0  0  0  0  0  0  0
  141.2053   67.9066  219.2906 H   0  0  0  0  0  0  0  0  0  0  0  0
  141.4931   68.4787  217.5711 H   0  0  0  0  0  0  0  0  0  0  0  0
  143.1921   66.5565  218.8406 H   0  0  0  0  0  0  0  0  0  0  0  0
  145.6392   66.4116  219.2041 H   0  0  0  0  0  0  0  0  0  0  0  0
  146.9347   68.5204  219.4366 H   0  0  0  0  0  0  0  0  0  0  0  0
  145.8156   70.7333  219.3030 H   0  0  0  0  0  0  0  0  0  0  0  0
  143.7310   71.9240  219.4716 H   0  0  0  0  0  0  0  0  0  0  0  0
  143.0864   71.5094  217.8716 H   0  0  0  0  0  0  0  0  0  0  0  0
  141.9364   70.9331  225.4327 H   0  0  0  0  0  0  0  0  0  0  0  0
  141.4432   72.6246  225.1852 H   0  0  0  0  0  0  0  0  0  0  0  0
  140.5217   71.8249  227.3477 H   0  0  0  0  0  0  0  0  0  0  0  0
  139.1684   72.0487  226.2410 H   0  0  0  0  0  0  0  0  0  0  0  0
  140.1478   69.8142  228.6213 H   0  0  0  0  0  0  0  0  0  0  0  0
  139.6518   67.3886  228.6265 H   0  0  0  0  0  0  0  0  0  0  0  0
  139.0262   66.1900  226.5224 H   0  0  0  0  0  0  0  0  0  0  0  0
  138.9131   67.5144  224.4011 H   0  0  0  0  0  0  0  0  0  0  0  0
  139.5712   69.4779  223.1895 H   0  0  0  0  0  0  0  0  0  0  0  0
  138.3845   70.6002  223.9483 H   0  0  0  0  0  0  0  0  0  0  0  0
  142.7154   76.1230  221.0782 H   0  0  0  0  0  0  0  0  0  0  0  0
  141.8999   75.3192  219.6498 H   0  0  0  0  0  0  0  0  0  0  0  0
  142.1241   77.9015  219.8462 H   0  0  0  0  0  0  0  0  0  0  0  0
  140.6267   77.0321  219.1963 H   0  0  0  0  0  0  0  0  0  0  0  0
  1  2  1  0
  2  3  2  0
  2  4  1  0
  4  5  1  0
  5  6  1  0
  6  7  1  0
  7  8  1  0
  8  9  1  0
  9 10  2  0
 10 11  1  0
 11 12  1  0
 12 13  1  0
 13 14  1  0
 14 15  1  0
 15 16  2  0
 16 17  1  0
 17 18  2  0
 18 19  1  0
 19 20  2  0
 20 21  1  0
 11 22  2  0
 22 23  1  0
 23 24  1  0
 24 25  1  0
 25 26  1  0
 26 27  1  0
 27 28  2  0
 28 29  1  0
 29 30  2  0
 30 31  1  0
 31 32  2  0
 32 33  1  0
 23 34  2  0
  8 35  1  0
 35 36  1  0
 36  5  1  0
 34  9  1  0
 21 12  1  0
 33 24  1  0
 20 15  1  0
 32 27  1  0
  1 37  1  0
  1 38  1  0
  4 39  1  0
  4 40  1  0
  5 41  1  0
  6 42  1  0
  6 43  1  0
  7 44  1  0
  7 45  1  0
 13 46  1  0
 13 47  1  0
 14 48  1  0
 14 49  1  0
 16 50  1  0
 17 51  1  0
 18 52  1  0
 19 53  1  0
 21 54  1  0
 21 55  1  0
 25 56  1  0
 25 57  1  0
 26 58  1  0
 26 59  1  0
 28 60  1  0
 29 61  1  0
 30 62  1  0
 31 63  1  0
 33 64  1  0
 33 65  1  0
 35 66  1  0
 35 67  1  0
 36 68  1  0
 36 69  1  0
M  END
>  <smiles>  (3) 
NC(=O)CC1CCN(c2nc(N3CCc4ccccc4C3)nc(N3CCc4ccccc4C3)n2)CC1

>  <score_type>  (3) 
oracle

>  <origin>  (3) 
autodockgpu

>  <m_score__min__energy>  (3) 
-9.3499999999999996

>  <m_primary>  (3) 
energy

>  <rmsd>  (3) 
3.9576937490358364

>  <m_score__min__rmsd>  (3) 
3.9576937490358364

>  <meeko>  (3) 
{"free_energy": -9.22, "intermolecular_energy": -10.72, "internal_energy": -1.17, "cluster_size": 15, "cluster_id": 2, "rank_in_cluster": 1}

>  <energy>  (3) 
-9.14

>  <cluster_rmsd>  (3) 
0.7

>  <cluster>  (3) 
1

$$$$

     RDKit          3D

 69 74  0  0  0  0  0  0  0  0999 V2000
  140.2810   67.3680  226.4560 N   0  0  0  0  0  0  0  0  0  0  0  0
  139.4720   68.5110  226.6680 C   0  0  0  0  0  0  0  0  0  0  0  0
  139.5850   69.1860  227.7470 O   0  0  0  0  0  0  0  0  0  0  0  0
  138.4800   68.9790  225.6870 C   0  0  0  0  0  0  0  0  0  0  0  0
  138.8390   70.2950  225.0350 C   0  0  0  0  0  0  0  0  0  0  0  0
  138.6460   70.0980  223.5450 C   0  0  0  0  0  0  0  0  0  0  0  0
  138.8280   71.4880  222.9290 C   0  0  0  0  0  0  0  0  0  0  0  0
  140.2410   71.7780  223.0730 N   0  0  0  0  0  0  0  0  0  0  0  0
  140.8470   72.6670  222.1420 C   0  0  0  0  0  0  0  0  0  0  0  0
  141.5460   72.1650  221.1070 N   0  0  0  0  0  0  0  0  0  0  0  0
  142.1290   72.9800  220.2120 C   0  0  0  0  0  0  0  0  0  0  0  0
  142.8640   72.4340  219.1250 N   0  0  0  0  0  0  0  0  0  0  0  0
  143.9580   71.5050  219.3820 C   0  0  0  0  0  0  0  0  0  0  0  0
  145.1820   71.7930  218.5800 C   0  0  0  0  0  0  0  0  0  0  0  0
  145.0250   72.8770  217.5880 C   0  0  0  0  0  0  0  0  0  0  0  0
  146.1530   73.4390  217.0360 C   0  0  0  0  0  0  0  0  0  0  0  0
  146.1100   74.4570  216.1000 C   0  0  0  0  0  0  0  0  0  0  0  0
  144.8650   74.9170  215.7150 C   0  0  0  0  0  0  0  0  0  0  0  0
  143.6970   74.3920  216.2340 C   0  0  0  0  0  0  0  0  0  0  0  0
  143.8080   73.3700  217.1700 C   0  0  0  0  0  0  0  0  0  0  0  0
  142.5540   72.7790  217.7550 C   0  0  0  0  0  0  0  0  0  0  0  0
  142.0080   74.3070  220.3570 N   0  0  0  0  0  0  0  0  0  0  0  0
  141.3080   74.8530  221.3890 C   0  0  0  0  0  0  0  0  0  0  0  0
  141.2180   76.2530  221.4880 N   0  0  0  0  0  0  0  0  0  0  0  0
  141.5760   77.0400  220.3170 C   0  0  0  0  0  0  0  0  0  0  0  0
  140.6530   78.2480  220.2890 C   0  0  0  0  0  0  0  0  0  0  0  0
  141.0250   79.0380  221.5020 C   0  0  0  0  0  0  0  0  0  0  0  0
  141.2980   80.3900  221.4440 C   0  0  0  0  0  0  0  0  0  0  0  0
  141.6340   81.0430  222.6130 C   0  0  0  0  0  0  0  0  0  0  0  0
  141.7050   80.3840  223.8390 C   0  0  0  0  0  0  0  0  0  0  0  0
  141.4200   79.0170  223.8380 C   0  0  0  0  0  0  0  0  0  0  0  0
  141.0810   78.3380  222.6920 C   0  0  0  0  0  0  0  0  0  0  0  0
  140.7800   76.8700  222.7180 C   0  0  0  0  0  0  0  0  0  0  0  0
  140.7410   74.0030  222.2640 N   0  0  0  0  0  0  0  0  0  0  0  0
  141.0270   71.1820  224.1350 C   0  0  0  0  0  0  0  0  0  0  0  0
  140.2270   70.7550  225.3120 C   0  0  0  0  0  0  0  0  0  0  0  0
  140.8380   67.2510  225.5850 H   0  0  0  0  0  0  0  0  0  0  0  0
  140.2930   66.6500  227.2140 H   0  0  0  0  0  0  0  0  0  0  0  0
  138.3848   68.2167  224.8997 H   0  0  0  0  0  0  0  0  0  0  0  0
  137.5395   69.1393  226.2346 H   0  0  0  0  0  0  0  0  0  0  0  0
  138.1928   71.0818  225.4515 H   0  0  0  0  0  0  0  0  0  0  0  0
  139.3967   69.3989  223.1480 H   0  0  0  0  0  0  0  0  0  0  0  0
  137.6596   69.6708  223.3113 H   0  0  0  0  0  0  0  0  0  0  0  0
  138.5406   71.4814  221.8672 H   0  0  0  0  0  0  0  0  0  0  0  0
  138.1980   72.2442  223.4202 H   0  0  0  0  0  0  0  0  0  0  0  0
  144.2194   71.5611  220.4490 H   0  0  0  0  0  0  0  0  0  0  0  0
  143.6080   70.5036  219.0911 H   0  0  0  0  0  0  0  0  0  0  0  0
  145.9879   72.0760  219.2731 H   0  0  0  0  0  0  0  0  0  0  0  0
  145.4047   70.8785  218.0107 H   0  0  0  0  0  0  0  0  0  0  0  0
  147.1358   73.0610  217.3540 H   0  0  0  0  0  0  0  0  0  0  0  0
  147.0318   74.8840  215.6783 H   0  0  0  0  0  0  0  0  0  0  0  0
  144.8019   75.7261  214.9724 H   0  0  0  0  0  0  0  0  0  0  0  0
  142.7135   74.7696  215.9176 H   0  0  0  0  0  0  0  0  0  0  0  0
  141.7366   73.5145  217.7238 H   0  0  0  0  0  0  0  0  0  0  0  0
  142.2271   71.8960  217.1863 H   0  0  0  0  0  0  0  0  0  0  0  0
  142.6236   77.3676  220.3887 H   0  0  0  0  0  0  0  0  0  0  0  0
  141.4687   76.4447  219.3982 H   0  0  0  0  0  0  0  0  0  0  0  0
  140.8158   78.8395  219.3759 H   0  0  0  0  0  0  0  0  0  0  0  0
  139.5912   77.9605  220.2891 H   0  0  0  0  0  0  0  0  0  0  0  0
  141.2490   80.9340  220.4892 H   0  0  0  0  0  0  0  0  0  0  0  0
  141.8532   82.1203  222.5755 H   0  0  0  0  0  0  0  0  0  0  0  0
  141.9729   80.9157  224.7639 H   0  0  0  0  0  0  0  0  0  0  0  0
  141.4685   78.4641  224.7877 H   0  0  0  0  0  0  0  0  0  0  0  0
  141.3054   76.4056  223.5655 H   0  0  0  0  0  0  0  0  0  0  0  0
  139.6949   76.7263  222.8270 H   0  0  0  0  0  0  0  0  0  0  0  0
  141.5438   70.2997  223.7295 H   0  0  0  0  0  0  0  0  0  0  0  0
  141.7242   71.9562  224.4879 H   0  0  0  0  0  0  0  0  0  0  0  0
  140.7633   69.9273  225.7991 H   0  0  0  0  0  0  0  0  0  0  0  0
  140.1185   71.6553  225.9347 H   0  0  0  0  0  0  0  0  0  0  0  0
  1  2  1  0
  2  3  2  0
  2  4  1  0
  4  5  1  0
  5  6  1  0
  6  7  1  0
  7  8  1  0
  8  9  1  0
  9 10  2  0
 10 11  1  0
 11 12  1  0
 12 13  1  0
 13 14  1  0
 14 15  1  0
 15 16  2  0
 16 17  1  0
 17 18  2  0
 18 19  1  0
 19 20  2  0
 20 21  1  0
 11 22  2  0
 22 23  1  0
 23 24  1  0
 24 25  1  0
 25 26  1  0
 26 27  1  0
 27 28  2  0
 28 29  1  0
 29 30  2  0
 30 31  1  0
 31 32  2  0
 32 33  1  0
 23 34  2  0
  8 35  1  0
 35 36  1  0
 36  5  1  0
 34  9  1  0
 21 12  1  0
 33 24  1  0
 20 15  1  0
 32 27  1  0
  1 37  1  0
  1 38  1  0
  4 39  1  0
  4 40  1  0
  5 41  1  0
  6 42  1  0
  6 43  1  0
  7 44  1  0
  7 45  1  0
 13 46  1  0
 13 47  1  0
 14 48  1  0
 14 49  1  0
 16 50  1  0
 17 51  1  0
 18 52  1  0
 19 53  1  0
 21 54  1  0
 21 55  1  0
 25 56  1  0
 25 57  1  0
 26 58  1  0
 26 59  1  0
 28 60  1  0
 29 61  1  0
 30 62  1  0
 31 63  1  0
 33 64  1  0
 33 65  1  0
 35 66  1  0
 35 67  1  0
 36 68  1  0
 36 69  1  0
M  END
>  <smiles>  (4) 
NC(=O)CC1CCN(c2nc(N3CCc4ccccc4C3)nc(N3CCc4ccccc4C3)n2)CC1

>  <score_type>  (4) 
oracle

>  <origin>  (4) 
autodockgpu

>  <m_score__min__energy>  (4) 
-9.3499999999999996

>  <m_primary>  (4) 
energy

>  <rmsd>  (4) 
8.548186141917494

>  <m_score__min__rmsd>  (4) 
8.548186141917494

>  <meeko>  (4) 
{"free_energy": -8.46, "intermolecular_energy": -9.95, "internal_energy": -1.16, "cluster_size": 28, "cluster_id": 1, "rank_in_cluster": 26}

>  <energy>  (4) 
-9.13

>  <cluster_rmsd>  (4) 
0.71

>  <cluster>  (4) 
1

$$$$

     RDKit          3D

 69 74  0  0  0  0  0  0  0  0999 V2000
  142.6240   80.2590  222.1810 N   0  0  0  0  0  0  0  0  0  0  0  0
  141.5580   80.4000  221.2600 C   0  0  0  0  0  0  0  0  0  0  0  0
  141.0970   81.5590  220.9850 O   0  0  0  0  0  0  0  0  0  0  0  0
  140.9330   79.2530  220.5810 C   0  0  0  0  0  0  0  0  0  0  0  0
  141.3640   77.9110  221.1270 C   0  0  0  0  0  0  0  0  0  0  0  0
  141.4390   76.9740  219.9400 C   0  0  0  0  0  0  0  0  0  0  0  0
  142.0590   75.6830  220.4850 C   0  0  0  0  0  0  0  0  0  0  0  0
  141.0340   75.1070  221.3330 N   0  0  0  0  0  0  0  0  0  0  0  0
  141.0290   73.6970  221.5230 C   0  0  0  0  0  0  0  0  0  0  0  0
  141.3050   72.8890  220.4830 N   0  0  0  0  0  0  0  0  0  0  0  0
  141.3080   71.5530  220.6330 C   0  0  0  0  0  0  0  0  0  0  0  0
  141.6030   70.7130  219.5240 N   0  0  0  0  0  0  0  0  0  0  0  0
  140.5990   69.7740  219.0380 C   0  0  0  0  0  0  0  0  0  0  0  0
  141.1460   68.4140  218.7560 C   0  0  0  0  0  0  0  0  0  0  0  0
  142.6130   68.3020  218.8970 C   0  0  0  0  0  0  0  0  0  0  0  0
  143.1760   67.0490  218.9830 C   0  0  0  0  0  0  0  0  0  0  0  0
  144.5370   66.8400  219.1150 C   0  0  0  0  0  0  0  0  0  0  0  0
  145.3510   67.9550  219.1620 C   0  0  0  0  0  0  0  0  0  0  0  0
  144.8450   69.2380  219.0810 C   0  0  0  0  0  0  0  0  0  0  0  0
  143.4680   69.3800  218.9480 C   0  0  0  0  0  0  0  0  0  0  0  0
  142.8850   70.7650  218.8580 C   0  0  0  0  0  0  0  0  0  0  0  0
  141.0310   71.0270  221.8340 N   0  0  0  0  0  0  0  0  0  0  0  0
  140.7470   71.8110  222.9100 C   0  0  0  0  0  0  0  0  0  0  0  0
  140.4640   71.1990  224.1440 N   0  0  0  0  0  0  0  0  0  0  0  0
  141.2490   71.6080  225.2990 C   0  0  0  0  0  0  0  0  0  0  0  0
  140.3230   71.5730  226.5050 C   0  0  0  0  0  0  0  0  0  0  0  0
  139.9770   70.1290  226.6760 C   0  0  0  0  0  0  0  0  0  0  0  0
  140.0910   69.4840  227.8910 C   0  0  0  0  0  0  0  0  0  0  0  0
  139.7500   68.1480  227.9600 C   0  0  0  0  0  0  0  0  0  0  0  0
  139.2990   67.4370  226.8490 C   0  0  0  0  0  0  0  0  0  0  0  0
  139.2040   68.1400  225.6460 C   0  0  0  0  0  0  0  0  0  0  0  0
  139.5340   69.4700  225.5450 C   0  0  0  0  0  0  0  0  0  0  0  0
  139.4240   70.2020  224.2420 C   0  0  0  0  0  0  0  0  0  0  0  0
  140.7540   73.1420  222.7190 N   0  0  0  0  0  0  0  0  0  0  0  0
  140.0340   75.9370  221.9750 C   0  0  0  0  0  0  0  0  0  0  0  0
  140.4520   77.3510  222.1610 C   0  0  0  0  0  0  0  0  0  0  0  0
  143.4800   79.7170  221.9420 H   0  0  0  0  0  0  0  0  0  0  0  0
  142.5120   80.7220  223.1090 H   0  0  0  0  0  0  0  0  0  0  0  0
  139.8418   79.3377  220.6908 H   0  0  0  0  0  0  0  0  0  0  0  0
  141.2548   79.2892  219.5298 H   0  0  0  0  0  0  0  0  0  0  0  0
  142.3296   78.0332  221.6395 H   0  0  0  0  0  0  0  0  0  0  0  0
  140.4337   76.7793  219.5383 H   0  0  0  0  0  0  0  0  0  0  0  0
  142.0326   77.3995  219.1175 H   0  0  0  0  0  0  0  0  0  0  0  0
  142.3114   74.9975  219.6626 H   0  0  0  0  0  0  0  0  0  0  0  0
  142.9934   75.8716  221.0340 H   0  0  0  0  0  0  0  0  0  0  0  0
  139.8105   69.6816  219.7994 H   0  0  0  0  0  0  0  0  0  0  0  0
  140.2148   70.1728  218.0876 H   0  0  0  0  0  0  0  0  0  0  0  0
  140.6785   67.7041  219.4542 H   0  0  0  0  0  0  0  0  0  0  0  0
  140.9155   68.1963  217.7027 H   0  0  0  0  0  0  0  0  0  0  0  0
  142.5124   66.1725  218.9450 H   0  0  0  0  0  0  0  0  0  0  0  0
  144.9551   65.8246  219.1801 H   0  0  0  0  0  0  0  0  0  0  0  0
  146.4372   67.8169  219.2673 H   0  0  0  0  0  0  0  0  0  0  0  0
  145.5073   70.1154  219.1203 H   0  0  0  0  0  0  0  0  0  0  0  0
  143.5448   71.4887  219.3590 H   0  0  0  0  0  0  0  0  0  0  0  0
  142.7775   71.0848  217.8110 H   0  0  0  0  0  0  0  0  0  0  0  0
  142.0895   70.9144  225.4486 H   0  0  0  0  0  0  0  0  0  0  0  0
  141.6635   72.6164  225.1531 H   0  0  0  0  0  0  0  0  0  0  0  0
  140.8357   71.9575  227.3990 H   0  0  0  0  0  0  0  0  0  0  0  0
  139.4309   72.2007  226.3631 H   0  0  0  0  0  0  0  0  0  0  0  0
  140.4451   70.0216  228.7830 H   0  0  0  0  0  0  0  0  0  0  0  0
  139.8372   67.6267  228.9247 H   0  0  0  0  0  0  0  0  0  0  0  0
  139.0306   66.3724  226.9167 H   0  0  0  0  0  0  0  0  0  0  0  0
  138.8528   67.6105  224.7481 H   0  0  0  0  0  0  0  0  0  0  0  0
  139.5266   69.4865  223.4129 H   0  0  0  0  0  0  0  0  0  0  0  0
  138.4435   70.6979  224.1891 H   0  0  0  0  0  0  0  0  0  0  0  0
  139.1243   75.9235  221.3568 H   0  0  0  0  0  0  0  0  0  0  0  0
  139.8695   75.5187  222.9790 H   0  0  0  0  0  0  0  0  0  0  0  0
  139.5427   77.9699  222.1764 H   0  0  0  0  0  0  0  0  0  0  0  0
  141.0276   77.3655  223.0983 H   0  0  0  0  0  0  0  0  0  0  0  0
  1  2  1  0
  2  3  2  0
  2  4  1  0
  4  5  1  0
  5  6  1  0
  6  7  1  0
  7  8  1  0
  8  9  1  0
  9 10  2  0
 10 11  1  0
 11 12  1  0
 12 13  1  0
 13 14  1  0
 14 15  1  0
 15 16  2  0
 16 17  1  0
 17 18  2  0
 18 19  1  0
 19 20  2  0
 20 21  1  0
 11 22  2  0
 22 23  1  0
 23 24  1  0
 24 25  1  0
 25 26  1  0
 26 27  1  0
 27 28  2  0
 28 29  1  0
 29 30  2  0
 30 31  1  0
 31 32  2  0
 32 33  1  0
 23 34  2  0
  8 35  1  0
 35 36  1  0
 36  5  1  0
 34  9  1  0
 21 12  1  0
 33 24  1  0
 20 15  1  0
 32 27  1  0
  1 37  1  0
  1 38  1  0
  4 39  1  0
  4 40  1  0
  5 41  1  0
  6 42  1  0
  6 43  1  0
  7 44  1  0
  7 45  1  0
 13 46  1  0
 13 47  1  0
 14 48  1  0
 14 49  1  0
 16 50  1  0
 17 51  1  0
 18 52  1  0
 19 53  1  0
 21 54  1  0
 21 55  1  0
 25 56  1  0
 25 57  1  0
 26 58  1  0
 26 59  1  0
 28 60  1  0
 29 61  1  0
 30 62  1  0
 31 63  1  0
 33 64  1  0
 33 65  1  0
 35 66  1  0
 35 67  1  0
 36 68  1  0
 36 69  1  0
M  END
>  <smiles>  (5) 
NC(=O)CC1CCN(c2nc(N3CCc4ccccc4C3)nc(N3CCc4ccccc4C3)n2)CC1

>  <score_type>  (5) 
oracle

>  <origin>  (5) 
autodockgpu

>  <m_score__min__energy>  (5) 
-9.3499999999999996

>  <m_primary>  (5) 
energy

>  <rmsd>  (5) 
3.5715800478959263

>  <m_score__min__rmsd>  (5) 
3.5715800478959263

>  <meeko>  (5) 
{"free_energy": -8.79, "intermolecular_energy": -10.29, "internal_energy": -1.11, "cluster_size": 15, "cluster_id": 2, "rank_in_cluster": 12}

>  <energy>  (5) 
-9.13

>  <cluster_rmsd>  (5) 
0.7

>  <cluster>  (5) 
1

$$$$

     RDKit          3D

 69 74  0  0  0  0  0  0  0  0999 V2000
  142.6280   79.2500  222.3560 N   0  0  0  0  0  0  0  0  0  0  0  0
  141.2730   79.6620  222.3270 C   0  0  0  0  0  0  0  0  0  0  0  0
  140.7680   80.2760  223.3260 O   0  0  0  0  0  0  0  0  0  0  0  0
  140.3890   79.4140  221.1770 C   0  0  0  0  0  0  0  0  0  0  0  0
  140.1520   77.9480  220.8930 C   0  0  0  0  0  0  0  0  0  0  0  0
  139.9640   77.2800  222.2390 C   0  0  0  0  0  0  0  0  0  0  0  0
  139.5370   75.8430  221.9190 C   0  0  0  0  0  0  0  0  0  0  0  0
  140.7230   75.2170  221.3680 N   0  0  0  0  0  0  0  0  0  0  0  0
  140.8650   73.8070  221.5010 C   0  0  0  0  0  0  0  0  0  0  0  0
  141.2840   73.0820  220.4480 N   0  0  0  0  0  0  0  0  0  0  0  0
  141.4270   71.7490  220.5450 C   0  0  0  0  0  0  0  0  0  0  0  0
  141.8720   70.9980  219.4230 N   0  0  0  0  0  0  0  0  0  0  0  0
  140.9870   70.0110  218.8140 C   0  0  0  0  0  0  0  0  0  0  0  0
  141.6630   68.7160  218.5090 C   0  0  0  0  0  0  0  0  0  0  0  0
  143.1200   68.7110  218.7600 C   0  0  0  0  0  0  0  0  0  0  0  0
  143.7760   67.5030  218.8280 C   0  0  0  0  0  0  0  0  0  0  0  0
  145.1360   67.3940  219.0570 C   0  0  0  0  0  0  0  0  0  0  0  0
  145.8500   68.5650  219.2230 C   0  0  0  0  0  0  0  0  0  0  0  0
  145.2480   69.8060  219.1650 C   0  0  0  0  0  0  0  0  0  0  0  0
  143.8780   69.8480  218.9310 C   0  0  0  0  0  0  0  0  0  0  0  0
  143.1920   71.1850  218.8640 C   0  0  0  0  0  0  0  0  0  0  0  0
  141.1460   71.1420  221.7070 N   0  0  0  0  0  0  0  0  0  0  0  0
  140.7200   71.8400  222.7940 C   0  0  0  0  0  0  0  0  0  0  0  0
  140.4410   71.1460  223.9850 N   0  0  0  0  0  0  0  0  0  0  0  0
  139.4520   70.0810  223.9330 C   0  0  0  0  0  0  0  0  0  0  0  0
  139.9100   68.9970  224.8970 C   0  0  0  0  0  0  0  0  0  0  0  0
  139.8280   69.6300  226.2480 C   0  0  0  0  0  0  0  0  0  0  0  0
  139.1840   69.0250  227.3070 C   0  0  0  0  0  0  0  0  0  0  0  0
  139.1550   69.6800  228.5220 C   0  0  0  0  0  0  0  0  0  0  0  0
  139.7520   70.9260  228.7080 C   0  0  0  0  0  0  0  0  0  0  0  0
  140.3890   71.4930  227.6020 C   0  0  0  0  0  0  0  0  0  0  0  0
  140.4360   70.8640  226.3800 C   0  0  0  0  0  0  0  0  0  0  0  0
  141.1260   71.4940  225.2080 C   0  0  0  0  0  0  0  0  0  0  0  0
  140.5900   73.1720  222.6560 N   0  0  0  0  0  0  0  0  0  0  0  0
  141.7440   75.9960  220.6970 C   0  0  0  0  0  0  0  0  0  0  0  0
  141.2540   77.2850  220.1440 C   0  0  0  0  0  0  0  0  0  0  0  0
  143.2840   79.4880  221.5850 H   0  0  0  0  0  0  0  0  0  0  0  0
  142.9360   78.6980  223.1870 H   0  0  0  0  0  0  0  0  0  0  0  0
  139.4177   79.8896  221.3776 H   0  0  0  0  0  0  0  0  0  0  0  0
  140.8896   79.8343  220.2923 H   0  0  0  0  0  0  0  0  0  0  0  0
  139.2718   77.8535  220.2401 H   0  0  0  0  0  0  0  0  0  0  0  0
  140.9060   77.2850  222.8069 H   0  0  0  0  0  0  0  0  0  0  0  0
  139.2184   77.8024  222.8564 H   0  0  0  0  0  0  0  0  0  0  0  0
  139.2133   75.3226  222.8325 H   0  0  0  0  0  0  0  0  0  0  0  0
  138.6875   75.8084  221.2211 H   0  0  0  0  0  0  0  0  0  0  0  0
  140.1546   69.8152  219.5060 H   0  0  0  0  0  0  0  0  0  0  0  0
  140.6428   70.4305  217.8572 H   0  0  0  0  0  0  0  0  0  0  0  0
  141.2044   67.9340  219.1319 H   0  0  0  0  0  0  0  0  0  0  0  0
  141.5306   68.5402  217.4313 H   0  0  0  0  0  0  0  0  0  0  0  0
  143.1915   66.5808  218.6940 H   0  0  0  0  0  0  0  0  0  0  0  0
  145.6300   66.4124  219.1051 H   0  0  0  0  0  0  0  0  0  0  0  0
  146.9329   68.5067  219.4073 H   0  0  0  0  0  0  0  0  0  0  0  0
  145.8314   70.7288  219.2991 H   0  0  0  0  0  0  0  0  0  0  0  0
  143.7512   71.9288  219.4506 H   0  0  0  0  0  0  0  0  0  0  0  0
  143.1369   71.5522  217.8286 H   0  0  0  0  0  0  0  0  0  0  0  0
  138.4674   70.4653  224.2377 H   0  0  0  0  0  0  0  0  0  0  0  0
  139.3592   69.6828  222.9118 H   0  0  0  0  0  0  0  0  0  0  0  0
  139.2474   68.1209  224.8385 H   0  0  0  0  0  0  0  0  0  0  0  0
  140.9239   68.6375  224.6672 H   0  0  0  0  0  0  0  0  0  0  0  0
  138.7042   68.0425  227.1863 H   0  0  0  0  0  0  0  0  0  0  0  0
  138.6440   69.2030  229.3713 H   0  0  0  0  0  0  0  0  0  0  0  0
  139.7227   71.4388  229.6807 H   0  0  0  0  0  0  0  0  0  0  0  0
  140.8696   72.4763  227.7121 H   0  0  0  0  0  0  0  0  0  0  0  0
  141.1233   72.5874  225.3284 H   0  0  0  0  0  0  0  0  0  0  0  0
  142.1616   71.1263  225.1586 H   0  0  0  0  0  0  0  0  0  0  0  0
  142.5452   76.2116  221.4193 H   0  0  0  0  0  0  0  0  0  0  0  0
  142.0933   75.3958  219.8440 H   0  0  0  0  0  0  0  0  0  0  0  0
  142.1048   77.9815  220.1135 H   0  0  0  0  0  0  0  0  0  0  0  0
  140.8321   77.0395  219.1582 H   0  0  0  0  0  0  0  0  0  0  0  0
  1  2  1  0
  2  3  2  0
  2  4  1  0
  4  5  1  0
  5  6  1  0
  6  7  1  0
  7  8  1  0
  8  9  1  0
  9 10  2  0
 10 11  1  0
 11 12  1  0
 12 13  1  0
 13 14  1  0
 14 15  1  0
 15 16  2  0
 16 17  1  0
 17 18  2  0
 18 19  1  0
 19 20  2  0
 20 21  1  0
 11 22  2  0
 22 23  1  0
 23 24  1  0
 24 25  1  0
 25 26  1  0
 26 27  1  0
 27 28  2  0
 28 29  1  0
 29 30  2  0
 30 31  1  0
 31 32  2  0
 32 33  1  0
 23 34  2  0
  8 35  1  0
 35 36  1  0
 36  5  1  0
 34  9  1  0
 21 12  1  0
 33 24  1  0
 20 15  1  0
 32 27  1  0
  1 37  1  0
  1 38  1  0
  4 39  1  0
  4 40  1  0
  5 41  1  0
  6 42  1  0
  6 43  1  0
  7 44  1  0
  7 45  1  0
 13 46  1  0
 13 47  1  0
 14 48  1  0
 14 49  1  0
 16 50  1  0
 17 51  1  0
 18 52  1  0
 19 53  1  0
 21 54  1  0
 21 55  1  0
 25 56  1  0
 25 57  1  0
 26 58  1  0
 26 59  1  0
 28 60  1  0
 29 61  1  0
 30 62  1  0
 31 63  1  0
 33 64  1  0
 33 65  1  0
 35 66  1  0
 35 67  1  0
 36 68  1  0
 36 69  1  0
M  END
>  <smiles>  (6) 
NC(=O)CC1CCN(c2nc(N3CCc4ccccc4C3)nc(N3CCc4ccccc4C3)n2)CC1

>  <score_type>  (6) 
oracle

>  <origin>  (6) 
autodockgpu

>  <m_score__min__energy>  (6) 
-9.3499999999999996

>  <m_primary>  (6) 
energy

>  <rmsd>  (6) 
3.8470787805144067

>  <m_score__min__rmsd>  (6) 
3.8470787805144067

>  <meeko>  (6) 
{"free_energy": -9.16, "intermolecular_energy": -10.65, "internal_energy": -1.18, "cluster_size": 15, "cluster_id": 2, "rank_in_cluster": 6}

>  <energy>  (6) 
-9.13

>  <cluster_rmsd>  (6) 
0.7

>  <cluster>  (6) 
1

$$$$

     RDKit          3D

 69 74  0  0  0  0  0  0  0  0999 V2000
  140.6880   67.0150  226.5430 N   0  0  0  0  0  0  0  0  0  0  0  0
  140.4500   68.2820  227.1270 C   0  0  0  0  0  0  0  0  0  0  0  0
  141.3590   68.8480  227.8250 O   0  0  0  0  0  0  0  0  0  0  0  0
  139.1790   69.0070  226.9710 C   0  0  0  0  0  0  0  0  0  0  0  0
  139.1770   69.9970  225.8280 C   0  0  0  0  0  0  0  0  0  0  0  0
  139.5830   69.2210  224.5920 C   0  0  0  0  0  0  0  0  0  0  0  0
  139.3880   70.1930  223.4240 C   0  0  0  0  0  0  0  0  0  0  0  0
  140.4330   71.1850  223.5870 N   0  0  0  0  0  0  0  0  0  0  0  0
  140.9040   71.8640  222.4290 C   0  0  0  0  0  0  0  0  0  0  0  0
  141.3670   71.1510  221.3860 N   0  0  0  0  0  0  0  0  0  0  0  0
  141.8190   71.7650  220.2790 C   0  0  0  0  0  0  0  0  0  0  0  0
  142.3040   70.9960  219.1860 N   0  0  0  0  0  0  0  0  0  0  0  0
  141.3900   70.1390  218.4390 C   0  0  0  0  0  0  0  0  0  0  0  0
  141.9440   68.7810  218.1620 C   0  0  0  0  0  0  0  0  0  0  0  0
  143.3490   68.5950  218.5790 C   0  0  0  0  0  0  0  0  0  0  0  0
  143.8490   67.3160  218.6730 C   0  0  0  0  0  0  0  0  0  0  0  0
  145.1490   67.0380  219.0520 C   0  0  0  0  0  0  0  0  0  0  0  0
  145.9700   68.1110  219.3470 C   0  0  0  0  0  0  0  0  0  0  0  0
  145.5260   69.4170  219.2710 C   0  0  0  0  0  0  0  0  0  0  0  0
  144.2080   69.6280  218.8820 C   0  0  0  0  0  0  0  0  0  0  0  0
  143.6940   71.0400  218.7910 C   0  0  0  0  0  0  0  0  0  0  0  0
  141.8050   73.1040  220.2210 N   0  0  0  0  0  0  0  0  0  0  0  0
  141.3440   73.8610  221.2540 C   0  0  0  0  0  0  0  0  0  0  0  0
  141.3560   75.2620  221.1320 N   0  0  0  0  0  0  0  0  0  0  0  0
  142.1240   75.8410  220.0400 C   0  0  0  0  0  0  0  0  0  0  0  0
  141.3670   77.0710  219.5630 C   0  0  0  0  0  0  0  0  0  0  0  0
  141.4220   78.0210  220.7150 C   0  0  0  0  0  0  0  0  0  0  0  0
  141.8220   79.3340  220.5680 C   0  0  0  0  0  0  0  0  0  0  0  0
  141.8450   80.1440  221.6850 C   0  0  0  0  0  0  0  0  0  0  0  0
  141.4790   79.6800  222.9480 C   0  0  0  0  0  0  0  0  0  0  0  0
  141.0840   78.3430  223.0390 C   0  0  0  0  0  0  0  0  0  0  0  0
  141.0500   77.5110  221.9450 C   0  0  0  0  0  0  0  0  0  0  0  0
  140.6230   76.0810  222.0690 C   0  0  0  0  0  0  0  0  0  0  0  0
  140.9020   73.2080  222.3440 N   0  0  0  0  0  0  0  0  0  0  0  0
  140.9910   71.4840  224.8900 C   0  0  0  0  0  0  0  0  0  0  0  0
  140.0880   71.1570  226.0240 C   0  0  0  0  0  0  0  0  0  0  0  0
  140.5200   66.8430  225.5300 H   0  0  0  0  0  0  0  0  0  0  0  0
  141.0400   66.2610  227.1750 H   0  0  0  0  0  0  0  0  0  0  0  0
  138.3799   68.2719  226.7944 H   0  0  0  0  0  0  0  0  0  0  0  0
  139.0240   69.5840  227.8946 H   0  0  0  0  0  0  0  0  0  0  0  0
  138.1727   70.4383  225.7464 H   0  0  0  0  0  0  0  0  0  0  0  0
  140.6352   68.9081  224.6616 H   0  0  0  0  0  0  0  0  0  0  0  0
  138.9867   68.3050  224.4679 H   0  0  0  0  0  0  0  0  0  0  0  0
  139.4973   69.6699  222.4625 H   0  0  0  0  0  0  0  0  0  0  0  0
  138.3847   70.6441  223.4232 H   0  0  0  0  0  0  0  0  0  0  0  0
  140.4638   70.0256  219.0214 H   0  0  0  0  0  0  0  0  0  0  0  0
  141.2132   70.6222  217.4667 H   0  0  0  0  0  0  0  0  0  0  0  0
  141.3269   68.0430  218.6954 H   0  0  0  0  0  0  0  0  0  0  0  0
  141.9224   68.6515  217.0699 H   0  0  0  0  0  0  0  0  0  0  0  0
  143.1818   66.4744  218.4350 H   0  0  0  0  0  0  0  0  0  0  0  0
  145.5163   66.0031  219.1165 H   0  0  0  0  0  0  0  0  0  0  0  0
  147.0093   67.9186  219.6518 H   0  0  0  0  0  0  0  0  0  0  0  0
  146.1914   70.2598  219.5097 H   0  0  0  0  0  0  0  0  0  0  0  0
  144.2612   71.6955  219.4683 H   0  0  0  0  0  0  0  0  0  0  0  0
  143.8061   71.4397  217.7723 H   0  0  0  0  0  0  0  0  0  0  0  0
  143.1253   76.1279  220.3937 H   0  0  0  0  0  0  0  0  0  0  0  0
  142.2483   75.1164  219.2218 H   0  0  0  0  0  0  0  0  0  0  0  0
  141.8532   77.5065  218.6776 H   0  0  0  0  0  0  0  0  0  0  0  0
  140.3341   76.8351  219.2672 H   0  0  0  0  0  0  0  0  0  0  0  0
  142.1157   79.7257  219.5829 H   0  0  0  0  0  0  0  0  0  0  0  0
  142.1629   81.1913  221.5753 H   0  0  0  0  0  0  0  0  0  0  0  0
  141.5003   80.3357  223.8310 H   0  0  0  0  0  0  0  0  0  0  0  0
  140.7899   77.9420  224.0202 H   0  0  0  0  0  0  0  0  0  0  0  0
  140.8211   75.7294  223.0923 H   0  0  0  0  0  0  0  0  0  0  0  0
  139.5478   76.0056  221.8493 H   0  0  0  0  0  0  0  0  0  0  0  0
  141.9194   70.9063  225.0095 H   0  0  0  0  0  0  0  0  0  0  0  0
  141.1609   72.5703  224.9217 H   0  0  0  0  0  0  0  0  0  0  0  0
  140.7158   70.9454  226.9021 H   0  0  0  0  0  0  0  0  0  0  0  0
  139.4298   72.0311  226.1363 H   0  0  0  0  0  0  0  0  0  0  0  0
  1  2  1  0
  2  3  2  0
  2  4  1  0
  4  5  1  0
  5  6  1  0
  6  7  1  0
  7  8  1  0
  8  9  1  0
  9 10  2  0
 10 11  1  0
 11 12  1  0
 12 13  1  0
 13 14  1  0
 14 15  1  0
 15 16  2  0
 16 17  1  0
 17 18  2  0
 18 19  1  0
 19 20  2  0
 20 21  1  0
 11 22  2  0
 22 23  1  0
 23 24  1  0
 24 25  1  0
 25 26  1  0
 26 27  1  0
 27 28  2  0
 28 29  1  0
 29 30  2  0
 30 31  1  0
 31 32  2  0
 32 33  1  0
 23 34  2  0
  8 35  1  0
 35 36  1  0
 36  5  1  0
 34  9  1  0
 21 12  1  0
 33 24  1  0
 20 15  1  0
 32 27  1  0
  1 37  1  0
  1 38  1  0
  4 39  1  0
  4 40  1  0
  5 41  1  0
  6 42  1  0
  6 43  1  0
  7 44  1  0
  7 45  1  0
 13 46  1  0
 13 47  1  0
 14 48  1  0
 14 49  1  0
 16 50  1  0
 17 51  1  0
 18 52  1  0
 19 53  1  0
 21 54  1  0
 21 55  1  0
 25 56  1  0
 25 57  1  0
 26 58  1  0
 26 59  1  0
 28 60  1  0
 29 61  1  0
 30 62  1  0
 31 63  1  0
 33 64  1  0
 33 65  1  0
 35 66  1  0
 35 67  1  0
 36 68  1  0
 36 69  1  0
M  END
>  <smiles>  (7) 
NC(=O)CC1CCN(c2nc(N3CCc4ccccc4C3)nc(N3CCc4ccccc4C3)n2)CC1

>  <score_type>  (7) 
oracle

>  <origin>  (7) 
autodockgpu

>  <m_score__min__energy>  (7) 
-9.3499999999999996

>  <m_primary>  (7) 
energy

>  <rmsd>  (7) 
9.218722625829418

>  <m_score__min__rmsd>  (7) 
9.218722625829418

>  <meeko>  (7) 
{"free_energy": -8.97, "intermolecular_energy": -10.47, "internal_energy": -1.18, "cluster_size": 28, "cluster_id": 1, "rank_in_cluster": 16}

>  <energy>  (7) 
-9.1

>  <cluster_rmsd>  (7) 
0.69

>  <cluster>  (7) 
1

$$$$

     RDKit          3D

 69 74  0  0  0  0  0  0  0  0999 V2000
  140.1000   67.4460  226.3430 N   0  0  0  0  0  0  0  0  0  0  0  0
  139.3440   68.6350  226.2140 C   0  0  0  0  0  0  0  0  0  0  0  0
  139.2680   69.4570  227.1900 O   0  0  0  0  0  0  0  0  0  0  0  0
  138.6190   68.9910  224.9830 C   0  0  0  0  0  0  0  0  0  0  0  0
  138.8970   70.3940  224.4940 C   0  0  0  0  0  0  0  0  0  0  0  0
  138.6790   70.3720  222.9950 C   0  0  0  0  0  0  0  0  0  0  0  0
  138.7760   71.8360  222.5530 C   0  0  0  0  0  0  0  0  0  0  0  0
  140.1770   72.1790  222.7090 N   0  0  0  0  0  0  0  0  0  0  0  0
  140.7150   73.2070  221.8850 C   0  0  0  0  0  0  0  0  0  0  0  0
  140.2710   74.4700  222.0280 N   0  0  0  0  0  0  0  0  0  0  0  0
  140.7610   75.4610  221.2640 C   0  0  0  0  0  0  0  0  0  0  0  0
  140.2810   76.7890  221.4270 N   0  0  0  0  0  0  0  0  0  0  0  0
  139.9080   77.5750  220.2570 C   0  0  0  0  0  0  0  0  0  0  0  0
  140.4260   78.9740  220.2930 C   0  0  0  0  0  0  0  0  0  0  0  0
  141.1080   79.3440  221.5510 C   0  0  0  0  0  0  0  0  0  0  0  0
  141.8970   80.4720  221.5700 C   0  0  0  0  0  0  0  0  0  0  0  0
  142.5740   80.9010  222.6970 C   0  0  0  0  0  0  0  0  0  0  0  0
  142.4390   80.1470  223.8470 C   0  0  0  0  0  0  0  0  0  0  0  0
  141.6620   79.0060  223.8900 C   0  0  0  0  0  0  0  0  0  0  0  0
  141.0060   78.6280  222.7230 C   0  0  0  0  0  0  0  0  0  0  0  0
  140.1530   77.3890  222.7370 C   0  0  0  0  0  0  0  0  0  0  0  0
  141.7010   75.1810  220.3500 N   0  0  0  0  0  0  0  0  0  0  0  0
  142.1760   73.9170  220.1760 C   0  0  0  0  0  0  0  0  0  0  0  0
  143.1630   73.6880  219.2010 N   0  0  0  0  0  0  0  0  0  0  0  0
  144.3640   72.9730  219.6080 C   0  0  0  0  0  0  0  0  0  0  0  0
  144.7960   72.1150  218.4290 C   0  0  0  0  0  0  0  0  0  0  0  0
  145.1830   73.0930  217.3680 C   0  0  0  0  0  0  0  0  0  0  0  0
  146.3850   73.0120  216.6950 C   0  0  0  0  0  0  0  0  0  0  0  0
  146.6640   73.9580  215.7290 C   0  0  0  0  0  0  0  0  0  0  0  0
  145.7750   74.9850  215.4170 C   0  0  0  0  0  0  0  0  0  0  0  0
  144.5740   75.0200  216.1300 C   0  0  0  0  0  0  0  0  0  0  0  0
  144.2670   74.0920  217.0960 C   0  0  0  0  0  0  0  0  0  0  0  0
  142.9720   74.1520  217.8470 C   0  0  0  0  0  0  0  0  0  0  0  0
  141.6600   72.9540  220.9600 N   0  0  0  0  0  0  0  0  0  0  0  0
  141.0160   71.4990  223.6750 C   0  0  0  0  0  0  0  0  0  0  0  0
  140.2650   70.8880  224.8030 C   0  0  0  0  0  0  0  0  0  0  0  0
  140.8210   67.1810  225.6410 H   0  0  0  0  0  0  0  0  0  0  0  0
  139.9000   66.8460  227.1740 H   0  0  0  0  0  0  0  0  0  0  0  0
  138.9107   68.2842  224.1922 H   0  0  0  0  0  0  0  0  0  0  0  0
  137.5456   68.9410  225.2182 H   0  0  0  0  0  0  0  0  0  0  0  0
  138.2227   71.0891  225.0157 H   0  0  0  0  0  0  0  0  0  0  0  0
  139.4545   69.7679  222.5013 H   0  0  0  0  0  0  0  0  0  0  0  0
  137.7102   69.9252  222.7271 H   0  0  0  0  0  0  0  0  0  0  0  0
  138.4650   71.9452  221.5035 H   0  0  0  0  0  0  0  0  0  0  0  0
  138.1199   72.4921  223.1438 H   0  0  0  0  0  0  0  0  0  0  0  0
  140.3082   77.0780  219.3610 H   0  0  0  0  0  0  0  0  0  0  0  0
  138.8098   77.6357  220.2433 H   0  0  0  0  0  0  0  0  0  0  0  0
  141.1408   79.0969  219.4659 H   0  0  0  0  0  0  0  0  0  0  0  0
  139.5500   79.6337  220.2069 H   0  0  0  0  0  0  0  0  0  0  0  0
  141.9935   81.0597  220.6452 H   0  0  0  0  0  0  0  0  0  0  0  0
  143.1963   81.8079  222.6786 H   0  0  0  0  0  0  0  0  0  0  0  0
  142.9674   80.4658  224.7576 H   0  0  0  0  0  0  0  0  0  0  0  0
  141.5653   78.4171  224.8141 H   0  0  0  0  0  0  0  0  0  0  0  0
  140.5074   76.6921  223.5107 H   0  0  0  0  0  0  0  0  0  0  0  0
  139.1040   77.6301  222.9639 H   0  0  0  0  0  0  0  0  0  0  0  0
  145.1594   73.6878  219.8657 H   0  0  0  0  0  0  0  0  0  0  0  0
  144.1675   72.3506  220.4934 H   0  0  0  0  0  0  0  0  0  0  0  0
  145.6525   71.4818  218.7036 H   0  0  0  0  0  0  0  0  0  0  0  0
  143.9985   71.4344  218.0960 H   0  0  0  0  0  0  0  0  0  0  0  0
  147.1045   72.2118  216.9231 H   0  0  0  0  0  0  0  0  0  0  0  0
  147.6197   73.8992  215.1876 H   0  0  0  0  0  0  0  0  0  0  0  0
  146.0081   75.7333  214.6452 H   0  0  0  0  0  0  0  0  0  0  0  0
  143.8492   75.8178  215.9106 H   0  0  0  0  0  0  0  0  0  0  0  0
  142.6098   75.1905  217.8657 H   0  0  0  0  0  0  0  0  0  0  0  0
  142.2344   73.5080  217.3458 H   0  0  0  0  0  0  0  0  0  0  0  0
  141.5672   70.7021  223.1543 H   0  0  0  0  0  0  0  0  0  0  0  0
  141.6815   72.2592  224.1100 H   0  0  0  0  0  0  0  0  0  0  0  0
  140.8530   70.0357  225.1742 H   0  0  0  0  0  0  0  0  0  0  0  0
  140.1257   71.6975  225.5347 H   0  0  0  0  0  0  0  0  0  0  0  0
  1  2  1  0
  2  3  2  0
  2  4  1  0
  4  5  1  0
  5  6  1  0
  6  7  1  0
  7  8  1  0
  8  9  1  0
  9 10  2  0
 10 11  1  0
 11 12  1  0
 12 13  1  0
 13 14  1  0
 14 15  1  0
 15 16  2  0
 16 17  1  0
 17 18  2  0
 18 19  1  0
 19 20  2  0
 20 21  1  0
 11 22  2  0
 22 23  1  0
 23 24  1  0
 24 25  1  0
 25 26  1  0
 26 27  1  0
 27 28  2  0
 28 29  1  0
 29 30  2  0
 30 31  1  0
 31 32  2  0
 32 33  1  0
 23 34  2  0
  8 35  1  0
 35 36  1  0
 36  5  1  0
 34  9  1  0
 21 12  1  0
 33 24  1  0
 20 15  1  0
 32 27  1  0
  1 37  1  0
  1 38  1  0
  4 39  1  0
  4 40  1  0
  5 41  1  0
  6 42  1  0
  6 43  1  0
  7 44  1  0
  7 45  1  0
 13 46  1  0
 13 47  1  0
 14 48  1  0
 14 49  1  0
 16 50  1  0
 17 51  1  0
 18 52  1  0
 19 53  1  0
 21 54  1  0
 21 55  1  0
 25 56  1  0
 25 57  1  0
 26 58  1  0
 26 59  1  0
 28 60  1  0
 29 61  1  0
 30 62  1  0
 31 63  1  0
 33 64  1  0
 33 65  1  0
 35 66  1  0
 35 67  1  0
 36 68  1  0
 36 69  1  0
M  END
>  <smiles>  (8) 
NC(=O)CC1CCN(c2nc(N3CCc4ccccc4C3)nc(N3CCc4ccccc4C3)n2)CC1

>  <score_type>  (8) 
oracle

>  <origin>  (8) 
autodockgpu

>  <m_score__min__energy>  (8) 
-9.3499999999999996

>  <m_primary>  (8) 
energy

>  <rmsd>  (8) 
8.168737888980681

>  <m_score__min__rmsd>  (8) 
8.168737888980681

>  <meeko>  (8) 
{"free_energy": -8.58, "intermolecular_energy": -10.07, "internal_energy": -1.11, "cluster_size": 28, "cluster_id": 1, "rank_in_cluster": 23}

>  <energy>  (8) 
-9.1

>  <cluster_rmsd>  (8) 
1.47

>  <cluster>  (8) 
1

$$$$

     RDKit          3D

 69 74  0  0  0  0  0  0  0  0999 V2000
  140.7460   67.1690  226.6920 N   0  0  0  0  0  0  0  0  0  0  0  0
  140.4670   68.3370  227.4440 C   0  0  0  0  0  0  0  0  0  0  0  0
  141.3290   68.7880  228.2720 O   0  0  0  0  0  0  0  0  0  0  0  0
  139.2040   69.0820  227.3210 C   0  0  0  0  0  0  0  0  0  0  0  0
  139.2170   70.1310  226.2330 C   0  0  0  0  0  0  0  0  0  0  0  0
  139.2910   69.3810  224.9190 C   0  0  0  0  0  0  0  0  0  0  0  0
  139.1100   70.4480  223.8350 C   0  0  0  0  0  0  0  0  0  0  0  0
  140.3310   71.2290  223.8740 N   0  0  0  0  0  0  0  0  0  0  0  0
  140.7450   71.8910  222.6840 C   0  0  0  0  0  0  0  0  0  0  0  0
  141.1510   71.1630  221.6280 N   0  0  0  0  0  0  0  0  0  0  0  0
  141.5480   71.7610  220.4920 C   0  0  0  0  0  0  0  0  0  0  0  0
  141.9740   70.9760  219.3860 N   0  0  0  0  0  0  0  0  0  0  0  0
  141.0740   69.9810  218.8130 C   0  0  0  0  0  0  0  0  0  0  0  0
  141.7360   68.6730  218.5360 C   0  0  0  0  0  0  0  0  0  0  0  0
  143.1950   68.6620  218.7700 C   0  0  0  0  0  0  0  0  0  0  0  0
  143.8420   67.4500  218.8630 C   0  0  0  0  0  0  0  0  0  0  0  0
  145.2030   67.3350  219.0800 C   0  0  0  0  0  0  0  0  0  0  0  0
  145.9300   68.5040  219.2070 C   0  0  0  0  0  0  0  0  0  0  0  0
  145.3370   69.7490  219.1220 C   0  0  0  0  0  0  0  0  0  0  0  0
  143.9650   69.7960  218.9020 C   0  0  0  0  0  0  0  0  0  0  0  0
  143.2890   71.1370  218.8070 C   0  0  0  0  0  0  0  0  0  0  0  0
  141.5380   73.0990  220.4180 N   0  0  0  0  0  0  0  0  0  0  0  0
  141.1340   73.8710  221.4630 C   0  0  0  0  0  0  0  0  0  0  0  0
  141.1450   75.2700  221.3230 N   0  0  0  0  0  0  0  0  0  0  0  0
  141.7760   75.8280  220.1370 C   0  0  0  0  0  0  0  0  0  0  0  0
  140.9790   77.0620  219.7430 C   0  0  0  0  0  0  0  0  0  0  0  0
  141.1890   78.0240  220.8670 C   0  0  0  0  0  0  0  0  0  0  0  0
  141.5810   79.3300  220.6540 C   0  0  0  0  0  0  0  0  0  0  0  0
  141.7530   80.1520  221.7490 C   0  0  0  0  0  0  0  0  0  0  0  0
  141.5440   79.7060  223.0530 C   0  0  0  0  0  0  0  0  0  0  0  0
  141.1490   78.3760  223.2100 C   0  0  0  0  0  0  0  0  0  0  0  0
  140.9690   77.5320  222.1390 C   0  0  0  0  0  0  0  0  0  0  0  0
  140.5450   76.1080  222.3340 C   0  0  0  0  0  0  0  0  0  0  0  0
  140.7450   73.2340  222.5820 N   0  0  0  0  0  0  0  0  0  0  0  0
  141.1170   71.3380  225.0860 C   0  0  0  0  0  0  0  0  0  0  0  0
  140.3430   71.0990  226.3310 C   0  0  0  0  0  0  0  0  0  0  0  0
  140.6400   67.1520  225.6570 H   0  0  0  0  0  0  0  0  0  0  0  0
  141.0620   66.3290  227.2250 H   0  0  0  0  0  0  0  0  0  0  0  0
  138.3987   68.3654  227.1020 H   0  0  0  0  0  0  0  0  0  0  0  0
  139.0503   69.6106  228.2733 H   0  0  0  0  0  0  0  0  0  0  0  0
  138.3089   70.7448  226.3261 H   0  0  0  0  0  0  0  0  0  0  0  0
  140.2671   68.8851  224.8126 H   0  0  0  0  0  0  0  0  0  0  0  0
  138.5256   68.5938  224.8520 H   0  0  0  0  0  0  0  0  0  0  0  0
  138.9815   69.9794  222.8481 H   0  0  0  0  0  0  0  0  0  0  0  0
  138.2167   71.0664  224.0072 H   0  0  0  0  0  0  0  0  0  0  0  0
  140.2475   69.8110  219.5187 H   0  0  0  0  0  0  0  0  0  0  0  0
  140.7227   70.3777  217.8491 H   0  0  0  0  0  0  0  0  0  0  0  0
  141.2783   67.9121  219.1853 H   0  0  0  0  0  0  0  0  0  0  0  0
  141.5898   68.4694  217.4649 H   0  0  0  0  0  0  0  0  0  0  0  0
  143.2482   66.5298  218.7598 H   0  0  0  0  0  0  0  0  0  0  0  0
  145.6888   66.3505  219.1489 H   0  0  0  0  0  0  0  0  0  0  0  0
  147.0143   68.4410  219.3811 H   0  0  0  0  0  0  0  0  0  0  0  0
  145.9293   70.6702  219.2247 H   0  0  0  0  0  0  0  0  0  0  0  0
  143.8610   71.8914  219.3671 H   0  0  0  0  0  0  0  0  0  0  0  0
  143.2249   71.4770  217.7628 H   0  0  0  0  0  0  0  0  0  0  0  0
  142.8167   76.1064  220.3592 H   0  0  0  0  0  0  0  0  0  0  0  0
  141.7886   75.0931  219.3186 H   0  0  0  0  0  0  0  0  0  0  0  0
  141.3551   77.4813  218.7981 H   0  0  0  0  0  0  0  0  0  0  0  0
  139.9146   76.8361  219.5819 H   0  0  0  0  0  0  0  0  0  0  0  0
  141.7524   79.7070  219.6349 H   0  0  0  0  0  0  0  0  0  0  0  0
  142.0656   81.1942  221.5874 H   0  0  0  0  0  0  0  0  0  0  0  0
  141.6838   80.3709  223.9181 H   0  0  0  0  0  0  0  0  0  0  0  0
  140.9758   77.9899  224.2253 H   0  0  0  0  0  0  0  0  0  0  0  0
  140.8665   75.7654  223.3286 H   0  0  0  0  0  0  0  0  0  0  0  0
  139.4499   76.0435  222.2524 H   0  0  0  0  0  0  0  0  0  0  0  0
  141.9313   70.6000  225.0378 H   0  0  0  0  0  0  0  0  0  0  0  0
  141.4861   72.3731  225.1342 H   0  0  0  0  0  0  0  0  0  0  0  0
  141.0419   70.7238  227.0930 H   0  0  0  0  0  0  0  0  0  0  0  0
  139.8780   72.0651  226.5767 H   0  0  0  0  0  0  0  0  0  0  0  0
  1  2  1  0
  2  3  2  0
  2  4  1  0
  4  5  1  0
  5  6  1  0
  6  7  1  0
  7  8  1  0
  8  9  1  0
  9 10  2  0
 10 11  1  0
 11 12  1  0
 12 13  1  0
 13 14  1  0
 14 15  1  0
 15 16  2  0
 16 17  1  0
 17 18  2  0
 18 19  1  0
 19 20  2  0
 20 21  1  0
 11 22  2  0
 22 23  1  0
 23 24  1  0
 24 25  1  0
 25 26  1  0
 26 27  1  0
 27 28  2  0
 28 29  1  0
 29 30  2  0
 30 31  1  0
 31 32  2  0
 32 33  1  0
 23 34  2  0
  8 35  1  0
 35 36  1  0
 36  5  1  0
 34  9  1  0
 21 12  1  0
 33 24  1  0
 20 15  1  0
 32 27  1  0
  1 37  1  0
  1 38  1  0
  4 39  1  0
  4 40  1  0
  5 41  1  0
  6 42  1  0
  6 43  1  0
  7 44  1  0
  7 45  1  0
 13 46  1  0
 13 47  1  0
 14 48  1  0
 14 49  1  0
 16 50  1  0
 17 51  1  0
 18 52  1  0
 19 53  1  0
 21 54  1  0
 21 55  1  0
 25 56  1  0
 25 57  1  0
 26 58  1  0
 26 59  1  0
 28 60  1  0
 29 61  1  0
 30 62  1  0
 31 63  1  0
 33 64  1  0
 33 65  1  0
 35 66  1  0
 35 67  1  0
 36 68  1  0
 36 69  1  0
M  END
>  <smiles>  (9) 
NC(=O)CC1CCN(c2nc(N3CCc4ccccc4C3)nc(N3CCc4ccccc4C3)n2)CC1

>  <score_type>  (9) 
oracle

>  <origin>  (9) 
autodockgpu

>  <m_score__min__energy>  (9) 
-9.3499999999999996

>  <m_primary>  (9) 
energy

>  <rmsd>  (9) 
9.36235890213247

>  <m_score__min__rmsd>  (9) 
9.36235890213247

>  <meeko>  (9) 
{"free_energy": -8.94, "intermolecular_energy": -10.43, "internal_energy": -1.17, "cluster_size": 28, "cluster_id": 1, "rank_in_cluster": 18}

>  <energy>  (9) 
-9.09

>  <cluster_rmsd>  (9) 
0.71

>  <cluster>  (9) 
1

$$$$

     RDKit          3D

 69 74  0  0  0  0  0  0  0  0999 V2000
  142.7150   79.3770  222.3700 N   0  0  0  0  0  0  0  0  0  0  0  0
  141.3260   79.6170  222.2300 C   0  0  0  0  0  0  0  0  0  0  0  0
  140.6560   80.0930  223.2080 O   0  0  0  0  0  0  0  0  0  0  0  0
  140.5910   79.3430  220.9850 C   0  0  0  0  0  0  0  0  0  0  0  0
  140.3020   77.8760  220.7570 C   0  0  0  0  0  0  0  0  0  0  0  0
  140.0830   77.2680  222.1270 C   0  0  0  0  0  0  0  0  0  0  0  0
  139.6060   75.8370  221.8600 C   0  0  0  0  0  0  0  0  0  0  0  0
  140.7720   75.1470  221.3420 N   0  0  0  0  0  0  0  0  0  0  0  0
  140.8620   73.7390  221.5320 C   0  0  0  0  0  0  0  0  0  0  0  0
  141.2160   72.9540  220.4980 N   0  0  0  0  0  0  0  0  0  0  0  0
  141.3090   71.6220  220.6470 C   0  0  0  0  0  0  0  0  0  0  0  0
  141.6850   70.8060  219.5450 N   0  0  0  0  0  0  0  0  0  0  0  0
  140.7560   69.8060  219.0320 C   0  0  0  0  0  0  0  0  0  0  0  0
  141.3960   68.4850  218.7620 C   0  0  0  0  0  0  0  0  0  0  0  0
  142.8630   68.4670  218.9390 C   0  0  0  0  0  0  0  0  0  0  0  0
  143.5040   67.2530  219.0370 C   0  0  0  0  0  0  0  0  0  0  0  0
  144.8710   67.1310  219.2030 C   0  0  0  0  0  0  0  0  0  0  0  0
  145.6110   68.2970  219.2730 C   0  0  0  0  0  0  0  0  0  0  0  0
  145.0250   69.5440  219.1810 C   0  0  0  0  0  0  0  0  0  0  0  0
  143.6460   69.5980  219.0130 C   0  0  0  0  0  0  0  0  0  0  0  0
  142.9770   70.9420  218.9110 C   0  0  0  0  0  0  0  0  0  0  0  0
  141.0440   71.0760  221.8420 N   0  0  0  0  0  0  0  0  0  0  0  0
  140.6830   71.8360  222.9120 C   0  0  0  0  0  0  0  0  0  0  0  0
  140.4180   71.2040  224.1400 N   0  0  0  0  0  0  0  0  0  0  0  0
  141.1990   71.6150  225.2970 C   0  0  0  0  0  0  0  0  0  0  0  0
  140.2800   71.5470  226.5060 C   0  0  0  0  0  0  0  0  0  0  0  0
  139.9640   70.0950  226.6610 C   0  0  0  0  0  0  0  0  0  0  0  0
  140.0960   69.4370  227.8670 C   0  0  0  0  0  0  0  0  0  0  0  0
  139.7830   68.0940  227.9220 C   0  0  0  0  0  0  0  0  0  0  0  0
  139.3420   67.3870  226.8050 C   0  0  0  0  0  0  0  0  0  0  0  0
  139.2270   68.1020  225.6100 C   0  0  0  0  0  0  0  0  0  0  0  0
  139.5300   69.4400  225.5240 C   0  0  0  0  0  0  0  0  0  0  0  0
  139.4000   70.1840  224.2300 C   0  0  0  0  0  0  0  0  0  0  0  0
  140.6010   73.1650  222.7210 N   0  0  0  0  0  0  0  0  0  0  0  0
  141.8240   75.8620  220.6480 C   0  0  0  0  0  0  0  0  0  0  0  0
  141.3840   77.1450  220.0420 C   0  0  0  0  0  0  0  0  0  0  0  0
  143.4020   79.7480  221.6830 H   0  0  0  0  0  0  0  0  0  0  0  0
  143.0160   78.8110  223.1940 H   0  0  0  0  0  0  0  0  0  0  0  0
  139.6337   79.8835  221.0213 H   0  0  0  0  0  0  0  0  0  0  0  0
  141.2314   79.6762  220.1550 H   0  0  0  0  0  0  0  0  0  0  0  0
  139.4221   77.7878  220.1028 H   0  0  0  0  0  0  0  0  0  0  0  0
  141.0217   77.2610  222.7004 H   0  0  0  0  0  0  0  0  0  0  0  0
  139.3538   77.8406  222.7190 H   0  0  0  0  0  0  0  0  0  0  0  0
  139.2582   75.3647  222.7906 H   0  0  0  0  0  0  0  0  0  0  0  0
  138.7599   75.8061  221.1578 H   0  0  0  0  0  0  0  0  0  0  0  0
  139.9560   69.6608  219.7729 H   0  0  0  0  0  0  0  0  0  0  0  0
  140.3713   70.1823  218.0726 H   0  0  0  0  0  0  0  0  0  0  0  0
  140.9581   67.7446  219.4476 H   0  0  0  0  0  0  0  0  0  0  0  0
  141.2059   68.2560  217.7030 H   0  0  0  0  0  0  0  0  0  0  0  0
  142.8995   66.3357  218.9805 H   0  0  0  0  0  0  0  0  0  0  0  0
  145.3516   66.1443  219.2766 H   0  0  0  0  0  0  0  0  0  0  0  0
  146.7008   68.2291  219.4062 H   0  0  0  0  0  0  0  0  0  0  0  0
  145.6280   70.4622  219.2386 H   0  0  0  0  0  0  0  0  0  0  0  0
  143.5762   71.7052  219.4292 H   0  0  0  0  0  0  0  0  0  0  0  0
  142.8744   71.2569  217.8620 H   0  0  0  0  0  0  0  0  0  0  0  0
  142.0541   70.9369  225.4348 H   0  0  0  0  0  0  0  0  0  0  0  0
  141.5918   72.6335  225.1615 H   0  0  0  0  0  0  0  0  0  0  0  0
  140.7891   71.9310  227.4023 H   0  0  0  0  0  0  0  0  0  0  0  0
  139.3748   72.1583  226.3756 H   0  0  0  0  0  0  0  0  0  0  0  0
  140.4428   69.9709  228.7640 H   0  0  0  0  0  0  0  0  0  0  0  0
  139.8851   67.5635  228.8802 H   0  0  0  0  0  0  0  0  0  0  0  0
  139.0960   66.3164  226.8614 H   0  0  0  0  0  0  0  0  0  0  0  0
  138.8823   67.5762  224.7074 H   0  0  0  0  0  0  0  0  0  0  0  0
  139.5150   69.4802  223.3925 H   0  0  0  0  0  0  0  0  0  0  0  0
  138.4090   70.6593  224.1858 H   0  0  0  0  0  0  0  0  0  0  0  0
  142.6286   76.0768  221.3666 H   0  0  0  0  0  0  0  0  0  0  0  0
  142.1558   75.2166  219.8213 H   0  0  0  0  0  0  0  0  0  0  0  0
  142.2595   77.8089  219.9906 H   0  0  0  0  0  0  0  0  0  0  0  0
  140.9592   76.8765  219.0635 H   0  0  0  0  0  0  0  0  0  0  0  0
  1  2  1  0
  2  3  2  0
  2  4  1  0
  4  5  1  0
  5  6  1  0
  6  7  1  0
  7  8  1  0
  8  9  1  0
  9 10  2  0
 10 11  1  0
 11 12  1  0
 12 13  1  0
 13 14  1  0
 14 15  1  0
 15 16  2  0
 16 17  1  0
 17 18  2  0
 18 19  1  0
 19 20  2  0
 20 21  1  0
 11 22  2  0
 22 23  1  0
 23 24  1  0
 24 25  1  0
 25 26  1  0
 26 27  1  0
 27 28  2  0
 28 29  1  0
 29 30  2  0
 30 31  1  0
 31 32  2  0
 32 33  1  0
 23 34  2  0
  8 35  1  0
 35 36  1  0
 36  5  1  0
 34  9  1  0
 21 12  1  0
 33 24  1  0
 20 15  1  0
 32 27  1  0
  1 37  1  0
  1 38  1  0
  4 39  1  0
  4 40  1  0
  5 41  1  0
  6 42  1  0
  6 43  1  0
  7 44  1  0
  7 45  1  0
 13 46  1  0
 13 47  1  0
 14 48  1  0
 14 49  1  0
 16 50  1  0
 17 51  1  0
 18 52  1  0
 19 53  1  0
 21 54  1  0
 21 55  1  0
 25 56  1  0
 25 57  1  0
 26 58  1  0
 26 59  1  0
 28 60  1  0
 29 61  1  0
 30 62  1  0
 31 63  1  0
 33 64  1  0
 33 65  1  0
 35 66  1  0
 35 67  1  0
 36 68  1  0
 36 69  1  0
M  END
>  <smiles>  (10) 
NC(=O)CC1CCN(c2nc(N3CCc4ccccc4C3)nc(N3CCc4ccccc4C3)n2)CC1

>  <score_type>  (10) 
oracle

>  <origin>  (10) 
autodockgpu

>  <m_score__min__energy>  (10) 
-9.3499999999999996

>  <m_primary>  (10) 
energy

>  <rmsd>  (10) 
3.7873724068464827

>  <m_score__min__rmsd>  (10) 
3.7873724068464827

>  <meeko>  (10) 
{"free_energy": -9.2, "intermolecular_energy": -10.69, "internal_energy": -1.18, "cluster_size": 15, "cluster_id": 2, "rank_in_cluster": 4}

>  <energy>  (10) 
-9.09

>  <cluster_rmsd>  (10) 
1.32

>  <cluster>  (10) 
1

$$$$

     RDKit          3D

 69 74  0  0  0  0  0  0  0  0999 V2000
  140.0940   67.3920  227.1960 N   0  0  0  0  0  0  0  0  0  0  0  0
  139.9780   68.4250  226.2350 C   0  0  0  0  0  0  0  0  0  0  0  0
  141.0260   68.9490  225.7260 O   0  0  0  0  0  0  0  0  0  0  0  0
  138.6800   68.9460  225.7760 C   0  0  0  0  0  0  0  0  0  0  0  0
  138.7880   70.1900  224.9240 C   0  0  0  0  0  0  0  0  0  0  0  0
  139.2620   69.7320  223.5610 C   0  0  0  0  0  0  0  0  0  0  0  0
  139.1790   70.9750  222.6680 C   0  0  0  0  0  0  0  0  0  0  0  0
  140.2360   71.8460  223.1430 N   0  0  0  0  0  0  0  0  0  0  0  0
  140.8090   72.7730  222.2280 C   0  0  0  0  0  0  0  0  0  0  0  0
  140.4000   74.0550  222.2420 N   0  0  0  0  0  0  0  0  0  0  0  0
  140.9220   74.9530  221.3890 C   0  0  0  0  0  0  0  0  0  0  0  0
  140.4800   76.3030  221.4170 N   0  0  0  0  0  0  0  0  0  0  0  0
  140.2620   77.0220  220.1670 C   0  0  0  0  0  0  0  0  0  0  0  0
  140.8260   78.4030  220.1700 C   0  0  0  0  0  0  0  0  0  0  0  0
  141.3860   78.8340  221.4690 C   0  0  0  0  0  0  0  0  0  0  0  0
  142.2110   79.9350  221.5020 C   0  0  0  0  0  0  0  0  0  0  0  0
  142.7820   80.4160  222.6660 C   0  0  0  0  0  0  0  0  0  0  0  0
  142.4990   79.7440  223.8400 C   0  0  0  0  0  0  0  0  0  0  0  0
  141.6780   78.6330  223.8700 C   0  0  0  0  0  0  0  0  0  0  0  0
  141.1340   78.2010  222.6660 C   0  0  0  0  0  0  0  0  0  0  0  0
  140.2380   76.9920  222.6650 C   0  0  0  0  0  0  0  0  0  0  0  0
  141.8610   74.5590  220.5170 N   0  0  0  0  0  0  0  0  0  0  0  0
  142.3010   73.2720  220.4710 C   0  0  0  0  0  0  0  0  0  0  0  0
  143.2880   72.9200  219.5330 N   0  0  0  0  0  0  0  0  0  0  0  0
  143.2040   73.5110  218.2070 C   0  0  0  0  0  0  0  0  0  0  0  0
  144.6280   73.7450  217.7280 C   0  0  0  0  0  0  0  0  0  0  0  0
  145.2100   72.3770  217.5830 C   0  0  0  0  0  0  0  0  0  0  0  0
  145.8620   71.9720  216.4360 C   0  0  0  0  0  0  0  0  0  0  0  0
  146.3690   70.6890  216.3840 C   0  0  0  0  0  0  0  0  0  0  0  0
  146.2430   69.7970  217.4480 C   0  0  0  0  0  0  0  0  0  0  0  0
  145.5730   70.2590  218.5840 C   0  0  0  0  0  0  0  0  0  0  0  0
  145.0580   71.5310  218.6650 C   0  0  0  0  0  0  0  0  0  0  0  0
  144.3430   72.0030  219.8950 C   0  0  0  0  0  0  0  0  0  0  0  0
  141.7530   72.4050  221.3410 N   0  0  0  0  0  0  0  0  0  0  0  0
  140.7060   71.7830  224.5120 C   0  0  0  0  0  0  0  0  0  0  0  0
  139.7130   71.2220  225.4660 C   0  0  0  0  0  0  0  0  0  0  0  0
  139.5790   66.4930  227.0920 H   0  0  0  0  0  0  0  0  0  0  0  0
  140.7180   67.5740  228.0130 H   0  0  0  0  0  0  0  0  0  0  0  0
  138.1816   68.1633  225.1852 H   0  0  0  0  0  0  0  0  0  0  0  0
  138.1099   69.2224  226.6752 H   0  0  0  0  0  0  0  0  0  0  0  0
  137.8047   70.6820  224.8926 H   0  0  0  0  0  0  0  0  0  0  0  0
  140.2975   69.3650  223.6160 H   0  0  0  0  0  0  0  0  0  0  0  0
  138.6523   68.9039  223.1706 H   0  0  0  0  0  0  0  0  0  0  0  0
  139.3432   70.7062  221.6141 H   0  0  0  0  0  0  0  0  0  0  0  0
  138.1912   71.4564  222.7187 H   0  0  0  0  0  0  0  0  0  0  0  0
  140.7345   76.4545  219.3517 H   0  0  0  0  0  0  0  0  0  0  0  0
  139.1743   77.1165  220.0330 H   0  0  0  0  0  0  0  0  0  0  0  0
  141.6278   78.4483  219.4182 H   0  0  0  0  0  0  0  0  0  0  0  0
  139.9900   79.0828  219.9488 H   0  0  0  0  0  0  0  0  0  0  0  0
  142.4264   80.4570  220.5580 H   0  0  0  0  0  0  0  0  0  0  0  0
  143.4366   81.3000  222.6578 H   0  0  0  0  0  0  0  0  0  0  0  0
  142.9413   80.1050  224.7802 H   0  0  0  0  0  0  0  0  0  0  0  0
  141.4626   78.1091  224.8130 H   0  0  0  0  0  0  0  0  0  0  0  0
  140.4825   76.3371  223.5143 H   0  0  0  0  0  0  0  0  0  0  0  0
  139.1808   77.2801  222.7619 H   0  0  0  0  0  0  0  0  0  0  0  0
  142.6835   72.8261  217.5214 H   0  0  0  0  0  0  0  0  0  0  0  0
  142.6414   74.4558  218.2355 H   0  0  0  0  0  0  0  0  0  0  0  0
  144.6306   74.2718  216.7624 H   0  0  0  0  0  0  0  0  0  0  0  0
  145.2041   74.3701  218.4262 H   0  0  0  0  0  0  0  0  0  0  0  0
  145.9752   72.6563  215.5822 H   0  0  0  0  0  0  0  0  0  0  0  0
  146.8897   70.3596  215.4728 H   0  0  0  0  0  0  0  0  0  0  0  0
  146.6519   68.7771  217.3957 H   0  0  0  0  0  0  0  0  0  0  0  0
  145.4536   69.5818  219.4426 H   0  0  0  0  0  0  0  0  0  0  0  0
  143.9098   71.1381  220.4188 H   0  0  0  0  0  0  0  0  0  0  0  0
  145.0586   72.5181  220.5527 H   0  0  0  0  0  0  0  0  0  0  0  0
  141.6071   71.1527  224.5399 H   0  0  0  0  0  0  0  0  0  0  0  0
  140.9034   72.8176  224.8291 H   0  0  0  0  0  0  0  0  0  0  0  0
  140.2686   70.7690  226.3003 H   0  0  0  0  0  0  0  0  0  0  0  0
  139.0720   72.0684  225.7536 H   0  0  0  0  0  0  0  0  0  0  0  0
  1  2  1  0
  2  3  2  0
  2  4  1  0
  4  5  1  0
  5  6  1  0
  6  7  1  0
  7  8  1  0
  8  9  1  0
  9 10  2  0
 10 11  1  0
 11 12  1  0
 12 13  1  0
 13 14  1  0
 14 15  1  0
 15 16  2  0
 16 17  1  0
 17 18  2  0
 18 19  1  0
 19 20  2  0
 20 21  1  0
 11 22  2  0
 22 23  1  0
 23 24  1  0
 24 25  1  0
 25 26  1  0
 26 27  1  0
 27 28  2  0
 28 29  1  0
 29 30  2  0
 30 31  1  0
 31 32  2  0
 32 33  1  0
 23 34  2  0
  8 35  1  0
 35 36  1  0
 36  5  1  0
 34  9  1  0
 21 12  1  0
 33 24  1  0
 20 15  1  0
 32 27  1  0
  1 37  1  0
  1 38  1  0
  4 39  1  0
  4 40  1  0
  5 41  1  0
  6 42  1  0
  6 43  1  0
  7 44  1  0
  7 45  1  0
 13 46  1  0
 13 47  1  0
 14 48  1  0
 14 49  1  0
 16 50  1  0
 17 51  1  0
 18 52  1  0
 19 53  1  0
 21 54  1  0
 21 55  1  0
 25 56  1  0
 25 57  1  0
 26 58  1  0
 26 59  1  0
 28 60  1  0
 29 61  1  0
 30 62  1  0
 31 63  1  0
 33 64  1  0
 33 65  1  0
 35 66  1  0
 35 67  1  0
 36 68  1  0
 36 69  1  0
M  END
>  <smiles>  (11) 
NC(=O)CC1CCN(c2nc(N3CCc4ccccc4C3)nc(N3CCc4ccccc4C3)n2)CC1

>  <score_type>  (11) 
oracle

>  <origin>  (11) 
autodockgpu

>  <m_score__min__energy>  (11) 
-9.3499999999999996

>  <m_primary>  (11) 
energy

>  <rmsd>  (11) 
8.644929665255184

>  <m_score__min__rmsd>  (11) 
8.644929665255184

>  <meeko>  (11) 
{"free_energy": -8.97, "intermolecular_energy": -10.46, "internal_energy": -0.96, "cluster_size": 28, "cluster_id": 1, "rank_in_cluster": 17}

>  <energy>  (11) 
-9.08

>  <cluster_rmsd>  (11) 
1.47

>  <cluster>  (11) 
1

$$$$

     RDKit          3D

 69 74  0  0  0  0  0  0  0  0999 V2000
  142.7760   80.4050  222.1350 N   0  0  0  0  0  0  0  0  0  0  0  0
  141.7370   80.5900  221.1920 C   0  0  0  0  0  0  0  0  0  0  0  0
  141.4400   81.7650  220.7860 O   0  0  0  0  0  0  0  0  0  0  0  0
  140.9570   79.4730  220.6340 C   0  0  0  0  0  0  0  0  0  0  0  0
  141.4360   78.1100  221.0820 C   0  0  0  0  0  0  0  0  0  0  0  0
  141.4890   77.2490  219.8370 C   0  0  0  0  0  0  0  0  0  0  0  0
  142.1550   75.9420  220.2800 C   0  0  0  0  0  0  0  0  0  0  0  0
  141.1730   75.2920  221.1270 N   0  0  0  0  0  0  0  0  0  0  0  0
  141.2050   73.8730  221.2300 C   0  0  0  0  0  0  0  0  0  0  0  0
  141.6310   73.1440  220.1830 N   0  0  0  0  0  0  0  0  0  0  0  0
  141.6720   71.8020  220.2510 C   0  0  0  0  0  0  0  0  0  0  0  0
  142.1250   71.0460  219.1360 N   0  0  0  0  0  0  0  0  0  0  0  0
  141.2130   70.1300  218.4610 C   0  0  0  0  0  0  0  0  0  0  0  0
  141.8220   68.8010  218.1610 C   0  0  0  0  0  0  0  0  0  0  0  0
  143.2600   68.6980  218.4830 C   0  0  0  0  0  0  0  0  0  0  0  0
  143.8350   67.4500  218.5570 C   0  0  0  0  0  0  0  0  0  0  0  0
  145.1720   67.2490  218.8510 C   0  0  0  0  0  0  0  0  0  0  0  0
  145.9490   68.3690  219.0790 C   0  0  0  0  0  0  0  0  0  0  0  0
  145.4290   69.6470  219.0190 C   0  0  0  0  0  0  0  0  0  0  0  0
  144.0780   69.7810  218.7180 C   0  0  0  0  0  0  0  0  0  0  0  0
  143.4820   71.1600  218.6470 C   0  0  0  0  0  0  0  0  0  0  0  0
  141.2820   71.1910  221.3790 N   0  0  0  0  0  0  0  0  0  0  0  0
  140.8450   71.8940  222.4590 C   0  0  0  0  0  0  0  0  0  0  0  0
  140.4490   71.1950  223.6130 N   0  0  0  0  0  0  0  0  0  0  0  0
  139.1320   70.5750  223.6120 C   0  0  0  0  0  0  0  0  0  0  0  0
  139.2460   69.2810  224.4030 C   0  0  0  0  0  0  0  0  0  0  0  0
  139.5450   69.7150  225.8010 C   0  0  0  0  0  0  0  0  0  0  0  0
  138.8320   69.2470  226.8860 C   0  0  0  0  0  0  0  0  0  0  0  0
  139.1740   69.7010  228.1440 C   0  0  0  0  0  0  0  0  0  0  0  0
  140.2100   70.6100  228.3490 C   0  0  0  0  0  0  0  0  0  0  0  0
  140.8970   71.0510  227.2160 C   0  0  0  0  0  0  0  0  0  0  0  0
  140.5810   70.6170  225.9510 C   0  0  0  0  0  0  0  0  0  0  0  0
  141.3340   71.1060  224.7510 C   0  0  0  0  0  0  0  0  0  0  0  0
  140.8180   73.2340  222.3500 N   0  0  0  0  0  0  0  0  0  0  0  0
  140.1790   76.0580  221.8520 C   0  0  0  0  0  0  0  0  0  0  0  0
  140.5730   77.4680  222.1100 C   0  0  0  0  0  0  0  0  0  0  0  0
  143.5480   79.7280  221.9670 H   0  0  0  0  0  0  0  0  0  0  0  0
  142.7310   80.9790  223.0060 H   0  0  0  0  0  0  0  0  0  0  0  0
  139.9089   79.5920  220.9459 H   0  0  0  0  0  0  0  0  0  0  0  0
  141.0782   79.5120  219.5414 H   0  0  0  0  0  0  0  0  0  0  0  0
  142.4164   78.2224  221.5680 H   0  0  0  0  0  0  0  0  0  0  0  0
  140.4745   77.0558  219.4582 H   0  0  0  0  0  0  0  0  0  0  0  0
  142.0441   77.7377  219.0227 H   0  0  0  0  0  0  0  0  0  0  0  0
  142.3916   75.3134  219.4089 H   0  0  0  0  0  0  0  0  0  0  0  0
  143.1045   76.1185  220.8065 H   0  0  0  0  0  0  0  0  0  0  0  0
  140.3354   69.9738  219.1055 H   0  0  0  0  0  0  0  0  0  0  0  0
  140.9453   70.5893  217.4980 H   0  0  0  0  0  0  0  0  0  0  0  0
  141.2844   68.0378  218.7428 H   0  0  0  0  0  0  0  0  0  0  0  0
  141.7342   68.6554  217.0742 H   0  0  0  0  0  0  0  0  0  0  0  0
  143.2012   66.5698  218.3736 H   0  0  0  0  0  0  0  0  0  0  0  0
  145.6000   66.2369  218.9013 H   0  0  0  0  0  0  0  0  0  0  0  0
  147.0153   68.2384  219.3157 H   0  0  0  0  0  0  0  0  0  0  0  0
  146.0614   70.5281  219.2029 H   0  0  0  0  0  0  0  0  0  0  0  0
  144.0560   71.8551  219.2773 H   0  0  0  0  0  0  0  0  0  0  0  0
  143.5031   71.5504  217.6188 H   0  0  0  0  0  0  0  0  0  0  0  0
  138.3996   71.2443  224.0870 H   0  0  0  0  0  0  0  0  0  0  0  0
  138.7934   70.3770  222.5843 H   0  0  0  0  0  0  0  0  0  0  0  0
  138.3012   68.7189  224.3652 H   0  0  0  0  0  0  0  0  0  0  0  0
  140.0223   68.6141  223.9996 H   0  0  0  0  0  0  0  0  0  0  0  0
  138.0099   68.5286  226.7515 H   0  0  0  0  0  0  0  0  0  0  0  0
  138.6098   69.3329  229.0136 H   0  0  0  0  0  0  0  0  0  0  0  0
  140.4744   70.9638  229.3564 H   0  0  0  0  0  0  0  0  0  0  0  0
  141.7196   71.7707  227.3404 H   0  0  0  0  0  0  0  0  0  0  0  0
  141.7532   72.1003  224.9647 H   0  0  0  0  0  0  0  0  0  0  0  0
  142.1454   70.3994  224.5221 H   0  0  0  0  0  0  0  0  0  0  0  0
  139.2485   76.0606  221.2653 H   0  0  0  0  0  0  0  0  0  0  0  0
  140.0591   75.5761  222.8335 H   0  0  0  0  0  0  0  0  0  0  0  0
  139.6519   78.0634  222.1936 H   0  0  0  0  0  0  0  0  0  0  0  0
  141.1803   77.4398  223.0267 H   0  0  0  0  0  0  0  0  0  0  0  0
  1  2  1  0
  2  3  2  0
  2  4  1  0
  4  5  1  0
  5  6  1  0
  6  7  1  0
  7  8  1  0
  8  9  1  0
  9 10  2  0
 10 11  1  0
 11 12  1  0
 12 13  1  0
 13 14  1  0
 14 15  1  0
 15 16  2  0
 16 17  1  0
 17 18  2  0
 18 19  1  0
 19 20  2  0
 20 21  1  0
 11 22  2  0
 22 23  1  0
 23 24  1  0
 24 25  1  0
 25 26  1  0
 26 27  1  0
 27 28  2  0
 28 29  1  0
 29 30  2  0
 30 31  1  0
 31 32  2  0
 32 33  1  0
 23 34  2  0
  8 35  1  0
 35 36  1  0
 36  5  1  0
 34  9  1  0
 21 12  1  0
 33 24  1  0
 20 15  1  0
 32 27  1  0
  1 37  1  0
  1 38  1  0
  4 39  1  0
  4 40  1  0
  5 41  1  0
  6 42  1  0
  6 43  1  0
  7 44  1  0
  7 45  1  0
 13 46  1  0
 13 47  1  0
 14 48  1  0
 14 49  1  0
 16 50  1  0
 17 51  1  0
 18 52  1  0
 19 53  1  0
 21 54  1  0
 21 55  1  0
 25 56  1  0
 25 57  1  0
 26 58  1  0
 26 59  1  0
 28 60  1  0
 29 61  1  0
 30 62  1  0
 31 63  1  0
 33 64  1  0
 33 65  1  0
 35 66  1  0
 35 67  1  0
 36 68  1  0
 36 69  1  0
M  END
>  <smiles>  (12) 
NC(=O)CC1CCN(c2nc(N3CCc4ccccc4C3)nc(N3CCc4ccccc4C3)n2)CC1

>  <score_type>  (12) 
oracle

>  <origin>  (12) 
autodockgpu

>  <m_score__min__energy>  (12) 
-9.3499999999999996

>  <m_primary>  (12) 
energy

>  <rmsd>  (12) 
3.68233477287117

>  <m_score__min__rmsd>  (12) 
3.68233477287117

>  <meeko>  (12) 
{"free_energy": -8.69, "intermolecular_energy": -10.18, "internal_energy": -1.1, "cluster_size": 15, "cluster_id": 2, "rank_in_cluster": 14}

>  <energy>  (12) 
-9.08

>  <cluster_rmsd>  (12) 
1.44

>  <cluster>  (12) 
1

$$$$

     RDKit          3D

 69 74  0  0  0  0  0  0  0  0999 V2000
  140.3290   67.3920  226.4840 N   0  0  0  0  0  0  0  0  0  0  0  0
  139.5830   68.5440  226.8310 C   0  0  0  0  0  0  0  0  0  0  0  0
  139.8580   69.1890  227.8990 O   0  0  0  0  0  0  0  0  0  0  0  0
  138.4760   69.0560  226.0070 C   0  0  0  0  0  0  0  0  0  0  0  0
  138.8220   70.3030  225.2260 C   0  0  0  0  0  0  0  0  0  0  0  0
  138.6490   69.9500  223.7630 C   0  0  0  0  0  0  0  0  0  0  0  0
  138.8170   71.2720  223.0070 C   0  0  0  0  0  0  0  0  0  0  0  0
  140.2240   71.5990  223.1350 N   0  0  0  0  0  0  0  0  0  0  0  0
  140.8260   72.3960  222.1230 C   0  0  0  0  0  0  0  0  0  0  0  0
  141.4280   71.7970  221.0790 N   0  0  0  0  0  0  0  0  0  0  0  0
  142.0050   72.5240  220.1070 C   0  0  0  0  0  0  0  0  0  0  0  0
  142.6350   71.8750  219.0110 N   0  0  0  0  0  0  0  0  0  0  0  0
  141.8380   71.0910  218.0750 C   0  0  0  0  0  0  0  0  0  0  0  0
  142.4490   69.7740  217.7340 C   0  0  0  0  0  0  0  0  0  0  0  0
  143.7970   69.5570  218.2990 C   0  0  0  0  0  0  0  0  0  0  0  0
  144.3080   68.2800  218.3260 C   0  0  0  0  0  0  0  0  0  0  0  0
  145.5580   67.9760  218.8330 C   0  0  0  0  0  0  0  0  0  0  0  0
  146.3140   69.0190  219.3340 C   0  0  0  0  0  0  0  0  0  0  0  0
  145.8550   70.3220  219.3350 C   0  0  0  0  0  0  0  0  0  0  0  0
  144.5900   70.5620  218.8090 C   0  0  0  0  0  0  0  0  0  0  0  0
  144.0620   71.9710  218.7970 C   0  0  0  0  0  0  0  0  0  0  0  0
  141.9770   73.8620  220.1860 N   0  0  0  0  0  0  0  0  0  0  0  0
  141.3780   74.5060  221.2250 C   0  0  0  0  0  0  0  0  0  0  0  0
  141.3830   75.9120  221.2510 N   0  0  0  0  0  0  0  0  0  0  0  0
  142.0330   76.6080  220.1510 C   0  0  0  0  0  0  0  0  0  0  0  0
  141.2350   77.8760  219.8900 C   0  0  0  0  0  0  0  0  0  0  0  0
  141.4160   78.7000  221.1230 C   0  0  0  0  0  0  0  0  0  0  0  0
  141.8030   80.0240  221.0730 C   0  0  0  0  0  0  0  0  0  0  0  0
  141.9490   80.7120  222.2610 C   0  0  0  0  0  0  0  0  0  0  0  0
  141.7180   80.1150  223.4990 C   0  0  0  0  0  0  0  0  0  0  0  0
  141.3290   78.7730  223.4900 C   0  0  0  0  0  0  0  0  0  0  0  0
  141.1750   78.0610  222.3240 C   0  0  0  0  0  0  0  0  0  0  0  0
  140.7580   76.6220  222.3420 C   0  0  0  0  0  0  0  0  0  0  0  0
  140.8130   73.7420  222.1770 N   0  0  0  0  0  0  0  0  0  0  0  0
  141.0060   71.1290  224.2610 C   0  0  0  0  0  0  0  0  0  0  0  0
  140.1990   70.8130  225.4680 C   0  0  0  0  0  0  0  0  0  0  0  0
  140.7570   67.2860  225.5410 H   0  0  0  0  0  0  0  0  0  0  0  0
  140.4280   66.6540  227.2160 H   0  0  0  0  0  0  0  0  0  0  0  0
  138.1823   68.2711  225.2945 H   0  0  0  0  0  0  0  0  0  0  0  0
  137.6621   69.3255  226.6962 H   0  0  0  0  0  0  0  0  0  0  0  0
  138.1589   71.1178  225.5522 H   0  0  0  0  0  0  0  0  0  0  0  0
  139.4147   69.2257  223.4480 H   0  0  0  0  0  0  0  0  0  0  0  0
  137.6718   69.4853  223.5655 H   0  0  0  0  0  0  0  0  0  0  0  0
  138.5427   71.1502  221.9487 H   0  0  0  0  0  0  0  0  0  0  0  0
  138.1694   72.0646  223.4100 H   0  0  0  0  0  0  0  0  0  0  0  0
  140.8501   70.9111  218.5240 H   0  0  0  0  0  0  0  0  0  0  0  0
  141.7719   71.6693  217.1416 H   0  0  0  0  0  0  0  0  0  0  0  0
  141.7870   68.9806  218.1112 H   0  0  0  0  0  0  0  0  0  0  0  0
  142.5628   69.7568  216.6400 H   0  0  0  0  0  0  0  0  0  0  0  0
  143.6925   67.4613  217.9249 H   0  0  0  0  0  0  0  0  0  0  0  0
  145.9364   66.9432  218.8374 H   0  0  0  0  0  0  0  0  0  0  0  0
  147.3118   68.8050  219.7445 H   0  0  0  0  0  0  0  0  0  0  0  0
  146.4687   71.1412  219.7378 H   0  0  0  0  0  0  0  0  0  0  0  0
  144.5285   72.5588  219.6013 H   0  0  0  0  0  0  0  0  0  0  0  0
  144.2892   72.4735  217.8452 H   0  0  0  0  0  0  0  0  0  0  0  0
  143.0675   76.8629  220.4245 H   0  0  0  0  0  0  0  0  0  0  0  0
  142.0665   75.9746  219.2523 H   0  0  0  0  0  0  0  0  0  0  0  0
  141.6261   78.4057  219.0088 H   0  0  0  0  0  0  0  0  0  0  0  0
  140.1755   77.6651  219.6828 H   0  0  0  0  0  0  0  0  0  0  0  0
  141.9907   80.5194  220.1090 H   0  0  0  0  0  0  0  0  0  0  0  0
  142.2582   81.7672  222.2294 H   0  0  0  0  0  0  0  0  0  0  0  0
  141.8364   80.6740  224.4389 H   0  0  0  0  0  0  0  0  0  0  0  0
  141.1394   78.2687  224.4490 H   0  0  0  0  0  0  0  0  0  0  0  0
  141.0635   76.1663  223.2954 H   0  0  0  0  0  0  0  0  0  0  0  0
  139.6651   76.5618  222.2324 H   0  0  0  0  0  0  0  0  0  0  0  0
  141.5408   70.2180  223.9544 H   0  0  0  0  0  0  0  0  0  0  0  0
  141.6869   71.9470  224.5389 H   0  0  0  0  0  0  0  0  0  0  0  0
  140.7426   70.0497  226.0441 H   0  0  0  0  0  0  0  0  0  0  0  0
  140.0688   71.7710  225.9926 H   0  0  0  0  0  0  0  0  0  0  0  0
  1  2  1  0
  2  3  2  0
  2  4  1  0
  4  5  1  0
  5  6  1  0
  6  7  1  0
  7  8  1  0
  8  9  1  0
  9 10  2  0
 10 11  1  0
 11 12  1  0
 12 13  1  0
 13 14  1  0
 14 15  1  0
 15 16  2  0
 16 17  1  0
 17 18  2  0
 18 19  1  0
 19 20  2  0
 20 21  1  0
 11 22  2  0
 22 23  1  0
 23 24  1  0
 24 25  1  0
 25 26  1  0
 26 27  1  0
 27 28  2  0
 28 29  1  0
 29 30  2  0
 30 31  1  0
 31 32  2  0
 32 33  1  0
 23 34  2  0
  8 35  1  0
 35 36  1  0
 36  5  1  0
 34  9  1  0
 21 12  1  0
 33 24  1  0
 20 15  1  0
 32 27  1  0
  1 37  1  0
  1 38  1  0
  4 39  1  0
  4 40  1  0
  5 41  1  0
  6 42  1  0
  6 43  1  0
  7 44  1  0
  7 45  1  0
 13 46  1  0
 13 47  1  0
 14 48  1  0
 14 49  1  0
 16 50  1  0
 17 51  1  0
 18 52  1  0
 19 53  1  0
 21 54  1  0
 21 55  1  0
 25 56  1  0
 25 57  1  0
 26 58  1  0
 26 59  1  0
 28 60  1  0
 29 61  1  0
 30 62  1  0
 31 63  1  0
 33 64  1  0
 33 65  1  0
 35 66  1  0
 35 67  1  0
 36 68  1  0
 36 69  1  0
M  END
>  <smiles>  (13) 
NC(=O)CC1CCN(c2nc(N3CCc4ccccc4C3)nc(N3CCc4ccccc4C3)n2)CC1

>  <score_type>  (13) 
oracle

>  <origin>  (13) 
autodockgpu

>  <m_score__min__energy>  (13) 
-9.3499999999999996

>  <m_primary>  (13) 
energy

>  <rmsd>  (13) 
8.659973109555388

>  <m_score__min__rmsd>  (13) 
8.659973109555388

>  <meeko>  (13) 
{"free_energy": -9.02, "intermolecular_energy": -10.51, "internal_energy": -1.12, "cluster_size": 28, "cluster_id": 1, "rank_in_cluster": 14}

>  <energy>  (13) 
-9.03

>  <cluster_rmsd>  (13) 
1.79

>  <cluster>  (13) 
1

$$$$

     RDKit          3D

 69 74  0  0  0  0  0  0  0  0999 V2000
  140.6510   67.3810  226.4830 N   0  0  0  0  0  0  0  0  0  0  0  0
  139.7550   68.4320  226.7950 C   0  0  0  0  0  0  0  0  0  0  0  0
  139.9110   69.1120  227.8660 O   0  0  0  0  0  0  0  0  0  0  0  0
  138.6200   68.7970  225.9320 C   0  0  0  0  0  0  0  0  0  0  0  0
  138.8130   70.0990  225.1870 C   0  0  0  0  0  0  0  0  0  0  0  0
  138.9180   69.7370  223.7200 C   0  0  0  0  0  0  0  0  0  0  0  0
  138.9190   71.0760  222.9750 C   0  0  0  0  0  0  0  0  0  0  0  0
  140.2010   71.6770  223.2910 N   0  0  0  0  0  0  0  0  0  0  0  0
  140.7640   72.5930  222.3590 C   0  0  0  0  0  0  0  0  0  0  0  0
  140.3310   73.8670  222.3390 N   0  0  0  0  0  0  0  0  0  0  0  0
  140.8440   74.7540  221.4700 C   0  0  0  0  0  0  0  0  0  0  0  0
  140.3760   76.0960  221.4630 N   0  0  0  0  0  0  0  0  0  0  0  0
  140.1410   76.7760  220.1940 C   0  0  0  0  0  0  0  0  0  0  0  0
  140.6790   78.1670  220.1580 C   0  0  0  0  0  0  0  0  0  0  0  0
  141.2340   78.6440  221.4420 C   0  0  0  0  0  0  0  0  0  0  0  0
  142.0380   79.7610  221.4430 C   0  0  0  0  0  0  0  0  0  0  0  0
  142.6030   80.2850  222.5910 C   0  0  0  0  0  0  0  0  0  0  0  0
  142.3360   79.6400  223.7840 C   0  0  0  0  0  0  0  0  0  0  0  0
  141.5370   78.5150  223.8470 C   0  0  0  0  0  0  0  0  0  0  0  0
  140.9980   78.0390  222.6570 C   0  0  0  0  0  0  0  0  0  0  0  0
  140.1240   76.8150  222.6920 C   0  0  0  0  0  0  0  0  0  0  0  0
  141.7980   74.3580  220.6150 N   0  0  0  0  0  0  0  0  0  0  0  0
  142.2630   73.0790  220.6040 C   0  0  0  0  0  0  0  0  0  0  0  0
  143.2650   72.7240  219.6830 N   0  0  0  0  0  0  0  0  0  0  0  0
  143.1860   73.2890  218.3450 C   0  0  0  0  0  0  0  0  0  0  0  0
  144.6120   73.5350  217.8780 C   0  0  0  0  0  0  0  0  0  0  0  0
  145.2150   72.1730  217.7630 C   0  0  0  0  0  0  0  0  0  0  0  0
  145.8850   71.7560  216.6310 C   0  0  0  0  0  0  0  0  0  0  0  0
  146.4100   70.4800  216.6090 C   0  0  0  0  0  0  0  0  0  0  0  0
  146.2850   69.6060  217.6870 C   0  0  0  0  0  0  0  0  0  0  0  0
  145.5970   70.0790  218.8070 C   0  0  0  0  0  0  0  0  0  0  0  0
  145.0630   71.3450  218.8600 C   0  0  0  0  0  0  0  0  0  0  0  0
  144.3280   71.8280  220.0730 C   0  0  0  0  0  0  0  0  0  0  0  0
  141.7230   72.2220  221.4890 N   0  0  0  0  0  0  0  0  0  0  0  0
  140.8990   71.3590  224.5200 C   0  0  0  0  0  0  0  0  0  0  0  0
  140.0130   70.8710  225.6090 C   0  0  0  0  0  0  0  0  0  0  0  0
  141.1200   67.3260  225.5560 H   0  0  0  0  0  0  0  0  0  0  0  0
  140.8170   66.6660  227.2250 H   0  0  0  0  0  0  0  0  0  0  0  0
  138.4729   67.9941  225.1946 H   0  0  0  0  0  0  0  0  0  0  0  0
  137.7480   68.9304  226.5892 H   0  0  0  0  0  0  0  0  0  0  0  0
  137.9616   70.7602  225.4059 H   0  0  0  0  0  0  0  0  0  0  0  0
  139.8497   69.1860  223.5244 H   0  0  0  0  0  0  0  0  0  0  0  0
  138.0915   69.0872  223.3967 H   0  0  0  0  0  0  0  0  0  0  0  0
  138.8231   70.9160  221.8909 H   0  0  0  0  0  0  0  0  0  0  0  0
  138.0761   71.7168  223.2731 H   0  0  0  0  0  0  0  0  0  0  0  0
  140.6221   76.1954  219.3931 H   0  0  0  0  0  0  0  0  0  0  0  0
  139.0514   76.8460  220.0603 H   0  0  0  0  0  0  0  0  0  0  0  0
  141.4778   78.2068  219.4028 H   0  0  0  0  0  0  0  0  0  0  0  0
  139.8294   78.8245  219.9214 H   0  0  0  0  0  0  0  0  0  0  0  0
  142.2409   80.2609  220.4844 H   0  0  0  0  0  0  0  0  0  0  0  0
  143.2405   81.1808  222.5563 H   0  0  0  0  0  0  0  0  0  0  0  0
  142.7737   80.0351  224.7126 H   0  0  0  0  0  0  0  0  0  0  0  0
  141.3343   78.0134  224.8048 H   0  0  0  0  0  0  0  0  0  0  0  0
  140.3818   76.1885  223.5586 H   0  0  0  0  0  0  0  0  0  0  0  0
  139.0620   77.0867  222.7836 H   0  0  0  0  0  0  0  0  0  0  0  0
  142.6833   72.5838  217.6668 H   0  0  0  0  0  0  0  0  0  0  0  0
  142.6086   74.2253  218.3491 H   0  0  0  0  0  0  0  0  0  0  0  0
  144.6182   74.0453  216.9036 H   0  0  0  0  0  0  0  0  0  0  0  0
  145.1712   74.1799  218.5718 H   0  0  0  0  0  0  0  0  0  0  0  0
  145.9980   72.4256  215.7657 H   0  0  0  0  0  0  0  0  0  0  0  0
  146.9454   70.1413  215.7098 H   0  0  0  0  0  0  0  0  0  0  0  0
  146.7083   68.5911  217.6575 H   0  0  0  0  0  0  0  0  0  0  0  0
  145.4783   69.4158  219.6765 H   0  0  0  0  0  0  0  0  0  0  0  0
  143.9006   70.9664  220.6068 H   0  0  0  0  0  0  0  0  0  0  0  0
  145.0289   72.3641  220.7298 H   0  0  0  0  0  0  0  0  0  0  0  0
  141.6430   70.5783  224.3033 H   0  0  0  0  0  0  0  0  0  0  0  0
  141.3573   72.2932  224.8768 H   0  0  0  0  0  0  0  0  0  0  0  0
  140.6138   70.2242  226.2653 H   0  0  0  0  0  0  0  0  0  0  0  0
  139.6225   71.7762  226.0970 H   0  0  0  0  0  0  0  0  0  0  0  0
  1  2  1  0
  2  3  2  0
  2  4  1  0
  4  5  1  0
  5  6  1  0
  6  7  1  0
  7  8  1  0
  8  9  1  0
  9 10  2  0
 10 11  1  0
 11 12  1  0
 12 13  1  0
 13 14  1  0
 14 15  1  0
 15 16  2  0
 16 17  1  0
 17 18  2  0
 18 19  1  0
 19 20  2  0
 20 21  1  0
 11 22  2  0
 22 23  1  0
 23 24  1  0
 24 25  1  0
 25 26  1  0
 26 27  1  0
 27 28  2  0
 28 29  1  0
 29 30  2  0
 30 31  1  0
 31 32  2  0
 32 33  1  0
 23 34  2  0
  8 35  1  0
 35 36  1  0
 36  5  1  0
 34  9  1  0
 21 12  1  0
 33 24  1  0
 20 15  1  0
 32 27  1  0
  1 37  1  0
  1 38  1  0
  4 39  1  0
  4 40  1  0
  5 41  1  0
  6 42  1  0
  6 43  1  0
  7 44  1  0
  7 45  1  0
 13 46  1  0
 13 47  1  0
 14 48  1  0
 14 49  1  0
 16 50  1  0
 17 51  1  0
 18 52  1  0
 19 53  1  0
 21 54  1  0
 21 55  1  0
 25 56  1  0
 25 57  1  0
 26 58  1  0
 26 59  1  0
 28 60  1  0
 29 61  1  0
 30 62  1  0
 31 63  1  0
 33 64  1  0
 33 65  1  0
 35 66  1  0
 35 67  1  0
 36 68  1  0
 36 69  1  0
M  END
>  <smiles>  (14) 
NC(=O)CC1CCN(c2nc(N3CCc4ccccc4C3)nc(N3CCc4ccccc4C3)n2)CC1

>  <score_type>  (14) 
oracle

>  <origin>  (14) 
autodockgpu

>  <m_score__min__energy>  (14) 
-9.3499999999999996

>  <m_primary>  (14) 
energy

>  <rmsd>  (14) 
8.71053507769164

>  <m_score__min__rmsd>  (14) 
8.71053507769164

>  <meeko>  (14) 
{"free_energy": -9.13, "intermolecular_energy": -10.62, "internal_energy": -1.11, "cluster_size": 28, "cluster_id": 1, "rank_in_cluster": 4}

>  <energy>  (14) 
-9.02

>  <cluster_rmsd>  (14) 
1.32

>  <cluster>  (14) 
1

$$$$

     RDKit          3D

 69 74  0  0  0  0  0  0  0  0999 V2000
  139.7430   68.7030  226.9720 N   0  0  0  0  0  0  0  0  0  0  0  0
  139.0950   68.4060  225.7490 C   0  0  0  0  0  0  0  0  0  0  0  0
  139.4570   67.3920  225.0610 O   0  0  0  0  0  0  0  0  0  0  0  0
  137.9950   69.2220  225.2100 C   0  0  0  0  0  0  0  0  0  0  0  0
  138.4480   70.5270  224.5960 C   0  0  0  0  0  0  0  0  0  0  0  0
  138.3610   70.3420  223.0950 C   0  0  0  0  0  0  0  0  0  0  0  0
  138.6370   71.7280  222.5020 C   0  0  0  0  0  0  0  0  0  0  0  0
  140.0440   71.9680  222.7560 N   0  0  0  0  0  0  0  0  0  0  0  0
  140.7480   72.8390  221.8780 C   0  0  0  0  0  0  0  0  0  0  0  0
  141.4480   72.3210  220.8520 N   0  0  0  0  0  0  0  0  0  0  0  0
  142.1230   73.1190  220.0070 C   0  0  0  0  0  0  0  0  0  0  0  0
  142.8570   72.5550  218.9290 N   0  0  0  0  0  0  0  0  0  0  0  0
  143.8760   71.5450  219.1930 C   0  0  0  0  0  0  0  0  0  0  0  0
  145.1440   71.7720  218.4410 C   0  0  0  0  0  0  0  0  0  0  0  0
  145.0950   72.8920  217.4780 C   0  0  0  0  0  0  0  0  0  0  0  0
  146.2780   73.3910  216.9810 C   0  0  0  0  0  0  0  0  0  0  0  0
  146.3360   74.4350  216.0760 C   0  0  0  0  0  0  0  0  0  0  0  0
  145.1390   74.9910  215.6650 C   0  0  0  0  0  0  0  0  0  0  0  0
  143.9210   74.5330  216.1290 C   0  0  0  0  0  0  0  0  0  0  0  0
  143.9300   73.4790  217.0360 C   0  0  0  0  0  0  0  0  0  0  0  0
  142.6200   72.9590  217.5610 C   0  0  0  0  0  0  0  0  0  0  0  0
  142.0940   74.4460  220.1950 N   0  0  0  0  0  0  0  0  0  0  0  0
  141.3980   75.0090  221.2200 C   0  0  0  0  0  0  0  0  0  0  0  0
  141.4070   76.4080  221.3640 N   0  0  0  0  0  0  0  0  0  0  0  0
  141.8220   77.2040  220.2200 C   0  0  0  0  0  0  0  0  0  0  0  0
  140.9870   78.4750  220.2330 C   0  0  0  0  0  0  0  0  0  0  0  0
  141.4120   79.1970  221.4700 C   0  0  0  0  0  0  0  0  0  0  0  0
  141.7800   80.5270  221.4570 C   0  0  0  0  0  0  0  0  0  0  0  0
  142.1610   81.1160  222.6460 C   0  0  0  0  0  0  0  0  0  0  0  0
  142.1840   80.4140  223.8490 C   0  0  0  0  0  0  0  0  0  0  0  0
  141.8020   79.0710  223.8040 C   0  0  0  0  0  0  0  0  0  0  0  0
  141.4170   78.4560  222.6360 C   0  0  0  0  0  0  0  0  0  0  0  0
  141.0130   77.0130  222.6150 C   0  0  0  0  0  0  0  0  0  0  0  0
  140.7370   74.1750  222.0440 N   0  0  0  0  0  0  0  0  0  0  0  0
  140.7260   71.3420  223.8700 C   0  0  0  0  0  0  0  0  0  0  0  0
  139.8250   70.9380  224.9800 C   0  0  0  0  0  0  0  0  0  0  0  0
  139.2050   68.8590  227.8490 H   0  0  0  0  0  0  0  0  0  0  0  0
  140.7860   68.7580  226.9530 H   0  0  0  0  0  0  0  0  0  0  0  0
  137.4755   68.6368  224.4369 H   0  0  0  0  0  0  0  0  0  0  0  0
  137.3400   69.4763  226.0564 H   0  0  0  0  0  0  0  0  0  0  0  0
  137.8003   71.3346  224.9679 H   0  0  0  0  0  0  0  0  0  0  0  0
  139.1148   69.6184  222.7513 H   0  0  0  0  0  0  0  0  0  0  0  0
  137.3808   69.9504  222.7854 H   0  0  0  0  0  0  0  0  0  0  0  0
  138.4320   71.7345  221.4213 H   0  0  0  0  0  0  0  0  0  0  0  0
  137.9972   72.5042  222.9472 H   0  0  0  0  0  0  0  0  0  0  0  0
  144.1030   71.5517  220.2693 H   0  0  0  0  0  0  0  0  0  0  0  0
  143.4694   70.5787  218.8598 H   0  0  0  0  0  0  0  0  0  0  0  0
  145.9422   71.9797  219.1688 H   0  0  0  0  0  0  0  0  0  0  0  0
  145.3247   70.8611  217.8514 H   0  0  0  0  0  0  0  0  0  0  0  0
  147.2214   72.9379  217.3197 H   0  0  0  0  0  0  0  0  0  0  0  0
  147.2987   74.8090  215.6973 H   0  0  0  0  0  0  0  0  0  0  0  0
  145.1568   75.8237  214.9464 H   0  0  0  0  0  0  0  0  0  0  0  0
  142.9769   74.9863  215.7927 H   0  0  0  0  0  0  0  0  0  0  0  0
  141.8557   73.7493  217.5252 H   0  0  0  0  0  0  0  0  0  0  0  0
  142.2550   72.1166  216.9551 H   0  0  0  0  0  0  0  0  0  0  0  0
  142.8902   77.4535  220.3015 H   0  0  0  0  0  0  0  0  0  0  0  0
  141.6746   76.6483  219.2822 H   0  0  0  0  0  0  0  0  0  0  0  0
  141.1923   79.0829  219.3395 H   0  0  0  0  0  0  0  0  0  0  0  0
  139.9076   78.2633  220.2255 H   0  0  0  0  0  0  0  0  0  0  0  0
  141.7700   81.1045  220.5208 H   0  0  0  0  0  0  0  0  0  0  0  0
  142.4564   82.1756  222.6434 H   0  0  0  0  0  0  0  0  0  0  0  0
  142.4887   80.8947  224.7903 H   0  0  0  0  0  0  0  0  0  0  0  0
  141.8095   78.4853  224.7351 H   0  0  0  0  0  0  0  0  0  0  0  0
  141.5042   76.4850  223.4457 H   0  0  0  0  0  0  0  0  0  0  0  0
  139.9205   76.9422  222.7221 H   0  0  0  0  0  0  0  0  0  0  0  0
  141.2422   70.4442  223.4992 H   0  0  0  0  0  0  0  0  0  0  0  0
  141.4200   72.0907  224.2797 H   0  0  0  0  0  0  0  0  0  0  0  0
  140.2945   70.0905  225.5009 H   0  0  0  0  0  0  0  0  0  0  0  0
  139.6999   71.8391  225.5984 H   0  0  0  0  0  0  0  0  0  0  0  0
  1  2  1  0
  2  3  2  0
  2  4  1  0
  4  5  1  0
  5  6  1  0
  6  7  1  0
  7  8  1  0
  8  9  1  0
  9 10  2  0
 10 11  1  0
 11 12  1  0
 12 13  1  0
 13 14  1  0
 14 15  1  0
 15 16  2  0
 16 17  1  0
 17 18  2  0
 18 19  1  0
 19 20  2  0
 20 21  1  0
 11 22  2  0
 22 23  1  0
 23 24  1  0
 24 25  1  0
 25 26  1  0
 26 27  1  0
 27 28  2  0
 28 29  1  0
 29 30  2  0
 30 31  1  0
 31 32  2  0
 32 33  1  0
 23 34  2  0
  8 35  1  0
 35 36  1  0
 36  5  1  0
 34  9  1  0
 21 12  1  0
 33 24  1  0
 20 15  1  0
 32 27  1  0
  1 37  1  0
  1 38  1  0
  4 39  1  0
  4 40  1  0
  5 41  1  0
  6 42  1  0
  6 43  1  0
  7 44  1  0
  7 45  1  0
 13 46  1  0
 13 47  1  0
 14 48  1  0
 14 49  1  0
 16 50  1  0
 17 51  1  0
 18 52  1  0
 19 53  1  0
 21 54  1  0
 21 55  1  0
 25 56  1  0
 25 57  1  0
 26 58  1  0
 26 59  1  0
 28 60  1  0
 29 61  1  0
 30 62  1  0
 31 63  1  0
 33 64  1  0
 33 65  1  0
 35 66  1  0
 35 67  1  0
 36 68  1  0
 36 69  1  0
M  END
>  <smiles>  (15) 
NC(=O)CC1CCN(c2nc(N3CCc4ccccc4C3)nc(N3CCc4ccccc4C3)n2)CC1

>  <score_type>  (15) 
oracle

>  <origin>  (15) 
autodockgpu

>  <m_score__min__energy>  (15) 
-9.3499999999999996

>  <m_primary>  (15) 
energy

>  <rmsd>  (15) 
8.215018135994864

>  <m_score__min__rmsd>  (15) 
8.215018135994864

>  <meeko>  (15) 
{"free_energy": -8.34, "intermolecular_energy": -9.83, "internal_energy": -1.16, "cluster_size": 28, "cluster_id": 1, "rank_in_cluster": 27}

>  <energy>  (15) 
-9.01

>  <cluster_rmsd>  (15) 
1.49

>  <cluster>  (15) 
1

$$$$

     RDKit          3D

 69 74  0  0  0  0  0  0  0  0999 V2000
  140.1660   67.3180  226.4780 N   0  0  0  0  0  0  0  0  0  0  0  0
  139.4190   68.5030  226.6840 C   0  0  0  0  0  0  0  0  0  0  0  0
  139.5500   69.1620  227.7710 O   0  0  0  0  0  0  0  0  0  0  0  0
  138.4740   69.0330  225.6890 C   0  0  0  0  0  0  0  0  0  0  0  0
  138.8840   70.3670  225.1070 C   0  0  0  0  0  0  0  0  0  0  0  0
  138.4990   70.3280  223.6420 C   0  0  0  0  0  0  0  0  0  0  0  0
  138.7460   71.7480  223.1230 C   0  0  0  0  0  0  0  0  0  0  0  0
  140.1880   71.8950  223.1130 N   0  0  0  0  0  0  0  0  0  0  0  0
  140.7660   72.8090  222.1880 C   0  0  0  0  0  0  0  0  0  0  0  0
  140.3600   74.0920  222.1840 N   0  0  0  0  0  0  0  0  0  0  0  0
  140.8870   74.9780  221.3220 C   0  0  0  0  0  0  0  0  0  0  0  0
  140.4470   76.3290  221.3320 N   0  0  0  0  0  0  0  0  0  0  0  0
  140.2890   77.0500  220.0740 C   0  0  0  0  0  0  0  0  0  0  0  0
  140.8560   78.4300  220.1050 C   0  0  0  0  0  0  0  0  0  0  0  0
  141.3560   78.8570  221.4290 C   0  0  0  0  0  0  0  0  0  0  0  0
  142.1810   79.9560  221.5020 C   0  0  0  0  0  0  0  0  0  0  0  0
  142.6990   80.4350  222.6920 C   0  0  0  0  0  0  0  0  0  0  0  0
  142.3600   79.7620  223.8500 C   0  0  0  0  0  0  0  0  0  0  0  0
  141.5360   78.6530  223.8410 C   0  0  0  0  0  0  0  0  0  0  0  0
  141.0470   78.2230  222.6120 C   0  0  0  0  0  0  0  0  0  0  0  0
  140.1490   77.0170  222.5680 C   0  0  0  0  0  0  0  0  0  0  0  0
  141.8290   74.5710  220.4590 N   0  0  0  0  0  0  0  0  0  0  0  0
  142.2670   73.2830  220.4310 C   0  0  0  0  0  0  0  0  0  0  0  0
  143.2570   72.9180  219.5020 N   0  0  0  0  0  0  0  0  0  0  0  0
  143.1680   73.4770  218.1620 C   0  0  0  0  0  0  0  0  0  0  0  0
  144.5900   73.7120  217.6780 C   0  0  0  0  0  0  0  0  0  0  0  0
  145.1830   72.3450  217.5650 C   0  0  0  0  0  0  0  0  0  0  0  0
  145.8380   71.9190  216.4270 C   0  0  0  0  0  0  0  0  0  0  0  0
  146.3560   70.6390  216.4060 C   0  0  0  0  0  0  0  0  0  0  0  0
  146.2370   69.7720  217.4900 C   0  0  0  0  0  0  0  0  0  0  0  0
  145.5630   70.2540  218.6140 C   0  0  0  0  0  0  0  0  0  0  0  0
  145.0380   71.5240  218.6660 C   0  0  0  0  0  0  0  0  0  0  0  0
  144.3190   72.0170  219.8850 C   0  0  0  0  0  0  0  0  0  0  0  0
  141.7130   72.4270  221.3100 N   0  0  0  0  0  0  0  0  0  0  0  0
  141.0290   71.1350  224.0150 C   0  0  0  0  0  0  0  0  0  0  0  0
  140.3330   70.6730  225.2450 C   0  0  0  0  0  0  0  0  0  0  0  0
  140.7310   67.1750  225.6150 H   0  0  0  0  0  0  0  0  0  0  0  0
  140.1230   66.5950  227.2300 H   0  0  0  0  0  0  0  0  0  0  0  0
  138.3923   68.3065  224.8671 H   0  0  0  0  0  0  0  0  0  0  0  0
  137.5173   69.1908  226.2085 H   0  0  0  0  0  0  0  0  0  0  0  0
  138.3730   71.1663  225.6638 H   0  0  0  0  0  0  0  0  0  0  0  0
  139.1241   69.6045  223.0981 H   0  0  0  0  0  0  0  0  0  0  0  0
  137.4542   70.0147  223.5000 H   0  0  0  0  0  0  0  0  0  0  0  0
  138.3378   71.8658  222.1084 H   0  0  0  0  0  0  0  0  0  0  0  0
  138.2562   72.5089  223.7484 H   0  0  0  0  0  0  0  0  0  0  0  0
  140.7973   76.4822  219.2808 H   0  0  0  0  0  0  0  0  0  0  0  0
  139.2089   77.1474  219.8897 H   0  0  0  0  0  0  0  0  0  0  0  0
  141.6919   78.4742  219.3913 H   0  0  0  0  0  0  0  0  0  0  0  0
  140.0332   79.1125  219.8460 H   0  0  0  0  0  0  0  0  0  0  0  0
  142.4410   80.4786  220.5696 H   0  0  0  0  0  0  0  0  0  0  0  0
  143.3553   81.3174  222.7153 H   0  0  0  0  0  0  0  0  0  0  0  0
  142.7591   80.1207  224.8103 H   0  0  0  0  0  0  0  0  0  0  0  0
  141.2760   78.1289  224.7725 H   0  0  0  0  0  0  0  0  0  0  0  0
  140.3519   76.3605  223.4269 H   0  0  0  0  0  0  0  0  0  0  0  0
  139.0892   77.3079  222.6161 H   0  0  0  0  0  0  0  0  0  0  0  0
  142.6537   72.7716  217.4927 H   0  0  0  0  0  0  0  0  0  0  0  0
  142.5970   74.4172  218.1681 H   0  0  0  0  0  0  0  0  0  0  0  0
  144.5887   74.2163  216.7004 H   0  0  0  0  0  0  0  0  0  0  0  0
  145.1608   74.3581  218.3612 H   0  0  0  0  0  0  0  0  0  0  0  0
  145.9449   72.5837  215.5571 H   0  0  0  0  0  0  0  0  0  0  0  0
  146.8801   70.2924  215.5031 H   0  0  0  0  0  0  0  0  0  0  0  0
  146.6547   68.7548  217.4618 H   0  0  0  0  0  0  0  0  0  0  0  0
  145.4481   69.5954  219.4875 H   0  0  0  0  0  0  0  0  0  0  0  0
  143.8921   71.1605  220.4273 H   0  0  0  0  0  0  0  0  0  0  0  0
  145.0301   72.5516  220.5319 H   0  0  0  0  0  0  0  0  0  0  0  0
  141.4038   70.2517  223.4770 H   0  0  0  0  0  0  0  0  0  0  0  0
  141.8369   71.8072  224.3396 H   0  0  0  0  0  0  0  0  0  0  0  0
  140.8370   69.7588  225.5919 H   0  0  0  0  0  0  0  0  0  0  0  0
  140.3887   71.5172  225.9480 H   0  0  0  0  0  0  0  0  0  0  0  0
  1  2  1  0
  2  3  2  0
  2  4  1  0
  4  5  1  0
  5  6  1  0
  6  7  1  0
  7  8  1  0
  8  9  1  0
  9 10  2  0
 10 11  1  0
 11 12  1  0
 12 13  1  0
 13 14  1  0
 14 15  1  0
 15 16  2  0
 16 17  1  0
 17 18  2  0
 18 19  1  0
 19 20  2  0
 20 21  1  0
 11 22  2  0
 22 23  1  0
 23 24  1  0
 24 25  1  0
 25 26  1  0
 26 27  1  0
 27 28  2  0
 28 29  1  0
 29 30  2  0
 30 31  1  0
 31 32  2  0
 32 33  1  0
 23 34  2  0
  8 35  1  0
 35 36  1  0
 36  5  1  0
 34  9  1  0
 21 12  1  0
 33 24  1  0
 20 15  1  0
 32 27  1  0
  1 37  1  0
  1 38  1  0
  4 39  1  0
  4 40  1  0
  5 41  1  0
  6 42  1  0
  6 43  1  0
  7 44  1  0
  7 45  1  0
 13 46  1  0
 13 47  1  0
 14 48  1  0
 14 49  1  0
 16 50  1  0
 17 51  1  0
 18 52  1  0
 19 53  1  0
 21 54  1  0
 21 55  1  0
 25 56  1  0
 25 57  1  0
 26 58  1  0
 26 59  1  0
 28 60  1  0
 29 61  1  0
 30 62  1  0
 31 63  1  0
 33 64  1  0
 33 65  1  0
 35 66  1  0
 35 67  1  0
 36 68  1  0
 36 69  1  0
M  END
>  <smiles>  (16) 
NC(=O)CC1CCN(c2nc(N3CCc4ccccc4C3)nc(N3CCc4ccccc4C3)n2)CC1

>  <score_type>  (16) 
oracle

>  <origin>  (16) 
autodockgpu

>  <m_score__min__energy>  (16) 
-9.3499999999999996

>  <m_primary>  (16) 
energy

>  <rmsd>  (16) 
8.556911011494398

>  <m_score__min__rmsd>  (16) 
8.556911011494398

>  <meeko>  (16) 
{"free_energy": -8.91, "intermolecular_energy": -10.41, "internal_energy": -1.13, "cluster_size": 28, "cluster_id": 1, "rank_in_cluster": 19}

>  <energy>  (16) 
-8.97

>  <cluster_rmsd>  (16) 
1.79

>  <cluster>  (16) 
1

$$$$

     RDKit          3D

 69 74  0  0  0  0  0  0  0  0999 V2000
  139.9950   67.1750  226.5100 N   0  0  0  0  0  0  0  0  0  0  0  0
  139.3660   68.3370  227.0190 C   0  0  0  0  0  0  0  0  0  0  0  0
  139.4830   68.6410  228.2540 O   0  0  0  0  0  0  0  0  0  0  0  0
  138.5630   69.2420  226.1810 C   0  0  0  0  0  0  0  0  0  0  0  0
  139.2770   69.7180  224.9370 C   0  0  0  0  0  0  0  0  0  0  0  0
  140.2310   70.8060  225.3850 C   0  0  0  0  0  0  0  0  0  0  0  0
  141.0750   71.1350  224.1490 C   0  0  0  0  0  0  0  0  0  0  0  0
  140.1620   71.8070  223.2440 N   0  0  0  0  0  0  0  0  0  0  0  0
  140.7020   72.7280  222.3030 C   0  0  0  0  0  0  0  0  0  0  0  0
  140.2610   74.0000  222.2950 N   0  0  0  0  0  0  0  0  0  0  0  0
  140.7520   74.8920  221.4180 C   0  0  0  0  0  0  0  0  0  0  0  0
  140.2750   76.2310  221.4230 N   0  0  0  0  0  0  0  0  0  0  0  0
  140.0270   76.9180  220.1600 C   0  0  0  0  0  0  0  0  0  0  0  0
  140.5560   78.3120  220.1290 C   0  0  0  0  0  0  0  0  0  0  0  0
  141.1180   78.7840  221.4120 C   0  0  0  0  0  0  0  0  0  0  0  0
  141.9150   79.9060  221.4140 C   0  0  0  0  0  0  0  0  0  0  0  0
  142.4850   80.4260  222.5620 C   0  0  0  0  0  0  0  0  0  0  0  0
  142.2300   79.7720  223.7530 C   0  0  0  0  0  0  0  0  0  0  0  0
  141.4390   78.6420  223.8140 C   0  0  0  0  0  0  0  0  0  0  0  0
  140.8940   78.1700  222.6250 C   0  0  0  0  0  0  0  0  0  0  0  0
  140.0280   76.9400  222.6590 C   0  0  0  0  0  0  0  0  0  0  0  0
  141.6910   74.5030  220.5440 N   0  0  0  0  0  0  0  0  0  0  0  0
  142.1640   73.2270  220.5210 C   0  0  0  0  0  0  0  0  0  0  0  0
  143.1500   72.8810  219.5800 N   0  0  0  0  0  0  0  0  0  0  0  0
  143.0200   73.4170  218.2340 C   0  0  0  0  0  0  0  0  0  0  0  0
  144.4260   73.6910  217.7230 C   0  0  0  0  0  0  0  0  0  0  0  0
  145.0620   72.3430  217.6190 C   0  0  0  0  0  0  0  0  0  0  0  0
  145.7120   71.9220  216.4770 C   0  0  0  0  0  0  0  0  0  0  0  0
  146.2710   70.6590  216.4650 C   0  0  0  0  0  0  0  0  0  0  0  0
  146.1990   69.8040  217.5630 C   0  0  0  0  0  0  0  0  0  0  0  0
  145.5280   70.2820  218.6920 C   0  0  0  0  0  0  0  0  0  0  0  0
  144.9620   71.5340  218.7350 C   0  0  0  0  0  0  0  0  0  0  0  0
  144.2470   72.0220  219.9580 C   0  0  0  0  0  0  0  0  0  0  0  0
  141.6460   72.3650  221.4150 N   0  0  0  0  0  0  0  0  0  0  0  0
  138.7360   71.5540  223.2870 C   0  0  0  0  0  0  0  0  0  0  0  0
  138.3740   70.2380  223.8750 C   0  0  0  0  0  0  0  0  0  0  0  0
  140.6060   67.2130  225.6680 H   0  0  0  0  0  0  0  0  0  0  0  0
  139.8160   66.2800  227.0170 H   0  0  0  0  0  0  0  0  0  0  0  0
  137.6495   68.7113  225.8746 H   0  0  0  0  0  0  0  0  0  0  0  0
  138.3491   70.1341  226.7879 H   0  0  0  0  0  0  0  0  0  0  0  0
  139.7890   68.8607  224.4756 H   0  0  0  0  0  0  0  0  0  0  0  0
  139.6740   71.6938  225.7191 H   0  0  0  0  0  0  0  0  0  0  0  0
  140.8528   70.4836  226.2332 H   0  0  0  0  0  0  0  0  0  0  0  0
  141.9122   71.7965  224.4165 H   0  0  0  0  0  0  0  0  0  0  0  0
  141.5187   70.2351  223.6981 H   0  0  0  0  0  0  0  0  0  0  0  0
  140.5059   76.3455  219.3520 H   0  0  0  0  0  0  0  0  0  0  0  0
  138.9361   76.9823  220.0346 H   0  0  0  0  0  0  0  0  0  0  0  0
  141.3487   78.3616  219.3679 H   0  0  0  0  0  0  0  0  0  0  0  0
  139.7007   78.9658  219.9032 H   0  0  0  0  0  0  0  0  0  0  0  0
  142.1079   80.4133  220.4572 H   0  0  0  0  0  0  0  0  0  0  0  0
  143.1171   81.3256  222.5286 H   0  0  0  0  0  0  0  0  0  0  0  0
  142.6711   80.1642  224.6812 H   0  0  0  0  0  0  0  0  0  0  0  0
  141.2466   78.1328  224.7699 H   0  0  0  0  0  0  0  0  0  0  0  0
  140.2968   76.3094  223.5193 H   0  0  0  0  0  0  0  0  0  0  0  0
  138.9650   77.2040  222.7611 H   0  0  0  0  0  0  0  0  0  0  0  0
  142.5182   72.6855  217.5836 H   0  0  0  0  0  0  0  0  0  0  0  0
  142.4183   74.3378  218.2361 H   0  0  0  0  0  0  0  0  0  0  0  0
  144.3922   74.1808  216.7387 H   0  0  0  0  0  0  0  0  0  0  0  0
  144.9861   74.3649  218.3879 H   0  0  0  0  0  0  0  0  0  0  0  0
  145.7834   72.5772  215.5963 H   0  0  0  0  0  0  0  0  0  0  0  0
  146.7906   70.3165  215.5580 H   0  0  0  0  0  0  0  0  0  0  0  0
  146.6490   68.8005  217.5422 H   0  0  0  0  0  0  0  0  0  0  0  0
  145.4501   69.6336  219.5772 H   0  0  0  0  0  0  0  0  0  0  0  0
  143.8577   71.1604  220.5203 H   0  0  0  0  0  0  0  0  0  0  0  0
  144.9505   72.5900  220.5845 H   0  0  0  0  0  0  0  0  0  0  0  0
  138.2624   72.3439  223.8885 H   0  0  0  0  0  0  0  0  0  0  0  0
  138.3822   71.5458  222.2455 H   0  0  0  0  0  0  0  0  0  0  0  0
  137.3668   70.3302  224.3075 H   0  0  0  0  0  0  0  0  0  0  0  0
  138.4498   69.5171  223.0476 H   0  0  0  0  0  0  0  0  0  0  0  0
  1  2  1  0
  2  3  2  0
  2  4  1  0
  4  5  1  0
  5  6  1  0
  6  7  1  0
  7  8  1  0
  8  9  1  0
  9 10  2  0
 10 11  1  0
 11 12  1  0
 12 13  1  0
 13 14  1  0
 14 15  1  0
 15 16  2  0
 16 17  1  0
 17 18  2  0
 18 19  1  0
 19 20  2  0
 20 21  1  0
 11 22  2  0
 22 23  1  0
 23 24  1  0
 24 25  1  0
 25 26  1  0
 26 27  1  0
 27 28  2  0
 28 29  1  0
 29 30  2  0
 30 31  1  0
 31 32  2  0
 32 33  1  0
 23 34  2  0
  8 35  1  0
 35 36  1  0
 36  5  1  0
 34  9  1  0
 21 12  1  0
 33 24  1  0
 20 15  1  0
 32 27  1  0
  1 37  1  0
  1 38  1  0
  4 39  1  0
  4 40  1  0
  5 41  1  0
  6 42  1  0
  6 43  1  0
  7 44  1  0
  7 45  1  0
 13 46  1  0
 13 47  1  0
 14 48  1  0
 14 49  1  0
 16 50  1  0
 17 51  1  0
 18 52  1  0
 19 53  1  0
 21 54  1  0
 21 55  1  0
 25 56  1  0
 25 57  1  0
 26 58  1  0
 26 59  1  0
 28 60  1  0
 29 61  1  0
 30 62  1  0
 31 63  1  0
 33 64  1  0
 33 65  1  0
 35 66  1  0
 35 67  1  0
 36 68  1  0
 36 69  1  0
M  END
>  <smiles>  (17) 
NC(=O)CC1CCN(c2nc(N3CCc4ccccc4C3)nc(N3CCc4ccccc4C3)n2)CC1

>  <score_type>  (17) 
oracle

>  <origin>  (17) 
autodockgpu

>  <m_score__min__energy>  (17) 
-9.3499999999999996

>  <m_primary>  (17) 
energy

>  <rmsd>  (17) 
8.925163596333055

>  <m_score__min__rmsd>  (17) 
8.925163596333055

>  <meeko>  (17) 
{"free_energy": -8.73, "intermolecular_energy": -10.22, "internal_energy": -1.12, "cluster_size": 28, "cluster_id": 1, "rank_in_cluster": 22}

>  <energy>  (17) 
-8.97

>  <cluster_rmsd>  (17) 
0.64

>  <cluster>  (17) 
1

$$$$

     RDKit          3D

 69 74  0  0  0  0  0  0  0  0999 V2000
  140.3800   67.2880  226.4950 N   0  0  0  0  0  0  0  0  0  0  0  0
  139.5480   68.3970  226.7840 C   0  0  0  0  0  0  0  0  0  0  0  0
  139.6630   69.0120  227.8980 O   0  0  0  0  0  0  0  0  0  0  0  0
  138.5270   68.8940  225.8480 C   0  0  0  0  0  0  0  0  0  0  0  0
  138.8660   70.2310  225.2290 C   0  0  0  0  0  0  0  0  0  0  0  0
  138.5960   70.0930  223.7450 C   0  0  0  0  0  0  0  0  0  0  0  0
  138.7610   71.5050  223.1730 C   0  0  0  0  0  0  0  0  0  0  0  0
  140.1830   71.7770  223.2570 N   0  0  0  0  0  0  0  0  0  0  0  0
  140.7490   72.6970  222.3300 C   0  0  0  0  0  0  0  0  0  0  0  0
  140.3270   73.9750  222.3250 N   0  0  0  0  0  0  0  0  0  0  0  0
  140.8440   74.8650  221.4610 C   0  0  0  0  0  0  0  0  0  0  0  0
  140.3880   76.2110  221.4680 N   0  0  0  0  0  0  0  0  0  0  0  0
  140.1650   76.9090  220.2070 C   0  0  0  0  0  0  0  0  0  0  0  0
  140.7160   78.2960  220.1910 C   0  0  0  0  0  0  0  0  0  0  0  0
  141.2690   78.7510  221.4840 C   0  0  0  0  0  0  0  0  0  0  0  0
  142.0830   79.8610  221.5020 C   0  0  0  0  0  0  0  0  0  0  0  0
  142.6480   80.3650  222.6600 C   0  0  0  0  0  0  0  0  0  0  0  0
  142.3690   79.7080  223.8430 C   0  0  0  0  0  0  0  0  0  0  0  0
  141.5600   78.5890  223.8880 C   0  0  0  0  0  0  0  0  0  0  0  0
  141.0220   78.1330  222.6900 C   0  0  0  0  0  0  0  0  0  0  0  0
  140.1370   76.9170  222.7050 C   0  0  0  0  0  0  0  0  0  0  0  0
  141.7890   74.4680  220.5970 N   0  0  0  0  0  0  0  0  0  0  0  0
  142.2420   73.1850  220.5720 C   0  0  0  0  0  0  0  0  0  0  0  0
  143.2360   72.8300  219.6420 N   0  0  0  0  0  0  0  0  0  0  0  0
  143.1710   73.4310  218.3180 C   0  0  0  0  0  0  0  0  0  0  0  0
  144.6030   73.6530  217.8570 C   0  0  0  0  0  0  0  0  0  0  0  0
  145.1720   72.2800  217.7080 C   0  0  0  0  0  0  0  0  0  0  0  0
  145.8320   71.8770  216.5650 C   0  0  0  0  0  0  0  0  0  0  0  0
  146.3270   70.5890  216.5100 C   0  0  0  0  0  0  0  0  0  0  0  0
  146.1800   69.6910  217.5660 C   0  0  0  0  0  0  0  0  0  0  0  0
  145.5030   70.1520  218.6980 C   0  0  0  0  0  0  0  0  0  0  0  0
  145.0000   71.4290  218.7830 C   0  0  0  0  0  0  0  0  0  0  0  0
  144.2770   71.8990  220.0080 C   0  0  0  0  0  0  0  0  0  0  0  0
  141.7000   72.3250  221.4520 N   0  0  0  0  0  0  0  0  0  0  0  0
  141.0150   71.1350  224.2540 C   0  0  0  0  0  0  0  0  0  0  0  0
  140.2700   70.6690  225.4530 C   0  0  0  0  0  0  0  0  0  0  0  0
  140.9230   67.2340  225.6090 H   0  0  0  0  0  0  0  0  0  0  0  0
  140.4220   66.5290  227.2100 H   0  0  0  0  0  0  0  0  0  0  0  0
  138.4096   68.1573  225.0396 H   0  0  0  0  0  0  0  0  0  0  0  0
  137.6024   69.0343  226.4272 H   0  0  0  0  0  0  0  0  0  0  0  0
  138.2496   71.0066  225.7070 H   0  0  0  0  0  0  0  0  0  0  0  0
  139.3184   69.4033  223.2841 H   0  0  0  0  0  0  0  0  0  0  0  0
  137.5947   69.6834  223.5459 H   0  0  0  0  0  0  0  0  0  0  0  0
  138.4210   71.5414  222.1275 H   0  0  0  0  0  0  0  0  0  0  0  0
  138.1639   72.2473  223.7230 H   0  0  0  0  0  0  0  0  0  0  0  0
  140.6444   76.3342  219.4009 H   0  0  0  0  0  0  0  0  0  0  0  0
  139.0767   76.9906  220.0694 H   0  0  0  0  0  0  0  0  0  0  0  0
  141.5188   78.3381  219.4401 H   0  0  0  0  0  0  0  0  0  0  0  0
  139.8739   78.9644  219.9584 H   0  0  0  0  0  0  0  0  0  0  0  0
  142.2942   80.3714  220.5507 H   0  0  0  0  0  0  0  0  0  0  0  0
  143.2946   81.2547  222.6396 H   0  0  0  0  0  0  0  0  0  0  0  0
  142.8049   80.0880  224.7788 H   0  0  0  0  0  0  0  0  0  0  0  0
  141.3490   78.0769  224.8384 H   0  0  0  0  0  0  0  0  0  0  0  0
  140.3849   76.2772  223.5647 H   0  0  0  0  0  0  0  0  0  0  0  0
  139.0772   77.1975  222.7949 H   0  0  0  0  0  0  0  0  0  0  0  0
  142.6510   72.7560  217.6223 H   0  0  0  0  0  0  0  0  0  0  0  0
  142.6170   74.3809  218.3459 H   0  0  0  0  0  0  0  0  0  0  0  0
  144.6224   74.1871  216.8956 H   0  0  0  0  0  0  0  0  0  0  0  0
  145.1777   74.2663  218.5666 H   0  0  0  0  0  0  0  0  0  0  0  0
  145.9608   72.5659  215.7172 H   0  0  0  0  0  0  0  0  0  0  0  0
  146.8549   70.2607  215.6025 H   0  0  0  0  0  0  0  0  0  0  0  0
  146.5784   68.6672  217.5107 H   0  0  0  0  0  0  0  0  0  0  0  0
  145.3678   69.4700  219.5504 H   0  0  0  0  0  0  0  0  0  0  0  0
  143.8289   71.0348  220.5202 H   0  0  0  0  0  0  0  0  0  0  0  0
  144.9908   72.4014  220.6773 H   0  0  0  0  0  0  0  0  0  0  0  0
  141.5025   70.2650  223.7898 H   0  0  0  0  0  0  0  0  0  0  0  0
  141.7366   71.8895  224.6006 H   0  0  0  0  0  0  0  0  0  0  0  0
  140.8218   69.8190  225.8807 H   0  0  0  0  0  0  0  0  0  0  0  0
  140.2013   71.5456  226.1140 H   0  0  0  0  0  0  0  0  0  0  0  0
  1  2  1  0
  2  3  2  0
  2  4  1  0
  4  5  1  0
  5  6  1  0
  6  7  1  0
  7  8  1  0
  8  9  1  0
  9 10  2  0
 10 11  1  0
 11 12  1  0
 12 13  1  0
 13 14  1  0
 14 15  1  0
 15 16  2  0
 16 17  1  0
 17 18  2  0
 18 19  1  0
 19 20  2  0
 20 21  1  0
 11 22  2  0
 22 23  1  0
 23 24  1  0
 24 25  1  0
 25 26  1  0
 26 27  1  0
 27 28  2  0
 28 29  1  0
 29 30  2  0
 30 31  1  0
 31 32  2  0
 32 33  1  0
 23 34  2  0
  8 35  1  0
 35 36  1  0
 36  5  1  0
 34  9  1  0
 21 12  1  0
 33 24  1  0
 20 15  1  0
 32 27  1  0
  1 37  1  0
  1 38  1  0
  4 39  1  0
  4 40  1  0
  5 41  1  0
  6 42  1  0
  6 43  1  0
  7 44  1  0
  7 45  1  0
 13 46  1  0
 13 47  1  0
 14 48  1  0
 14 49  1  0
 16 50  1  0
 17 51  1  0
 18 52  1  0
 19 53  1  0
 21 54  1  0
 21 55  1  0
 25 56  1  0
 25 57  1  0
 26 58  1  0
 26 59  1  0
 28 60  1  0
 29 61  1  0
 30 62  1  0
 31 63  1  0
 33 64  1  0
 33 65  1  0
 35 66  1  0
 35 67  1  0
 36 68  1  0
 36 69  1  0
M  END
>  <smiles>  (18) 
NC(=O)CC1CCN(c2nc(N3CCc4ccccc4C3)nc(N3CCc4ccccc4C3)n2)CC1

>  <score_type>  (18) 
oracle

>  <origin>  (18) 
autodockgpu

>  <m_score__min__energy>  (18) 
-9.3499999999999996

>  <m_primary>  (18) 
energy

>  <rmsd>  (18) 
8.690006812410388

>  <m_score__min__rmsd>  (18) 
8.690006812410388

>  <meeko>  (18) 
{"free_energy": -9.1, "intermolecular_energy": -10.6, "internal_energy": -1.13, "cluster_size": 28, "cluster_id": 1, "rank_in_cluster": 7}

>  <energy>  (18) 
-8.94

>  <cluster_rmsd>  (18) 
1.81

>  <cluster>  (18) 
1

$$$$

     RDKit          3D

 69 74  0  0  0  0  0  0  0  0999 V2000
  139.9550   67.3450  226.5100 N   0  0  0  0  0  0  0  0  0  0  0  0
  139.2770   68.5770  226.6760 C   0  0  0  0  0  0  0  0  0  0  0  0
  139.2720   69.1580  227.8140 O   0  0  0  0  0  0  0  0  0  0  0  0
  138.5580   69.2460  225.5810 C   0  0  0  0  0  0  0  0  0  0  0  0
  139.4620   69.7760  224.4910 C   0  0  0  0  0  0  0  0  0  0  0  0
  139.9630   71.1220  224.9730 C   0  0  0  0  0  0  0  0  0  0  0  0
  141.0190   71.5480  223.9480 C   0  0  0  0  0  0  0  0  0  0  0  0
  140.2690   71.8530  222.7450 N   0  0  0  0  0  0  0  0  0  0  0  0
  140.8180   72.7910  221.8270 C   0  0  0  0  0  0  0  0  0  0  0  0
  141.4270   72.3470  220.7120 N   0  0  0  0  0  0  0  0  0  0  0  0
  141.9560   73.2090  219.8270 C   0  0  0  0  0  0  0  0  0  0  0  0
  142.5960   72.7230  218.6550 N   0  0  0  0  0  0  0  0  0  0  0  0
  143.4900   71.5740  218.7390 C   0  0  0  0  0  0  0  0  0  0  0  0
  144.7620   71.7550  217.9810 C   0  0  0  0  0  0  0  0  0  0  0  0
  144.8310   73.0000  217.1870 C   0  0  0  0  0  0  0  0  0  0  0  0
  146.0560   73.4230  216.7230 C   0  0  0  0  0  0  0  0  0  0  0  0
  146.2240   74.5720  215.9720 C   0  0  0  0  0  0  0  0  0  0  0  0
  145.0960   75.3170  215.6860 C   0  0  0  0  0  0  0  0  0  0  0  0
  143.8400   74.9440  216.1240 C   0  0  0  0  0  0  0  0  0  0  0  0
  143.7380   73.7770  216.8740 C   0  0  0  0  0  0  0  0  0  0  0  0
  142.3840   73.3450  217.3660 C   0  0  0  0  0  0  0  0  0  0  0  0
  141.8710   74.5260  220.0640 N   0  0  0  0  0  0  0  0  0  0  0  0
  141.2630   75.0150  221.1800 C   0  0  0  0  0  0  0  0  0  0  0  0
  141.2060   76.4070  221.3720 N   0  0  0  0  0  0  0  0  0  0  0  0
  141.3860   77.2600  220.2070 C   0  0  0  0  0  0  0  0  0  0  0  0
  140.4860   78.4710  220.3950 C   0  0  0  0  0  0  0  0  0  0  0  0
  141.0530   79.1860  221.5780 C   0  0  0  0  0  0  0  0  0  0  0  0
  141.3310   80.5380  221.5570 C   0  0  0  0  0  0  0  0  0  0  0  0
  141.8550   81.1200  222.6940 C   0  0  0  0  0  0  0  0  0  0  0  0
  142.1100   80.3890  223.8530 C   0  0  0  0  0  0  0  0  0  0  0  0
  141.8100   79.0250  223.8180 C   0  0  0  0  0  0  0  0  0  0  0  0
  141.2870   78.4170  222.7020 C   0  0  0  0  0  0  0  0  0  0  0  0
  140.9750   76.9510  222.6890 C   0  0  0  0  0  0  0  0  0  0  0  0
  140.7470   74.1190  222.0400 N   0  0  0  0  0  0  0  0  0  0  0  0
  138.9910   71.2250  222.4750 C   0  0  0  0  0  0  0  0  0  0  0  0
  138.8000   69.9230  223.1670 C   0  0  0  0  0  0  0  0  0  0  0  0
  140.6460   67.2040  225.7450 H   0  0  0  0  0  0  0  0  0  0  0  0
  139.7300   66.5850  227.1910 H   0  0  0  0  0  0  0  0  0  0  0  0
  137.8603   68.5237  225.1321 H   0  0  0  0  0  0  0  0  0  0  0  0
  138.0424   70.1132  226.0192 H   0  0  0  0  0  0  0  0  0  0  0  0
  140.2722   69.0516  224.3215 H   0  0  0  0  0  0  0  0  0  0  0  0
  139.1400   71.8511  225.0047 H   0  0  0  0  0  0  0  0  0  0  0  0
  140.3768   71.0663  225.9907 H   0  0  0  0  0  0  0  0  0  0  0  0
  141.5640   72.4363  224.3000 H   0  0  0  0  0  0  0  0  0  0  0  0
  141.7722   70.7643  223.7791 H   0  0  0  0  0  0  0  0  0  0  0  0
  143.7364   71.4008  219.7970 H   0  0  0  0  0  0  0  0  0  0  0  0
  142.9631   70.7197  218.2890 H   0  0  0  0  0  0  0  0  0  0  0  0
  145.5933   71.7605  218.7013 H   0  0  0  0  0  0  0  0  0  0  0  0
  144.8196   70.9231  217.2637 H   0  0  0  0  0  0  0  0  0  0  0  0
  146.9435   72.8183  216.9609 H   0  0  0  0  0  0  0  0  0  0  0  0
  147.2178   74.8811  215.6159 H   0  0  0  0  0  0  0  0  0  0  0  0
  145.2014   76.2361  215.0908 H   0  0  0  0  0  0  0  0  0  0  0  0
  142.9519   75.5486  215.8879 H   0  0  0  0  0  0  0  0  0  0  0  0
  141.7209   74.2166  217.4688 H   0  0  0  0  0  0  0  0  0  0  0  0
  141.9077   72.6479  216.6608 H   0  0  0  0  0  0  0  0  0  0  0  0
  142.4361   77.5786  220.1315 H   0  0  0  0  0  0  0  0  0  0  0  0
  141.1281   76.7206  219.2837 H   0  0  0  0  0  0  0  0  0  0  0  0
  140.5115   79.1152  219.5037 H   0  0  0  0  0  0  0  0  0  0  0  0
  139.4338   78.1878  220.5453 H   0  0  0  0  0  0  0  0  0  0  0  0
  141.1394   81.1379  220.6551 H   0  0  0  0  0  0  0  0  0  0  0  0
  142.0788   82.1970  222.6849 H   0  0  0  0  0  0  0  0  0  0  0  0
  142.5278   80.8638  224.7530 H   0  0  0  0  0  0  0  0  0  0  0  0
  141.9989   78.4166  224.7147 H   0  0  0  0  0  0  0  0  0  0  0  0
  141.6211   76.4349  223.4144 H   0  0  0  0  0  0  0  0  0  0  0  0
  139.9187   76.8050  222.9590 H   0  0  0  0  0  0  0  0  0  0  0  0
  138.1935   71.9097  222.7995 H   0  0  0  0  0  0  0  0  0  0  0  0
  138.9587   71.0196  221.3948 H   0  0  0  0  0  0  0  0  0  0  0  0
  137.7197   69.7774  223.3146 H   0  0  0  0  0  0  0  0  0  0  0  0
  139.2752   69.1734  222.5171 H   0  0  0  0  0  0  0  0  0  0  0  0
  1  2  1  0
  2  3  2  0
  2  4  1  0
  4  5  1  0
  5  6  1  0
  6  7  1  0
  7  8  1  0
  8  9  1  0
  9 10  2  0
 10 11  1  0
 11 12  1  0
 12 13  1  0
 13 14  1  0
 14 15  1  0
 15 16  2  0
 16 17  1  0
 17 18  2  0
 18 19  1  0
 19 20  2  0
 20 21  1  0
 11 22  2  0
 22 23  1  0
 23 24  1  0
 24 25  1  0
 25 26  1  0
 26 27  1  0
 27 28  2  0
 28 29  1  0
 29 30  2  0
 30 31  1  0
 31 32  2  0
 32 33  1  0
 23 34  2  0
  8 35  1  0
 35 36  1  0
 36  5  1  0
 34  9  1  0
 21 12  1  0
 33 24  1  0
 20 15  1  0
 32 27  1  0
  1 37  1  0
  1 38  1  0
  4 39  1  0
  4 40  1  0
  5 41  1  0
  6 42  1  0
  6 43  1  0
  7 44  1  0
  7 45  1  0
 13 46  1  0
 13 47  1  0
 14 48  1  0
 14 49  1  0
 16 50  1  0
 17 51  1  0
 18 52  1  0
 19 53  1  0
 21 54  1  0
 21 55  1  0
 25 56  1  0
 25 57  1  0
 26 58  1  0
 26 59  1  0
 28 60  1  0
 29 61  1  0
 30 62  1  0
 31 63  1  0
 33 64  1  0
 33 65  1  0
 35 66  1  0
 35 67  1  0
 36 68  1  0
 36 69  1  0
M  END
>  <smiles>  (19) 
NC(=O)CC1CCN(c2nc(N3CCc4ccccc4C3)nc(N3CCc4ccccc4C3)n2)CC1

>  <score_type>  (19) 
oracle

>  <origin>  (19) 
autodockgpu

>  <m_score__min__energy>  (19) 
-9.3499999999999996

>  <m_primary>  (19) 
energy

>  <rmsd>  (19) 
8.62379139683739

>  <m_score__min__rmsd>  (19) 
8.62379139683739

>  <meeko>  (19) 
{"free_energy": -8.2, "intermolecular_energy": -9.69, "internal_energy": -1.15, "cluster_size": 28, "cluster_id": 1, "rank_in_cluster": 28}

>  <energy>  (19) 
-8.91

>  <cluster_rmsd>  (19) 
0.72

>  <cluster>  (19) 
1

$$$$

     RDKit          3D

 69 74  0  0  0  0  0  0  0  0999 V2000
  140.6430   67.1170  226.4580 N   0  0  0  0  0  0  0  0  0  0  0  0
  140.1790   68.3950  226.8540 C   0  0  0  0  0  0  0  0  0  0  0  0
  140.9070   69.1400  227.5940 O   0  0  0  0  0  0  0  0  0  0  0  0
  138.8690   68.9290  226.4490 C   0  0  0  0  0  0  0  0  0  0  0  0
  138.9510   70.0190  225.4040 C   0  0  0  0  0  0  0  0  0  0  0  0
  139.3790   69.3430  224.1170 C   0  0  0  0  0  0  0  0  0  0  0  0
  139.2690   70.4250  223.0380 C   0  0  0  0  0  0  0  0  0  0  0  0
  140.3420   71.3540  223.3320 N   0  0  0  0  0  0  0  0  0  0  0  0
  140.8860   72.1170  222.2600 C   0  0  0  0  0  0  0  0  0  0  0  0
  141.4330   71.4820  221.2080 N   0  0  0  0  0  0  0  0  0  0  0  0
  141.9540   72.1750  220.1810 C   0  0  0  0  0  0  0  0  0  0  0  0
  142.5290   71.4890  219.0770 N   0  0  0  0  0  0  0  0  0  0  0  0
  141.6930   70.6380  218.2360 C   0  0  0  0  0  0  0  0  0  0  0  0
  142.3180   69.3220  217.9180 C   0  0  0  0  0  0  0  0  0  0  0  0
  143.7070   69.1690  218.3990 C   0  0  0  0  0  0  0  0  0  0  0  0
  144.2560   67.9080  218.4520 C   0  0  0  0  0  0  0  0  0  0  0  0
  145.5460   67.6630  218.8860 C   0  0  0  0  0  0  0  0  0  0  0  0
  146.3020   68.7490  219.2820 C   0  0  0  0  0  0  0  0  0  0  0  0
  145.8070   70.0380  219.2520 C   0  0  0  0  0  0  0  0  0  0  0  0
  144.5030   70.2180  218.8040 C   0  0  0  0  0  0  0  0  0  0  0  0
  143.9340   71.6100  218.7610 C   0  0  0  0  0  0  0  0  0  0  0  0
  141.9250   73.5150  220.2130 N   0  0  0  0  0  0  0  0  0  0  0  0
  141.3800   74.1940  221.2600 C   0  0  0  0  0  0  0  0  0  0  0  0
  141.3800   75.6000  221.2350 N   0  0  0  0  0  0  0  0  0  0  0  0
  142.0740   76.2590  220.1390 C   0  0  0  0  0  0  0  0  0  0  0  0
  141.2840   77.5140  219.7980 C   0  0  0  0  0  0  0  0  0  0  0  0
  141.4110   78.3820  221.0070 C   0  0  0  0  0  0  0  0  0  0  0  0
  141.7960   79.7050  220.9260 C   0  0  0  0  0  0  0  0  0  0  0  0
  141.8890   80.4360  222.0940 C   0  0  0  0  0  0  0  0  0  0  0  0
  141.6070   79.8830  223.3410 C   0  0  0  0  0  0  0  0  0  0  0  0
  141.2220   78.5400  223.3640 C   0  0  0  0  0  0  0  0  0  0  0  0
  141.1200   77.7860  222.2200 C   0  0  0  0  0  0  0  0  0  0  0  0
  140.7060   76.3470  222.2710 C   0  0  0  0  0  0  0  0  0  0  0  0
  140.8700   73.4630  222.2670 N   0  0  0  0  0  0  0  0  0  0  0  0
  140.8570   71.5110  224.6770 C   0  0  0  0  0  0  0  0  0  0  0  0
  139.8950   71.1180  225.7400 C   0  0  0  0  0  0  0  0  0  0  0  0
  140.6430   66.8240  225.4590 H   0  0  0  0  0  0  0  0  0  0  0  0
  140.9830   66.4820  227.2140 H   0  0  0  0  0  0  0  0  0  0  0  0
  138.2684   68.1024  226.0416 H   0  0  0  0  0  0  0  0  0  0  0  0
  138.4149   69.3775  227.3449 H   0  0  0  0  0  0  0  0  0  0  0  0
  137.9679   70.5065  225.3269 H   0  0  0  0  0  0  0  0  0  0  0  0
  140.4151   68.9822  224.1970 H   0  0  0  0  0  0  0  0  0  0  0  0
  138.7547   68.4673  223.8857 H   0  0  0  0  0  0  0  0  0  0  0  0
  139.3986   69.9880  222.0369 H   0  0  0  0  0  0  0  0  0  0  0  0
  138.2841   70.9149  223.0411 H   0  0  0  0  0  0  0  0  0  0  0  0
  140.7432   70.4553  218.7599 H   0  0  0  0  0  0  0  0  0  0  0  0
  141.5471   71.1669  217.2826 H   0  0  0  0  0  0  0  0  0  0  0  0
  141.7065   68.5316  218.3778 H   0  0  0  0  0  0  0  0  0  0  0  0
  142.3583   69.2527  216.8209 H   0  0  0  0  0  0  0  0  0  0  0  0
  143.6393   67.0544  218.1340 H   0  0  0  0  0  0  0  0  0  0  0  0
  145.9545   66.6421  218.9147 H   0  0  0  0  0  0  0  0  0  0  0  0
  147.3312   68.5819  219.6325 H   0  0  0  0  0  0  0  0  0  0  0  0
  146.4225   70.8920  219.5712 H   0  0  0  0  0  0  0  0  0  0  0  0
  144.4365   72.2490  219.5021 H   0  0  0  0  0  0  0  0  0  0  0  0
  144.0812   72.0695  217.7725 H   0  0  0  0  0  0  0  0  0  0  0  0
  143.0952   76.5282  220.4468 H   0  0  0  0  0  0  0  0  0  0  0  0
  142.1472   75.5937  219.2661 H   0  0  0  0  0  0  0  0  0  0  0  0
  141.7107   78.0132  218.9155 H   0  0  0  0  0  0  0  0  0  0  0  0
  140.2348   77.2918  219.5535 H   0  0  0  0  0  0  0  0  0  0  0  0
  142.0235   80.1664  219.9537 H   0  0  0  0  0  0  0  0  0  0  0  0
  142.1962   81.4907  222.0377 H   0  0  0  0  0  0  0  0  0  0  0  0
  141.6838   80.4758  224.2644 H   0  0  0  0  0  0  0  0  0  0  0  0
  140.9926   78.0700  224.3317 H   0  0  0  0  0  0  0  0  0  0  0  0
  140.9699   75.9270  223.2528 H   0  0  0  0  0  0  0  0  0  0  0  0
  139.6192   76.2791  222.1150 H   0  0  0  0  0  0  0  0  0  0  0  0
  141.7580   70.8881  224.7778 H   0  0  0  0  0  0  0  0  0  0  0  0
  141.0663   72.5820  224.8158 H   0  0  0  0  0  0  0  0  0  0  0  0
  140.4773   70.8023  226.6182 H   0  0  0  0  0  0  0  0  0  0  0  0
  139.2647   72.0041  225.9059 H   0  0  0  0  0  0  0  0  0  0  0  0
  1  2  1  0
  2  3  2  0
  2  4  1  0
  4  5  1  0
  5  6  1  0
  6  7  1  0
  7  8  1  0
  8  9  1  0
  9 10  2  0
 10 11  1  0
 11 12  1  0
 12 13  1  0
 13 14  1  0
 14 15  1  0
 15 16  2  0
 16 17  1  0
 17 18  2  0
 18 19  1  0
 19 20  2  0
 20 21  1  0
 11 22  2  0
 22 23  1  0
 23 24  1  0
 24 25  1  0
 25 26  1  0
 26 27  1  0
 27 28  2  0
 28 29  1  0
 29 30  2  0
 30 31  1  0
 31 32  2  0
 32 33  1  0
 23 34  2  0
  8 35  1  0
 35 36  1  0
 36  5  1  0
 34  9  1  0
 21 12  1  0
 33 24  1  0
 20 15  1  0
 32 27  1  0
  1 37  1  0
  1 38  1  0
  4 39  1  0
  4 40  1  0
  5 41  1  0
  6 42  1  0
  6 43  1  0
  7 44  1  0
  7 45  1  0
 13 46  1  0
 13 47  1  0
 14 48  1  0
 14 49  1  0
 16 50  1  0
 17 51  1  0
 18 52  1  0
 19 53  1  0
 21 54  1  0
 21 55  1  0
 25 56  1  0
 25 57  1  0
 26 58  1  0
 26 59  1  0
 28 60  1  0
 29 61  1  0
 30 62  1  0
 31 63  1  0
 33 64  1  0
 33 65  1  0
 35 66  1  0
 35 67  1  0
 36 68  1  0
 36 69  1  0
M  END
>  <smiles>  (20) 
NC(=O)CC1CCN(c2nc(N3CCc4ccccc4C3)nc(N3CCc4ccccc4C3)n2)CC1

>  <score_type>  (20) 
oracle

>  <origin>  (20) 
autodockgpu

>  <m_score__min__energy>  (20) 
-9.3499999999999996

>  <m_primary>  (20) 
energy

>  <rmsd>  (20) 
8.939748203116666

>  <m_score__min__rmsd>  (20) 
8.939748203116666

>  <meeko>  (20) 
{"free_energy": -9.01, "intermolecular_energy": -10.5, "internal_energy": -1.15, "cluster_size": 28, "cluster_id": 1, "rank_in_cluster": 15}

>  <energy>  (20) 
-8.85

>  <cluster_rmsd>  (20) 
1.6

>  <cluster>  (20) 
1

$$$$

     RDKit          3D

 69 74  0  0  0  0  0  0  0  0999 V2000
  146.1340   68.1230  217.0420 N   0  0  0  0  0  0  0  0  0  0  0  0
  146.2610   69.4220  217.5920 C   0  0  0  0  0  0  0  0  0  0  0  0
  146.7120   69.5750  218.7770 O   0  0  0  0  0  0  0  0  0  0  0  0
  145.8920   70.6410  216.8540 C   0  0  0  0  0  0  0  0  0  0  0  0
  144.6920   71.3610  217.4260 C   0  0  0  0  0  0  0  0  0  0  0  0
  145.1870   72.1090  218.6460 C   0  0  0  0  0  0  0  0  0  0  0  0
  144.0060   72.9780  219.0920 C   0  0  0  0  0  0  0  0  0  0  0  0
  143.0310   72.0400  219.6150 N   0  0  0  0  0  0  0  0  0  0  0  0
  142.1150   72.5010  220.6020 C   0  0  0  0  0  0  0  0  0  0  0  0
  141.6010   73.7400  220.5000 N   0  0  0  0  0  0  0  0  0  0  0  0
  140.7340   74.2020  221.4170 C   0  0  0  0  0  0  0  0  0  0  0  0
  140.2000   75.5140  221.2950 N   0  0  0  0  0  0  0  0  0  0  0  0
  139.9220   76.0640  219.9730 C   0  0  0  0  0  0  0  0  0  0  0  0
  140.3910   77.4710  219.8060 C   0  0  0  0  0  0  0  0  0  0  0  0
  140.9310   78.0880  221.0360 C   0  0  0  0  0  0  0  0  0  0  0  0
  141.6790   79.2380  220.9270 C   0  0  0  0  0  0  0  0  0  0  0  0
  142.2260   79.8900  222.0170 C   0  0  0  0  0  0  0  0  0  0  0  0
  142.0000   79.3430  223.2660 C   0  0  0  0  0  0  0  0  0  0  0  0
  141.2580   78.1910  223.4390 C   0  0  0  0  0  0  0  0  0  0  0  0
  140.7340   77.5840  222.3030 C   0  0  0  0  0  0  0  0  0  0  0  0
  139.9220   76.3270  222.4580 C   0  0  0  0  0  0  0  0  0  0  0  0
  140.3820   73.4130  222.4430 N   0  0  0  0  0  0  0  0  0  0  0  0
  140.8790   72.1540  222.5800 C   0  0  0  0  0  0  0  0  0  0  0  0
  140.4720   71.3750  223.6780 N   0  0  0  0  0  0  0  0  0  0  0  0
  139.1140   70.8520  223.6710 C   0  0  0  0  0  0  0  0  0  0  0  0
  139.1580   69.4820  224.3310 C   0  0  0  0  0  0  0  0  0  0  0  0
  139.5360   69.7560  225.7500 C   0  0  0  0  0  0  0  0  0  0  0  0
  138.8270   69.2350  226.8140 C   0  0  0  0  0  0  0  0  0  0  0  0
  139.2440   69.5390  228.0940 C   0  0  0  0  0  0  0  0  0  0  0  0
  140.3500   70.3490  228.3430 C   0  0  0  0  0  0  0  0  0  0  0  0
  141.0300   70.8490  227.2290 C   0  0  0  0  0  0  0  0  0  0  0  0
  140.6400   70.5640  225.9420 C   0  0  0  0  0  0  0  0  0  0  0  0
  141.3860   71.1140  224.7650 C   0  0  0  0  0  0  0  0  0  0  0  0
  141.7450   71.7290  221.6410 N   0  0  0  0  0  0  0  0  0  0  0  0
  142.9820   70.6680  219.1520 C   0  0  0  0  0  0  0  0  0  0  0  0
  143.5640   70.4660  217.8000 C   0  0  0  0  0  0  0  0  0  0  0  0
  146.5370   67.8860  216.1120 H   0  0  0  0  0  0  0  0  0  0  0  0
  145.6180   67.4170  217.6110 H   0  0  0  0  0  0  0  0  0  0  0  0
  146.7498   71.3294  216.8705 H   0  0  0  0  0  0  0  0  0  0  0  0
  145.6222   70.3288  215.8343 H   0  0  0  0  0  0  0  0  0  0  0  0
  144.2792   72.0259  216.6530 H   0  0  0  0  0  0  0  0  0  0  0  0
  145.4695   71.4044  219.4420 H   0  0  0  0  0  0  0  0  0  0  0  0
  146.0799   72.7119  218.4240 H   0  0  0  0  0  0  0  0  0  0  0  0
  144.3196   73.6864  219.8729 H   0  0  0  0  0  0  0  0  0  0  0  0
  143.5999   73.5812  218.2666 H   0  0  0  0  0  0  0  0  0  0  0  0
  140.4249   75.4373  219.2218 H   0  0  0  0  0  0  0  0  0  0  0  0
  138.8293   76.0686  219.8463 H   0  0  0  0  0  0  0  0  0  0  0  0
  141.1816   77.4810  219.0412 H   0  0  0  0  0  0  0  0  0  0  0  0
  139.5087   78.0628  219.5209 H   0  0  0  0  0  0  0  0  0  0  0  0
  141.8499   79.6586  219.9251 H   0  0  0  0  0  0  0  0  0  0  0  0
  142.8183   80.8088  221.8947 H   0  0  0  0  0  0  0  0  0  0  0  0
  142.4245   79.8409  224.1502 H   0  0  0  0  0  0  0  0  0  0  0  0
  141.0876   77.7685  224.4402 H   0  0  0  0  0  0  0  0  0  0  0  0
  140.2173   75.7941  223.3739 H   0  0  0  0  0  0  0  0  0  0  0  0
  138.8486   76.5536  222.5382 H   0  0  0  0  0  0  0  0  0  0  0  0
  138.4490   71.5217  224.2361 H   0  0  0  0  0  0  0  0  0  0  0  0
  138.7282   70.7790  222.6435 H   0  0  0  0  0  0  0  0  0  0  0  0
  138.1732   68.9948  224.2792 H   0  0  0  0  0  0  0  0  0  0  0  0
  139.8680   68.8039  223.8349 H   0  0  0  0  0  0  0  0  0  0  0  0
  137.9502   68.5926  226.6454 H   0  0  0  0  0  0  0  0  0  0  0  0
  138.6840   69.1277  228.9468 H   0  0  0  0  0  0  0  0  0  0  0  0
  140.6728   70.5839  229.3680 H   0  0  0  0  0  0  0  0  0  0  0  0
  141.9077   71.4929  227.3876 H   0  0  0  0  0  0  0  0  0  0  0  0
  141.8839   72.0510  225.0550 H   0  0  0  0  0  0  0  0  0  0  0  0
  142.1356   70.3786  224.4373 H   0  0  0  0  0  0  0  0  0  0  0  0
  143.5383   70.0420  219.8652 H   0  0  0  0  0  0  0  0  0  0  0  0
  141.9193   70.3919  219.0858 H   0  0  0  0  0  0  0  0  0  0  0  0
  143.9263   69.4289  217.7429 H   0  0  0  0  0  0  0  0  0  0  0  0
  142.7546   70.7047  217.0943 H   0  0  0  0  0  0  0  0  0  0  0  0
  1  2  1  0
  2  3  2  0
  2  4  1  0
  4  5  1  0
  5  6  1  0
  6  7  1  0
  7  8  1  0
  8  9  1  0
  9 10  2  0
 10 11  1  0
 11 12  1  0
 12 13  1  0
 13 14  1  0
 14 15  1  0
 15 16  2  0
 16 17  1  0
 17 18  2  0
 18 19  1  0
 19 20  2  0
 20 21  1  0
 11 22  2  0
 22 23  1  0
 23 24  1  0
 24 25  1  0
 25 26  1  0
 26 27  1  0
 27 28  2  0
 28 29  1  0
 29 30  2  0
 30 31  1  0
 31 32  2  0
 32 33  1  0
 23 34  2  0
  8 35  1  0
 35 36  1  0
 36  5  1  0
 34  9  1  0
 21 12  1  0
 33 24  1  0
 20 15  1  0
 32 27  1  0
  1 37  1  0
  1 38  1  0
  4 39  1  0
  4 40  1  0
  5 41  1  0
  6 42  1  0
  6 43  1  0
  7 44  1  0
  7 45  1  0
 13 46  1  0
 13 47  1  0
 14 48  1  0
 14 49  1  0
 16 50  1  0
 17 51  1  0
 18 52  1  0
 19 53  1  0
 21 54  1  0
 21 55  1  0
 25 56  1  0
 25 57  1  0
 26 58  1  0
 26 59  1  0
 28 60  1  0
 29 61  1  0
 30 62  1  0
 31 63  1  0
 33 64  1  0
 33 65  1  0
 35 66  1  0
 35 67  1  0
 36 68  1  0
 36 69  1  0
M  END
>  <smiles>  (21) 
NC(=O)CC1CCN(c2nc(N3CCc4ccccc4C3)nc(N3CCc4ccccc4C3)n2)CC1

>  <score_type>  (21) 
oracle

>  <origin>  (21) 
autodockgpu

>  <m_score__min__energy>  (21) 
-9.3499999999999996

>  <m_primary>  (21) 
energy

>  <rmsd>  (21) 
8.006229319424646

>  <m_score__min__rmsd>  (21) 
8.006229319424646

>  <meeko>  (21) 
{"free_energy": -8.37, "intermolecular_energy": -9.86, "internal_energy": -1.17, "cluster_size": 3, "cluster_id": 5, "rank_in_cluster": 2}

>  <energy>  (21) 
-8.82

>  <cluster_rmsd>  (21) 
0.8

>  <cluster>  (21) 
1

$$$$

     RDKit          3D

 69 74  0  0  0  0  0  0  0  0999 V2000
  142.6150   79.2490  222.2470 N   0  0  0  0  0  0  0  0  0  0  0  0
  141.2600   79.6480  222.1600 C   0  0  0  0  0  0  0  0  0  0  0  0
  140.7140   80.2810  223.1270 O   0  0  0  0  0  0  0  0  0  0  0  0
  140.4190   79.3690  220.9850 C   0  0  0  0  0  0  0  0  0  0  0  0
  140.2310   77.8950  220.7050 C   0  0  0  0  0  0  0  0  0  0  0  0
  139.8220   77.2620  222.0190 C   0  0  0  0  0  0  0  0  0  0  0  0
  139.4530   75.8160  221.6710 C   0  0  0  0  0  0  0  0  0  0  0  0
  140.7130   75.1790  221.3410 N   0  0  0  0  0  0  0  0  0  0  0  0
  140.8290   73.7740  221.5350 C   0  0  0  0  0  0  0  0  0  0  0  0
  141.2030   72.9930  220.5040 N   0  0  0  0  0  0  0  0  0  0  0  0
  141.3210   71.6630  220.6570 C   0  0  0  0  0  0  0  0  0  0  0  0
  141.7170   70.8530  219.5580 N   0  0  0  0  0  0  0  0  0  0  0  0
  140.8010   69.8500  219.0280 C   0  0  0  0  0  0  0  0  0  0  0  0
  141.4510   68.5330  218.7640 C   0  0  0  0  0  0  0  0  0  0  0  0
  142.9150   68.5200  218.9640 C   0  0  0  0  0  0  0  0  0  0  0  0
  143.5590   67.3090  219.0680 C   0  0  0  0  0  0  0  0  0  0  0  0
  144.9240   67.1920  219.2550 C   0  0  0  0  0  0  0  0  0  0  0  0
  145.6580   68.3610  219.3390 C   0  0  0  0  0  0  0  0  0  0  0  0
  145.0680   69.6060  219.2420 C   0  0  0  0  0  0  0  0  0  0  0  0
  143.6910   69.6550  219.0530 C   0  0  0  0  0  0  0  0  0  0  0  0
  143.0190   70.9960  218.9450 C   0  0  0  0  0  0  0  0  0  0  0  0
  141.0610   71.1150  221.8520 N   0  0  0  0  0  0  0  0  0  0  0  0
  140.6810   71.8710  222.9190 C   0  0  0  0  0  0  0  0  0  0  0  0
  140.4230   71.2370  224.1470 N   0  0  0  0  0  0  0  0  0  0  0  0
  141.2210   71.6350  225.2970 C   0  0  0  0  0  0  0  0  0  0  0  0
  140.3150   71.5710  226.5160 C   0  0  0  0  0  0  0  0  0  0  0  0
  139.9850   70.1220  226.6680 C   0  0  0  0  0  0  0  0  0  0  0  0
  140.1230   69.4580  227.8700 C   0  0  0  0  0  0  0  0  0  0  0  0
  139.7960   68.1170  227.9240 C   0  0  0  0  0  0  0  0  0  0  0  0
  139.3350   67.4200  226.8080 C   0  0  0  0  0  0  0  0  0  0  0  0
  139.2150   68.1420  225.6180 C   0  0  0  0  0  0  0  0  0  0  0  0
  139.5320   69.4770  225.5330 C   0  0  0  0  0  0  0  0  0  0  0  0
  139.3950   70.2270  224.2440 C   0  0  0  0  0  0  0  0  0  0  0  0
  140.5750   73.1980  222.7240 N   0  0  0  0  0  0  0  0  0  0  0  0
  141.8320   75.9440  220.8290 C   0  0  0  0  0  0  0  0  0  0  0  0
  141.4410   77.2160  220.1680 C   0  0  0  0  0  0  0  0  0  0  0  0
  143.2980   79.4750  221.4940 H   0  0  0  0  0  0  0  0  0  0  0  0
  142.8980   78.7170  223.1000 H   0  0  0  0  0  0  0  0  0  0  0  0
  139.4294   79.8192  221.1521 H   0  0  0  0  0  0  0  0  0  0  0  0
  140.9348   79.7974  220.1130 H   0  0  0  0  0  0  0  0  0  0  0  0
  139.4712   77.7806  219.9178 H   0  0  0  0  0  0  0  0  0  0  0  0
  140.6569   77.2854  222.7348 H   0  0  0  0  0  0  0  0  0  0  0  0
  138.9849   77.7978  222.4904 H   0  0  0  0  0  0  0  0  0  0  0  0
  138.9817   75.3189  222.5317 H   0  0  0  0  0  0  0  0  0  0  0  0
  138.7313   75.7605  220.8427 H   0  0  0  0  0  0  0  0  0  0  0  0
  139.9905   69.6989  219.7561 H   0  0  0  0  0  0  0  0  0  0  0  0
  140.4295   70.2273  218.0639 H   0  0  0  0  0  0  0  0  0  0  0  0
  141.0055   67.7885  219.4402 H   0  0  0  0  0  0  0  0  0  0  0  0
  141.2789   68.3072  217.7013 H   0  0  0  0  0  0  0  0  0  0  0  0
  142.9593   66.3894  218.9991 H   0  0  0  0  0  0  0  0  0  0  0  0
  145.4074   66.2071  219.3339 H   0  0  0  0  0  0  0  0  0  0  0  0
  146.7460   68.2973  219.4878 H   0  0  0  0  0  0  0  0  0  0  0  0
  145.6662   70.5265  219.3118 H   0  0  0  0  0  0  0  0  0  0  0  0
  143.6070   71.7596  219.4753 H   0  0  0  0  0  0  0  0  0  0  0  0
  142.9320   71.3142  217.8956 H   0  0  0  0  0  0  0  0  0  0  0  0
  142.0706   70.9477  225.4223 H   0  0  0  0  0  0  0  0  0  0  0  0
  141.6225   72.6501  225.1615 H   0  0  0  0  0  0  0  0  0  0  0  0
  140.8383   71.9453  227.4082 H   0  0  0  0  0  0  0  0  0  0  0  0
  139.4151   72.1926  226.3986 H   0  0  0  0  0  0  0  0  0  0  0  0
  140.4853   69.9849  228.7651 H   0  0  0  0  0  0  0  0  0  0  0  0
  139.9028   67.5815  228.8789 H   0  0  0  0  0  0  0  0  0  0  0  0
  139.0779   66.3518  226.8619 H   0  0  0  0  0  0  0  0  0  0  0  0
  138.8541   67.6240  224.7172 H   0  0  0  0  0  0  0  0  0  0  0  0
  139.4933   69.5255  223.4024 H   0  0  0  0  0  0  0  0  0  0  0  0
  138.4085   70.7125  224.2125 H   0  0  0  0  0  0  0  0  0  0  0  0
  142.5017   76.1818  221.6686 H   0  0  0  0  0  0  0  0  0  0  0  0
  142.3187   75.3229  220.0626 H   0  0  0  0  0  0  0  0  0  0  0  0
  142.2856   77.9146  220.2602 H   0  0  0  0  0  0  0  0  0  0  0  0
  141.1877   76.9421  219.1332 H   0  0  0  0  0  0  0  0  0  0  0  0
  1  2  1  0
  2  3  2  0
  2  4  1  0
  4  5  1  0
  5  6  1  0
  6  7  1  0
  7  8  1  0
  8  9  1  0
  9 10  2  0
 10 11  1  0
 11 12  1  0
 12 13  1  0
 13 14  1  0
 14 15  1  0
 15 16  2  0
 16 17  1  0
 17 18  2  0
 18 19  1  0
 19 20  2  0
 20 21  1  0
 11 22  2  0
 22 23  1  0
 23 24  1  0
 24 25  1  0
 25 26  1  0
 26 27  1  0
 27 28  2  0
 28 29  1  0
 29 30  2  0
 30 31  1  0
 31 32  2  0
 32 33  1  0
 23 34  2  0
  8 35  1  0
 35 36  1  0
 36  5  1  0
 34  9  1  0
 21 12  1  0
 33 24  1  0
 20 15  1  0
 32 27  1  0
  1 37  1  0
  1 38  1  0
  4 39  1  0
  4 40  1  0
  5 41  1  0
  6 42  1  0
  6 43  1  0
  7 44  1  0
  7 45  1  0
 13 46  1  0
 13 47  1  0
 14 48  1  0
 14 49  1  0
 16 50  1  0
 17 51  1  0
 18 52  1  0
 19 53  1  0
 21 54  1  0
 21 55  1  0
 25 56  1  0
 25 57  1  0
 26 58  1  0
 26 59  1  0
 28 60  1  0
 29 61  1  0
 30 62  1  0
 31 63  1  0
 33 64  1  0
 33 65  1  0
 35 66  1  0
 35 67  1  0
 36 68  1  0
 36 69  1  0
M  END
>  <smiles>  (22) 
NC(=O)CC1CCN(c2nc(N3CCc4ccccc4C3)nc(N3CCc4ccccc4C3)n2)CC1

>  <score_type>  (22) 
oracle

>  <origin>  (22) 
autodockgpu

>  <m_score__min__energy>  (22) 
-9.3499999999999996

>  <m_primary>  (22) 
energy

>  <rmsd>  (22) 
3.7587017438230603

>  <m_score__min__rmsd>  (22) 
3.7587017438230603

>  <meeko>  (22) 
{"free_energy": -9.15, "intermolecular_energy": -10.65, "internal_energy": -1.17, "cluster_size": 15, "cluster_id": 2, "rank_in_cluster": 7}

>  <energy>  (22) 
-8.73

>  <cluster_rmsd>  (22) 
0.78

>  <cluster>  (22) 
1

$$$$

     RDKit          3D

 69 74  0  0  0  0  0  0  0  0999 V2000
  142.6150   79.2220  222.2820 N   0  0  0  0  0  0  0  0  0  0  0  0
  141.2600   79.6120  222.1630 C   0  0  0  0  0  0  0  0  0  0  0  0
  140.6850   80.2350  223.1190 O   0  0  0  0  0  0  0  0  0  0  0  0
  140.4510   79.3320  220.9650 C   0  0  0  0  0  0  0  0  0  0  0  0
  140.2320   77.8590  220.7060 C   0  0  0  0  0  0  0  0  0  0  0  0
  139.8930   77.2380  222.0460 C   0  0  0  0  0  0  0  0  0  0  0  0
  139.4890   75.7940  221.7290 C   0  0  0  0  0  0  0  0  0  0  0  0
  140.7220   75.1420  221.3310 N   0  0  0  0  0  0  0  0  0  0  0  0
  140.8340   73.7370  221.5260 C   0  0  0  0  0  0  0  0  0  0  0  0
  141.2080   72.9540  220.4970 N   0  0  0  0  0  0  0  0  0  0  0  0
  141.3230   71.6240  220.6520 C   0  0  0  0  0  0  0  0  0  0  0  0
  141.7180   70.8120  219.5550 N   0  0  0  0  0  0  0  0  0  0  0  0
  140.8070   69.7980  219.0350 C   0  0  0  0  0  0  0  0  0  0  0  0
  141.4650   68.4860  218.7730 C   0  0  0  0  0  0  0  0  0  0  0  0
  142.9310   68.4860  218.9640 C   0  0  0  0  0  0  0  0  0  0  0  0
  143.5860   67.2800  219.0700 C   0  0  0  0  0  0  0  0  0  0  0  0
  144.9530   67.1750  219.2490 C   0  0  0  0  0  0  0  0  0  0  0  0
  145.6780   68.3500  219.3230 C   0  0  0  0  0  0  0  0  0  0  0  0
  145.0770   69.5900  219.2230 C   0  0  0  0  0  0  0  0  0  0  0  0
  143.6990   69.6270  219.0430 C   0  0  0  0  0  0  0  0  0  0  0  0
  143.0150   70.9620  218.9330 C   0  0  0  0  0  0  0  0  0  0  0  0
  141.0600   71.0780  221.8480 N   0  0  0  0  0  0  0  0  0  0  0  0
  140.6800   71.8360  222.9130 C   0  0  0  0  0  0  0  0  0  0  0  0
  140.4190   71.2040  224.1410 N   0  0  0  0  0  0  0  0  0  0  0  0
  141.2120   71.6060  225.2930 C   0  0  0  0  0  0  0  0  0  0  0  0
  140.3010   71.5430  226.5090 C   0  0  0  0  0  0  0  0  0  0  0  0
  139.9740   70.0930  226.6630 C   0  0  0  0  0  0  0  0  0  0  0  0
  140.1090   69.4320  227.8670 C   0  0  0  0  0  0  0  0  0  0  0  0
  139.7860   68.0910  227.9220 C   0  0  0  0  0  0  0  0  0  0  0  0
  139.3310   67.3900  226.8070 C   0  0  0  0  0  0  0  0  0  0  0  0
  139.2140   68.1080  225.6140 C   0  0  0  0  0  0  0  0  0  0  0  0
  139.5270   69.4440  225.5280 C   0  0  0  0  0  0  0  0  0  0  0  0
  139.3930   70.1920  224.2360 C   0  0  0  0  0  0  0  0  0  0  0  0
  140.5770   73.1620  222.7160 N   0  0  0  0  0  0  0  0  0  0  0  0
  141.8170   75.8920  220.7500 C   0  0  0  0  0  0  0  0  0  0  0  0
  141.4010   77.1640  220.1040 C   0  0  0  0  0  0  0  0  0  0  0  0
  143.3140   79.4570  221.5470 H   0  0  0  0  0  0  0  0  0  0  0  0
  142.8800   78.6870  223.1390 H   0  0  0  0  0  0  0  0  0  0  0  0
  139.4690   79.8117  221.0900 H   0  0  0  0  0  0  0  0  0  0  0  0
  141.0075   79.7290  220.1032 H   0  0  0  0  0  0  0  0  0  0  0  0
  139.4268   77.7481  219.9648 H   0  0  0  0  0  0  0  0  0  0  0  0
  140.7682   77.2563  222.7121 H   0  0  0  0  0  0  0  0  0  0  0  0
  139.0904   77.7857  222.5617 H   0  0  0  0  0  0  0  0  0  0  0  0
  139.0629   75.3069  222.6185 H   0  0  0  0  0  0  0  0  0  0  0  0
  138.7199   75.7412  220.9443 H   0  0  0  0  0  0  0  0  0  0  0  0
  140.0023   69.6436  219.7689 H   0  0  0  0  0  0  0  0  0  0  0  0
  140.4271   70.1678  218.0712 H   0  0  0  0  0  0  0  0  0  0  0  0
  141.0297   67.7411  219.4553 H   0  0  0  0  0  0  0  0  0  0  0  0
  141.2878   68.2536  217.7125 H   0  0  0  0  0  0  0  0  0  0  0  0
  142.9934   66.3553  219.0094 H   0  0  0  0  0  0  0  0  0  0  0  0
  145.4448   66.1944  219.3294 H   0  0  0  0  0  0  0  0  0  0  0  0
  146.7673   68.2958  219.4660 H   0  0  0  0  0  0  0  0  0  0  0  0
  145.6682   70.5156  219.2837 H   0  0  0  0  0  0  0  0  0  0  0  0
  143.6002   71.7329  219.4558 H   0  0  0  0  0  0  0  0  0  0  0  0
  142.9185   71.2739  217.8826 H   0  0  0  0  0  0  0  0  0  0  0  0
  142.0624   70.9205  225.4231 H   0  0  0  0  0  0  0  0  0  0  0  0
  141.6123   72.6215  225.1568 H   0  0  0  0  0  0  0  0  0  0  0  0
  140.8198   71.9207  227.4024 H   0  0  0  0  0  0  0  0  0  0  0  0
  139.4001   72.1622  226.3867 H   0  0  0  0  0  0  0  0  0  0  0  0
  140.4659   69.9617  228.7625 H   0  0  0  0  0  0  0  0  0  0  0  0
  139.8914   67.5578  228.8783 H   0  0  0  0  0  0  0  0  0  0  0  0
  139.0759   66.3215  226.8633 H   0  0  0  0  0  0  0  0  0  0  0  0
  138.8593   67.5865  224.7128 H   0  0  0  0  0  0  0  0  0  0  0  0
  139.4960   69.4892  223.3961 H   0  0  0  0  0  0  0  0  0  0  0  0
  138.4055   70.6753  224.1999 H   0  0  0  0  0  0  0  0  0  0  0  0
  142.5366   76.1281  221.5478 H   0  0  0  0  0  0  0  0  0  0  0  0
  142.2523   75.2612  219.9610 H   0  0  0  0  0  0  0  0  0  0  0  0
  142.2567   77.8542  220.1417 H   0  0  0  0  0  0  0  0  0  0  0  0
  141.0848   76.8863  219.0877 H   0  0  0  0  0  0  0  0  0  0  0  0
  1  2  1  0
  2  3  2  0
  2  4  1  0
  4  5  1  0
  5  6  1  0
  6  7  1  0
  7  8  1  0
  8  9  1  0
  9 10  2  0
 10 11  1  0
 11 12  1  0
 12 13  1  0
 13 14  1  0
 14 15  1  0
 15 16  2  0
 16 17  1  0
 17 18  2  0
 18 19  1  0
 19 20  2  0
 20 21  1  0
 11 22  2  0
 22 23  1  0
 23 24  1  0
 24 25  1  0
 25 26  1  0
 26 27  1  0
 27 28  2  0
 28 29  1  0
 29 30  2  0
 30 31  1  0
 31 32  2  0
 32 33  1  0
 23 34  2  0
  8 35  1  0
 35 36  1  0
 36  5  1  0
 34  9  1  0
 21 12  1  0
 33 24  1  0
 20 15  1  0
 32 27  1  0
  1 37  1  0
  1 38  1  0
  4 39  1  0
  4 40  1  0
  5 41  1  0
  6 42  1  0
  6 43  1  0
  7 44  1  0
  7 45  1  0
 13 46  1  0
 13 47  1  0
 14 48  1  0
 14 49  1  0
 16 50  1  0
 17 51  1  0
 18 52  1  0
 19 53  1  0
 21 54  1  0
 21 55  1  0
 25 56  1  0
 25 57  1  0
 26 58  1  0
 26 59  1  0
 28 60  1  0
 29 61  1  0
 30 62  1  0
 31 63  1  0
 33 64  1  0
 33 65  1  0
 35 66  1  0
 35 67  1  0
 36 68  1  0
 36 69  1  0
M  END
>  <smiles>  (23) 
NC(=O)CC1CCN(c2nc(N3CCc4ccccc4C3)nc(N3CCc4ccccc4C3)n2)CC1

>  <score_type>  (23) 
oracle

>  <origin>  (23) 
autodockgpu

>  <m_score__min__energy>  (23) 
-9.3499999999999996

>  <m_primary>  (23) 
energy

>  <rmsd>  (23) 
3.7448985514222652

>  <m_score__min__rmsd>  (23) 
3.7448985514222652

>  <meeko>  (23) 
{"free_energy": -9.21, "intermolecular_energy": -10.7, "internal_energy": -1.18, "cluster_size": 15, "cluster_id": 2, "rank_in_cluster": 2}

>  <energy>  (23) 
-8.58

>  <cluster_rmsd>  (23) 
1.4

>  <cluster>  (23) 
1

$$$$

     RDKit          3D

 69 74  0  0  0  0  0  0  0  0999 V2000
  142.9980   79.1190  218.1120 N   0  0  0  0  0  0  0  0  0  0  0  0
  141.6600   79.1360  218.5750 C   0  0  0  0  0  0  0  0  0  0  0  0
  140.6950   79.2530  217.7450 O   0  0  0  0  0  0  0  0  0  0  0  0
  141.3070   79.0220  219.9990 C   0  0  0  0  0  0  0  0  0  0  0  0
  141.6640   77.6860  220.6110 C   0  0  0  0  0  0  0  0  0  0  0  0
  141.6780   76.6870  219.4730 C   0  0  0  0  0  0  0  0  0  0  0  0
  142.2260   75.3920  220.0810 C   0  0  0  0  0  0  0  0  0  0  0  0
  141.1740   74.9200  220.9620 N   0  0  0  0  0  0  0  0  0  0  0  0
  141.0900   73.5240  221.2240 C   0  0  0  0  0  0  0  0  0  0  0  0
  141.3050   72.6490  220.2240 N   0  0  0  0  0  0  0  0  0  0  0  0
  141.2320   71.3250  220.4420 C   0  0  0  0  0  0  0  0  0  0  0  0
  141.4630   70.4150  219.3750 N   0  0  0  0  0  0  0  0  0  0  0  0
  140.4340   69.4470  219.0110 C   0  0  0  0  0  0  0  0  0  0  0  0
  140.9660   68.0710  218.7860 C   0  0  0  0  0  0  0  0  0  0  0  0
  142.4390   67.9660  218.8470 C   0  0  0  0  0  0  0  0  0  0  0  0
  143.0090   66.7200  218.9820 C   0  0  0  0  0  0  0  0  0  0  0  0
  144.3760   66.5180  219.0470 C   0  0  0  0  0  0  0  0  0  0  0  0
  145.1900   67.6330  218.9730 C   0  0  0  0  0  0  0  0  0  0  0  0
  144.6760   68.9080  218.8390 C   0  0  0  0  0  0  0  0  0  0  0  0
  143.2940   69.0440  218.7780 C   0  0  0  0  0  0  0  0  0  0  0  0
  142.7040   70.4200  218.6320 C   0  0  0  0  0  0  0  0  0  0  0  0
  140.9400   70.8780  221.6710 N   0  0  0  0  0  0  0  0  0  0  0  0
  140.7160   71.7300  222.7080 C   0  0  0  0  0  0  0  0  0  0  0  0
  140.4130   71.2000  223.9750 N   0  0  0  0  0  0  0  0  0  0  0  0
  139.2860   70.2860  224.0760 C   0  0  0  0  0  0  0  0  0  0  0  0
  139.6450   69.2450  225.1240 C   0  0  0  0  0  0  0  0  0  0  0  0
  139.7290   70.0090  226.4050 C   0  0  0  0  0  0  0  0  0  0  0  0
  139.0700   69.6060  227.5480 C   0  0  0  0  0  0  0  0  0  0  0  0
  139.2010   70.3710  228.6900 C   0  0  0  0  0  0  0  0  0  0  0  0
  139.9740   71.5310  228.7210 C   0  0  0  0  0  0  0  0  0  0  0  0
  140.6180   71.8930  227.5360 C   0  0  0  0  0  0  0  0  0  0  0  0
  140.5070   71.1510  226.3840 C   0  0  0  0  0  0  0  0  0  0  0  0
  141.2080   71.5610  225.1250 C   0  0  0  0  0  0  0  0  0  0  0  0
  140.7980   73.0480  222.4490 N   0  0  0  0  0  0  0  0  0  0  0  0
  140.2280   75.8380  221.5640 C   0  0  0  0  0  0  0  0  0  0  0  0
  140.7270   77.2330  221.6750 C   0  0  0  0  0  0  0  0  0  0  0  0
  143.6590   78.3650  218.3890 H   0  0  0  0  0  0  0  0  0  0  0  0
  143.2890   79.8980  217.4800 H   0  0  0  0  0  0  0  0  0  0  0  0
  141.8387   79.8101  220.5523 H   0  0  0  0  0  0  0  0  0  0  0  0
  140.2139   79.1240  220.0674 H   0  0  0  0  0  0  0  0  0  0  0  0
  142.6384   77.7777  221.1131 H   0  0  0  0  0  0  0  0  0  0  0  0
  140.6607   76.5304  219.0848 H   0  0  0  0  0  0  0  0  0  0  0  0
  142.2902   77.0353  218.6281 H   0  0  0  0  0  0  0  0  0  0  0  0
  142.4329   74.6520  219.2939 H   0  0  0  0  0  0  0  0  0  0  0  0
  143.1734   75.5537  220.6161 H   0  0  0  0  0  0  0  0  0  0  0  0
  139.6922   69.4054  219.8221 H   0  0  0  0  0  0  0  0  0  0  0  0
  139.9938   69.7837  218.0608 H   0  0  0  0  0  0  0  0  0  0  0  0
  140.5422   67.4087  219.5552 H   0  0  0  0  0  0  0  0  0  0  0  0
  140.6740   67.7857  217.7645 H   0  0  0  0  0  0  0  0  0  0  0  0
  142.3463   65.8440  219.0409 H   0  0  0  0  0  0  0  0  0  0  0  0
  144.7993   65.5083  219.1535 H   0  0  0  0  0  0  0  0  0  0  0  0
  146.2809   67.5007  219.0224 H   0  0  0  0  0  0  0  0  0  0  0  0
  145.3373   69.7852  218.7825 H   0  0  0  0  0  0  0  0  0  0  0  0
  143.3909   71.1738  219.0443 H   0  0  0  0  0  0  0  0  0  0  0  0
  142.5337   70.6699  217.5744 H   0  0  0  0  0  0  0  0  0  0  0  0
  138.3827   70.8337  224.3827 H   0  0  0  0  0  0  0  0  0  0  0  0
  139.0812   69.8095  223.1060 H   0  0  0  0  0  0  0  0  0  0  0  0
  138.8658   68.4709  225.1845 H   0  0  0  0  0  0  0  0  0  0  0  0
  140.5846   68.7240  224.8880 H   0  0  0  0  0  0  0  0  0  0  0  0
  138.4535   68.6950  227.5496 H   0  0  0  0  0  0  0  0  0  0  0  0
  138.6786   70.0550  229.6050 H   0  0  0  0  0  0  0  0  0  0  0  0
  140.0720   72.1330  229.6364 H   0  0  0  0  0  0  0  0  0  0  0  0
  141.2354   72.8033  227.5239 H   0  0  0  0  0  0  0  0  0  0  0  0
  141.3630   72.6500  225.1329 H   0  0  0  0  0  0  0  0  0  0  0  0
  142.1781   71.0455  225.0685 H   0  0  0  0  0  0  0  0  0  0  0  0
  139.3147   75.8450  220.9509 H   0  0  0  0  0  0  0  0  0  0  0  0
  140.0472   75.4821  222.5890 H   0  0  0  0  0  0  0  0  0  0  0  0
  139.8546   77.9029  221.6605 H   0  0  0  0  0  0  0  0  0  0  0  0
  141.3078   77.2628  222.6087 H   0  0  0  0  0  0  0  0  0  0  0  0
  1  2  1  0
  2  3  2  0
  2  4  1  0
  4  5  1  0
  5  6  1  0
  6  7  1  0
  7  8  1  0
  8  9  1  0
  9 10  2  0
 10 11  1  0
 11 12  1  0
 12 13  1  0
 13 14  1  0
 14 15  1  0
 15 16  2  0
 16 17  1  0
 17 18  2  0
 18 19  1  0
 19 20  2  0
 20 21  1  0
 11 22  2  0
 22 23  1  0
 23 24  1  0
 24 25  1  0
 25 26  1  0
 26 27  1  0
 27 28  2  0
 28 29  1  0
 29 30  2  0
 30 31  1  0
 31 32  2  0
 32 33  1  0
 23 34  2  0
  8 35  1  0
 35 36  1  0
 36  5  1  0
 34  9  1  0
 21 12  1  0
 33 24  1  0
 20 15  1  0
 32 27  1  0
  1 37  1  0
  1 38  1  0
  4 39  1  0
  4 40  1  0
  5 41  1  0
  6 42  1  0
  6 43  1  0
  7 44  1  0
  7 45  1  0
 13 46  1  0
 13 47  1  0
 14 48  1  0
 14 49  1  0
 16 50  1  0
 17 51  1  0
 18 52  1  0
 19 53  1  0
 21 54  1  0
 21 55  1  0
 25 56  1  0
 25 57  1  0
 26 58  1  0
 26 59  1  0
 28 60  1  0
 29 61  1  0
 30 62  1  0
 31 63  1  0
 33 64  1  0
 33 65  1  0
 35 66  1  0
 35 67  1  0
 36 68  1  0
 36 69  1  0
M  END
>  <smiles>  (24) 
NC(=O)CC1CCN(c2nc(N3CCc4ccccc4C3)nc(N3CCc4ccccc4C3)n2)CC1

>  <score_type>  (24) 
oracle

>  <origin>  (24) 
autodockgpu

>  <m_score__min__energy>  (24) 
-9.3499999999999996

>  <m_primary>  (24) 
energy

>  <rmsd>  (24) 
3.526686540019725

>  <m_score__min__rmsd>  (24) 
3.526686540019725

>  <meeko>  (24) 
{"free_energy": -8.57, "intermolecular_energy": -10.06, "internal_energy": -1.13, "cluster_size": 15, "cluster_id": 2, "rank_in_cluster": 15}

>  <energy>  (24) 
-8.52

>  <cluster_rmsd>  (24) 
1.12

>  <cluster>  (24) 
1

$$$$

     RDKit          3D

 69 74  0  0  0  0  0  0  0  0999 V2000
  147.3600   74.8020  215.8570 N   0  0  0  0  0  0  0  0  0  0  0  0
  147.2720   73.3890  215.8530 C   0  0  0  0  0  0  0  0  0  0  0  0
  148.2520   72.6860  215.4300 O   0  0  0  0  0  0  0  0  0  0  0  0
  146.0820   72.6620  216.3230 C   0  0  0  0  0  0  0  0  0  0  0  0
  145.4450   73.2650  217.5550 C   0  0  0  0  0  0  0  0  0  0  0  0
  144.7640   72.1240  218.2830 C   0  0  0  0  0  0  0  0  0  0  0  0
  144.2950   72.7200  219.6140 C   0  0  0  0  0  0  0  0  0  0  0  0
  143.2130   73.6180  219.2600 N   0  0  0  0  0  0  0  0  0  0  0  0
  142.2070   73.8790  220.2320 C   0  0  0  0  0  0  0  0  0  0  0  0
  141.7350   75.1300  220.3760 N   0  0  0  0  0  0  0  0  0  0  0  0
  140.7850   75.4060  221.2860 C   0  0  0  0  0  0  0  0  0  0  0  0
  140.2970   76.7340  221.4250 N   0  0  0  0  0  0  0  0  0  0  0  0
  139.9610   77.5130  220.2380 C   0  0  0  0  0  0  0  0  0  0  0  0
  140.4750   78.9130  220.2830 C   0  0  0  0  0  0  0  0  0  0  0  0
  141.1130   79.2920  221.5610 C   0  0  0  0  0  0  0  0  0  0  0  0
  141.8980   80.4220  221.6000 C   0  0  0  0  0  0  0  0  0  0  0  0
  142.5350   80.8600  222.7470 C   0  0  0  0  0  0  0  0  0  0  0  0
  142.3640   80.1120  223.8960 C   0  0  0  0  0  0  0  0  0  0  0  0
  141.5880   78.9690  223.9190 C   0  0  0  0  0  0  0  0  0  0  0  0
  140.9730   78.5830  222.7330 C   0  0  0  0  0  0  0  0  0  0  0  0
  140.1230   77.3420  222.7260 C   0  0  0  0  0  0  0  0  0  0  0  0
  140.3070   74.4180  222.0550 N   0  0  0  0  0  0  0  0  0  0  0  0
  140.7580   73.1390  221.9390 C   0  0  0  0  0  0  0  0  0  0  0  0
  140.2170   72.1460  222.7750 N   0  0  0  0  0  0  0  0  0  0  0  0
  138.7820   71.9160  222.7140 C   0  0  0  0  0  0  0  0  0  0  0  0
  138.5570   70.4260  222.9190 C   0  0  0  0  0  0  0  0  0  0  0  0
  139.0030   70.1640  224.3210 C   0  0  0  0  0  0  0  0  0  0  0  0
  138.2190   69.4790  225.2260 C   0  0  0  0  0  0  0  0  0  0  0  0
  138.7070   69.2810  226.5020 C   0  0  0  0  0  0  0  0  0  0  0  0
  139.9590   69.7480  226.9000 C   0  0  0  0  0  0  0  0  0  0  0  0
  140.7090   70.4360  225.9430 C   0  0  0  0  0  0  0  0  0  0  0  0
  140.2510   70.6480  224.6640 C   0  0  0  0  0  0  0  0  0  0  0  0
  141.0750   71.3890  223.6570 C   0  0  0  0  0  0  0  0  0  0  0  0
  141.7090   72.9050  221.0170 N   0  0  0  0  0  0  0  0  0  0  0  0
  143.1470   74.2390  217.9520 C   0  0  0  0  0  0  0  0  0  0  0  0
  144.4620   74.3450  217.2670 C   0  0  0  0  0  0  0  0  0  0  0  0
  147.1510   75.3570  216.7120 H   0  0  0  0  0  0  0  0  0  0  0  0
  147.6440   75.2600  214.9630 H   0  0  0  0  0  0  0  0  0  0  0  0
  145.3365   72.6574  215.5141 H   0  0  0  0  0  0  0  0  0  0  0  0
  146.4128   71.6492  216.5966 H   0  0  0  0  0  0  0  0  0  0  0  0
  146.2287   73.7500  218.1554 H   0  0  0  0  0  0  0  0  0  0  0  0
  143.9062   71.7535  217.7027 H   0  0  0  0  0  0  0  0  0  0  0  0
  145.4400   71.2689  218.4309 H   0  0  0  0  0  0  0  0  0  0  0  0
  143.9359   71.9279  220.2876 H   0  0  0  0  0  0  0  0  0  0  0  0
  145.1070   73.2389  220.1444 H   0  0  0  0  0  0  0  0  0  0  0  0
  140.3914   77.0116  219.3586 H   0  0  0  0  0  0  0  0  0  0  0  0
  138.8637   77.5714  220.1878 H   0  0  0  0  0  0  0  0  0  0  0  0
  141.2173   79.0322  219.4800 H   0  0  0  0  0  0  0  0  0  0  0  0
  139.6013   79.5705  220.1630 H   0  0  0  0  0  0  0  0  0  0  0  0
  142.0247   81.0042  220.6754 H   0  0  0  0  0  0  0  0  0  0  0  0
  143.1541   81.7692  222.7445 H   0  0  0  0  0  0  0  0  0  0  0  0
  142.8614   80.4367  224.8218 H   0  0  0  0  0  0  0  0  0  0  0  0
  141.4612   78.3852  224.8426 H   0  0  0  0  0  0  0  0  0  0  0  0
  140.4525   76.6509  223.5158 H   0  0  0  0  0  0  0  0  0  0  0  0
  139.0663   77.5818  222.9155 H   0  0  0  0  0  0  0  0  0  0  0  0
  138.2748   72.4864  223.5061 H   0  0  0  0  0  0  0  0  0  0  0  0
  138.3746   72.2432  221.7460 H   0  0  0  0  0  0  0  0  0  0  0  0
  137.4933   70.1740  222.7969 H   0  0  0  0  0  0  0  0  0  0  0  0
  139.1077   69.8174  222.1866 H   0  0  0  0  0  0  0  0  0  0  0  0
  137.2277   69.0993  224.9375 H   0  0  0  0  0  0  0  0  0  0  0  0
  138.0871   68.7364  227.2294 H   0  0  0  0  0  0  0  0  0  0  0  0
  140.3382   69.5826  227.9192 H   0  0  0  0  0  0  0  0  0  0  0  0
  141.7006   70.8216  226.2224 H   0  0  0  0  0  0  0  0  0  0  0  0
  141.7570   72.0760  224.1794 H   0  0  0  0  0  0  0  0  0  0  0  0
  141.6544   70.6665  223.0635 H   0  0  0  0  0  0  0  0  0  0  0  0
  142.4742   73.6419  217.3190 H   0  0  0  0  0  0  0  0  0  0  0  0
  142.7836   75.2659  218.1048 H   0  0  0  0  0  0  0  0  0  0  0  0
  144.2758   74.3482  216.1829 H   0  0  0  0  0  0  0  0  0  0  0  0
  144.9196   75.2682  217.6522 H   0  0  0  0  0  0  0  0  0  0  0  0
  1  2  1  0
  2  3  2  0
  2  4  1  0
  4  5  1  0
  5  6  1  0
  6  7  1  0
  7  8  1  0
  8  9  1  0
  9 10  2  0
 10 11  1  0
 11 12  1  0
 12 13  1  0
 13 14  1  0
 14 15  1  0
 15 16  2  0
 16 17  1  0
 17 18  2  0
 18 19  1  0
 19 20  2  0
 20 21  1  0
 11 22  2  0
 22 23  1  0
 23 24  1  0
 24 25  1  0
 25 26  1  0
 26 27  1  0
 27 28  2  0
 28 29  1  0
 29 30  2  0
 30 31  1  0
 31 32  2  0
 32 33  1  0
 23 34  2  0
  8 35  1  0
 35 36  1  0
 36  5  1  0
 34  9  1  0
 21 12  1  0
 33 24  1  0
 20 15  1  0
 32 27  1  0
  1 37  1  0
  1 38  1  0
  4 39  1  0
  4 40  1  0
  5 41  1  0
  6 42  1  0
  6 43  1  0
  7 44  1  0
  7 45  1  0
 13 46  1  0
 13 47  1  0
 14 48  1  0
 14 49  1  0
 16 50  1  0
 17 51  1  0
 18 52  1  0
 19 53  1  0
 21 54  1  0
 21 55  1  0
 25 56  1  0
 25 57  1  0
 26 58  1  0
 26 59  1  0
 28 60  1  0
 29 61  1  0
 30 62  1  0
 31 63  1  0
 33 64  1  0
 33 65  1  0
 35 66  1  0
 35 67  1  0
 36 68  1  0
 36 69  1  0
M  END
>  <smiles>  (25) 
NC(=O)CC1CCN(c2nc(N3CCc4ccccc4C3)nc(N3CCc4ccccc4C3)n2)CC1

>  <score_type>  (25) 
oracle

>  <origin>  (25) 
autodockgpu

>  <m_score__min__energy>  (25) 
-9.3499999999999996

>  <m_primary>  (25) 
energy

>  <rmsd>  (25) 
7.223311644503385

>  <m_score__min__rmsd>  (25) 
7.223311644503385

>  <meeko>  (25) 
{"free_energy": -8.7, "intermolecular_energy": -10.19, "internal_energy": -1.09, "cluster_size": 3, "cluster_id": 4, "rank_in_cluster": 2}

>  <energy>  (25) 
-8.48

>  <cluster_rmsd>  (25) 
1.11

>  <cluster>  (25) 
1

$$$$

     RDKit          3D

 69 74  0  0  0  0  0  0  0  0999 V2000
  140.4640   67.4000  226.5280 N   0  0  0  0  0  0  0  0  0  0  0  0
  139.5850   68.4670  226.8320 C   0  0  0  0  0  0  0  0  0  0  0  0
  139.6720   69.0710  227.9550 O   0  0  0  0  0  0  0  0  0  0  0  0
  138.5460   68.9350  225.9000 C   0  0  0  0  0  0  0  0  0  0  0  0
  138.8600   70.2660  225.2540 C   0  0  0  0  0  0  0  0  0  0  0  0
  138.6410   70.0780  223.7670 C   0  0  0  0  0  0  0  0  0  0  0  0
  138.7760   71.4780  223.1600 C   0  0  0  0  0  0  0  0  0  0  0  0
  140.1850   71.8020  223.2800 N   0  0  0  0  0  0  0  0  0  0  0  0
  140.7490   72.7140  222.3450 C   0  0  0  0  0  0  0  0  0  0  0  0
  140.3250   73.9910  222.3290 N   0  0  0  0  0  0  0  0  0  0  0  0
  140.8390   74.8750  221.4570 C   0  0  0  0  0  0  0  0  0  0  0  0
  140.3800   76.2200  221.4530 N   0  0  0  0  0  0  0  0  0  0  0  0
  140.1530   76.9060  220.1860 C   0  0  0  0  0  0  0  0  0  0  0  0
  140.7010   78.2940  220.1560 C   0  0  0  0  0  0  0  0  0  0  0  0
  141.2560   78.7620  221.4430 C   0  0  0  0  0  0  0  0  0  0  0  0
  142.0680   79.8740  221.4500 C   0  0  0  0  0  0  0  0  0  0  0  0
  142.6330   80.3890  222.6020 C   0  0  0  0  0  0  0  0  0  0  0  0
  142.3580   79.7430  223.7920 C   0  0  0  0  0  0  0  0  0  0  0  0
  141.5510   78.6230  223.8490 C   0  0  0  0  0  0  0  0  0  0  0  0
  141.0120   78.1550  222.6560 C   0  0  0  0  0  0  0  0  0  0  0  0
  140.1300   76.9360  222.6840 C   0  0  0  0  0  0  0  0  0  0  0  0
  141.7850   74.4730  220.5970 N   0  0  0  0  0  0  0  0  0  0  0  0
  142.2410   73.1900  220.5820 C   0  0  0  0  0  0  0  0  0  0  0  0
  143.2350   72.8290  219.6550 N   0  0  0  0  0  0  0  0  0  0  0  0
  143.1600   73.4060  218.3210 C   0  0  0  0  0  0  0  0  0  0  0  0
  144.5880   73.6360  217.8510 C   0  0  0  0  0  0  0  0  0  0  0  0
  145.1710   72.2660  217.7240 C   0  0  0  0  0  0  0  0  0  0  0  0
  145.8310   71.8500  216.5860 C   0  0  0  0  0  0  0  0  0  0  0  0
  146.3390   70.5660  216.5520 C   0  0  0  0  0  0  0  0  0  0  0  0
  146.2050   69.6860  217.6240 C   0  0  0  0  0  0  0  0  0  0  0  0
  145.5270   70.1600  218.7500 C   0  0  0  0  0  0  0  0  0  0  0  0
  145.0110   71.4320  218.8150 C   0  0  0  0  0  0  0  0  0  0  0  0
  144.2870   71.9160  220.0340 C   0  0  0  0  0  0  0  0  0  0  0  0
  141.7000   72.3370  221.4700 N   0  0  0  0  0  0  0  0  0  0  0  0
  141.0060   71.2160  224.3200 C   0  0  0  0  0  0  0  0  0  0  0  0
  140.2400   70.7580  225.5080 C   0  0  0  0  0  0  0  0  0  0  0  0
  141.0110   67.3820  225.6430 H   0  0  0  0  0  0  0  0  0  0  0  0
  140.5370   66.6330  227.2330 H   0  0  0  0  0  0  0  0  0  0  0  0
  138.4285   68.1831  225.1057 H   0  0  0  0  0  0  0  0  0  0  0  0
  137.6268   69.0733  226.4882 H   0  0  0  0  0  0  0  0  0  0  0  0
  138.2039   71.0330  225.6912 H   0  0  0  0  0  0  0  0  0  0  0  0
  139.4002   69.4012  223.3480 H   0  0  0  0  0  0  0  0  0  0  0  0
  137.6606   69.6289  223.5497 H   0  0  0  0  0  0  0  0  0  0  0  0
  138.4684   71.4733  222.1039 H   0  0  0  0  0  0  0  0  0  0  0  0
  138.1368   72.2140  223.6696 H   0  0  0  0  0  0  0  0  0  0  0  0
  140.6320   76.3248  219.3843 H   0  0  0  0  0  0  0  0  0  0  0  0
  139.0642   76.9841  220.0500 H   0  0  0  0  0  0  0  0  0  0  0  0
  141.5019   78.3309  219.4028 H   0  0  0  0  0  0  0  0  0  0  0  0
  139.8568   78.9584  219.9194 H   0  0  0  0  0  0  0  0  0  0  0  0
  142.2770   80.3763  220.4940 H   0  0  0  0  0  0  0  0  0  0  0  0
  143.2775   81.2799  222.5723 H   0  0  0  0  0  0  0  0  0  0  0  0
  142.7953   80.1326  224.7232 H   0  0  0  0  0  0  0  0  0  0  0  0
  141.3424   78.1194  224.8045 H   0  0  0  0  0  0  0  0  0  0  0  0
  140.3818   76.3045  223.5488 H   0  0  0  0  0  0  0  0  0  0  0  0
  139.0696   77.2142  222.7740 H   0  0  0  0  0  0  0  0  0  0  0  0
  142.6454   72.7132  217.6389 H   0  0  0  0  0  0  0  0  0  0  0  0
  142.5959   74.3503  218.3345 H   0  0  0  0  0  0  0  0  0  0  0  0
  144.5983   74.1534  216.8804 H   0  0  0  0  0  0  0  0  0  0  0  0
  145.1586   74.2681  218.5473 H   0  0  0  0  0  0  0  0  0  0  0  0
  145.9498   72.5252  215.7258 H   0  0  0  0  0  0  0  0  0  0  0  0
  146.8670   70.2269  215.6485 H   0  0  0  0  0  0  0  0  0  0  0  0
  146.6140   68.6656  217.5856 H   0  0  0  0  0  0  0  0  0  0  0  0
  145.4019   69.4916  219.6147 H   0  0  0  0  0  0  0  0  0  0  0  0
  143.8499   71.0564  220.5631 H   0  0  0  0  0  0  0  0  0  0  0  0
  144.9976   72.4378  220.6919 H   0  0  0  0  0  0  0  0  0  0  0  0
  141.5364   70.3508  223.8957 H   0  0  0  0  0  0  0  0  0  0  0  0
  141.6907   72.0039  224.6670 H   0  0  0  0  0  0  0  0  0  0  0  0
  140.8064   69.9397  225.9766 H   0  0  0  0  0  0  0  0  0  0  0  0
  140.1210   71.6496  226.1411 H   0  0  0  0  0  0  0  0  0  0  0  0
  1  2  1  0
  2  3  2  0
  2  4  1  0
  4  5  1  0
  5  6  1  0
  6  7  1  0
  7  8  1  0
  8  9  1  0
  9 10  2  0
 10 11  1  0
 11 12  1  0
 12 13  1  0
 13 14  1  0
 14 15  1  0
 15 16  2  0
 16 17  1  0
 17 18  2  0
 18 19  1  0
 19 20  2  0
 20 21  1  0
 11 22  2  0
 22 23  1  0
 23 24  1  0
 24 25  1  0
 25 26  1  0
 26 27  1  0
 27 28  2  0
 28 29  1  0
 29 30  2  0
 30 31  1  0
 31 32  2  0
 32 33  1  0
 23 34  2  0
  8 35  1  0
 35 36  1  0
 36  5  1  0
 34  9  1  0
 21 12  1  0
 33 24  1  0
 20 15  1  0
 32 27  1  0
  1 37  1  0
  1 38  1  0
  4 39  1  0
  4 40  1  0
  5 41  1  0
  6 42  1  0
  6 43  1  0
  7 44  1  0
  7 45  1  0
 13 46  1  0
 13 47  1  0
 14 48  1  0
 14 49  1  0
 16 50  1  0
 17 51  1  0
 18 52  1  0
 19 53  1  0
 21 54  1  0
 21 55  1  0
 25 56  1  0
 25 57  1  0
 26 58  1  0
 26 59  1  0
 28 60  1  0
 29 61  1  0
 30 62  1  0
 31 63  1  0
 33 64  1  0
 33 65  1  0
 35 66  1  0
 35 67  1  0
 36 68  1  0
 36 69  1  0
M  END
>  <smiles>  (26) 
NC(=O)CC1CCN(c2nc(N3CCc4ccccc4C3)nc(N3CCc4ccccc4C3)n2)CC1

>  <score_type>  (26) 
oracle

>  <origin>  (26) 
autodockgpu

>  <m_score__min__energy>  (26) 
-9.3499999999999996

>  <m_primary>  (26) 
energy

>  <rmsd>  (26) 
8.66799308640915

>  <m_score__min__rmsd>  (26) 
8.66799308640915

>  <meeko>  (26) 
{"free_energy": -9.13, "intermolecular_energy": -10.62, "internal_energy": -1.14, "cluster_size": 28, "cluster_id": 1, "rank_in_cluster": 5}

>  <energy>  (26) 
-8.46

>  <cluster_rmsd>  (26) 
1.36

>  <cluster>  (26) 
1

$$$$

     RDKit          3D

 69 74  0  0  0  0  0  0  0  0999 V2000
  140.2950   67.3860  226.4730 N   0  0  0  0  0  0  0  0  0  0  0  0
  139.5180   68.5570  226.6480 C   0  0  0  0  0  0  0  0  0  0  0  0
  139.6330   69.2490  227.7150 O   0  0  0  0  0  0  0  0  0  0  0  0
  138.5580   69.0350  225.6400 C   0  0  0  0  0  0  0  0  0  0  0  0
  138.9050   70.3870  225.0590 C   0  0  0  0  0  0  0  0  0  0  0  0
  138.5120   70.3350  223.5970 C   0  0  0  0  0  0  0  0  0  0  0  0
  138.6930   71.7660  223.0800 C   0  0  0  0  0  0  0  0  0  0  0  0
  140.1270   71.9770  223.0610 N   0  0  0  0  0  0  0  0  0  0  0  0
  140.6580   72.9180  222.1350 C   0  0  0  0  0  0  0  0  0  0  0  0
  140.2740   74.2060  222.2080 N   0  0  0  0  0  0  0  0  0  0  0  0
  140.7580   75.1170  221.3470 C   0  0  0  0  0  0  0  0  0  0  0  0
  140.3420   76.4730  221.4370 N   0  0  0  0  0  0  0  0  0  0  0  0
  140.0790   77.2350  220.2220 C   0  0  0  0  0  0  0  0  0  0  0  0
  140.6690   78.6050  220.2410 C   0  0  0  0  0  0  0  0  0  0  0  0
  141.2960   78.9850  221.5240 C   0  0  0  0  0  0  0  0  0  0  0  0
  142.1420   80.0710  221.5520 C   0  0  0  0  0  0  0  0  0  0  0  0
  142.7760   80.5050  222.7020 C   0  0  0  0  0  0  0  0  0  0  0  0
  142.5350   79.8020  223.8670 C   0  0  0  0  0  0  0  0  0  0  0  0
  141.6960   78.7040  223.9010 C   0  0  0  0  0  0  0  0  0  0  0  0
  141.0890   78.3190  222.7110 C   0  0  0  0  0  0  0  0  0  0  0  0
  140.1710   77.1270  222.7160 C   0  0  0  0  0  0  0  0  0  0  0  0
  141.6330   74.7310  220.4080 N   0  0  0  0  0  0  0  0  0  0  0  0
  142.0470   73.4390  220.3020 C   0  0  0  0  0  0  0  0  0  0  0  0
  142.9670   73.0970  219.2950 N   0  0  0  0  0  0  0  0  0  0  0  0
  143.8690   71.9850  219.5510 C   0  0  0  0  0  0  0  0  0  0  0  0
  144.0800   71.2650  218.2280 C   0  0  0  0  0  0  0  0  0  0  0  0
  144.8030   72.2520  217.3700 C   0  0  0  0  0  0  0  0  0  0  0  0
  145.9560   71.9260  216.6860 C   0  0  0  0  0  0  0  0  0  0  0  0
  146.5610   72.8990  215.9150 C   0  0  0  0  0  0  0  0  0  0  0  0
  146.0460   74.1900  215.8090 C   0  0  0  0  0  0  0  0  0  0  0  0
  144.8770   74.4640  216.5230 C   0  0  0  0  0  0  0  0  0  0  0  0
  144.2510   73.5170  217.2980 C   0  0  0  0  0  0  0  0  0  0  0  0
  142.9990   73.8360  218.0550 C   0  0  0  0  0  0  0  0  0  0  0  0
  141.5380   72.5580  221.1820 N   0  0  0  0  0  0  0  0  0  0  0  0
  141.0070   71.2520  223.9560 C   0  0  0  0  0  0  0  0  0  0  0  0
  140.3400   70.7570  225.1880 C   0  0  0  0  0  0  0  0  0  0  0  0
  140.8630   67.2340  225.6140 H   0  0  0  0  0  0  0  0  0  0  0  0
  140.2710   66.6830  227.2440 H   0  0  0  0  0  0  0  0  0  0  0  0
  138.5239   68.3034  224.8193 H   0  0  0  0  0  0  0  0  0  0  0  0
  137.5883   69.1441  226.1478 H   0  0  0  0  0  0  0  0  0  0  0  0
  138.3631   71.1613  225.6219 H   0  0  0  0  0  0  0  0  0  0  0  0
  139.1644   69.6409  223.0469 H   0  0  0  0  0  0  0  0  0  0  0  0
  137.4808   69.9767  223.4614 H   0  0  0  0  0  0  0  0  0  0  0  0
  138.2733   71.8680  222.0683 H   0  0  0  0  0  0  0  0  0  0  0  0
  138.1743   72.5029  223.7108 H   0  0  0  0  0  0  0  0  0  0  0  0
  140.5014   76.6855  219.3678 H   0  0  0  0  0  0  0  0  0  0  0  0
  138.9882   77.3529  220.1431 H   0  0  0  0  0  0  0  0  0  0  0  0
  141.4360   78.6596  219.4544 H   0  0  0  0  0  0  0  0  0  0  0  0
  139.8368   79.3060  220.0800 H   0  0  0  0  0  0  0  0  0  0  0  0
  142.3221   80.6193  220.6155 H   0  0  0  0  0  0  0  0  0  0  0  0
  143.4467   81.3768  222.6897 H   0  0  0  0  0  0  0  0  0  0  0  0
  143.0261   80.1263  224.7963 H   0  0  0  0  0  0  0  0  0  0  0  0
  141.5150   78.1543  224.8365 H   0  0  0  0  0  0  0  0  0  0  0  0
  140.4421   76.4418  223.5327 H   0  0  0  0  0  0  0  0  0  0  0  0
  139.1252   77.4304  222.8716 H   0  0  0  0  0  0  0  0  0  0  0  0
  144.8298   72.3593  219.9341 H   0  0  0  0  0  0  0  0  0  0  0  0
  143.4459   71.3037  220.3038 H   0  0  0  0  0  0  0  0  0  0  0  0
  144.6865   70.3587  218.3720 H   0  0  0  0  0  0  0  0  0  0  0  0
  143.1319   70.9372  217.7768 H   0  0  0  0  0  0  0  0  0  0  0  0
  146.3834   70.9147  216.7532 H   0  0  0  0  0  0  0  0  0  0  0  0
  147.4802   72.6468  215.3660 H   0  0  0  0  0  0  0  0  0  0  0  0
  146.5371   74.9570  215.1921 H   0  0  0  0  0  0  0  0  0  0  0  0
  144.4423   75.4727  216.4629 H   0  0  0  0  0  0  0  0  0  0  0  0
  142.9702   74.9138  218.2729 H   0  0  0  0  0  0  0  0  0  0  0  0
  142.1279   73.5541  217.4453 H   0  0  0  0  0  0  0  0  0  0  0  0
  141.4169   70.3875  223.4132 H   0  0  0  0  0  0  0  0  0  0  0  0
  141.7868   71.9581  224.2775 H   0  0  0  0  0  0  0  0  0  0  0  0
  140.8863   69.8654  225.5294 H   0  0  0  0  0  0  0  0  0  0  0  0
  140.3622   71.6017  225.8923 H   0  0  0  0  0  0  0  0  0  0  0  0
  1  2  1  0
  2  3  2  0
  2  4  1  0
  4  5  1  0
  5  6  1  0
  6  7  1  0
  7  8  1  0
  8  9  1  0
  9 10  2  0
 10 11  1  0
 11 12  1  0
 12 13  1  0
 13 14  1  0
 14 15  1  0
 15 16  2  0
 16 17  1  0
 17 18  2  0
 18 19  1  0
 19 20  2  0
 20 21  1  0
 11 22  2  0
 22 23  1  0
 23 24  1  0
 24 25  1  0
 25 26  1  0
 26 27  1  0
 27 28  2  0
 28 29  1  0
 29 30  2  0
 30 31  1  0
 31 32  2  0
 32 33  1  0
 23 34  2  0
  8 35  1  0
 35 36  1  0
 36  5  1  0
 34  9  1  0
 21 12  1  0
 33 24  1  0
 20 15  1  0
 32 27  1  0
  1 37  1  0
  1 38  1  0
  4 39  1  0
  4 40  1  0
  5 41  1  0
  6 42  1  0
  6 43  1  0
  7 44  1  0
  7 45  1  0
 13 46  1  0
 13 47  1  0
 14 48  1  0
 14 49  1  0
 16 50  1  0
 17 51  1  0
 18 52  1  0
 19 53  1  0
 21 54  1  0
 21 55  1  0
 25 56  1  0
 25 57  1  0
 26 58  1  0
 26 59  1  0
 28 60  1  0
 29 61  1  0
 30 62  1  0
 31 63  1  0
 33 64  1  0
 33 65  1  0
 35 66  1  0
 35 67  1  0
 36 68  1  0
 36 69  1  0
M  END
>  <smiles>  (27) 
NC(=O)CC1CCN(c2nc(N3CCc4ccccc4C3)nc(N3CCc4ccccc4C3)n2)CC1

>  <score_type>  (27) 
oracle

>  <origin>  (27) 
autodockgpu

>  <m_score__min__energy>  (27) 
-9.3499999999999996

>  <m_primary>  (27) 
energy

>  <rmsd>  (27) 
8.494395739648898

>  <m_score__min__rmsd>  (27) 
8.494395739648898

>  <meeko>  (27) 
{"free_energy": -8.48, "intermolecular_energy": -9.97, "internal_energy": -1.13, "cluster_size": 28, "cluster_id": 1, "rank_in_cluster": 25}

>  <energy>  (27) 
-8.34

>  <cluster_rmsd>  (27) 
1.38

>  <cluster>  (27) 
1

$$$$

     RDKit          3D

 69 74  0  0  0  0  0  0  0  0999 V2000
  140.5760   67.2870  226.6780 N   0  0  0  0  0  0  0  0  0  0  0  0
  140.5560   68.1790  227.7770 C   0  0  0  0  0  0  0  0  0  0  0  0
  141.4320   68.0780  228.7020 O   0  0  0  0  0  0  0  0  0  0  0  0
  139.5530   69.2470  227.9200 C   0  0  0  0  0  0  0  0  0  0  0  0
  139.6170   70.2940  226.8310 C   0  0  0  0  0  0  0  0  0  0  0  0
  139.0640   69.6410  225.5810 C   0  0  0  0  0  0  0  0  0  0  0  0
  138.9600   70.7700  224.5500 C   0  0  0  0  0  0  0  0  0  0  0  0
  140.3330   71.0920  224.2110 N   0  0  0  0  0  0  0  0  0  0  0  0
  140.5980   71.6460  222.9270 C   0  0  0  0  0  0  0  0  0  0  0  0
  140.7570   70.8260  221.8730 N   0  0  0  0  0  0  0  0  0  0  0  0
  141.0090   71.3210  220.6490 C   0  0  0  0  0  0  0  0  0  0  0  0
  141.1740   70.4400  219.5450 N   0  0  0  0  0  0  0  0  0  0  0  0
  140.1100   69.5060  219.1960 C   0  0  0  0  0  0  0  0  0  0  0  0
  140.6010   68.1280  218.9060 C   0  0  0  0  0  0  0  0  0  0  0  0
  142.0730   67.9900  218.9000 C   0  0  0  0  0  0  0  0  0  0  0  0
  142.6210   66.7290  218.9710 C   0  0  0  0  0  0  0  0  0  0  0  0
  143.9840   66.4970  218.9700 C   0  0  0  0  0  0  0  0  0  0  0  0
  144.8180   67.5960  218.8960 C   0  0  0  0  0  0  0  0  0  0  0  0
  144.3280   68.8860  218.8240 C   0  0  0  0  0  0  0  0  0  0  0  0
  142.9470   69.0520  218.8270 C   0  0  0  0  0  0  0  0  0  0  0  0
  142.3820   70.4440  218.7500 C   0  0  0  0  0  0  0  0  0  0  0  0
  141.1020   72.6480  220.4850 N   0  0  0  0  0  0  0  0  0  0  0  0
  140.9470   73.5100  221.5260 C   0  0  0  0  0  0  0  0  0  0  0  0
  141.0560   74.8930  221.2900 N   0  0  0  0  0  0  0  0  0  0  0  0
  142.0110   75.3350  220.2860 C   0  0  0  0  0  0  0  0  0  0  0  0
  141.4060   76.5480  219.5950 C   0  0  0  0  0  0  0  0  0  0  0  0
  141.3400   77.5960  220.6570 C   0  0  0  0  0  0  0  0  0  0  0  0
  141.8310   78.8720  220.4640 C   0  0  0  0  0  0  0  0  0  0  0  0
  141.7300   79.7800  221.4990 C   0  0  0  0  0  0  0  0  0  0  0  0
  141.1520   79.4490  222.7240 C   0  0  0  0  0  0  0  0  0  0  0  0
  140.6730   78.1450  222.8640 C   0  0  0  0  0  0  0  0  0  0  0  0
  140.7580   77.2180  221.8520 C   0  0  0  0  0  0  0  0  0  0  0  0
  140.2370   75.8250  222.0290 C   0  0  0  0  0  0  0  0  0  0  0  0
  140.6970   72.9750  222.7350 N   0  0  0  0  0  0  0  0  0  0  0  0
  141.4140   70.8590  225.1470 C   0  0  0  0  0  0  0  0  0  0  0  0
  140.9850   70.8190  226.5690 C   0  0  0  0  0  0  0  0  0  0  0  0
  140.5590   67.6340  225.6970 H   0  0  0  0  0  0  0  0  0  0  0  0
  140.6090   66.2670  226.8970 H   0  0  0  0  0  0  0  0  0  0  0  0
  138.5532   68.7886  227.9020 H   0  0  0  0  0  0  0  0  0  0  0  0
  139.7640   69.7596  228.8701 H   0  0  0  0  0  0  0  0  0  0  0  0
  139.0349   71.1709  227.1506 H   0  0  0  0  0  0  0  0  0  0  0  0
  139.7444   68.8539  225.2238 H   0  0  0  0  0  0  0  0  0  0  0  0
  138.0915   69.1607  225.7640 H   0  0  0  0  0  0  0  0  0  0  0  0
  138.4104   70.4315  223.6593 H   0  0  0  0  0  0  0  0  0  0  0  0
  138.4148   71.6410  224.9426 H   0  0  0  0  0  0  0  0  0  0  0  0
  139.4024   69.4540  220.0366 H   0  0  0  0  0  0  0  0  0  0  0  0
  139.6376   69.8819  218.2765 H   0  0  0  0  0  0  0  0  0  0  0  0
  140.1956   67.4506  219.6720 H   0  0  0  0  0  0  0  0  0  0  0  0
  140.2596   67.8818  217.8897 H   0  0  0  0  0  0  0  0  0  0  0  0
  141.9424   65.8653  219.0314 H   0  0  0  0  0  0  0  0  0  0  0  0
  144.3891   65.4759  219.0260 H   0  0  0  0  0  0  0  0  0  0  0  0
  145.9067   67.4391  218.8943 H   0  0  0  0  0  0  0  0  0  0  0  0
  145.0057   69.7505  218.7664 H   0  0  0  0  0  0  0  0  0  0  0  0
  143.1021   71.1696  219.1561 H   0  0  0  0  0  0  0  0  0  0  0  0
  142.1729   70.7320  217.7092 H   0  0  0  0  0  0  0  0  0  0  0  0
  142.9623   75.6095  220.7653 H   0  0  0  0  0  0  0  0  0  0  0  0
  142.2154   74.5334  219.5610 H   0  0  0  0  0  0  0  0  0  0  0  0
  142.0446   76.8789  218.7627 H   0  0  0  0  0  0  0  0  0  0  0  0
  140.4181   76.3309  219.1628 H   0  0  0  0  0  0  0  0  0  0  0  0
  142.2921   79.1585  219.5073 H   0  0  0  0  0  0  0  0  0  0  0  0
  142.1185   80.7986  221.3524 H   0  0  0  0  0  0  0  0  0  0  0  0
  141.0769   80.1809  223.5417 H   0  0  0  0  0  0  0  0  0  0  0  0
  140.2114   77.8488  223.8175 H   0  0  0  0  0  0  0  0  0  0  0  0
  140.2582   75.5612  223.0967 H   0  0  0  0  0  0  0  0  0  0  0  0
  139.2046   75.7754  221.6525 H   0  0  0  0  0  0  0  0  0  0  0  0
  141.8834   69.8953  224.9002 H   0  0  0  0  0  0  0  0  0  0  0  0
  142.1084   71.7064  225.0481 H   0  0  0  0  0  0  0  0  0  0  0  0
  141.6978   70.1847  227.1163 H   0  0  0  0  0  0  0  0  0  0  0  0
  140.9644   71.8683  226.8986 H   0  0  0  0  0  0  0  0  0  0  0  0
  1  2  1  0
  2  3  2  0
  2  4  1  0
  4  5  1  0
  5  6  1  0
  6  7  1  0
  7  8  1  0
  8  9  1  0
  9 10  2  0
 10 11  1  0
 11 12  1  0
 12 13  1  0
 13 14  1  0
 14 15  1  0
 15 16  2  0
 16 17  1  0
 17 18  2  0
 18 19  1  0
 19 20  2  0
 20 21  1  0
 11 22  2  0
 22 23  1  0
 23 24  1  0
 24 25  1  0
 25 26  1  0
 26 27  1  0
 27 28  2  0
 28 29  1  0
 29 30  2  0
 30 31  1  0
 31 32  2  0
 32 33  1  0
 23 34  2  0
  8 35  1  0
 35 36  1  0
 36  5  1  0
 34  9  1  0
 21 12  1  0
 33 24  1  0
 20 15  1  0
 32 27  1  0
  1 37  1  0
  1 38  1  0
  4 39  1  0
  4 40  1  0
  5 41  1  0
  6 42  1  0
  6 43  1  0
  7 44  1  0
  7 45  1  0
 13 46  1  0
 13 47  1  0
 14 48  1  0
 14 49  1  0
 16 50  1  0
 17 51  1  0
 18 52  1  0
 19 53  1  0
 21 54  1  0
 21 55  1  0
 25 56  1  0
 25 57  1  0
 26 58  1  0
 26 59  1  0
 28 60  1  0
 29 61  1  0
 30 62  1  0
 31 63  1  0
 33 64  1  0
 33 65  1  0
 35 66  1  0
 35 67  1  0
 36 68  1  0
 36 69  1  0
M  END
>  <smiles>  (28) 
NC(=O)CC1CCN(c2nc(N3CCc4ccccc4C3)nc(N3CCc4ccccc4C3)n2)CC1

>  <score_type>  (28) 
oracle

>  <origin>  (28) 
autodockgpu

>  <m_score__min__energy>  (28) 
-9.3499999999999996

>  <m_primary>  (28) 
energy

>  <rmsd>  (28) 
9.664768046428811

>  <m_score__min__rmsd>  (28) 
9.664768046428811

>  <meeko>  (28) 
{"free_energy": -8.9, "intermolecular_energy": -10.39, "internal_energy": -1.13, "cluster_size": 1, "cluster_id": 3, "rank_in_cluster": 1}

>  <energy>  (28) 
-8.2

>  <cluster_rmsd>  (28) 
1.52

>  <cluster>  (28) 
1

$$$$

     RDKit          3D

 69 74  0  0  0  0  0  0  0  0999 V2000
  140.6940   67.1860  226.5260 N   0  0  0  0  0  0  0  0  0  0  0  0
  140.0870   68.3780  226.9880 C   0  0  0  0  0  0  0  0  0  0  0  0
  140.6390   69.0630  227.9140 O   0  0  0  0  0  0  0  0  0  0  0  0
  138.8180   68.8900  226.4440 C   0  0  0  0  0  0  0  0  0  0  0  0
  138.9850   70.0610  225.5030 C   0  0  0  0  0  0  0  0  0  0  0  0
  139.0960   69.4740  224.1110 C   0  0  0  0  0  0  0  0  0  0  0  0
  139.0690   70.6780  223.1630 C   0  0  0  0  0  0  0  0  0  0  0  0
  140.3390   71.3460  223.3750 N   0  0  0  0  0  0  0  0  0  0  0  0
  140.8830   72.1130  222.3070 C   0  0  0  0  0  0  0  0  0  0  0  0
  141.4390   71.4830  221.2560 N   0  0  0  0  0  0  0  0  0  0  0  0
  141.9610   72.1820  220.2330 C   0  0  0  0  0  0  0  0  0  0  0  0
  142.5430   71.5010  219.1300 N   0  0  0  0  0  0  0  0  0  0  0  0
  141.7150   70.6510  218.2830 C   0  0  0  0  0  0  0  0  0  0  0  0
  142.3470   69.3370  217.9630 C   0  0  0  0  0  0  0  0  0  0  0  0
  143.7340   69.1880  218.4510 C   0  0  0  0  0  0  0  0  0  0  0  0
  144.2860   67.9290  218.5030 C   0  0  0  0  0  0  0  0  0  0  0  0
  145.5750   67.6860  218.9430 C   0  0  0  0  0  0  0  0  0  0  0  0
  146.3260   68.7740  219.3470 C   0  0  0  0  0  0  0  0  0  0  0  0
  145.8260   70.0610  219.3180 C   0  0  0  0  0  0  0  0  0  0  0  0
  144.5240   70.2380  218.8640 C   0  0  0  0  0  0  0  0  0  0  0  0
  143.9500   71.6280  218.8220 C   0  0  0  0  0  0  0  0  0  0  0  0
  141.9250   73.5220  220.2690 N   0  0  0  0  0  0  0  0  0  0  0  0
  141.3720   74.1950  221.3140 C   0  0  0  0  0  0  0  0  0  0  0  0
  141.3640   75.6020  221.2930 N   0  0  0  0  0  0  0  0  0  0  0  0
  142.0440   76.2660  220.1910 C   0  0  0  0  0  0  0  0  0  0  0  0
  141.2450   77.5180  219.8620 C   0  0  0  0  0  0  0  0  0  0  0  0
  141.3800   78.3840  221.0720 C   0  0  0  0  0  0  0  0  0  0  0  0
  141.7580   79.7090  220.9900 C   0  0  0  0  0  0  0  0  0  0  0  0
  141.8600   80.4380  222.1580 C   0  0  0  0  0  0  0  0  0  0  0  0
  141.5940   79.8800  223.4070 C   0  0  0  0  0  0  0  0  0  0  0  0
  141.2160   78.5360  223.4310 C   0  0  0  0  0  0  0  0  0  0  0  0
  141.1050   77.7840  222.2850 C   0  0  0  0  0  0  0  0  0  0  0  0
  140.6990   76.3420  222.3380 C   0  0  0  0  0  0  0  0  0  0  0  0
  140.8610   73.4590  222.3170 N   0  0  0  0  0  0  0  0  0  0  0  0
  141.0440   71.2400  224.6360 C   0  0  0  0  0  0  0  0  0  0  0  0
  140.1690   70.9130  225.7920 C   0  0  0  0  0  0  0  0  0  0  0  0
  140.8660   67.0200  225.5130 H   0  0  0  0  0  0  0  0  0  0  0  0
  140.9600   66.4810  227.2490 H   0  0  0  0  0  0  0  0  0  0  0  0
  138.3209   68.0747  225.8980 H   0  0  0  0  0  0  0  0  0  0  0  0
  138.2249   69.2481  227.2984 H   0  0  0  0  0  0  0  0  0  0  0  0
  138.1210   70.7318  225.6192 H   0  0  0  0  0  0  0  0  0  0  0  0
  140.0386   68.9177  224.0011 H   0  0  0  0  0  0  0  0  0  0  0  0
  138.2823   68.7651  223.8980 H   0  0  0  0  0  0  0  0  0  0  0  0
  138.9753   70.3465  222.1183 H   0  0  0  0  0  0  0  0  0  0  0  0
  138.2136   71.3412  223.3589 H   0  0  0  0  0  0  0  0  0  0  0  0
  140.7634   70.4630  218.8018 H   0  0  0  0  0  0  0  0  0  0  0  0
  141.5716   71.1827  217.3308 H   0  0  0  0  0  0  0  0  0  0  0  0
  141.7362   68.5426  218.4167 H   0  0  0  0  0  0  0  0  0  0  0  0
  142.3931   69.2714  216.8659 H   0  0  0  0  0  0  0  0  0  0  0  0
  143.6733   67.0747  218.1793 H   0  0  0  0  0  0  0  0  0  0  0  0
  145.9864   66.6662  218.9703 H   0  0  0  0  0  0  0  0  0  0  0  0
  147.3538   68.6095  219.7027 H   0  0  0  0  0  0  0  0  0  0  0  0
  146.4367   70.9163  219.6428 H   0  0  0  0  0  0  0  0  0  0  0  0
  144.4461   72.2666  219.5677 H   0  0  0  0  0  0  0  0  0  0  0  0
  144.1009   72.0909  217.8356 H   0  0  0  0  0  0  0  0  0  0  0  0
  143.0673   76.5387  220.4884 H   0  0  0  0  0  0  0  0  0  0  0  0
  142.1111   75.6030  219.3158 H   0  0  0  0  0  0  0  0  0  0  0  0
  141.6603   78.0215  218.9765 H   0  0  0  0  0  0  0  0  0  0  0  0
  140.1944   77.2913  219.6280 H   0  0  0  0  0  0  0  0  0  0  0  0
  141.9730   80.1735  220.0163 H   0  0  0  0  0  0  0  0  0  0  0  0
  142.1613   81.4944  222.1008 H   0  0  0  0  0  0  0  0  0  0  0  0
  141.6779   80.4709  224.3310 H   0  0  0  0  0  0  0  0  0  0  0  0
  140.9996   78.0624  224.4000 H   0  0  0  0  0  0  0  0  0  0  0  0
  140.9771   75.9212  223.3155 H   0  0  0  0  0  0  0  0  0  0  0  0
  139.6108   76.2684  222.1953 H   0  0  0  0  0  0  0  0  0  0  0  0
  141.8033   70.4496  224.5424 H   0  0  0  0  0  0  0  0  0  0  0  0
  141.4836   72.2277  224.8389 H   0  0  0  0  0  0  0  0  0  0  0  0
  140.7834   70.3902  226.5398 H   0  0  0  0  0  0  0  0  0  0  0  0
  139.7607   71.8762  226.1320 H   0  0  0  0  0  0  0  0  0  0  0  0
  1  2  1  0
  2  3  2  0
  2  4  1  0
  4  5  1  0
  5  6  1  0
  6  7  1  0
  7  8  1  0
  8  9  1  0
  9 10  2  0
 10 11  1  0
 11 12  1  0
 12 13  1  0
 13 14  1  0
 14 15  1  0
 15 16  2  0
 16 17  1  0
 17 18  2  0
 18 19  1  0
 19 20  2  0
 20 21  1  0
 11 22  2  0
 22 23  1  0
 23 24  1  0
 24 25  1  0
 25 26  1  0
 26 27  1  0
 27 28  2  0
 28 29  1  0
 29 30  2  0
 30 31  1  0
 31 32  2  0
 32 33  1  0
 23 34  2  0
  8 35  1  0
 35 36  1  0
 36  5  1  0
 34  9  1  0
 21 12  1  0
 33 24  1  0
 20 15  1  0
 32 27  1  0
  1 37  1  0
  1 38  1  0
  4 39  1  0
  4 40  1  0
  5 41  1  0
  6 42  1  0
  6 43  1  0
  7 44  1  0
  7 45  1  0
 13 46  1  0
 13 47  1  0
 14 48  1  0
 14 49  1  0
 16 50  1  0
 17 51  1  0
 18 52  1  0
 19 53  1  0
 21 54  1  0
 21 55  1  0
 25 56  1  0
 25 57  1  0
 26 58  1  0
 26 59  1  0
 28 60  1  0
 29 61  1  0
 30 62  1  0
 31 63  1  0
 33 64  1  0
 33 65  1  0
 35 66  1  0
 35 67  1  0
 36 68  1  0
 36 69  1  0
M  END
>  <smiles>  (29) 
NC(=O)CC1CCN(c2nc(N3CCc4ccccc4C3)nc(N3CCc4ccccc4C3)n2)CC1

>  <score_type>  (29) 
oracle

>  <origin>  (29) 
autodockgpu

>  <m_score__min__energy>  (29) 
-9.3499999999999996

>  <m_primary>  (29) 
energy

>  <rmsd>  (29) 
8.960096232732365

>  <m_score__min__rmsd>  (29) 
8.960096232732365

>  <meeko>  (29) 
{"free_energy": -9.1, "intermolecular_energy": -10.59, "internal_energy": -1.12, "cluster_size": 28, "cluster_id": 1, "rank_in_cluster": 8}

>  <energy>  (29) 
-9.22

>  <cluster_rmsd>  (29) 
0.0

>  <cluster>  (29) 
2

$$$$

     RDKit          3D

 69 74  0  0  0  0  0  0  0  0999 V2000
  145.9210   66.9660  217.7470 N   0  0  0  0  0  0  0  0  0  0  0  0
  146.0350   68.1930  218.4440 C   0  0  0  0  0  0  0  0  0  0  0  0
  145.9230   68.2220  219.7160 O   0  0  0  0  0  0  0  0  0  0  0  0
  146.2820   69.4760  217.7650 C   0  0  0  0  0  0  0  0  0  0  0  0
  145.2360   70.5290  218.0500 C   0  0  0  0  0  0  0  0  0  0  0  0
  145.6450   71.1960  219.3470 C   0  0  0  0  0  0  0  0  0  0  0  0
  144.6850   72.3780  219.5120 C   0  0  0  0  0  0  0  0  0  0  0  0
  143.3990   71.7750  219.8070 N   0  0  0  0  0  0  0  0  0  0  0  0
  142.4580   72.5300  220.5610 C   0  0  0  0  0  0  0  0  0  0  0  0
  141.5510   71.8870  221.3200 N   0  0  0  0  0  0  0  0  0  0  0  0
  140.6500   72.5740  222.0430 C   0  0  0  0  0  0  0  0  0  0  0  0
  139.7000   71.8800  222.8400 N   0  0  0  0  0  0  0  0  0  0  0  0
  140.0220   71.5370  224.2210 C   0  0  0  0  0  0  0  0  0  0  0  0
  139.6510   70.1380  224.5870 C   0  0  0  0  0  0  0  0  0  0  0  0
  138.9170   69.4030  223.5360 C   0  0  0  0  0  0  0  0  0  0  0  0
  138.8160   68.0340  223.6320 C   0  0  0  0  0  0  0  0  0  0  0  0
  138.1500   67.2580  222.7010 C   0  0  0  0  0  0  0  0  0  0  0  0
  137.5650   67.9090  221.6310 C   0  0  0  0  0  0  0  0  0  0  0  0
  137.6320   69.2800  221.4800 C   0  0  0  0  0  0  0  0  0  0  0  0
  138.3160   70.0030  222.4510 C   0  0  0  0  0  0  0  0  0  0  0  0
  138.4080   71.4990  222.3150 C   0  0  0  0  0  0  0  0  0  0  0  0
  140.6600   73.9140  222.0020 N   0  0  0  0  0  0  0  0  0  0  0  0
  141.5600   74.6000  221.2470 C   0  0  0  0  0  0  0  0  0  0  0  0
  141.5190   76.0060  221.2450 N   0  0  0  0  0  0  0  0  0  0  0  0
  142.0970   76.6990  220.1040 C   0  0  0  0  0  0  0  0  0  0  0  0
  141.2460   77.9350  219.8530 C   0  0  0  0  0  0  0  0  0  0  0  0
  141.4540   78.7900  221.0610 C   0  0  0  0  0  0  0  0  0  0  0  0
  141.7950   80.1240  220.9680 C   0  0  0  0  0  0  0  0  0  0  0  0
  141.9690   80.8420  222.1350 C   0  0  0  0  0  0  0  0  0  0  0  0
  141.8120   80.2630  223.3930 C   0  0  0  0  0  0  0  0  0  0  0  0
  141.4680   78.9100  223.4280 C   0  0  0  0  0  0  0  0  0  0  0  0
  141.2870   78.1690  222.2840 C   0  0  0  0  0  0  0  0  0  0  0  0
  140.9190   76.7180  222.3480 C   0  0  0  0  0  0  0  0  0  0  0  0
  142.4450   73.8760  220.5380 N   0  0  0  0  0  0  0  0  0  0  0  0
  143.0720   70.4400  219.3510 C   0  0  0  0  0  0  0  0  0  0  0  0
  143.8510   69.9980  218.1650 C   0  0  0  0  0  0  0  0  0  0  0  0
  146.6450   66.6590  217.0660 H   0  0  0  0  0  0  0  0  0  0  0  0
  145.0770   66.3850  217.9490 H   0  0  0  0  0  0  0  0  0  0  0  0
  147.2590   69.8599  218.0939 H   0  0  0  0  0  0  0  0  0  0  0  0
  146.2497   69.2772  216.6836 H   0  0  0  0  0  0  0  0  0  0  0  0
  145.2005   71.2278  217.2012 H   0  0  0  0  0  0  0  0  0  0  0  0
  145.5431   70.4960  220.1894 H   0  0  0  0  0  0  0  0  0  0  0  0
  146.6961   71.5200  219.3286 H   0  0  0  0  0  0  0  0  0  0  0  0
  145.0077   73.0262  220.3400 H   0  0  0  0  0  0  0  0  0  0  0  0
  144.6493   73.0115  218.6134 H   0  0  0  0  0  0  0  0  0  0  0  0
  141.1053   71.6599  224.3672 H   0  0  0  0  0  0  0  0  0  0  0  0
  139.4362   72.2076  224.8669 H   0  0  0  0  0  0  0  0  0  0  0  0
  140.5751   69.5851  224.8111 H   0  0  0  0  0  0  0  0  0  0  0  0
  138.9725   70.2102  225.4498 H   0  0  0  0  0  0  0  0  0  0  0  0
  139.2875   67.5330  224.4903 H   0  0  0  0  0  0  0  0  0  0  0  0
  138.0881   66.1649  222.8078 H   0  0  0  0  0  0  0  0  0  0  0  0
  137.0289   67.3158  220.8755 H   0  0  0  0  0  0  0  0  0  0  0  0
  137.1611   69.7822  220.6221 H   0  0  0  0  0  0  0  0  0  0  0  0
  138.3266   71.7902  221.2574 H   0  0  0  0  0  0  0  0  0  0  0  0
  137.5938   71.9989  222.8602 H   0  0  0  0  0  0  0  0  0  0  0  0
  143.1333   76.9933  220.3267 H   0  0  0  0  0  0  0  0  0  0  0  0
  142.1127   76.0480  219.2175 H   0  0  0  0  0  0  0  0  0  0  0  0
  141.5802   78.4583  218.9450 H   0  0  0  0  0  0  0  0  0  0  0  0
  140.1860   77.6860  219.6966 H   0  0  0  0  0  0  0  0  0  0  0  0
  141.9252   80.6044  219.9871 H   0  0  0  0  0  0  0  0  0  0  0  0
  142.2404   81.9060  222.0694 H   0  0  0  0  0  0  0  0  0  0  0  0
  141.9526   80.8450  224.3158 H   0  0  0  0  0  0  0  0  0  0  0  0
  141.3374   78.4203  224.4043 H   0  0  0  0  0  0  0  0  0  0  0  0
  141.2804   76.2923  223.2957 H   0  0  0  0  0  0  0  0  0  0  0  0
  139.8250   76.6206  222.2875 H   0  0  0  0  0  0  0  0  0  0  0  0
  143.2659   69.7363  220.1739 H   0  0  0  0  0  0  0  0  0  0  0  0
  142.0146   70.4574  219.0485 H   0  0  0  0  0  0  0  0  0  0  0  0
  143.9146   68.9003  218.1960 H   0  0  0  0  0  0  0  0  0  0  0  0
  143.3108   70.3976  217.2941 H   0  0  0  0  0  0  0  0  0  0  0  0
  1  2  1  0
  2  3  2  0
  2  4  1  0
  4  5  1  0
  5  6  1  0
  6  7  1  0
  7  8  1  0
  8  9  1  0
  9 10  2  0
 10 11  1  0
 11 12  1  0
 12 13  1  0
 13 14  1  0
 14 15  1  0
 15 16  2  0
 16 17  1  0
 17 18  2  0
 18 19  1  0
 19 20  2  0
 20 21  1  0
 11 22  2  0
 22 23  1  0
 23 24  1  0
 24 25  1  0
 25 26  1  0
 26 27  1  0
 27 28  2  0
 28 29  1  0
 29 30  2  0
 30 31  1  0
 31 32  2  0
 32 33  1  0
 23 34  2  0
  8 35  1  0
 35 36  1  0
 36  5  1  0
 34  9  1  0
 21 12  1  0
 33 24  1  0
 20 15  1  0
 32 27  1  0
  1 37  1  0
  1 38  1  0
  4 39  1  0
  4 40  1  0
  5 41  1  0
  6 42  1  0
  6 43  1  0
  7 44  1  0
  7 45  1  0
 13 46  1  0
 13 47  1  0
 14 48  1  0
 14 49  1  0
 16 50  1  0
 17 51  1  0
 18 52  1  0
 19 53  1  0
 21 54  1  0
 21 55  1  0
 25 56  1  0
 25 57  1  0
 26 58  1  0
 26 59  1  0
 28 60  1  0
 29 61  1  0
 30 62  1  0
 31 63  1  0
 33 64  1  0
 33 65  1  0
 35 66  1  0
 35 67  1  0
 36 68  1  0
 36 69  1  0
M  END
>  <smiles>  (30) 
NC(=O)CC1CCN(c2nc(N3CCc4ccccc4C3)nc(N3CCc4ccccc4C3)n2)CC1

>  <score_type>  (30) 
oracle

>  <origin>  (30) 
autodockgpu

>  <m_score__min__energy>  (30) 
-9.3499999999999996

>  <m_primary>  (30) 
energy

>  <rmsd>  (30) 
8.679752194531325

>  <m_score__min__rmsd>  (30) 
8.679752194531325

>  <meeko>  (30) 
{"free_energy": -8.64, "intermolecular_energy": -10.13, "internal_energy": -1.19, "cluster_size": 3, "cluster_id": 5, "rank_in_cluster": 1}

>  <energy>  (30) 
-9.21

>  <cluster_rmsd>  (30) 
0.31

>  <cluster>  (30) 
2

$$$$

     RDKit          3D

 69 74  0  0  0  0  0  0  0  0999 V2000
  146.9290   74.3230  215.8650 N   0  0  0  0  0  0  0  0  0  0  0  0
  146.8310   72.9120  215.8000 C   0  0  0  0  0  0  0  0  0  0  0  0
  147.8280   72.2170  215.4090 O   0  0  0  0  0  0  0  0  0  0  0  0
  145.6090   72.1800  216.1700 C   0  0  0  0  0  0  0  0  0  0  0  0
  145.0860   72.5200  217.5470 C   0  0  0  0  0  0  0  0  0  0  0  0
  143.8930   71.6160  217.7830 C   0  0  0  0  0  0  0  0  0  0  0  0
  143.5020   71.8410  219.2470 C   0  0  0  0  0  0  0  0  0  0  0  0
  142.9510   73.1820  219.2840 N   0  0  0  0  0  0  0  0  0  0  0  0
  141.9970   73.4920  220.2940 C   0  0  0  0  0  0  0  0  0  0  0  0
  141.5230   74.7470  220.3920 N   0  0  0  0  0  0  0  0  0  0  0  0
  140.6220   75.0700  221.3360 C   0  0  0  0  0  0  0  0  0  0  0  0
  140.1310   76.4000  221.4260 N   0  0  0  0  0  0  0  0  0  0  0  0
  139.7810   77.1290  220.2120 C   0  0  0  0  0  0  0  0  0  0  0  0
  140.2900   78.5320  220.1950 C   0  0  0  0  0  0  0  0  0  0  0  0
  140.9390   78.9640  221.4510 C   0  0  0  0  0  0  0  0  0  0  0  0
  141.7200   80.0970  221.4370 C   0  0  0  0  0  0  0  0  0  0  0  0
  142.3670   80.5830  222.5580 C   0  0  0  0  0  0  0  0  0  0  0  0
  142.2090   79.8820  223.7390 C   0  0  0  0  0  0  0  0  0  0  0  0
  141.4380   78.7380  223.8150 C   0  0  0  0  0  0  0  0  0  0  0  0
  140.8130   78.3030  222.6520 C   0  0  0  0  0  0  0  0  0  0  0  0
  139.9670   77.0600  222.7030 C   0  0  0  0  0  0  0  0  0  0  0  0
  140.1960   74.1240  222.1860 N   0  0  0  0  0  0  0  0  0  0  0  0
  140.6510   72.8430  222.1180 C   0  0  0  0  0  0  0  0  0  0  0  0
  140.1660   71.8970  223.0380 N   0  0  0  0  0  0  0  0  0  0  0  0
  138.7380   71.6190  223.0360 C   0  0  0  0  0  0  0  0  0  0  0  0
  138.5690   70.1410  223.3520 C   0  0  0  0  0  0  0  0  0  0  0  0
  139.0600   69.9950  224.7560 C   0  0  0  0  0  0  0  0  0  0  0  0
  138.3230   69.3530  225.7300 C   0  0  0  0  0  0  0  0  0  0  0  0
  138.8520   69.2620  227.0020 C   0  0  0  0  0  0  0  0  0  0  0  0
  140.0970   69.7960  227.3290 C   0  0  0  0  0  0  0  0  0  0  0  0
  140.7990   70.4360  226.3040 C   0  0  0  0  0  0  0  0  0  0  0  0
  140.3000   70.5410  225.0280 C   0  0  0  0  0  0  0  0  0  0  0  0
  141.0720   71.2330  223.9460 C   0  0  0  0  0  0  0  0  0  0  0  0
  141.5530   72.5620  221.1600 N   0  0  0  0  0  0  0  0  0  0  0  0
  143.3530   74.1880  218.3220 C   0  0  0  0  0  0  0  0  0  0  0  0
  144.6870   73.9430  217.7150 C   0  0  0  0  0  0  0  0  0  0  0  0
  146.6740   74.8460  216.7280 H   0  0  0  0  0  0  0  0  0  0  0  0
  147.2700   74.8130  215.0080 H   0  0  0  0  0  0  0  0  0  0  0  0
  144.8267   72.4170  215.4339 H   0  0  0  0  0  0  0  0  0  0  0  0
  145.8676   71.1109  216.1811 H   0  0  0  0  0  0  0  0  0  0  0  0
  145.8936   72.3661  218.2779 H   0  0  0  0  0  0  0  0  0  0  0  0
  143.0629   71.8906  217.1155 H   0  0  0  0  0  0  0  0  0  0  0  0
  144.1293   70.5614  217.5780 H   0  0  0  0  0  0  0  0  0  0  0  0
  142.7492   71.1043  219.5642 H   0  0  0  0  0  0  0  0  0  0  0  0
  144.3591   71.7265  219.9269 H   0  0  0  0  0  0  0  0  0  0  0  0
  140.2050   76.5939  219.3496 H   0  0  0  0  0  0  0  0  0  0  0  0
  138.6831   77.1816  220.1702 H   0  0  0  0  0  0  0  0  0  0  0  0
  141.0240   78.6213  219.3806 H   0  0  0  0  0  0  0  0  0  0  0  0
  139.4129   79.1813  220.0567 H   0  0  0  0  0  0  0  0  0  0  0  0
  141.8350   80.6421  220.4885 H   0  0  0  0  0  0  0  0  0  0  0  0
  142.9839   81.4926  222.5119 H   0  0  0  0  0  0  0  0  0  0  0  0
  142.7128   80.2464  224.6464 H   0  0  0  0  0  0  0  0  0  0  0  0
  141.3228   78.1908  224.7623 H   0  0  0  0  0  0  0  0  0  0  0  0
  140.3060   76.4025  223.5171 H   0  0  0  0  0  0  0  0  0  0  0  0
  138.9113   77.3043  222.8923 H   0  0  0  0  0  0  0  0  0  0  0  0
  138.2341   72.2283  223.8007 H   0  0  0  0  0  0  0  0  0  0  0  0
  138.2931   71.8638  222.0602 H   0  0  0  0  0  0  0  0  0  0  0  0
  137.5116   69.8469  223.2782 H   0  0  0  0  0  0  0  0  0  0  0  0
  139.1206   69.4993  222.6492 H   0  0  0  0  0  0  0  0  0  0  0  0
  137.3370   68.9237  225.4984 H   0  0  0  0  0  0  0  0  0  0  0  0
  138.2711   68.7507  227.7838 H   0  0  0  0  0  0  0  0  0  0  0  0
  140.5079   69.7174  228.3463 H   0  0  0  0  0  0  0  0  0  0  0  0
  141.7848   70.8706  226.5263 H   0  0  0  0  0  0  0  0  0  0  0  0
  141.7448   71.9769  224.3977 H   0  0  0  0  0  0  0  0  0  0  0  0
  141.6588   70.4878  223.3889 H   0  0  0  0  0  0  0  0  0  0  0  0
  142.6053   74.2142  217.5156 H   0  0  0  0  0  0  0  0  0  0  0  0
  143.4208   75.1412  218.8669 H   0  0  0  0  0  0  0  0  0  0  0  0
  144.6931   74.4120  216.7200 H   0  0  0  0  0  0  0  0  0  0  0  0
  145.4130   74.3683  218.4236 H   0  0  0  0  0  0  0  0  0  0  0  0
  1  2  1  0
  2  3  2  0
  2  4  1  0
  4  5  1  0
  5  6  1  0
  6  7  1  0
  7  8  1  0
  8  9  1  0
  9 10  2  0
 10 11  1  0
 11 12  1  0
 12 13  1  0
 13 14  1  0
 14 15  1  0
 15 16  2  0
 16 17  1  0
 17 18  2  0
 18 19  1  0
 19 20  2  0
 20 21  1  0
 11 22  2  0
 22 23  1  0
 23 24  1  0
 24 25  1  0
 25 26  1  0
 26 27  1  0
 27 28  2  0
 28 29  1  0
 29 30  2  0
 30 31  1  0
 31 32  2  0
 32 33  1  0
 23 34  2  0
  8 35  1  0
 35 36  1  0
 36  5  1  0
 34  9  1  0
 21 12  1  0
 33 24  1  0
 20 15  1  0
 32 27  1  0
  1 37  1  0
  1 38  1  0
  4 39  1  0
  4 40  1  0
  5 41  1  0
  6 42  1  0
  6 43  1  0
  7 44  1  0
  7 45  1  0
 13 46  1  0
 13 47  1  0
 14 48  1  0
 14 49  1  0
 16 50  1  0
 17 51  1  0
 18 52  1  0
 19 53  1  0
 21 54  1  0
 21 55  1  0
 25 56  1  0
 25 57  1  0
 26 58  1  0
 26 59  1  0
 28 60  1  0
 29 61  1  0
 30 62  1  0
 31 63  1  0
 33 64  1  0
 33 65  1  0
 35 66  1  0
 35 67  1  0
 36 68  1  0
 36 69  1  0
M  END
>  <smiles>  (31) 
NC(=O)CC1CCN(c2nc(N3CCc4ccccc4C3)nc(N3CCc4ccccc4C3)n2)CC1

>  <score_type>  (31) 
oracle

>  <origin>  (31) 
autodockgpu

>  <m_score__min__energy>  (31) 
-9.3499999999999996

>  <m_primary>  (31) 
energy

>  <rmsd>  (31) 
7.157820094919951

>  <m_score__min__rmsd>  (31) 
7.157820094919951

>  <meeko>  (31) 
{"free_energy": -8.48, "intermolecular_energy": -9.97, "internal_energy": -1.03, "cluster_size": 3, "cluster_id": 4, "rank_in_cluster": 3}

>  <energy>  (31) 
-9.2

>  <cluster_rmsd>  (31) 
0.06

>  <cluster>  (31) 
2

$$$$

     RDKit          3D

 69 74  0  0  0  0  0  0  0  0999 V2000
  140.4740   67.5500  226.4430 N   0  0  0  0  0  0  0  0  0  0  0  0
  139.5240   68.5980  226.5100 C   0  0  0  0  0  0  0  0  0  0  0  0
  139.5210   69.3970  227.5070 O   0  0  0  0  0  0  0  0  0  0  0  0
  138.5120   68.8250  225.4660 C   0  0  0  0  0  0  0  0  0  0  0  0
  138.6570   70.1510  224.7540 C   0  0  0  0  0  0  0  0  0  0  0  0
  138.8420   69.8260  223.2860 C   0  0  0  0  0  0  0  0  0  0  0  0
  138.7920   71.1780  222.5650 C   0  0  0  0  0  0  0  0  0  0  0  0
  140.0220   71.8470  222.9450 N   0  0  0  0  0  0  0  0  0  0  0  0
  140.5670   72.8130  222.0530 C   0  0  0  0  0  0  0  0  0  0  0  0
  140.1700   74.0960  222.1460 N   0  0  0  0  0  0  0  0  0  0  0  0
  140.6670   75.0300  221.3170 C   0  0  0  0  0  0  0  0  0  0  0  0
  140.2370   76.3810  221.4290 N   0  0  0  0  0  0  0  0  0  0  0  0
  139.9130   77.1410  220.2270 C   0  0  0  0  0  0  0  0  0  0  0  0
  140.4850   78.5190  220.2240 C   0  0  0  0  0  0  0  0  0  0  0  0
  141.1620   78.9050  221.4790 C   0  0  0  0  0  0  0  0  0  0  0  0
  141.9940   80.0010  221.4730 C   0  0  0  0  0  0  0  0  0  0  0  0
  142.6710   80.4420  222.5960 C   0  0  0  0  0  0  0  0  0  0  0  0
  142.4900   79.7330  223.7690 C   0  0  0  0  0  0  0  0  0  0  0  0
  141.6680   78.6250  223.8370 C   0  0  0  0  0  0  0  0  0  0  0  0
  141.0150   78.2340  222.6730 C   0  0  0  0  0  0  0  0  0  0  0  0
  140.1140   77.0300  222.7150 C   0  0  0  0  0  0  0  0  0  0  0  0
  141.5670   74.6730  220.3900 N   0  0  0  0  0  0  0  0  0  0  0  0
  141.9930   73.3860  220.2650 C   0  0  0  0  0  0  0  0  0  0  0  0
  142.9400   73.0740  219.2730 N   0  0  0  0  0  0  0  0  0  0  0  0
  143.8630   71.9810  219.5370 C   0  0  0  0  0  0  0  0  0  0  0  0
  144.1150   71.2780  218.2120 C   0  0  0  0  0  0  0  0  0  0  0  0
  144.8300   72.2880  217.3750 C   0  0  0  0  0  0  0  0  0  0  0  0
  146.0030   71.9960  216.7100 C   0  0  0  0  0  0  0  0  0  0  0  0
  146.5990   72.9890  215.9590 C   0  0  0  0  0  0  0  0  0  0  0  0
  146.0560   74.2680  215.8540 C   0  0  0  0  0  0  0  0  0  0  0  0
  144.8680   74.5090  216.5480 C   0  0  0  0  0  0  0  0  0  0  0  0
  144.2500   73.5410  217.3040 C   0  0  0  0  0  0  0  0  0  0  0  0
  142.9770   73.8250  218.0400 C   0  0  0  0  0  0  0  0  0  0  0  0
  141.4720   72.4810  221.1130 N   0  0  0  0  0  0  0  0  0  0  0  0
  140.6880   71.5460  224.1960 C   0  0  0  0  0  0  0  0  0  0  0  0
  139.7900   70.9840  225.2380 C   0  0  0  0  0  0  0  0  0  0  0  0
  141.0670   67.4070  225.6000 H   0  0  0  0  0  0  0  0  0  0  0  0
  140.5510   66.9280  227.2780 H   0  0  0  0  0  0  0  0  0  0  0  0
  138.5958   68.0202  224.7208 H   0  0  0  0  0  0  0  0  0  0  0  0
  137.5323   68.8352  225.9661 H   0  0  0  0  0  0  0  0  0  0  0  0
  137.7597   70.7561  224.9507 H   0  0  0  0  0  0  0  0  0  0  0  0
  139.8123   69.3355  223.1189 H   0  0  0  0  0  0  0  0  0  0  0  0
  138.0694   69.1350  222.9176 H   0  0  0  0  0  0  0  0  0  0  0  0
  138.7498   71.0346  221.4752 H   0  0  0  0  0  0  0  0  0  0  0  0
  137.9006   71.7615  222.8387 H   0  0  0  0  0  0  0  0  0  0  0  0
  140.3066   76.5984  219.3549 H   0  0  0  0  0  0  0  0  0  0  0  0
  138.8183   77.2442  220.1938 H   0  0  0  0  0  0  0  0  0  0  0  0
  141.2162   78.5855  219.4049 H   0  0  0  0  0  0  0  0  0  0  0  0
  139.6371   79.2090  220.1014 H   0  0  0  0  0  0  0  0  0  0  0  0
  142.1271   80.5526  220.5307 H   0  0  0  0  0  0  0  0  0  0  0  0
  143.3283   81.3232  222.5571 H   0  0  0  0  0  0  0  0  0  0  0  0
  143.0172   80.0616  224.6768 H   0  0  0  0  0  0  0  0  0  0  0  0
  141.5346   78.0716  224.7783 H   0  0  0  0  0  0  0  0  0  0  0  0
  140.4296   76.3468  223.5173 H   0  0  0  0  0  0  0  0  0  0  0  0
  139.0721   77.3194  222.9168 H   0  0  0  0  0  0  0  0  0  0  0  0
  144.8075   72.3741  219.9411 H   0  0  0  0  0  0  0  0  0  0  0  0
  143.4424   71.2835  220.2763 H   0  0  0  0  0  0  0  0  0  0  0  0
  144.7398   70.3848  218.3598 H   0  0  0  0  0  0  0  0  0  0  0  0
  143.1829   70.9328  217.7409 H   0  0  0  0  0  0  0  0  0  0  0  0
  146.4531   70.9945  216.7768 H   0  0  0  0  0  0  0  0  0  0  0  0
  147.5340   72.7631  215.4255 H   0  0  0  0  0  0  0  0  0  0  0  0
  146.5404   75.0514  215.2526 H   0  0  0  0  0  0  0  0  0  0  0  0
  144.4110   75.5078  216.4876 H   0  0  0  0  0  0  0  0  0  0  0  0
  142.9195   74.8999  218.2665 H   0  0  0  0  0  0  0  0  0  0  0  0
  142.1237   73.5293  217.4119 H   0  0  0  0  0  0  0  0  0  0  0  0
  141.4859   70.8156  223.9962 H   0  0  0  0  0  0  0  0  0  0  0  0
  141.0745   72.4982  224.5883 H   0  0  0  0  0  0  0  0  0  0  0  0
  140.4019   70.3609  225.9068 H   0  0  0  0  0  0  0  0  0  0  0  0
  139.3261   71.8544  225.7250 H   0  0  0  0  0  0  0  0  0  0  0  0
  1  2  1  0
  2  3  2  0
  2  4  1  0
  4  5  1  0
  5  6  1  0
  6  7  1  0
  7  8  1  0
  8  9  1  0
  9 10  2  0
 10 11  1  0
 11 12  1  0
 12 13  1  0
 13 14  1  0
 14 15  1  0
 15 16  2  0
 16 17  1  0
 17 18  2  0
 18 19  1  0
 19 20  2  0
 20 21  1  0
 11 22  2  0
 22 23  1  0
 23 24  1  0
 24 25  1  0
 25 26  1  0
 26 27  1  0
 27 28  2  0
 28 29  1  0
 29 30  2  0
 30 31  1  0
 31 32  2  0
 32 33  1  0
 23 34  2  0
  8 35  1  0
 35 36  1  0
 36  5  1  0
 34  9  1  0
 21 12  1  0
 33 24  1  0
 20 15  1  0
 32 27  1  0
  1 37  1  0
  1 38  1  0
  4 39  1  0
  4 40  1  0
  5 41  1  0
  6 42  1  0
  6 43  1  0
  7 44  1  0
  7 45  1  0
 13 46  1  0
 13 47  1  0
 14 48  1  0
 14 49  1  0
 16 50  1  0
 17 51  1  0
 18 52  1  0
 19 53  1  0
 21 54  1  0
 21 55  1  0
 25 56  1  0
 25 57  1  0
 26 58  1  0
 26 59  1  0
 28 60  1  0
 29 61  1  0
 30 62  1  0
 31 63  1  0
 33 64  1  0
 33 65  1  0
 35 66  1  0
 35 67  1  0
 36 68  1  0
 36 69  1  0
M  END
>  <smiles>  (32) 
NC(=O)CC1CCN(c2nc(N3CCc4ccccc4C3)nc(N3CCc4ccccc4C3)n2)CC1

>  <score_type>  (32) 
oracle

>  <origin>  (32) 
autodockgpu

>  <m_score__min__energy>  (32) 
-9.3499999999999996

>  <m_primary>  (32) 
energy

>  <rmsd>  (32) 
8.414868557712754

>  <m_score__min__rmsd>  (32) 
8.414868557712754

>  <meeko>  (32) 
{"free_energy": -8.52, "intermolecular_energy": -10.02, "internal_energy": -1.07, "cluster_size": 28, "cluster_id": 1, "rank_in_cluster": 24}

>  <energy>  (32) 
-9.2

>  <cluster_rmsd>  (32) 
0.28

>  <cluster>  (32) 
2

$$$$

     RDKit          3D

 69 74  0  0  0  0  0  0  0  0999 V2000
  142.6110   79.2660  222.3280 N   0  0  0  0  0  0  0  0  0  0  0  0
  141.2300   79.4790  222.1010 C   0  0  0  0  0  0  0  0  0  0  0  0
  140.4860   79.9220  223.0410 O   0  0  0  0  0  0  0  0  0  0  0  0
  140.5830   79.2110  220.8070 C   0  0  0  0  0  0  0  0  0  0  0  0
  140.3700   77.7410  220.5230 C   0  0  0  0  0  0  0  0  0  0  0  0
  139.9360   77.1140  221.8320 C   0  0  0  0  0  0  0  0  0  0  0  0
  139.5430   75.6760  221.4790 C   0  0  0  0  0  0  0  0  0  0  0  0
  140.7950   75.0160  221.1600 N   0  0  0  0  0  0  0  0  0  0  0  0
  140.8820   73.6090  221.3530 C   0  0  0  0  0  0  0  0  0  0  0  0
  141.2360   72.8210  220.3210 N   0  0  0  0  0  0  0  0  0  0  0  0
  141.3270   71.4880  220.4730 C   0  0  0  0  0  0  0  0  0  0  0  0
  141.7020   70.6710  219.3730 N   0  0  0  0  0  0  0  0  0  0  0  0
  140.7710   69.6720  218.8590 C   0  0  0  0  0  0  0  0  0  0  0  0
  141.4080   68.3490  218.5920 C   0  0  0  0  0  0  0  0  0  0  0  0
  142.8740   68.3270  218.7720 C   0  0  0  0  0  0  0  0  0  0  0  0
  143.5110   67.1110  218.8730 C   0  0  0  0  0  0  0  0  0  0  0  0
  144.8780   66.9850  219.0420 C   0  0  0  0  0  0  0  0  0  0  0  0
  145.6210   68.1480  219.1110 C   0  0  0  0  0  0  0  0  0  0  0  0
  145.0390   69.3970  219.0170 C   0  0  0  0  0  0  0  0  0  0  0  0
  143.6610   69.4550  218.8460 C   0  0  0  0  0  0  0  0  0  0  0  0
  142.9970   70.8010  218.7410 C   0  0  0  0  0  0  0  0  0  0  0  0
  141.0610   70.9450  221.6690 N   0  0  0  0  0  0  0  0  0  0  0  0
  140.7000   71.7080  222.7370 C   0  0  0  0  0  0  0  0  0  0  0  0
  140.4330   71.0790  223.9660 N   0  0  0  0  0  0  0  0  0  0  0  0
  139.4230   70.0330  223.9870 C   0  0  0  0  0  0  0  0  0  0  0  0
  139.8790   68.9890  224.9940 C   0  0  0  0  0  0  0  0  0  0  0  0
  139.8390   69.6890  226.3130 C   0  0  0  0  0  0  0  0  0  0  0  0
  139.2050   69.1500  227.4140 C   0  0  0  0  0  0  0  0  0  0  0  0
  139.2150   69.8650  228.5950 C   0  0  0  0  0  0  0  0  0  0  0  0
  139.8400   71.1050  228.7070 C   0  0  0  0  0  0  0  0  0  0  0  0
  140.4650   71.6040  227.5620 C   0  0  0  0  0  0  0  0  0  0  0  0
  140.4730   70.9160  226.3720 C   0  0  0  0  0  0  0  0  0  0  0  0
  141.1500   71.4730  225.1570 C   0  0  0  0  0  0  0  0  0  0  0  0
  140.6200   73.0370  222.5430 N   0  0  0  0  0  0  0  0  0  0  0  0
  141.9330   75.7600  220.6600 C   0  0  0  0  0  0  0  0  0  0  0  0
  141.5720   77.0400  219.9970 C   0  0  0  0  0  0  0  0  0  0  0  0
  143.3330   79.6640  221.6930 H   0  0  0  0  0  0  0  0  0  0  0  0
  142.8700   78.6910  223.1600 H   0  0  0  0  0  0  0  0  0  0  0  0
  139.6033   79.7111  220.7991 H   0  0  0  0  0  0  0  0  0  0  0  0
  141.2576   79.5932  220.0267 H   0  0  0  0  0  0  0  0  0  0  0  0
  139.6160   77.6420  219.7282 H   0  0  0  0  0  0  0  0  0  0  0  0
  140.7641   77.1207  222.5560 H   0  0  0  0  0  0  0  0  0  0  0  0
  139.1044   77.6650  222.2955 H   0  0  0  0  0  0  0  0  0  0  0  0
  139.0544   75.1869  222.3346 H   0  0  0  0  0  0  0  0  0  0  0  0
  138.8279   75.6346  220.6442 H   0  0  0  0  0  0  0  0  0  0  0  0
  139.9691   69.5298  219.5984 H   0  0  0  0  0  0  0  0  0  0  0  0
  140.3894   70.0481  217.8983 H   0  0  0  0  0  0  0  0  0  0  0  0
  140.9666   67.6107  219.2776 H   0  0  0  0  0  0  0  0  0  0  0  0
  141.2196   68.1194  217.5329 H   0  0  0  0  0  0  0  0  0  0  0  0
  142.9038   66.1955  218.8166 H   0  0  0  0  0  0  0  0  0  0  0  0
  145.3553   65.9969  219.1186 H   0  0  0  0  0  0  0  0  0  0  0  0
  146.7105   68.0768  219.2450 H   0  0  0  0  0  0  0  0  0  0  0  0
  145.6447   70.3134  219.0754 H   0  0  0  0  0  0  0  0  0  0  0  0
  143.5980   71.5626  219.2594 H   0  0  0  0  0  0  0  0  0  0  0  0
  142.8975   71.1145  217.6913 H   0  0  0  0  0  0  0  0  0  0  0  0
  138.4526   70.4520  224.2915 H   0  0  0  0  0  0  0  0  0  0  0  0
  139.3019   69.5866  222.9890 H   0  0  0  0  0  0  0  0  0  0  0  0
  139.1975   68.1255  224.9926 H   0  0  0  0  0  0  0  0  0  0  0  0
  140.8803   68.5972  224.7618 H   0  0  0  0  0  0  0  0  0  0  0  0
  138.7032   68.1731  227.3520 H   0  0  0  0  0  0  0  0  0  0  0  0
  138.7126   69.4414  229.4771 H   0  0  0  0  0  0  0  0  0  0  0  0
  139.8412   71.6653  229.6536 H   0  0  0  0  0  0  0  0  0  0  0  0
  140.9680   72.5809  227.6143 H   0  0  0  0  0  0  0  0  0  0  0  0
  141.1708   72.5708  225.2230 H   0  0  0  0  0  0  0  0  0  0  0  0
  142.1769   71.0822  225.1055 H   0  0  0  0  0  0  0  0  0  0  0  0
  142.5990   75.9842  221.5063 H   0  0  0  0  0  0  0  0  0  0  0  0
  142.4156   75.1308  219.8976 H   0  0  0  0  0  0  0  0  0  0  0  0
  142.4286   77.7226  220.0982 H   0  0  0  0  0  0  0  0  0  0  0  0
  141.3235   76.7719  218.9595 H   0  0  0  0  0  0  0  0  0  0  0  0
  1  2  1  0
  2  3  2  0
  2  4  1  0
  4  5  1  0
  5  6  1  0
  6  7  1  0
  7  8  1  0
  8  9  1  0
  9 10  2  0
 10 11  1  0
 11 12  1  0
 12 13  1  0
 13 14  1  0
 14 15  1  0
 15 16  2  0
 16 17  1  0
 17 18  2  0
 18 19  1  0
 19 20  2  0
 20 21  1  0
 11 22  2  0
 22 23  1  0
 23 24  1  0
 24 25  1  0
 25 26  1  0
 26 27  1  0
 27 28  2  0
 28 29  1  0
 29 30  2  0
 30 31  1  0
 31 32  2  0
 32 33  1  0
 23 34  2  0
  8 35  1  0
 35 36  1  0
 36  5  1  0
 34  9  1  0
 21 12  1  0
 33 24  1  0
 20 15  1  0
 32 27  1  0
  1 37  1  0
  1 38  1  0
  4 39  1  0
  4 40  1  0
  5 41  1  0
  6 42  1  0
  6 43  1  0
  7 44  1  0
  7 45  1  0
 13 46  1  0
 13 47  1  0
 14 48  1  0
 14 49  1  0
 16 50  1  0
 17 51  1  0
 18 52  1  0
 19 53  1  0
 21 54  1  0
 21 55  1  0
 25 56  1  0
 25 57  1  0
 26 58  1  0
 26 59  1  0
 28 60  1  0
 29 61  1  0
 30 62  1  0
 31 63  1  0
 33 64  1  0
 33 65  1  0
 35 66  1  0
 35 67  1  0
 36 68  1  0
 36 69  1  0
M  END
>  <smiles>  (33) 
NC(=O)CC1CCN(c2nc(N3CCc4ccccc4C3)nc(N3CCc4ccccc4C3)n2)CC1

>  <score_type>  (33) 
oracle

>  <origin>  (33) 
autodockgpu

>  <m_score__min__energy>  (33) 
-9.3499999999999996

>  <m_primary>  (33) 
energy

>  <rmsd>  (33) 
3.633312225592118

>  <m_score__min__rmsd>  (33) 
3.633312225592118

>  <meeko>  (33) 
{"free_energy": -8.93, "intermolecular_energy": -10.42, "internal_energy": -1.18, "cluster_size": 15, "cluster_id": 2, "rank_in_cluster": 9}

>  <energy>  (33) 
-9.17

>  <cluster_rmsd>  (33) 
0.33

>  <cluster>  (33) 
2

$$$$

     RDKit          3D

 69 74  0  0  0  0  0  0  0  0999 V2000
  140.1840   67.4820  226.8640 N   0  0  0  0  0  0  0  0  0  0  0  0
  139.3970   68.6330  227.1070 C   0  0  0  0  0  0  0  0  0  0  0  0
  139.4030   69.1830  228.2610 O   0  0  0  0  0  0  0  0  0  0  0  0
  138.5480   69.2520  226.0760 C   0  0  0  0  0  0  0  0  0  0  0  0
  139.3120   69.7420  224.8680 C   0  0  0  0  0  0  0  0  0  0  0  0
  140.1830   70.8840  225.3510 C   0  0  0  0  0  0  0  0  0  0  0  0
  141.0830   71.2340  224.1610 C   0  0  0  0  0  0  0  0  0  0  0  0
  140.1960   71.8440  223.1900 N   0  0  0  0  0  0  0  0  0  0  0  0
  140.7460   72.7750  222.2650 C   0  0  0  0  0  0  0  0  0  0  0  0
  140.3160   74.0500  222.2760 N   0  0  0  0  0  0  0  0  0  0  0  0
  140.8180   74.9510  221.4140 C   0  0  0  0  0  0  0  0  0  0  0  0
  140.3530   76.2950  221.4390 N   0  0  0  0  0  0  0  0  0  0  0  0
  140.1060   77.0010  220.1880 C   0  0  0  0  0  0  0  0  0  0  0  0
  140.6480   78.3910  220.1730 C   0  0  0  0  0  0  0  0  0  0  0  0
  141.2190   78.8400  221.4610 C   0  0  0  0  0  0  0  0  0  0  0  0
  142.0270   79.9540  221.4750 C   0  0  0  0  0  0  0  0  0  0  0  0
  142.6060   80.4530  222.6270 C   0  0  0  0  0  0  0  0  0  0  0  0
  142.3500   79.7850  223.8100 C   0  0  0  0  0  0  0  0  0  0  0  0
  141.5480   78.6610  223.8590 C   0  0  0  0  0  0  0  0  0  0  0  0
  140.9950   78.2110  222.6660 C   0  0  0  0  0  0  0  0  0  0  0  0
  140.1180   76.9890  222.6860 C   0  0  0  0  0  0  0  0  0  0  0  0
  141.7550   74.5680  220.5360 N   0  0  0  0  0  0  0  0  0  0  0  0
  142.2160   73.2880  220.4940 C   0  0  0  0  0  0  0  0  0  0  0  0
  143.2010   72.9480  219.5500 N   0  0  0  0  0  0  0  0  0  0  0  0
  143.0870   73.5180  218.2160 C   0  0  0  0  0  0  0  0  0  0  0  0
  144.5000   73.7800  217.7190 C   0  0  0  0  0  0  0  0  0  0  0  0
  145.1130   72.4240  217.5850 C   0  0  0  0  0  0  0  0  0  0  0  0
  145.7620   72.0190  216.4360 C   0  0  0  0  0  0  0  0  0  0  0  0
  146.3000   70.7480  216.3970 C   0  0  0  0  0  0  0  0  0  0  0  0
  146.2080   69.8690  217.4740 C   0  0  0  0  0  0  0  0  0  0  0  0
  145.5400   70.3300  218.6110 C   0  0  0  0  0  0  0  0  0  0  0  0
  144.9940   71.5900  218.6810 C   0  0  0  0  0  0  0  0  0  0  0  0
  144.2820   72.0610  219.9120 C   0  0  0  0  0  0  0  0  0  0  0  0
  141.6890   72.4170  221.3730 N   0  0  0  0  0  0  0  0  0  0  0  0
  138.7840   71.5210  223.1530 C   0  0  0  0  0  0  0  0  0  0  0  0
  138.4510   70.1980  223.7440 C   0  0  0  0  0  0  0  0  0  0  0  0
  140.8370   67.4320  226.0550 H   0  0  0  0  0  0  0  0  0  0  0  0
  140.0790   66.6870  227.5320 H   0  0  0  0  0  0  0  0  0  0  0  0
  137.8109   68.5073  225.7412 H   0  0  0  0  0  0  0  0  0  0  0  0
  138.0779   70.1336  226.5361 H   0  0  0  0  0  0  0  0  0  0  0  0
  139.8924   68.9038  224.4550 H   0  0  0  0  0  0  0  0  0  0  0  0
  139.5641   71.7482  225.6339 H   0  0  0  0  0  0  0  0  0  0  0  0
  140.7673   70.6075  226.2410 H   0  0  0  0  0  0  0  0  0  0  0  0
  141.8691   71.9408  224.4649 H   0  0  0  0  0  0  0  0  0  0  0  0
  141.5961   70.3496  223.7553 H   0  0  0  0  0  0  0  0  0  0  0  0
  140.5758   76.4351  219.3700 H   0  0  0  0  0  0  0  0  0  0  0  0
  139.0151   77.0774  220.0691 H   0  0  0  0  0  0  0  0  0  0  0  0
  141.4384   78.4434  219.4098 H   0  0  0  0  0  0  0  0  0  0  0  0
  139.7984   79.0560  219.9584 H   0  0  0  0  0  0  0  0  0  0  0  0
  142.2214   80.4721  220.5243 H   0  0  0  0  0  0  0  0  0  0  0  0
  143.2459   81.3474  222.6032 H   0  0  0  0  0  0  0  0  0  0  0  0
  142.7989   80.1601  224.7415 H   0  0  0  0  0  0  0  0  0  0  0  0
  141.3541   78.1407  224.8086 H   0  0  0  0  0  0  0  0  0  0  0  0
  140.3844   76.3438  223.5361 H   0  0  0  0  0  0  0  0  0  0  0  0
  139.0580   77.2616  222.7961 H   0  0  0  0  0  0  0  0  0  0  0  0
  142.5765   72.8107  217.5459 H   0  0  0  0  0  0  0  0  0  0  0  0
  142.5007   74.4485  218.2368 H   0  0  0  0  0  0  0  0  0  0  0  0
  144.4800   74.2944  216.7469 H   0  0  0  0  0  0  0  0  0  0  0  0
  145.0682   74.4276  218.4029 H   0  0  0  0  0  0  0  0  0  0  0  0
  145.8486   72.6934  215.5713 H   0  0  0  0  0  0  0  0  0  0  0  0
  146.8188   70.4183  215.4848 H   0  0  0  0  0  0  0  0  0  0  0  0
  146.6413   68.8588  217.4310 H   0  0  0  0  0  0  0  0  0  0  0  0
  145.4476   69.6621  219.4801 H   0  0  0  0  0  0  0  0  0  0  0  0
  143.8755   71.1931  220.4520 H   0  0  0  0  0  0  0  0  0  0  0  0
  144.9923   72.6018  220.5547 H   0  0  0  0  0  0  0  0  0  0  0  0
  138.2371   72.2962  223.7098 H   0  0  0  0  0  0  0  0  0  0  0  0
  138.4949   71.4779  222.0925 H   0  0  0  0  0  0  0  0  0  0  0  0
  137.4160   70.2470  224.1134 H   0  0  0  0  0  0  0  0  0  0  0  0
  138.6116   69.4679  222.9371 H   0  0  0  0  0  0  0  0  0  0  0  0
  1  2  1  0
  2  3  2  0
  2  4  1  0
  4  5  1  0
  5  6  1  0
  6  7  1  0
  7  8  1  0
  8  9  1  0
  9 10  2  0
 10 11  1  0
 11 12  1  0
 12 13  1  0
 13 14  1  0
 14 15  1  0
 15 16  2  0
 16 17  1  0
 17 18  2  0
 18 19  1  0
 19 20  2  0
 20 21  1  0
 11 22  2  0
 22 23  1  0
 23 24  1  0
 24 25  1  0
 25 26  1  0
 26 27  1  0
 27 28  2  0
 28 29  1  0
 29 30  2  0
 30 31  1  0
 31 32  2  0
 32 33  1  0
 23 34  2  0
  8 35  1  0
 35 36  1  0
 36  5  1  0
 34  9  1  0
 21 12  1  0
 33 24  1  0
 20 15  1  0
 32 27  1  0
  1 37  1  0
  1 38  1  0
  4 39  1  0
  4 40  1  0
  5 41  1  0
  6 42  1  0
  6 43  1  0
  7 44  1  0
  7 45  1  0
 13 46  1  0
 13 47  1  0
 14 48  1  0
 14 49  1  0
 16 50  1  0
 17 51  1  0
 18 52  1  0
 19 53  1  0
 21 54  1  0
 21 55  1  0
 25 56  1  0
 25 57  1  0
 26 58  1  0
 26 59  1  0
 28 60  1  0
 29 61  1  0
 30 62  1  0
 31 63  1  0
 33 64  1  0
 33 65  1  0
 35 66  1  0
 35 67  1  0
 36 68  1  0
 36 69  1  0
M  END
>  <smiles>  (34) 
NC(=O)CC1CCN(c2nc(N3CCc4ccccc4C3)nc(N3CCc4ccccc4C3)n2)CC1

>  <score_type>  (34) 
oracle

>  <origin>  (34) 
autodockgpu

>  <m_score__min__energy>  (34) 
-9.3499999999999996

>  <m_primary>  (34) 
energy

>  <rmsd>  (34) 
8.833225059208376

>  <m_score__min__rmsd>  (34) 
8.833225059208376

>  <meeko>  (34) 
{"free_energy": -8.82, "intermolecular_energy": -10.31, "internal_energy": -1.12, "cluster_size": 28, "cluster_id": 1, "rank_in_cluster": 21}

>  <energy>  (34) 
-9.16

>  <cluster_rmsd>  (34) 
0.62

>  <cluster>  (34) 
2

$$$$

     RDKit          3D

 69 74  0  0  0  0  0  0  0  0999 V2000
  145.8710   66.9630  216.5950 N   0  0  0  0  0  0  0  0  0  0  0  0
  146.0390   67.7850  217.7350 C   0  0  0  0  0  0  0  0  0  0  0  0
  146.3590   67.2670  218.8580 O   0  0  0  0  0  0  0  0  0  0  0  0
  145.8600   69.2460  217.6990 C   0  0  0  0  0  0  0  0  0  0  0  0
  145.1020   69.7980  218.8850 C   0  0  0  0  0  0  0  0  0  0  0  0
  143.6510   69.8850  218.4580 C   0  0  0  0  0  0  0  0  0  0  0  0
  142.8800   70.2610  219.7280 C   0  0  0  0  0  0  0  0  0  0  0  0
  143.2580   71.6340  220.0000 N   0  0  0  0  0  0  0  0  0  0  0  0
  142.3430   72.4570  220.7130 C   0  0  0  0  0  0  0  0  0  0  0  0
  141.4070   71.8840  221.4930 N   0  0  0  0  0  0  0  0  0  0  0  0
  140.5290   72.6360  222.1780 C   0  0  0  0  0  0  0  0  0  0  0  0
  139.5480   72.0150  222.9970 N   0  0  0  0  0  0  0  0  0  0  0  0
  139.9250   71.4700  224.2960 C   0  0  0  0  0  0  0  0  0  0  0  0
  139.3560   70.1150  224.5600 C   0  0  0  0  0  0  0  0  0  0  0  0
  138.4210   69.6310  223.5230 C   0  0  0  0  0  0  0  0  0  0  0  0
  138.0990   68.2930  223.4940 C   0  0  0  0  0  0  0  0  0  0  0  0
  137.2340   67.7440  222.5650 C   0  0  0  0  0  0  0  0  0  0  0  0
  136.6780   68.5960  221.6300 C   0  0  0  0  0  0  0  0  0  0  0  0
  136.9620   69.9480  221.6090 C   0  0  0  0  0  0  0  0  0  0  0  0
  137.8390   70.4380  222.5710 C   0  0  0  0  0  0  0  0  0  0  0  0
  138.1690   71.9060  222.5730 C   0  0  0  0  0  0  0  0  0  0  0  0
  140.5920   73.9710  222.0790 N   0  0  0  0  0  0  0  0  0  0  0  0
  141.5230   74.5880  221.3020 C   0  0  0  0  0  0  0  0  0  0  0  0
  141.5380   75.9930  221.2390 N   0  0  0  0  0  0  0  0  0  0  0  0
  142.1700   76.6140  220.0850 C   0  0  0  0  0  0  0  0  0  0  0  0
  141.3760   77.8690  219.7600 C   0  0  0  0  0  0  0  0  0  0  0  0
  141.5870   78.7670  220.9340 C   0  0  0  0  0  0  0  0  0  0  0  0
  141.9820   80.0820  220.7940 C   0  0  0  0  0  0  0  0  0  0  0  0
  142.1540   80.8430  221.9330 C   0  0  0  0  0  0  0  0  0  0  0  0
  141.9440   80.3260  223.2100 C   0  0  0  0  0  0  0  0  0  0  0  0
  141.5460   78.9900  223.2940 C   0  0  0  0  0  0  0  0  0  0  0  0
  141.3650   78.2070  222.1780 C   0  0  0  0  0  0  0  0  0  0  0  0
  140.9380   76.7760  222.2940 C   0  0  0  0  0  0  0  0  0  0  0  0
  142.3830   73.8000  220.6320 N   0  0  0  0  0  0  0  0  0  0  0  0
  144.5330   72.1650  219.5610 C   0  0  0  0  0  0  0  0  0  0  0  0
  145.5770   71.1300  219.3470 C   0  0  0  0  0  0  0  0  0  0  0  0
  146.3590   67.1700  215.6990 H   0  0  0  0  0  0  0  0  0  0  0  0
  145.2360   66.1400  216.6950 H   0  0  0  0  0  0  0  0  0  0  0  0
  146.8540   69.7165  217.6733 H   0  0  0  0  0  0  0  0  0  0  0  0
  145.2629   69.4733  216.8036 H   0  0  0  0  0  0  0  0  0  0  0  0
  145.2580   69.1296  219.7446 H   0  0  0  0  0  0  0  0  0  0  0  0
  143.5219   70.6574  217.6855 H   0  0  0  0  0  0  0  0  0  0  0  0
  143.2928   68.9397  218.0244 H   0  0  0  0  0  0  0  0  0  0  0  0
  141.7957   70.1840  219.5597 H   0  0  0  0  0  0  0  0  0  0  0  0
  143.1151   69.5920  220.5689 H   0  0  0  0  0  0  0  0  0  0  0  0
  141.0220   71.4019  224.3402 H   0  0  0  0  0  0  0  0  0  0  0  0
  139.5185   72.1470  225.0618 H   0  0  0  0  0  0  0  0  0  0  0  0
  140.1892   69.4004  224.6321 H   0  0  0  0  0  0  0  0  0  0  0  0
  138.7765   70.1948  225.4915 H   0  0  0  0  0  0  0  0  0  0  0  0
  138.5511   67.6289  224.2454 H   0  0  0  0  0  0  0  0  0  0  0  0
  136.9976   66.6697  222.5702 H   0  0  0  0  0  0  0  0  0  0  0  0
  135.9876   68.1850  220.8788 H   0  0  0  0  0  0  0  0  0  0  0  0
  136.5106   70.6132  220.8582 H   0  0  0  0  0  0  0  0  0  0  0  0
  138.0475   72.3245  221.5630 H   0  0  0  0  0  0  0  0  0  0  0  0
  137.5003   72.4638  223.2451 H   0  0  0  0  0  0  0  0  0  0  0  0
  143.2114   76.8774  220.3218 H   0  0  0  0  0  0  0  0  0  0  0  0
  142.1807   75.9252  219.2274 H   0  0  0  0  0  0  0  0  0  0  0  0
  141.7531   78.3389  218.8397 H   0  0  0  0  0  0  0  0  0  0  0  0
  140.3112   77.6541  219.5870 H   0  0  0  0  0  0  0  0  0  0  0  0
  142.1558   80.5140  219.7974 H   0  0  0  0  0  0  0  0  0  0  0  0
  142.4672   81.8923  221.8291 H   0  0  0  0  0  0  0  0  0  0  0  0
  142.0852   80.9419  224.1104 H   0  0  0  0  0  0  0  0  0  0  0  0
  141.3714   78.5490  224.2865 H   0  0  0  0  0  0  0  0  0  0  0  0
  141.2573   76.3787  223.2688 H   0  0  0  0  0  0  0  0  0  0  0  0
  139.8429   76.7184  222.2075 H   0  0  0  0  0  0  0  0  0  0  0  0
  144.3768   72.7001  218.6127 H   0  0  0  0  0  0  0  0  0  0  0  0
  144.8971   72.8232  220.3637 H   0  0  0  0  0  0  0  0  0  0  0  0
  146.2802   71.5145  218.5936 H   0  0  0  0  0  0  0  0  0  0  0  0
  146.0222   70.9544  220.3374 H   0  0  0  0  0  0  0  0  0  0  0  0
  1  2  1  0
  2  3  2  0
  2  4  1  0
  4  5  1  0
  5  6  1  0
  6  7  1  0
  7  8  1  0
  8  9  1  0
  9 10  2  0
 10 11  1  0
 11 12  1  0
 12 13  1  0
 13 14  1  0
 14 15  1  0
 15 16  2  0
 16 17  1  0
 17 18  2  0
 18 19  1  0
 19 20  2  0
 20 21  1  0
 11 22  2  0
 22 23  1  0
 23 24  1  0
 24 25  1  0
 25 26  1  0
 26 27  1  0
 27 28  2  0
 28 29  1  0
 29 30  2  0
 30 31  1  0
 31 32  2  0
 32 33  1  0
 23 34  2  0
  8 35  1  0
 35 36  1  0
 36  5  1  0
 34  9  1  0
 21 12  1  0
 33 24  1  0
 20 15  1  0
 32 27  1  0
  1 37  1  0
  1 38  1  0
  4 39  1  0
  4 40  1  0
  5 41  1  0
  6 42  1  0
  6 43  1  0
  7 44  1  0
  7 45  1  0
 13 46  1  0
 13 47  1  0
 14 48  1  0
 14 49  1  0
 16 50  1  0
 17 51  1  0
 18 52  1  0
 19 53  1  0
 21 54  1  0
 21 55  1  0
 25 56  1  0
 25 57  1  0
 26 58  1  0
 26 59  1  0
 28 60  1  0
 29 61  1  0
 30 62  1  0
 31 63  1  0
 33 64  1  0
 33 65  1  0
 35 66  1  0
 35 67  1  0
 36 68  1  0
 36 69  1  0
M  END
>  <smiles>  (35) 
NC(=O)CC1CCN(c2nc(N3CCc4ccccc4C3)nc(N3CCc4ccccc4C3)n2)CC1

>  <score_type>  (35) 
oracle

>  <origin>  (35) 
autodockgpu

>  <m_score__min__energy>  (35) 
-9.3499999999999996

>  <m_primary>  (35) 
energy

>  <rmsd>  (35) 
8.982949818779014

>  <m_score__min__rmsd>  (35) 
8.982949818779014

>  <meeko>  (35) 
{"free_energy": -8.22, "intermolecular_energy": -9.71, "internal_energy": -1.15, "cluster_size": 3, "cluster_id": 5, "rank_in_cluster": 3}

>  <energy>  (35) 
-9.15

>  <cluster_rmsd>  (35) 
0.32

>  <cluster>  (35) 
2

$$$$

     RDKit          3D

 69 74  0  0  0  0  0  0  0  0999 V2000
  142.5810   79.1770  222.1730 N   0  0  0  0  0  0  0  0  0  0  0  0
  141.1910   79.4100  222.0430 C   0  0  0  0  0  0  0  0  0  0  0  0
  140.5250   79.8840  223.0260 O   0  0  0  0  0  0  0  0  0  0  0  0
  140.4470   79.1300  220.8050 C   0  0  0  0  0  0  0  0  0  0  0  0
  140.2880   77.6560  220.5080 C   0  0  0  0  0  0  0  0  0  0  0  0
  139.6060   77.0500  221.7170 C   0  0  0  0  0  0  0  0  0  0  0  0
  139.2840   75.6070  221.3160 C   0  0  0  0  0  0  0  0  0  0  0  0
  140.5710   74.9410  221.2570 N   0  0  0  0  0  0  0  0  0  0  0  0
  140.6150   73.5370  221.4850 C   0  0  0  0  0  0  0  0  0  0  0  0
  140.8350   72.7060  220.4490 N   0  0  0  0  0  0  0  0  0  0  0  0
  140.8820   71.3760  220.6340 C   0  0  0  0  0  0  0  0  0  0  0  0
  141.1150   70.5120  219.5300 N   0  0  0  0  0  0  0  0  0  0  0  0
  140.1060   69.5300  219.1500 C   0  0  0  0  0  0  0  0  0  0  0  0
  140.6700   68.1790  218.8640 C   0  0  0  0  0  0  0  0  0  0  0  0
  142.1460   68.1110  218.8930 C   0  0  0  0  0  0  0  0  0  0  0  0
  142.7520   66.8780  218.9700 C   0  0  0  0  0  0  0  0  0  0  0  0
  144.1250   66.7110  219.0020 C   0  0  0  0  0  0  0  0  0  0  0  0
  144.9070   67.8500  218.9550 C   0  0  0  0  0  0  0  0  0  0  0  0
  144.3570   69.1140  218.8770 C   0  0  0  0  0  0  0  0  0  0  0  0
  142.9700   69.2140  218.8480 C   0  0  0  0  0  0  0  0  0  0  0  0
  142.3410   70.5780  218.7650 C   0  0  0  0  0  0  0  0  0  0  0  0
  140.7060   70.8780  221.8660 N   0  0  0  0  0  0  0  0  0  0  0  0
  140.4810   71.6860  222.9390 C   0  0  0  0  0  0  0  0  0  0  0  0
  140.3040   71.1030  224.2070 N   0  0  0  0  0  0  0  0  0  0  0  0
  141.1620   71.5610  225.2890 C   0  0  0  0  0  0  0  0  0  0  0  0
  140.3280   71.5400  226.5610 C   0  0  0  0  0  0  0  0  0  0  0  0
  140.0300   70.0950  226.7950 C   0  0  0  0  0  0  0  0  0  0  0  0
  140.2470   69.4870  228.0150 C   0  0  0  0  0  0  0  0  0  0  0  0
  139.9440   68.1460  228.1450 C   0  0  0  0  0  0  0  0  0  0  0  0
  139.4300   67.3950  227.0900 C   0  0  0  0  0  0  0  0  0  0  0  0
  139.2300   68.0610  225.8780 C   0  0  0  0  0  0  0  0  0  0  0  0
  139.5210   69.3950  225.7180 C   0  0  0  0  0  0  0  0  0  0  0  0
  139.2990   70.0870  224.4070 C   0  0  0  0  0  0  0  0  0  0  0  0
  140.4420   73.0110  222.7120 N   0  0  0  0  0  0  0  0  0  0  0  0
  141.7870   75.6770  220.9750 C   0  0  0  0  0  0  0  0  0  0  0  0
  141.5670   76.9470  220.2360 C   0  0  0  0  0  0  0  0  0  0  0  0
  143.2620   79.5510  221.4800 H   0  0  0  0  0  0  0  0  0  0  0  0
  142.8910   78.6130  222.9950 H   0  0  0  0  0  0  0  0  0  0  0  0
  139.4453   79.5757  220.8941 H   0  0  0  0  0  0  0  0  0  0  0  0
  141.0285   79.5624  219.9774 H   0  0  0  0  0  0  0  0  0  0  0  0
  139.7020   77.5443  219.5838 H   0  0  0  0  0  0  0  0  0  0  0  0
  140.2778   77.0675  222.5878 H   0  0  0  0  0  0  0  0  0  0  0  0
  138.7023   77.6087  222.0020 H   0  0  0  0  0  0  0  0  0  0  0  0
  138.6362   75.1317  222.0673 H   0  0  0  0  0  0  0  0  0  0  0  0
  138.7453   75.5533  220.3585 H   0  0  0  0  0  0  0  0  0  0  0  0
  139.3819   69.4381  219.9730 H   0  0  0  0  0  0  0  0  0  0  0  0
  139.6381   69.8890  218.2215 H   0  0  0  0  0  0  0  0  0  0  0  0
  140.2792   67.4776  219.6159 H   0  0  0  0  0  0  0  0  0  0  0  0
  140.3658   67.9244  217.8380 H   0  0  0  0  0  0  0  0  0  0  0  0
  142.1144   65.9824  219.0079 H   0  0  0  0  0  0  0  0  0  0  0  0
  144.5772   65.7101  219.0625 H   0  0  0  0  0  0  0  0  0  0  0  0
  146.0018   67.7460  218.9806 H   0  0  0  0  0  0  0  0  0  0  0  0
  144.9934   70.0104  218.8391 H   0  0  0  0  0  0  0  0  0  0  0  0
  143.0156   71.3343  219.1927 H   0  0  0  0  0  0  0  0  0  0  0  0
  142.1436   70.8622  217.7208 H   0  0  0  0  0  0  0  0  0  0  0  0
  142.0273   70.8901  225.3941 H   0  0  0  0  0  0  0  0  0  0  0  0
  141.5410   72.5735  225.0861 H   0  0  0  0  0  0  0  0  0  0  0  0
  140.8957   71.9605  227.4041 H   0  0  0  0  0  0  0  0  0  0  0  0
  139.4133   72.1441  226.4691 H   0  0  0  0  0  0  0  0  0  0  0  0
  140.6519   70.0574  228.8640 H   0  0  0  0  0  0  0  0  0  0  0  0
  140.1142   67.6542  229.1141 H   0  0  0  0  0  0  0  0  0  0  0  0
  139.1926   66.3272  227.2058 H   0  0  0  0  0  0  0  0  0  0  0  0
  138.8261   67.4989  225.0231 H   0  0  0  0  0  0  0  0  0  0  0  0
  139.3587   69.3506  223.5920 H   0  0  0  0  0  0  0  0  0  0  0  0
  138.3054   70.5590  224.4124 H   0  0  0  0  0  0  0  0  0  0  0  0
  142.2777   75.9134  221.9307 H   0  0  0  0  0  0  0  0  0  0  0  0
  142.4046   75.0357  220.3290 H   0  0  0  0  0  0  0  0  0  0  0  0
  142.3899   77.6305  220.4923 H   0  0  0  0  0  0  0  0  0  0  0  0
  141.5248   76.6641  219.1738 H   0  0  0  0  0  0  0  0  0  0  0  0
  1  2  1  0
  2  3  2  0
  2  4  1  0
  4  5  1  0
  5  6  1  0
  6  7  1  0
  7  8  1  0
  8  9  1  0
  9 10  2  0
 10 11  1  0
 11 12  1  0
 12 13  1  0
 13 14  1  0
 14 15  1  0
 15 16  2  0
 16 17  1  0
 17 18  2  0
 18 19  1  0
 19 20  2  0
 20 21  1  0
 11 22  2  0
 22 23  1  0
 23 24  1  0
 24 25  1  0
 25 26  1  0
 26 27  1  0
 27 28  2  0
 28 29  1  0
 29 30  2  0
 30 31  1  0
 31 32  2  0
 32 33  1  0
 23 34  2  0
  8 35  1  0
 35 36  1  0
 36  5  1  0
 34  9  1  0
 21 12  1  0
 33 24  1  0
 20 15  1  0
 32 27  1  0
  1 37  1  0
  1 38  1  0
  4 39  1  0
  4 40  1  0
  5 41  1  0
  6 42  1  0
  6 43  1  0
  7 44  1  0
  7 45  1  0
 13 46  1  0
 13 47  1  0
 14 48  1  0
 14 49  1  0
 16 50  1  0
 17 51  1  0
 18 52  1  0
 19 53  1  0
 21 54  1  0
 21 55  1  0
 25 56  1  0
 25 57  1  0
 26 58  1  0
 26 59  1  0
 28 60  1  0
 29 61  1  0
 30 62  1  0
 31 63  1  0
 33 64  1  0
 33 65  1  0
 35 66  1  0
 35 67  1  0
 36 68  1  0
 36 69  1  0
M  END
>  <smiles>  (36) 
NC(=O)CC1CCN(c2nc(N3CCc4ccccc4C3)nc(N3CCc4ccccc4C3)n2)CC1

>  <score_type>  (36) 
oracle

>  <origin>  (36) 
autodockgpu

>  <m_score__min__energy>  (36) 
-9.3499999999999996

>  <m_primary>  (36) 
energy

>  <rmsd>  (36) 
3.5498523910390745

>  <m_score__min__rmsd>  (36) 
3.5498523910390745

>  <meeko>  (36) 
{"free_energy": -8.86, "intermolecular_energy": -10.35, "internal_energy": -1.17, "cluster_size": 15, "cluster_id": 2, "rank_in_cluster": 10}

>  <energy>  (36) 
-9.15

>  <cluster_rmsd>  (36) 
0.62

>  <cluster>  (36) 
2

$$$$

     RDKit          3D

 69 74  0  0  0  0  0  0  0  0999 V2000
  147.2800   74.8620  215.5860 N   0  0  0  0  0  0  0  0  0  0  0  0
  147.2560   73.4580  215.7670 C   0  0  0  0  0  0  0  0  0  0  0  0
  148.2820   72.7560  215.4740 O   0  0  0  0  0  0  0  0  0  0  0  0
  146.0820   72.7400  216.2900 C   0  0  0  0  0  0  0  0  0  0  0  0
  145.2810   73.5320  217.2990 C   0  0  0  0  0  0  0  0  0  0  0  0
  145.1860   72.6670  218.5390 C   0  0  0  0  0  0  0  0  0  0  0  0
  144.5420   73.5610  219.6040 C   0  0  0  0  0  0  0  0  0  0  0  0
  143.1680   73.7240  219.1720 N   0  0  0  0  0  0  0  0  0  0  0  0
  142.1760   73.9830  220.1590 C   0  0  0  0  0  0  0  0  0  0  0  0
  141.7150   75.2370  220.3210 N   0  0  0  0  0  0  0  0  0  0  0  0
  140.7790   75.5110  221.2450 C   0  0  0  0  0  0  0  0  0  0  0  0
  140.3020   76.8410  221.4030 N   0  0  0  0  0  0  0  0  0  0  0  0
  139.9820   77.6410  220.2260 C   0  0  0  0  0  0  0  0  0  0  0  0
  140.5080   79.0360  220.2970 C   0  0  0  0  0  0  0  0  0  0  0  0
  141.1390   79.3890  221.5860 C   0  0  0  0  0  0  0  0  0  0  0  0
  141.9340   80.5110  221.6490 C   0  0  0  0  0  0  0  0  0  0  0  0
  142.5670   80.9240  222.8070 C   0  0  0  0  0  0  0  0  0  0  0  0
  142.3800   80.1600  223.9430 C   0  0  0  0  0  0  0  0  0  0  0  0
  141.5940   79.0240  223.9420 C   0  0  0  0  0  0  0  0  0  0  0  0
  140.9840   78.6620  222.7460 C   0  0  0  0  0  0  0  0  0  0  0  0
  140.1230   77.4290  222.7110 C   0  0  0  0  0  0  0  0  0  0  0  0
  140.3050   74.5190  222.0130 N   0  0  0  0  0  0  0  0  0  0  0  0
  140.7460   73.2380  221.8800 C   0  0  0  0  0  0  0  0  0  0  0  0
  140.2100   72.2420  222.7150 N   0  0  0  0  0  0  0  0  0  0  0  0
  138.7760   72.0060  222.6550 C   0  0  0  0  0  0  0  0  0  0  0  0
  138.5580   70.5150  222.8580 C   0  0  0  0  0  0  0  0  0  0  0  0
  139.0050   70.2520  224.2590 C   0  0  0  0  0  0  0  0  0  0  0  0
  138.2250   69.5630  225.1640 C   0  0  0  0  0  0  0  0  0  0  0  0
  138.7150   69.3650  226.4390 C   0  0  0  0  0  0  0  0  0  0  0  0
  139.9640   69.8380  226.8370 C   0  0  0  0  0  0  0  0  0  0  0  0
  140.7110   70.5300  225.8810 C   0  0  0  0  0  0  0  0  0  0  0  0
  140.2510   70.7420  224.6030 C   0  0  0  0  0  0  0  0  0  0  0  0
  141.0720   71.4880  223.5950 C   0  0  0  0  0  0  0  0  0  0  0  0
  141.6830   73.0060  220.9430 N   0  0  0  0  0  0  0  0  0  0  0  0
  142.8010   73.6280  217.7730 C   0  0  0  0  0  0  0  0  0  0  0  0
  143.9190   73.9110  216.8350 C   0  0  0  0  0  0  0  0  0  0  0  0
  147.0120   75.5130  216.3530 H   0  0  0  0  0  0  0  0  0  0  0  0
  147.5770   75.2120  214.6490 H   0  0  0  0  0  0  0  0  0  0  0  0
  145.4241   72.4893  215.4448 H   0  0  0  0  0  0  0  0  0  0  0  0
  146.4585   71.8469  216.8102 H   0  0  0  0  0  0  0  0  0  0  0  0
  145.7918   74.4889  217.4818 H   0  0  0  0  0  0  0  0  0  0  0  0
  144.5591   71.7839  218.3462 H   0  0  0  0  0  0  0  0  0  0  0  0
  146.1708   72.2936  218.8563 H   0  0  0  0  0  0  0  0  0  0  0  0
  144.5827   73.0777  220.5913 H   0  0  0  0  0  0  0  0  0  0  0  0
  145.0617   74.5252  219.7051 H   0  0  0  0  0  0  0  0  0  0  0  0
  140.4148   77.1496  219.3421 H   0  0  0  0  0  0  0  0  0  0  0  0
  138.8857   77.7097  220.1681 H   0  0  0  0  0  0  0  0  0  0  0  0
  141.2578   79.1612  219.5019 H   0  0  0  0  0  0  0  0  0  0  0  0
  139.6412   79.7031  220.1803 H   0  0  0  0  0  0  0  0  0  0  0  0
  142.0723   81.1072  220.7350 H   0  0  0  0  0  0  0  0  0  0  0  0
  143.1956   81.8266  222.8232 H   0  0  0  0  0  0  0  0  0  0  0  0
  142.8726   80.4660  224.8777 H   0  0  0  0  0  0  0  0  0  0  0  0
  141.4555   78.4267  224.8553 H   0  0  0  0  0  0  0  0  0  0  0  0
  140.4395   76.7221  223.4921 H   0  0  0  0  0  0  0  0  0  0  0  0
  139.0670   77.6757  222.8953 H   0  0  0  0  0  0  0  0  0  0  0  0
  138.2670   72.5730  223.4484 H   0  0  0  0  0  0  0  0  0  0  0  0
  138.3661   72.3329  221.6880 H   0  0  0  0  0  0  0  0  0  0  0  0
  137.4954   70.2584  222.7355 H   0  0  0  0  0  0  0  0  0  0  0  0
  139.1119   69.9104  222.1247 H   0  0  0  0  0  0  0  0  0  0  0  0
  137.2348   69.1800  224.8762 H   0  0  0  0  0  0  0  0  0  0  0  0
  138.0988   68.8152  227.1656 H   0  0  0  0  0  0  0  0  0  0  0  0
  140.3438   69.6740  227.8563 H   0  0  0  0  0  0  0  0  0  0  0  0
  141.7014   70.9187  226.1603 H   0  0  0  0  0  0  0  0  0  0  0  0
  141.7517   72.1773  224.1174 H   0  0  0  0  0  0  0  0  0  0  0  0
  141.6541   70.7686  223.0003 H   0  0  0  0  0  0  0  0  0  0  0  0
  142.4369   72.6081  217.5799 H   0  0  0  0  0  0  0  0  0  0  0  0
  142.0316   74.3931  217.5920 H   0  0  0  0  0  0  0  0  0  0  0  0
  143.7192   73.3652  215.9011 H   0  0  0  0  0  0  0  0  0  0  0  0
  143.9404   75.0054  216.7260 H   0  0  0  0  0  0  0  0  0  0  0  0
  1  2  1  0
  2  3  2  0
  2  4  1  0
  4  5  1  0
  5  6  1  0
  6  7  1  0
  7  8  1  0
  8  9  1  0
  9 10  2  0
 10 11  1  0
 11 12  1  0
 12 13  1  0
 13 14  1  0
 14 15  1  0
 15 16  2  0
 16 17  1  0
 17 18  2  0
 18 19  1  0
 19 20  2  0
 20 21  1  0
 11 22  2  0
 22 23  1  0
 23 24  1  0
 24 25  1  0
 25 26  1  0
 26 27  1  0
 27 28  2  0
 28 29  1  0
 29 30  2  0
 30 31  1  0
 31 32  2  0
 32 33  1  0
 23 34  2  0
  8 35  1  0
 35 36  1  0
 36  5  1  0
 34  9  1  0
 21 12  1  0
 33 24  1  0
 20 15  1  0
 32 27  1  0
  1 37  1  0
  1 38  1  0
  4 39  1  0
  4 40  1  0
  5 41  1  0
  6 42  1  0
  6 43  1  0
  7 44  1  0
  7 45  1  0
 13 46  1  0
 13 47  1  0
 14 48  1  0
 14 49  1  0
 16 50  1  0
 17 51  1  0
 18 52  1  0
 19 53  1  0
 21 54  1  0
 21 55  1  0
 25 56  1  0
 25 57  1  0
 26 58  1  0
 26 59  1  0
 28 60  1  0
 29 61  1  0
 30 62  1  0
 31 63  1  0
 33 64  1  0
 33 65  1  0
 35 66  1  0
 35 67  1  0
 36 68  1  0
 36 69  1  0
M  END
>  <smiles>  (37) 
NC(=O)CC1CCN(c2nc(N3CCc4ccccc4C3)nc(N3CCc4ccccc4C3)n2)CC1

>  <score_type>  (37) 
oracle

>  <origin>  (37) 
autodockgpu

>  <m_score__min__energy>  (37) 
-9.3499999999999996

>  <m_primary>  (37) 
energy

>  <rmsd>  (37) 
7.152310519119834

>  <m_score__min__rmsd>  (37) 
7.152310519119834

>  <meeko>  (37) 
{"free_energy": -8.73, "intermolecular_energy": -10.22, "internal_energy": -1.08, "cluster_size": 3, "cluster_id": 4, "rank_in_cluster": 1}

>  <energy>  (37) 
-8.93

>  <cluster_rmsd>  (37) 
0.73

>  <cluster>  (37) 
2

$$$$

     RDKit          3D

 69 74  0  0  0  0  0  0  0  0999 V2000
  140.4910   67.4970  226.4910 N   0  0  0  0  0  0  0  0  0  0  0  0
  139.5720   68.5540  226.6900 C   0  0  0  0  0  0  0  0  0  0  0  0
  139.6730   69.3080  227.7170 O   0  0  0  0  0  0  0  0  0  0  0  0
  138.4730   68.8440  225.7540 C   0  0  0  0  0  0  0  0  0  0  0  0
  138.6580   70.1260  224.9740 C   0  0  0  0  0  0  0  0  0  0  0  0
  138.9370   69.7150  223.5430 C   0  0  0  0  0  0  0  0  0  0  0  0
  138.9290   71.0210  222.7410 C   0  0  0  0  0  0  0  0  0  0  0  0
  140.1290   71.7210  223.1560 N   0  0  0  0  0  0  0  0  0  0  0  0
  140.7260   72.6360  222.2440 C   0  0  0  0  0  0  0  0  0  0  0  0
  140.3180   73.9180  222.2330 N   0  0  0  0  0  0  0  0  0  0  0  0
  140.8630   74.8060  221.3830 C   0  0  0  0  0  0  0  0  0  0  0  0
  140.4210   76.1560  221.3840 N   0  0  0  0  0  0  0  0  0  0  0  0
  140.2490   76.8650  220.1210 C   0  0  0  0  0  0  0  0  0  0  0  0
  140.8150   78.2460  220.1330 C   0  0  0  0  0  0  0  0  0  0  0  0
  141.3280   78.6870  221.4470 C   0  0  0  0  0  0  0  0  0  0  0  0
  142.1530   79.7870  221.5010 C   0  0  0  0  0  0  0  0  0  0  0  0
  142.6830   80.2770  222.6800 C   0  0  0  0  0  0  0  0  0  0  0  0
  142.3570   79.6160  223.8490 C   0  0  0  0  0  0  0  0  0  0  0  0
  141.5350   78.5060  223.8590 C   0  0  0  0  0  0  0  0  0  0  0  0
  141.0340   78.0640  222.6400 C   0  0  0  0  0  0  0  0  0  0  0  0
  140.1360   76.8560  222.6170 C   0  0  0  0  0  0  0  0  0  0  0  0
  141.8230   74.4010  220.5390 N   0  0  0  0  0  0  0  0  0  0  0  0
  142.2620   73.1130  220.5200 C   0  0  0  0  0  0  0  0  0  0  0  0
  143.2720   72.7490  219.6110 N   0  0  0  0  0  0  0  0  0  0  0  0
  143.2140   73.3140  218.2720 C   0  0  0  0  0  0  0  0  0  0  0  0
  144.6480   73.5480  217.8220 C   0  0  0  0  0  0  0  0  0  0  0  0
  145.2390   72.1800  217.7150 C   0  0  0  0  0  0  0  0  0  0  0  0
  145.9190   71.7570  216.5910 C   0  0  0  0  0  0  0  0  0  0  0  0
  146.4340   70.4770  216.5750 C   0  0  0  0  0  0  0  0  0  0  0  0
  146.2890   69.6040  217.6520 C   0  0  0  0  0  0  0  0  0  0  0  0
  145.5910   70.0840  218.7640 C   0  0  0  0  0  0  0  0  0  0  0  0
  145.0680   71.3540  218.8100 C   0  0  0  0  0  0  0  0  0  0  0  0
  144.3230   71.8440  220.0140 C   0  0  0  0  0  0  0  0  0  0  0  0
  141.6910   72.2560  221.3860 N   0  0  0  0  0  0  0  0  0  0  0  0
  140.7160   71.5000  224.4630 C   0  0  0  0  0  0  0  0  0  0  0  0
  139.7550   70.9950  225.4780 C   0  0  0  0  0  0  0  0  0  0  0  0
  141.0030   67.3840  225.5910 H   0  0  0  0  0  0  0  0  0  0  0  0
  140.6320   66.8360  227.2870 H   0  0  0  0  0  0  0  0  0  0  0  0
  138.3972   68.0112  225.0394 H   0  0  0  0  0  0  0  0  0  0  0  0
  137.5615   68.9650  226.3578 H   0  0  0  0  0  0  0  0  0  0  0  0
  137.7478   70.7352  225.0765 H   0  0  0  0  0  0  0  0  0  0  0  0
  139.9174   69.2219  223.4674 H   0  0  0  0  0  0  0  0  0  0  0  0
  138.1917   68.9979  223.1684 H   0  0  0  0  0  0  0  0  0  0  0  0
  138.9565   70.8123  221.6613 H   0  0  0  0  0  0  0  0  0  0  0  0
  138.0202   71.6133  222.9232 H   0  0  0  0  0  0  0  0  0  0  0  0
  140.7495   76.2902  219.3278 H   0  0  0  0  0  0  0  0  0  0  0  0
  139.1669   76.9597  219.9473 H   0  0  0  0  0  0  0  0  0  0  0  0
  141.6435   78.2840  219.4104 H   0  0  0  0  0  0  0  0  0  0  0  0
  139.9885   78.9249  219.8761 H   0  0  0  0  0  0  0  0  0  0  0  0
  142.4027   80.3010  220.5611 H   0  0  0  0  0  0  0  0  0  0  0  0
  143.3394   81.1597  222.6874 H   0  0  0  0  0  0  0  0  0  0  0  0
  142.7649   79.9854  224.8014 H   0  0  0  0  0  0  0  0  0  0  0  0
  141.2857   77.9902  224.7980 H   0  0  0  0  0  0  0  0  0  0  0  0
  140.3488   76.2078  223.4799 H   0  0  0  0  0  0  0  0  0  0  0  0
  139.0766   77.1467  222.6737 H   0  0  0  0  0  0  0  0  0  0  0  0
  142.7137   72.6127  217.5880 H   0  0  0  0  0  0  0  0  0  0  0  0
  142.6445   74.2551  218.2688 H   0  0  0  0  0  0  0  0  0  0  0  0
  144.6706   74.0578  216.8475 H   0  0  0  0  0  0  0  0  0  0  0  0
  145.2048   74.1887  218.5216 H   0  0  0  0  0  0  0  0  0  0  0  0
  146.0476   72.4255  215.7270 H   0  0  0  0  0  0  0  0  0  0  0  0
  146.9773   70.1339  215.6822 H   0  0  0  0  0  0  0  0  0  0  0  0
  146.7041   68.5856  217.6280 H   0  0  0  0  0  0  0  0  0  0  0  0
  145.4557   69.4223  219.6322 H   0  0  0  0  0  0  0  0  0  0  0  0
  143.8820   70.9864  220.5433 H   0  0  0  0  0  0  0  0  0  0  0  0
  145.0207   72.3745  220.6787 H   0  0  0  0  0  0  0  0  0  0  0  0
  141.5273   70.7646  224.3583 H   0  0  0  0  0  0  0  0  0  0  0  0
  141.0742   72.4765  224.8210 H   0  0  0  0  0  0  0  0  0  0  0  0
  140.3251   70.4177  226.2208 H   0  0  0  0  0  0  0  0  0  0  0  0
  139.2579   71.8897  225.8810 H   0  0  0  0  0  0  0  0  0  0  0  0
  1  2  1  0
  2  3  2  0
  2  4  1  0
  4  5  1  0
  5  6  1  0
  6  7  1  0
  7  8  1  0
  8  9  1  0
  9 10  2  0
 10 11  1  0
 11 12  1  0
 12 13  1  0
 13 14  1  0
 14 15  1  0
 15 16  2  0
 16 17  1  0
 17 18  2  0
 18 19  1  0
 19 20  2  0
 20 21  1  0
 11 22  2  0
 22 23  1  0
 23 24  1  0
 24 25  1  0
 25 26  1  0
 26 27  1  0
 27 28  2  0
 28 29  1  0
 29 30  2  0
 30 31  1  0
 31 32  2  0
 32 33  1  0
 23 34  2  0
  8 35  1  0
 35 36  1  0
 36  5  1  0
 34  9  1  0
 21 12  1  0
 33 24  1  0
 20 15  1  0
 32 27  1  0
  1 37  1  0
  1 38  1  0
  4 39  1  0
  4 40  1  0
  5 41  1  0
  6 42  1  0
  6 43  1  0
  7 44  1  0
  7 45  1  0
 13 46  1  0
 13 47  1  0
 14 48  1  0
 14 49  1  0
 16 50  1  0
 17 51  1  0
 18 52  1  0
 19 53  1  0
 21 54  1  0
 21 55  1  0
 25 56  1  0
 25 57  1  0
 26 58  1  0
 26 59  1  0
 28 60  1  0
 29 61  1  0
 30 62  1  0
 31 63  1  0
 33 64  1  0
 33 65  1  0
 35 66  1  0
 35 67  1  0
 36 68  1  0
 36 69  1  0
M  END
>  <smiles>  (38) 
NC(=O)CC1CCN(c2nc(N3CCc4ccccc4C3)nc(N3CCc4ccccc4C3)n2)CC1

>  <score_type>  (38) 
oracle

>  <origin>  (38) 
autodockgpu

>  <m_score__min__energy>  (38) 
-9.3499999999999996

>  <m_primary>  (38) 
energy

>  <rmsd>  (38) 
8.576223561316672

>  <m_score__min__rmsd>  (38) 
8.576223561316672

>  <meeko>  (38) 
{"free_energy": -9.09, "intermolecular_energy": -10.58, "internal_energy": -1.09, "cluster_size": 28, "cluster_id": 1, "rank_in_cluster": 9}

>  <energy>  (38) 
-8.86

>  <cluster_rmsd>  (38) 
0.68

>  <cluster>  (38) 
2

$$$$

     RDKit          3D

 69 74  0  0  0  0  0  0  0  0999 V2000
  141.0580   67.3890  227.3070 N   0  0  0  0  0  0  0  0  0  0  0  0
  139.8340   67.8760  226.7880 C   0  0  0  0  0  0  0  0  0  0  0  0
  139.2020   67.2090  225.9000 O   0  0  0  0  0  0  0  0  0  0  0  0
  139.2300   69.1450  227.2260 C   0  0  0  0  0  0  0  0  0  0  0  0
  139.4930   70.3020  226.2890 C   0  0  0  0  0  0  0  0  0  0  0  0
  138.9310   69.8940  224.9430 C   0  0  0  0  0  0  0  0  0  0  0  0
  139.0340   71.1470  224.0670 C   0  0  0  0  0  0  0  0  0  0  0  0
  140.4550   71.3180  223.8290 N   0  0  0  0  0  0  0  0  0  0  0  0
  140.8630   71.9880  222.6410 C   0  0  0  0  0  0  0  0  0  0  0  0
  141.2770   71.2670  221.5840 N   0  0  0  0  0  0  0  0  0  0  0  0
  141.6690   71.8720  220.4500 C   0  0  0  0  0  0  0  0  0  0  0  0
  142.1030   71.0950  219.3410 N   0  0  0  0  0  0  0  0  0  0  0  0
  141.1860   70.1510  218.7130 C   0  0  0  0  0  0  0  0  0  0  0  0
  141.8040   68.8230  218.4290 C   0  0  0  0  0  0  0  0  0  0  0  0
  143.2520   68.7460  218.7160 C   0  0  0  0  0  0  0  0  0  0  0  0
  143.8460   67.5080  218.8040 C   0  0  0  0  0  0  0  0  0  0  0  0
  145.1920   67.3320  219.0670 C   0  0  0  0  0  0  0  0  0  0  0  0
  145.9600   68.4670  219.2480 C   0  0  0  0  0  0  0  0  0  0  0  0
  145.4210   69.7370  219.1710 C   0  0  0  0  0  0  0  0  0  0  0  0
  144.0610   69.8460  218.9030 C   0  0  0  0  0  0  0  0  0  0  0  0
  143.4440   71.2150  218.8150 C   0  0  0  0  0  0  0  0  0  0  0  0
  141.6440   73.2110  220.3790 N   0  0  0  0  0  0  0  0  0  0  0  0
  141.2320   73.9750  221.4260 C   0  0  0  0  0  0  0  0  0  0  0  0
  141.2290   75.3750  221.2900 N   0  0  0  0  0  0  0  0  0  0  0  0
  141.8260   75.9410  220.0910 C   0  0  0  0  0  0  0  0  0  0  0  0
  141.0100   77.1700  219.7200 C   0  0  0  0  0  0  0  0  0  0  0  0
  141.2400   78.1300  220.8410 C   0  0  0  0  0  0  0  0  0  0  0  0
  141.6160   79.4400  220.6230 C   0  0  0  0  0  0  0  0  0  0  0  0
  141.8080   80.2600  221.7160 C   0  0  0  0  0  0  0  0  0  0  0  0
  141.6350   79.8090  223.0240 C   0  0  0  0  0  0  0  0  0  0  0  0
  141.2540   78.4750  223.1860 C   0  0  0  0  0  0  0  0  0  0  0  0
  141.0540   77.6330  222.1170 C   0  0  0  0  0  0  0  0  0  0  0  0
  140.6470   76.2060  222.3180 C   0  0  0  0  0  0  0  0  0  0  0  0
  140.8480   73.3310  222.5430 N   0  0  0  0  0  0  0  0  0  0  0  0
  141.4410   70.8230  224.7670 C   0  0  0  0  0  0  0  0  0  0  0  0
  140.9290   70.6640  226.1530 C   0  0  0  0  0  0  0  0  0  0  0  0
  141.2190   67.3060  228.3320 H   0  0  0  0  0  0  0  0  0  0  0  0
  141.7900   67.1160  226.6140 H   0  0  0  0  0  0  0  0  0  0  0  0
  138.1421   69.0024  227.3040 H   0  0  0  0  0  0  0  0  0  0  0  0
  139.6913   69.4030  228.1907 H   0  0  0  0  0  0  0  0  0  0  0  0
  139.0140   71.2032  226.6994 H   0  0  0  0  0  0  0  0  0  0  0  0
  139.5216   69.0723  224.5116 H   0  0  0  0  0  0  0  0  0  0  0  0
  137.8951   69.5327  225.0228 H   0  0  0  0  0  0  0  0  0  0  0  0
  138.4971   71.0014  223.1180 H   0  0  0  0  0  0  0  0  0  0  0  0
  138.5850   72.0281  224.5488 H   0  0  0  0  0  0  0  0  0  0  0  0
  140.3278   69.9997  219.3843 H   0  0  0  0  0  0  0  0  0  0  0  0
  140.8873   70.5831  217.7465 H   0  0  0  0  0  0  0  0  0  0  0  0
  141.2916   68.0675  219.0427 H   0  0  0  0  0  0  0  0  0  0  0  0
  141.6899   68.6498  217.3487 H   0  0  0  0  0  0  0  0  0  0  0  0
  143.2200   66.6154  218.6581 H   0  0  0  0  0  0  0  0  0  0  0  0
  145.6348   66.3270  219.1298 H   0  0  0  0  0  0  0  0  0  0  0  0
  147.0336   68.3557  219.4599 H   0  0  0  0  0  0  0  0  0  0  0  0
  146.0459   70.6304  219.3166 H   0  0  0  0  0  0  0  0  0  0  0  0
  144.0243   71.9326  219.4136 H   0  0  0  0  0  0  0  0  0  0  0  0
  143.4333   71.5807  217.7776 H   0  0  0  0  0  0  0  0  0  0  0  0
  142.8697   76.2270  220.2885 H   0  0  0  0  0  0  0  0  0  0  0  0
  141.8241   75.2084  219.2704 H   0  0  0  0  0  0  0  0  0  0  0  0
  141.3596   77.5948  218.7675 H   0  0  0  0  0  0  0  0  0  0  0  0
  139.9437   76.9363  219.5842 H   0  0  0  0  0  0  0  0  0  0  0  0
  141.7593   79.8216  219.6013 H   0  0  0  0  0  0  0  0  0  0  0  0
  142.1078   81.3052  221.5498 H   0  0  0  0  0  0  0  0  0  0  0  0
  141.7912   80.4724  223.8874 H   0  0  0  0  0  0  0  0  0  0  0  0
  141.1089   78.0842  224.2040 H   0  0  0  0  0  0  0  0  0  0  0  0
  140.9955   75.8635  223.3035 H   0  0  0  0  0  0  0  0  0  0  0  0
  139.5508   76.1328  222.2628 H   0  0  0  0  0  0  0  0  0  0  0  0
  141.7933   69.8427  224.4136 H   0  0  0  0  0  0  0  0  0  0  0  0
  142.2456   71.5719  224.8085 H   0  0  0  0  0  0  0  0  0  0  0  0
  141.5208   69.8750  226.6401 H   0  0  0  0  0  0  0  0  0  0  0  0
  141.0256   71.6570  226.6164 H   0  0  0  0  0  0  0  0  0  0  0  0
  1  2  1  0
  2  3  2  0
  2  4  1  0
  4  5  1  0
  5  6  1  0
  6  7  1  0
  7  8  1  0
  8  9  1  0
  9 10  2  0
 10 11  1  0
 11 12  1  0
 12 13  1  0
 13 14  1  0
 14 15  1  0
 15 16  2  0
 16 17  1  0
 17 18  2  0
 18 19  1  0
 19 20  2  0
 20 21  1  0
 11 22  2  0
 22 23  1  0
 23 24  1  0
 24 25  1  0
 25 26  1  0
 26 27  1  0
 27 28  2  0
 28 29  1  0
 29 30  2  0
 30 31  1  0
 31 32  2  0
 32 33  1  0
 23 34  2  0
  8 35  1  0
 35 36  1  0
 36  5  1  0
 34  9  1  0
 21 12  1  0
 33 24  1  0
 20 15  1  0
 32 27  1  0
  1 37  1  0
  1 38  1  0
  4 39  1  0
  4 40  1  0
  5 41  1  0
  6 42  1  0
  6 43  1  0
  7 44  1  0
  7 45  1  0
 13 46  1  0
 13 47  1  0
 14 48  1  0
 14 49  1  0
 16 50  1  0
 17 51  1  0
 18 52  1  0
 19 53  1  0
 21 54  1  0
 21 55  1  0
 25 56  1  0
 25 57  1  0
 26 58  1  0
 26 59  1  0
 28 60  1  0
 29 61  1  0
 30 62  1  0
 31 63  1  0
 33 64  1  0
 33 65  1  0
 35 66  1  0
 35 67  1  0
 36 68  1  0
 36 69  1  0
M  END
>  <smiles>  (39) 
NC(=O)CC1CCN(c2nc(N3CCc4ccccc4C3)nc(N3CCc4ccccc4C3)n2)CC1

>  <score_type>  (39) 
oracle

>  <origin>  (39) 
autodockgpu

>  <m_score__min__energy>  (39) 
-9.3499999999999996

>  <m_primary>  (39) 
energy

>  <rmsd>  (39) 
9.390430639396733

>  <m_score__min__rmsd>  (39) 
9.390430639396733

>  <meeko>  (39) 
{"free_energy": -8.85, "intermolecular_energy": -10.34, "internal_energy": -1.14, "cluster_size": 28, "cluster_id": 1, "rank_in_cluster": 20}

>  <energy>  (39) 
-8.82

>  <cluster_rmsd>  (39) 
0.69

>  <cluster>  (39) 
2

$$$$

     RDKit          3D

 69 74  0  0  0  0  0  0  0  0999 V2000
  142.9400   79.3860  222.4340 N   0  0  0  0  0  0  0  0  0  0  0  0
  141.5520   79.6510  222.3480 C   0  0  0  0  0  0  0  0  0  0  0  0
  140.9250   80.1210  223.3570 O   0  0  0  0  0  0  0  0  0  0  0  0
  140.7670   79.4100  221.1260 C   0  0  0  0  0  0  0  0  0  0  0  0
  140.4030   77.9590  220.9110 C   0  0  0  0  0  0  0  0  0  0  0  0
  140.3850   77.3170  222.2830 C   0  0  0  0  0  0  0  0  0  0  0  0
  139.8290   75.9070  222.0610 C   0  0  0  0  0  0  0  0  0  0  0  0
  140.8770   75.2020  221.3480 N   0  0  0  0  0  0  0  0  0  0  0  0
  140.9540   73.7880  221.4860 C   0  0  0  0  0  0  0  0  0  0  0  0
  141.3220   73.0390  220.4310 N   0  0  0  0  0  0  0  0  0  0  0  0
  141.4030   71.7010  220.5320 C   0  0  0  0  0  0  0  0  0  0  0  0
  141.7930   70.9250  219.4070 N   0  0  0  0  0  0  0  0  0  0  0  0
  140.8700   69.9450  218.8460 C   0  0  0  0  0  0  0  0  0  0  0  0
  141.5120   68.6330  218.5380 C   0  0  0  0  0  0  0  0  0  0  0  0
  142.9770   68.6060  218.7370 C   0  0  0  0  0  0  0  0  0  0  0  0
  143.6140   67.3880  218.8010 C   0  0  0  0  0  0  0  0  0  0  0  0
  144.9790   67.2570  218.9830 C   0  0  0  0  0  0  0  0  0  0  0  0
  145.7190   68.4180  219.1040 C   0  0  0  0  0  0  0  0  0  0  0  0
  145.1360   69.6690  219.0480 C   0  0  0  0  0  0  0  0  0  0  0  0
  143.7600   69.7320  218.8620 C   0  0  0  0  0  0  0  0  0  0  0  0
  143.0950   71.0800  218.7980 C   0  0  0  0  0  0  0  0  0  0  0  0
  141.1110   71.1140  221.7010 N   0  0  0  0  0  0  0  0  0  0  0  0
  140.7360   71.8360  222.7920 C   0  0  0  0  0  0  0  0  0  0  0  0
  140.4430   71.1610  223.9900 N   0  0  0  0  0  0  0  0  0  0  0  0
  139.4450   70.1040  223.9460 C   0  0  0  0  0  0  0  0  0  0  0  0
  139.8870   69.0300  224.9280 C   0  0  0  0  0  0  0  0  0  0  0  0
  139.8020   69.6830  226.2690 C   0  0  0  0  0  0  0  0  0  0  0  0
  139.1450   69.0980  227.3330 C   0  0  0  0  0  0  0  0  0  0  0  0
  139.1140   69.7710  228.5380 C   0  0  0  0  0  0  0  0  0  0  0  0
  139.7200   71.0130  228.7110 C   0  0  0  0  0  0  0  0  0  0  0  0
  140.3700   71.5590  227.6010 C   0  0  0  0  0  0  0  0  0  0  0  0
  140.4190   70.9130  226.3880 C   0  0  0  0  0  0  0  0  0  0  0  0
  141.1220   71.5210  225.2130 C   0  0  0  0  0  0  0  0  0  0  0  0
  140.6670   73.1720  222.6490 N   0  0  0  0  0  0  0  0  0  0  0  0
  141.8270   75.9100  220.5130 C   0  0  0  0  0  0  0  0  0  0  0  0
  141.3350   77.2210  220.0160 C   0  0  0  0  0  0  0  0  0  0  0  0
  143.6090   79.7570  221.7280 H   0  0  0  0  0  0  0  0  0  0  0  0
  143.2600   78.8010  223.2370 H   0  0  0  0  0  0  0  0  0  0  0  0
  139.8376   79.9949  221.1899 H   0  0  0  0  0  0  0  0  0  0  0  0
  141.3967   79.7116  220.2760 H   0  0  0  0  0  0  0  0  0  0  0  0
  139.4287   77.9131  220.4024 H   0  0  0  0  0  0  0  0  0  0  0  0
  141.4019   77.2692  222.6996 H   0  0  0  0  0  0  0  0  0  0  0  0
  139.7758   77.8909  222.9968 H   0  0  0  0  0  0  0  0  0  0  0  0
  139.6187   75.4177  223.0235 H   0  0  0  0  0  0  0  0  0  0  0  0
  138.8820   75.9180  221.5016 H   0  0  0  0  0  0  0  0  0  0  0  0
  140.0597   69.7750  219.5702 H   0  0  0  0  0  0  0  0  0  0  0  0
  140.4993   70.3558  217.8953 H   0  0  0  0  0  0  0  0  0  0  0  0
  141.0625   67.8691  219.1895 H   0  0  0  0  0  0  0  0  0  0  0  0
  141.3377   68.4426  217.4687 H   0  0  0  0  0  0  0  0  0  0  0  0
  143.0088   66.4747  218.7027 H   0  0  0  0  0  0  0  0  0  0  0  0
  145.4569   66.2673  219.0296 H   0  0  0  0  0  0  0  0  0  0  0  0
  146.8068   68.3434  219.2495 H   0  0  0  0  0  0  0  0  0  0  0  0
  145.7395   70.5833  219.1471 H   0  0  0  0  0  0  0  0  0  0  0  0
  143.6877   71.8228  219.3521 H   0  0  0  0  0  0  0  0  0  0  0  0
  143.0089   71.4321  217.7594 H   0  0  0  0  0  0  0  0  0  0  0  0
  138.4618   70.5011  224.2385 H   0  0  0  0  0  0  0  0  0  0  0  0
  139.3555   69.6923  222.9299 H   0  0  0  0  0  0  0  0  0  0  0  0
  139.2170   68.1591  224.8776 H   0  0  0  0  0  0  0  0  0  0  0  0
  140.8990   68.6581  224.7099 H   0  0  0  0  0  0  0  0  0  0  0  0
  138.6574   68.1181  227.2232 H   0  0  0  0  0  0  0  0  0  0  0  0
  138.5930   69.3107  229.3904 H   0  0  0  0  0  0  0  0  0  0  0  0
  139.6884   71.5395  229.6763 H   0  0  0  0  0  0  0  0  0  0  0  0
  140.8592   72.5391  227.7009 H   0  0  0  0  0  0  0  0  0  0  0  0
  141.1268   72.6160  225.3181 H   0  0  0  0  0  0  0  0  0  0  0  0
  142.1551   71.1449  225.1764 H   0  0  0  0  0  0  0  0  0  0  0  0
  142.7412   76.0834  221.0997 H   0  0  0  0  0  0  0  0  0  0  0  0
  142.0044   75.2805  219.6285 H   0  0  0  0  0  0  0  0  0  0  0  0
  142.2109   77.8632  219.8417 H   0  0  0  0  0  0  0  0  0  0  0  0
  140.7523   76.9913  219.1118 H   0  0  0  0  0  0  0  0  0  0  0  0
  1  2  1  0
  2  3  2  0
  2  4  1  0
  4  5  1  0
  5  6  1  0
  6  7  1  0
  7  8  1  0
  8  9  1  0
  9 10  2  0
 10 11  1  0
 11 12  1  0
 12 13  1  0
 13 14  1  0
 14 15  1  0
 15 16  2  0
 16 17  1  0
 17 18  2  0
 18 19  1  0
 19 20  2  0
 20 21  1  0
 11 22  2  0
 22 23  1  0
 23 24  1  0
 24 25  1  0
 25 26  1  0
 26 27  1  0
 27 28  2  0
 28 29  1  0
 29 30  2  0
 30 31  1  0
 31 32  2  0
 32 33  1  0
 23 34  2  0
  8 35  1  0
 35 36  1  0
 36  5  1  0
 34  9  1  0
 21 12  1  0
 33 24  1  0
 20 15  1  0
 32 27  1  0
  1 37  1  0
  1 38  1  0
  4 39  1  0
  4 40  1  0
  5 41  1  0
  6 42  1  0
  6 43  1  0
  7 44  1  0
  7 45  1  0
 13 46  1  0
 13 47  1  0
 14 48  1  0
 14 49  1  0
 16 50  1  0
 17 51  1  0
 18 52  1  0
 19 53  1  0
 21 54  1  0
 21 55  1  0
 25 56  1  0
 25 57  1  0
 26 58  1  0
 26 59  1  0
 28 60  1  0
 29 61  1  0
 30 62  1  0
 31 63  1  0
 33 64  1  0
 33 65  1  0
 35 66  1  0
 35 67  1  0
 36 68  1  0
 36 69  1  0
M  END
>  <smiles>  (40) 
NC(=O)CC1CCN(c2nc(N3CCc4ccccc4C3)nc(N3CCc4ccccc4C3)n2)CC1

>  <score_type>  (40) 
oracle

>  <origin>  (40) 
autodockgpu

>  <m_score__min__energy>  (40) 
-9.3499999999999996

>  <m_primary>  (40) 
energy

>  <rmsd>  (40) 
3.9000736733754784

>  <m_score__min__rmsd>  (40) 
3.9000736733754784

>  <meeko>  (40) 
{"free_energy": -9.15, "intermolecular_energy": -10.64, "internal_energy": -1.17, "cluster_size": 15, "cluster_id": 2, "rank_in_cluster": 8}

>  <energy>  (40) 
-8.79

>  <cluster_rmsd>  (40) 
0.74

>  <cluster>  (40) 
2

$$$$

     RDKit          3D

 69 74  0  0  0  0  0  0  0  0999 V2000
  140.3280   67.0080  226.4090 N   0  0  0  0  0  0  0  0  0  0  0  0
  140.3460   68.1500  227.2450 C   0  0  0  0  0  0  0  0  0  0  0  0
  141.3660   68.3950  227.9750 O   0  0  0  0  0  0  0  0  0  0  0  0
  139.2250   69.1000  227.3220 C   0  0  0  0  0  0  0  0  0  0  0  0
  139.2120   70.1220  226.2080 C   0  0  0  0  0  0  0  0  0  0  0  0
  139.3660   69.3450  224.9170 C   0  0  0  0  0  0  0  0  0  0  0  0
  139.1570   70.3730  223.8010 C   0  0  0  0  0  0  0  0  0  0  0  0
  140.3320   71.2220  223.8530 N   0  0  0  0  0  0  0  0  0  0  0  0
  140.7440   71.8770  222.6580 C   0  0  0  0  0  0  0  0  0  0  0  0
  141.1630   71.1430  221.6120 N   0  0  0  0  0  0  0  0  0  0  0  0
  141.5570   71.7340  220.4710 C   0  0  0  0  0  0  0  0  0  0  0  0
  141.9970   70.9430  219.3750 N   0  0  0  0  0  0  0  0  0  0  0  0
  141.1030   69.9480  218.7930 C   0  0  0  0  0  0  0  0  0  0  0  0
  141.7660   68.6370  218.5310 C   0  0  0  0  0  0  0  0  0  0  0  0
  143.2210   68.6230  218.7870 C   0  0  0  0  0  0  0  0  0  0  0  0
  143.8640   67.4110  218.8940 C   0  0  0  0  0  0  0  0  0  0  0  0
  145.2210   67.2930  219.1310 C   0  0  0  0  0  0  0  0  0  0  0  0
  145.9490   68.4610  219.2630 C   0  0  0  0  0  0  0  0  0  0  0  0
  145.3600   69.7070  219.1650 C   0  0  0  0  0  0  0  0  0  0  0  0
  143.9910   69.7570  218.9250 C   0  0  0  0  0  0  0  0  0  0  0  0
  143.3200   71.0990  218.8140 C   0  0  0  0  0  0  0  0  0  0  0  0
  141.5310   73.0710  220.3830 N   0  0  0  0  0  0  0  0  0  0  0  0
  141.1140   73.8490  221.4190 C   0  0  0  0  0  0  0  0  0  0  0  0
  141.1100   75.2470  221.2650 N   0  0  0  0  0  0  0  0  0  0  0  0
  141.6360   75.7930  220.0240 C   0  0  0  0  0  0  0  0  0  0  0  0
  140.8040   77.0220  219.6870 C   0  0  0  0  0  0  0  0  0  0  0  0
  141.1070   77.9960  220.7800 C   0  0  0  0  0  0  0  0  0  0  0  0
  141.4760   79.3000  220.5210 C   0  0  0  0  0  0  0  0  0  0  0  0
  141.7390   80.1340  221.5900 C   0  0  0  0  0  0  0  0  0  0  0  0
  141.6430   79.7000  222.9110 C   0  0  0  0  0  0  0  0  0  0  0  0
  141.2670   78.3710  223.1140 C   0  0  0  0  0  0  0  0  0  0  0  0
  140.9980   77.5160  222.0710 C   0  0  0  0  0  0  0  0  0  0  0  0
  140.5960   76.0940  222.3160 C   0  0  0  0  0  0  0  0  0  0  0  0
  140.7280   73.2190  222.5430 N   0  0  0  0  0  0  0  0  0  0  0  0
  141.0750   71.4050  225.0830 C   0  0  0  0  0  0  0  0  0  0  0  0
  140.2800   71.1530  226.3130 C   0  0  0  0  0  0  0  0  0  0  0  0
  140.0980   67.0790  225.3970 H   0  0  0  0  0  0  0  0  0  0  0  0
  140.5560   66.0920  226.8560 H   0  0  0  0  0  0  0  0  0  0  0  0
  138.2847   68.5306  227.2809 H   0  0  0  0  0  0  0  0  0  0  0  0
  139.3408   69.6555  228.2643 H   0  0  0  0  0  0  0  0  0  0  0  0
  138.2695   70.6869  226.2591 H   0  0  0  0  0  0  0  0  0  0  0  0
  140.3710   68.9028  224.8507 H   0  0  0  0  0  0  0  0  0  0  0  0
  138.6484   68.5141  224.8497 H   0  0  0  0  0  0  0  0  0  0  0  0
  139.0828   69.8739  222.8236 H   0  0  0  0  0  0  0  0  0  0  0  0
  138.2263   70.9444  223.9324 H   0  0  0  0  0  0  0  0  0  0  0  0
  140.2659   69.7828  219.4872 H   0  0  0  0  0  0  0  0  0  0  0  0
  140.7667   70.3416  217.8225 H   0  0  0  0  0  0  0  0  0  0  0  0
  141.2966   67.8798  219.1762 H   0  0  0  0  0  0  0  0  0  0  0  0
  141.6356   68.4298  217.4586 H   0  0  0  0  0  0  0  0  0  0  0  0
  143.2696   66.4918  218.7857 H   0  0  0  0  0  0  0  0  0  0  0  0
  145.7030   66.3075  219.2115 H   0  0  0  0  0  0  0  0  0  0  0  0
  147.0307   68.3963  219.4519 H   0  0  0  0  0  0  0  0  0  0  0  0
  145.9530   70.6271  219.2730 H   0  0  0  0  0  0  0  0  0  0  0  0
  143.8857   71.8548  219.3786 H   0  0  0  0  0  0  0  0  0  0  0  0
  143.2717   71.4347  217.7676 H   0  0  0  0  0  0  0  0  0  0  0  0
  142.6911   76.0757  220.1536 H   0  0  0  0  0  0  0  0  0  0  0  0
  141.5812   75.0495  219.2151 H   0  0  0  0  0  0  0  0  0  0  0  0
  141.0966   77.4325  218.7093 H   0  0  0  0  0  0  0  0  0  0  0  0
  139.7303   76.7924  219.6196 H   0  0  0  0  0  0  0  0  0  0  0  0
  141.5588   79.6668  219.4873 H   0  0  0  0  0  0  0  0  0  0  0  0
  142.0340   81.1751  221.3923 H   0  0  0  0  0  0  0  0  0  0  0  0
  141.8538   80.3736  223.7547 H   0  0  0  0  0  0  0  0  0  0  0  0
  141.1829   77.9946  224.1442 H   0  0  0  0  0  0  0  0  0  0  0  0
  141.0023   75.7620  223.2828 H   0  0  0  0  0  0  0  0  0  0  0  0
  139.4982   76.0265  222.3296 H   0  0  0  0  0  0  0  0  0  0  0  0
  141.9304   70.7135  225.0764 H   0  0  0  0  0  0  0  0  0  0  0  0
  141.3834   72.4604  225.1143 H   0  0  0  0  0  0  0  0  0  0  0  0
  140.9764   70.8349  227.1029 H   0  0  0  0  0  0  0  0  0  0  0  0
  139.7564   72.0974  226.5225 H   0  0  0  0  0  0  0  0  0  0  0  0
  1  2  1  0
  2  3  2  0
  2  4  1  0
  4  5  1  0
  5  6  1  0
  6  7  1  0
  7  8  1  0
  8  9  1  0
  9 10  2  0
 10 11  1  0
 11 12  1  0
 12 13  1  0
 13 14  1  0
 14 15  1  0
 15 16  2  0
 16 17  1  0
 17 18  2  0
 18 19  1  0
 19 20  2  0
 20 21  1  0
 11 22  2  0
 22 23  1  0
 23 24  1  0
 24 25  1  0
 25 26  1  0
 26 27  1  0
 27 28  2  0
 28 29  1  0
 29 30  2  0
 30 31  1  0
 31 32  2  0
 32 33  1  0
 23 34  2  0
  8 35  1  0
 35 36  1  0
 36  5  1  0
 34  9  1  0
 21 12  1  0
 33 24  1  0
 20 15  1  0
 32 27  1  0
  1 37  1  0
  1 38  1  0
  4 39  1  0
  4 40  1  0
  5 41  1  0
  6 42  1  0
  6 43  1  0
  7 44  1  0
  7 45  1  0
 13 46  1  0
 13 47  1  0
 14 48  1  0
 14 49  1  0
 16 50  1  0
 17 51  1  0
 18 52  1  0
 19 53  1  0
 21 54  1  0
 21 55  1  0
 25 56  1  0
 25 57  1  0
 26 58  1  0
 26 59  1  0
 28 60  1  0
 29 61  1  0
 30 62  1  0
 31 63  1  0
 33 64  1  0
 33 65  1  0
 35 66  1  0
 35 67  1  0
 36 68  1  0
 36 69  1  0
M  END
>  <smiles>  (41) 
NC(=O)CC1CCN(c2nc(N3CCc4ccccc4C3)nc(N3CCc4ccccc4C3)n2)CC1

>  <score_type>  (41) 
oracle

>  <origin>  (41) 
autodockgpu

>  <m_score__min__energy>  (41) 
-9.3499999999999996

>  <m_primary>  (41) 
energy

>  <rmsd>  (41) 
9.378740887277813

>  <m_score__min__rmsd>  (41) 
9.378740887277813

>  <meeko>  (41) 
{"free_energy": -9.03, "intermolecular_energy": -10.52, "internal_energy": -1.11, "cluster_size": 28, "cluster_id": 1, "rank_in_cluster": 13}

>  <energy>  (41) 
-8.7

>  <cluster_rmsd>  (41) 
0.86

>  <cluster>  (41) 
2

$$$$

     RDKit          3D

 69 74  0  0  0  0  0  0  0  0999 V2000
  140.6770   67.1650  226.5010 N   0  0  0  0  0  0  0  0  0  0  0  0
  140.0970   68.3770  226.9490 C   0  0  0  0  0  0  0  0  0  0  0  0
  140.6860   69.0790  227.8400 O   0  0  0  0  0  0  0  0  0  0  0  0
  138.8180   68.8890  226.4320 C   0  0  0  0  0  0  0  0  0  0  0  0
  138.9680   70.0460  225.4700 C   0  0  0  0  0  0  0  0  0  0  0  0
  139.1480   69.4360  224.0960 C   0  0  0  0  0  0  0  0  0  0  0  0
  139.1040   70.6180  223.1220 C   0  0  0  0  0  0  0  0  0  0  0  0
  140.3380   71.3420  223.3590 N   0  0  0  0  0  0  0  0  0  0  0  0
  140.8850   72.1090  222.2920 C   0  0  0  0  0  0  0  0  0  0  0  0
  141.4430   71.4780  221.2420 N   0  0  0  0  0  0  0  0  0  0  0  0
  141.9670   72.1760  220.2210 C   0  0  0  0  0  0  0  0  0  0  0  0
  142.5520   71.4950  219.1190 N   0  0  0  0  0  0  0  0  0  0  0  0
  141.7270   70.6420  218.2720 C   0  0  0  0  0  0  0  0  0  0  0  0
  142.3610   69.3290  217.9540 C   0  0  0  0  0  0  0  0  0  0  0  0
  143.7470   69.1820  218.4450 C   0  0  0  0  0  0  0  0  0  0  0  0
  144.3010   67.9240  218.4990 C   0  0  0  0  0  0  0  0  0  0  0  0
  145.5890   67.6840  218.9420 C   0  0  0  0  0  0  0  0  0  0  0  0
  146.3380   68.7730  219.3450 C   0  0  0  0  0  0  0  0  0  0  0  0
  145.8370   70.0600  219.3140 C   0  0  0  0  0  0  0  0  0  0  0  0
  144.5350   70.2340  218.8570 C   0  0  0  0  0  0  0  0  0  0  0  0
  143.9600   71.6240  218.8130 C   0  0  0  0  0  0  0  0  0  0  0  0
  141.9320   73.5160  220.2560 N   0  0  0  0  0  0  0  0  0  0  0  0
  141.3760   74.1900  221.2990 C   0  0  0  0  0  0  0  0  0  0  0  0
  141.3690   75.5960  221.2780 N   0  0  0  0  0  0  0  0  0  0  0  0
  142.0520   76.2610  220.1780 C   0  0  0  0  0  0  0  0  0  0  0  0
  141.2540   77.5120  219.8460 C   0  0  0  0  0  0  0  0  0  0  0  0
  141.3860   78.3790  221.0550 C   0  0  0  0  0  0  0  0  0  0  0  0
  141.7650   79.7030  220.9740 C   0  0  0  0  0  0  0  0  0  0  0  0
  141.8630   80.4330  222.1420 C   0  0  0  0  0  0  0  0  0  0  0  0
  141.5940   79.8760  223.3910 C   0  0  0  0  0  0  0  0  0  0  0  0
  141.2160   78.5310  223.4140 C   0  0  0  0  0  0  0  0  0  0  0  0
  141.1080   77.7790  222.2690 C   0  0  0  0  0  0  0  0  0  0  0  0
  140.7010   76.3380  222.3210 C   0  0  0  0  0  0  0  0  0  0  0  0
  140.8620   73.4550  222.3020 N   0  0  0  0  0  0  0  0  0  0  0  0
  141.0050   71.2910  224.6440 C   0  0  0  0  0  0  0  0  0  0  0  0
  140.1070   70.9530  225.7780 C   0  0  0  0  0  0  0  0  0  0  0  0
  140.8150   66.9720  225.4880 H   0  0  0  0  0  0  0  0  0  0  0  0
  140.9570   66.4760  227.2330 H   0  0  0  0  0  0  0  0  0  0  0  0
  138.3015   68.0694  225.9109 H   0  0  0  0  0  0  0  0  0  0  0  0
  138.2495   69.2627  227.2964 H   0  0  0  0  0  0  0  0  0  0  0  0
  138.0737   70.6823  225.5433 H   0  0  0  0  0  0  0  0  0  0  0  0
  140.1152   68.9165  224.0284 H   0  0  0  0  0  0  0  0  0  0  0  0
  138.3708   68.6903  223.8725 H   0  0  0  0  0  0  0  0  0  0  0  0
  139.0579   70.2615  222.0824 H   0  0  0  0  0  0  0  0  0  0  0  0
  138.2168   71.2496  223.2766 H   0  0  0  0  0  0  0  0  0  0  0  0
  140.7751   70.4529  218.7899 H   0  0  0  0  0  0  0  0  0  0  0  0
  141.5845   71.1723  217.3189 H   0  0  0  0  0  0  0  0  0  0  0  0
  141.7501   68.5341  218.4067 H   0  0  0  0  0  0  0  0  0  0  0  0
  142.4094   69.2629  216.8571 H   0  0  0  0  0  0  0  0  0  0  0  0
  143.6906   67.0684  218.1744 H   0  0  0  0  0  0  0  0  0  0  0  0
  146.0016   66.6647  218.9724 H   0  0  0  0  0  0  0  0  0  0  0  0
  147.3657   68.6100  219.7018 H   0  0  0  0  0  0  0  0  0  0  0  0
  146.4460   70.9164  219.6391 H   0  0  0  0  0  0  0  0  0  0  0  0
  144.4542   72.2636  219.5591 H   0  0  0  0  0  0  0  0  0  0  0  0
  144.1124   72.0869  217.8268 H   0  0  0  0  0  0  0  0  0  0  0  0
  143.0741   76.5344  220.4788 H   0  0  0  0  0  0  0  0  0  0  0  0
  142.1220   75.5980  219.3030 H   0  0  0  0  0  0  0  0  0  0  0  0
  141.6713   78.0146  218.9610 H   0  0  0  0  0  0  0  0  0  0  0  0
  140.2039   77.2849  219.6098 H   0  0  0  0  0  0  0  0  0  0  0  0
  141.9842   80.1667  220.0009 H   0  0  0  0  0  0  0  0  0  0  0  0
  142.1635   81.4896  222.0848 H   0  0  0  0  0  0  0  0  0  0  0  0
  141.6754   80.4673  224.3150 H   0  0  0  0  0  0  0  0  0  0  0  0
  140.9973   78.0576  224.3825 H   0  0  0  0  0  0  0  0  0  0  0  0
  140.9755   75.9175  223.2997 H   0  0  0  0  0  0  0  0  0  0  0  0
  139.6132   76.2655  222.1744 H   0  0  0  0  0  0  0  0  0  0  0  0
  141.7979   70.5304  224.5921 H   0  0  0  0  0  0  0  0  0  0  0  0
  141.3978   72.2998  224.8389 H   0  0  0  0  0  0  0  0  0  0  0  0
  140.7172   70.4721  226.5567 H   0  0  0  0  0  0  0  0  0  0  0  0
  139.6490   71.9054  226.0831 H   0  0  0  0  0  0  0  0  0  0  0  0
  1  2  1  0
  2  3  2  0
  2  4  1  0
  4  5  1  0
  5  6  1  0
  6  7  1  0
  7  8  1  0
  8  9  1  0
  9 10  2  0
 10 11  1  0
 11 12  1  0
 12 13  1  0
 13 14  1  0
 14 15  1  0
 15 16  2  0
 16 17  1  0
 17 18  2  0
 18 19  1  0
 19 20  2  0
 20 21  1  0
 11 22  2  0
 22 23  1  0
 23 24  1  0
 24 25  1  0
 25 26  1  0
 26 27  1  0
 27 28  2  0
 28 29  1  0
 29 30  2  0
 30 31  1  0
 31 32  2  0
 32 33  1  0
 23 34  2  0
  8 35  1  0
 35 36  1  0
 36  5  1  0
 34  9  1  0
 21 12  1  0
 33 24  1  0
 20 15  1  0
 32 27  1  0
  1 37  1  0
  1 38  1  0
  4 39  1  0
  4 40  1  0
  5 41  1  0
  6 42  1  0
  6 43  1  0
  7 44  1  0
  7 45  1  0
 13 46  1  0
 13 47  1  0
 14 48  1  0
 14 49  1  0
 16 50  1  0
 17 51  1  0
 18 52  1  0
 19 53  1  0
 21 54  1  0
 21 55  1  0
 25 56  1  0
 25 57  1  0
 26 58  1  0
 26 59  1  0
 28 60  1  0
 29 61  1  0
 30 62  1  0
 31 63  1  0
 33 64  1  0
 33 65  1  0
 35 66  1  0
 35 67  1  0
 36 68  1  0
 36 69  1  0
M  END
>  <smiles>  (42) 
NC(=O)CC1CCN(c2nc(N3CCc4ccccc4C3)nc(N3CCc4ccccc4C3)n2)CC1

>  <score_type>  (42) 
oracle

>  <origin>  (42) 
autodockgpu

>  <m_score__min__energy>  (42) 
-9.3499999999999996

>  <m_primary>  (42) 
energy

>  <rmsd>  (42) 
8.952983003571443

>  <m_score__min__rmsd>  (42) 
8.952983003571443

>  <meeko>  (42) 
{"free_energy": -9.08, "intermolecular_energy": -10.58, "internal_energy": -1.12, "cluster_size": 28, "cluster_id": 1, "rank_in_cluster": 11}

>  <energy>  (42) 
-8.69

>  <cluster_rmsd>  (42) 
0.94

>  <cluster>  (42) 
2

$$$$

     RDKit          3D

 69 74  0  0  0  0  0  0  0  0999 V2000
  140.4220   67.3250  226.4310 N   0  0  0  0  0  0  0  0  0  0  0  0
  139.4020   67.8490  225.6020 C   0  0  0  0  0  0  0  0  0  0  0  0
  139.2030   67.3560  224.4400 O   0  0  0  0  0  0  0  0  0  0  0  0
  138.5300   68.9610  226.0150 C   0  0  0  0  0  0  0  0  0  0  0  0
  138.8530   70.2730  225.3370 C   0  0  0  0  0  0  0  0  0  0  0  0
  138.6410   70.0500  223.8540 C   0  0  0  0  0  0  0  0  0  0  0  0
  138.7860   71.4340  223.2140 C   0  0  0  0  0  0  0  0  0  0  0  0
  140.1960   71.7540  223.3320 N   0  0  0  0  0  0  0  0  0  0  0  0
  140.7690   72.6400  222.3780 C   0  0  0  0  0  0  0  0  0  0  0  0
  140.3520   73.9180  222.3290 N   0  0  0  0  0  0  0  0  0  0  0  0
  140.8740   74.7780  221.4380 C   0  0  0  0  0  0  0  0  0  0  0  0
  140.4230   76.1250  221.3990 N   0  0  0  0  0  0  0  0  0  0  0  0
  140.2680   76.8030  220.1170 C   0  0  0  0  0  0  0  0  0  0  0  0
  140.8230   78.1870  220.1060 C   0  0  0  0  0  0  0  0  0  0  0  0
  141.3110   78.6630  221.4180 C   0  0  0  0  0  0  0  0  0  0  0  0
  142.1260   79.7710  221.4600 C   0  0  0  0  0  0  0  0  0  0  0  0
  142.6320   80.2930  222.6360 C   0  0  0  0  0  0  0  0  0  0  0  0
  142.2910   79.6560  223.8150 C   0  0  0  0  0  0  0  0  0  0  0  0
  141.4760   78.5410  223.8360 C   0  0  0  0  0  0  0  0  0  0  0  0
  141.0000   78.0660  222.6200 C   0  0  0  0  0  0  0  0  0  0  0  0
  140.1110   76.8520  222.6100 C   0  0  0  0  0  0  0  0  0  0  0  0
  141.8220   74.3500  220.5920 N   0  0  0  0  0  0  0  0  0  0  0  0
  142.2700   73.0650  220.6100 C   0  0  0  0  0  0  0  0  0  0  0  0
  143.2660   72.6760  219.6960 N   0  0  0  0  0  0  0  0  0  0  0  0
  143.1790   73.1920  218.3390 C   0  0  0  0  0  0  0  0  0  0  0  0
  144.6020   73.4190  217.8530 C   0  0  0  0  0  0  0  0  0  0  0  0
  145.2030   72.0530  217.7850 C   0  0  0  0  0  0  0  0  0  0  0  0
  145.8650   71.5950  216.6640 C   0  0  0  0  0  0  0  0  0  0  0  0
  146.3900   70.3180  216.6860 C   0  0  0  0  0  0  0  0  0  0  0  0
  146.2720   69.4850  217.7970 C   0  0  0  0  0  0  0  0  0  0  0  0
  145.5910   69.9990  218.9030 C   0  0  0  0  0  0  0  0  0  0  0  0
  145.0580   71.2660  218.9120 C   0  0  0  0  0  0  0  0  0  0  0  0
  144.3320   71.7950  220.1110 C   0  0  0  0  0  0  0  0  0  0  0  0
  141.7210   72.2360  221.5160 N   0  0  0  0  0  0  0  0  0  0  0  0
  141.0090   71.1900  224.3910 C   0  0  0  0  0  0  0  0  0  0  0  0
  140.2350   70.7650  225.5860 C   0  0  0  0  0  0  0  0  0  0  0  0
  140.2300   67.0330  227.4110 H   0  0  0  0  0  0  0  0  0  0  0  0
  141.3760   67.2460  226.0140 H   0  0  0  0  0  0  0  0  0  0  0  0
  137.4901   68.6937  225.7759 H   0  0  0  0  0  0  0  0  0  0  0  0
  138.6888   69.1096  227.0933 H   0  0  0  0  0  0  0  0  0  0  0  0
  138.1974   71.0532  225.7511 H   0  0  0  0  0  0  0  0  0  0  0  0
  139.3991   69.3597  223.4557 H   0  0  0  0  0  0  0  0  0  0  0  0
  137.6596   69.6004  223.6424 H   0  0  0  0  0  0  0  0  0  0  0  0
  138.4828   71.4053  222.1570 H   0  0  0  0  0  0  0  0  0  0  0  0
  138.1486   72.1852  223.7032 H   0  0  0  0  0  0  0  0  0  0  0  0
  140.7865   76.2137  219.3464 H   0  0  0  0  0  0  0  0  0  0  0  0
  139.1885   76.8854  219.9226 H   0  0  0  0  0  0  0  0  0  0  0  0
  141.6631   78.2145  219.3965 H   0  0  0  0  0  0  0  0  0  0  0  0
  139.9958   78.8532  219.8197 H   0  0  0  0  0  0  0  0  0  0  0  0
  142.3874   80.2650  220.5126 H   0  0  0  0  0  0  0  0  0  0  0  0
  143.2811   81.1811  222.6338 H   0  0  0  0  0  0  0  0  0  0  0  0
  142.6808   80.0493  224.7655 H   0  0  0  0  0  0  0  0  0  0  0  0
  141.2129   78.0462  224.7825 H   0  0  0  0  0  0  0  0  0  0  0  0
  140.3126   76.2260  223.4918 H   0  0  0  0  0  0  0  0  0  0  0  0
  139.0488   77.1363  222.6411 H   0  0  0  0  0  0  0  0  0  0  0  0
  142.6708   72.4633  217.6904 H   0  0  0  0  0  0  0  0  0  0  0  0
  142.6031   74.1289  218.3133 H   0  0  0  0  0  0  0  0  0  0  0  0
  144.6017   73.8924  216.8601 H   0  0  0  0  0  0  0  0  0  0  0  0
  145.1666   74.0890  218.5180 H   0  0  0  0  0  0  0  0  0  0  0  0
  145.9719   72.2323  215.7738 H   0  0  0  0  0  0  0  0  0  0  0  0
  146.9193   69.9457  215.7965 H   0  0  0  0  0  0  0  0  0  0  0  0
  146.6955   68.4698  217.8027 H   0  0  0  0  0  0  0  0  0  0  0  0
  145.4774   69.3684  219.7971 H   0  0  0  0  0  0  0  0  0  0  0  0
  143.9086   70.9544  220.6803 H   0  0  0  0  0  0  0  0  0  0  0  0
  145.0380   72.3556  220.7413 H   0  0  0  0  0  0  0  0  0  0  0  0
  141.5376   70.3121  223.9911 H   0  0  0  0  0  0  0  0  0  0  0  0
  141.6954   71.9833  224.7220 H   0  0  0  0  0  0  0  0  0  0  0  0
  140.7951   69.9558  226.0774 H   0  0  0  0  0  0  0  0  0  0  0  0
  140.1172   71.6725  226.1964 H   0  0  0  0  0  0  0  0  0  0  0  0
  1  2  1  0
  2  3  2  0
  2  4  1  0
  4  5  1  0
  5  6  1  0
  6  7  1  0
  7  8  1  0
  8  9  1  0
  9 10  2  0
 10 11  1  0
 11 12  1  0
 12 13  1  0
 13 14  1  0
 14 15  1  0
 15 16  2  0
 16 17  1  0
 17 18  2  0
 18 19  1  0
 19 20  2  0
 20 21  1  0
 11 22  2  0
 22 23  1  0
 23 24  1  0
 24 25  1  0
 25 26  1  0
 26 27  1  0
 27 28  2  0
 28 29  1  0
 29 30  2  0
 30 31  1  0
 31 32  2  0
 32 33  1  0
 23 34  2  0
  8 35  1  0
 35 36  1  0
 36  5  1  0
 34  9  1  0
 21 12  1  0
 33 24  1  0
 20 15  1  0
 32 27  1  0
  1 37  1  0
  1 38  1  0
  4 39  1  0
  4 40  1  0
  5 41  1  0
  6 42  1  0
  6 43  1  0
  7 44  1  0
  7 45  1  0
 13 46  1  0
 13 47  1  0
 14 48  1  0
 14 49  1  0
 16 50  1  0
 17 51  1  0
 18 52  1  0
 19 53  1  0
 21 54  1  0
 21 55  1  0
 25 56  1  0
 25 57  1  0
 26 58  1  0
 26 59  1  0
 28 60  1  0
 29 61  1  0
 30 62  1  0
 31 63  1  0
 33 64  1  0
 33 65  1  0
 35 66  1  0
 35 67  1  0
 36 68  1  0
 36 69  1  0
M  END
>  <smiles>  (43) 
NC(=O)CC1CCN(c2nc(N3CCc4ccccc4C3)nc(N3CCc4ccccc4C3)n2)CC1

>  <score_type>  (43) 
oracle

>  <origin>  (43) 
autodockgpu

>  <m_score__min__energy>  (43) 
-9.3499999999999996

>  <m_primary>  (43) 
energy

>  <rmsd>  (43) 
8.807118218157472

>  <m_score__min__rmsd>  (43) 
8.807118218157472

>  <meeko>  (43) 
{"free_energy": -9.35, "intermolecular_energy": -10.84, "internal_energy": -1.12, "cluster_size": 28, "cluster_id": 1, "rank_in_cluster": 1}

>  <energy>  (43) 
-8.57

>  <cluster_rmsd>  (43) 
1.8

>  <cluster>  (43) 
2

$$$$

     RDKit          3D

 69 74  0  0  0  0  0  0  0  0999 V2000
  140.5790   67.3790  226.5340 N   0  0  0  0  0  0  0  0  0  0  0  0
  139.7090   68.4440  226.8720 C   0  0  0  0  0  0  0  0  0  0  0  0
  139.8420   69.0500  227.9890 O   0  0  0  0  0  0  0  0  0  0  0  0
  138.6300   68.9050  225.9850 C   0  0  0  0  0  0  0  0  0  0  0  0
  138.9180   70.2260  225.3080 C   0  0  0  0  0  0  0  0  0  0  0  0
  138.7320   69.9920  223.8230 C   0  0  0  0  0  0  0  0  0  0  0  0
  138.8390   71.3790  223.1810 C   0  0  0  0  0  0  0  0  0  0  0  0
  140.2360   71.7440  223.3160 N   0  0  0  0  0  0  0  0  0  0  0  0
  140.7920   72.6470  222.3660 C   0  0  0  0  0  0  0  0  0  0  0  0
  140.3590   73.9200  222.3320 N   0  0  0  0  0  0  0  0  0  0  0  0
  140.8650   74.7950  221.4460 C   0  0  0  0  0  0  0  0  0  0  0  0
  140.3970   76.1370  221.4240 N   0  0  0  0  0  0  0  0  0  0  0  0
  140.2000   76.8160  220.1480 C   0  0  0  0  0  0  0  0  0  0  0  0
  140.7390   78.2070  220.1270 C   0  0  0  0  0  0  0  0  0  0  0  0
  141.2550   78.6850  221.4270 C   0  0  0  0  0  0  0  0  0  0  0  0
  142.0580   79.8020  221.4510 C   0  0  0  0  0  0  0  0  0  0  0  0
  142.5880   80.3270  222.6160 C   0  0  0  0  0  0  0  0  0  0  0  0
  142.2850   79.6830  223.8000 C   0  0  0  0  0  0  0  0  0  0  0  0
  141.4850   78.5580  223.8400 C   0  0  0  0  0  0  0  0  0  0  0  0
  140.9820   78.0810  222.6340 C   0  0  0  0  0  0  0  0  0  0  0  0
  140.1080   76.8560  222.6440 C   0  0  0  0  0  0  0  0  0  0  0  0
  141.8110   74.3860  220.5890 N   0  0  0  0  0  0  0  0  0  0  0  0
  142.2760   73.1070  220.5920 C   0  0  0  0  0  0  0  0  0  0  0  0
  143.2700   72.7390  219.6680 N   0  0  0  0  0  0  0  0  0  0  0  0
  143.1650   73.2650  218.3150 C   0  0  0  0  0  0  0  0  0  0  0  0
  144.5820   73.5150  217.8210 C   0  0  0  0  0  0  0  0  0  0  0  0
  145.2000   72.1580  217.7370 C   0  0  0  0  0  0  0  0  0  0  0  0
  145.8600   71.7180  216.6080 C   0  0  0  0  0  0  0  0  0  0  0  0
  146.4020   70.4480  216.6150 C   0  0  0  0  0  0  0  0  0  0  0  0
  146.3030   69.6040  217.7200 C   0  0  0  0  0  0  0  0  0  0  0  0
  145.6240   70.1000  218.8350 C   0  0  0  0  0  0  0  0  0  0  0  0
  145.0740   71.3600  218.8590 C   0  0  0  0  0  0  0  0  0  0  0  0
  144.3500   71.8690  220.0680 C   0  0  0  0  0  0  0  0  0  0  0  0
  141.7430   72.2630  221.4940 N   0  0  0  0  0  0  0  0  0  0  0  0
  141.0540   71.2100  224.3850 C   0  0  0  0  0  0  0  0  0  0  0  0
  140.2800   70.7630  225.5730 C   0  0  0  0  0  0  0  0  0  0  0  0
  141.0880   67.3610  225.6260 H   0  0  0  0  0  0  0  0  0  0  0  0
  140.6850   66.6140  227.2360 H   0  0  0  0  0  0  0  0  0  0  0  0
  138.4720   68.1438  225.2068 H   0  0  0  0  0  0  0  0  0  0  0  0
  137.7405   69.0552  226.6144 H   0  0  0  0  0  0  0  0  0  0  0  0
  138.2324   70.9856  225.7116 H   0  0  0  0  0  0  0  0  0  0  0  0
  139.5175   69.3263  223.4361 H   0  0  0  0  0  0  0  0  0  0  0  0
  137.7690   69.5093  223.6004 H   0  0  0  0  0  0  0  0  0  0  0  0
  138.5501   71.3382  222.1204 H   0  0  0  0  0  0  0  0  0  0  0  0
  138.1711   72.1103  223.6596 H   0  0  0  0  0  0  0  0  0  0  0  0
  140.7047   76.2347  219.3622 H   0  0  0  0  0  0  0  0  0  0  0  0
  139.1149   76.8859  219.9818 H   0  0  0  0  0  0  0  0  0  0  0  0
  141.5602   78.2461  219.3962 H   0  0  0  0  0  0  0  0  0  0  0  0
  139.8971   78.8644  219.8642 H   0  0  0  0  0  0  0  0  0  0  0  0
  142.2895   80.3013  220.4986 H   0  0  0  0  0  0  0  0  0  0  0  0
  143.2262   81.2228  222.6002 H   0  0  0  0  0  0  0  0  0  0  0  0
  142.6941   80.0790  224.7412 H   0  0  0  0  0  0  0  0  0  0  0  0
  141.2538   78.0570  224.7916 H   0  0  0  0  0  0  0  0  0  0  0  0
  140.3405   76.2302  223.5183 H   0  0  0  0  0  0  0  0  0  0  0  0
  139.0435   77.1268  222.7040 H   0  0  0  0  0  0  0  0  0  0  0  0
  142.6619   72.5347  217.6642 H   0  0  0  0  0  0  0  0  0  0  0  0
  142.5758   74.1938  218.3007 H   0  0  0  0  0  0  0  0  0  0  0  0
  144.5686   73.9969  216.8323 H   0  0  0  0  0  0  0  0  0  0  0  0
  145.1425   74.1867  218.4879 H   0  0  0  0  0  0  0  0  0  0  0  0
  145.9523   72.3642  215.7226 H   0  0  0  0  0  0  0  0  0  0  0  0
  146.9296   70.0903  215.7185 H   0  0  0  0  0  0  0  0  0  0  0  0
  146.7394   68.5943  217.7140 H   0  0  0  0  0  0  0  0  0  0  0  0
  145.5258   69.4607  219.7247 H   0  0  0  0  0  0  0  0  0  0  0  0
  143.9418   71.0180  220.6330 H   0  0  0  0  0  0  0  0  0  0  0  0
  145.0530   72.4333  220.6984 H   0  0  0  0  0  0  0  0  0  0  0  0
  141.6154   70.3487  223.9938 H   0  0  0  0  0  0  0  0  0  0  0  0
  141.7105   72.0260  224.7214 H   0  0  0  0  0  0  0  0  0  0  0  0
  140.8601   69.9736  226.0734 H   0  0  0  0  0  0  0  0  0  0  0  0
  140.1259   71.6672  226.1801 H   0  0  0  0  0  0  0  0  0  0  0  0
  1  2  1  0
  2  3  2  0
  2  4  1  0
  4  5  1  0
  5  6  1  0
  6  7  1  0
  7  8  1  0
  8  9  1  0
  9 10  2  0
 10 11  1  0
 11 12  1  0
 12 13  1  0
 13 14  1  0
 14 15  1  0
 15 16  2  0
 16 17  1  0
 17 18  2  0
 18 19  1  0
 19 20  2  0
 20 21  1  0
 11 22  2  0
 22 23  1  0
 23 24  1  0
 24 25  1  0
 25 26  1  0
 26 27  1  0
 27 28  2  0
 28 29  1  0
 29 30  2  0
 30 31  1  0
 31 32  2  0
 32 33  1  0
 23 34  2  0
  8 35  1  0
 35 36  1  0
 36  5  1  0
 34  9  1  0
 21 12  1  0
 33 24  1  0
 20 15  1  0
 32 27  1  0
  1 37  1  0
  1 38  1  0
  4 39  1  0
  4 40  1  0
  5 41  1  0
  6 42  1  0
  6 43  1  0
  7 44  1  0
  7 45  1  0
 13 46  1  0
 13 47  1  0
 14 48  1  0
 14 49  1  0
 16 50  1  0
 17 51  1  0
 18 52  1  0
 19 53  1  0
 21 54  1  0
 21 55  1  0
 25 56  1  0
 25 57  1  0
 26 58  1  0
 26 59  1  0
 28 60  1  0
 29 61  1  0
 30 62  1  0
 31 63  1  0
 33 64  1  0
 33 65  1  0
 35 66  1  0
 35 67  1  0
 36 68  1  0
 36 69  1  0
M  END
>  <smiles>  (44) 
NC(=O)CC1CCN(c2nc(N3CCc4ccccc4C3)nc(N3CCc4ccccc4C3)n2)CC1

>  <score_type>  (44) 
oracle

>  <origin>  (44) 
autodockgpu

>  <m_score__min__energy>  (44) 
-9.3499999999999996

>  <m_primary>  (44) 
energy

>  <rmsd>  (44) 
8.717698530816362

>  <m_score__min__rmsd>  (44) 
8.717698530816362

>  <meeko>  (44) 
{"free_energy": -9.14, "intermolecular_energy": -10.63, "internal_energy": -1.13, "cluster_size": 28, "cluster_id": 1, "rank_in_cluster": 3}

>  <energy>  (44) 
-8.9

>  <cluster_rmsd>  (44) 
0.0

>  <cluster>  (44) 
3

$$$$

     RDKit          3D

 69 74  0  0  0  0  0  0  0  0999 V2000
  140.9000   67.5720  226.8970 N   0  0  0  0  0  0  0  0  0  0  0  0
  139.7680   67.7890  226.0740 C   0  0  0  0  0  0  0  0  0  0  0  0
  139.5450   67.0240  225.0760 O   0  0  0  0  0  0  0  0  0  0  0  0
  138.8060   68.8770  226.3120 C   0  0  0  0  0  0  0  0  0  0  0  0
  138.9490   70.0380  225.3540 C   0  0  0  0  0  0  0  0  0  0  0  0
  139.1910   69.4330  223.9860 C   0  0  0  0  0  0  0  0  0  0  0  0
  139.1390   70.6130  223.0090 C   0  0  0  0  0  0  0  0  0  0  0  0
  140.3420   71.3760  223.2840 N   0  0  0  0  0  0  0  0  0  0  0  0
  140.8970   72.1600  222.2350 C   0  0  0  0  0  0  0  0  0  0  0  0
  141.4580   71.5470  221.1760 N   0  0  0  0  0  0  0  0  0  0  0  0
  141.9900   72.2610  220.1700 C   0  0  0  0  0  0  0  0  0  0  0  0
  142.5780   71.5970  219.0590 N   0  0  0  0  0  0  0  0  0  0  0  0
  141.7470   70.7930  218.1710 C   0  0  0  0  0  0  0  0  0  0  0  0
  142.3510   69.4730  217.8250 C   0  0  0  0  0  0  0  0  0  0  0  0
  143.7230   69.2740  218.3370 C   0  0  0  0  0  0  0  0  0  0  0  0
  144.2430   68.0000  218.3630 C   0  0  0  0  0  0  0  0  0  0  0  0
  145.5150   67.7120  218.8220 C   0  0  0  0  0  0  0  0  0  0  0  0
  146.2850   68.7680  219.2720 C   0  0  0  0  0  0  0  0  0  0  0  0
  145.8180   70.0680  219.2710 C   0  0  0  0  0  0  0  0  0  0  0  0
  144.5310   70.2920  218.7960 C   0  0  0  0  0  0  0  0  0  0  0  0
  143.9940   71.6970  218.7830 C   0  0  0  0  0  0  0  0  0  0  0  0
  141.9590   73.6000  220.2290 N   0  0  0  0  0  0  0  0  0  0  0  0
  141.4010   74.2580  221.2820 C   0  0  0  0  0  0  0  0  0  0  0  0
  141.4000   75.6640  221.2850 N   0  0  0  0  0  0  0  0  0  0  0  0
  142.0740   76.3450  220.1910 C   0  0  0  0  0  0  0  0  0  0  0  0
  141.2780   77.6060  219.8890 C   0  0  0  0  0  0  0  0  0  0  0  0
  141.4260   78.4500  221.1130 C   0  0  0  0  0  0  0  0  0  0  0  0
  141.8090   79.7740  221.0520 C   0  0  0  0  0  0  0  0  0  0  0  0
  141.9220   80.4820  222.2310 C   0  0  0  0  0  0  0  0  0  0  0  0
  141.6620   79.9040  223.4730 C   0  0  0  0  0  0  0  0  0  0  0  0
  141.2790   78.5600  223.4760 C   0  0  0  0  0  0  0  0  0  0  0  0
  141.1570   77.8290  222.3180 C   0  0  0  0  0  0  0  0  0  0  0  0
  140.7450   76.3890  222.3480 C   0  0  0  0  0  0  0  0  0  0  0  0
  140.8790   73.5060  222.2680 N   0  0  0  0  0  0  0  0  0  0  0  0
  140.9700   71.3480  224.5900 C   0  0  0  0  0  0  0  0  0  0  0  0
  140.0470   70.9810  225.6960 C   0  0  0  0  0  0  0  0  0  0  0  0
  140.8140   67.4980  227.9310 H   0  0  0  0  0  0  0  0  0  0  0  0
  141.8240   67.4910  226.4170 H   0  0  0  0  0  0  0  0  0  0  0  0
  137.7893   68.4689  226.2131 H   0  0  0  0  0  0  0  0  0  0  0  0
  139.0065   69.2672  227.3207 H   0  0  0  0  0  0  0  0  0  0  0  0
  138.0332   70.6457  225.3988 H   0  0  0  0  0  0  0  0  0  0  0  0
  140.1761   68.9448  223.9490 H   0  0  0  0  0  0  0  0  0  0  0  0
  138.4455   68.6626  223.7398 H   0  0  0  0  0  0  0  0  0  0  0  0
  139.1367   70.2549  221.9689 H   0  0  0  0  0  0  0  0  0  0  0  0
  138.2275   71.2158  223.1346 H   0  0  0  0  0  0  0  0  0  0  0  0
  140.7803   70.6150  218.6649 H   0  0  0  0  0  0  0  0  0  0  0  0
  141.6379   71.3555  217.2320 H   0  0  0  0  0  0  0  0  0  0  0  0
  141.7104   68.6821  218.2422 H   0  0  0  0  0  0  0  0  0  0  0  0
  142.4183   69.4376  216.7276 H   0  0  0  0  0  0  0  0  0  0  0  0
  143.6166   67.1712  218.0013 H   0  0  0  0  0  0  0  0  0  0  0  0
  145.8997   66.6815  218.8288 H   0  0  0  0  0  0  0  0  0  0  0  0
  147.3011   68.5669  219.6424 H   0  0  0  0  0  0  0  0  0  0  0  0
  146.4430   70.8974  219.6336 H   0  0  0  0  0  0  0  0  0  0  0  0
  144.4904   72.3009  219.5569 H   0  0  0  0  0  0  0  0  0  0  0  0
  144.1773   72.1844  217.8141 H   0  0  0  0  0  0  0  0  0  0  0  0
  143.1004   76.6086  220.4862 H   0  0  0  0  0  0  0  0  0  0  0  0
  142.1318   75.6973  219.3038 H   0  0  0  0  0  0  0  0  0  0  0  0
  141.6891   78.1229  219.0093 H   0  0  0  0  0  0  0  0  0  0  0  0
  140.2247   77.3881  219.6585 H   0  0  0  0  0  0  0  0  0  0  0  0
  142.0196   80.2545  220.0852 H   0  0  0  0  0  0  0  0  0  0  0  0
  142.2275   81.5379  222.1897 H   0  0  0  0  0  0  0  0  0  0  0  0
  141.7540   80.4788  224.4064 H   0  0  0  0  0  0  0  0  0  0  0  0
  141.0679   78.0701  224.4380 H   0  0  0  0  0  0  0  0  0  0  0  0
  141.0276   75.9497  223.3161 H   0  0  0  0  0  0  0  0  0  0  0  0
  139.6555   76.3230  222.2112 H   0  0  0  0  0  0  0  0  0  0  0  0
  141.7888   70.6139  224.5646 H   0  0  0  0  0  0  0  0  0  0  0  0
  141.3235   72.3692  224.7956 H   0  0  0  0  0  0  0  0  0  0  0  0
  140.6474   70.5205  226.4944 H   0  0  0  0  0  0  0  0  0  0  0  0
  139.5487   71.9182  225.9846 H   0  0  0  0  0  0  0  0  0  0  0  0
  1  2  1  0
  2  3  2  0
  2  4  1  0
  4  5  1  0
  5  6  1  0
  6  7  1  0
  7  8  1  0
  8  9  1  0
  9 10  2  0
 10 11  1  0
 11 12  1  0
 12 13  1  0
 13 14  1  0
 14 15  1  0
 15 16  2  0
 16 17  1  0
 17 18  2  0
 18 19  1  0
 19 20  2  0
 20 21  1  0
 11 22  2  0
 22 23  1  0
 23 24  1  0
 24 25  1  0
 25 26  1  0
 26 27  1  0
 27 28  2  0
 28 29  1  0
 29 30  2  0
 30 31  1  0
 31 32  2  0
 32 33  1  0
 23 34  2  0
  8 35  1  0
 35 36  1  0
 36  5  1  0
 34  9  1  0
 21 12  1  0
 33 24  1  0
 20 15  1  0
 32 27  1  0
  1 37  1  0
  1 38  1  0
  4 39  1  0
  4 40  1  0
  5 41  1  0
  6 42  1  0
  6 43  1  0
  7 44  1  0
  7 45  1  0
 13 46  1  0
 13 47  1  0
 14 48  1  0
 14 49  1  0
 16 50  1  0
 17 51  1  0
 18 52  1  0
 19 53  1  0
 21 54  1  0
 21 55  1  0
 25 56  1  0
 25 57  1  0
 26 58  1  0
 26 59  1  0
 28 60  1  0
 29 61  1  0
 30 62  1  0
 31 63  1  0
 33 64  1  0
 33 65  1  0
 35 66  1  0
 35 67  1  0
 36 68  1  0
 36 69  1  0
M  END
>  <smiles>  (45) 
NC(=O)CC1CCN(c2nc(N3CCc4ccccc4C3)nc(N3CCc4ccccc4C3)n2)CC1

>  <score_type>  (45) 
oracle

>  <origin>  (45) 
autodockgpu

>  <m_score__min__energy>  (45) 
-9.3499999999999996

>  <m_primary>  (45) 
energy

>  <rmsd>  (45) 
8.971947671452963

>  <m_score__min__rmsd>  (45) 
8.971947671452963

>  <meeko>  (45) 
{"free_energy": -9.24, "intermolecular_energy": -10.73, "internal_energy": -1.02, "cluster_size": 28, "cluster_id": 1, "rank_in_cluster": 2}

>  <energy>  (45) 
-8.73

>  <cluster_rmsd>  (45) 
0.0

>  <cluster>  (45) 
4

$$$$

     RDKit          3D

 69 74  0  0  0  0  0  0  0  0999 V2000
  140.4760   67.4130  226.4250 N   0  0  0  0  0  0  0  0  0  0  0  0
  139.5710   68.4790  226.6470 C   0  0  0  0  0  0  0  0  0  0  0  0
  139.6840   69.2110  227.6870 O   0  0  0  0  0  0  0  0  0  0  0  0
  138.4740   68.8010  225.7190 C   0  0  0  0  0  0  0  0  0  0  0  0
  138.6670   70.1020  224.9730 C   0  0  0  0  0  0  0  0  0  0  0  0
  138.8920   69.7300  223.5220 C   0  0  0  0  0  0  0  0  0  0  0  0
  138.8920   71.0610  222.7620 C   0  0  0  0  0  0  0  0  0  0  0  0
  140.1220   71.7170  223.1600 N   0  0  0  0  0  0  0  0  0  0  0  0
  140.7130   72.6460  222.2590 C   0  0  0  0  0  0  0  0  0  0  0  0
  140.3050   73.9280  222.2690 N   0  0  0  0  0  0  0  0  0  0  0  0
  140.8450   74.8280  221.4290 C   0  0  0  0  0  0  0  0  0  0  0  0
  140.4030   76.1790  221.4530 N   0  0  0  0  0  0  0  0  0  0  0  0
  140.1710   76.8890  220.2000 C   0  0  0  0  0  0  0  0  0  0  0  0
  140.7360   78.2700  220.1870 C   0  0  0  0  0  0  0  0  0  0  0  0
  141.3110   78.7090  221.4760 C   0  0  0  0  0  0  0  0  0  0  0  0
  142.1370   79.8100  221.4920 C   0  0  0  0  0  0  0  0  0  0  0  0
  142.7220   80.2990  222.6460 C   0  0  0  0  0  0  0  0  0  0  0  0
  142.4520   79.6360  223.8280 C   0  0  0  0  0  0  0  0  0  0  0  0
  141.6310   78.5260  223.8750 C   0  0  0  0  0  0  0  0  0  0  0  0
  141.0730   78.0850  222.6800 C   0  0  0  0  0  0  0  0  0  0  0  0
  140.1760   76.8770  222.6990 C   0  0  0  0  0  0  0  0  0  0  0  0
  141.8000   74.4360  220.5740 N   0  0  0  0  0  0  0  0  0  0  0  0
  142.2400   73.1480  220.5330 C   0  0  0  0  0  0  0  0  0  0  0  0
  143.2450   72.7990  219.6140 N   0  0  0  0  0  0  0  0  0  0  0  0
  143.1880   73.3960  218.2880 C   0  0  0  0  0  0  0  0  0  0  0  0
  144.6220   73.6290  217.8390 C   0  0  0  0  0  0  0  0  0  0  0  0
  145.2030   72.2600  217.6990 C   0  0  0  0  0  0  0  0  0  0  0  0
  145.8770   71.8590  216.5630 C   0  0  0  0  0  0  0  0  0  0  0  0
  146.3820   70.5750  216.5160 C   0  0  0  0  0  0  0  0  0  0  0  0
  146.2330   69.6780  217.5730 C   0  0  0  0  0  0  0  0  0  0  0  0
  145.5420   70.1370  218.6970 C   0  0  0  0  0  0  0  0  0  0  0  0
  145.0280   71.4100  218.7750 C   0  0  0  0  0  0  0  0  0  0  0  0
  144.2900   71.8770  219.9920 C   0  0  0  0  0  0  0  0  0  0  0  0
  141.6740   72.2790  221.3900 N   0  0  0  0  0  0  0  0  0  0  0  0
  140.7430   71.4410  224.4400 C   0  0  0  0  0  0  0  0  0  0  0  0
  139.8020   70.9270  225.4690 C   0  0  0  0  0  0  0  0  0  0  0  0
  140.9840   67.3100  225.5220 H   0  0  0  0  0  0  0  0  0  0  0  0
  140.6090   66.7350  227.2080 H   0  0  0  0  0  0  0  0  0  0  0  0
  138.3929   67.9879  224.9826 H   0  0  0  0  0  0  0  0  0  0  0  0
  137.5634   68.9121  226.3260 H   0  0  0  0  0  0  0  0  0  0  0  0
  137.7759   70.7294  225.1223 H   0  0  0  0  0  0  0  0  0  0  0  0
  139.8571   69.2163  223.4005 H   0  0  0  0  0  0  0  0  0  0  0  0
  138.1182   69.0431  223.1487 H   0  0  0  0  0  0  0  0  0  0  0  0
  138.8801   70.8867  221.6760 H   0  0  0  0  0  0  0  0  0  0  0  0
  138.0048   71.6694  222.9917 H   0  0  0  0  0  0  0  0  0  0  0  0
  140.6339   76.3154  219.3835 H   0  0  0  0  0  0  0  0  0  0  0  0
  139.0819   76.9830  220.0773 H   0  0  0  0  0  0  0  0  0  0  0  0
  141.5290   78.3097  219.4257 H   0  0  0  0  0  0  0  0  0  0  0  0
  139.8980   78.9489  219.9708 H   0  0  0  0  0  0  0  0  0  0  0  0
  142.3415   80.3254  220.5420 H   0  0  0  0  0  0  0  0  0  0  0  0
  143.3773   81.1822  222.6237 H   0  0  0  0  0  0  0  0  0  0  0  0
  142.9050   80.0036  224.7606 H   0  0  0  0  0  0  0  0  0  0  0  0
  141.4259   78.0092  224.8241 H   0  0  0  0  0  0  0  0  0  0  0  0
  140.4300   76.2281  223.5501 H   0  0  0  0  0  0  0  0  0  0  0  0
  139.1203   77.1664  222.8068 H   0  0  0  0  0  0  0  0  0  0  0  0
  142.6801   72.7149  217.5893 H   0  0  0  0  0  0  0  0  0  0  0  0
  142.6263   74.3416  218.3088 H   0  0  0  0  0  0  0  0  0  0  0  0
  144.6455   74.1606  216.8763 H   0  0  0  0  0  0  0  0  0  0  0  0
  145.1855   74.2493  218.5516 H   0  0  0  0  0  0  0  0  0  0  0  0
  146.0087   72.5468  215.7147 H   0  0  0  0  0  0  0  0  0  0  0  0
  146.9203   70.2485  215.6140 H   0  0  0  0  0  0  0  0  0  0  0  0
  146.6402   68.6573  217.5242 H   0  0  0  0  0  0  0  0  0  0  0  0
  145.4042   69.4560  219.5498 H   0  0  0  0  0  0  0  0  0  0  0  0
  143.8439   71.0105  220.5021 H   0  0  0  0  0  0  0  0  0  0  0  0
  144.9936   72.3865  220.6668 H   0  0  0  0  0  0  0  0  0  0  0  0
  141.5323   70.6903  224.2870 H   0  0  0  0  0  0  0  0  0  0  0  0
  141.1357   72.3971  224.8164 H   0  0  0  0  0  0  0  0  0  0  0  0
  140.3802   70.3118  226.1741 H   0  0  0  0  0  0  0  0  0  0  0  0
  139.3412   71.8200  225.9164 H   0  0  0  0  0  0  0  0  0  0  0  0
  1  2  1  0
  2  3  2  0
  2  4  1  0
  4  5  1  0
  5  6  1  0
  6  7  1  0
  7  8  1  0
  8  9  1  0
  9 10  2  0
 10 11  1  0
 11 12  1  0
 12 13  1  0
 13 14  1  0
 14 15  1  0
 15 16  2  0
 16 17  1  0
 17 18  2  0
 18 19  1  0
 19 20  2  0
 20 21  1  0
 11 22  2  0
 22 23  1  0
 23 24  1  0
 24 25  1  0
 25 26  1  0
 26 27  1  0
 27 28  2  0
 28 29  1  0
 29 30  2  0
 30 31  1  0
 31 32  2  0
 32 33  1  0
 23 34  2  0
  8 35  1  0
 35 36  1  0
 36  5  1  0
 34  9  1  0
 21 12  1  0
 33 24  1  0
 20 15  1  0
 32 27  1  0
  1 37  1  0
  1 38  1  0
  4 39  1  0
  4 40  1  0
  5 41  1  0
  6 42  1  0
  6 43  1  0
  7 44  1  0
  7 45  1  0
 13 46  1  0
 13 47  1  0
 14 48  1  0
 14 49  1  0
 16 50  1  0
 17 51  1  0
 18 52  1  0
 19 53  1  0
 21 54  1  0
 21 55  1  0
 25 56  1  0
 25 57  1  0
 26 58  1  0
 26 59  1  0
 28 60  1  0
 29 61  1  0
 30 62  1  0
 31 63  1  0
 33 64  1  0
 33 65  1  0
 35 66  1  0
 35 67  1  0
 36 68  1  0
 36 69  1  0
M  END
>  <smiles>  (46) 
NC(=O)CC1CCN(c2nc(N3CCc4ccccc4C3)nc(N3CCc4ccccc4C3)n2)CC1

>  <score_type>  (46) 
oracle

>  <origin>  (46) 
autodockgpu

>  <m_score__min__energy>  (46) 
-9.3499999999999996

>  <m_primary>  (46) 
energy

>  <rmsd>  (46) 
8.595566178558416

>  <m_score__min__rmsd>  (46) 
8.595566178558416

>  <meeko>  (46) 
{"free_energy": -9.13, "intermolecular_energy": -10.62, "internal_energy": -1.09, "cluster_size": 28, "cluster_id": 1, "rank_in_cluster": 6}

>  <energy>  (46) 
-8.7

>  <cluster_rmsd>  (46) 
0.3

>  <cluster>  (46) 
4

$$$$

     RDKit          3D

 69 74  0  0  0  0  0  0  0  0999 V2000
  142.5410   79.0440  222.1490 N   0  0  0  0  0  0  0  0  0  0  0  0
  141.6610   79.8340  221.3710 C   0  0  0  0  0  0  0  0  0  0  0  0
  142.0870   80.8930  220.7970 O   0  0  0  0  0  0  0  0  0  0  0  0
  140.2410   79.4960  221.1800 C   0  0  0  0  0  0  0  0  0  0  0  0
  139.9920   78.0240  220.9400 C   0  0  0  0  0  0  0  0  0  0  0  0
  139.9690   77.3690  222.3060 C   0  0  0  0  0  0  0  0  0  0  0  0
  139.5260   75.9240  222.0510 C   0  0  0  0  0  0  0  0  0  0  0  0
  140.6480   75.3040  221.3730 N   0  0  0  0  0  0  0  0  0  0  0  0
  140.8220   73.8980  221.5030 C   0  0  0  0  0  0  0  0  0  0  0  0
  141.2740   73.1880  220.4540 N   0  0  0  0  0  0  0  0  0  0  0  0
  141.4480   71.8580  220.5470 C   0  0  0  0  0  0  0  0  0  0  0  0
  141.9270   71.1230  219.4290 N   0  0  0  0  0  0  0  0  0  0  0  0
  141.0720   70.1230  218.7980 C   0  0  0  0  0  0  0  0  0  0  0  0
  141.7780   68.8430  218.4980 C   0  0  0  0  0  0  0  0  0  0  0  0
  143.2290   68.8630  218.7750 C   0  0  0  0  0  0  0  0  0  0  0  0
  143.9070   67.6680  218.8480 C   0  0  0  0  0  0  0  0  0  0  0  0
  145.2640   67.5820  219.1000 C   0  0  0  0  0  0  0  0  0  0  0  0
  145.9530   68.7650  219.2860 C   0  0  0  0  0  0  0  0  0  0  0  0
  145.3280   69.9960  219.2250 C   0  0  0  0  0  0  0  0  0  0  0  0
  143.9620   70.0130  218.9660 C   0  0  0  0  0  0  0  0  0  0  0  0
  143.2530   71.3380  218.8950 C   0  0  0  0  0  0  0  0  0  0  0  0
  141.1660   71.2400  221.7030 N   0  0  0  0  0  0  0  0  0  0  0  0
  140.7070   71.9240  222.7870 C   0  0  0  0  0  0  0  0  0  0  0  0
  140.4290   71.2180  223.9710 N   0  0  0  0  0  0  0  0  0  0  0  0
  139.3960   70.1940  223.9230 C   0  0  0  0  0  0  0  0  0  0  0  0
  139.8320   69.0740  224.8550 C   0  0  0  0  0  0  0  0  0  0  0  0
  139.8080   69.6840  226.2190 C   0  0  0  0  0  0  0  0  0  0  0  0
  139.1650   69.0840  227.2820 C   0  0  0  0  0  0  0  0  0  0  0  0
  139.1910   69.7170  228.5090 C   0  0  0  0  0  0  0  0  0  0  0  0
  139.8430   70.9330  228.7040 C   0  0  0  0  0  0  0  0  0  0  0  0
  140.4760   71.4950  227.5940 C   0  0  0  0  0  0  0  0  0  0  0  0
  140.4690   70.8900  226.3590 C   0  0  0  0  0  0  0  0  0  0  0  0
  141.1550   71.5140  225.1830 C   0  0  0  0  0  0  0  0  0  0  0  0
  140.5470   73.2520  222.6520 N   0  0  0  0  0  0  0  0  0  0  0  0
  141.5750   76.0880  220.5800 C   0  0  0  0  0  0  0  0  0  0  0  0
  141.0070   77.3650  220.0750 C   0  0  0  0  0  0  0  0  0  0  0  0
  142.6320   78.0190  221.9930 H   0  0  0  0  0  0  0  0  0  0  0  0
  143.0930   79.5370  222.8860 H   0  0  0  0  0  0  0  0  0  0  0  0
  139.6879   79.7991  222.0812 H   0  0  0  0  0  0  0  0  0  0  0  0
  139.9025   80.0296  220.2796 H   0  0  0  0  0  0  0  0  0  0  0  0
  139.0436   77.9121  220.3941 H   0  0  0  0  0  0  0  0  0  0  0  0
  140.9701   77.3910  222.7613 H   0  0  0  0  0  0  0  0  0  0  0  0
  139.2934   77.8898  223.0005 H   0  0  0  0  0  0  0  0  0  0  0  0
  139.3158   75.4103  223.0007 H   0  0  0  0  0  0  0  0  0  0  0  0
  138.6026   75.8729  221.4554 H   0  0  0  0  0  0  0  0  0  0  0  0
  140.2310   69.9072  219.4734 H   0  0  0  0  0  0  0  0  0  0  0  0
  140.7374   70.5418  217.8375 H   0  0  0  0  0  0  0  0  0  0  0  0
  141.3229   68.0487  219.1079 H   0  0  0  0  0  0  0  0  0  0  0  0
  141.6687   68.6719  217.4169 H   0  0  0  0  0  0  0  0  0  0  0  0
  143.3423   66.7359  218.6987 H   0  0  0  0  0  0  0  0  0  0  0  0
  145.7751   66.6093  219.1504 H   0  0  0  0  0  0  0  0  0  0  0  0
  147.0334   68.7258  219.4891 H   0  0  0  0  0  0  0  0  0  0  0  0
  145.8909   70.9289  219.3759 H   0  0  0  0  0  0  0  0  0  0  0  0
  143.7879   72.0879  219.4963 H   0  0  0  0  0  0  0  0  0  0  0  0
  143.2098   71.7112  217.8612 H   0  0  0  0  0  0  0  0  0  0  0  0
  138.4352   70.6114  224.2586 H   0  0  0  0  0  0  0  0  0  0  0  0
  139.2633   69.8199  222.8971 H   0  0  0  0  0  0  0  0  0  0  0  0
  139.1329   68.2267  224.7967 H   0  0  0  0  0  0  0  0  0  0  0  0
  140.8245   68.6780  224.5938 H   0  0  0  0  0  0  0  0  0  0  0  0
  138.6437   68.1237  227.1551 H   0  0  0  0  0  0  0  0  0  0  0  0
  138.6798   69.2454  229.3612 H   0  0  0  0  0  0  0  0  0  0  0  0
  139.8582   71.4270  229.6867 H   0  0  0  0  0  0  0  0  0  0  0  0
  140.9988   72.4557  227.7113 H   0  0  0  0  0  0  0  0  0  0  0  0
  141.1991   72.6041  225.3237 H   0  0  0  0  0  0  0  0  0  0  0  0
  142.1732   71.1057  225.1017 H   0  0  0  0  0  0  0  0  0  0  0  0
  142.4515   76.3212  221.2024 H   0  0  0  0  0  0  0  0  0  0  0  0
  141.8313   75.4824  219.6982 H   0  0  0  0  0  0  0  0  0  0  0  0
  141.8395   78.0709  219.9382 H   0  0  0  0  0  0  0  0  0  0  0  0
  140.4759   77.1028  219.1481 H   0  0  0  0  0  0  0  0  0  0  0  0
  1  2  1  0
  2  3  2  0
  2  4  1  0
  4  5  1  0
  5  6  1  0
  6  7  1  0
  7  8  1  0
  8  9  1  0
  9 10  2  0
 10 11  1  0
 11 12  1  0
 12 13  1  0
 13 14  1  0
 14 15  1  0
 15 16  2  0
 16 17  1  0
 17 18  2  0
 18 19  1  0
 19 20  2  0
 20 21  1  0
 11 22  2  0
 22 23  1  0
 23 24  1  0
 24 25  1  0
 25 26  1  0
 26 27  1  0
 27 28  2  0
 28 29  1  0
 29 30  2  0
 30 31  1  0
 31 32  2  0
 32 33  1  0
 23 34  2  0
  8 35  1  0
 35 36  1  0
 36  5  1  0
 34  9  1  0
 21 12  1  0
 33 24  1  0
 20 15  1  0
 32 27  1  0
  1 37  1  0
  1 38  1  0
  4 39  1  0
  4 40  1  0
  5 41  1  0
  6 42  1  0
  6 43  1  0
  7 44  1  0
  7 45  1  0
 13 46  1  0
 13 47  1  0
 14 48  1  0
 14 49  1  0
 16 50  1  0
 17 51  1  0
 18 52  1  0
 19 53  1  0
 21 54  1  0
 21 55  1  0
 25 56  1  0
 25 57  1  0
 26 58  1  0
 26 59  1  0
 28 60  1  0
 29 61  1  0
 30 62  1  0
 31 63  1  0
 33 64  1  0
 33 65  1  0
 35 66  1  0
 35 67  1  0
 36 68  1  0
 36 69  1  0
M  END
>  <smiles>  (47) 
NC(=O)CC1CCN(c2nc(N3CCc4ccccc4C3)nc(N3CCc4ccccc4C3)n2)CC1

>  <score_type>  (47) 
oracle

>  <origin>  (47) 
autodockgpu

>  <m_score__min__energy>  (47) 
-9.3499999999999996

>  <m_primary>  (47) 
energy

>  <rmsd>  (47) 
3.8797953979244055

>  <m_score__min__rmsd>  (47) 
3.8797953979244055

>  <meeko>  (47) 
{"free_energy": -8.7, "intermolecular_energy": -10.19, "internal_energy": -1.12, "cluster_size": 15, "cluster_id": 2, "rank_in_cluster": 13}

>  <energy>  (47) 
-8.48

>  <cluster_rmsd>  (47) 
0.72

>  <cluster>  (47) 
4

$$$$

     RDKit          3D

 69 74  0  0  0  0  0  0  0  0999 V2000
  142.5740   79.2480  222.2630 N   0  0  0  0  0  0  0  0  0  0  0  0
  141.2160   79.6380  222.1640 C   0  0  0  0  0  0  0  0  0  0  0  0
  140.6560   80.2640  223.1260 O   0  0  0  0  0  0  0  0  0  0  0  0
  140.3900   79.3570  220.9790 C   0  0  0  0  0  0  0  0  0  0  0  0
  140.2080   77.8820  220.6980 C   0  0  0  0  0  0  0  0  0  0  0  0
  139.7950   77.2480  222.0100 C   0  0  0  0  0  0  0  0  0  0  0  0
  139.4320   75.8010  221.6610 C   0  0  0  0  0  0  0  0  0  0  0  0
  140.6950   75.1680  221.3350 N   0  0  0  0  0  0  0  0  0  0  0  0
  140.8150   73.7630  221.5290 C   0  0  0  0  0  0  0  0  0  0  0  0
  141.1890   72.9830  220.4980 N   0  0  0  0  0  0  0  0  0  0  0  0
  141.3100   71.6530  220.6510 C   0  0  0  0  0  0  0  0  0  0  0  0
  141.7060   70.8440  219.5520 N   0  0  0  0  0  0  0  0  0  0  0  0
  140.7890   69.8410  219.0210 C   0  0  0  0  0  0  0  0  0  0  0  0
  141.4390   68.5240  218.7560 C   0  0  0  0  0  0  0  0  0  0  0  0
  142.9030   68.5110  218.9560 C   0  0  0  0  0  0  0  0  0  0  0  0
  143.5470   67.2990  219.0590 C   0  0  0  0  0  0  0  0  0  0  0  0
  144.9120   67.1820  219.2460 C   0  0  0  0  0  0  0  0  0  0  0  0
  145.6460   68.3500  219.3320 C   0  0  0  0  0  0  0  0  0  0  0  0
  145.0570   69.5960  219.2350 C   0  0  0  0  0  0  0  0  0  0  0  0
  143.6800   69.6450  219.0460 C   0  0  0  0  0  0  0  0  0  0  0  0
  143.0080   70.9870  218.9390 C   0  0  0  0  0  0  0  0  0  0  0  0
  141.0540   71.1050  221.8470 N   0  0  0  0  0  0  0  0  0  0  0  0
  140.6740   71.8600  222.9140 C   0  0  0  0  0  0  0  0  0  0  0  0
  140.4190   71.2250  224.1430 N   0  0  0  0  0  0  0  0  0  0  0  0
  141.2140   71.6290  225.2920 C   0  0  0  0  0  0  0  0  0  0  0  0
  140.3080   71.5610  226.5110 C   0  0  0  0  0  0  0  0  0  0  0  0
  139.9870   70.1100  226.6650 C   0  0  0  0  0  0  0  0  0  0  0  0
  140.1280   69.4480  227.8670 C   0  0  0  0  0  0  0  0  0  0  0  0
  139.8100   68.1060  227.9220 C   0  0  0  0  0  0  0  0  0  0  0  0
  139.3530   67.4050  226.8070 C   0  0  0  0  0  0  0  0  0  0  0  0
  139.2300   68.1240  225.6160 C   0  0  0  0  0  0  0  0  0  0  0  0
  139.5380   69.4610  225.5300 C   0  0  0  0  0  0  0  0  0  0  0  0
  139.3970   70.2100  224.2400 C   0  0  0  0  0  0  0  0  0  0  0  0
  140.5640   73.1860  222.7190 N   0  0  0  0  0  0  0  0  0  0  0  0
  141.8140   75.9360  220.8270 C   0  0  0  0  0  0  0  0  0  0  0  0
  141.4220   77.2070  220.1650 C   0  0  0  0  0  0  0  0  0  0  0  0
  143.2620   79.4810  221.5190 H   0  0  0  0  0  0  0  0  0  0  0  0
  142.8510   78.7150  223.1180 H   0  0  0  0  0  0  0  0  0  0  0  0
  139.3976   79.8057  221.1336 H   0  0  0  0  0  0  0  0  0  0  0  0
  140.9155   79.7858  220.1130 H   0  0  0  0  0  0  0  0  0  0  0  0
  139.4520   77.7648  219.9076 H   0  0  0  0  0  0  0  0  0  0  0  0
  140.6266   77.2741  222.7296 H   0  0  0  0  0  0  0  0  0  0  0  0
  138.9540   77.7813  222.4773 H   0  0  0  0  0  0  0  0  0  0  0  0
  138.9596   75.3025  222.5202 H   0  0  0  0  0  0  0  0  0  0  0  0
  138.7132   75.7431  220.8304 H   0  0  0  0  0  0  0  0  0  0  0  0
  139.9785   69.6895  219.7491 H   0  0  0  0  0  0  0  0  0  0  0  0
  140.4172   70.2191  218.0572 H   0  0  0  0  0  0  0  0  0  0  0  0
  140.9935   67.7790  219.4317 H   0  0  0  0  0  0  0  0  0  0  0  0
  141.2668   68.2988  217.6931 H   0  0  0  0  0  0  0  0  0  0  0  0
  142.9472   66.3796  218.9892 H   0  0  0  0  0  0  0  0  0  0  0  0
  145.3953   66.1969  219.3234 H   0  0  0  0  0  0  0  0  0  0  0  0
  146.7337   68.2855  219.4825 H   0  0  0  0  0  0  0  0  0  0  0  0
  145.6557   70.5162  219.3047 H   0  0  0  0  0  0  0  0  0  0  0  0
  143.5963   71.7500  219.4698 H   0  0  0  0  0  0  0  0  0  0  0  0
  142.9210   71.3059  217.8898 H   0  0  0  0  0  0  0  0  0  0  0  0
  142.0678   70.9470  225.4183 H   0  0  0  0  0  0  0  0  0  0  0  0
  141.6095   72.6463  225.1553 H   0  0  0  0  0  0  0  0  0  0  0  0
  140.8287   71.9398  227.4028 H   0  0  0  0  0  0  0  0  0  0  0  0
  139.4042   72.1767  226.3925 H   0  0  0  0  0  0  0  0  0  0  0  0
  140.4860   69.9780  228.7620 H   0  0  0  0  0  0  0  0  0  0  0  0
  139.9208   67.5719  228.8772 H   0  0  0  0  0  0  0  0  0  0  0  0
  139.1011   66.3357  226.8627 H   0  0  0  0  0  0  0  0  0  0  0  0
  138.8742   67.6022  224.7153 H   0  0  0  0  0  0  0  0  0  0  0  0
  139.4994   69.5087  223.3988 H   0  0  0  0  0  0  0  0  0  0  0  0
  138.4078   70.6900  224.2080 H   0  0  0  0  0  0  0  0  0  0  0  0
  142.4802   76.1754  221.6689 H   0  0  0  0  0  0  0  0  0  0  0  0
  142.3050   75.3163  220.0622 H   0  0  0  0  0  0  0  0  0  0  0  0
  142.2642   77.9081  220.2606 H   0  0  0  0  0  0  0  0  0  0  0  0
  141.1736   76.9331  219.1290 H   0  0  0  0  0  0  0  0  0  0  0  0
  1  2  1  0
  2  3  2  0
  2  4  1  0
  4  5  1  0
  5  6  1  0
  6  7  1  0
  7  8  1  0
  8  9  1  0
  9 10  2  0
 10 11  1  0
 11 12  1  0
 12 13  1  0
 13 14  1  0
 14 15  1  0
 15 16  2  0
 16 17  1  0
 17 18  2  0
 18 19  1  0
 19 20  2  0
 20 21  1  0
 11 22  2  0
 22 23  1  0
 23 24  1  0
 24 25  1  0
 25 26  1  0
 26 27  1  0
 27 28  2  0
 28 29  1  0
 29 30  2  0
 30 31  1  0
 31 32  2  0
 32 33  1  0
 23 34  2  0
  8 35  1  0
 35 36  1  0
 36  5  1  0
 34  9  1  0
 21 12  1  0
 33 24  1  0
 20 15  1  0
 32 27  1  0
  1 37  1  0
  1 38  1  0
  4 39  1  0
  4 40  1  0
  5 41  1  0
  6 42  1  0
  6 43  1  0
  7 44  1  0
  7 45  1  0
 13 46  1  0
 13 47  1  0
 14 48  1  0
 14 49  1  0
 16 50  1  0
 17 51  1  0
 18 52  1  0
 19 53  1  0
 21 54  1  0
 21 55  1  0
 25 56  1  0
 25 57  1  0
 26 58  1  0
 26 59  1  0
 28 60  1  0
 29 61  1  0
 30 62  1  0
 31 63  1  0
 33 64  1  0
 33 65  1  0
 35 66  1  0
 35 67  1  0
 36 68  1  0
 36 69  1  0
M  END
>  <smiles>  (48) 
NC(=O)CC1CCN(c2nc(N3CCc4ccccc4C3)nc(N3CCc4ccccc4C3)n2)CC1

>  <score_type>  (48) 
oracle

>  <origin>  (48) 
autodockgpu

>  <m_score__min__energy>  (48) 
-9.3499999999999996

>  <m_primary>  (48) 
energy

>  <rmsd>  (48) 
3.7457215311451746

>  <m_score__min__rmsd>  (48) 
3.7457215311451746

>  <meeko>  (48) 
{"free_energy": -9.17, "intermolecular_energy": -10.66, "internal_energy": -1.17, "cluster_size": 15, "cluster_id": 2, "rank_in_cluster": 5}

>  <energy>  (48) 
-8.64

>  <cluster_rmsd>  (48) 
0.0

>  <cluster>  (48) 
5

$$$$

     RDKit          3D

 69 74  0  0  0  0  0  0  0  0999 V2000
  142.9680   79.3970  222.5770 N   0  0  0  0  0  0  0  0  0  0  0  0
  141.5970   79.7160  222.4170 C   0  0  0  0  0  0  0  0  0  0  0  0
  140.9500   80.2630  223.3730 O   0  0  0  0  0  0  0  0  0  0  0  0
  140.8550   79.4440  221.1760 C   0  0  0  0  0  0  0  0  0  0  0  0
  140.4450   77.9980  221.0130 C   0  0  0  0  0  0  0  0  0  0  0  0
  140.5690   77.3650  222.3830 C   0  0  0  0  0  0  0  0  0  0  0  0
  139.9690   75.9620  222.2340 C   0  0  0  0  0  0  0  0  0  0  0  0
  140.9200   75.2360  221.4150 N   0  0  0  0  0  0  0  0  0  0  0  0
  140.9890   73.8220  221.5540 C   0  0  0  0  0  0  0  0  0  0  0  0
  141.3870   73.0730  220.5100 N   0  0  0  0  0  0  0  0  0  0  0  0
  141.4610   71.7350  220.6120 C   0  0  0  0  0  0  0  0  0  0  0  0
  141.8840   70.9580  219.4990 N   0  0  0  0  0  0  0  0  0  0  0  0
  140.9910   69.9520  218.9350 C   0  0  0  0  0  0  0  0  0  0  0  0
  141.6670   68.6540  218.6470 C   0  0  0  0  0  0  0  0  0  0  0  0
  143.1290   68.6620  218.8630 C   0  0  0  0  0  0  0  0  0  0  0  0
  143.7930   67.4590  218.9460 C   0  0  0  0  0  0  0  0  0  0  0  0
  145.1580   67.3620  219.1460 C   0  0  0  0  0  0  0  0  0  0  0  0
  145.8700   68.5400  219.2670 C   0  0  0  0  0  0  0  0  0  0  0  0
  145.2590   69.7770  219.1920 C   0  0  0  0  0  0  0  0  0  0  0  0
  143.8840   69.8070  218.9890 C   0  0  0  0  0  0  0  0  0  0  0  0
  143.1900   71.1390  218.9050 C   0  0  0  0  0  0  0  0  0  0  0  0
  141.1330   71.1470  221.7710 N   0  0  0  0  0  0  0  0  0  0  0  0
  140.7270   71.8700  222.8510 C   0  0  0  0  0  0  0  0  0  0  0  0
  140.3960   71.1950  224.0390 N   0  0  0  0  0  0  0  0  0  0  0  0
  141.0880   71.5880  225.2570 C   0  0  0  0  0  0  0  0  0  0  0  0
  140.0910   71.4610  226.3990 C   0  0  0  0  0  0  0  0  0  0  0  0
  139.8020   69.9980  226.4900 C   0  0  0  0  0  0  0  0  0  0  0  0
  139.8700   69.3070  227.6830 C   0  0  0  0  0  0  0  0  0  0  0  0
  139.5880   67.9560  227.6780 C   0  0  0  0  0  0  0  0  0  0  0  0
  139.2400   67.2740  226.5130 C   0  0  0  0  0  0  0  0  0  0  0  0
  139.1880   68.0220  225.3350 C   0  0  0  0  0  0  0  0  0  0  0  0
  139.4620   69.3690  225.3080 C   0  0  0  0  0  0  0  0  0  0  0  0
  139.4000   70.1490  224.0300 C   0  0  0  0  0  0  0  0  0  0  0  0
  140.6650   73.2060  222.7070 N   0  0  0  0  0  0  0  0  0  0  0  0
  141.7840   75.9230  220.4750 C   0  0  0  0  0  0  0  0  0  0  0  0
  141.2610   77.2400  220.0260 C   0  0  0  0  0  0  0  0  0  0  0  0
  143.6810   79.7030  221.8840 H   0  0  0  0  0  0  0  0  0  0  0  0
  143.2280   78.8420  223.4220 H   0  0  0  0  0  0  0  0  0  0  0  0
  139.9466   80.0643  221.1724 H   0  0  0  0  0  0  0  0  0  0  0  0
  141.5308   79.6808  220.3410 H   0  0  0  0  0  0  0  0  0  0  0  0
  139.4198   77.9649  220.6157 H   0  0  0  0  0  0  0  0  0  0  0  0
  141.6249   77.3028  222.6849 H   0  0  0  0  0  0  0  0  0  0  0  0
  140.0521   77.9530  223.1556 H   0  0  0  0  0  0  0  0  0  0  0  0
  139.8587   75.4816  223.2174 H   0  0  0  0  0  0  0  0  0  0  0  0
  138.9662   75.9857  221.7826 H   0  0  0  0  0  0  0  0  0  0  0  0
  140.1757   69.7692  219.6504 H   0  0  0  0  0  0  0  0  0  0  0  0
  140.6227   70.3459  217.9762 H   0  0  0  0  0  0  0  0  0  0  0  0
  141.2276   67.8857  219.3002 H   0  0  0  0  0  0  0  0  0  0  0  0
  141.5104   68.4509  217.5773 H   0  0  0  0  0  0  0  0  0  0  0  0
  143.2104   66.5311  218.8486 H   0  0  0  0  0  0  0  0  0  0  0  0
  145.6580   66.3841  219.2065 H   0  0  0  0  0  0  0  0  0  0  0  0
  146.9571   68.4915  219.4280 H   0  0  0  0  0  0  0  0  0  0  0  0
  145.8403   70.7057  219.2895 H   0  0  0  0  0  0  0  0  0  0  0  0
  143.7583   71.8996  219.4604 H   0  0  0  0  0  0  0  0  0  0  0  0
  143.1097   71.4814  217.8627 H   0  0  0  0  0  0  0  0  0  0  0  0
  141.9488   70.9259  225.4323 H   0  0  0  0  0  0  0  0  0  0  0  0
  141.4639   72.6188  225.1784 H   0  0  0  0  0  0  0  0  0  0  0  0
  140.5287   71.8290  227.3387 H   0  0  0  0  0  0  0  0  0  0  0  0
  139.1814   72.0546  226.2250 H   0  0  0  0  0  0  0  0  0  0  0  0
  140.1427   69.8213  228.6163 H   0  0  0  0  0  0  0  0  0  0  0  0
  139.6395   67.3987  228.6250 H   0  0  0  0  0  0  0  0  0  0  0  0
  139.0168   66.1969  226.5213 H   0  0  0  0  0  0  0  0  0  0  0  0
  138.9185   67.5160  224.3962 H   0  0  0  0  0  0  0  0  0  0  0  0
  139.5887   69.4741  223.1821 H   0  0  0  0  0  0  0  0  0  0  0  0
  138.4024   70.6021  223.9324 H   0  0  0  0  0  0  0  0  0  0  0  0
  142.7601   76.0839  220.9560 H   0  0  0  0  0  0  0  0  0  0  0  0
  141.8529   75.2858  219.5810 H   0  0  0  0  0  0  0  0  0  0  0  0
  142.1225   77.8667  219.7520 H   0  0  0  0  0  0  0  0  0  0  0  0
  140.5786   77.0154  219.1930 H   0  0  0  0  0  0  0  0  0  0  0  0
  1  2  1  0
  2  3  2  0
  2  4  1  0
  4  5  1  0
  5  6  1  0
  6  7  1  0
  7  8  1  0
  8  9  1  0
  9 10  2  0
 10 11  1  0
 11 12  1  0
 12 13  1  0
 13 14  1  0
 14 15  1  0
 15 16  2  0
 16 17  1  0
 17 18  2  0
 18 19  1  0
 19 20  2  0
 20 21  1  0
 11 22  2  0
 22 23  1  0
 23 24  1  0
 24 25  1  0
 25 26  1  0
 26 27  1  0
 27 28  2  0
 28 29  1  0
 29 30  2  0
 30 31  1  0
 31 32  2  0
 32 33  1  0
 23 34  2  0
  8 35  1  0
 35 36  1  0
 36  5  1  0
 34  9  1  0
 21 12  1  0
 33 24  1  0
 20 15  1  0
 32 27  1  0
  1 37  1  0
  1 38  1  0
  4 39  1  0
  4 40  1  0
  5 41  1  0
  6 42  1  0
  6 43  1  0
  7 44  1  0
  7 45  1  0
 13 46  1  0
 13 47  1  0
 14 48  1  0
 14 49  1  0
 16 50  1  0
 17 51  1  0
 18 52  1  0
 19 53  1  0
 21 54  1  0
 21 55  1  0
 25 56  1  0
 25 57  1  0
 26 58  1  0
 26 59  1  0
 28 60  1  0
 29 61  1  0
 30 62  1  0
 31 63  1  0
 33 64  1  0
 33 65  1  0
 35 66  1  0
 35 67  1  0
 36 68  1  0
 36 69  1  0
M  END
>  <smiles>  (49) 
NC(=O)CC1CCN(c2nc(N3CCc4ccccc4C3)nc(N3CCc4ccccc4C3)n2)CC1

>  <score_type>  (49) 
oracle

>  <origin>  (49) 
autodockgpu

>  <m_score__min__energy>  (49) 
-9.3499999999999996

>  <m_primary>  (49) 
energy

>  <rmsd>  (49) 
3.966444947514763

>  <m_score__min__rmsd>  (49) 
3.966444947514763

>  <meeko>  (49) 
{"free_energy": -9.2, "intermolecular_energy": -10.69, "internal_energy": -1.16, "cluster_size": 15, "cluster_id": 2, "rank_in_cluster": 3}

>  <energy>  (49) 
-8.37

>  <cluster_rmsd>  (49) 
1.86

>  <cluster>  (49) 
5

$$$$

     RDKit          3D

 69 74  0  0  0  0  0  0  0  0999 V2000
  142.8880   79.6310  222.4630 N   0  0  0  0  0  0  0  0  0  0  0  0
  141.5390   79.9070  222.1340 C   0  0  0  0  0  0  0  0  0  0  0  0
  140.8090   80.5840  222.9340 O   0  0  0  0  0  0  0  0  0  0  0  0
  140.9120   79.4460  220.8850 C   0  0  0  0  0  0  0  0  0  0  0  0
  140.4160   78.0190  220.9420 C   0  0  0  0  0  0  0  0  0  0  0  0
  140.9920   77.4190  222.2080 C   0  0  0  0  0  0  0  0  0  0  0  0
  140.3250   76.0460  222.3420 C   0  0  0  0  0  0  0  0  0  0  0  0
  140.8950   75.2480  221.2730 N   0  0  0  0  0  0  0  0  0  0  0  0
  140.9530   73.8370  221.4430 C   0  0  0  0  0  0  0  0  0  0  0  0
  141.3290   73.0620  220.4090 N   0  0  0  0  0  0  0  0  0  0  0  0
  141.3940   71.7260  220.5400 C   0  0  0  0  0  0  0  0  0  0  0  0
  141.7930   70.9210  219.4390 N   0  0  0  0  0  0  0  0  0  0  0  0
  140.8750   69.9260  218.8960 C   0  0  0  0  0  0  0  0  0  0  0  0
  141.5210   68.6080  218.6260 C   0  0  0  0  0  0  0  0  0  0  0  0
  142.9840   68.5870  218.8360 C   0  0  0  0  0  0  0  0  0  0  0  0
  143.6220   67.3720  218.9360 C   0  0  0  0  0  0  0  0  0  0  0  0
  144.9850   67.2480  219.1300 C   0  0  0  0  0  0  0  0  0  0  0  0
  145.7240   68.4120  219.2270 C   0  0  0  0  0  0  0  0  0  0  0  0
  145.1400   69.6600  219.1350 C   0  0  0  0  0  0  0  0  0  0  0  0
  143.7650   69.7170  218.9380 C   0  0  0  0  0  0  0  0  0  0  0  0
  143.0990   71.0620  218.8350 C   0  0  0  0  0  0  0  0  0  0  0  0
  141.0780   71.1660  221.7170 N   0  0  0  0  0  0  0  0  0  0  0  0
  140.6940   71.9160  222.7860 C   0  0  0  0  0  0  0  0  0  0  0  0
  140.3750   71.2700  223.9940 N   0  0  0  0  0  0  0  0  0  0  0  0
  139.3210   70.2680  223.9690 C   0  0  0  0  0  0  0  0  0  0  0  0
  139.7110   69.1810  224.9580 C   0  0  0  0  0  0  0  0  0  0  0  0
  139.6740   69.8510  226.2930 C   0  0  0  0  0  0  0  0  0  0  0  0
  138.9960   69.3130  227.3680 C   0  0  0  0  0  0  0  0  0  0  0  0
  139.0110   69.9990  228.5660 C   0  0  0  0  0  0  0  0  0  0  0  0
  139.6870   71.2080  228.7210 C   0  0  0  0  0  0  0  0  0  0  0  0
  140.3550   71.7060  227.6010 C   0  0  0  0  0  0  0  0  0  0  0  0
  140.3590   71.0470  226.3940 C   0  0  0  0  0  0  0  0  0  0  0  0
  141.0840   71.6030  225.2070 C   0  0  0  0  0  0  0  0  0  0  0  0
  140.6420   73.2490  222.6140 N   0  0  0  0  0  0  0  0  0  0  0  0
  141.3950   75.8630  220.0600 C   0  0  0  0  0  0  0  0  0  0  0  0
  140.7980   77.1920  219.7660 C   0  0  0  0  0  0  0  0  0  0  0  0
  143.6630   79.8380  221.7990 H   0  0  0  0  0  0  0  0  0  0  0  0
  143.0700   79.2100  223.4010 H   0  0  0  0  0  0  0  0  0  0  0  0
  140.0571   80.1018  220.6635 H   0  0  0  0  0  0  0  0  0  0  0  0
  141.6860   79.4853  220.1044 H   0  0  0  0  0  0  0  0  0  0  0  0
  139.3161   78.0283  220.9335 H   0  0  0  0  0  0  0  0  0  0  0  0
  142.0833   77.3108  222.1217 H   0  0  0  0  0  0  0  0  0  0  0  0
  140.8045   78.0544  223.0861 H   0  0  0  0  0  0  0  0  0  0  0  0
  140.5518   75.5995  223.3214 H   0  0  0  0  0  0  0  0  0  0  0  0
  139.2291   76.1095  222.2721 H   0  0  0  0  0  0  0  0  0  0  0  0
  140.0596   69.7731  219.6183 H   0  0  0  0  0  0  0  0  0  0  0  0
  140.5105   70.3122  217.9327 H   0  0  0  0  0  0  0  0  0  0  0  0
  141.0675   67.8602  219.2932 H   0  0  0  0  0  0  0  0  0  0  0  0
  141.3552   68.3912  217.5604 H   0  0  0  0  0  0  0  0  0  0  0  0
  143.0186   66.4556  218.8578 H   0  0  0  0  0  0  0  0  0  0  0  0
  145.4634   66.2603  219.2044 H   0  0  0  0  0  0  0  0  0  0  0  0
  146.8107   68.3421  219.3823 H   0  0  0  0  0  0  0  0  0  0  0  0
  145.7419   70.5772  219.2148 H   0  0  0  0  0  0  0  0  0  0  0  0
  143.6871   71.8195  219.3739 H   0  0  0  0  0  0  0  0  0  0  0  0
  143.0195   71.3872  217.7872 H   0  0  0  0  0  0  0  0  0  0  0  0
  138.3632   70.7209  224.2650 H   0  0  0  0  0  0  0  0  0  0  0  0
  139.2017   69.8516  222.9578 H   0  0  0  0  0  0  0  0  0  0  0  0
  138.9932   68.3483  224.9220 H   0  0  0  0  0  0  0  0  0  0  0  0
  140.6988   68.7512  224.7355 H   0  0  0  0  0  0  0  0  0  0  0  0
  138.4560   68.3594  227.2725 H   0  0  0  0  0  0  0  0  0  0  0  0
  138.4715   69.5774  229.4269 H   0  0  0  0  0  0  0  0  0  0  0  0
  139.6938   71.7447  229.6811 H   0  0  0  0  0  0  0  0  0  0  0  0
  140.8973   72.6592  227.6869 H   0  0  0  0  0  0  0  0  0  0  0  0
  141.1512   72.6969  225.3009 H   0  0  0  0  0  0  0  0  0  0  0  0
  142.0939   71.1691  225.1653 H   0  0  0  0  0  0  0  0  0  0  0  0
  142.4836   75.9868  220.1582 H   0  0  0  0  0  0  0  0  0  0  0  0
  141.1178   75.1984  219.2284 H   0  0  0  0  0  0  0  0  0  0  0  0
  141.5295   77.7649  219.1772 H   0  0  0  0  0  0  0  0  0  0  0  0
  139.8561   76.9797  219.2391 H   0  0  0  0  0  0  0  0  0  0  0  0
  1  2  1  0
  2  3  2  0
  2  4  1  0
  4  5  1  0
  5  6  1  0
  6  7  1  0
  7  8  1  0
  8  9  1  0
  9 10  2  0
 10 11  1  0
 11 12  1  0
 12 13  1  0
 13 14  1  0
 14 15  1  0
 15 16  2  0
 16 17  1  0
 17 18  2  0
 18 19  1  0
 19 20  2  0
 20 21  1  0
 11 22  2  0
 22 23  1  0
 23 24  1  0
 24 25  1  0
 25 26  1  0
 26 27  1  0
 27 28  2  0
 28 29  1  0
 29 30  2  0
 30 31  1  0
 31 32  2  0
 32 33  1  0
 23 34  2  0
  8 35  1  0
 35 36  1  0
 36  5  1  0
 34  9  1  0
 21 12  1  0
 33 24  1  0
 20 15  1  0
 32 27  1  0
  1 37  1  0
  1 38  1  0
  4 39  1  0
  4 40  1  0
  5 41  1  0
  6 42  1  0
  6 43  1  0
  7 44  1  0
  7 45  1  0
 13 46  1  0
 13 47  1  0
 14 48  1  0
 14 49  1  0
 16 50  1  0
 17 51  1  0
 18 52  1  0
 19 53  1  0
 21 54  1  0
 21 55  1  0
 25 56  1  0
 25 57  1  0
 26 58  1  0
 26 59  1  0
 28 60  1  0
 29 61  1  0
 30 62  1  0
 31 63  1  0
 33 64  1  0
 33 65  1  0
 35 66  1  0
 35 67  1  0
 36 68  1  0
 36 69  1  0
M  END
>  <smiles>  (50) 
NC(=O)CC1CCN(c2nc(N3CCc4ccccc4C3)nc(N3CCc4ccccc4C3)n2)CC1

>  <score_type>  (50) 
oracle

>  <origin>  (50) 
autodockgpu

>  <m_score__min__energy>  (50) 
-9.3499999999999996

>  <m_primary>  (50) 
energy

>  <rmsd>  (50) 
3.8923147393228485

>  <m_score__min__rmsd>  (50) 
3.8923147393228485

>  <meeko>  (50) 
{"free_energy": -8.82, "intermolecular_energy": -10.31, "internal_energy": -1.09, "cluster_size": 15, "cluster_id": 2, "rank_in_cluster": 11}

>  <energy>  (50) 
-8.22

>  <cluster_rmsd>  (50) 
0.63

>  <cluster>  (50) 
5

$$$$
