
     RDKit          3D

 52 55  0  0  0  0  0  0  0  0999 V2000
  137.0580   75.6510  222.1470 O   0  0  0  0  0  0  0  0  0  0  0  0
  138.2960   75.8220  222.3150 C   0  0  0  0  0  0  0  0  0  0  0  0
  139.1880   74.7090  222.2160 N   0  0  0  0  0  0  0  0  0  0  0  0
  138.7120   73.3630  221.9230 C   0  0  0  0  0  0  0  0  0  0  0  0
  139.4910   72.3520  222.6950 C   0  0  0  0  0  0  0  0  0  0  0  0
  140.7480   72.3960  222.7660 O   0  0  0  0  0  0  0  0  0  0  0  0
  138.7930   71.2900  223.3830 N   0  0  0  0  0  0  0  0  0  0  0  0
  137.3570   71.4140  223.4200 C   0  0  0  0  0  0  0  0  0  0  0  0
  136.7450   70.0910  223.6830 C   0  0  0  0  0  0  0  0  0  0  0  0
  137.5580   68.9660  223.1060 C   0  0  0  0  0  0  0  0  0  0  0  0
  138.9220   68.8660  223.7430 C   0  0  0  0  0  0  0  0  0  0  0  0
  139.5500   70.2100  223.9750 C   0  0  2  0  0  0  0  0  0  0  0  0
  139.9360   70.4580  225.3880 C   0  0  0  0  0  0  0  0  0  0  0  0
  139.5690   69.6280  226.4290 C   0  0  0  0  0  0  0  0  0  0  0  0
  139.9270   69.8540  227.7430 C   0  0  0  0  0  0  0  0  0  0  0  0
  140.6910   70.9540  228.0740 C   0  0  0  0  0  0  0  0  0  0  0  0
  141.0760   71.8050  227.0600 C   0  0  0  0  0  0  0  0  0  0  0  0
  141.8410   72.9130  227.3730 O   0  0  0  0  0  0  0  0  0  0  0  0
  140.7100   71.5660  225.7530 C   0  0  0  0  0  0  0  0  0  0  0  0
  138.8880   77.1210  222.6130 C   0  0  0  0  0  0  0  0  0  0  0  0
  138.0190   78.1980  222.7250 C   0  0  0  0  0  0  0  0  0  0  0  0
  138.5150   79.4580  223.0060 C   0  0  0  0  0  0  0  0  0  0  0  0
  139.8730   79.6290  223.1710 C   0  0  0  0  0  0  0  0  0  0  0  0
  140.3660   80.8790  223.4490 C   0  0  0  0  0  0  0  0  0  0  0  0
  141.7390   81.0270  223.6100 C   0  0  0  0  0  0  0  0  0  0  0  0
  142.2560   82.2350  223.8830 F   0  0  0  0  0  0  0  0  0  0  0  0
  142.5720   79.9160  223.4870 C   0  0  0  0  0  0  0  0  0  0  0  0
  142.0700   78.6610  223.2060 C   0  0  0  0  0  0  0  0  0  0  0  0
  140.7020   78.5180  223.0470 C   0  0  0  0  0  0  0  0  0  0  0  0
  140.2090   77.3040  222.7750 N   0  0  0  0  0  0  0  0  0  0  0  0
  140.2220   74.8560  222.3570 H   0  0  0  0  0  0  0  0  0  0  0  0
  137.6495   73.2874  222.1974 H   0  0  0  0  0  0  0  0  0  0  0  0
  138.8420   73.1665  220.8485 H   0  0  0  0  0  0  0  0  0  0  0  0
  137.0715   72.1137  224.2193 H   0  0  0  0  0  0  0  0  0  0  0  0
  137.0004   71.7925  222.4507 H   0  0  0  0  0  0  0  0  0  0  0  0
  136.6636   69.9480  224.7706 H   0  0  0  0  0  0  0  0  0  0  0  0
  135.7556   70.0744  223.2025 H   0  0  0  0  0  0  0  0  0  0  0  0
  137.0204   68.0202  223.2688 H   0  0  0  0  0  0  0  0  0  0  0  0
  137.6991   69.1657  222.0335 H   0  0  0  0  0  0  0  0  0  0  0  0
  138.8224   68.3518  224.7103 H   0  0  0  0  0  0  0  0  0  0  0  0
  139.5724   68.3087  223.0528 H   0  0  0  0  0  0  0  0  0  0  0  0
  140.5064   70.1835  223.4322 H   0  0  0  0  0  0  0  0  0  0  0  0
  138.9601   68.7412  226.1993 H   0  0  0  0  0  0  0  0  0  0  0  0
  139.6023   69.1552  228.5280 H   0  0  0  0  0  0  0  0  0  0  0  0
  140.9844   71.1465  229.1165 H   0  0  0  0  0  0  0  0  0  0  0  0
  141.4360   73.8500  227.3250 H   0  0  0  0  0  0  0  0  0  0  0  0
  141.0364   72.2682  224.9717 H   0  0  0  0  0  0  0  0  0  0  0  0
  136.9374   78.0493  222.5904 H   0  0  0  0  0  0  0  0  0  0  0  0
  137.8324   80.3157  223.0970 H   0  0  0  0  0  0  0  0  0  0  0  0
  139.6914   81.7428  223.5422 H   0  0  0  0  0  0  0  0  0  0  0  0
  143.6569   80.0425  223.6172 H   0  0  0  0  0  0  0  0  0  0  0  0
  142.7412   77.7948  223.1106 H   0  0  0  0  0  0  0  0  0  0  0  0
  1  2  2  0
  2  3  1  0
  3  4  1  0
  4  5  1  0
  5  6  2  0
  5  7  1  0
  7  8  1  0
  8  9  1  0
  9 10  1  0
 10 11  1  0
 11 12  1  0
 12 13  1  0
 13 14  2  0
 14 15  1  0
 15 16  2  0
 16 17  1  0
 17 18  1  0
 17 19  2  0
  2 20  1  0
 20 21  2  0
 21 22  1  0
 22 23  2  0
 23 24  1  0
 24 25  2  0
 25 26  1  0
 25 27  1  0
 27 28  2  0
 28 29  1  0
 29 30  2  0
 12  7  1  0
 19 13  1  0
 30 20  1  0
 29 23  1  0
  3 31  1  0
  4 32  1  0
  4 33  1  0
  8 34  1  0
  8 35  1  0
  9 36  1  0
  9 37  1  0
 10 38  1  0
 10 39  1  0
 11 40  1  0
 11 41  1  0
 12 42  1  6
 14 43  1  0
 15 44  1  0
 16 45  1  0
 18 46  1  0
 19 47  1  0
 21 48  1  0
 22 49  1  0
 24 50  1  0
 27 51  1  0
 28 52  1  0
M  END
>  <smiles>  (1) 
O=C(NCC(=O)N1CCCCC1c1cccc(O)c1)c1ccc2cc(F)ccc2n1

>  <score_type>  (1) 
oracle

>  <origin>  (1) 
autodockgpu

>  <m_score__min__energy>  (1) 
-8.9600000000000009

>  <m_primary>  (1) 
energy

>  <rmsd>  (1) 
8.660853032106655

>  <m_score__min__rmsd>  (1) 
8.660853032106655

>  <meeko>  (1) 
{"free_energy": -8.42, "intermolecular_energy": -10.21, "internal_energy": -1.72, "cluster_size": 10, "cluster_id": 4, "rank_in_cluster": 4}

>  <energy>  (1) 
-8.96

>  <cluster_rmsd>  (1) 
0.0

>  <cluster>  (1) 
1

$$$$

     RDKit          3D

 52 55  0  0  0  0  0  0  0  0999 V2000
  138.8770   70.9250  221.2950 O   0  0  0  0  0  0  0  0  0  0  0  0
  139.2440   71.4930  222.3590 C   0  0  0  0  0  0  0  0  0  0  0  0
  139.4070   72.9140  222.3870 N   0  0  0  0  0  0  0  0  0  0  0  0
  139.1620   73.7420  221.2130 C   0  0  0  0  0  0  0  0  0  0  0  0
  139.9390   75.0130  221.2970 C   0  0  0  0  0  0  0  0  0  0  0  0
  139.8220   75.7990  222.2750 O   0  0  0  0  0  0  0  0  0  0  0  0
  140.8520   75.3600  220.2320 N   0  0  0  0  0  0  0  0  0  0  0  0
  140.2580   75.4940  218.9250 C   0  0  0  0  0  0  0  0  0  0  0  0
  141.1380   76.3080  218.0550 C   0  0  0  0  0  0  0  0  0  0  0  0
  141.9010   77.3440  218.8310 C   0  0  0  0  0  0  0  0  0  0  0  0
  142.8510   76.7250  219.8250 C   0  0  0  0  0  0  0  0  0  0  0  0
  142.2550   75.5410  220.5310 C   0  0  2  0  0  0  0  0  0  0  0  0
  143.0570   74.2970  220.4000 C   0  0  0  0  0  0  0  0  0  0  0  0
  142.6120   73.0620  220.8280 C   0  0  0  0  0  0  0  0  0  0  0  0
  143.3530   71.9040  220.7050 C   0  0  0  0  0  0  0  0  0  0  0  0
  144.6070   71.9400  220.1320 C   0  0  0  0  0  0  0  0  0  0  0  0
  145.0840   73.1570  219.6930 C   0  0  0  0  0  0  0  0  0  0  0  0
  146.3390   73.2130  219.1170 O   0  0  0  0  0  0  0  0  0  0  0  0
  144.3320   74.3050  219.8230 C   0  0  0  0  0  0  0  0  0  0  0  0
  139.5180   70.7700  223.5960 C   0  0  0  0  0  0  0  0  0  0  0  0
  139.2060   69.4180  223.6160 C   0  0  0  0  0  0  0  0  0  0  0  0
  139.4410   68.6730  224.7570 C   0  0  0  0  0  0  0  0  0  0  0  0
  139.9850   69.2870  225.8650 C   0  0  0  0  0  0  0  0  0  0  0  0
  140.2180   68.5490  226.9980 C   0  0  0  0  0  0  0  0  0  0  0  0
  140.7670   69.1890  228.1030 C   0  0  0  0  0  0  0  0  0  0  0  0
  141.0080   68.4980  229.2280 F   0  0  0  0  0  0  0  0  0  0  0  0
  141.0630   70.5500  228.0350 C   0  0  0  0  0  0  0  0  0  0  0  0
  140.8260   71.2880  226.8920 C   0  0  0  0  0  0  0  0  0  0  0  0
  140.2800   70.6450  225.7950 C   0  0  0  0  0  0  0  0  0  0  0  0
  140.0470   71.3550  224.6840 N   0  0  0  0  0  0  0  0  0  0  0  0
  139.7140   73.3860  223.2790 H   0  0  0  0  0  0  0  0  0  0  0  0
  139.4669   73.1905  220.3114 H   0  0  0  0  0  0  0  0  0  0  0  0
  138.0899   73.9835  221.1662 H   0  0  0  0  0  0  0  0  0  0  0  0
  140.1258   74.4968  218.4800 H   0  0  0  0  0  0  0  0  0  0  0  0
  139.2809   75.9903  219.0193 H   0  0  0  0  0  0  0  0  0  0  0  0
  141.8551   75.6415  217.5535 H   0  0  0  0  0  0  0  0  0  0  0  0
  140.5019   76.8320  217.3264 H   0  0  0  0  0  0  0  0  0  0  0  0
  142.4779   77.9609  218.1263 H   0  0  0  0  0  0  0  0  0  0  0  0
  141.1738   77.9503  219.3909 H   0  0  0  0  0  0  0  0  0  0  0  0
  143.7560   76.3987  219.2917 H   0  0  0  0  0  0  0  0  0  0  0  0
  143.0812   77.4859  220.5853 H   0  0  0  0  0  0  0  0  0  0  0  0
  142.3023   75.7847  221.6026 H   0  0  0  0  0  0  0  0  0  0  0  0
  141.6161   72.9977  221.2906 H   0  0  0  0  0  0  0  0  0  0  0  0
  142.9420   70.9493  221.0652 H   0  0  0  0  0  0  0  0  0  0  0  0
  145.2087   71.0251  220.0283 H   0  0  0  0  0  0  0  0  0  0  0  0
  146.7330   74.1100  218.8250 H   0  0  0  0  0  0  0  0  0  0  0  0
  144.7472   75.2574  219.4618 H   0  0  0  0  0  0  0  0  0  0  0  0
  138.7723   68.9396  222.7255 H   0  0  0  0  0  0  0  0  0  0  0  0
  139.1962   67.6008  224.7804 H   0  0  0  0  0  0  0  0  0  0  0  0
  139.9761   67.4764  227.0311 H   0  0  0  0  0  0  0  0  0  0  0  0
  141.4965   71.0487  228.9145 H   0  0  0  0  0  0  0  0  0  0  0  0
  141.0655   72.3610  226.8545 H   0  0  0  0  0  0  0  0  0  0  0  0
  1  2  2  0
  2  3  1  0
  3  4  1  0
  4  5  1  0
  5  6  2  0
  5  7  1  0
  7  8  1  0
  8  9  1  0
  9 10  1  0
 10 11  1  0
 11 12  1  0
 12 13  1  0
 13 14  2  0
 14 15  1  0
 15 16  2  0
 16 17  1  0
 17 18  1  0
 17 19  2  0
  2 20  1  0
 20 21  2  0
 21 22  1  0
 22 23  2  0
 23 24  1  0
 24 25  2  0
 25 26  1  0
 25 27  1  0
 27 28  2  0
 28 29  1  0
 29 30  2  0
 12  7  1  0
 19 13  1  0
 30 20  1  0
 29 23  1  0
  3 31  1  0
  4 32  1  0
  4 33  1  0
  8 34  1  0
  8 35  1  0
  9 36  1  0
  9 37  1  0
 10 38  1  0
 10 39  1  0
 11 40  1  0
 11 41  1  0
 12 42  1  1
 14 43  1  0
 15 44  1  0
 16 45  1  0
 18 46  1  0
 19 47  1  0
 21 48  1  0
 22 49  1  0
 24 50  1  0
 27 51  1  0
 28 52  1  0
M  END
>  <smiles>  (2) 
O=C(NCC(=O)N1CCCCC1c1cccc(O)c1)c1ccc2cc(F)ccc2n1

>  <score_type>  (2) 
oracle

>  <origin>  (2) 
autodockgpu

>  <m_score__min__energy>  (2) 
-8.9600000000000009

>  <m_primary>  (2) 
energy

>  <rmsd>  (2) 
1.4985093987877158

>  <m_score__min__rmsd>  (2) 
1.4985093987877158

>  <meeko>  (2) 
{"free_energy": -8.69, "intermolecular_energy": -10.48, "internal_energy": -1.94, "cluster_size": 17, "cluster_id": 1, "rank_in_cluster": 7}

>  <energy>  (2) 
-8.95

>  <cluster_rmsd>  (2) 
0.67

>  <cluster>  (2) 
1

$$$$

     RDKit          3D

 52 55  0  0  0  0  0  0  0  0999 V2000
  139.4620   71.4000  221.1150 O   0  0  0  0  0  0  0  0  0  0  0  0
  139.5550   71.9160  222.2610 C   0  0  0  0  0  0  0  0  0  0  0  0
  139.4940   73.3380  222.4080 N   0  0  0  0  0  0  0  0  0  0  0  0
  139.3260   74.2250  221.2650 C   0  0  0  0  0  0  0  0  0  0  0  0
  140.3560   75.3050  221.2840 C   0  0  0  0  0  0  0  0  0  0  0  0
  140.4300   76.1340  222.2280 O   0  0  0  0  0  0  0  0  0  0  0  0
  141.2980   75.4080  220.1930 N   0  0  0  0  0  0  0  0  0  0  0  0
  140.7200   75.6750  218.8980 C   0  0  0  0  0  0  0  0  0  0  0  0
  141.7510   76.2400  217.9960 C   0  0  0  0  0  0  0  0  0  0  0  0
  142.7650   77.0620  218.7400 C   0  0  0  0  0  0  0  0  0  0  0  0
  143.5600   76.2350  219.7190 C   0  0  0  0  0  0  0  0  0  0  0  0
  142.7090   75.2390  220.4550 C   0  0  2  0  0  0  0  0  0  0  0  0
  143.1760   73.8350  220.3220 C   0  0  0  0  0  0  0  0  0  0  0  0
  142.3210   72.7510  220.3170 C   0  0  0  0  0  0  0  0  0  0  0  0
  142.7510   71.4460  220.1900 C   0  0  0  0  0  0  0  0  0  0  0  0
  144.0960   71.1680  220.0600 C   0  0  0  0  0  0  0  0  0  0  0  0
  144.9790   72.2260  220.0610 C   0  0  0  0  0  0  0  0  0  0  0  0
  146.3310   71.9670  219.9330 O   0  0  0  0  0  0  0  0  0  0  0  0
  144.5350   73.5240  220.1880 C   0  0  0  0  0  0  0  0  0  0  0  0
  139.7250   71.1300  223.4780 C   0  0  0  0  0  0  0  0  0  0  0  0
  139.3430   69.7970  223.4250 C   0  0  0  0  0  0  0  0  0  0  0  0
  139.4770   68.9950  224.5440 C   0  0  0  0  0  0  0  0  0  0  0  0
  139.9930   69.5350  225.7030 C   0  0  0  0  0  0  0  0  0  0  0  0
  140.1260   68.7410  226.8140 C   0  0  0  0  0  0  0  0  0  0  0  0
  140.6470   69.3060  227.9720 C   0  0  0  0  0  0  0  0  0  0  0  0
  140.7930   68.5590  229.0770 F   0  0  0  0  0  0  0  0  0  0  0  0
  141.0170   70.6500  227.9770 C   0  0  0  0  0  0  0  0  0  0  0  0
  140.8800   71.4450  226.8560 C   0  0  0  0  0  0  0  0  0  0  0  0
  140.3610   70.8770  225.7060 C   0  0  0  0  0  0  0  0  0  0  0  0
  140.2250   71.6420  224.6160 N   0  0  0  0  0  0  0  0  0  0  0  0
  139.5720   73.7660  223.3690 H   0  0  0  0  0  0  0  0  0  0  0  0
  139.4291   73.6431  220.3373 H   0  0  0  0  0  0  0  0  0  0  0  0
  138.3281   74.6849  221.3160 H   0  0  0  0  0  0  0  0  0  0  0  0
  140.3339   74.7381  218.4700 H   0  0  0  0  0  0  0  0  0  0  0  0
  139.8982   76.3977  219.0087 H   0  0  0  0  0  0  0  0  0  0  0  0
  142.2688   75.4133  217.4877 H   0  0  0  0  0  0  0  0  0  0  0  0
  141.2452   76.8985  217.2745 H   0  0  0  0  0  0  0  0  0  0  0  0
  143.4568   77.5137  218.0138 H   0  0  0  0  0  0  0  0  0  0  0  0
  142.2239   77.8321  219.3093 H   0  0  0  0  0  0  0  0  0  0  0  0
  144.3423   75.6920  219.1684 H   0  0  0  0  0  0  0  0  0  0  0  0
  143.9911   76.9208  220.4631 H   0  0  0  0  0  0  0  0  0  0  0  0
  142.8433   75.4708  221.5219 H   0  0  0  0  0  0  0  0  0  0  0  0
  141.2417   72.9372  220.4195 H   0  0  0  0  0  0  0  0  0  0  0  0
  142.0191   70.6248  220.1924 H   0  0  0  0  0  0  0  0  0  0  0  0
  144.4530   70.1325  219.9585 H   0  0  0  0  0  0  0  0  0  0  0  0
  146.8530   71.5560  220.7100 H   0  0  0  0  0  0  0  0  0  0  0  0
  145.2708   74.3416  220.1840 H   0  0  0  0  0  0  0  0  0  0  0  0
  138.9339   69.3784  222.4937 H   0  0  0  0  0  0  0  0  0  0  0  0
  139.1752   67.9378  224.5096 H   0  0  0  0  0  0  0  0  0  0  0  0
  139.8275   67.6826  226.7888 H   0  0  0  0  0  0  0  0  0  0  0  0
  141.4288   71.0888  228.8978 H   0  0  0  0  0  0  0  0  0  0  0  0
  141.1763   72.5041  226.8769 H   0  0  0  0  0  0  0  0  0  0  0  0
  1  2  2  0
  2  3  1  0
  3  4  1  0
  4  5  1  0
  5  6  2  0
  5  7  1  0
  7  8  1  0
  8  9  1  0
  9 10  1  0
 10 11  1  0
 11 12  1  0
 12 13  1  0
 13 14  2  0
 14 15  1  0
 15 16  2  0
 16 17  1  0
 17 18  1  0
 17 19  2  0
  2 20  1  0
 20 21  2  0
 21 22  1  0
 22 23  2  0
 23 24  1  0
 24 25  2  0
 25 26  1  0
 25 27  1  0
 27 28  2  0
 28 29  1  0
 29 30  2  0
 12  7  1  0
 19 13  1  0
 30 20  1  0
 29 23  1  0
  3 31  1  0
  4 32  1  0
  4 33  1  0
  8 34  1  0
  8 35  1  0
  9 36  1  0
  9 37  1  0
 10 38  1  0
 10 39  1  0
 11 40  1  0
 11 41  1  0
 12 42  1  1
 14 43  1  0
 15 44  1  0
 16 45  1  0
 18 46  1  0
 19 47  1  0
 21 48  1  0
 22 49  1  0
 24 50  1  0
 27 51  1  0
 28 52  1  0
M  END
>  <smiles>  (3) 
O=C(NCC(=O)N1CCCCC1c1cccc(O)c1)c1ccc2cc(F)ccc2n1

>  <score_type>  (3) 
oracle

>  <origin>  (3) 
autodockgpu

>  <m_score__min__energy>  (3) 
-8.9600000000000009

>  <m_primary>  (3) 
energy

>  <rmsd>  (3) 
1.7747159938487

>  <m_score__min__rmsd>  (3) 
1.7747159938487

>  <meeko>  (3) 
{"free_energy": -8.36, "intermolecular_energy": -10.15, "internal_energy": -1.98, "cluster_size": 17, "cluster_id": 1, "rank_in_cluster": 12}

>  <energy>  (3) 
-8.92

>  <cluster_rmsd>  (3) 
0.68

>  <cluster>  (3) 
1

$$$$

     RDKit          3D

 52 55  0  0  0  0  0  0  0  0999 V2000
  139.8540   71.3110  221.0720 O   0  0  0  0  0  0  0  0  0  0  0  0
  139.7890   71.8250  222.2210 C   0  0  0  0  0  0  0  0  0  0  0  0
  139.6150   73.2390  222.3600 N   0  0  0  0  0  0  0  0  0  0  0  0
  139.5100   74.1190  221.2040 C   0  0  0  0  0  0  0  0  0  0  0  0
  140.5370   75.2000  221.2730 C   0  0  0  0  0  0  0  0  0  0  0  0
  140.6150   75.9790  222.2590 O   0  0  0  0  0  0  0  0  0  0  0  0
  141.4720   75.3620  220.1830 N   0  0  0  0  0  0  0  0  0  0  0  0
  140.8810   75.6040  218.8900 C   0  0  0  0  0  0  0  0  0  0  0  0
  141.8790   76.2310  217.9920 C   0  0  0  0  0  0  0  0  0  0  0  0
  142.8450   77.1040  218.7410 C   0  0  0  0  0  0  0  0  0  0  0  0
  143.6840   76.3170  219.7160 C   0  0  0  0  0  0  0  0  0  0  0  0
  142.8910   75.2710  220.4460 C   0  0  2  0  0  0  0  0  0  0  0  0
  143.4360   73.8960  220.3040 C   0  0  0  0  0  0  0  0  0  0  0  0
  144.7860   73.6230  220.2160 C   0  0  0  0  0  0  0  0  0  0  0  0
  145.2960   72.3470  220.0880 C   0  0  0  0  0  0  0  0  0  0  0  0
  144.4460   71.2620  220.0400 C   0  0  0  0  0  0  0  0  0  0  0  0
  143.0900   71.4970  220.1250 C   0  0  0  0  0  0  0  0  0  0  0  0
  142.2220   70.4220  220.0790 O   0  0  0  0  0  0  0  0  0  0  0  0
  142.5960   72.7770  220.2540 C   0  0  0  0  0  0  0  0  0  0  0  0
  139.8810   71.0460  223.4500 C   0  0  0  0  0  0  0  0  0  0  0  0
  139.4280   69.7350  223.4000 C   0  0  0  0  0  0  0  0  0  0  0  0
  139.4870   68.9400  224.5300 C   0  0  0  0  0  0  0  0  0  0  0  0
  139.9990   69.4640  225.6980 C   0  0  0  0  0  0  0  0  0  0  0  0
  140.0570   68.6770  226.8200 C   0  0  0  0  0  0  0  0  0  0  0  0
  140.5760   69.2260  227.9870 C   0  0  0  0  0  0  0  0  0  0  0  0
  140.6490   68.4840  229.1030 F   0  0  0  0  0  0  0  0  0  0  0  0
  141.0180   70.5480  227.9890 C   0  0  0  0  0  0  0  0  0  0  0  0
  140.9560   71.3360  226.8570 C   0  0  0  0  0  0  0  0  0  0  0  0
  140.4390   70.7830  225.6980 C   0  0  0  0  0  0  0  0  0  0  0  0
  140.3760   71.5420  224.5970 N   0  0  0  0  0  0  0  0  0  0  0  0
  139.5610   73.6650  223.3220 H   0  0  0  0  0  0  0  0  0  0  0  0
  139.6643   73.5315  220.2869 H   0  0  0  0  0  0  0  0  0  0  0  0
  138.5106   74.5786  221.1972 H   0  0  0  0  0  0  0  0  0  0  0  0
  140.5479   74.6496  218.4562 H   0  0  0  0  0  0  0  0  0  0  0  0
  140.0202   76.2792  219.0045 H   0  0  0  0  0  0  0  0  0  0  0  0
  142.4424   75.4375  217.4792 H   0  0  0  0  0  0  0  0  0  0  0  0
  141.3373   76.8644  217.2741 H   0  0  0  0  0  0  0  0  0  0  0  0
  143.5111   77.5974  218.0178 H   0  0  0  0  0  0  0  0  0  0  0  0
  142.2617   77.8400  219.3138 H   0  0  0  0  0  0  0  0  0  0  0  0
  144.4957   75.8218  219.1629 H   0  0  0  0  0  0  0  0  0  0  0  0
  144.0749   77.0219  220.4645 H   0  0  0  0  0  0  0  0  0  0  0  0
  143.0121   75.5033  221.5143 H   0  0  0  0  0  0  0  0  0  0  0  0
  145.4919   74.4659  220.2496 H   0  0  0  0  0  0  0  0  0  0  0  0
  146.3836   72.1949  220.0241 H   0  0  0  0  0  0  0  0  0  0  0  0
  144.8382   70.2395  219.9369 H   0  0  0  0  0  0  0  0  0  0  0  0
  141.2290   70.5510  220.2820 H   0  0  0  0  0  0  0  0  0  0  0  0
  141.5079   72.9241  220.3197 H   0  0  0  0  0  0  0  0  0  0  0  0
  139.0222   69.3285  222.4619 H   0  0  0  0  0  0  0  0  0  0  0  0
  139.1292   67.9003  224.4973 H   0  0  0  0  0  0  0  0  0  0  0  0
  139.7014   67.6363  226.7969 H   0  0  0  0  0  0  0  0  0  0  0  0
  141.4269   70.9746  228.9168 H   0  0  0  0  0  0  0  0  0  0  0  0
  141.3088   72.3777  226.8756 H   0  0  0  0  0  0  0  0  0  0  0  0
  1  2  2  0
  2  3  1  0
  3  4  1  0
  4  5  1  0
  5  6  2  0
  5  7  1  0
  7  8  1  0
  8  9  1  0
  9 10  1  0
 10 11  1  0
 11 12  1  0
 12 13  1  0
 13 14  2  0
 14 15  1  0
 15 16  2  0
 16 17  1  0
 17 18  1  0
 17 19  2  0
  2 20  1  0
 20 21  2  0
 21 22  1  0
 22 23  2  0
 23 24  1  0
 24 25  2  0
 25 26  1  0
 25 27  1  0
 27 28  2  0
 28 29  1  0
 29 30  2  0
 12  7  1  0
 19 13  1  0
 30 20  1  0
 29 23  1  0
  3 31  1  0
  4 32  1  0
  4 33  1  0
  8 34  1  0
  8 35  1  0
  9 36  1  0
  9 37  1  0
 10 38  1  0
 10 39  1  0
 11 40  1  0
 11 41  1  0
 12 42  1  1
 14 43  1  0
 15 44  1  0
 16 45  1  0
 18 46  1  0
 19 47  1  0
 21 48  1  0
 22 49  1  0
 24 50  1  0
 27 51  1  0
 28 52  1  0
M  END
>  <smiles>  (4) 
O=C(NCC(=O)N1CCCCC1c1cccc(O)c1)c1ccc2cc(F)ccc2n1

>  <score_type>  (4) 
oracle

>  <origin>  (4) 
autodockgpu

>  <m_score__min__energy>  (4) 
-8.9600000000000009

>  <m_primary>  (4) 
energy

>  <rmsd>  (4) 
1.8315991773983842

>  <m_score__min__rmsd>  (4) 
1.8315991773983842

>  <meeko>  (4) 
{"free_energy": -7.57, "intermolecular_energy": -9.36, "internal_energy": -2.62, "cluster_size": 17, "cluster_id": 1, "rank_in_cluster": 17}

>  <energy>  (4) 
-8.9

>  <cluster_rmsd>  (4) 
0.69

>  <cluster>  (4) 
1

$$$$

     RDKit          3D

 52 55  0  0  0  0  0  0  0  0999 V2000
  141.2050   72.4400  221.7740 O   0  0  0  0  0  0  0  0  0  0  0  0
  140.2230   72.4280  222.5640 C   0  0  0  0  0  0  0  0  0  0  0  0
  139.1180   73.3090  222.3390 N   0  0  0  0  0  0  0  0  0  0  0  0
  139.0860   74.2330  221.2130 C   0  0  0  0  0  0  0  0  0  0  0  0
  139.5240   75.5940  221.6390 C   0  0  0  0  0  0  0  0  0  0  0  0
  138.8480   76.2860  222.4450 O   0  0  0  0  0  0  0  0  0  0  0  0
  140.7570   76.1410  221.1180 N   0  0  0  0  0  0  0  0  0  0  0  0
  141.8650   75.2200  221.0560 C   0  0  0  0  0  0  0  0  0  0  0  0
  142.8710   75.7110  220.0860 C   0  0  0  0  0  0  0  0  0  0  0  0
  142.2410   76.4730  218.9540 C   0  0  0  0  0  0  0  0  0  0  0  0
  141.5540   77.7300  219.4270 C   0  0  0  0  0  0  0  0  0  0  0  0
  140.8020   77.5270  220.7120 C   0  0  2  0  0  0  0  0  0  0  0  0
  141.2080   78.4540  221.7990 C   0  0  0  0  0  0  0  0  0  0  0  0
  141.4540   78.0400  223.0930 C   0  0  0  0  0  0  0  0  0  0  0  0
  141.8340   78.8980  224.1050 C   0  0  0  0  0  0  0  0  0  0  0  0
  141.9860   80.2450  223.8520 C   0  0  0  0  0  0  0  0  0  0  0  0
  141.7480   80.6950  222.5700 C   0  0  0  0  0  0  0  0  0  0  0  0
  141.8950   82.0420  222.2980 O   0  0  0  0  0  0  0  0  0  0  0  0
  141.3700   79.8260  221.5700 C   0  0  0  0  0  0  0  0  0  0  0  0
  140.1430   71.5480  223.7240 C   0  0  0  0  0  0  0  0  0  0  0  0
  139.5120   70.3250  223.5430 C   0  0  0  0  0  0  0  0  0  0  0  0
  139.4010   69.4420  224.6020 C   0  0  0  0  0  0  0  0  0  0  0  0
  139.9220   69.7920  225.8300 C   0  0  0  0  0  0  0  0  0  0  0  0
  139.8120   68.9170  226.8820 C   0  0  0  0  0  0  0  0  0  0  0  0
  140.3440   69.2910  228.1110 C   0  0  0  0  0  0  0  0  0  0  0  0
  140.2550   68.4600  229.1610 F   0  0  0  0  0  0  0  0  0  0  0  0
  140.9680   70.5300  228.2430 C   0  0  0  0  0  0  0  0  0  0  0  0
  141.0750   71.4060  227.1820 C   0  0  0  0  0  0  0  0  0  0  0  0
  140.5440   71.0290  225.9600 C   0  0  0  0  0  0  0  0  0  0  0  0
  140.6440   71.8740  224.9270 N   0  0  0  0  0  0  0  0  0  0  0  0
  138.2990   73.2960  223.0010 H   0  0  0  0  0  0  0  0  0  0  0  0
  139.7602   73.8663  220.4250 H   0  0  0  0  0  0  0  0  0  0  0  0
  138.0554   74.2944  220.8334 H   0  0  0  0  0  0  0  0  0  0  0  0
  142.3270   75.1368  222.0508 H   0  0  0  0  0  0  0  0  0  0  0  0
  141.5002   74.2337  220.7335 H   0  0  0  0  0  0  0  0  0  0  0  0
  143.5755   76.3732  220.6105 H   0  0  0  0  0  0  0  0  0  0  0  0
  143.3857   74.8369  219.6605 H   0  0  0  0  0  0  0  0  0  0  0  0
  143.0244   76.7474  218.2322 H   0  0  0  0  0  0  0  0  0  0  0  0
  141.4809   75.8256  218.4924 H   0  0  0  0  0  0  0  0  0  0  0  0
  142.3139   78.5100  219.5826 H   0  0  0  0  0  0  0  0  0  0  0  0
  140.8255   78.0225  218.6565 H   0  0  0  0  0  0  0  0  0  0  0  0
  139.7615   77.8071  220.4910 H   0  0  0  0  0  0  0  0  0  0  0  0
  141.3413   76.9716  223.3294 H   0  0  0  0  0  0  0  0  0  0  0  0
  142.0162   78.5061  225.1166 H   0  0  0  0  0  0  0  0  0  0  0  0
  142.2881   80.9402  224.6491 H   0  0  0  0  0  0  0  0  0  0  0  0
  142.0610   82.7060  223.0570 H   0  0  0  0  0  0  0  0  0  0  0  0
  141.1898   80.2224  220.5599 H   0  0  0  0  0  0  0  0  0  0  0  0
  139.1006   70.0582  222.5583 H   0  0  0  0  0  0  0  0  0  0  0  0
  138.9024   68.4709  224.4661 H   0  0  0  0  0  0  0  0  0  0  0  0
  139.3151   67.9438  226.7558 H   0  0  0  0  0  0  0  0  0  0  0  0
  141.3864   70.8174  229.2189 H   0  0  0  0  0  0  0  0  0  0  0  0
  141.5703   72.3805  227.3042 H   0  0  0  0  0  0  0  0  0  0  0  0
  1  2  2  0
  2  3  1  0
  3  4  1  0
  4  5  1  0
  5  6  2  0
  5  7  1  0
  7  8  1  0
  8  9  1  0
  9 10  1  0
 10 11  1  0
 11 12  1  0
 12 13  1  0
 13 14  2  0
 14 15  1  0
 15 16  2  0
 16 17  1  0
 17 18  1  0
 17 19  2  0
  2 20  1  0
 20 21  2  0
 21 22  1  0
 22 23  2  0
 23 24  1  0
 24 25  2  0
 25 26  1  0
 25 27  1  0
 27 28  2  0
 28 29  1  0
 29 30  2  0
 12  7  1  0
 19 13  1  0
 30 20  1  0
 29 23  1  0
  3 31  1  0
  4 32  1  0
  4 33  1  0
  8 34  1  0
  8 35  1  0
  9 36  1  0
  9 37  1  0
 10 38  1  0
 10 39  1  0
 11 40  1  0
 11 41  1  0
 12 42  1  6
 14 43  1  0
 15 44  1  0
 16 45  1  0
 18 46  1  0
 19 47  1  0
 21 48  1  0
 22 49  1  0
 24 50  1  0
 27 51  1  0
 28 52  1  0
M  END
>  <smiles>  (5) 
O=C(NCC(=O)N1CCCCC1c1cccc(O)c1)c1ccc2cc(F)ccc2n1

>  <score_type>  (5) 
oracle

>  <origin>  (5) 
autodockgpu

>  <m_score__min__energy>  (5) 
-8.9600000000000009

>  <m_primary>  (5) 
energy

>  <rmsd>  (5) 
2.0487909309599552

>  <m_score__min__rmsd>  (5) 
2.0487909309599552

>  <meeko>  (5) 
{"free_energy": -8.73, "intermolecular_energy": -10.52, "internal_energy": -1.42, "cluster_size": 14, "cluster_id": 2, "rank_in_cluster": 5}

>  <energy>  (5) 
-8.89

>  <cluster_rmsd>  (5) 
0.71

>  <cluster>  (5) 
1

$$$$

     RDKit          3D

 52 55  0  0  0  0  0  0  0  0999 V2000
  141.3280   72.2370  221.6250 O   0  0  0  0  0  0  0  0  0  0  0  0
  140.3770   72.3480  222.4440 C   0  0  0  0  0  0  0  0  0  0  0  0
  139.3720   73.3450  222.2370 N   0  0  0  0  0  0  0  0  0  0  0  0
  139.4100   74.2520  221.0970 C   0  0  0  0  0  0  0  0  0  0  0  0
  140.6300   75.1090  221.1480 C   0  0  0  0  0  0  0  0  0  0  0  0
  141.1140   75.5100  222.2400 O   0  0  0  0  0  0  0  0  0  0  0  0
  141.2820   75.4930  219.9170 N   0  0  0  0  0  0  0  0  0  0  0  0
  140.4520   75.4560  218.7380 C   0  0  0  0  0  0  0  0  0  0  0  0
  141.0410   76.3110  217.6820 C   0  0  0  0  0  0  0  0  0  0  0  0
  141.7780   77.4890  218.2530 C   0  0  0  0  0  0  0  0  0  0  0  0
  142.9670   77.0690  219.0810 C   0  0  0  0  0  0  0  0  0  0  0  0
  142.6770   75.8720  219.9400 C   0  0  2  0  0  0  0  0  0  0  0  0
  143.6070   74.7340  219.7200 C   0  0  0  0  0  0  0  0  0  0  0  0
  143.6070   73.9680  218.5720 C   0  0  0  0  0  0  0  0  0  0  0  0
  144.4710   72.9130  218.3640 C   0  0  0  0  0  0  0  0  0  0  0  0
  145.3970   72.5740  219.3270 C   0  0  0  0  0  0  0  0  0  0  0  0
  145.4260   73.3170  220.4880 C   0  0  0  0  0  0  0  0  0  0  0  0
  146.3480   72.9920  221.4660 O   0  0  0  0  0  0  0  0  0  0  0  0
  144.5570   74.3680  220.6820 C   0  0  0  0  0  0  0  0  0  0  0  0
  140.2340   71.4980  223.6200 C   0  0  0  0  0  0  0  0  0  0  0  0
  139.5860   70.2830  223.4440 C   0  0  0  0  0  0  0  0  0  0  0  0
  139.4160   69.4290  224.5180 C   0  0  0  0  0  0  0  0  0  0  0  0
  139.8960   69.7990  225.7570 C   0  0  0  0  0  0  0  0  0  0  0  0
  139.7280   68.9520  226.8240 C   0  0  0  0  0  0  0  0  0  0  0  0
  140.2190   69.3450  228.0640 C   0  0  0  0  0  0  0  0  0  0  0  0
  140.0730   68.5420  229.1290 F   0  0  0  0  0  0  0  0  0  0  0  0
  140.8620   70.5750  228.1910 C   0  0  0  0  0  0  0  0  0  0  0  0
  141.0280   71.4230  227.1150 C   0  0  0  0  0  0  0  0  0  0  0  0
  140.5370   71.0260  225.8820 C   0  0  0  0  0  0  0  0  0  0  0  0
  140.6950   71.8440  224.8340 N   0  0  0  0  0  0  0  0  0  0  0  0
  138.5780   73.4350  222.9240 H   0  0  0  0  0  0  0  0  0  0  0  0
  139.4199   73.6640  220.1674 H   0  0  0  0  0  0  0  0  0  0  0  0
  138.5208   74.8988  221.1288 H   0  0  0  0  0  0  0  0  0  0  0  0
  140.3824   74.4207  218.3729 H   0  0  0  0  0  0  0  0  0  0  0  0
  139.4481   75.8291  218.9891 H   0  0  0  0  0  0  0  0  0  0  0  0
  141.7431   75.7076  217.0879 H   0  0  0  0  0  0  0  0  0  0  0  0
  140.2190   76.6952  217.0602 H   0  0  0  0  0  0  0  0  0  0  0  0
  142.1286   78.1229  217.4252 H   0  0  0  0  0  0  0  0  0  0  0  0
  141.0850   78.0357  218.9093 H   0  0  0  0  0  0  0  0  0  0  0  0
  143.7990   76.8241  218.4044 H   0  0  0  0  0  0  0  0  0  0  0  0
  143.2208   77.9054  219.7488 H   0  0  0  0  0  0  0  0  0  0  0  0
  142.8815   76.1954  220.9713 H   0  0  0  0  0  0  0  0  0  0  0  0
  142.8808   74.2112  217.7824 H   0  0  0  0  0  0  0  0  0  0  0  0
  144.4208   72.3402  217.4262 H   0  0  0  0  0  0  0  0  0  0  0  0
  146.0923   71.7355  219.1738 H   0  0  0  0  0  0  0  0  0  0  0  0
  146.2720   72.1060  221.9710 H   0  0  0  0  0  0  0  0  0  0  0  0
  144.6108   74.9375  221.6216 H   0  0  0  0  0  0  0  0  0  0  0  0
  139.2080   69.9998  222.4506 H   0  0  0  0  0  0  0  0  0  0  0  0
  138.9034   68.4648  224.3857 H   0  0  0  0  0  0  0  0  0  0  0  0
  139.2172   67.9856  226.7010 H   0  0  0  0  0  0  0  0  0  0  0  0
  141.2476   70.8781  229.1756 H   0  0  0  0  0  0  0  0  0  0  0  0
  141.5377   72.3905  227.2335 H   0  0  0  0  0  0  0  0  0  0  0  0
  1  2  2  0
  2  3  1  0
  3  4  1  0
  4  5  1  0
  5  6  2  0
  5  7  1  0
  7  8  1  0
  8  9  1  0
  9 10  1  0
 10 11  1  0
 11 12  1  0
 12 13  1  0
 13 14  2  0
 14 15  1  0
 15 16  2  0
 16 17  1  0
 17 18  1  0
 17 19  2  0
  2 20  1  0
 20 21  2  0
 21 22  1  0
 22 23  2  0
 23 24  1  0
 24 25  2  0
 25 26  1  0
 25 27  1  0
 27 28  2  0
 28 29  1  0
 29 30  2  0
 12  7  1  0
 19 13  1  0
 30 20  1  0
 29 23  1  0
  3 31  1  0
  4 32  1  0
  4 33  1  0
  8 34  1  0
  8 35  1  0
  9 36  1  0
  9 37  1  0
 10 38  1  0
 10 39  1  0
 11 40  1  0
 11 41  1  0
 12 42  1  1
 14 43  1  0
 15 44  1  0
 16 45  1  0
 18 46  1  0
 19 47  1  0
 21 48  1  0
 22 49  1  0
 24 50  1  0
 27 51  1  0
 28 52  1  0
M  END
>  <smiles>  (6) 
O=C(NCC(=O)N1CCCCC1c1cccc(O)c1)c1ccc2cc(F)ccc2n1

>  <score_type>  (6) 
oracle

>  <origin>  (6) 
autodockgpu

>  <m_score__min__energy>  (6) 
-8.9600000000000009

>  <m_primary>  (6) 
energy

>  <rmsd>  (6) 
1.6442625409282223

>  <m_score__min__rmsd>  (6) 
1.6442625409282223

>  <meeko>  (6) 
{"free_energy": -8.6, "intermolecular_energy": -10.39, "internal_energy": -1.51, "cluster_size": 17, "cluster_id": 1, "rank_in_cluster": 9}

>  <energy>  (6) 
-8.88

>  <cluster_rmsd>  (6) 
0.67

>  <cluster>  (6) 
1

$$$$

     RDKit          3D

 52 55  0  0  0  0  0  0  0  0999 V2000
  140.4930   71.4880  221.1090 O   0  0  0  0  0  0  0  0  0  0  0  0
  140.1630   71.9690  222.2260 C   0  0  0  0  0  0  0  0  0  0  0  0
  139.8510   73.3610  222.3380 N   0  0  0  0  0  0  0  0  0  0  0  0
  139.9020   74.2570  221.1890 C   0  0  0  0  0  0  0  0  0  0  0  0
  140.1570   75.6590  221.6300 C   0  0  0  0  0  0  0  0  0  0  0  0
  139.6150   76.1400  222.6610 O   0  0  0  0  0  0  0  0  0  0  0  0
  141.0480   76.4960  220.8590 N   0  0  0  0  0  0  0  0  0  0  0  0
  142.2600   75.8590  220.4070 C   0  0  0  0  0  0  0  0  0  0  0  0
  142.8230   76.6090  219.2600 C   0  0  0  0  0  0  0  0  0  0  0  0
  141.7530   77.2530  218.4240 C   0  0  0  0  0  0  0  0  0  0  0  0
  140.9820   78.2970  219.1930 C   0  0  0  0  0  0  0  0  0  0  0  0
  140.6850   77.8710  220.6030 C   0  0  2  0  0  0  0  0  0  0  0  0
  141.1800   78.8200  221.6330 C   0  0  0  0  0  0  0  0  0  0  0  0
  141.5710   78.4270  222.8980 C   0  0  0  0  0  0  0  0  0  0  0  0
  142.0330   79.3060  223.8560 C   0  0  0  0  0  0  0  0  0  0  0  0
  142.1240   80.6530  223.5770 C   0  0  0  0  0  0  0  0  0  0  0  0
  141.7420   81.0820  222.3230 C   0  0  0  0  0  0  0  0  0  0  0  0
  141.8260   82.4290  222.0250 O   0  0  0  0  0  0  0  0  0  0  0  0
  141.2830   80.1930  221.3760 C   0  0  0  0  0  0  0  0  0  0  0  0
  140.0780   71.1720  223.4450 C   0  0  0  0  0  0  0  0  0  0  0  0
  139.5290   69.9020  223.3280 C   0  0  0  0  0  0  0  0  0  0  0  0
  139.4190   69.0930  224.4440 C   0  0  0  0  0  0  0  0  0  0  0  0
  139.8580   69.5620  225.6640 C   0  0  0  0  0  0  0  0  0  0  0  0
  139.7480   68.7610  226.7730 C   0  0  0  0  0  0  0  0  0  0  0  0
  140.1970   69.2540  227.9930 C   0  0  0  0  0  0  0  0  0  0  0  0
  140.1050   68.4970  229.0970 F   0  0  0  0  0  0  0  0  0  0  0  0
  140.7400   70.5360  228.0590 C   0  0  0  0  0  0  0  0  0  0  0  0
  140.8480   71.3380  226.9410 C   0  0  0  0  0  0  0  0  0  0  0  0
  140.4000   70.8410  225.7290 C   0  0  0  0  0  0  0  0  0  0  0  0
  140.5010   71.6140  224.6410 N   0  0  0  0  0  0  0  0  0  0  0  0
  139.5760   73.7600  223.2740 H   0  0  0  0  0  0  0  0  0  0  0  0
  140.7108   73.9366  220.5158 H   0  0  0  0  0  0  0  0  0  0  0  0
  138.9353   74.2192  220.6655 H   0  0  0  0  0  0  0  0  0  0  0  0
  142.9922   75.8430  221.2277 H   0  0  0  0  0  0  0  0  0  0  0  0
  142.0338   74.8296  220.0922 H   0  0  0  0  0  0  0  0  0  0  0  0
  143.4929   77.3927  219.6434 H   0  0  0  0  0  0  0  0  0  0  0  0
  143.3660   75.8953  218.6230 H   0  0  0  0  0  0  0  0  0  0  0  0
  142.2238   77.7307  217.5521 H   0  0  0  0  0  0  0  0  0  0  0  0
  141.0459   76.4685  218.1166 H   0  0  0  0  0  0  0  0  0  0  0  0
  141.5748   79.2232  219.2218 H   0  0  0  0  0  0  0  0  0  0  0  0
  140.0207   78.4477  218.6800 H   0  0  0  0  0  0  0  0  0  0  0  0
  139.5899   77.9119  220.6980 H   0  0  0  0  0  0  0  0  0  0  0  0
  141.5111   77.3591  223.1548 H   0  0  0  0  0  0  0  0  0  0  0  0
  142.3299   78.9304  224.8464 H   0  0  0  0  0  0  0  0  0  0  0  0
  142.4903   81.3644  224.3318 H   0  0  0  0  0  0  0  0  0  0  0  0
  141.0710   82.8920  221.5140 H   0  0  0  0  0  0  0  0  0  0  0  0
  140.9881   80.5734  220.3869 H   0  0  0  0  0  0  0  0  0  0  0  0
  139.1821   69.5400  222.3489 H   0  0  0  0  0  0  0  0  0  0  0  0
  138.9857   68.0855  224.3593 H   0  0  0  0  0  0  0  0  0  0  0  0
  139.3148   67.7527  226.6984 H   0  0  0  0  0  0  0  0  0  0  0  0
  141.0919   70.9189  229.0283 H   0  0  0  0  0  0  0  0  0  0  0  0
  141.2795   72.3474  227.0112 H   0  0  0  0  0  0  0  0  0  0  0  0
  1  2  2  0
  2  3  1  0
  3  4  1  0
  4  5  1  0
  5  6  2  0
  5  7  1  0
  7  8  1  0
  8  9  1  0
  9 10  1  0
 10 11  1  0
 11 12  1  0
 12 13  1  0
 13 14  2  0
 14 15  1  0
 15 16  2  0
 16 17  1  0
 17 18  1  0
 17 19  2  0
  2 20  1  0
 20 21  2  0
 21 22  1  0
 22 23  2  0
 23 24  1  0
 24 25  2  0
 25 26  1  0
 25 27  1  0
 27 28  2  0
 28 29  1  0
 29 30  2  0
 12  7  1  0
 19 13  1  0
 30 20  1  0
 29 23  1  0
  3 31  1  0
  4 32  1  0
  4 33  1  0
  8 34  1  0
  8 35  1  0
  9 36  1  0
  9 37  1  0
 10 38  1  0
 10 39  1  0
 11 40  1  0
 11 41  1  0
 12 42  1  6
 14 43  1  0
 15 44  1  0
 16 45  1  0
 18 46  1  0
 19 47  1  0
 21 48  1  0
 22 49  1  0
 24 50  1  0
 27 51  1  0
 28 52  1  0
M  END
>  <smiles>  (7) 
O=C(NCC(=O)N1CCCCC1c1cccc(O)c1)c1ccc2cc(F)ccc2n1

>  <score_type>  (7) 
oracle

>  <origin>  (7) 
autodockgpu

>  <m_score__min__energy>  (7) 
-8.9600000000000009

>  <m_primary>  (7) 
energy

>  <rmsd>  (7) 
1.9987891483647153

>  <m_score__min__rmsd>  (7) 
1.9987891483647153

>  <meeko>  (7) 
{"free_energy": -8.62, "intermolecular_energy": -10.41, "internal_energy": -1.64, "cluster_size": 14, "cluster_id": 2, "rank_in_cluster": 7}

>  <energy>  (7) 
-8.69

>  <cluster_rmsd>  (7) 
0.71

>  <cluster>  (7) 
1

$$$$

     RDKit          3D

 52 55  0  0  0  0  0  0  0  0999 V2000
  137.2730   75.3920  222.3360 O   0  0  0  0  0  0  0  0  0  0  0  0
  138.5090   75.6410  222.3510 C   0  0  0  0  0  0  0  0  0  0  0  0
  139.4490   74.5930  222.1020 N   0  0  0  0  0  0  0  0  0  0  0  0
  139.0250   73.2260  221.8280 C   0  0  0  0  0  0  0  0  0  0  0  0
  139.7090   72.2710  222.7490 C   0  0  0  0  0  0  0  0  0  0  0  0
  140.9440   72.3420  222.9810 O   0  0  0  0  0  0  0  0  0  0  0  0
  138.9390   71.2330  223.3960 N   0  0  0  0  0  0  0  0  0  0  0  0
  137.5180   71.4690  223.4710 C   0  0  0  0  0  0  0  0  0  0  0  0
  136.8060   70.1870  223.6780 C   0  0  0  0  0  0  0  0  0  0  0  0
  137.5150   69.0340  223.0260 C   0  0  0  0  0  0  0  0  0  0  0  0
  138.8770   68.7900  223.6270 C   0  0  0  0  0  0  0  0  0  0  0  0
  139.6160   70.0660  223.9140 C   0  0  2  0  0  0  0  0  0  0  0  0
  140.0450   70.2060  225.3300 C   0  0  0  0  0  0  0  0  0  0  0  0
  140.4640   71.4010  225.8780 C   0  0  0  0  0  0  0  0  0  0  0  0
  140.8610   71.5350  227.1930 C   0  0  0  0  0  0  0  0  0  0  0  0
  140.8540   70.4430  228.0350 C   0  0  0  0  0  0  0  0  0  0  0  0
  140.4410   69.2320  227.5210 C   0  0  0  0  0  0  0  0  0  0  0  0
  140.4270   68.1250  228.3500 O   0  0  0  0  0  0  0  0  0  0  0  0
  140.0470   69.1130  226.2060 C   0  0  0  0  0  0  0  0  0  0  0  0
  139.0520   76.9700  222.6130 C   0  0  0  0  0  0  0  0  0  0  0  0
  138.1400   78.0090  222.7350 C   0  0  0  0  0  0  0  0  0  0  0  0
  138.5870   79.2940  222.9840 C   0  0  0  0  0  0  0  0  0  0  0  0
  139.9410   79.5250  223.1080 C   0  0  0  0  0  0  0  0  0  0  0  0
  140.3860   80.8000  223.3540 C   0  0  0  0  0  0  0  0  0  0  0  0
  141.7550   81.0100  223.4750 C   0  0  0  0  0  0  0  0  0  0  0  0
  142.2250   82.2440  223.7160 F   0  0  0  0  0  0  0  0  0  0  0  0
  142.6320   79.9340  223.3440 C   0  0  0  0  0  0  0  0  0  0  0  0
  142.1780   78.6550  223.0950 C   0  0  0  0  0  0  0  0  0  0  0  0
  140.8140   78.4510  222.9760 C   0  0  0  0  0  0  0  0  0  0  0  0
  140.3680   77.2120  222.7360 N   0  0  0  0  0  0  0  0  0  0  0  0
  140.4820   74.8050  222.1160 H   0  0  0  0  0  0  0  0  0  0  0  0
  137.9369   73.1493  221.9701 H   0  0  0  0  0  0  0  0  0  0  0  0
  139.2913   72.9724  220.7913 H   0  0  0  0  0  0  0  0  0  0  0  0
  137.3042   72.1452  224.3118 H   0  0  0  0  0  0  0  0  0  0  0  0
  137.1760   71.9263  222.5308 H   0  0  0  0  0  0  0  0  0  0  0  0
  136.7323   69.9928  224.7582 H   0  0  0  0  0  0  0  0  0  0  0  0
  135.8102   70.2751  223.2190 H   0  0  0  0  0  0  0  0  0  0  0  0
  136.9052   68.1270  223.1503 H   0  0  0  0  0  0  0  0  0  0  0  0
  137.6538   69.2801  221.9629 H   0  0  0  0  0  0  0  0  0  0  0  0
  138.7529   68.2348  224.5685 H   0  0  0  0  0  0  0  0  0  0  0  0
  139.4677   68.2189  222.8956 H   0  0  0  0  0  0  0  0  0  0  0  0
  140.5570   69.9927  223.3490 H   0  0  0  0  0  0  0  0  0  0  0  0
  140.4826   72.2925  225.2338 H   0  0  0  0  0  0  0  0  0  0  0  0
  141.1841   72.5163  227.5707 H   0  0  0  0  0  0  0  0  0  0  0  0
  141.1684   70.5352  229.0851 H   0  0  0  0  0  0  0  0  0  0  0  0
  140.3160   67.1880  227.9570 H   0  0  0  0  0  0  0  0  0  0  0  0
  139.7243   68.1299  225.8328 H   0  0  0  0  0  0  0  0  0  0  0  0
  137.0628   77.8107  222.6338 H   0  0  0  0  0  0  0  0  0  0  0  0
  137.8703   80.1227  223.0820 H   0  0  0  0  0  0  0  0  0  0  0  0
  139.6769   81.6351  223.4530 H   0  0  0  0  0  0  0  0  0  0  0  0
  143.7136   80.1092  223.4416 H   0  0  0  0  0  0  0  0  0  0  0  0
  142.8834   77.8171  222.9934 H   0  0  0  0  0  0  0  0  0  0  0  0
  1  2  2  0
  2  3  1  0
  3  4  1  0
  4  5  1  0
  5  6  2  0
  5  7  1  0
  7  8  1  0
  8  9  1  0
  9 10  1  0
 10 11  1  0
 11 12  1  0
 12 13  1  0
 13 14  2  0
 14 15  1  0
 15 16  2  0
 16 17  1  0
 17 18  1  0
 17 19  2  0
  2 20  1  0
 20 21  2  0
 21 22  1  0
 22 23  2  0
 23 24  1  0
 24 25  2  0
 25 26  1  0
 25 27  1  0
 27 28  2  0
 28 29  1  0
 29 30  2  0
 12  7  1  0
 19 13  1  0
 30 20  1  0
 29 23  1  0
  3 31  1  0
  4 32  1  0
  4 33  1  0
  8 34  1  0
  8 35  1  0
  9 36  1  0
  9 37  1  0
 10 38  1  0
 10 39  1  0
 11 40  1  0
 11 41  1  0
 12 42  1  6
 14 43  1  0
 15 44  1  0
 16 45  1  0
 18 46  1  0
 19 47  1  0
 21 48  1  0
 22 49  1  0
 24 50  1  0
 27 51  1  0
 28 52  1  0
M  END
>  <smiles>  (8) 
O=C(NCC(=O)N1CCCCC1c1cccc(O)c1)c1ccc2cc(F)ccc2n1

>  <score_type>  (8) 
oracle

>  <origin>  (8) 
autodockgpu

>  <m_score__min__energy>  (8) 
-8.9600000000000009

>  <m_primary>  (8) 
energy

>  <rmsd>  (8) 
8.638120460955749

>  <m_score__min__rmsd>  (8) 
8.638120460955749

>  <meeko>  (8) 
{"free_energy": -8.39, "intermolecular_energy": -10.18, "internal_energy": -1.72, "cluster_size": 10, "cluster_id": 4, "rank_in_cluster": 6}

>  <energy>  (8) 
-8.65

>  <cluster_rmsd>  (8) 
0.76

>  <cluster>  (8) 
1

$$$$

     RDKit          3D

 52 55  0  0  0  0  0  0  0  0999 V2000
  136.1820   77.2380  221.6600 O   0  0  0  0  0  0  0  0  0  0  0  0
  136.6410   76.5030  222.5760 C   0  0  0  0  0  0  0  0  0  0  0  0
  138.0530   76.2940  222.6790 N   0  0  0  0  0  0  0  0  0  0  0  0
  138.9930   76.9070  221.7500 C   0  0  0  0  0  0  0  0  0  0  0  0
  140.3000   77.1640  222.4210 C   0  0  0  0  0  0  0  0  0  0  0  0
  141.1150   76.2350  222.6670 O   0  0  0  0  0  0  0  0  0  0  0  0
  140.6500   78.5130  222.8040 N   0  0  0  0  0  0  0  0  0  0  0  0
  141.7660   78.6320  223.7100 C   0  0  0  0  0  0  0  0  0  0  0  0
  142.3310   79.9990  223.6340 C   0  0  0  0  0  0  0  0  0  0  0  0
  142.1900   80.5950  222.2620 C   0  0  0  0  0  0  0  0  0  0  0  0
  140.7450   80.7800  221.8680 C   0  0  0  0  0  0  0  0  0  0  0  0
  139.8830   79.6210  222.2800 C   0  0  2  0  0  0  0  0  0  0  0  0
  138.7290   80.0040  223.1330 C   0  0  0  0  0  0  0  0  0  0  0  0
  138.8250   80.9020  224.1770 C   0  0  0  0  0  0  0  0  0  0  0  0
  137.7540   81.2620  224.9690 C   0  0  0  0  0  0  0  0  0  0  0  0
  136.5070   80.7190  224.7400 C   0  0  0  0  0  0  0  0  0  0  0  0
  136.3740   79.8170  223.7050 C   0  0  0  0  0  0  0  0  0  0  0  0
  135.1320   79.2620  223.4600 O   0  0  0  0  0  0  0  0  0  0  0  0
  137.4520   79.4680  222.9220 C   0  0  0  0  0  0  0  0  0  0  0  0
  135.7990   75.8370  223.5620 C   0  0  0  0  0  0  0  0  0  0  0  0
  135.8000   74.4490  223.5560 C   0  0  0  0  0  0  0  0  0  0  0  0
  135.0240   73.7540  224.4660 C   0  0  0  0  0  0  0  0  0  0  0  0
  134.2540   74.4550  225.3710 C   0  0  0  0  0  0  0  0  0  0  0  0
  133.4830   73.7670  226.2730 C   0  0  0  0  0  0  0  0  0  0  0  0
  132.7140   74.4930  227.1760 C   0  0  0  0  0  0  0  0  0  0  0  0
  131.9490   73.8530  228.0730 F   0  0  0  0  0  0  0  0  0  0  0  0
  132.7460   75.8860  227.1420 C   0  0  0  0  0  0  0  0  0  0  0  0
  133.5240   76.5730  226.2320 C   0  0  0  0  0  0  0  0  0  0  0  0
  134.2870   75.8450  225.3360 C   0  0  0  0  0  0  0  0  0  0  0  0
  135.0430   76.5050  224.4500 N   0  0  0  0  0  0  0  0  0  0  0  0
  138.4340   75.6790  223.4460 H   0  0  0  0  0  0  0  0  0  0  0  0
  139.1512   76.2311  220.8967 H   0  0  0  0  0  0  0  0  0  0  0  0
  138.5770   77.8647  221.4039 H   0  0  0  0  0  0  0  0  0  0  0  0
  141.4252   78.4344  224.7370 H   0  0  0  0  0  0  0  0  0  0  0  0
  142.5405   77.9030  223.4296 H   0  0  0  0  0  0  0  0  0  0  0  0
  141.8039   80.6409  224.3551 H   0  0  0  0  0  0  0  0  0  0  0  0
  143.4043   79.9346  223.8659 H   0  0  0  0  0  0  0  0  0  0  0  0
  142.6895   81.5750  222.2482 H   0  0  0  0  0  0  0  0  0  0  0  0
  142.6505   79.9015  221.5430 H   0  0  0  0  0  0  0  0  0  0  0  0
  140.3624   81.6924  222.3487 H   0  0  0  0  0  0  0  0  0  0  0  0
  140.7046   80.8530  220.7712 H   0  0  0  0  0  0  0  0  0  0  0  0
  139.4239   79.2519  221.3510 H   0  0  0  0  0  0  0  0  0  0  0  0
  139.8055   81.3537  224.3884 H   0  0  0  0  0  0  0  0  0  0  0  0
  137.8953   81.9848  225.7861 H   0  0  0  0  0  0  0  0  0  0  0  0
  135.6447   80.9969  225.3639 H   0  0  0  0  0  0  0  0  0  0  0  0
  135.0500   78.2780  223.1940 H   0  0  0  0  0  0  0  0  0  0  0  0
  137.3057   78.7457  222.1053 H   0  0  0  0  0  0  0  0  0  0  0  0
  136.4174   73.9021  222.8282 H   0  0  0  0  0  0  0  0  0  0  0  0
  135.0209   72.6540  224.4681 H   0  0  0  0  0  0  0  0  0  0  0  0
  133.4732   72.6671  226.2819 H   0  0  0  0  0  0  0  0  0  0  0  0
  132.1349   76.4531  227.8596 H   0  0  0  0  0  0  0  0  0  0  0  0
  133.5372   77.6728  226.2193 H   0  0  0  0  0  0  0  0  0  0  0  0
  1  2  2  0
  2  3  1  0
  3  4  1  0
  4  5  1  0
  5  6  2  0
  5  7  1  0
  7  8  1  0
  8  9  1  0
  9 10  1  0
 10 11  1  0
 11 12  1  0
 12 13  1  0
 13 14  2  0
 14 15  1  0
 15 16  2  0
 16 17  1  0
 17 18  1  0
 17 19  2  0
  2 20  1  0
 20 21  2  0
 21 22  1  0
 22 23  2  0
 23 24  1  0
 24 25  2  0
 25 26  1  0
 25 27  1  0
 27 28  2  0
 28 29  1  0
 29 30  2  0
 12  7  1  0
 19 13  1  0
 30 20  1  0
 29 23  1  0
  3 31  1  0
  4 32  1  0
  4 33  1  0
  8 34  1  0
  8 35  1  0
  9 36  1  0
  9 37  1  0
 10 38  1  0
 10 39  1  0
 11 40  1  0
 11 41  1  0
 12 42  1  6
 14 43  1  0
 15 44  1  0
 16 45  1  0
 18 46  1  0
 19 47  1  0
 21 48  1  0
 22 49  1  0
 24 50  1  0
 27 51  1  0
 28 52  1  0
M  END
>  <smiles>  (9) 
O=C(NCC(=O)N1CCCCC1c1cccc(O)c1)c1ccc2cc(F)ccc2n1

>  <score_type>  (9) 
oracle

>  <origin>  (9) 
autodockgpu

>  <m_score__min__energy>  (9) 
-8.9600000000000009

>  <m_primary>  (9) 
energy

>  <rmsd>  (9) 
6.731966547840374

>  <m_score__min__rmsd>  (9) 
6.731966547840374

>  <meeko>  (9) 
{"free_energy": -6.7, "intermolecular_energy": -8.49, "internal_energy": -2.95, "cluster_size": 2, "cluster_id": 6, "rank_in_cluster": 2}

>  <energy>  (9) 
-8.6

>  <cluster_rmsd>  (9) 
1.25

>  <cluster>  (9) 
1

$$$$

     RDKit          3D

 52 55  0  0  0  0  0  0  0  0999 V2000
  137.3560   75.4560  221.9350 O   0  0  0  0  0  0  0  0  0  0  0  0
  138.5760   75.6730  222.1710 C   0  0  0  0  0  0  0  0  0  0  0  0
  139.5160   74.5970  222.0990 N   0  0  0  0  0  0  0  0  0  0  0  0
  139.1100   73.2390  221.7580 C   0  0  0  0  0  0  0  0  0  0  0  0
  139.7880   72.2510  222.6470 C   0  0  0  0  0  0  0  0  0  0  0  0
  141.0400   72.2300  222.7820 O   0  0  0  0  0  0  0  0  0  0  0  0
  138.9950   71.2900  223.3780 N   0  0  0  0  0  0  0  0  0  0  0  0
  137.5920   71.6040  223.4940 C   0  0  0  0  0  0  0  0  0  0  0  0
  136.8250   70.3730  223.7960 C   0  0  0  0  0  0  0  0  0  0  0  0
  137.4470   69.1530  223.1800 C   0  0  0  0  0  0  0  0  0  0  0  0
  138.8190   68.8690  223.7400 C   0  0  0  0  0  0  0  0  0  0  0  0
  139.6330   70.1170  223.9310 C   0  0  2  0  0  0  0  0  0  0  0  0
  140.1260   70.3060  225.3200 C   0  0  0  0  0  0  0  0  0  0  0  0
  140.5770   71.5180  225.8030 C   0  0  0  0  0  0  0  0  0  0  0  0
  141.0330   71.6980  227.0930 C   0  0  0  0  0  0  0  0  0  0  0  0
  141.0570   70.6380  227.9750 C   0  0  0  0  0  0  0  0  0  0  0  0
  140.6140   69.4120  227.5260 C   0  0  0  0  0  0  0  0  0  0  0  0
  140.6320   68.3370  228.3960 O   0  0  0  0  0  0  0  0  0  0  0  0
  140.1610   69.2480  226.2350 C   0  0  0  0  0  0  0  0  0  0  0  0
  139.0990   76.9880  222.5210 C   0  0  0  0  0  0  0  0  0  0  0  0
  138.1720   78.0020  222.7180 C   0  0  0  0  0  0  0  0  0  0  0  0
  138.6010   79.2740  223.0530 C   0  0  0  0  0  0  0  0  0  0  0  0
  139.9520   79.5180  223.1860 C   0  0  0  0  0  0  0  0  0  0  0  0
  140.3780   80.7790  223.5170 C   0  0  0  0  0  0  0  0  0  0  0  0
  141.7440   81.0030  223.6460 C   0  0  0  0  0  0  0  0  0  0  0  0
  142.1970   82.2240  223.9690 F   0  0  0  0  0  0  0  0  0  0  0  0
  142.6370   79.9520  223.4380 C   0  0  0  0  0  0  0  0  0  0  0  0
  142.2020   78.6850  223.1040 C   0  0  0  0  0  0  0  0  0  0  0  0
  140.8400   78.4680  222.9780 C   0  0  0  0  0  0  0  0  0  0  0  0
  140.4120   77.2420  222.6540 N   0  0  0  0  0  0  0  0  0  0  0  0
  140.5350   74.7820  222.2960 H   0  0  0  0  0  0  0  0  0  0  0  0
  138.0206   73.1461  221.8784 H   0  0  0  0  0  0  0  0  0  0  0  0
  139.3957   73.0338  220.7158 H   0  0  0  0  0  0  0  0  0  0  0  0
  137.4468   72.3328  224.3050 H   0  0  0  0  0  0  0  0  0  0  0  0
  137.2357   72.0299  222.5445 H   0  0  0  0  0  0  0  0  0  0  0  0
  136.7859   70.2384  224.8870 H   0  0  0  0  0  0  0  0  0  0  0  0
  135.8171   70.4898  223.3712 H   0  0  0  0  0  0  0  0  0  0  0  0
  136.7979   68.2869  223.3762 H   0  0  0  0  0  0  0  0  0  0  0  0
  137.5539   69.3365  222.1007 H   0  0  0  0  0  0  0  0  0  0  0  0
  138.7060   68.3693  224.7134 H   0  0  0  0  0  0  0  0  0  0  0  0
  139.3494   68.2319  223.0170 H   0  0  0  0  0  0  0  0  0  0  0  0
  140.5456   69.9657  223.3358 H   0  0  0  0  0  0  0  0  0  0  0  0
  140.5727   72.3843  225.1252 H   0  0  0  0  0  0  0  0  0  0  0  0
  141.3785   72.6902  227.4189 H   0  0  0  0  0  0  0  0  0  0  0  0
  141.4188   70.7668  229.0058 H   0  0  0  0  0  0  0  0  0  0  0  0
  140.4260   67.3950  228.0560 H   0  0  0  0  0  0  0  0  0  0  0  0
  139.8161   68.2541  225.9137 H   0  0  0  0  0  0  0  0  0  0  0  0
  137.0974   77.7946  222.6079 H   0  0  0  0  0  0  0  0  0  0  0  0
  137.8721   80.0824  223.2116 H   0  0  0  0  0  0  0  0  0  0  0  0
  139.6562   81.5936  223.6766 H   0  0  0  0  0  0  0  0  0  0  0  0
  143.7162   80.1375  223.5428 H   0  0  0  0  0  0  0  0  0  0  0  0
  142.9199   77.8675  222.9419 H   0  0  0  0  0  0  0  0  0  0  0  0
  1  2  2  0
  2  3  1  0
  3  4  1  0
  4  5  1  0
  5  6  2  0
  5  7  1  0
  7  8  1  0
  8  9  1  0
  9 10  1  0
 10 11  1  0
 11 12  1  0
 12 13  1  0
 13 14  2  0
 14 15  1  0
 15 16  2  0
 16 17  1  0
 17 18  1  0
 17 19  2  0
  2 20  1  0
 20 21  2  0
 21 22  1  0
 22 23  2  0
 23 24  1  0
 24 25  2  0
 25 26  1  0
 25 27  1  0
 27 28  2  0
 28 29  1  0
 29 30  2  0
 12  7  1  0
 19 13  1  0
 30 20  1  0
 29 23  1  0
  3 31  1  0
  4 32  1  0
  4 33  1  0
  8 34  1  0
  8 35  1  0
  9 36  1  0
  9 37  1  0
 10 38  1  0
 10 39  1  0
 11 40  1  0
 11 41  1  0
 12 42  1  6
 14 43  1  0
 15 44  1  0
 16 45  1  0
 18 46  1  0
 19 47  1  0
 21 48  1  0
 22 49  1  0
 24 50  1  0
 27 51  1  0
 28 52  1  0
M  END
>  <smiles>  (10) 
O=C(NCC(=O)N1CCCCC1c1cccc(O)c1)c1ccc2cc(F)ccc2n1

>  <score_type>  (10) 
oracle

>  <origin>  (10) 
autodockgpu

>  <m_score__min__energy>  (10) 
-8.9600000000000009

>  <m_primary>  (10) 
energy

>  <rmsd>  (10) 
8.61317987349235

>  <m_score__min__rmsd>  (10) 
8.61317987349235

>  <meeko>  (10) 
{"free_energy": -8.4, "intermolecular_energy": -10.19, "internal_energy": -1.72, "cluster_size": 10, "cluster_id": 4, "rank_in_cluster": 5}

>  <energy>  (10) 
-8.58

>  <cluster_rmsd>  (10) 
1.2

>  <cluster>  (10) 
1

$$$$

     RDKit          3D

 52 55  0  0  0  0  0  0  0  0999 V2000
  140.8660   71.6740  221.1790 O   0  0  0  0  0  0  0  0  0  0  0  0
  140.2680   72.1140  222.1980 C   0  0  0  0  0  0  0  0  0  0  0  0
  139.6880   73.4210  222.1730 N   0  0  0  0  0  0  0  0  0  0  0  0
  139.7660   74.2770  220.9960 C   0  0  0  0  0  0  0  0  0  0  0  0
  139.9350   75.7040  221.3960 C   0  0  0  0  0  0  0  0  0  0  0  0
  139.1890   76.2460  222.2540 O   0  0  0  0  0  0  0  0  0  0  0  0
  140.9810   76.4940  220.7870 N   0  0  0  0  0  0  0  0  0  0  0  0
  142.1920   75.7790  220.4680 C   0  0  0  0  0  0  0  0  0  0  0  0
  142.9580   76.5210  219.4400 C   0  0  0  0  0  0  0  0  0  0  0  0
  142.0600   77.2770  218.5020 C   0  0  0  0  0  0  0  0  0  0  0  0
  141.2730   78.3520  219.2100 C   0  0  0  0  0  0  0  0  0  0  0  0
  140.7590   77.9020  220.5480 C   0  0  2  0  0  0  0  0  0  0  0  0
  141.1810   78.7720  221.6770 C   0  0  0  0  0  0  0  0  0  0  0  0
  141.4770   78.2870  222.9350 C   0  0  0  0  0  0  0  0  0  0  0  0
  141.8720   79.0920  223.9850 C   0  0  0  0  0  0  0  0  0  0  0  0
  141.9870   80.4550  223.8090 C   0  0  0  0  0  0  0  0  0  0  0  0
  141.6990   80.9740  222.5640 C   0  0  0  0  0  0  0  0  0  0  0  0
  141.8090   82.3390  222.3690 O   0  0  0  0  0  0  0  0  0  0  0  0
  141.3060   80.1580  221.5260 C   0  0  0  0  0  0  0  0  0  0  0  0
  140.1270   71.3500  223.4330 C   0  0  0  0  0  0  0  0  0  0  0  0
  139.5190   70.1060  223.3370 C   0  0  0  0  0  0  0  0  0  0  0  0
  139.3540   69.3290  224.4690 C   0  0  0  0  0  0  0  0  0  0  0  0
  139.7970   69.8050  225.6850 C   0  0  0  0  0  0  0  0  0  0  0  0
  139.6340   69.0360  226.8090 C   0  0  0  0  0  0  0  0  0  0  0  0
  140.0880   69.5350  228.0240 C   0  0  0  0  0  0  0  0  0  0  0  0
  139.9450   68.8100  229.1440 F   0  0  0  0  0  0  0  0  0  0  0  0
  140.6920   70.7910  228.0700 C   0  0  0  0  0  0  0  0  0  0  0  0
  140.8540   71.5610  226.9360 C   0  0  0  0  0  0  0  0  0  0  0  0
  140.4000   71.0580  225.7290 C   0  0  0  0  0  0  0  0  0  0  0  0
  140.5530   71.8000  224.6250 N   0  0  0  0  0  0  0  0  0  0  0  0
  139.1890   73.7860  223.0270 H   0  0  0  0  0  0  0  0  0  0  0  0
  140.6249   73.9695  220.3814 H   0  0  0  0  0  0  0  0  0  0  0  0
  138.8329   74.1773  220.4221 H   0  0  0  0  0  0  0  0  0  0  0  0
  142.8046   75.6755  221.3757 H   0  0  0  0  0  0  0  0  0  0  0  0
  141.9335   74.7830  220.0792 H   0  0  0  0  0  0  0  0  0  0  0  0
  143.6272   77.2347  219.9428 H   0  0  0  0  0  0  0  0  0  0  0  0
  143.5272   75.7893  218.8479 H   0  0  0  0  0  0  0  0  0  0  0  0
  142.6771   77.7456  217.7212 H   0  0  0  0  0  0  0  0  0  0  0  0
  141.3437   76.5624  218.0704 H   0  0  0  0  0  0  0  0  0  0  0  0
  141.9240   79.2262  219.3581 H   0  0  0  0  0  0  0  0  0  0  0  0
  140.4031   78.5971  218.5830 H   0  0  0  0  0  0  0  0  0  0  0  0
  139.6672   78.0272  220.5000 H   0  0  0  0  0  0  0  0  0  0  0  0
  141.3940   77.2042  223.1099 H   0  0  0  0  0  0  0  0  0  0  0  0
  142.0956   78.6448  224.9648 H   0  0  0  0  0  0  0  0  0  0  0  0
  142.2991   81.1087  224.6368 H   0  0  0  0  0  0  0  0  0  0  0  0
  141.5980   82.7470  221.4560 H   0  0  0  0  0  0  0  0  0  0  0  0
  141.0835   80.6097  220.5480 H   0  0  0  0  0  0  0  0  0  0  0  0
  139.1686   69.7384  222.3612 H   0  0  0  0  0  0  0  0  0  0  0  0
  138.8744   68.3415  224.4001 H   0  0  0  0  0  0  0  0  0  0  0  0
  139.1551   68.0475  226.7501 H   0  0  0  0  0  0  0  0  0  0  0  0
  141.0488   71.1784  229.0357 H   0  0  0  0  0  0  0  0  0  0  0  0
  141.3322   72.5501  226.9901 H   0  0  0  0  0  0  0  0  0  0  0  0
  1  2  2  0
  2  3  1  0
  3  4  1  0
  4  5  1  0
  5  6  2  0
  5  7  1  0
  7  8  1  0
  8  9  1  0
  9 10  1  0
 10 11  1  0
 11 12  1  0
 12 13  1  0
 13 14  2  0
 14 15  1  0
 15 16  2  0
 16 17  1  0
 17 18  1  0
 17 19  2  0
  2 20  1  0
 20 21  2  0
 21 22  1  0
 22 23  2  0
 23 24  1  0
 24 25  2  0
 25 26  1  0
 25 27  1  0
 27 28  2  0
 28 29  1  0
 29 30  2  0
 12  7  1  0
 19 13  1  0
 30 20  1  0
 29 23  1  0
  3 31  1  0
  4 32  1  0
  4 33  1  0
  8 34  1  0
  8 35  1  0
  9 36  1  0
  9 37  1  0
 10 38  1  0
 10 39  1  0
 11 40  1  0
 11 41  1  0
 12 42  1  6
 14 43  1  0
 15 44  1  0
 16 45  1  0
 18 46  1  0
 19 47  1  0
 21 48  1  0
 22 49  1  0
 24 50  1  0
 27 51  1  0
 28 52  1  0
M  END
>  <smiles>  (11) 
O=C(NCC(=O)N1CCCCC1c1cccc(O)c1)c1ccc2cc(F)ccc2n1

>  <score_type>  (11) 
oracle

>  <origin>  (11) 
autodockgpu

>  <m_score__min__energy>  (11) 
-8.9600000000000009

>  <m_primary>  (11) 
energy

>  <rmsd>  (11) 
2.046442798994727

>  <m_score__min__rmsd>  (11) 
2.046442798994727

>  <meeko>  (11) 
{"free_energy": -8.74, "intermolecular_energy": -10.53, "internal_energy": -1.51, "cluster_size": 14, "cluster_id": 2, "rank_in_cluster": 4}

>  <energy>  (11) 
-8.37

>  <cluster_rmsd>  (11) 
1.28

>  <cluster>  (11) 
1

$$$$

     RDKit          3D

 52 55  0  0  0  0  0  0  0  0999 V2000
  141.0550   71.8380  221.2430 O   0  0  0  0  0  0  0  0  0  0  0  0
  140.3640   72.2020  222.2320 C   0  0  0  0  0  0  0  0  0  0  0  0
  139.6640   73.4490  222.1910 N   0  0  0  0  0  0  0  0  0  0  0  0
  139.7220   74.3280  221.0290 C   0  0  0  0  0  0  0  0  0  0  0  0
  139.9350   75.7430  221.4530 C   0  0  0  0  0  0  0  0  0  0  0  0
  139.2390   76.2760  222.3570 O   0  0  0  0  0  0  0  0  0  0  0  0
  140.9640   76.5290  220.8130 N   0  0  0  0  0  0  0  0  0  0  0  0
  142.1690   75.8140  220.4710 C   0  0  0  0  0  0  0  0  0  0  0  0
  142.9080   76.5500  219.4190 C   0  0  0  0  0  0  0  0  0  0  0  0
  141.9870   77.2960  218.4960 C   0  0  0  0  0  0  0  0  0  0  0  0
  141.2140   78.3750  219.2140 C   0  0  0  0  0  0  0  0  0  0  0  0
  140.7340   77.9350  220.5680 C   0  0  2  0  0  0  0  0  0  0  0  0
  141.1800   78.8140  221.6790 C   0  0  0  0  0  0  0  0  0  0  0  0
  141.5260   78.3380  222.9280 C   0  0  0  0  0  0  0  0  0  0  0  0
  141.9430   79.1520  223.9620 C   0  0  0  0  0  0  0  0  0  0  0  0
  142.0320   80.5160  223.7780 C   0  0  0  0  0  0  0  0  0  0  0  0
  141.6940   81.0270  222.5430 C   0  0  0  0  0  0  0  0  0  0  0  0
  141.7760   82.3920  222.3410 O   0  0  0  0  0  0  0  0  0  0  0  0
  141.2790   80.2020  221.5210 C   0  0  0  0  0  0  0  0  0  0  0  0
  140.2300   71.4080  223.4490 C   0  0  0  0  0  0  0  0  0  0  0  0
  139.5910   70.1820  223.3320 C   0  0  0  0  0  0  0  0  0  0  0  0
  139.4310   69.3780  224.4460 C   0  0  0  0  0  0  0  0  0  0  0  0
  139.9110   69.8100  225.6650 C   0  0  0  0  0  0  0  0  0  0  0  0
  139.7520   69.0140  226.7710 C   0  0  0  0  0  0  0  0  0  0  0  0
  140.2440   69.4690  227.9890 C   0  0  0  0  0  0  0  0  0  0  0  0
  140.1070   68.7170  229.0920 F   0  0  0  0  0  0  0  0  0  0  0  0
  140.8790   70.7090  228.0560 C   0  0  0  0  0  0  0  0  0  0  0  0
  141.0360   71.5050  226.9400 C   0  0  0  0  0  0  0  0  0  0  0  0
  140.5440   71.0470  225.7290 C   0  0  0  0  0  0  0  0  0  0  0  0
  140.6930   71.8150  224.6430 N   0  0  0  0  0  0  0  0  0  0  0  0
  139.0870   73.7510  223.0190 H   0  0  0  0  0  0  0  0  0  0  0  0
  140.5535   74.0156  220.3802 H   0  0  0  0  0  0  0  0  0  0  0  0
  138.7689   74.2600  220.4840 H   0  0  0  0  0  0  0  0  0  0  0  0
  142.8035   75.7193  221.3646 H   0  0  0  0  0  0  0  0  0  0  0  0
  141.9041   74.8141  220.0967 H   0  0  0  0  0  0  0  0  0  0  0  0
  143.5867   77.2696  219.9002 H   0  0  0  0  0  0  0  0  0  0  0  0
  143.4646   75.8146  218.8195 H   0  0  0  0  0  0  0  0  0  0  0  0
  142.5847   77.7597  217.6974 H   0  0  0  0  0  0  0  0  0  0  0  0
  141.2627   76.5765  218.0865 H   0  0  0  0  0  0  0  0  0  0  0  0
  141.8658   79.2523  219.3388 H   0  0  0  0  0  0  0  0  0  0  0  0
  140.3283   78.6122  218.6063 H   0  0  0  0  0  0  0  0  0  0  0  0
  139.6412   78.0583  220.5451 H   0  0  0  0  0  0  0  0  0  0  0  0
  141.4663   77.2545  223.1084 H   0  0  0  0  0  0  0  0  0  0  0  0
  142.2050   78.7116  224.9353 H   0  0  0  0  0  0  0  0  0  0  0  0
  142.3630   81.1768  224.5928 H   0  0  0  0  0  0  0  0  0  0  0  0
  141.1780   82.8480  221.6490 H   0  0  0  0  0  0  0  0  0  0  0  0
  141.0171   80.6475  220.5500 H   0  0  0  0  0  0  0  0  0  0  0  0
  139.2120   69.8498  222.3542 H   0  0  0  0  0  0  0  0  0  0  0  0
  138.9263   68.4043  224.3608 H   0  0  0  0  0  0  0  0  0  0  0  0
  139.2475   68.0394  226.6959 H   0  0  0  0  0  0  0  0  0  0  0  0
  141.2647   71.0616  229.0239 H   0  0  0  0  0  0  0  0  0  0  0  0
  141.5400   72.4802  227.0104 H   0  0  0  0  0  0  0  0  0  0  0  0
  1  2  2  0
  2  3  1  0
  3  4  1  0
  4  5  1  0
  5  6  2  0
  5  7  1  0
  7  8  1  0
  8  9  1  0
  9 10  1  0
 10 11  1  0
 11 12  1  0
 12 13  1  0
 13 14  2  0
 14 15  1  0
 15 16  2  0
 16 17  1  0
 17 18  1  0
 17 19  2  0
  2 20  1  0
 20 21  2  0
 21 22  1  0
 22 23  2  0
 23 24  1  0
 24 25  2  0
 25 26  1  0
 25 27  1  0
 27 28  2  0
 28 29  1  0
 29 30  2  0
 12  7  1  0
 19 13  1  0
 30 20  1  0
 29 23  1  0
  3 31  1  0
  4 32  1  0
  4 33  1  0
  8 34  1  0
  8 35  1  0
  9 36  1  0
  9 37  1  0
 10 38  1  0
 10 39  1  0
 11 40  1  0
 11 41  1  0
 12 42  1  6
 14 43  1  0
 15 44  1  0
 16 45  1  0
 18 46  1  0
 19 47  1  0
 21 48  1  0
 22 49  1  0
 24 50  1  0
 27 51  1  0
 28 52  1  0
M  END
>  <smiles>  (12) 
O=C(NCC(=O)N1CCCCC1c1cccc(O)c1)c1ccc2cc(F)ccc2n1

>  <score_type>  (12) 
oracle

>  <origin>  (12) 
autodockgpu

>  <m_score__min__energy>  (12) 
-8.9600000000000009

>  <m_primary>  (12) 
energy

>  <rmsd>  (12) 
2.0553823627660797

>  <m_score__min__rmsd>  (12) 
2.0553823627660797

>  <meeko>  (12) 
{"free_energy": -8.78, "intermolecular_energy": -10.57, "internal_energy": -1.48, "cluster_size": 14, "cluster_id": 2, "rank_in_cluster": 3}

>  <energy>  (12) 
-8.36

>  <cluster_rmsd>  (12) 
1.05

>  <cluster>  (12) 
1

$$$$

     RDKit          3D

 52 55  0  0  0  0  0  0  0  0999 V2000
  138.6960   73.3560  220.4470 O   0  0  0  0  0  0  0  0  0  0  0  0
  138.5180   74.1890  221.3760 C   0  0  0  0  0  0  0  0  0  0  0  0
  137.4710   73.9800  222.3280 N   0  0  0  0  0  0  0  0  0  0  0  0
  136.5890   72.8220  222.2620 C   0  0  0  0  0  0  0  0  0  0  0  0
  137.0750   71.7410  223.1680 C   0  0  0  0  0  0  0  0  0  0  0  0
  136.4150   71.3720  224.1750 O   0  0  0  0  0  0  0  0  0  0  0  0
  138.3380   71.0950  222.8900 N   0  0  0  0  0  0  0  0  0  0  0  0
  138.3020   70.0770  221.8690 C   0  0  0  0  0  0  0  0  0  0  0  0
  139.6650   69.8550  221.3330 C   0  0  0  0  0  0  0  0  0  0  0  0
  140.4930   71.1090  221.3560 C   0  0  0  0  0  0  0  0  0  0  0  0
  140.7350   71.6050  222.7600 C   0  0  0  0  0  0  0  0  0  0  0  0
  139.5150   71.4910  223.6300 C   0  0  2  0  0  0  0  0  0  0  0  0
  139.7330   70.7020  224.8700 C   0  0  0  0  0  0  0  0  0  0  0  0
  140.3050   71.2280  226.0100 C   0  0  0  0  0  0  0  0  0  0  0  0
  140.5060   70.4990  227.1650 C   0  0  0  0  0  0  0  0  0  0  0  0
  140.1310   69.1730  227.2220 C   0  0  0  0  0  0  0  0  0  0  0  0
  139.5570   68.6130  226.1000 C   0  0  0  0  0  0  0  0  0  0  0  0
  139.1750   67.2850  226.1390 O   0  0  0  0  0  0  0  0  0  0  0  0
  139.3620   69.3540  224.9550 C   0  0  0  0  0  0  0  0  0  0  0  0
  139.3370   75.3850  221.5430 C   0  0  0  0  0  0  0  0  0  0  0  0
  140.5780   75.3890  220.9220 C   0  0  0  0  0  0  0  0  0  0  0  0
  141.4050   76.4910  221.0390 C   0  0  0  0  0  0  0  0  0  0  0  0
  140.9820   77.5770  221.7770 C   0  0  0  0  0  0  0  0  0  0  0  0
  141.8020   78.6710  221.8950 C   0  0  0  0  0  0  0  0  0  0  0  0
  141.3560   79.7540  222.6440 C   0  0  0  0  0  0  0  0  0  0  0  0
  142.1310   80.8400  222.7800 F   0  0  0  0  0  0  0  0  0  0  0  0
  140.1010   79.7020  223.2500 C   0  0  0  0  0  0  0  0  0  0  0  0
  139.2810   78.5990  223.1280 C   0  0  0  0  0  0  0  0  0  0  0  0
  139.7300   77.5230  222.3810 C   0  0  0  0  0  0  0  0  0  0  0  0
  138.9400   76.4500  222.2590 N   0  0  0  0  0  0  0  0  0  0  0  0
  137.3250   74.6790  223.1030 H   0  0  0  0  0  0  0  0  0  0  0  0
  135.5755   73.1214  222.5672 H   0  0  0  0  0  0  0  0  0  0  0  0
  136.5783   72.4421  221.2297 H   0  0  0  0  0  0  0  0  0  0  0  0
  137.9225   69.1394  222.3014 H   0  0  0  0  0  0  0  0  0  0  0  0
  137.6400   70.4039  221.0536 H   0  0  0  0  0  0  0  0  0  0  0  0
  140.1654   69.0884  221.9428 H   0  0  0  0  0  0  0  0  0  0  0  0
  139.5686   69.5320  220.2859 H   0  0  0  0  0  0  0  0  0  0  0  0
  141.4633   70.9018  220.8811 H   0  0  0  0  0  0  0  0  0  0  0  0
  139.9403   71.8893  220.8122 H   0  0  0  0  0  0  0  0  0  0  0  0
  141.5449   71.0113  223.2090 H   0  0  0  0  0  0  0  0  0  0  0  0
  141.0012   72.6704  222.6964 H   0  0  0  0  0  0  0  0  0  0  0  0
  139.3130   72.5111  223.9886 H   0  0  0  0  0  0  0  0  0  0  0  0
  140.6170   72.2827  225.9980 H   0  0  0  0  0  0  0  0  0  0  0  0
  140.9665   70.9770  228.0422 H   0  0  0  0  0  0  0  0  0  0  0  0
  140.2852   68.5797  228.1353 H   0  0  0  0  0  0  0  0  0  0  0  0
  139.5040   66.6760  226.8910 H   0  0  0  0  0  0  0  0  0  0  0  0
  138.9006   68.8721  224.0804 H   0  0  0  0  0  0  0  0  0  0  0  0
  140.9036   74.5161  220.3371 H   0  0  0  0  0  0  0  0  0  0  0  0
  142.3897   76.5016  220.5488 H   0  0  0  0  0  0  0  0  0  0  0  0
  142.7885   78.6906  221.4087 H   0  0  0  0  0  0  0  0  0  0  0  0
  139.7557   80.5632  223.8409 H   0  0  0  0  0  0  0  0  0  0  0  0
  138.2939   78.5750  223.6128 H   0  0  0  0  0  0  0  0  0  0  0  0
  1  2  2  0
  2  3  1  0
  3  4  1  0
  4  5  1  0
  5  6  2  0
  5  7  1  0
  7  8  1  0
  8  9  1  0
  9 10  1  0
 10 11  1  0
 11 12  1  0
 12 13  1  0
 13 14  2  0
 14 15  1  0
 15 16  2  0
 16 17  1  0
 17 18  1  0
 17 19  2  0
  2 20  1  0
 20 21  2  0
 21 22  1  0
 22 23  2  0
 23 24  1  0
 24 25  2  0
 25 26  1  0
 25 27  1  0
 27 28  2  0
 28 29  1  0
 29 30  2  0
 12  7  1  0
 19 13  1  0
 30 20  1  0
 29 23  1  0
  3 31  1  0
  4 32  1  0
  4 33  1  0
  8 34  1  0
  8 35  1  0
  9 36  1  0
  9 37  1  0
 10 38  1  0
 10 39  1  0
 11 40  1  0
 11 41  1  0
 12 42  1  1
 14 43  1  0
 15 44  1  0
 16 45  1  0
 18 46  1  0
 19 47  1  0
 21 48  1  0
 22 49  1  0
 24 50  1  0
 27 51  1  0
 28 52  1  0
M  END
>  <smiles>  (13) 
O=C(NCC(=O)N1CCCCC1c1cccc(O)c1)c1ccc2cc(F)ccc2n1

>  <score_type>  (13) 
oracle

>  <origin>  (13) 
autodockgpu

>  <m_score__min__energy>  (13) 
-8.9600000000000009

>  <m_primary>  (13) 
energy

>  <rmsd>  (13) 
7.524889923358053

>  <m_score__min__rmsd>  (13) 
7.524889923358053

>  <meeko>  (13) 
{"free_energy": -7.68, "intermolecular_energy": -9.47, "internal_energy": -2.09, "cluster_size": 10, "cluster_id": 4, "rank_in_cluster": 10}

>  <energy>  (13) 
-8.01

>  <cluster_rmsd>  (13) 
1.38

>  <cluster>  (13) 
1

$$$$

     RDKit          3D

 52 55  0  0  0  0  0  0  0  0999 V2000
  139.2960   70.6690  221.1910 O   0  0  0  0  0  0  0  0  0  0  0  0
  139.4220   71.2430  222.3060 C   0  0  0  0  0  0  0  0  0  0  0  0
  139.3920   72.6710  222.3790 N   0  0  0  0  0  0  0  0  0  0  0  0
  139.2190   73.5000  221.1930 C   0  0  0  0  0  0  0  0  0  0  0  0
  140.0130   74.7570  221.3120 C   0  0  0  0  0  0  0  0  0  0  0  0
  139.9550   75.4840  222.3390 O   0  0  0  0  0  0  0  0  0  0  0  0
  140.8760   75.1590  220.2240 N   0  0  0  0  0  0  0  0  0  0  0  0
  140.2330   75.2920  218.9400 C   0  0  0  0  0  0  0  0  0  0  0  0
  141.0510   76.1550  218.0570 C   0  0  0  0  0  0  0  0  0  0  0  0
  141.7980   77.2080  218.8270 C   0  0  0  0  0  0  0  0  0  0  0  0
  142.8050   76.6090  219.7780 C   0  0  0  0  0  0  0  0  0  0  0  0
  142.2790   75.3900  220.4800 C   0  0  2  0  0  0  0  0  0  0  0  0
  143.1240   74.1810  220.2990 C   0  0  0  0  0  0  0  0  0  0  0  0
  142.7890   72.9410  220.8060 C   0  0  0  0  0  0  0  0  0  0  0  0
  143.5710   71.8160  220.6370 C   0  0  0  0  0  0  0  0  0  0  0  0
  144.7540   71.8920  219.9330 C   0  0  0  0  0  0  0  0  0  0  0  0
  145.1200   73.1150  219.4120 C   0  0  0  0  0  0  0  0  0  0  0  0
  146.3040   73.2110  218.7030 O   0  0  0  0  0  0  0  0  0  0  0  0
  144.3300   74.2300  219.5880 C   0  0  0  0  0  0  0  0  0  0  0  0
  139.6000   70.5190  223.5600 C   0  0  0  0  0  0  0  0  0  0  0  0
  139.1480   69.2080  223.6000 C   0  0  0  0  0  0  0  0  0  0  0  0
  139.2870   68.4640  224.7580 C   0  0  0  0  0  0  0  0  0  0  0  0
  139.8750   69.0410  225.8640 C   0  0  0  0  0  0  0  0  0  0  0  0
  140.0120   68.3050  227.0140 C   0  0  0  0  0  0  0  0  0  0  0  0
  140.6080   68.9060  228.1160 C   0  0  0  0  0  0  0  0  0  0  0  0
  140.7590   68.2150  229.2570 F   0  0  0  0  0  0  0  0  0  0  0  0
  141.0460   70.2260  228.0280 C   0  0  0  0  0  0  0  0  0  0  0  0
  140.9050   70.9620  226.8690 C   0  0  0  0  0  0  0  0  0  0  0  0
  140.3110   70.3580  225.7740 C   0  0  0  0  0  0  0  0  0  0  0  0
  140.1710   71.0670  224.6470 N   0  0  0  0  0  0  0  0  0  0  0  0
  139.4970   73.1480  223.3130 H   0  0  0  0  0  0  0  0  0  0  0  0
  139.5575   72.9408  220.3083 H   0  0  0  0  0  0  0  0  0  0  0  0
  138.1548   73.7603  221.0938 H   0  0  0  0  0  0  0  0  0  0  0  0
  140.1246   74.2982  218.4810 H   0  0  0  0  0  0  0  0  0  0  0  0
  139.2409   75.7474  219.0757 H   0  0  0  0  0  0  0  0  0  0  0  0
  141.7770   75.5263  217.5206 H   0  0  0  0  0  0  0  0  0  0  0  0
  140.3711   76.6653  217.3589 H   0  0  0  0  0  0  0  0  0  0  0  0
  142.3262   77.8598  218.1155 H   0  0  0  0  0  0  0  0  0  0  0  0
  141.0668   77.7755  219.4214 H   0  0  0  0  0  0  0  0  0  0  0  0
  143.7037   76.3282  219.2092 H   0  0  0  0  0  0  0  0  0  0  0  0
  143.0311   77.3646  220.5447 H   0  0  0  0  0  0  0  0  0  0  0  0
  142.3522   75.6166  221.5539 H   0  0  0  0  0  0  0  0  0  0  0  0
  141.8515   72.8448  221.3733 H   0  0  0  0  0  0  0  0  0  0  0  0
  143.2491   70.8554  221.0656 H   0  0  0  0  0  0  0  0  0  0  0  0
  145.3869   71.0036  219.7912 H   0  0  0  0  0  0  0  0  0  0  0  0
  146.6780   74.1270  218.4450 H   0  0  0  0  0  0  0  0  0  0  0  0
  144.6563   75.1880  219.1570 H   0  0  0  0  0  0  0  0  0  0  0  0
  138.6792   68.7603  222.7113 H   0  0  0  0  0  0  0  0  0  0  0  0
  138.9324   67.4234  224.7962 H   0  0  0  0  0  0  0  0  0  0  0  0
  139.6586   67.2644  227.0623 H   0  0  0  0  0  0  0  0  0  0  0  0
  141.5165   70.6937  228.9054 H   0  0  0  0  0  0  0  0  0  0  0  0
  141.2560   72.0032  226.8166 H   0  0  0  0  0  0  0  0  0  0  0  0
  1  2  2  0
  2  3  1  0
  3  4  1  0
  4  5  1  0
  5  6  2  0
  5  7  1  0
  7  8  1  0
  8  9  1  0
  9 10  1  0
 10 11  1  0
 11 12  1  0
 12 13  1  0
 13 14  2  0
 14 15  1  0
 15 16  2  0
 16 17  1  0
 17 18  1  0
 17 19  2  0
  2 20  1  0
 20 21  2  0
 21 22  1  0
 22 23  2  0
 23 24  1  0
 24 25  2  0
 25 26  1  0
 25 27  1  0
 27 28  2  0
 28 29  1  0
 29 30  2  0
 12  7  1  0
 19 13  1  0
 30 20  1  0
 29 23  1  0
  3 31  1  0
  4 32  1  0
  4 33  1  0
  8 34  1  0
  8 35  1  0
  9 36  1  0
  9 37  1  0
 10 38  1  0
 10 39  1  0
 11 40  1  0
 11 41  1  0
 12 42  1  1
 14 43  1  0
 15 44  1  0
 16 45  1  0
 18 46  1  0
 19 47  1  0
 21 48  1  0
 22 49  1  0
 24 50  1  0
 27 51  1  0
 28 52  1  0
M  END
>  <smiles>  (14) 
O=C(NCC(=O)N1CCCCC1c1cccc(O)c1)c1ccc2cc(F)ccc2n1

>  <score_type>  (14) 
oracle

>  <origin>  (14) 
autodockgpu

>  <m_score__min__energy>  (14) 
-8.9600000000000009

>  <m_primary>  (14) 
energy

>  <rmsd>  (14) 
1.484260454786497

>  <m_score__min__rmsd>  (14) 
1.484260454786497

>  <meeko>  (14) 
{"free_energy": -8.9, "intermolecular_energy": -10.69, "internal_energy": -1.9, "cluster_size": 17, "cluster_id": 1, "rank_in_cluster": 4}

>  <energy>  (14) 
-7.92

>  <cluster_rmsd>  (14) 
1.37

>  <cluster>  (14) 
1

$$$$

     RDKit          3D

 52 55  0  0  0  0  0  0  0  0999 V2000
  139.3290   71.0210  221.1860 O   0  0  0  0  0  0  0  0  0  0  0  0
  139.4010   71.5440  222.3300 C   0  0  0  0  0  0  0  0  0  0  0  0
  139.2900   72.9640  222.4710 N   0  0  0  0  0  0  0  0  0  0  0  0
  139.0940   73.8400  221.3230 C   0  0  0  0  0  0  0  0  0  0  0  0
  140.0180   75.0090  221.3940 C   0  0  0  0  0  0  0  0  0  0  0  0
  140.0810   75.7450  222.4140 O   0  0  0  0  0  0  0  0  0  0  0  0
  140.8680   75.3130  220.2640 N   0  0  0  0  0  0  0  0  0  0  0  0
  140.2010   75.3800  218.9870 C   0  0  0  0  0  0  0  0  0  0  0  0
  141.0230   76.1590  218.0320 C   0  0  0  0  0  0  0  0  0  0  0  0
  141.8160   77.2370  218.7160 C   0  0  0  0  0  0  0  0  0  0  0  0
  142.8260   76.6740  219.6840 C   0  0  0  0  0  0  0  0  0  0  0  0
  142.2820   75.5190  220.4760 C   0  0  2  0  0  0  0  0  0  0  0  0
  143.0890   74.2770  220.3590 C   0  0  0  0  0  0  0  0  0  0  0  0
  142.6760   73.0570  220.8560 C   0  0  0  0  0  0  0  0  0  0  0  0
  143.4220   71.9010  220.7470 C   0  0  0  0  0  0  0  0  0  0  0  0
  144.6480   71.9230  220.1160 C   0  0  0  0  0  0  0  0  0  0  0  0
  145.0930   73.1250  219.6070 C   0  0  0  0  0  0  0  0  0  0  0  0
  146.3200   73.1670  218.9710 O   0  0  0  0  0  0  0  0  0  0  0  0
  144.3370   74.2710  219.7230 C   0  0  0  0  0  0  0  0  0  0  0  0
  139.5950   70.7710  223.5510 C   0  0  0  0  0  0  0  0  0  0  0  0
  139.1800   69.4460  223.5290 C   0  0  0  0  0  0  0  0  0  0  0  0
  139.3350   68.6560  224.6540 C   0  0  0  0  0  0  0  0  0  0  0  0
  139.9030   69.1980  225.7870 C   0  0  0  0  0  0  0  0  0  0  0  0
  140.0570   68.4150  226.9030 C   0  0  0  0  0  0  0  0  0  0  0  0
  140.6320   68.9820  228.0350 C   0  0  0  0  0  0  0  0  0  0  0  0
  140.7980   68.2450  229.1440 F   0  0  0  0  0  0  0  0  0  0  0  0
  141.0340   70.3170  228.0080 C   0  0  0  0  0  0  0  0  0  0  0  0
  140.8760   71.1000  226.8830 C   0  0  0  0  0  0  0  0  0  0  0  0
  140.3030   70.5300  225.7590 C   0  0  0  0  0  0  0  0  0  0  0  0
  140.1470   71.2840  224.6640 N   0  0  0  0  0  0  0  0  0  0  0  0
  139.3510   73.3980  223.4300 H   0  0  0  0  0  0  0  0  0  0  0  0
  139.2934   73.2766  220.3995 H   0  0  0  0  0  0  0  0  0  0  0  0
  138.0566   74.2057  221.3276 H   0  0  0  0  0  0  0  0  0  0  0  0
  140.0551   74.3617  218.5973 H   0  0  0  0  0  0  0  0  0  0  0  0
  139.2253   75.8722  219.1122 H   0  0  0  0  0  0  0  0  0  0  0  0
  141.7188   75.4755  217.5234 H   0  0  0  0  0  0  0  0  0  0  0  0
  140.3425   76.6423  217.3155 H   0  0  0  0  0  0  0  0  0  0  0  0
  142.3465   77.8250  217.9526 H   0  0  0  0  0  0  0  0  0  0  0  0
  141.1136   77.8625  219.2865 H   0  0  0  0  0  0  0  0  0  0  0  0
  143.7043   76.3308  219.1176 H   0  0  0  0  0  0  0  0  0  0  0  0
  143.0892   77.4718  220.3941 H   0  0  0  0  0  0  0  0  0  0  0  0
  142.3852   75.8130  221.5309 H   0  0  0  0  0  0  0  0  0  0  0  0
  141.7023   73.0036  221.3650 H   0  0  0  0  0  0  0  0  0  0  0  0
  143.0374   70.9589  221.1648 H   0  0  0  0  0  0  0  0  0  0  0  0
  145.2529   71.0091  220.0215 H   0  0  0  0  0  0  0  0  0  0  0  0
  146.6990   74.0570  218.6410 H   0  0  0  0  0  0  0  0  0  0  0  0
  144.7256   75.2105  219.3031 H   0  0  0  0  0  0  0  0  0  0  0  0
  138.7287   69.0252  222.6184 H   0  0  0  0  0  0  0  0  0  0  0  0
  139.0082   67.6057  224.6445 H   0  0  0  0  0  0  0  0  0  0  0  0
  139.7333   67.3637  226.9023 H   0  0  0  0  0  0  0  0  0  0  0  0
  141.4891   70.7575  228.9074 H   0  0  0  0  0  0  0  0  0  0  0  0
  141.1976   72.1519  226.8793 H   0  0  0  0  0  0  0  0  0  0  0  0
  1  2  2  0
  2  3  1  0
  3  4  1  0
  4  5  1  0
  5  6  2  0
  5  7  1  0
  7  8  1  0
  8  9  1  0
  9 10  1  0
 10 11  1  0
 11 12  1  0
 12 13  1  0
 13 14  2  0
 14 15  1  0
 15 16  2  0
 16 17  1  0
 17 18  1  0
 17 19  2  0
  2 20  1  0
 20 21  2  0
 21 22  1  0
 22 23  2  0
 23 24  1  0
 24 25  2  0
 25 26  1  0
 25 27  1  0
 27 28  2  0
 28 29  1  0
 29 30  2  0
 12  7  1  0
 19 13  1  0
 30 20  1  0
 29 23  1  0
  3 31  1  0
  4 32  1  0
  4 33  1  0
  8 34  1  0
  8 35  1  0
  9 36  1  0
  9 37  1  0
 10 38  1  0
 10 39  1  0
 11 40  1  0
 11 41  1  0
 12 42  1  1
 14 43  1  0
 15 44  1  0
 16 45  1  0
 18 46  1  0
 19 47  1  0
 21 48  1  0
 22 49  1  0
 24 50  1  0
 27 51  1  0
 28 52  1  0
M  END
>  <smiles>  (15) 
O=C(NCC(=O)N1CCCCC1c1cccc(O)c1)c1ccc2cc(F)ccc2n1

>  <score_type>  (15) 
oracle

>  <origin>  (15) 
autodockgpu

>  <m_score__min__energy>  (15) 
-8.9600000000000009

>  <m_primary>  (15) 
energy

>  <rmsd>  (15) 
1.4496621740937596

>  <m_score__min__rmsd>  (15) 
1.4496621740937596

>  <meeko>  (15) 
{"free_energy": -8.92, "intermolecular_energy": -10.71, "internal_energy": -1.9, "cluster_size": 17, "cluster_id": 1, "rank_in_cluster": 3}

>  <energy>  (15) 
-7.79

>  <cluster_rmsd>  (15) 
1.21

>  <cluster>  (15) 
1

$$$$

     RDKit          3D

 52 55  0  0  0  0  0  0  0  0999 V2000
  136.0790   76.8550  221.8080 O   0  0  0  0  0  0  0  0  0  0  0  0
  136.3440   75.8250  222.4860 C   0  0  0  0  0  0  0  0  0  0  0  0
  137.5190   75.0640  222.1940 N   0  0  0  0  0  0  0  0  0  0  0  0
  138.4360   75.4410  221.1250 C   0  0  0  0  0  0  0  0  0  0  0  0
  139.8410   75.1060  221.4980 C   0  0  0  0  0  0  0  0  0  0  0  0
  140.1120   74.1550  222.2780 O   0  0  0  0  0  0  0  0  0  0  0  0
  140.9270   75.8880  220.9530 N   0  0  0  0  0  0  0  0  0  0  0  0
  142.1810   75.1910  220.8060 C   0  0  0  0  0  0  0  0  0  0  0  0
  143.0340   75.8930  219.8190 C   0  0  0  0  0  0  0  0  0  0  0  0
  142.2230   76.5660  218.7480 C   0  0  0  0  0  0  0  0  0  0  0  0
  141.3410   77.6570  219.3030 C   0  0  0  0  0  0  0  0  0  0  0  0
  140.7000   77.2730  220.6060 C   0  0  2  0  0  0  0  0  0  0  0  0
  140.9800   78.2190  221.7170 C   0  0  0  0  0  0  0  0  0  0  0  0
  140.0790   78.4860  222.7280 C   0  0  0  0  0  0  0  0  0  0  0  0
  140.3380   79.3630  223.7630 C   0  0  0  0  0  0  0  0  0  0  0  0
  141.5460   80.0250  223.8250 C   0  0  0  0  0  0  0  0  0  0  0  0
  142.4700   79.7830  222.8310 C   0  0  0  0  0  0  0  0  0  0  0  0
  143.6860   80.4390  222.8770 O   0  0  0  0  0  0  0  0  0  0  0  0
  142.1980   78.9050  221.8050 C   0  0  0  0  0  0  0  0  0  0  0  0
  135.5020   75.3520  223.5780 C   0  0  0  0  0  0  0  0  0  0  0  0
  135.4200   73.9780  223.7590 C   0  0  0  0  0  0  0  0  0  0  0  0
  134.6400   73.4610  224.7770 C   0  0  0  0  0  0  0  0  0  0  0  0
  133.9490   74.3230  225.6030 C   0  0  0  0  0  0  0  0  0  0  0  0
  133.1740   73.8110  226.6130 C   0  0  0  0  0  0  0  0  0  0  0  0
  132.4870   74.6990  227.4330 C   0  0  0  0  0  0  0  0  0  0  0  0
  131.7200   74.2330  228.4310 F   0  0  0  0  0  0  0  0  0  0  0  0
  132.6000   76.0700  227.2120 C   0  0  0  0  0  0  0  0  0  0  0  0
  133.3810   76.5790  226.1940 C   0  0  0  0  0  0  0  0  0  0  0  0
  134.0640   75.6910  225.3800 C   0  0  0  0  0  0  0  0  0  0  0  0
  134.8230   76.1780  224.3910 N   0  0  0  0  0  0  0  0  0  0  0  0
  137.7380   74.2040  222.7630 H   0  0  0  0  0  0  0  0  0  0  0  0
  138.1657   74.8971  220.2079 H   0  0  0  0  0  0  0  0  0  0  0  0
  138.3615   76.5259  220.9591 H   0  0  0  0  0  0  0  0  0  0  0  0
  142.6969   75.1592  221.7770 H   0  0  0  0  0  0  0  0  0  0  0  0
  141.9876   74.1667  220.4547 H   0  0  0  0  0  0  0  0  0  0  0  0
  143.6302   76.6542  220.3434 H   0  0  0  0  0  0  0  0  0  0  0  0
  143.6787   75.1443  219.3354 H   0  0  0  0  0  0  0  0  0  0  0  0
  142.9082   77.0060  218.0085 H   0  0  0  0  0  0  0  0  0  0  0  0
  141.5730   75.8066  218.2888 H   0  0  0  0  0  0  0  0  0  0  0  0
  141.9523   78.5575  219.4627 H   0  0  0  0  0  0  0  0  0  0  0  0
  140.5359   77.8377  218.5755 H   0  0  0  0  0  0  0  0  0  0  0  0
  139.6169   77.3651  220.4373 H   0  0  0  0  0  0  0  0  0  0  0  0
  139.1054   77.9744  222.7084 H   0  0  0  0  0  0  0  0  0  0  0  0
  139.5785   79.5339  224.5401 H   0  0  0  0  0  0  0  0  0  0  0  0
  141.7660   80.7258  224.6438 H   0  0  0  0  0  0  0  0  0  0  0  0
  144.4830   80.0860  222.3420 H   0  0  0  0  0  0  0  0  0  0  0  0
  142.9611   78.7374  221.0307 H   0  0  0  0  0  0  0  0  0  0  0  0
  135.9752   73.3010  223.0930 H   0  0  0  0  0  0  0  0  0  0  0  0
  134.5712   72.3734  224.9266 H   0  0  0  0  0  0  0  0  0  0  0  0
  133.0982   72.7249  226.7700 H   0  0  0  0  0  0  0  0  0  0  0  0
  132.0526   76.7649  227.8658 H   0  0  0  0  0  0  0  0  0  0  0  0
  133.4590   77.6644  226.0331 H   0  0  0  0  0  0  0  0  0  0  0  0
  1  2  2  0
  2  3  1  0
  3  4  1  0
  4  5  1  0
  5  6  2  0
  5  7  1  0
  7  8  1  0
  8  9  1  0
  9 10  1  0
 10 11  1  0
 11 12  1  0
 12 13  1  0
 13 14  2  0
 14 15  1  0
 15 16  2  0
 16 17  1  0
 17 18  1  0
 17 19  2  0
  2 20  1  0
 20 21  2  0
 21 22  1  0
 22 23  2  0
 23 24  1  0
 24 25  2  0
 25 26  1  0
 25 27  1  0
 27 28  2  0
 28 29  1  0
 29 30  2  0
 12  7  1  0
 19 13  1  0
 30 20  1  0
 29 23  1  0
  3 31  1  0
  4 32  1  0
  4 33  1  0
  8 34  1  0
  8 35  1  0
  9 36  1  0
  9 37  1  0
 10 38  1  0
 10 39  1  0
 11 40  1  0
 11 41  1  0
 12 42  1  6
 14 43  1  0
 15 44  1  0
 16 45  1  0
 18 46  1  0
 19 47  1  0
 21 48  1  0
 22 49  1  0
 24 50  1  0
 27 51  1  0
 28 52  1  0
M  END
>  <smiles>  (16) 
O=C(NCC(=O)N1CCCCC1c1cccc(O)c1)c1ccc2cc(F)ccc2n1

>  <score_type>  (16) 
oracle

>  <origin>  (16) 
autodockgpu

>  <m_score__min__energy>  (16) 
-8.9600000000000009

>  <m_primary>  (16) 
energy

>  <rmsd>  (16) 
5.888186237650793

>  <m_score__min__rmsd>  (16) 
5.888186237650793

>  <meeko>  (16) 
{"free_energy": -7.63, "intermolecular_energy": -9.42, "internal_energy": -1.65, "cluster_size": 1, "cluster_id": 5, "rank_in_cluster": 1}

>  <energy>  (16) 
-7.58

>  <cluster_rmsd>  (16) 
1.25

>  <cluster>  (16) 
1

$$$$

     RDKit          3D

 52 55  0  0  0  0  0  0  0  0999 V2000
  141.1850   73.5510  221.6770 O   0  0  0  0  0  0  0  0  0  0  0  0
  140.1170   73.3110  222.3030 C   0  0  0  0  0  0  0  0  0  0  0  0
  139.0250   74.2320  222.2260 N   0  0  0  0  0  0  0  0  0  0  0  0
  139.1030   75.4560  221.4390 C   0  0  0  0  0  0  0  0  0  0  0  0
  138.8020   76.6450  222.2890 C   0  0  0  0  0  0  0  0  0  0  0  0
  137.8340   76.6580  223.0930 O   0  0  0  0  0  0  0  0  0  0  0  0
  139.6410   77.8190  222.1930 N   0  0  0  0  0  0  0  0  0  0  0  0
  138.9390   79.0740  222.0830 C   0  0  0  0  0  0  0  0  0  0  0  0
  139.8330   80.1850  222.4870 C   0  0  0  0  0  0  0  0  0  0  0  0
  140.8140   79.7660  223.5450 C   0  0  0  0  0  0  0  0  0  0  0  0
  141.7630   78.7020  223.0530 C   0  0  0  0  0  0  0  0  0  0  0  0
  141.0780   77.6670  222.2070 C   0  0  2  0  0  0  0  0  0  0  0  0
  141.6730   77.5060  220.8550 C   0  0  0  0  0  0  0  0  0  0  0  0
  142.0980   76.2910  220.3550 C   0  0  0  0  0  0  0  0  0  0  0  0
  142.6490   76.1380  219.0990 C   0  0  0  0  0  0  0  0  0  0  0  0
  142.8000   77.2290  218.2700 C   0  0  0  0  0  0  0  0  0  0  0  0
  142.3860   78.4600  218.7360 C   0  0  0  0  0  0  0  0  0  0  0  0
  142.5310   79.5650  217.9190 O   0  0  0  0  0  0  0  0  0  0  0  0
  141.8380   78.5970  219.9920 C   0  0  0  0  0  0  0  0  0  0  0  0
  139.9220   72.1200  223.1210 C   0  0  0  0  0  0  0  0  0  0  0  0
  139.0010   71.1860  222.6650 C   0  0  0  0  0  0  0  0  0  0  0  0
  138.7680   70.0340  223.3920 C   0  0  0  0  0  0  0  0  0  0  0  0
  139.4570   69.8270  224.5690 C   0  0  0  0  0  0  0  0  0  0  0  0
  139.2260   68.6840  225.2930 C   0  0  0  0  0  0  0  0  0  0  0  0
  139.9310   68.4970  226.4760 C   0  0  0  0  0  0  0  0  0  0  0  0
  139.7310   67.3900  227.2080 F   0  0  0  0  0  0  0  0  0  0  0  0
  140.8450   69.4630  226.8940 C   0  0  0  0  0  0  0  0  0  0  0  0
  141.0730   70.6110  226.1620 C   0  0  0  0  0  0  0  0  0  0  0  0
  140.3680   70.7930  224.9840 C   0  0  0  0  0  0  0  0  0  0  0  0
  140.5840   71.9040  224.2700 N   0  0  0  0  0  0  0  0  0  0  0  0
  138.1330   74.0280  222.7500 H   0  0  0  0  0  0  0  0  0  0  0  0
  140.1168   75.5553  221.0239 H   0  0  0  0  0  0  0  0  0  0  0  0
  138.3635   75.4037  220.6264 H   0  0  0  0  0  0  0  0  0  0  0  0
  138.6184   79.2233  221.0414 H   0  0  0  0  0  0  0  0  0  0  0  0
  138.0587   79.0574  222.7424 H   0  0  0  0  0  0  0  0  0  0  0  0
  140.3902   80.5308  221.6038 H   0  0  0  0  0  0  0  0  0  0  0  0
  139.2076   80.9879  222.9044 H   0  0  0  0  0  0  0  0  0  0  0  0
  141.3977   80.6453  223.8550 H   0  0  0  0  0  0  0  0  0  0  0  0
  140.2438   79.3466  224.3870 H   0  0  0  0  0  0  0  0  0  0  0  0
  142.5512   79.1818  222.4542 H   0  0  0  0  0  0  0  0  0  0  0  0
  142.1789   78.1916  223.9342 H   0  0  0  0  0  0  0  0  0  0  0  0
  141.2712   76.7061  222.7063 H   0  0  0  0  0  0  0  0  0  0  0  0
  141.9919   75.3994  220.9904 H   0  0  0  0  0  0  0  0  0  0  0  0
  142.9688   75.1422  218.7583 H   0  0  0  0  0  0  0  0  0  0  0  0
  143.2376   77.1214  217.2666 H   0  0  0  0  0  0  0  0  0  0  0  0
  143.3960   79.7090  217.3940 H   0  0  0  0  0  0  0  0  0  0  0  0
  141.5197   79.5948  220.3282 H   0  0  0  0  0  0  0  0  0  0  0  0
  138.4571   71.3631  221.7254 H   0  0  0  0  0  0  0  0  0  0  0  0
  138.0406   69.2897  223.0357 H   0  0  0  0  0  0  0  0  0  0  0  0
  138.5003   67.9340  224.9452 H   0  0  0  0  0  0  0  0  0  0  0  0
  141.3989   69.3064  227.8314 H   0  0  0  0  0  0  0  0  0  0  0  0
  141.7976   71.3635  226.5063 H   0  0  0  0  0  0  0  0  0  0  0  0
  1  2  2  0
  2  3  1  0
  3  4  1  0
  4  5  1  0
  5  6  2  0
  5  7  1  0
  7  8  1  0
  8  9  1  0
  9 10  1  0
 10 11  1  0
 11 12  1  0
 12 13  1  0
 13 14  2  0
 14 15  1  0
 15 16  2  0
 16 17  1  0
 17 18  1  0
 17 19  2  0
  2 20  1  0
 20 21  2  0
 21 22  1  0
 22 23  2  0
 23 24  1  0
 24 25  2  0
 25 26  1  0
 25 27  1  0
 27 28  2  0
 28 29  1  0
 29 30  2  0
 12  7  1  0
 19 13  1  0
 30 20  1  0
 29 23  1  0
  3 31  1  0
  4 32  1  0
  4 33  1  0
  8 34  1  0
  8 35  1  0
  9 36  1  0
  9 37  1  0
 10 38  1  0
 10 39  1  0
 11 40  1  0
 11 41  1  0
 12 42  1  1
 14 43  1  0
 15 44  1  0
 16 45  1  0
 18 46  1  0
 19 47  1  0
 21 48  1  0
 22 49  1  0
 24 50  1  0
 27 51  1  0
 28 52  1  0
M  END
>  <smiles>  (17) 
O=C(NCC(=O)N1CCCCC1c1cccc(O)c1)c1ccc2cc(F)ccc2n1

>  <score_type>  (17) 
oracle

>  <origin>  (17) 
autodockgpu

>  <m_score__min__energy>  (17) 
-8.9600000000000009

>  <m_primary>  (17) 
energy

>  <rmsd>  (17) 
3.4987169042252835

>  <m_score__min__rmsd>  (17) 
3.4987169042252835

>  <meeko>  (17) 
{"free_energy": -8.54, "intermolecular_energy": -10.33, "internal_energy": -1.57, "cluster_size": 5, "cluster_id": 3, "rank_in_cluster": 4}

>  <energy>  (17) 
-7.57

>  <cluster_rmsd>  (17) 
1.25

>  <cluster>  (17) 
1

$$$$

     RDKit          3D

 52 55  0  0  0  0  0  0  0  0999 V2000
  141.1670   72.2090  221.4930 O   0  0  0  0  0  0  0  0  0  0  0  0
  140.3110   72.3800  222.4020 C   0  0  0  0  0  0  0  0  0  0  0  0
  139.3700   73.4530  222.3000 N   0  0  0  0  0  0  0  0  0  0  0  0
  139.3640   74.3690  221.1670 C   0  0  0  0  0  0  0  0  0  0  0  0
  140.5580   75.2630  221.2100 C   0  0  0  0  0  0  0  0  0  0  0  0
  140.9030   75.8570  222.2650 O   0  0  0  0  0  0  0  0  0  0  0  0
  141.3440   75.4590  220.0130 N   0  0  0  0  0  0  0  0  0  0  0  0
  140.6060   75.4260  218.7750 C   0  0  0  0  0  0  0  0  0  0  0  0
  141.3780   76.1090  217.7120 C   0  0  0  0  0  0  0  0  0  0  0  0
  142.2180   77.2310  218.2540 C   0  0  0  0  0  0  0  0  0  0  0  0
  143.2770   76.7380  219.2090 C   0  0  0  0  0  0  0  0  0  0  0  0
  142.7700   75.6630  220.1270 C   0  0  2  0  0  0  0  0  0  0  0  0
  143.5580   74.4040  220.0710 C   0  0  0  0  0  0  0  0  0  0  0  0
  143.1780   73.3060  219.3270 C   0  0  0  0  0  0  0  0  0  0  0  0
  143.9090   72.1370  219.2710 C   0  0  0  0  0  0  0  0  0  0  0  0
  145.0850   72.0190  219.9810 C   0  0  0  0  0  0  0  0  0  0  0  0
  145.4960   73.0970  220.7360 C   0  0  0  0  0  0  0  0  0  0  0  0
  146.6730   72.9980  221.4560 O   0  0  0  0  0  0  0  0  0  0  0  0
  144.7560   74.2580  220.7820 C   0  0  0  0  0  0  0  0  0  0  0  0
  140.2200   71.5290  223.5820 C   0  0  0  0  0  0  0  0  0  0  0  0
  139.6290   70.2840  223.4160 C   0  0  0  0  0  0  0  0  0  0  0  0
  139.5100   69.4260  224.4940 C   0  0  0  0  0  0  0  0  0  0  0  0
  139.9840   69.8220  225.7270 C   0  0  0  0  0  0  0  0  0  0  0  0
  139.8670   68.9720  226.7980 C   0  0  0  0  0  0  0  0  0  0  0  0
  140.3510   69.3920  228.0320 C   0  0  0  0  0  0  0  0  0  0  0  0
  140.2530   68.5870  229.1010 F   0  0  0  0  0  0  0  0  0  0  0  0
  140.9370   70.6520  228.1500 C   0  0  0  0  0  0  0  0  0  0  0  0
  141.0520   71.5030  227.0690 C   0  0  0  0  0  0  0  0  0  0  0  0
  140.5680   71.0790  225.8430 C   0  0  0  0  0  0  0  0  0  0  0  0
  140.6760   71.9000  224.7910 N   0  0  0  0  0  0  0  0  0  0  0  0
  138.6550   73.5930  223.0630 H   0  0  0  0  0  0  0  0  0  0  0  0
  139.3799   73.7888  220.2326 H   0  0  0  0  0  0  0  0  0  0  0  0
  138.4554   74.9872  221.2147 H   0  0  0  0  0  0  0  0  0  0  0  0
  140.4291   74.3803  218.4832 H   0  0  0  0  0  0  0  0  0  0  0  0
  139.6435   75.9406  218.9123 H   0  0  0  0  0  0  0  0  0  0  0  0
  142.0377   75.3752  217.2258 H   0  0  0  0  0  0  0  0  0  0  0  0
  140.6615   76.5382  216.9962 H   0  0  0  0  0  0  0  0  0  0  0  0
  142.7092   77.7439  217.4140 H   0  0  0  0  0  0  0  0  0  0  0  0
  141.5554   77.9135  218.8064 H   0  0  0  0  0  0  0  0  0  0  0  0
  144.1181   76.3355  218.6254 H   0  0  0  0  0  0  0  0  0  0  0  0
  143.5871   77.5899  219.8320 H   0  0  0  0  0  0  0  0  0  0  0  0
  142.9366   76.0441  221.1453 H   0  0  0  0  0  0  0  0  0  0  0  0
  142.2442   73.3655  218.7487 H   0  0  0  0  0  0  0  0  0  0  0  0
  143.5523   71.2963  218.6578 H   0  0  0  0  0  0  0  0  0  0  0  0
  145.6774   71.0928  219.9462 H   0  0  0  0  0  0  0  0  0  0  0  0
  146.8940   72.1400  221.9660 H   0  0  0  0  0  0  0  0  0  0  0  0
  145.1170   75.0963  221.3960 H   0  0  0  0  0  0  0  0  0  0  0  0
  139.2554   69.9799  222.4271 H   0  0  0  0  0  0  0  0  0  0  0  0
  139.0423   68.4382  224.3693 H   0  0  0  0  0  0  0  0  0  0  0  0
  139.4015   67.9820  226.6830 H   0  0  0  0  0  0  0  0  0  0  0  0
  141.3175   70.9762  229.1299 H   0  0  0  0  0  0  0  0  0  0  0  0
  141.5169   72.4938  227.1790 H   0  0  0  0  0  0  0  0  0  0  0  0
  1  2  2  0
  2  3  1  0
  3  4  1  0
  4  5  1  0
  5  6  2  0
  5  7  1  0
  7  8  1  0
  8  9  1  0
  9 10  1  0
 10 11  1  0
 11 12  1  0
 12 13  1  0
 13 14  2  0
 14 15  1  0
 15 16  2  0
 16 17  1  0
 17 18  1  0
 17 19  2  0
  2 20  1  0
 20 21  2  0
 21 22  1  0
 22 23  2  0
 23 24  1  0
 24 25  2  0
 25 26  1  0
 25 27  1  0
 27 28  2  0
 28 29  1  0
 29 30  2  0
 12  7  1  0
 19 13  1  0
 30 20  1  0
 29 23  1  0
  3 31  1  0
  4 32  1  0
  4 33  1  0
  8 34  1  0
  8 35  1  0
  9 36  1  0
  9 37  1  0
 10 38  1  0
 10 39  1  0
 11 40  1  0
 11 41  1  0
 12 42  1  1
 14 43  1  0
 15 44  1  0
 16 45  1  0
 18 46  1  0
 19 47  1  0
 21 48  1  0
 22 49  1  0
 24 50  1  0
 27 51  1  0
 28 52  1  0
M  END
>  <smiles>  (18) 
O=C(NCC(=O)N1CCCCC1c1cccc(O)c1)c1ccc2cc(F)ccc2n1

>  <score_type>  (18) 
oracle

>  <origin>  (18) 
autodockgpu

>  <m_score__min__energy>  (18) 
-8.9600000000000009

>  <m_primary>  (18) 
energy

>  <rmsd>  (18) 
1.7290930172258205

>  <m_score__min__rmsd>  (18) 
1.7290930172258205

>  <meeko>  (18) 
{"free_energy": -8.58, "intermolecular_energy": -10.37, "internal_energy": -1.67, "cluster_size": 17, "cluster_id": 1, "rank_in_cluster": 10}

>  <energy>  (18) 
-8.92

>  <cluster_rmsd>  (18) 
0.0

>  <cluster>  (18) 
2

$$$$

     RDKit          3D

 52 55  0  0  0  0  0  0  0  0999 V2000
  140.9910   73.7100  220.4720 O   0  0  0  0  0  0  0  0  0  0  0  0
  140.4480   74.5320  221.2570 C   0  0  0  0  0  0  0  0  0  0  0  0
  139.3620   74.1120  222.0880 N   0  0  0  0  0  0  0  0  0  0  0  0
  138.8510   72.7470  222.0580 C   0  0  0  0  0  0  0  0  0  0  0  0
  139.5220   71.9150  223.0990 C   0  0  0  0  0  0  0  0  0  0  0  0
  140.7040   72.1410  223.4690 O   0  0  0  0  0  0  0  0  0  0  0  0
  138.8030   70.8170  223.7040 N   0  0  0  0  0  0  0  0  0  0  0  0
  137.3760   70.9960  223.8120 C   0  0  0  0  0  0  0  0  0  0  0  0
  136.7150   69.6790  223.9650 C   0  0  0  0  0  0  0  0  0  0  0  0
  137.4540   68.5880  223.2430 C   0  0  0  0  0  0  0  0  0  0  0  0
  138.8350   68.3650  223.8100 C   0  0  0  0  0  0  0  0  0  0  0  0
  139.5310   69.6520  224.1510 C   0  0  2  0  0  0  0  0  0  0  0  0
  139.9800   69.7360  225.5650 C   0  0  0  0  0  0  0  0  0  0  0  0
  140.1570   68.6280  226.3690 C   0  0  0  0  0  0  0  0  0  0  0  0
  140.5770   68.7020  227.6820 C   0  0  0  0  0  0  0  0  0  0  0  0
  140.8420   69.9270  228.2570 C   0  0  0  0  0  0  0  0  0  0  0  0
  140.6760   71.0560  227.4830 C   0  0  0  0  0  0  0  0  0  0  0  0
  140.9370   72.2930  228.0430 O   0  0  0  0  0  0  0  0  0  0  0  0
  140.2570   70.9660  226.1730 C   0  0  0  0  0  0  0  0  0  0  0  0
  140.8720   75.9230  221.3740 C   0  0  0  0  0  0  0  0  0  0  0  0
  141.7310   76.4030  220.3950 C   0  0  0  0  0  0  0  0  0  0  0  0
  142.1710   77.7130  220.4460 C   0  0  0  0  0  0  0  0  0  0  0  0
  141.7490   78.5290  221.4750 C   0  0  0  0  0  0  0  0  0  0  0  0
  142.1860   79.8280  221.5270 C   0  0  0  0  0  0  0  0  0  0  0  0
  141.7480   80.6320  222.5730 C   0  0  0  0  0  0  0  0  0  0  0  0
  142.1550   81.9080  222.6550 F   0  0  0  0  0  0  0  0  0  0  0  0
  140.8860   80.1040  223.5330 C   0  0  0  0  0  0  0  0  0  0  0  0
  140.4500   78.7950  223.4760 C   0  0  0  0  0  0  0  0  0  0  0  0
  140.8890   78.0000  222.4310 C   0  0  0  0  0  0  0  0  0  0  0  0
  140.4700   76.7300  222.3710 N   0  0  0  0  0  0  0  0  0  0  0  0
  138.9100   74.8030  222.7440 H   0  0  0  0  0  0  0  0  0  0  0  0
  137.7678   72.7617  222.2490 H   0  0  0  0  0  0  0  0  0  0  0  0
  139.0556   72.3121  221.0685 H   0  0  0  0  0  0  0  0  0  0  0  0
  137.1518   71.6212  224.6888 H   0  0  0  0  0  0  0  0  0  0  0  0
  137.0016   71.4866  222.9014 H   0  0  0  0  0  0  0  0  0  0  0  0
  136.6684   69.4278  225.0349 H   0  0  0  0  0  0  0  0  0  0  0  0
  135.7083   69.7526  223.5279 H   0  0  0  0  0  0  0  0  0  0  0  0
  136.8800   67.6536  223.3297 H   0  0  0  0  0  0  0  0  0  0  0  0
  137.5649   68.8928  222.1919 H   0  0  0  0  0  0  0  0  0  0  0  0
  138.7477   67.7583  224.7234 H   0  0  0  0  0  0  0  0  0  0  0  0
  139.4337   67.8544  223.0414 H   0  0  0  0  0  0  0  0  0  0  0  0
  140.4641   69.6432  223.5685 H   0  0  0  0  0  0  0  0  0  0  0  0
  139.9529   67.6352  225.9416 H   0  0  0  0  0  0  0  0  0  0  0  0
  140.7006   67.7813  228.2711 H   0  0  0  0  0  0  0  0  0  0  0  0
  141.1760   70.0014  229.3024 H   0  0  0  0  0  0  0  0  0  0  0  0
  140.2540   72.7320  228.6650 H   0  0  0  0  0  0  0  0  0  0  0  0
  140.1366   71.8893  225.5873 H   0  0  0  0  0  0  0  0  0  0  0  0
  142.0612   75.7423  219.5799 H   0  0  0  0  0  0  0  0  0  0  0  0
  142.8511   78.1007  219.6733 H   0  0  0  0  0  0  0  0  0  0  0  0
  142.8669   80.2242  220.7592 H   0  0  0  0  0  0  0  0  0  0  0  0
  140.5442   80.7469  224.3575 H   0  0  0  0  0  0  0  0  0  0  0  0
  139.7704   78.3937  224.2422 H   0  0  0  0  0  0  0  0  0  0  0  0
  1  2  2  0
  2  3  1  0
  3  4  1  0
  4  5  1  0
  5  6  2  0
  5  7  1  0
  7  8  1  0
  8  9  1  0
  9 10  1  0
 10 11  1  0
 11 12  1  0
 12 13  1  0
 13 14  2  0
 14 15  1  0
 15 16  2  0
 16 17  1  0
 17 18  1  0
 17 19  2  0
  2 20  1  0
 20 21  2  0
 21 22  1  0
 22 23  2  0
 23 24  1  0
 24 25  2  0
 25 26  1  0
 25 27  1  0
 27 28  2  0
 28 29  1  0
 29 30  2  0
 12  7  1  0
 19 13  1  0
 30 20  1  0
 29 23  1  0
  3 31  1  0
  4 32  1  0
  4 33  1  0
  8 34  1  0
  8 35  1  0
  9 36  1  0
  9 37  1  0
 10 38  1  0
 10 39  1  0
 11 40  1  0
 11 41  1  0
 12 42  1  6
 14 43  1  0
 15 44  1  0
 16 45  1  0
 18 46  1  0
 19 47  1  0
 21 48  1  0
 22 49  1  0
 24 50  1  0
 27 51  1  0
 28 52  1  0
M  END
>  <smiles>  (19) 
O=C(NCC(=O)N1CCCCC1c1cccc(O)c1)c1ccc2cc(F)ccc2n1

>  <score_type>  (19) 
oracle

>  <origin>  (19) 
autodockgpu

>  <m_score__min__energy>  (19) 
-8.9600000000000009

>  <m_primary>  (19) 
energy

>  <rmsd>  (19) 
8.662185937936883

>  <m_score__min__rmsd>  (19) 
8.662185937936883

>  <meeko>  (19) 
{"free_energy": -8.66, "intermolecular_energy": -10.45, "internal_energy": -1.48, "cluster_size": 10, "cluster_id": 4, "rank_in_cluster": 3}

>  <energy>  (19) 
-8.91

>  <cluster_rmsd>  (19) 
0.63

>  <cluster>  (19) 
2

$$$$

     RDKit          3D

 52 55  0  0  0  0  0  0  0  0999 V2000
  140.8520   71.6770  221.2420 O   0  0  0  0  0  0  0  0  0  0  0  0
  140.1660   72.0030  222.2480 C   0  0  0  0  0  0  0  0  0  0  0  0
  139.3800   73.1980  222.2160 N   0  0  0  0  0  0  0  0  0  0  0  0
  139.3440   74.0660  221.0470 C   0  0  0  0  0  0  0  0  0  0  0  0
  140.4190   75.0980  221.1270 C   0  0  0  0  0  0  0  0  0  0  0  0
  140.6040   75.7830  222.1670 O   0  0  0  0  0  0  0  0  0  0  0  0
  141.2750   75.3230  219.9840 N   0  0  0  0  0  0  0  0  0  0  0  0
  140.6480   75.1530  218.6970 C   0  0  0  0  0  0  0  0  0  0  0  0
  141.4290   75.8670  217.6600 C   0  0  0  0  0  0  0  0  0  0  0  0
  142.0990   77.0970  218.2040 C   0  0  0  0  0  0  0  0  0  0  0  0
  143.1230   76.7670  219.2610 C   0  0  0  0  0  0  0  0  0  0  0  0
  142.6580   75.6860  220.1950 C   0  0  2  0  0  0  0  0  0  0  0  0
  143.5760   74.5200  220.2680 C   0  0  0  0  0  0  0  0  0  0  0  0
  144.9350   74.6390  220.4760 C   0  0  0  0  0  0  0  0  0  0  0  0
  145.7900   73.5580  220.5470 C   0  0  0  0  0  0  0  0  0  0  0  0
  145.3010   72.2760  220.4080 C   0  0  0  0  0  0  0  0  0  0  0  0
  143.9470   72.1190  220.1980 C   0  0  0  0  0  0  0  0  0  0  0  0
  143.4380   70.8410  220.0560 O   0  0  0  0  0  0  0  0  0  0  0  0
  143.1060   73.2080  220.1300 C   0  0  0  0  0  0  0  0  0  0  0  0
  140.1220   71.2140  223.4730 C   0  0  0  0  0  0  0  0  0  0  0  0
  139.5590   69.9480  223.3870 C   0  0  0  0  0  0  0  0  0  0  0  0
  139.4860   69.1470  224.5120 C   0  0  0  0  0  0  0  0  0  0  0  0
  139.9770   69.6200  225.7110 C   0  0  0  0  0  0  0  0  0  0  0  0
  139.9060   68.8260  226.8280 C   0  0  0  0  0  0  0  0  0  0  0  0
  140.4060   69.3230  228.0260 C   0  0  0  0  0  0  0  0  0  0  0  0
  140.3530   68.5740  229.1380 F   0  0  0  0  0  0  0  0  0  0  0  0
  140.9630   70.6010  228.0620 C   0  0  0  0  0  0  0  0  0  0  0  0
  141.0320   71.3950  226.9350 C   0  0  0  0  0  0  0  0  0  0  0  0
  140.5320   70.8950  225.7450 C   0  0  0  0  0  0  0  0  0  0  0  0
  140.5960   71.6600  224.6490 N   0  0  0  0  0  0  0  0  0  0  0  0
  138.8070   73.4670  223.0590 H   0  0  0  0  0  0  0  0  0  0  0  0
  139.4917   73.4594  220.1414 H   0  0  0  0  0  0  0  0  0  0  0  0
  138.3680   74.5721  221.0104 H   0  0  0  0  0  0  0  0  0  0  0  0
  140.6062   74.0820  218.4498 H   0  0  0  0  0  0  0  0  0  0  0  0
  139.6288   75.5653  218.7322 H   0  0  0  0  0  0  0  0  0  0  0  0
  142.1997   75.1881  217.2662 H   0  0  0  0  0  0  0  0  0  0  0  0
  140.7329   76.1823  216.8688 H   0  0  0  0  0  0  0  0  0  0  0  0
  142.5996   77.6227  217.3775 H   0  0  0  0  0  0  0  0  0  0  0  0
  141.3251   77.7262  218.6679 H   0  0  0  0  0  0  0  0  0  0  0  0
  144.0461   76.4320  218.7654 H   0  0  0  0  0  0  0  0  0  0  0  0
  143.2913   77.6752  219.8584 H   0  0  0  0  0  0  0  0  0  0  0  0
  142.6993   76.1290  221.2010 H   0  0  0  0  0  0  0  0  0  0  0  0
  145.3587   75.6476  220.5912 H   0  0  0  0  0  0  0  0  0  0  0  0
  146.8650   73.7194  220.7150 H   0  0  0  0  0  0  0  0  0  0  0  0
  145.9706   71.4050  220.4630 H   0  0  0  0  0  0  0  0  0  0  0  0
  142.4590   70.6480  220.2790 H   0  0  0  0  0  0  0  0  0  0  0  0
  142.0317   73.0418  219.9621 H   0  0  0  0  0  0  0  0  0  0  0  0
  139.1713   69.5822  222.4248 H   0  0  0  0  0  0  0  0  0  0  0  0
  139.0409   68.1429  224.4512 H   0  0  0  0  0  0  0  0  0  0  0  0
  139.4639   67.8201  226.7766 H   0  0  0  0  0  0  0  0  0  0  0  0
  141.3578   70.9865  229.0136 H   0  0  0  0  0  0  0  0  0  0  0  0
  141.4739   72.4013  226.9814 H   0  0  0  0  0  0  0  0  0  0  0  0
  1  2  2  0
  2  3  1  0
  3  4  1  0
  4  5  1  0
  5  6  2  0
  5  7  1  0
  7  8  1  0
  8  9  1  0
  9 10  1  0
 10 11  1  0
 11 12  1  0
 12 13  1  0
 13 14  2  0
 14 15  1  0
 15 16  2  0
 16 17  1  0
 17 18  1  0
 17 19  2  0
  2 20  1  0
 20 21  2  0
 21 22  1  0
 22 23  2  0
 23 24  1  0
 24 25  2  0
 25 26  1  0
 25 27  1  0
 27 28  2  0
 28 29  1  0
 29 30  2  0
 12  7  1  0
 19 13  1  0
 30 20  1  0
 29 23  1  0
  3 31  1  0
  4 32  1  0
  4 33  1  0
  8 34  1  0
  8 35  1  0
  9 36  1  0
  9 37  1  0
 10 38  1  0
 10 39  1  0
 11 40  1  0
 11 41  1  0
 12 42  1  1
 14 43  1  0
 15 44  1  0
 16 45  1  0
 18 46  1  0
 19 47  1  0
 21 48  1  0
 22 49  1  0
 24 50  1  0
 27 51  1  0
 28 52  1  0
M  END
>  <smiles>  (20) 
O=C(NCC(=O)N1CCCCC1c1cccc(O)c1)c1ccc2cc(F)ccc2n1

>  <score_type>  (20) 
oracle

>  <origin>  (20) 
autodockgpu

>  <m_score__min__energy>  (20) 
-8.9600000000000009

>  <m_primary>  (20) 
energy

>  <rmsd>  (20) 
1.6033566498768643

>  <m_score__min__rmsd>  (20) 
1.6033566498768643

>  <meeko>  (20) 
{"free_energy": -8.01, "intermolecular_energy": -9.8, "internal_energy": -2.31, "cluster_size": 17, "cluster_id": 1, "rank_in_cluster": 13}

>  <energy>  (20) 
-8.78

>  <cluster_rmsd>  (20) 
1.11

>  <cluster>  (20) 
2

$$$$

     RDKit          3D

 52 55  0  0  0  0  0  0  0  0999 V2000
  140.7560   71.5260  221.5960 O   0  0  0  0  0  0  0  0  0  0  0  0
  139.9750   71.7440  222.5610 C   0  0  0  0  0  0  0  0  0  0  0  0
  139.0530   72.8350  222.4980 N   0  0  0  0  0  0  0  0  0  0  0  0
  138.9820   73.7190  221.3410 C   0  0  0  0  0  0  0  0  0  0  0  0
  140.1510   74.6460  221.3170 C   0  0  0  0  0  0  0  0  0  0  0  0
  140.5090   75.2880  222.3400 O   0  0  0  0  0  0  0  0  0  0  0  0
  140.8980   74.8190  220.0920 N   0  0  0  0  0  0  0  0  0  0  0  0
  140.1970   74.4610  218.8830 C   0  0  0  0  0  0  0  0  0  0  0  0
  140.8320   75.1230  217.7200 C   0  0  0  0  0  0  0  0  0  0  0  0
  141.4250   76.4560  218.0820 C   0  0  0  0  0  0  0  0  0  0  0  0
  142.5480   76.3260  219.0800 C   0  0  0  0  0  0  0  0  0  0  0  0
  142.2530   75.3160  220.1520 C   0  0  2  0  0  0  0  0  0  0  0  0
  143.2760   74.2440  220.2650 C   0  0  0  0  0  0  0  0  0  0  0  0
  142.9870   72.9660  220.6990 C   0  0  0  0  0  0  0  0  0  0  0  0
  143.9350   71.9670  220.8030 C   0  0  0  0  0  0  0  0  0  0  0  0
  145.2480   72.2190  220.4670 C   0  0  0  0  0  0  0  0  0  0  0  0
  145.5740   73.4860  220.0300 C   0  0  0  0  0  0  0  0  0  0  0  0
  146.8860   73.7580  219.6900 O   0  0  0  0  0  0  0  0  0  0  0  0
  144.6170   74.4720  219.9310 C   0  0  0  0  0  0  0  0  0  0  0  0
  139.9550   70.9280  223.7700 C   0  0  0  0  0  0  0  0  0  0  0  0
  139.3130   69.7000  223.6900 C   0  0  0  0  0  0  0  0  0  0  0  0
  139.2560   68.8770  224.7990 C   0  0  0  0  0  0  0  0  0  0  0  0
  139.8420   69.2910  225.9780 C   0  0  0  0  0  0  0  0  0  0  0  0
  139.7860   68.4750  227.0800 C   0  0  0  0  0  0  0  0  0  0  0  0
  140.3830   68.9120  228.2570 C   0  0  0  0  0  0  0  0  0  0  0  0
  140.3480   68.1400  229.3540 F   0  0  0  0  0  0  0  0  0  0  0  0
  141.0150   70.1540  228.2880 C   0  0  0  0  0  0  0  0  0  0  0  0
  141.0680   70.9710  227.1770 C   0  0  0  0  0  0  0  0  0  0  0  0
  140.4720   70.5300  226.0070 C   0  0  0  0  0  0  0  0  0  0  0  0
  140.5200   71.3170  224.9260 N   0  0  0  0  0  0  0  0  0  0  0  0
  138.4010   73.0150  223.3070 H   0  0  0  0  0  0  0  0  0  0  0  0
  138.9817   73.1135  220.4227 H   0  0  0  0  0  0  0  0  0  0  0  0
  138.0587   74.3135  221.4046 H   0  0  0  0  0  0  0  0  0  0  0  0
  140.2354   73.3700  218.7480 H   0  0  0  0  0  0  0  0  0  0  0  0
  139.1497   74.7883  218.9600 H   0  0  0  0  0  0  0  0  0  0  0  0
  141.6308   74.4725  217.3342 H   0  0  0  0  0  0  0  0  0  0  0  0
  140.0542   75.2933  216.9610 H   0  0  0  0  0  0  0  0  0  0  0  0
  141.8150   76.9302  217.1693 H   0  0  0  0  0  0  0  0  0  0  0  0
  140.6328   77.0652  218.5416 H   0  0  0  0  0  0  0  0  0  0  0  0
  143.4595   76.0180  218.5468 H   0  0  0  0  0  0  0  0  0  0  0  0
  142.6749   77.3034  219.5685 H   0  0  0  0  0  0  0  0  0  0  0  0
  142.3275   75.8657  221.1019 H   0  0  0  0  0  0  0  0  0  0  0  0
  141.9487   72.7312  220.9762 H   0  0  0  0  0  0  0  0  0  0  0  0
  143.6414   70.9671  221.1550 H   0  0  0  0  0  0  0  0  0  0  0  0
  146.0133   71.4327  220.5451 H   0  0  0  0  0  0  0  0  0  0  0  0
  147.0990   74.4600  218.9780 H   0  0  0  0  0  0  0  0  0  0  0  0
  144.9156   75.4703  219.5784 H   0  0  0  0  0  0  0  0  0  0  0  0
  138.8498   69.3819  222.7444 H   0  0  0  0  0  0  0  0  0  0  0  0
  138.7490   67.9024  224.7425 H   0  0  0  0  0  0  0  0  0  0  0  0
  139.2810   67.4989  227.0331 H   0  0  0  0  0  0  0  0  0  0  0  0
  141.4844   70.4922  229.2236 H   0  0  0  0  0  0  0  0  0  0  0  0
  141.5711   71.9483  227.2196 H   0  0  0  0  0  0  0  0  0  0  0  0
  1  2  2  0
  2  3  1  0
  3  4  1  0
  4  5  1  0
  5  6  2  0
  5  7  1  0
  7  8  1  0
  8  9  1  0
  9 10  1  0
 10 11  1  0
 11 12  1  0
 12 13  1  0
 13 14  2  0
 14 15  1  0
 15 16  2  0
 16 17  1  0
 17 18  1  0
 17 19  2  0
  2 20  1  0
 20 21  2  0
 21 22  1  0
 22 23  2  0
 23 24  1  0
 24 25  2  0
 25 26  1  0
 25 27  1  0
 27 28  2  0
 28 29  1  0
 29 30  2  0
 12  7  1  0
 19 13  1  0
 30 20  1  0
 29 23  1  0
  3 31  1  0
  4 32  1  0
  4 33  1  0
  8 34  1  0
  8 35  1  0
  9 36  1  0
  9 37  1  0
 10 38  1  0
 10 39  1  0
 11 40  1  0
 11 41  1  0
 12 42  1  1
 14 43  1  0
 15 44  1  0
 16 45  1  0
 18 46  1  0
 19 47  1  0
 21 48  1  0
 22 49  1  0
 24 50  1  0
 27 51  1  0
 28 52  1  0
M  END
>  <smiles>  (21) 
O=C(NCC(=O)N1CCCCC1c1cccc(O)c1)c1ccc2cc(F)ccc2n1

>  <score_type>  (21) 
oracle

>  <origin>  (21) 
autodockgpu

>  <m_score__min__energy>  (21) 
-8.9600000000000009

>  <m_primary>  (21) 
energy

>  <rmsd>  (21) 
1.438914958909377

>  <m_score__min__rmsd>  (21) 
1.438914958909377

>  <meeko>  (21) 
{"free_energy": -8.65, "intermolecular_energy": -10.44, "internal_energy": -1.58, "cluster_size": 17, "cluster_id": 1, "rank_in_cluster": 8}

>  <energy>  (21) 
-8.74

>  <cluster_rmsd>  (21) 
1.06

>  <cluster>  (21) 
2

$$$$

     RDKit          3D

 52 55  0  0  0  0  0  0  0  0999 V2000
  139.9570   70.9940  221.2580 O   0  0  0  0  0  0  0  0  0  0  0  0
  139.8470   71.5150  222.4010 C   0  0  0  0  0  0  0  0  0  0  0  0
  139.7070   72.9330  222.5260 N   0  0  0  0  0  0  0  0  0  0  0  0
  139.6870   73.8110  221.3630 C   0  0  0  0  0  0  0  0  0  0  0  0
  139.9560   75.2220  221.7670 C   0  0  0  0  0  0  0  0  0  0  0  0
  139.3100   75.7810  222.6920 O   0  0  0  0  0  0  0  0  0  0  0  0
  140.9840   75.9730  221.0840 N   0  0  0  0  0  0  0  0  0  0  0  0
  142.2000   75.2490  220.8060 C   0  0  0  0  0  0  0  0  0  0  0  0
  142.9440   75.9170  219.7130 C   0  0  0  0  0  0  0  0  0  0  0  0
  142.0250   76.5870  218.7300 C   0  0  0  0  0  0  0  0  0  0  0  0
  141.2330   77.7040  219.3620 C   0  0  0  0  0  0  0  0  0  0  0  0
  140.7410   77.3550  220.7380 C   0  0  2  0  0  0  0  0  0  0  0  0
  141.1650   78.3160  221.7890 C   0  0  0  0  0  0  0  0  0  0  0  0
  141.4160   77.9460  223.0950 C   0  0  0  0  0  0  0  0  0  0  0  0
  141.8130   78.8350  224.0730 C   0  0  0  0  0  0  0  0  0  0  0  0
  141.9780   80.1710  223.7710 C   0  0  0  0  0  0  0  0  0  0  0  0
  141.7360   80.5770  222.4750 C   0  0  0  0  0  0  0  0  0  0  0  0
  141.8960   81.9120  222.1540 O   0  0  0  0  0  0  0  0  0  0  0  0
  141.3410   79.6770  221.5100 C   0  0  0  0  0  0  0  0  0  0  0  0
  139.8540   70.7380  223.6350 C   0  0  0  0  0  0  0  0  0  0  0  0
  139.2800   69.4750  223.5880 C   0  0  0  0  0  0  0  0  0  0  0  0
  139.2540   68.6860  224.7230 C   0  0  0  0  0  0  0  0  0  0  0  0
  139.8000   69.1680  225.8940 C   0  0  0  0  0  0  0  0  0  0  0  0
  139.7740   68.3870  227.0210 C   0  0  0  0  0  0  0  0  0  0  0  0
  140.3300   68.8930  228.1900 C   0  0  0  0  0  0  0  0  0  0  0  0
  140.3230   68.1550  229.3110 F   0  0  0  0  0  0  0  0  0  0  0  0
  140.8950   70.1670  228.1880 C   0  0  0  0  0  0  0  0  0  0  0  0
  140.9190   70.9500  227.0510 C   0  0  0  0  0  0  0  0  0  0  0  0
  140.3630   70.4400  225.8900 C   0  0  0  0  0  0  0  0  0  0  0  0
  140.3820   71.1940  224.7840 N   0  0  0  0  0  0  0  0  0  0  0  0
  139.6150   73.3650  223.4830 H   0  0  0  0  0  0  0  0  0  0  0  0
  140.4592   73.4853  220.6505 H   0  0  0  0  0  0  0  0  0  0  0  0
  138.6926   73.7588  220.8957 H   0  0  0  0  0  0  0  0  0  0  0  0
  142.8250   75.2241  221.7109 H   0  0  0  0  0  0  0  0  0  0  0  0
  141.9493   74.2227  220.4998 H   0  0  0  0  0  0  0  0  0  0  0  0
  143.6102   76.6757  220.1495 H   0  0  0  0  0  0  0  0  0  0  0  0
  143.5150   75.1476  219.1726 H   0  0  0  0  0  0  0  0  0  0  0  0
  142.6268   77.0006  217.9073 H   0  0  0  0  0  0  0  0  0  0  0  0
  141.3129   75.8325  218.3644 H   0  0  0  0  0  0  0  0  0  0  0  0
  141.8744   78.5949  219.4324 H   0  0  0  0  0  0  0  0  0  0  0  0
  140.3522   77.8880  218.7293 H   0  0  0  0  0  0  0  0  0  0  0  0
  139.6472   77.4631  220.6948 H   0  0  0  0  0  0  0  0  0  0  0  0
  141.2933   76.8881  223.3703 H   0  0  0  0  0  0  0  0  0  0  0  0
  141.9985   78.4773  225.0965 H   0  0  0  0  0  0  0  0  0  0  0  0
  142.2931   80.8910  224.5406 H   0  0  0  0  0  0  0  0  0  0  0  0
  141.1600   82.4120  221.6500 H   0  0  0  0  0  0  0  0  0  0  0  0
  141.1580   80.0389  220.4875 H   0  0  0  0  0  0  0  0  0  0  0  0
  138.8462   69.1022  222.6484 H   0  0  0  0  0  0  0  0  0  0  0  0
  138.8022   67.6835  224.6923 H   0  0  0  0  0  0  0  0  0  0  0  0
  139.3237   67.3836  227.0002 H   0  0  0  0  0  0  0  0  0  0  0  0
  141.3337   70.5593  229.1173 H   0  0  0  0  0  0  0  0  0  0  0  0
  141.3686   71.9538  227.0671 H   0  0  0  0  0  0  0  0  0  0  0  0
  1  2  2  0
  2  3  1  0
  3  4  1  0
  4  5  1  0
  5  6  2  0
  5  7  1  0
  7  8  1  0
  8  9  1  0
  9 10  1  0
 10 11  1  0
 11 12  1  0
 12 13  1  0
 13 14  2  0
 14 15  1  0
 15 16  2  0
 16 17  1  0
 17 18  1  0
 17 19  2  0
  2 20  1  0
 20 21  2  0
 21 22  1  0
 22 23  2  0
 23 24  1  0
 24 25  2  0
 25 26  1  0
 25 27  1  0
 27 28  2  0
 28 29  1  0
 29 30  2  0
 12  7  1  0
 19 13  1  0
 30 20  1  0
 29 23  1  0
  3 31  1  0
  4 32  1  0
  4 33  1  0
  8 34  1  0
  8 35  1  0
  9 36  1  0
  9 37  1  0
 10 38  1  0
 10 39  1  0
 11 40  1  0
 11 41  1  0
 12 42  1  6
 14 43  1  0
 15 44  1  0
 16 45  1  0
 18 46  1  0
 19 47  1  0
 21 48  1  0
 22 49  1  0
 24 50  1  0
 27 51  1  0
 28 52  1  0
M  END
>  <smiles>  (22) 
O=C(NCC(=O)N1CCCCC1c1cccc(O)c1)c1ccc2cc(F)ccc2n1

>  <score_type>  (22) 
oracle

>  <origin>  (22) 
autodockgpu

>  <m_score__min__energy>  (22) 
-8.9600000000000009

>  <m_primary>  (22) 
energy

>  <rmsd>  (22) 
1.9350112268424344

>  <m_score__min__rmsd>  (22) 
1.9350112268424344

>  <meeko>  (22) 
{"free_energy": -8.64, "intermolecular_energy": -10.43, "internal_energy": -1.6, "cluster_size": 14, "cluster_id": 2, "rank_in_cluster": 6}

>  <energy>  (22) 
-8.73

>  <cluster_rmsd>  (22) 
1.09

>  <cluster>  (22) 
2

$$$$

     RDKit          3D

 52 55  0  0  0  0  0  0  0  0999 V2000
  140.1420   78.2320  218.5520 O   0  0  0  0  0  0  0  0  0  0  0  0
  141.2880   77.9450  218.9940 C   0  0  0  0  0  0  0  0  0  0  0  0
  142.2140   78.9910  219.3010 N   0  0  0  0  0  0  0  0  0  0  0  0
  141.8780   80.3970  219.1200 C   0  0  0  0  0  0  0  0  0  0  0  0
  140.9840   80.8680  220.2180 C   0  0  0  0  0  0  0  0  0  0  0  0
  140.0030   81.6240  219.9970 O   0  0  0  0  0  0  0  0  0  0  0  0
  141.2460   80.4490  221.5770 N   0  0  0  0  0  0  0  0  0  0  0  0
  142.6380   80.3840  221.9480 C   0  0  0  0  0  0  0  0  0  0  0  0
  142.7670   80.4400  223.4230 C   0  0  0  0  0  0  0  0  0  0  0  0
  141.6820   81.2650  224.0550 C   0  0  0  0  0  0  0  0  0  0  0  0
  140.3130   80.6690  223.8360 C   0  0  0  0  0  0  0  0  0  0  0  0
  140.1370   80.1270  222.4460 C   0  0  2  0  0  0  0  0  0  0  0  0
  139.7430   78.6960  222.4040 C   0  0  0  0  0  0  0  0  0  0  0  0
  138.4350   78.2680  222.5100 C   0  0  0  0  0  0  0  0  0  0  0  0
  138.0650   76.9390  222.4690 C   0  0  0  0  0  0  0  0  0  0  0  0
  139.0210   75.9570  222.3160 C   0  0  0  0  0  0  0  0  0  0  0  0
  140.3390   76.3480  222.2070 C   0  0  0  0  0  0  0  0  0  0  0  0
  141.3120   75.3770  222.0540 O   0  0  0  0  0  0  0  0  0  0  0  0
  140.6930   77.6780  222.2500 C   0  0  0  0  0  0  0  0  0  0  0  0
  141.7370   76.5760  219.2160 C   0  0  0  0  0  0  0  0  0  0  0  0
  140.8450   75.5610  218.8950 C   0  0  0  0  0  0  0  0  0  0  0  0
  141.2070   74.2400  219.0810 C   0  0  0  0  0  0  0  0  0  0  0  0
  142.4560   73.9460  219.5870 C   0  0  0  0  0  0  0  0  0  0  0  0
  142.8170   72.6350  219.7730 C   0  0  0  0  0  0  0  0  0  0  0  0
  144.0800   72.3630  220.2830 C   0  0  0  0  0  0  0  0  0  0  0  0
  144.4660   71.0920  220.4770 F   0  0  0  0  0  0  0  0  0  0  0  0
  144.9410   73.4160  220.5910 C   0  0  0  0  0  0  0  0  0  0  0  0
  144.5730   74.7330  220.4030 C   0  0  0  0  0  0  0  0  0  0  0  0
  143.3130   74.9980  219.8930 C   0  0  0  0  0  0  0  0  0  0  0  0
  142.9500   76.2730  219.7080 N   0  0  0  0  0  0  0  0  0  0  0  0
  143.1710   78.7470  219.6700 H   0  0  0  0  0  0  0  0  0  0  0  0
  142.8023   80.9933  219.1253 H   0  0  0  0  0  0  0  0  0  0  0  0
  141.3543   80.5161  218.1600 H   0  0  0  0  0  0  0  0  0  0  0  0
  143.0708   79.4424  221.5790 H   0  0  0  0  0  0  0  0  0  0  0  0
  143.1726   81.2366  221.5038 H   0  0  0  0  0  0  0  0  0  0  0  0
  142.7127   79.4167  223.8228 H   0  0  0  0  0  0  0  0  0  0  0  0
  143.7322   80.9110  223.6607 H   0  0  0  0  0  0  0  0  0  0  0  0
  141.8711   81.3305  225.1366 H   0  0  0  0  0  0  0  0  0  0  0  0
  141.6967   82.2596  223.5855 H   0  0  0  0  0  0  0  0  0  0  0  0
  140.1657   79.8499  224.5553 H   0  0  0  0  0  0  0  0  0  0  0  0
  139.5730   81.4703  223.9784 H   0  0  0  0  0  0  0  0  0  0  0  0
  139.2687   80.6601  222.0313 H   0  0  0  0  0  0  0  0  0  0  0  0
  137.6468   79.0253  222.6335 H   0  0  0  0  0  0  0  0  0  0  0  0
  137.0042   76.6622  222.5586 H   0  0  0  0  0  0  0  0  0  0  0  0
  138.7407   74.8938  222.2819 H   0  0  0  0  0  0  0  0  0  0  0  0
  142.2310   75.6230  221.6790 H   0  0  0  0  0  0  0  0  0  0  0  0
  141.7552   77.9497  222.1606 H   0  0  0  0  0  0  0  0  0  0  0  0
  139.8513   75.8081  218.4931 H   0  0  0  0  0  0  0  0  0  0  0  0
  140.5058   73.4311  218.8279 H   0  0  0  0  0  0  0  0  0  0  0  0
  142.1226   71.8190  219.5241 H   0  0  0  0  0  0  0  0  0  0  0  0
  145.9394   73.1911  220.9943 H   0  0  0  0  0  0  0  0  0  0  0  0
  145.2637   75.5521  220.6522 H   0  0  0  0  0  0  0  0  0  0  0  0
  1  2  2  0
  2  3  1  0
  3  4  1  0
  4  5  1  0
  5  6  2  0
  5  7  1  0
  7  8  1  0
  8  9  1  0
  9 10  1  0
 10 11  1  0
 11 12  1  0
 12 13  1  0
 13 14  2  0
 14 15  1  0
 15 16  2  0
 16 17  1  0
 17 18  1  0
 17 19  2  0
  2 20  1  0
 20 21  2  0
 21 22  1  0
 22 23  2  0
 23 24  1  0
 24 25  2  0
 25 26  1  0
 25 27  1  0
 27 28  2  0
 28 29  1  0
 29 30  2  0
 12  7  1  0
 19 13  1  0
 30 20  1  0
 29 23  1  0
  3 31  1  0
  4 32  1  0
  4 33  1  0
  8 34  1  0
  8 35  1  0
  9 36  1  0
  9 37  1  0
 10 38  1  0
 10 39  1  0
 11 40  1  0
 11 41  1  0
 12 42  1  6
 14 43  1  0
 15 44  1  0
 16 45  1  0
 18 46  1  0
 19 47  1  0
 21 48  1  0
 22 49  1  0
 24 50  1  0
 27 51  1  0
 28 52  1  0
M  END
>  <smiles>  (23) 
O=C(NCC(=O)N1CCCCC1c1cccc(O)c1)c1ccc2cc(F)ccc2n1

>  <score_type>  (23) 
oracle

>  <origin>  (23) 
autodockgpu

>  <m_score__min__energy>  (23) 
-8.9600000000000009

>  <m_primary>  (23) 
energy

>  <rmsd>  (23) 
7.733325980729782

>  <m_score__min__rmsd>  (23) 
7.733325980729782

>  <meeko>  (23) 
{"free_energy": -6.58, "intermolecular_energy": -8.37, "internal_energy": -3.3, "cluster_size": 1, "cluster_id": 7, "rank_in_cluster": 1}

>  <energy>  (23) 
-8.64

>  <cluster_rmsd>  (23) 
1.15

>  <cluster>  (23) 
2

$$$$

     RDKit          3D

 52 55  0  0  0  0  0  0  0  0999 V2000
  137.1110   75.9200  222.0440 O   0  0  0  0  0  0  0  0  0  0  0  0
  138.3410   76.0490  222.2890 C   0  0  0  0  0  0  0  0  0  0  0  0
  139.1970   74.9040  222.2570 N   0  0  0  0  0  0  0  0  0  0  0  0
  138.6930   73.5720  221.9470 C   0  0  0  0  0  0  0  0  0  0  0  0
  139.4960   72.5310  222.6520 C   0  0  0  0  0  0  0  0  0  0  0  0
  140.7500   72.6010  222.7310 O   0  0  0  0  0  0  0  0  0  0  0  0
  138.8220   71.4080  223.2640 N   0  0  0  0  0  0  0  0  0  0  0  0
  137.3810   71.4670  223.2510 C   0  0  0  0  0  0  0  0  0  0  0  0
  136.8220   70.1070  223.4300 C   0  0  0  0  0  0  0  0  0  0  0  0
  137.7060   69.0480  222.8340 C   0  0  0  0  0  0  0  0  0  0  0  0
  139.0490   68.9780  223.5180 C   0  0  0  0  0  0  0  0  0  0  0  0
  139.6060   70.3360  223.8350 C   0  0  2  0  0  0  0  0  0  0  0  0
  139.9280   70.5340  225.2720 C   0  0  0  0  0  0  0  0  0  0  0  0
  139.4860   69.6880  226.2690 C   0  0  0  0  0  0  0  0  0  0  0  0
  139.7860   69.8670  227.6040 C   0  0  0  0  0  0  0  0  0  0  0  0
  140.5640   70.9330  228.0040 C   0  0  0  0  0  0  0  0  0  0  0  0
  141.0240   71.7990  227.0340 C   0  0  0  0  0  0  0  0  0  0  0  0
  141.8050   72.8740  227.4150 O   0  0  0  0  0  0  0  0  0  0  0  0
  140.7160   71.6070  225.7050 C   0  0  0  0  0  0  0  0  0  0  0  0
  138.9590   77.3300  222.6120 C   0  0  0  0  0  0  0  0  0  0  0  0
  138.1090   78.4150  222.7770 C   0  0  0  0  0  0  0  0  0  0  0  0
  138.6300   79.6590  223.0840 C   0  0  0  0  0  0  0  0  0  0  0  0
  139.9940   79.8050  223.2230 C   0  0  0  0  0  0  0  0  0  0  0  0
  140.5120   81.0380  223.5270 C   0  0  0  0  0  0  0  0  0  0  0  0
  141.8900   81.1620  223.6620 C   0  0  0  0  0  0  0  0  0  0  0  0
  142.4310   82.3540  223.9600 F   0  0  0  0  0  0  0  0  0  0  0  0
  142.7030   80.0430  223.4870 C   0  0  0  0  0  0  0  0  0  0  0  0
  142.1770   78.8040  223.1800 C   0  0  0  0  0  0  0  0  0  0  0  0
  140.8030   78.6870  223.0470 C   0  0  0  0  0  0  0  0  0  0  0  0
  140.2870   77.4890  222.7500 N   0  0  0  0  0  0  0  0  0  0  0  0
  140.2250   75.0160  222.4630 H   0  0  0  0  0  0  0  0  0  0  0  0
  137.6435   73.4985  222.2683 H   0  0  0  0  0  0  0  0  0  0  0  0
  138.7707   73.4064  220.8623 H   0  0  0  0  0  0  0  0  0  0  0  0
  137.0345   72.1150  224.0696 H   0  0  0  0  0  0  0  0  0  0  0  0
  137.0427   71.8750  222.2871 H   0  0  0  0  0  0  0  0  0  0  0  0
  136.7083   69.9094  224.5061 H   0  0  0  0  0  0  0  0  0  0  0  0
  135.8524   70.0691  222.9118 H   0  0  0  0  0  0  0  0  0  0  0  0
  137.2067   68.0728  222.9323 H   0  0  0  0  0  0  0  0  0  0  0  0
  137.8769   69.3046  221.7781 H   0  0  0  0  0  0  0  0  0  0  0  0
  138.9377   68.4148  224.4563 H   0  0  0  0  0  0  0  0  0  0  0  0
  139.7489   68.4829  222.8288 H   0  0  0  0  0  0  0  0  0  0  0  0
  140.5819   70.3774  223.3292 H   0  0  0  0  0  0  0  0  0  0  0  0
  138.8628   68.8272  225.9849 H   0  0  0  0  0  0  0  0  0  0  0  0
  139.4032   69.1568  228.3518 H   0  0  0  0  0  0  0  0  0  0  0  0
  140.8103   71.0880  229.0648 H   0  0  0  0  0  0  0  0  0  0  0  0
  141.4560   73.8290  227.3090 H   0  0  0  0  0  0  0  0  0  0  0  0
  141.1014   72.3193  224.9606 H   0  0  0  0  0  0  0  0  0  0  0  0
  137.0225   78.2856  222.6637 H   0  0  0  0  0  0  0  0  0  0  0  0
  137.9627   80.5234  223.2160 H   0  0  0  0  0  0  0  0  0  0  0  0
  139.8526   81.9082  223.6608 H   0  0  0  0  0  0  0  0  0  0  0  0
  143.7923   80.1501  223.5964 H   0  0  0  0  0  0  0  0  0  0  0  0
  142.8327   77.9313  223.0443 H   0  0  0  0  0  0  0  0  0  0  0  0
  1  2  2  0
  2  3  1  0
  3  4  1  0
  4  5  1  0
  5  6  2  0
  5  7  1  0
  7  8  1  0
  8  9  1  0
  9 10  1  0
 10 11  1  0
 11 12  1  0
 12 13  1  0
 13 14  2  0
 14 15  1  0
 15 16  2  0
 16 17  1  0
 17 18  1  0
 17 19  2  0
  2 20  1  0
 20 21  2  0
 21 22  1  0
 22 23  2  0
 23 24  1  0
 24 25  2  0
 25 26  1  0
 25 27  1  0
 27 28  2  0
 28 29  1  0
 29 30  2  0
 12  7  1  0
 19 13  1  0
 30 20  1  0
 29 23  1  0
  3 31  1  0
  4 32  1  0
  4 33  1  0
  8 34  1  0
  8 35  1  0
  9 36  1  0
  9 37  1  0
 10 38  1  0
 10 39  1  0
 11 40  1  0
 11 41  1  0
 12 42  1  6
 14 43  1  0
 15 44  1  0
 16 45  1  0
 18 46  1  0
 19 47  1  0
 21 48  1  0
 22 49  1  0
 24 50  1  0
 27 51  1  0
 28 52  1  0
M  END
>  <smiles>  (24) 
O=C(NCC(=O)N1CCCCC1c1cccc(O)c1)c1ccc2cc(F)ccc2n1

>  <score_type>  (24) 
oracle

>  <origin>  (24) 
autodockgpu

>  <m_score__min__energy>  (24) 
-8.9600000000000009

>  <m_primary>  (24) 
energy

>  <rmsd>  (24) 
8.679522457001983

>  <m_score__min__rmsd>  (24) 
8.679522457001983

>  <meeko>  (24) 
{"free_energy": -8.39, "intermolecular_energy": -10.18, "internal_energy": -1.75, "cluster_size": 10, "cluster_id": 4, "rank_in_cluster": 7}

>  <energy>  (24) 
-8.62

>  <cluster_rmsd>  (24) 
1.12

>  <cluster>  (24) 
2

$$$$

     RDKit          3D

 52 55  0  0  0  0  0  0  0  0999 V2000
  140.9630   72.3080  221.4910 O   0  0  0  0  0  0  0  0  0  0  0  0
  140.1010   72.3860  222.4070 C   0  0  0  0  0  0  0  0  0  0  0  0
  139.0590   73.3620  222.3220 N   0  0  0  0  0  0  0  0  0  0  0  0
  138.9560   74.2840  221.1980 C   0  0  0  0  0  0  0  0  0  0  0  0
  138.4590   75.6150  221.6560 C   0  0  0  0  0  0  0  0  0  0  0  0
  137.3030   75.7640  222.1310 O   0  0  0  0  0  0  0  0  0  0  0  0
  139.3230   76.7690  221.5550 N   0  0  0  0  0  0  0  0  0  0  0  0
  138.7250   77.9410  220.9640 C   0  0  0  0  0  0  0  0  0  0  0  0
  139.4900   79.1470  221.3570 C   0  0  0  0  0  0  0  0  0  0  0  0
  140.0970   79.0120  222.7250 C   0  0  0  0  0  0  0  0  0  0  0  0
  141.1160   77.9030  222.7880 C   0  0  0  0  0  0  0  0  0  0  0  0
  140.6850   76.6800  222.0300 C   0  0  2  0  0  0  0  0  0  0  0  0
  141.6520   76.2460  220.9880 C   0  0  0  0  0  0  0  0  0  0  0  0
  142.2170   77.1120  220.0740 C   0  0  0  0  0  0  0  0  0  0  0  0
  143.1180   76.7130  219.1070 C   0  0  0  0  0  0  0  0  0  0  0  0
  143.4980   75.3910  219.0160 C   0  0  0  0  0  0  0  0  0  0  0  0
  142.9540   74.4970  219.9140 C   0  0  0  0  0  0  0  0  0  0  0  0
  143.3230   73.1670  219.8380 O   0  0  0  0  0  0  0  0  0  0  0  0
  142.0560   74.9100  220.8740 C   0  0  0  0  0  0  0  0  0  0  0  0
  140.1020   71.5190  223.5800 C   0  0  0  0  0  0  0  0  0  0  0  0
  139.5740   70.2450  223.4200 C   0  0  0  0  0  0  0  0  0  0  0  0
  139.5440   69.3710  224.4920 C   0  0  0  0  0  0  0  0  0  0  0  0
  140.0420   69.7800  225.7110 C   0  0  0  0  0  0  0  0  0  0  0  0
  140.0130   68.9140  226.7750 C   0  0  0  0  0  0  0  0  0  0  0  0
  140.5210   69.3470  227.9940 C   0  0  0  0  0  0  0  0  0  0  0  0
  140.5080   68.5270  229.0560 F   0  0  0  0  0  0  0  0  0  0  0  0
  141.0410   70.6360  228.1050 C   0  0  0  0  0  0  0  0  0  0  0  0
  141.0680   71.5030  227.0310 C   0  0  0  0  0  0  0  0  0  0  0  0
  140.5610   71.0660  225.8190 C   0  0  0  0  0  0  0  0  0  0  0  0
  140.5840   71.9020  224.7740 N   0  0  0  0  0  0  0  0  0  0  0  0
  138.3400   73.4250  223.0910 H   0  0  0  0  0  0  0  0  0  0  0  0
  139.9479   74.4067  220.7386 H   0  0  0  0  0  0  0  0  0  0  0  0
  138.2463   73.8728  220.4651 H   0  0  0  0  0  0  0  0  0  0  0  0
  138.7351   77.8431  219.8684 H   0  0  0  0  0  0  0  0  0  0  0  0
  137.6880   78.0374  221.3180 H   0  0  0  0  0  0  0  0  0  0  0  0
  140.2959   79.3093  220.6261 H   0  0  0  0  0  0  0  0  0  0  0  0
  138.7928   79.9975  221.3788 H   0  0  0  0  0  0  0  0  0  0  0  0
  140.5881   79.9600  222.9900 H   0  0  0  0  0  0  0  0  0  0  0  0
  139.2890   78.7692  223.4309 H   0  0  0  0  0  0  0  0  0  0  0  0
  142.0612   78.2681  222.3599 H   0  0  0  0  0  0  0  0  0  0  0  0
  141.2330   77.6171  223.8437 H   0  0  0  0  0  0  0  0  0  0  0  0
  140.6919   75.8621  222.7656 H   0  0  0  0  0  0  0  0  0  0  0  0
  141.9351   78.1743  220.1182 H   0  0  0  0  0  0  0  0  0  0  0  0
  143.5340   77.4524  218.4068 H   0  0  0  0  0  0  0  0  0  0  0  0
  144.2140   75.0591  218.2497 H   0  0  0  0  0  0  0  0  0  0  0  0
  142.7180   72.4410  220.2290 H   0  0  0  0  0  0  0  0  0  0  0  0
  141.6436   74.1671  221.5726 H   0  0  0  0  0  0  0  0  0  0  0  0
  139.1800   69.9309  222.4422 H   0  0  0  0  0  0  0  0  0  0  0  0
  139.1271   68.3600  224.3731 H   0  0  0  0  0  0  0  0  0  0  0  0
  139.5976   67.9013  226.6657 H   0  0  0  0  0  0  0  0  0  0  0  0
  141.4402   70.9709  229.0738 H   0  0  0  0  0  0  0  0  0  0  0  0
  141.4823   72.5166  227.1357 H   0  0  0  0  0  0  0  0  0  0  0  0
  1  2  2  0
  2  3  1  0
  3  4  1  0
  4  5  1  0
  5  6  2  0
  5  7  1  0
  7  8  1  0
  8  9  1  0
  9 10  1  0
 10 11  1  0
 11 12  1  0
 12 13  1  0
 13 14  2  0
 14 15  1  0
 15 16  2  0
 16 17  1  0
 17 18  1  0
 17 19  2  0
  2 20  1  0
 20 21  2  0
 21 22  1  0
 22 23  2  0
 23 24  1  0
 24 25  2  0
 25 26  1  0
 25 27  1  0
 27 28  2  0
 28 29  1  0
 29 30  2  0
 12  7  1  0
 19 13  1  0
 30 20  1  0
 29 23  1  0
  3 31  1  0
  4 32  1  0
  4 33  1  0
  8 34  1  0
  8 35  1  0
  9 36  1  0
  9 37  1  0
 10 38  1  0
 10 39  1  0
 11 40  1  0
 11 41  1  0
 12 42  1  1
 14 43  1  0
 15 44  1  0
 16 45  1  0
 18 46  1  0
 19 47  1  0
 21 48  1  0
 22 49  1  0
 24 50  1  0
 27 51  1  0
 28 52  1  0
M  END
>  <smiles>  (25) 
O=C(NCC(=O)N1CCCCC1c1cccc(O)c1)c1ccc2cc(F)ccc2n1

>  <score_type>  (25) 
oracle

>  <origin>  (25) 
autodockgpu

>  <m_score__min__energy>  (25) 
-8.9600000000000009

>  <m_primary>  (25) 
energy

>  <rmsd>  (25) 
2.746809572361086

>  <m_score__min__rmsd>  (25) 
2.746809572361086

>  <meeko>  (25) 
{"free_energy": -7.71, "intermolecular_energy": -9.5, "internal_energy": -2.22, "cluster_size": 5, "cluster_id": 3, "rank_in_cluster": 5}

>  <energy>  (25) 
-8.46

>  <cluster_rmsd>  (25) 
1.13

>  <cluster>  (25) 
2

$$$$

     RDKit          3D

 52 55  0  0  0  0  0  0  0  0999 V2000
  139.5140   70.9400  221.1140 O   0  0  0  0  0  0  0  0  0  0  0  0
  139.4910   71.4690  222.2580 C   0  0  0  0  0  0  0  0  0  0  0  0
  139.3070   72.8820  222.3840 N   0  0  0  0  0  0  0  0  0  0  0  0
  139.1420   73.7460  221.2220 C   0  0  0  0  0  0  0  0  0  0  0  0
  140.0480   74.9270  221.3140 C   0  0  0  0  0  0  0  0  0  0  0  0
  140.0890   75.6530  222.3420 O   0  0  0  0  0  0  0  0  0  0  0  0
  140.9070   75.2540  220.1980 N   0  0  0  0  0  0  0  0  0  0  0  0
  140.2500   75.3440  218.9170 C   0  0  0  0  0  0  0  0  0  0  0  0
  141.0790   76.1420  217.9840 C   0  0  0  0  0  0  0  0  0  0  0  0
  141.8630   77.2090  218.6940 C   0  0  0  0  0  0  0  0  0  0  0  0
  142.8670   76.6290  219.6600 C   0  0  0  0  0  0  0  0  0  0  0  0
  142.3190   75.4590  220.4260 C   0  0  2  0  0  0  0  0  0  0  0  0
  143.1300   74.2210  220.2920 C   0  0  0  0  0  0  0  0  0  0  0  0
  142.7410   73.0020  220.8120 C   0  0  0  0  0  0  0  0  0  0  0  0
  143.4900   71.8500  220.6870 C   0  0  0  0  0  0  0  0  0  0  0  0
  144.6940   71.8750  220.0160 C   0  0  0  0  0  0  0  0  0  0  0  0
  145.1150   73.0750  219.4840 C   0  0  0  0  0  0  0  0  0  0  0  0
  146.3210   73.1190  218.8090 O   0  0  0  0  0  0  0  0  0  0  0  0
  144.3560   74.2170  219.6160 C   0  0  0  0  0  0  0  0  0  0  0  0
  139.6460   70.7080  223.4920 C   0  0  0  0  0  0  0  0  0  0  0  0
  139.2040   69.3920  223.4790 C   0  0  0  0  0  0  0  0  0  0  0  0
  139.3210   68.6140  224.6160 C   0  0  0  0  0  0  0  0  0  0  0  0
  139.8770   69.1590  225.7540 C   0  0  0  0  0  0  0  0  0  0  0  0
  139.9920   68.3880  226.8830 C   0  0  0  0  0  0  0  0  0  0  0  0
  140.5560   68.9590  228.0190 C   0  0  0  0  0  0  0  0  0  0  0  0
  140.6850   68.2340  229.1400 F   0  0  0  0  0  0  0  0  0  0  0  0
  140.9840   70.2850  227.9830 C   0  0  0  0  0  0  0  0  0  0  0  0
  140.8650   71.0560  226.8440 C   0  0  0  0  0  0  0  0  0  0  0  0
  140.3030   70.4830  225.7160 C   0  0  0  0  0  0  0  0  0  0  0  0
  140.1840   71.2250  224.6090 N   0  0  0  0  0  0  0  0  0  0  0  0
  139.2890   73.3210  223.3420 H   0  0  0  0  0  0  0  0  0  0  0  0
  139.3809   73.1770  220.3114 H   0  0  0  0  0  0  0  0  0  0  0  0
  138.1008   74.0992  221.1874 H   0  0  0  0  0  0  0  0  0  0  0  0
  140.1087   74.3331  218.5070 H   0  0  0  0  0  0  0  0  0  0  0  0
  139.2724   75.8322  219.0432 H   0  0  0  0  0  0  0  0  0  0  0  0
  141.7811   75.4693  217.4696 H   0  0  0  0  0  0  0  0  0  0  0  0
  140.4039   76.6368  217.2703 H   0  0  0  0  0  0  0  0  0  0  0  0
  142.3983   77.8125  217.9462 H   0  0  0  0  0  0  0  0  0  0  0  0
  141.1547   77.8226  219.2700 H   0  0  0  0  0  0  0  0  0  0  0  0
  143.7502   76.2977  219.0942 H   0  0  0  0  0  0  0  0  0  0  0  0
  143.1233   77.4138  220.3869 H   0  0  0  0  0  0  0  0  0  0  0  0
  142.4123   75.7334  221.4871 H   0  0  0  0  0  0  0  0  0  0  0  0
  141.7851   72.9468  221.3535 H   0  0  0  0  0  0  0  0  0  0  0  0
  143.1253   70.9087  221.1241 H   0  0  0  0  0  0  0  0  0  0  0  0
  145.3010   70.9640  219.9083 H   0  0  0  0  0  0  0  0  0  0  0  0
  146.7380   74.0180  218.5570 H   0  0  0  0  0  0  0  0  0  0  0  0
  144.7249   75.1554  219.1764 H   0  0  0  0  0  0  0  0  0  0  0  0
  138.7613   68.9688  222.5653 H   0  0  0  0  0  0  0  0  0  0  0  0
  138.9738   67.5702  224.6127 H   0  0  0  0  0  0  0  0  0  0  0  0
  139.6466   67.3437  226.8896 H   0  0  0  0  0  0  0  0  0  0  0  0
  141.4283   70.7289  228.8861 H   0  0  0  0  0  0  0  0  0  0  0  0
  141.2086   72.1009  226.8330 H   0  0  0  0  0  0  0  0  0  0  0  0
  1  2  2  0
  2  3  1  0
  3  4  1  0
  4  5  1  0
  5  6  2  0
  5  7  1  0
  7  8  1  0
  8  9  1  0
  9 10  1  0
 10 11  1  0
 11 12  1  0
 12 13  1  0
 13 14  2  0
 14 15  1  0
 15 16  2  0
 16 17  1  0
 17 18  1  0
 17 19  2  0
  2 20  1  0
 20 21  2  0
 21 22  1  0
 22 23  2  0
 23 24  1  0
 24 25  2  0
 25 26  1  0
 25 27  1  0
 27 28  2  0
 28 29  1  0
 29 30  2  0
 12  7  1  0
 19 13  1  0
 30 20  1  0
 29 23  1  0
  3 31  1  0
  4 32  1  0
  4 33  1  0
  8 34  1  0
  8 35  1  0
  9 36  1  0
  9 37  1  0
 10 38  1  0
 10 39  1  0
 11 40  1  0
 11 41  1  0
 12 42  1  1
 14 43  1  0
 15 44  1  0
 16 45  1  0
 18 46  1  0
 19 47  1  0
 21 48  1  0
 22 49  1  0
 24 50  1  0
 27 51  1  0
 28 52  1  0
M  END
>  <smiles>  (26) 
O=C(NCC(=O)N1CCCCC1c1cccc(O)c1)c1ccc2cc(F)ccc2n1

>  <score_type>  (26) 
oracle

>  <origin>  (26) 
autodockgpu

>  <m_score__min__energy>  (26) 
-8.9600000000000009

>  <m_primary>  (26) 
energy

>  <rmsd>  (26) 
1.4577903735403985

>  <m_score__min__rmsd>  (26) 
1.4577903735403985

>  <meeko>  (26) 
{"free_energy": -8.95, "intermolecular_energy": -10.74, "internal_energy": -1.87, "cluster_size": 17, "cluster_id": 1, "rank_in_cluster": 2}

>  <energy>  (26) 
-8.4

>  <cluster_rmsd>  (26) 
1.41

>  <cluster>  (26) 
2

$$$$

     RDKit          3D

 52 55  0  0  0  0  0  0  0  0999 V2000
  139.9080   70.8000  221.3560 O   0  0  0  0  0  0  0  0  0  0  0  0
  139.8370   71.3460  222.4890 C   0  0  0  0  0  0  0  0  0  0  0  0
  139.7400   72.7690  222.5890 N   0  0  0  0  0  0  0  0  0  0  0  0
  139.7200   73.6250  221.4090 C   0  0  0  0  0  0  0  0  0  0  0  0
  139.8470   75.0590  221.8000 C   0  0  0  0  0  0  0  0  0  0  0  0
  139.1530   75.5590  222.7240 O   0  0  0  0  0  0  0  0  0  0  0  0
  140.7890   75.9050  221.1040 N   0  0  0  0  0  0  0  0  0  0  0  0
  142.0560   75.2930  220.7880 C   0  0  0  0  0  0  0  0  0  0  0  0
  142.7130   76.0360  219.6880 C   0  0  0  0  0  0  0  0  0  0  0  0
  141.7160   76.6360  218.7360 C   0  0  0  0  0  0  0  0  0  0  0  0
  140.8460   77.6720  219.4020 C   0  0  0  0  0  0  0  0  0  0  0  0
  140.4200   77.2660  220.7840 C   0  0  2  0  0  0  0  0  0  0  0  0
  140.7850   78.2460  221.8390 C   0  0  0  0  0  0  0  0  0  0  0  0
  139.9050   78.6730  222.8120 C   0  0  0  0  0  0  0  0  0  0  0  0
  140.2420   79.5820  223.7950 C   0  0  0  0  0  0  0  0  0  0  0  0
  141.5130   80.1140  223.8410 C   0  0  0  0  0  0  0  0  0  0  0  0
  142.4190   79.7110  222.8840 C   0  0  0  0  0  0  0  0  0  0  0  0
  143.6980   80.2350  222.9140 O   0  0  0  0  0  0  0  0  0  0  0  0
  142.0690   78.8030  221.9090 C   0  0  0  0  0  0  0  0  0  0  0  0
  139.8470   70.5940  223.7390 C   0  0  0  0  0  0  0  0  0  0  0  0
  139.2670   69.3330  223.7200 C   0  0  0  0  0  0  0  0  0  0  0  0
  139.2430   68.5660  224.8700 C   0  0  0  0  0  0  0  0  0  0  0  0
  139.7980   69.0690  226.0280 C   0  0  0  0  0  0  0  0  0  0  0  0
  139.7750   68.3100  227.1710 C   0  0  0  0  0  0  0  0  0  0  0  0
  140.3400   68.8360  228.3270 C   0  0  0  0  0  0  0  0  0  0  0  0
  140.3350   68.1210  229.4620 F   0  0  0  0  0  0  0  0  0  0  0  0
  140.9110   70.1080  228.2970 C   0  0  0  0  0  0  0  0  0  0  0  0
  140.9310   70.8670  227.1440 C   0  0  0  0  0  0  0  0  0  0  0  0
  140.3670   70.3380  225.9960 C   0  0  0  0  0  0  0  0  0  0  0  0
  140.3840   71.0690  224.8760 N   0  0  0  0  0  0  0  0  0  0  0  0
  139.6800   73.2230  223.5380 H   0  0  0  0  0  0  0  0  0  0  0  0
  140.5588   73.3538  220.7511 H   0  0  0  0  0  0  0  0  0  0  0  0
  138.7640   73.4834  220.8836 H   0  0  0  0  0  0  0  0  0  0  0  0
  142.7023   75.3115  221.6779 H   0  0  0  0  0  0  0  0  0  0  0  0
  141.8877   74.2526  220.4730 H   0  0  0  0  0  0  0  0  0  0  0  0
  143.3217   76.8441  220.1199 H   0  0  0  0  0  0  0  0  0  0  0  0
  143.3350   75.3256  219.1237 H   0  0  0  0  0  0  0  0  0  0  0  0
  142.2598   77.1105  217.9058 H   0  0  0  0  0  0  0  0  0  0  0  0
  141.0632   75.8272  218.3759 H   0  0  0  0  0  0  0  0  0  0  0  0
  141.4092   78.6145  219.4695 H   0  0  0  0  0  0  0  0  0  0  0  0
  139.9371   77.7855  218.7929 H   0  0  0  0  0  0  0  0  0  0  0  0
  139.3202   77.2817  220.7679 H   0  0  0  0  0  0  0  0  0  0  0  0
  138.8822   78.2684  222.8042 H   0  0  0  0  0  0  0  0  0  0  0  0
  139.4942   79.8826  224.5436 H   0  0  0  0  0  0  0  0  0  0  0  0
  141.7956   80.8388  224.6187 H   0  0  0  0  0  0  0  0  0  0  0  0
  144.4410   79.8150  222.3500 H   0  0  0  0  0  0  0  0  0  0  0  0
  142.8204   78.5061  221.1625 H   0  0  0  0  0  0  0  0  0  0  0  0
  138.8265   68.9441  222.7901 H   0  0  0  0  0  0  0  0  0  0  0  0
  138.7862   67.5654  224.8615 H   0  0  0  0  0  0  0  0  0  0  0  0
  139.3200   67.3085  227.1724 H   0  0  0  0  0  0  0  0  0  0  0  0
  141.3569   70.5170  229.2156 H   0  0  0  0  0  0  0  0  0  0  0  0
  141.3847   71.8691  227.1378 H   0  0  0  0  0  0  0  0  0  0  0  0
  1  2  2  0
  2  3  1  0
  3  4  1  0
  4  5  1  0
  5  6  2  0
  5  7  1  0
  7  8  1  0
  8  9  1  0
  9 10  1  0
 10 11  1  0
 11 12  1  0
 12 13  1  0
 13 14  2  0
 14 15  1  0
 15 16  2  0
 16 17  1  0
 17 18  1  0
 17 19  2  0
  2 20  1  0
 20 21  2  0
 21 22  1  0
 22 23  2  0
 23 24  1  0
 24 25  2  0
 25 26  1  0
 25 27  1  0
 27 28  2  0
 28 29  1  0
 29 30  2  0
 12  7  1  0
 19 13  1  0
 30 20  1  0
 29 23  1  0
  3 31  1  0
  4 32  1  0
  4 33  1  0
  8 34  1  0
  8 35  1  0
  9 36  1  0
  9 37  1  0
 10 38  1  0
 10 39  1  0
 11 40  1  0
 11 41  1  0
 12 42  1  6
 14 43  1  0
 15 44  1  0
 16 45  1  0
 18 46  1  0
 19 47  1  0
 21 48  1  0
 22 49  1  0
 24 50  1  0
 27 51  1  0
 28 52  1  0
M  END
>  <smiles>  (27) 
O=C(NCC(=O)N1CCCCC1c1cccc(O)c1)c1ccc2cc(F)ccc2n1

>  <score_type>  (27) 
oracle

>  <origin>  (27) 
autodockgpu

>  <m_score__min__energy>  (27) 
-8.9600000000000009

>  <m_primary>  (27) 
energy

>  <rmsd>  (27) 
1.9188849302499928

>  <m_score__min__rmsd>  (27) 
1.9188849302499928

>  <meeko>  (27) 
{"free_energy": -8.91, "intermolecular_energy": -10.7, "internal_energy": -1.62, "cluster_size": 14, "cluster_id": 2, "rank_in_cluster": 2}

>  <energy>  (27) 
-8.33

>  <cluster_rmsd>  (27) 
1.13

>  <cluster>  (27) 
2

$$$$

     RDKit          3D

 52 55  0  0  0  0  0  0  0  0999 V2000
  139.8370   71.3200  221.0790 O   0  0  0  0  0  0  0  0  0  0  0  0
  139.7730   71.8320  222.2300 C   0  0  0  0  0  0  0  0  0  0  0  0
  139.6090   73.2450  222.3710 N   0  0  0  0  0  0  0  0  0  0  0  0
  139.5130   74.1300  221.2170 C   0  0  0  0  0  0  0  0  0  0  0  0
  140.5540   75.1970  221.2880 C   0  0  0  0  0  0  0  0  0  0  0  0
  140.6500   75.9660  222.2800 O   0  0  0  0  0  0  0  0  0  0  0  0
  141.4820   75.3590  220.1910 N   0  0  0  0  0  0  0  0  0  0  0  0
  140.8810   75.5990  218.9020 C   0  0  0  0  0  0  0  0  0  0  0  0
  141.8720   76.2260  217.9960 C   0  0  0  0  0  0  0  0  0  0  0  0
  142.8430   77.1010  218.7370 C   0  0  0  0  0  0  0  0  0  0  0  0
  143.6890   76.3150  219.7080 C   0  0  0  0  0  0  0  0  0  0  0  0
  142.9020   75.2690  220.4440 C   0  0  2  0  0  0  0  0  0  0  0  0
  143.4470   73.8950  220.3010 C   0  0  0  0  0  0  0  0  0  0  0  0
  144.7970   73.6230  220.2030 C   0  0  0  0  0  0  0  0  0  0  0  0
  145.3060   72.3470  220.0730 C   0  0  0  0  0  0  0  0  0  0  0  0
  144.4570   71.2610  220.0330 C   0  0  0  0  0  0  0  0  0  0  0  0
  143.1010   71.4950  220.1280 C   0  0  0  0  0  0  0  0  0  0  0  0
  142.2350   70.4190  220.0890 O   0  0  0  0  0  0  0  0  0  0  0  0
  142.6080   72.7750  220.2580 C   0  0  0  0  0  0  0  0  0  0  0  0
  139.8560   71.0480  223.4570 C   0  0  0  0  0  0  0  0  0  0  0  0
  139.3860   69.7430  223.4040 C   0  0  0  0  0  0  0  0  0  0  0  0
  139.4360   68.9450  224.5320 C   0  0  0  0  0  0  0  0  0  0  0  0
  139.9540   69.4600  225.7010 C   0  0  0  0  0  0  0  0  0  0  0  0
  140.0040   68.6690  226.8220 C   0  0  0  0  0  0  0  0  0  0  0  0
  140.5300   69.2090  227.9890 C   0  0  0  0  0  0  0  0  0  0  0  0
  140.5940   68.4640  229.1040 F   0  0  0  0  0  0  0  0  0  0  0  0
  140.9890   70.5250  227.9940 C   0  0  0  0  0  0  0  0  0  0  0  0
  140.9360   71.3170  226.8640 C   0  0  0  0  0  0  0  0  0  0  0  0
  140.4120   70.7730  225.7040 C   0  0  0  0  0  0  0  0  0  0  0  0
  140.3580   71.5350  224.6050 N   0  0  0  0  0  0  0  0  0  0  0  0
  139.5550   73.6700  223.3350 H   0  0  0  0  0  0  0  0  0  0  0  0
  139.6582   73.5433  220.2979 H   0  0  0  0  0  0  0  0  0  0  0  0
  138.5195   74.6022  221.2127 H   0  0  0  0  0  0  0  0  0  0  0  0
  140.5456   74.6438  218.4717 H   0  0  0  0  0  0  0  0  0  0  0  0
  140.0203   76.2734  219.0220 H   0  0  0  0  0  0  0  0  0  0  0  0
  142.4324   75.4324  217.4800 H   0  0  0  0  0  0  0  0  0  0  0  0
  141.3244   76.8581  217.2814 H   0  0  0  0  0  0  0  0  0  0  0  0
  143.5040   77.5933  218.0085 H   0  0  0  0  0  0  0  0  0  0  0  0
  142.2637   77.8381  219.3123 H   0  0  0  0  0  0  0  0  0  0  0  0
  144.4976   75.8200  219.1502 H   0  0  0  0  0  0  0  0  0  0  0  0
  144.0836   77.0211  220.4535 H   0  0  0  0  0  0  0  0  0  0  0  0
  143.0303   75.5022  221.5113 H   0  0  0  0  0  0  0  0  0  0  0  0
  145.5027   74.4663  220.2299 H   0  0  0  0  0  0  0  0  0  0  0  0
  146.3931   72.1955  220.0010 H   0  0  0  0  0  0  0  0  0  0  0  0
  144.8495   70.2387  219.9285 H   0  0  0  0  0  0  0  0  0  0  0  0
  141.2280   70.5640  220.1910 H   0  0  0  0  0  0  0  0  0  0  0  0
  141.5202   72.9217  220.3303 H   0  0  0  0  0  0  0  0  0  0  0  0
  138.9741   69.3440  222.4653 H   0  0  0  0  0  0  0  0  0  0  0  0
  139.0662   67.9096  224.4969 H   0  0  0  0  0  0  0  0  0  0  0  0
  139.6364   67.6325  226.7968 H   0  0  0  0  0  0  0  0  0  0  0  0
  141.4044   70.9438  228.9225 H   0  0  0  0  0  0  0  0  0  0  0  0
  141.3011   72.3544  226.8852 H   0  0  0  0  0  0  0  0  0  0  0  0
  1  2  2  0
  2  3  1  0
  3  4  1  0
  4  5  1  0
  5  6  2  0
  5  7  1  0
  7  8  1  0
  8  9  1  0
  9 10  1  0
 10 11  1  0
 11 12  1  0
 12 13  1  0
 13 14  2  0
 14 15  1  0
 15 16  2  0
 16 17  1  0
 17 18  1  0
 17 19  2  0
  2 20  1  0
 20 21  2  0
 21 22  1  0
 22 23  2  0
 23 24  1  0
 24 25  2  0
 25 26  1  0
 25 27  1  0
 27 28  2  0
 28 29  1  0
 29 30  2  0
 12  7  1  0
 19 13  1  0
 30 20  1  0
 29 23  1  0
  3 31  1  0
  4 32  1  0
  4 33  1  0
  8 34  1  0
  8 35  1  0
  9 36  1  0
  9 37  1  0
 10 38  1  0
 10 39  1  0
 11 40  1  0
 11 41  1  0
 12 42  1  1
 14 43  1  0
 15 44  1  0
 16 45  1  0
 18 46  1  0
 19 47  1  0
 21 48  1  0
 22 49  1  0
 24 50  1  0
 27 51  1  0
 28 52  1  0
M  END
>  <smiles>  (28) 
O=C(NCC(=O)N1CCCCC1c1cccc(O)c1)c1ccc2cc(F)ccc2n1

>  <score_type>  (28) 
oracle

>  <origin>  (28) 
autodockgpu

>  <m_score__min__energy>  (28) 
-8.9600000000000009

>  <m_primary>  (28) 
energy

>  <rmsd>  (28) 
1.8313100134012261

>  <m_score__min__rmsd>  (28) 
1.8313100134012261

>  <meeko>  (28) 
{"free_energy": -7.58, "intermolecular_energy": -9.37, "internal_energy": -2.61, "cluster_size": 17, "cluster_id": 1, "rank_in_cluster": 16}

>  <energy>  (28) 
-8.32

>  <cluster_rmsd>  (28) 
1.47

>  <cluster>  (28) 
2

$$$$

     RDKit          3D

 52 55  0  0  0  0  0  0  0  0999 V2000
  137.1270   75.8460  221.9980 O   0  0  0  0  0  0  0  0  0  0  0  0
  138.3480   75.9750  222.2850 C   0  0  0  0  0  0  0  0  0  0  0  0
  139.1990   74.8250  222.3030 N   0  0  0  0  0  0  0  0  0  0  0  0
  138.6990   73.4910  221.9980 C   0  0  0  0  0  0  0  0  0  0  0  0
  139.5210   72.4540  222.6870 C   0  0  0  0  0  0  0  0  0  0  0  0
  140.7760   72.5340  222.7480 O   0  0  0  0  0  0  0  0  0  0  0  0
  138.8670   71.3230  223.3050 N   0  0  0  0  0  0  0  0  0  0  0  0
  137.4300   71.4090  223.3920 C   0  0  0  0  0  0  0  0  0  0  0  0
  136.8550   70.0550  223.5620 C   0  0  0  0  0  0  0  0  0  0  0  0
  137.6750   69.0000  222.8740 C   0  0  0  0  0  0  0  0  0  0  0  0
  139.0590   68.8810  223.4630 C   0  0  0  0  0  0  0  0  0  0  0  0
  139.6640   70.2180  223.7870 C   0  0  2  0  0  0  0  0  0  0  0  0
  140.0850   70.3590  225.2040 C   0  0  0  0  0  0  0  0  0  0  0  0
  140.6050   71.5270  225.7250 C   0  0  0  0  0  0  0  0  0  0  0  0
  140.9950   71.6630  227.0420 C   0  0  0  0  0  0  0  0  0  0  0  0
  140.8760   70.6020  227.9140 C   0  0  0  0  0  0  0  0  0  0  0  0
  140.3600   69.4190  227.4280 C   0  0  0  0  0  0  0  0  0  0  0  0
  140.2340   68.3430  228.2880 O   0  0  0  0  0  0  0  0  0  0  0  0
  139.9750   69.2980  226.1110 C   0  0  0  0  0  0  0  0  0  0  0  0
  138.9610   77.2580  222.6070 C   0  0  0  0  0  0  0  0  0  0  0  0
  138.1070   78.3420  222.7620 C   0  0  0  0  0  0  0  0  0  0  0  0
  138.6220   79.5880  223.0690 C   0  0  0  0  0  0  0  0  0  0  0  0
  139.9850   79.7380  223.2150 C   0  0  0  0  0  0  0  0  0  0  0  0
  140.4980   80.9740  223.5180 C   0  0  0  0  0  0  0  0  0  0  0  0
  141.8750   81.1020  223.6610 C   0  0  0  0  0  0  0  0  0  0  0  0
  142.4110   82.2960  223.9580 F   0  0  0  0  0  0  0  0  0  0  0  0
  142.6920   79.9840  223.4950 C   0  0  0  0  0  0  0  0  0  0  0  0
  142.1700   78.7430  223.1900 C   0  0  0  0  0  0  0  0  0  0  0  0
  140.7980   78.6220  223.0490 C   0  0  0  0  0  0  0  0  0  0  0  0
  140.2860   77.4210  222.7520 N   0  0  0  0  0  0  0  0  0  0  0  0
  140.2190   74.9360  222.5430 H   0  0  0  0  0  0  0  0  0  0  0  0
  137.6556   73.4095  222.3366 H   0  0  0  0  0  0  0  0  0  0  0  0
  138.7594   73.3285  220.9117 H   0  0  0  0  0  0  0  0  0  0  0  0
  137.1532   72.0340  224.2539 H   0  0  0  0  0  0  0  0  0  0  0  0
  137.0367   71.8568  222.4674 H   0  0  0  0  0  0  0  0  0  0  0  0
  136.8076   69.8225  224.6361 H   0  0  0  0  0  0  0  0  0  0  0  0
  135.8532   70.0539  223.1078 H   0  0  0  0  0  0  0  0  0  0  0  0
  137.1628   68.0317  222.9741 H   0  0  0  0  0  0  0  0  0  0  0  0
  137.7807   69.2892  221.8180 H   0  0  0  0  0  0  0  0  0  0  0  0
  138.9991   68.2877  224.3873 H   0  0  0  0  0  0  0  0  0  0  0  0
  139.7010   68.3969  222.7123 H   0  0  0  0  0  0  0  0  0  0  0  0
  140.6048   70.2602  223.2186 H   0  0  0  0  0  0  0  0  0  0  0  0
  140.7141   72.3936  225.0563 H   0  0  0  0  0  0  0  0  0  0  0  0
  141.4021   72.6213  227.3970 H   0  0  0  0  0  0  0  0  0  0  0  0
  141.1834   70.6961  228.9660 H   0  0  0  0  0  0  0  0  0  0  0  0
  140.2680   67.3880  227.9260 H   0  0  0  0  0  0  0  0  0  0  0  0
  139.5684   68.3377  225.7609 H   0  0  0  0  0  0  0  0  0  0  0  0
  137.0218   78.2096  222.6406 H   0  0  0  0  0  0  0  0  0  0  0  0
  137.9513   80.4507  223.1955 H   0  0  0  0  0  0  0  0  0  0  0  0
  139.8355   81.8430  223.6448 H   0  0  0  0  0  0  0  0  0  0  0  0
  143.7804   80.0939  223.6101 H   0  0  0  0  0  0  0  0  0  0  0  0
  142.8283   77.8711  223.0621 H   0  0  0  0  0  0  0  0  0  0  0  0
  1  2  2  0
  2  3  1  0
  3  4  1  0
  4  5  1  0
  5  6  2  0
  5  7  1  0
  7  8  1  0
  8  9  1  0
  9 10  1  0
 10 11  1  0
 11 12  1  0
 12 13  1  0
 13 14  2  0
 14 15  1  0
 15 16  2  0
 16 17  1  0
 17 18  1  0
 17 19  2  0
  2 20  1  0
 20 21  2  0
 21 22  1  0
 22 23  2  0
 23 24  1  0
 24 25  2  0
 25 26  1  0
 25 27  1  0
 27 28  2  0
 28 29  1  0
 29 30  2  0
 12  7  1  0
 19 13  1  0
 30 20  1  0
 29 23  1  0
  3 31  1  0
  4 32  1  0
  4 33  1  0
  8 34  1  0
  8 35  1  0
  9 36  1  0
  9 37  1  0
 10 38  1  0
 10 39  1  0
 11 40  1  0
 11 41  1  0
 12 42  1  6
 14 43  1  0
 15 44  1  0
 16 45  1  0
 18 46  1  0
 19 47  1  0
 21 48  1  0
 22 49  1  0
 24 50  1  0
 27 51  1  0
 28 52  1  0
M  END
>  <smiles>  (29) 
O=C(NCC(=O)N1CCCCC1c1cccc(O)c1)c1ccc2cc(F)ccc2n1

>  <score_type>  (29) 
oracle

>  <origin>  (29) 
autodockgpu

>  <m_score__min__energy>  (29) 
-8.9600000000000009

>  <m_primary>  (29) 
energy

>  <rmsd>  (29) 
8.672972161730405

>  <m_score__min__rmsd>  (29) 
8.672972161730405

>  <meeko>  (29) 
{"free_energy": -8.37, "intermolecular_energy": -10.16, "internal_energy": -1.81, "cluster_size": 10, "cluster_id": 4, "rank_in_cluster": 9}

>  <energy>  (29) 
-8.27

>  <cluster_rmsd>  (29) 
1.46

>  <cluster>  (29) 
2

$$$$

     RDKit          3D

 52 55  0  0  0  0  0  0  0  0999 V2000
  141.1250   71.1900  221.7870 O   0  0  0  0  0  0  0  0  0  0  0  0
  140.4740   71.6520  222.7630 C   0  0  0  0  0  0  0  0  0  0  0  0
  139.6370   72.7980  222.5810 N   0  0  0  0  0  0  0  0  0  0  0  0
  139.5070   73.4600  221.2890 C   0  0  0  0  0  0  0  0  0  0  0  0
  140.2710   74.7420  221.2780 C   0  0  0  0  0  0  0  0  0  0  0  0
  140.2200   75.5520  222.2400 O   0  0  0  0  0  0  0  0  0  0  0  0
  141.0940   75.0690  220.1360 N   0  0  0  0  0  0  0  0  0  0  0  0
  140.4690   74.8870  218.8490 C   0  0  0  0  0  0  0  0  0  0  0  0
  141.1790   75.6930  217.8280 C   0  0  0  0  0  0  0  0  0  0  0  0
  141.7540   76.9560  218.4040 C   0  0  0  0  0  0  0  0  0  0  0  0
  142.8120   76.6790  219.4430 C   0  0  0  0  0  0  0  0  0  0  0  0
  142.4450   75.5360  220.3460 C   0  0  2  0  0  0  0  0  0  0  0  0
  143.4550   74.4460  220.3760 C   0  0  0  0  0  0  0  0  0  0  0  0
  144.8130   74.6760  220.4680 C   0  0  0  0  0  0  0  0  0  0  0  0
  145.7530   73.6660  220.4980 C   0  0  0  0  0  0  0  0  0  0  0  0
  145.3560   72.3470  220.4370 C   0  0  0  0  0  0  0  0  0  0  0  0
  144.0070   72.0790  220.3450 C   0  0  0  0  0  0  0  0  0  0  0  0
  143.5900   70.7630  220.2820 O   0  0  0  0  0  0  0  0  0  0  0  0
  143.0800   73.0980  220.3160 C   0  0  0  0  0  0  0  0  0  0  0  0
  140.5240   71.0750  224.1010 C   0  0  0  0  0  0  0  0  0  0  0  0
  141.0520   71.8690  225.1100 C   0  0  0  0  0  0  0  0  0  0  0  0
  141.1290   71.3830  226.4020 C   0  0  0  0  0  0  0  0  0  0  0  0
  140.6780   70.1080  226.6720 C   0  0  0  0  0  0  0  0  0  0  0  0
  140.7550   69.6250  227.9540 C   0  0  0  0  0  0  0  0  0  0  0  0
  140.2940   68.3370  228.2040 C   0  0  0  0  0  0  0  0  0  0  0  0
  140.3530   67.8320  229.4450 F   0  0  0  0  0  0  0  0  0  0  0  0
  139.7730   67.5770  227.1570 C   0  0  0  0  0  0  0  0  0  0  0  0
  139.6990   68.0690  225.8700 C   0  0  0  0  0  0  0  0  0  0  0  0
  140.1580   69.3520  225.6270 C   0  0  0  0  0  0  0  0  0  0  0  0
  140.0900   69.8340  224.3810 N   0  0  0  0  0  0  0  0  0  0  0  0
  139.0940   73.1820  223.3990 H   0  0  0  0  0  0  0  0  0  0  0  0
  139.8991   72.7985  220.5025 H   0  0  0  0  0  0  0  0  0  0  0  0
  138.4443   73.6782  221.1070 H   0  0  0  0  0  0  0  0  0  0  0  0
  140.5114   73.8240  218.5694 H   0  0  0  0  0  0  0  0  0  0  0  0
  139.4202   75.2138  218.9050 H   0  0  0  0  0  0  0  0  0  0  0  0
  141.9974   75.0906  217.4068 H   0  0  0  0  0  0  0  0  0  0  0  0
  140.4511   75.9750  217.0530 H   0  0  0  0  0  0  0  0  0  0  0  0
  142.2025   77.5444  217.5900 H   0  0  0  0  0  0  0  0  0  0  0  0
  140.9368   77.5065  218.8930 H   0  0  0  0  0  0  0  0  0  0  0  0
  143.7545   76.4355  218.9307 H   0  0  0  0  0  0  0  0  0  0  0  0
  142.9122   77.5794  220.0668 H   0  0  0  0  0  0  0  0  0  0  0  0
  142.4608   75.9508  221.3647 H   0  0  0  0  0  0  0  0  0  0  0  0
  145.1638   75.7173  220.5200 H   0  0  0  0  0  0  0  0  0  0  0  0
  146.8222   73.9140  220.5708 H   0  0  0  0  0  0  0  0  0  0  0  0
  146.0945   71.5321  220.4610 H   0  0  0  0  0  0  0  0  0  0  0  0
  142.6440   70.5070  220.5730 H   0  0  0  0  0  0  0  0  0  0  0  0
  142.0120   72.8448  220.2434 H   0  0  0  0  0  0  0  0  0  0  0  0
  141.4089   72.8841  224.8817 H   0  0  0  0  0  0  0  0  0  0  0  0
  141.5457   72.0069  227.2064 H   0  0  0  0  0  0  0  0  0  0  0  0
  141.1713   70.2416  228.7643 H   0  0  0  0  0  0  0  0  0  0  0  0
  139.4116   66.5586  227.3626 H   0  0  0  0  0  0  0  0  0  0  0  0
  139.2849   67.4558  225.0560 H   0  0  0  0  0  0  0  0  0  0  0  0
  1  2  2  0
  2  3  1  0
  3  4  1  0
  4  5  1  0
  5  6  2  0
  5  7  1  0
  7  8  1  0
  8  9  1  0
  9 10  1  0
 10 11  1  0
 11 12  1  0
 12 13  1  0
 13 14  2  0
 14 15  1  0
 15 16  2  0
 16 17  1  0
 17 18  1  0
 17 19  2  0
  2 20  1  0
 20 21  2  0
 21 22  1  0
 22 23  2  0
 23 24  1  0
 24 25  2  0
 25 26  1  0
 25 27  1  0
 27 28  2  0
 28 29  1  0
 29 30  2  0
 12  7  1  0
 19 13  1  0
 30 20  1  0
 29 23  1  0
  3 31  1  0
  4 32  1  0
  4 33  1  0
  8 34  1  0
  8 35  1  0
  9 36  1  0
  9 37  1  0
 10 38  1  0
 10 39  1  0
 11 40  1  0
 11 41  1  0
 12 42  1  1
 14 43  1  0
 15 44  1  0
 16 45  1  0
 18 46  1  0
 19 47  1  0
 21 48  1  0
 22 49  1  0
 24 50  1  0
 27 51  1  0
 28 52  1  0
M  END
>  <smiles>  (30) 
O=C(NCC(=O)N1CCCCC1c1cccc(O)c1)c1ccc2cc(F)ccc2n1

>  <score_type>  (30) 
oracle

>  <origin>  (30) 
autodockgpu

>  <m_score__min__energy>  (30) 
-8.9600000000000009

>  <m_primary>  (30) 
energy

>  <rmsd>  (30) 
2.7458653256232886

>  <m_score__min__rmsd>  (30) 
2.7458653256232886

>  <meeko>  (30) 
{"free_energy": -7.79, "intermolecular_energy": -9.58, "internal_energy": -2.28, "cluster_size": 17, "cluster_id": 1, "rank_in_cluster": 15}

>  <energy>  (30) 
-8.23

>  <cluster_rmsd>  (30) 
1.56

>  <cluster>  (30) 
2

$$$$

     RDKit          3D

 52 55  0  0  0  0  0  0  0  0999 V2000
  136.1740   77.1860  221.6710 O   0  0  0  0  0  0  0  0  0  0  0  0
  136.6360   76.4330  222.5710 C   0  0  0  0  0  0  0  0  0  0  0  0
  138.0490   76.2310  222.6730 N   0  0  0  0  0  0  0  0  0  0  0  0
  138.9880   76.8730  221.7610 C   0  0  0  0  0  0  0  0  0  0  0  0
  140.2840   77.1430  222.4490 C   0  0  0  0  0  0  0  0  0  0  0  0
  141.0970   76.2210  222.7180 O   0  0  0  0  0  0  0  0  0  0  0  0
  140.6220   78.4980  222.8210 N   0  0  0  0  0  0  0  0  0  0  0  0
  141.7480   78.6340  223.7130 C   0  0  0  0  0  0  0  0  0  0  0  0
  142.2960   80.0070  223.6240 C   0  0  0  0  0  0  0  0  0  0  0  0
  142.1320   80.5940  222.2500 C   0  0  0  0  0  0  0  0  0  0  0  0
  140.6820   80.7600  221.8720 C   0  0  0  0  0  0  0  0  0  0  0  0
  139.8370   79.5940  222.3000 C   0  0  2  0  0  0  0  0  0  0  0  0
  138.6890   79.9690  223.1650 C   0  0  0  0  0  0  0  0  0  0  0  0
  138.7810   80.8930  224.1860 C   0  0  0  0  0  0  0  0  0  0  0  0
  137.7150   81.2450  224.9890 C   0  0  0  0  0  0  0  0  0  0  0  0
  136.4790   80.6670  224.7940 C   0  0  0  0  0  0  0  0  0  0  0  0
  136.3500   79.7380  223.7830 C   0  0  0  0  0  0  0  0  0  0  0  0
  135.1170   79.1470  223.5730 O   0  0  0  0  0  0  0  0  0  0  0  0
  137.4230   79.3970  222.9890 C   0  0  0  0  0  0  0  0  0  0  0  0
  135.7960   75.7380  223.5390 C   0  0  0  0  0  0  0  0  0  0  0  0
  135.8110   74.3500  223.5040 C   0  0  0  0  0  0  0  0  0  0  0  0
  135.0380   73.6290  224.3940 C   0  0  0  0  0  0  0  0  0  0  0  0
  134.2560   74.3020  225.3100 C   0  0  0  0  0  0  0  0  0  0  0  0
  133.4880   73.5870  226.1940 C   0  0  0  0  0  0  0  0  0  0  0  0
  132.7080   74.2870  227.1080 C   0  0  0  0  0  0  0  0  0  0  0  0
  131.9440   73.6200  227.9870 F   0  0  0  0  0  0  0  0  0  0  0  0
  132.7260   75.6810  227.1040 C   0  0  0  0  0  0  0  0  0  0  0  0
  133.5010   76.3950  226.2120 C   0  0  0  0  0  0  0  0  0  0  0  0
  134.2750   75.6930  225.3040 C   0  0  0  0  0  0  0  0  0  0  0  0
  135.0290   76.3790  224.4370 N   0  0  0  0  0  0  0  0  0  0  0  0
  138.4320   75.6010  223.4260 H   0  0  0  0  0  0  0  0  0  0  0  0
  139.1661   76.2116  220.9003 H   0  0  0  0  0  0  0  0  0  0  0  0
  138.5591   77.8280  221.4234 H   0  0  0  0  0  0  0  0  0  0  0  0
  141.4221   78.4371  224.7450 H   0  0  0  0  0  0  0  0  0  0  0  0
  142.5275   77.9127  223.4263 H   0  0  0  0  0  0  0  0  0  0  0  0
  141.7697   80.6465  224.3479 H   0  0  0  0  0  0  0  0  0  0  0  0
  143.3726   79.9567  223.8442 H   0  0  0  0  0  0  0  0  0  0  0  0
  142.6198   81.5796  222.2251 H   0  0  0  0  0  0  0  0  0  0  0  0
  142.5921   79.9018  221.5295 H   0  0  0  0  0  0  0  0  0  0  0  0
  140.2947   81.6709  222.3519 H   0  0  0  0  0  0  0  0  0  0  0  0
  140.6287   80.8257  220.7752 H   0  0  0  0  0  0  0  0  0  0  0  0
  139.3708   79.2154  221.3784 H   0  0  0  0  0  0  0  0  0  0  0  0
  139.7535   81.3734  224.3692 H   0  0  0  0  0  0  0  0  0  0  0  0
  137.8523   81.9893  225.7872 H   0  0  0  0  0  0  0  0  0  0  0  0
  135.6208   80.9387  225.4262 H   0  0  0  0  0  0  0  0  0  0  0  0
  135.0580   78.1720  223.2720 H   0  0  0  0  0  0  0  0  0  0  0  0
  137.2808   78.6523  222.1920 H   0  0  0  0  0  0  0  0  0  0  0  0
  136.4378   73.8247  222.7683 H   0  0  0  0  0  0  0  0  0  0  0  0
  135.0460   72.5292  224.3724 H   0  0  0  0  0  0  0  0  0  0  0  0
  133.4893   72.4871  226.1801 H   0  0  0  0  0  0  0  0  0  0  0  0
  132.1063   76.2265  227.8309 H   0  0  0  0  0  0  0  0  0  0  0  0
  133.5034   77.4949  226.2226 H   0  0  0  0  0  0  0  0  0  0  0  0
  1  2  2  0
  2  3  1  0
  3  4  1  0
  4  5  1  0
  5  6  2  0
  5  7  1  0
  7  8  1  0
  8  9  1  0
  9 10  1  0
 10 11  1  0
 11 12  1  0
 12 13  1  0
 13 14  2  0
 14 15  1  0
 15 16  2  0
 16 17  1  0
 17 18  1  0
 17 19  2  0
  2 20  1  0
 20 21  2  0
 21 22  1  0
 22 23  2  0
 23 24  1  0
 24 25  2  0
 25 26  1  0
 25 27  1  0
 27 28  2  0
 28 29  1  0
 29 30  2  0
 12  7  1  0
 19 13  1  0
 30 20  1  0
 29 23  1  0
  3 31  1  0
  4 32  1  0
  4 33  1  0
  8 34  1  0
  8 35  1  0
  9 36  1  0
  9 37  1  0
 10 38  1  0
 10 39  1  0
 11 40  1  0
 11 41  1  0
 12 42  1  6
 14 43  1  0
 15 44  1  0
 16 45  1  0
 18 46  1  0
 19 47  1  0
 21 48  1  0
 22 49  1  0
 24 50  1  0
 27 51  1  0
 28 52  1  0
M  END
>  <smiles>  (31) 
O=C(NCC(=O)N1CCCCC1c1cccc(O)c1)c1ccc2cc(F)ccc2n1

>  <score_type>  (31) 
oracle

>  <origin>  (31) 
autodockgpu

>  <m_score__min__energy>  (31) 
-8.9600000000000009

>  <m_primary>  (31) 
energy

>  <rmsd>  (31) 
6.676398385875703

>  <m_score__min__rmsd>  (31) 
6.676398385875703

>  <meeko>  (31) 
{"free_energy": -6.72, "intermolecular_energy": -8.51, "internal_energy": -2.94, "cluster_size": 2, "cluster_id": 6, "rank_in_cluster": 1}

>  <energy>  (31) 
-8.0

>  <cluster_rmsd>  (31) 
1.51

>  <cluster>  (31) 
2

$$$$

     RDKit          3D

 52 55  0  0  0  0  0  0  0  0999 V2000
  138.1260   70.9040  221.7770 O   0  0  0  0  0  0  0  0  0  0  0  0
  138.8380   71.3390  222.7210 C   0  0  0  0  0  0  0  0  0  0  0  0
  139.3320   72.6810  222.6790 N   0  0  0  0  0  0  0  0  0  0  0  0
  139.0370   73.5770  221.5680 C   0  0  0  0  0  0  0  0  0  0  0  0
  139.8880   74.8010  221.6410 C   0  0  0  0  0  0  0  0  0  0  0  0
  140.9780   74.8140  222.2710 O   0  0  0  0  0  0  0  0  0  0  0  0
  139.4570   76.0080  220.9730 N   0  0  0  0  0  0  0  0  0  0  0  0
  139.8740   76.1380  219.5980 C   0  0  0  0  0  0  0  0  0  0  0  0
  138.9980   77.1050  218.8970 C   0  0  0  0  0  0  0  0  0  0  0  0
  137.5960   77.0940  219.4380 C   0  0  0  0  0  0  0  0  0  0  0  0
  137.5390   77.5350  220.8800 C   0  0  0  0  0  0  0  0  0  0  0  0
  138.6680   76.9770  221.6980 C   0  0  2  0  0  0  0  0  0  0  0  0
  139.4820   78.0130  222.3860 C   0  0  0  0  0  0  0  0  0  0  0  0
  138.9360   78.9850  223.2000 C   0  0  0  0  0  0  0  0  0  0  0  0
  139.6900   79.9470  223.8430 C   0  0  0  0  0  0  0  0  0  0  0  0
  141.0600   79.9720  223.6880 C   0  0  0  0  0  0  0  0  0  0  0  0
  141.6390   79.0160  222.8810 C   0  0  0  0  0  0  0  0  0  0  0  0
  143.0110   79.0270  222.7140 O   0  0  0  0  0  0  0  0  0  0  0  0
  140.8740   78.0620  222.2470 C   0  0  0  0  0  0  0  0  0  0  0  0
  139.2000   70.5370  223.8840 C   0  0  0  0  0  0  0  0  0  0  0  0
  138.8730   69.1880  223.8430 C   0  0  0  0  0  0  0  0  0  0  0  0
  139.1880   68.3700  224.9130 C   0  0  0  0  0  0  0  0  0  0  0  0
  139.8230   68.9090  226.0120 C   0  0  0  0  0  0  0  0  0  0  0  0
  140.1350   68.0980  227.0740 C   0  0  0  0  0  0  0  0  0  0  0  0
  140.7750   68.6630  228.1710 C   0  0  0  0  0  0  0  0  0  0  0  0
  141.0950   67.9000  229.2280 F   0  0  0  0  0  0  0  0  0  0  0  0
  141.0820   70.0230  228.1650 C   0  0  0  0  0  0  0  0  0  0  0  0
  140.7660   70.8340  227.0940 C   0  0  0  0  0  0  0  0  0  0  0  0
  140.1280   70.2660  226.0040 C   0  0  0  0  0  0  0  0  0  0  0  0
  139.8190   71.0470  224.9620 N   0  0  0  0  0  0  0  0  0  0  0  0
  139.9280   73.0430  223.4700 H   0  0  0  0  0  0  0  0  0  0  0  0
  139.2348   73.0551  220.6201 H   0  0  0  0  0  0  0  0  0  0  0  0
  137.9799   73.8758  221.6240 H   0  0  0  0  0  0  0  0  0  0  0  0
  140.9136   76.4959  219.5640 H   0  0  0  0  0  0  0  0  0  0  0  0
  139.8027   75.1583  219.1028 H   0  0  0  0  0  0  0  0  0  0  0  0
  139.4167   78.1150  219.0178 H   0  0  0  0  0  0  0  0  0  0  0  0
  138.9540   76.8150  217.8368 H   0  0  0  0  0  0  0  0  0  0  0  0
  136.9778   77.7749  218.8344 H   0  0  0  0  0  0  0  0  0  0  0  0
  137.2213   76.0611  219.3853 H   0  0  0  0  0  0  0  0  0  0  0  0
  137.5875   78.6334  220.9150 H   0  0  0  0  0  0  0  0  0  0  0  0
  136.5985   77.1574  221.3077 H   0  0  0  0  0  0  0  0  0  0  0  0
  138.1887   76.4193  222.5161 H   0  0  0  0  0  0  0  0  0  0  0  0
  137.8455   78.9938  223.3438 H   0  0  0  0  0  0  0  0  0  0  0  0
  139.1964   80.6953  224.4805 H   0  0  0  0  0  0  0  0  0  0  0  0
  141.6730   80.7327  224.1936 H   0  0  0  0  0  0  0  0  0  0  0  0
  143.4500   78.4310  222.0090 H   0  0  0  0  0  0  0  0  0  0  0  0
  141.3726   77.3153  221.6115 H   0  0  0  0  0  0  0  0  0  0  0  0
  138.3645   68.7708  222.9613 H   0  0  0  0  0  0  0  0  0  0  0  0
  138.9344   67.2999  224.8875 H   0  0  0  0  0  0  0  0  0  0  0  0
  139.8848   67.0270  227.0577 H   0  0  0  0  0  0  0  0  0  0  0  0
  141.5895   70.4612  229.0370 H   0  0  0  0  0  0  0  0  0  0  0  0
  141.0148   71.9054  227.1059 H   0  0  0  0  0  0  0  0  0  0  0  0
  1  2  2  0
  2  3  1  0
  3  4  1  0
  4  5  1  0
  5  6  2  0
  5  7  1  0
  7  8  1  0
  8  9  1  0
  9 10  1  0
 10 11  1  0
 11 12  1  0
 12 13  1  0
 13 14  2  0
 14 15  1  0
 15 16  2  0
 16 17  1  0
 17 18  1  0
 17 19  2  0
  2 20  1  0
 20 21  2  0
 21 22  1  0
 22 23  2  0
 23 24  1  0
 24 25  2  0
 25 26  1  0
 25 27  1  0
 27 28  2  0
 28 29  1  0
 29 30  2  0
 12  7  1  0
 19 13  1  0
 30 20  1  0
 29 23  1  0
  3 31  1  0
  4 32  1  0
  4 33  1  0
  8 34  1  0
  8 35  1  0
  9 36  1  0
  9 37  1  0
 10 38  1  0
 10 39  1  0
 11 40  1  0
 11 41  1  0
 12 42  1  1
 14 43  1  0
 15 44  1  0
 16 45  1  0
 18 46  1  0
 19 47  1  0
 21 48  1  0
 22 49  1  0
 24 50  1  0
 27 51  1  0
 28 52  1  0
M  END
>  <smiles>  (32) 
O=C(NCC(=O)N1CCCCC1c1cccc(O)c1)c1ccc2cc(F)ccc2n1

>  <score_type>  (32) 
oracle

>  <origin>  (32) 
autodockgpu

>  <m_score__min__energy>  (32) 
-8.9600000000000009

>  <m_primary>  (32) 
energy

>  <rmsd>  (32) 
2.106426260062848

>  <m_score__min__rmsd>  (32) 
2.106426260062848

>  <meeko>  (32) 
{"free_energy": -8.0, "intermolecular_energy": -9.79, "internal_energy": -1.85, "cluster_size": 14, "cluster_id": 2, "rank_in_cluster": 14}

>  <energy>  (32) 
-8.83

>  <cluster_rmsd>  (32) 
0.0

>  <cluster>  (32) 
3

$$$$

     RDKit          3D

 52 55  0  0  0  0  0  0  0  0999 V2000
  141.2270   71.5940  221.4220 O   0  0  0  0  0  0  0  0  0  0  0  0
  140.5960   72.0780  222.4000 C   0  0  0  0  0  0  0  0  0  0  0  0
  140.1010   73.4190  222.3340 N   0  0  0  0  0  0  0  0  0  0  0  0
  140.3040   74.2590  221.1600 C   0  0  0  0  0  0  0  0  0  0  0  0
  140.1930   75.7020  221.5230 C   0  0  0  0  0  0  0  0  0  0  0  0
  139.4580   76.0940  222.4680 O   0  0  0  0  0  0  0  0  0  0  0  0
  140.9460   76.6830  220.7760 N   0  0  0  0  0  0  0  0  0  0  0  0
  142.2010   76.2210  220.2340 C   0  0  0  0  0  0  0  0  0  0  0  0
  142.6210   77.1010  219.1190 C   0  0  0  0  0  0  0  0  0  0  0  0
  141.4460   77.6670  218.3710 C   0  0  0  0  0  0  0  0  0  0  0  0
  140.5990   78.5640  219.2380 C   0  0  0  0  0  0  0  0  0  0  0  0
  140.4180   78.0200  220.6270 C   0  0  2  0  0  0  0  0  0  0  0  0
  140.8490   78.9540  221.6990 C   0  0  0  0  0  0  0  0  0  0  0  0
  142.1740   79.1900  222.0090 C   0  0  0  0  0  0  0  0  0  0  0  0
  142.5780   80.0590  223.0020 C   0  0  0  0  0  0  0  0  0  0  0  0
  141.6420   80.7460  223.7460 C   0  0  0  0  0  0  0  0  0  0  0  0
  140.3080   80.5360  223.4630 C   0  0  0  0  0  0  0  0  0  0  0  0
  139.3560   81.2160  224.1990 O   0  0  0  0  0  0  0  0  0  0  0  0
  139.9200   79.6650  222.4690 C   0  0  0  0  0  0  0  0  0  0  0  0
  140.3320   71.3340  223.6260 C   0  0  0  0  0  0  0  0  0  0  0  0
  139.6550   70.1290  223.4980 C   0  0  0  0  0  0  0  0  0  0  0  0
  139.3730   69.3730  224.6210 C   0  0  0  0  0  0  0  0  0  0  0  0
  139.7690   69.8300  225.8600 C   0  0  0  0  0  0  0  0  0  0  0  0
  139.4890   69.0820  226.9750 C   0  0  0  0  0  0  0  0  0  0  0  0
  139.8970   69.5620  228.2140 C   0  0  0  0  0  0  0  0  0  0  0  0
  139.6400   68.8550  229.3260 F   0  0  0  0  0  0  0  0  0  0  0  0
  140.5730   70.7790  228.2920 C   0  0  0  0  0  0  0  0  0  0  0  0
  140.8520   71.5280  227.1670 C   0  0  0  0  0  0  0  0  0  0  0  0
  140.4430   71.0450  225.9360 C   0  0  0  0  0  0  0  0  0  0  0  0
  140.7110   71.7660  224.8410 N   0  0  0  0  0  0  0  0  0  0  0  0
  139.5740   73.8210  223.1540 H   0  0  0  0  0  0  0  0  0  0  0  0
  141.3046   74.0661  220.7458 H   0  0  0  0  0  0  0  0  0  0  0  0
  139.5316   74.0198  220.4142 H   0  0  0  0  0  0  0  0  0  0  0  0
  142.9680   76.2393  221.0223 H   0  0  0  0  0  0  0  0  0  0  0  0
  142.0785   75.1940  219.8594 H   0  0  0  0  0  0  0  0  0  0  0  0
  143.2149   77.9319  219.5275 H   0  0  0  0  0  0  0  0  0  0  0  0
  143.2113   76.4965  218.4146 H   0  0  0  0  0  0  0  0  0  0  0  0
  141.8178   78.2494  217.5151 H   0  0  0  0  0  0  0  0  0  0  0  0
  140.8188   76.8261  218.0400 H   0  0  0  0  0  0  0  0  0  0  0  0
  141.0838   79.5491  219.3056 H   0  0  0  0  0  0  0  0  0  0  0  0
  139.6038   78.6333  218.7745 H   0  0  0  0  0  0  0  0  0  0  0  0
  139.3308   77.9282  220.7667 H   0  0  0  0  0  0  0  0  0  0  0  0
  142.9469   78.6580  221.4349 H   0  0  0  0  0  0  0  0  0  0  0  0
  143.6501   80.2041  223.2007 H   0  0  0  0  0  0  0  0  0  0  0  0
  141.9497   81.4407  224.5414 H   0  0  0  0  0  0  0  0  0  0  0  0
  138.5080   80.7370  224.5130 H   0  0  0  0  0  0  0  0  0  0  0  0
  138.8468   79.5234  222.2738 H   0  0  0  0  0  0  0  0  0  0  0  0
  139.3431   69.7757  222.5041 H   0  0  0  0  0  0  0  0  0  0  0  0
  138.8380   68.4165  224.5267 H   0  0  0  0  0  0  0  0  0  0  0  0
  138.9540   68.1246  226.8907 H   0  0  0  0  0  0  0  0  0  0  0  0
  140.8924   71.1520  229.2763 H   0  0  0  0  0  0  0  0  0  0  0  0
  141.3867   72.4860  227.2467 H   0  0  0  0  0  0  0  0  0  0  0  0
  1  2  2  0
  2  3  1  0
  3  4  1  0
  4  5  1  0
  5  6  2  0
  5  7  1  0
  7  8  1  0
  8  9  1  0
  9 10  1  0
 10 11  1  0
 11 12  1  0
 12 13  1  0
 13 14  2  0
 14 15  1  0
 15 16  2  0
 16 17  1  0
 17 18  1  0
 17 19  2  0
  2 20  1  0
 20 21  2  0
 21 22  1  0
 22 23  2  0
 23 24  1  0
 24 25  2  0
 25 26  1  0
 25 27  1  0
 27 28  2  0
 28 29  1  0
 29 30  2  0
 12  7  1  0
 19 13  1  0
 30 20  1  0
 29 23  1  0
  3 31  1  0
  4 32  1  0
  4 33  1  0
  8 34  1  0
  8 35  1  0
  9 36  1  0
  9 37  1  0
 10 38  1  0
 10 39  1  0
 11 40  1  0
 11 41  1  0
 12 42  1  1
 14 43  1  0
 15 44  1  0
 16 45  1  0
 18 46  1  0
 19 47  1  0
 21 48  1  0
 22 49  1  0
 24 50  1  0
 27 51  1  0
 28 52  1  0
M  END
>  <smiles>  (33) 
O=C(NCC(=O)N1CCCCC1c1cccc(O)c1)c1ccc2cc(F)ccc2n1

>  <score_type>  (33) 
oracle

>  <origin>  (33) 
autodockgpu

>  <m_score__min__energy>  (33) 
-8.9600000000000009

>  <m_primary>  (33) 
energy

>  <rmsd>  (33) 
2.1679520761222353

>  <m_score__min__rmsd>  (33) 
2.1679520761222353

>  <meeko>  (33) 
{"free_energy": -8.27, "intermolecular_energy": -10.06, "internal_energy": -1.65, "cluster_size": 14, "cluster_id": 2, "rank_in_cluster": 12}

>  <energy>  (33) 
-8.81

>  <cluster_rmsd>  (33) 
0.07

>  <cluster>  (33) 
3

$$$$

     RDKit          3D

 52 55  0  0  0  0  0  0  0  0999 V2000
  140.9760   71.3890  221.2940 O   0  0  0  0  0  0  0  0  0  0  0  0
  140.4480   71.8750  222.3310 C   0  0  0  0  0  0  0  0  0  0  0  0
  139.9890   73.2300  222.3270 N   0  0  0  0  0  0  0  0  0  0  0  0
  140.1110   74.0820  221.1510 C   0  0  0  0  0  0  0  0  0  0  0  0
  140.1150   75.5210  221.5460 C   0  0  0  0  0  0  0  0  0  0  0  0
  139.3940   75.9540  222.4830 O   0  0  0  0  0  0  0  0  0  0  0  0
  140.9660   76.4510  220.8380 N   0  0  0  0  0  0  0  0  0  0  0  0
  142.2380   75.9240  220.4110 C   0  0  0  0  0  0  0  0  0  0  0  0
  142.7830   76.7550  219.3120 C   0  0  0  0  0  0  0  0  0  0  0  0
  141.6970   77.3460  218.4580 C   0  0  0  0  0  0  0  0  0  0  0  0
  140.8210   78.3000  219.2310 C   0  0  0  0  0  0  0  0  0  0  0  0
  140.5070   77.8030  220.6140 C   0  0  2  0  0  0  0  0  0  0  0  0
  140.8910   78.7480  221.6940 C   0  0  0  0  0  0  0  0  0  0  0  0
  142.2020   79.0380  222.0150 C   0  0  0  0  0  0  0  0  0  0  0  0
  142.5610   79.9180  223.0160 C   0  0  0  0  0  0  0  0  0  0  0  0
  141.5910   80.5610  223.7560 C   0  0  0  0  0  0  0  0  0  0  0  0
  140.2700   80.2950  223.4630 C   0  0  0  0  0  0  0  0  0  0  0  0
  139.2840   80.9290  224.1950 O   0  0  0  0  0  0  0  0  0  0  0  0
  139.9270   79.4140  222.4610 C   0  0  0  0  0  0  0  0  0  0  0  0
  140.2720   71.1200  223.5660 C   0  0  0  0  0  0  0  0  0  0  0  0
  139.5890   69.9150  223.4750 C   0  0  0  0  0  0  0  0  0  0  0  0
  139.3880   69.1480  224.6080 C   0  0  0  0  0  0  0  0  0  0  0  0
  139.8700   69.5950  225.8200 C   0  0  0  0  0  0  0  0  0  0  0  0
  139.6700   68.8350  226.9450 C   0  0  0  0  0  0  0  0  0  0  0  0
  140.1650   69.3050  228.1570 C   0  0  0  0  0  0  0  0  0  0  0  0
  139.9890   68.5880  229.2770 F   0  0  0  0  0  0  0  0  0  0  0  0
  140.8450   70.5220  228.1980 C   0  0  0  0  0  0  0  0  0  0  0  0
  141.0430   71.2820  227.0630 C   0  0  0  0  0  0  0  0  0  0  0  0
  140.5480   70.8090  225.8590 C   0  0  0  0  0  0  0  0  0  0  0  0
  140.7360   71.5410  224.7550 N   0  0  0  0  0  0  0  0  0  0  0  0
  139.5480   73.6330  223.1960 H   0  0  0  0  0  0  0  0  0  0  0  0
  141.0508   73.8471  220.6298 H   0  0  0  0  0  0  0  0  0  0  0  0
  139.2530   73.8977  220.4877 H   0  0  0  0  0  0  0  0  0  0  0  0
  142.9398   75.9331  221.2580 H   0  0  0  0  0  0  0  0  0  0  0  0
  142.1018   74.8928  220.0530 H   0  0  0  0  0  0  0  0  0  0  0  0
  143.3769   77.5726  219.7466 H   0  0  0  0  0  0  0  0  0  0  0  0
  143.4019   76.1079  218.6730 H   0  0  0  0  0  0  0  0  0  0  0  0
  142.1603   77.8892  217.6212 H   0  0  0  0  0  0  0  0  0  0  0  0
  141.0637   76.5217  218.0981 H   0  0  0  0  0  0  0  0  0  0  0  0
  141.3393   79.2668  219.3131 H   0  0  0  0  0  0  0  0  0  0  0  0
  139.8698   78.3952  218.6867 H   0  0  0  0  0  0  0  0  0  0  0  0
  139.4092   77.7591  220.6676 H   0  0  0  0  0  0  0  0  0  0  0  0
  143.0011   78.5426  221.4440 H   0  0  0  0  0  0  0  0  0  0  0  0
  143.6244   80.1071  223.2242 H   0  0  0  0  0  0  0  0  0  0  0  0
  141.8630   81.2651  224.5562 H   0  0  0  0  0  0  0  0  0  0  0  0
  138.6420   81.5810  223.7390 H   0  0  0  0  0  0  0  0  0  0  0  0
  138.8623   79.2278  222.2569 H   0  0  0  0  0  0  0  0  0  0  0  0
  139.2079   69.5704  222.5024 H   0  0  0  0  0  0  0  0  0  0  0  0
  138.8492   68.1912  224.5430 H   0  0  0  0  0  0  0  0  0  0  0  0
  139.1314   67.8775  226.8897 H   0  0  0  0  0  0  0  0  0  0  0  0
  141.2339   70.8858  229.1605 H   0  0  0  0  0  0  0  0  0  0  0  0
  141.5809   72.2402  227.1134 H   0  0  0  0  0  0  0  0  0  0  0  0
  1  2  2  0
  2  3  1  0
  3  4  1  0
  4  5  1  0
  5  6  2  0
  5  7  1  0
  7  8  1  0
  8  9  1  0
  9 10  1  0
 10 11  1  0
 11 12  1  0
 12 13  1  0
 13 14  2  0
 14 15  1  0
 15 16  2  0
 16 17  1  0
 17 18  1  0
 17 19  2  0
  2 20  1  0
 20 21  2  0
 21 22  1  0
 22 23  2  0
 23 24  1  0
 24 25  2  0
 25 26  1  0
 25 27  1  0
 27 28  2  0
 28 29  1  0
 29 30  2  0
 12  7  1  0
 19 13  1  0
 30 20  1  0
 29 23  1  0
  3 31  1  0
  4 32  1  0
  4 33  1  0
  8 34  1  0
  8 35  1  0
  9 36  1  0
  9 37  1  0
 10 38  1  0
 10 39  1  0
 11 40  1  0
 11 41  1  0
 12 42  1  6
 14 43  1  0
 15 44  1  0
 16 45  1  0
 18 46  1  0
 19 47  1  0
 21 48  1  0
 22 49  1  0
 24 50  1  0
 27 51  1  0
 28 52  1  0
M  END
>  <smiles>  (34) 
O=C(NCC(=O)N1CCCCC1c1cccc(O)c1)c1ccc2cc(F)ccc2n1

>  <score_type>  (34) 
oracle

>  <origin>  (34) 
autodockgpu

>  <m_score__min__energy>  (34) 
-8.9600000000000009

>  <m_primary>  (34) 
energy

>  <rmsd>  (34) 
2.0602955886808787

>  <m_score__min__rmsd>  (34) 
2.0602955886808787

>  <meeko>  (34) 
{"free_energy": -8.4, "intermolecular_energy": -10.19, "internal_energy": -1.6, "cluster_size": 14, "cluster_id": 2, "rank_in_cluster": 9}

>  <energy>  (34) 
-8.59

>  <cluster_rmsd>  (34) 
0.59

>  <cluster>  (34) 
3

$$$$

     RDKit          3D

 52 55  0  0  0  0  0  0  0  0999 V2000
  141.1020   71.5340  221.3220 O   0  0  0  0  0  0  0  0  0  0  0  0
  140.5280   72.0050  222.3410 C   0  0  0  0  0  0  0  0  0  0  0  0
  140.0660   73.3590  222.3350 N   0  0  0  0  0  0  0  0  0  0  0  0
  140.2390   74.2270  221.1780 C   0  0  0  0  0  0  0  0  0  0  0  0
  140.1340   75.6610  221.5790 C   0  0  0  0  0  0  0  0  0  0  0  0
  139.5320   76.0140  222.6270 O   0  0  0  0  0  0  0  0  0  0  0  0
  140.7370   76.6780  220.7480 N   0  0  0  0  0  0  0  0  0  0  0  0
  141.8300   76.2330  219.9190 C   0  0  0  0  0  0  0  0  0  0  0  0
  142.0250   77.1790  218.7960 C   0  0  0  0  0  0  0  0  0  0  0  0
  140.7340   77.8110  218.3570 C   0  0  0  0  0  0  0  0  0  0  0  0
  140.1210   78.6620  219.4410 C   0  0  0  0  0  0  0  0  0  0  0  0
  140.2280   78.0300  220.8000 C   0  0  2  0  0  0  0  0  0  0  0  0
  140.9090   78.8830  221.8080 C   0  0  0  0  0  0  0  0  0  0  0  0
  141.4340   78.3910  222.9850 C   0  0  0  0  0  0  0  0  0  0  0  0
  142.0690   79.1810  223.9220 C   0  0  0  0  0  0  0  0  0  0  0  0
  142.2050   80.5360  223.7090 C   0  0  0  0  0  0  0  0  0  0  0  0
  141.6920   81.0630  222.5430 C   0  0  0  0  0  0  0  0  0  0  0  0
  141.8190   82.4210  222.3120 O   0  0  0  0  0  0  0  0  0  0  0  0
  141.0610   80.2620  221.6170 C   0  0  0  0  0  0  0  0  0  0  0  0
  140.2990   71.2320  223.5560 C   0  0  0  0  0  0  0  0  0  0  0  0
  139.6160   70.0310  223.4190 C   0  0  0  0  0  0  0  0  0  0  0  0
  139.3650   69.2480  224.5310 C   0  0  0  0  0  0  0  0  0  0  0  0
  139.7990   69.6750  225.7690 C   0  0  0  0  0  0  0  0  0  0  0  0
  139.5500   68.9000  226.8730 C   0  0  0  0  0  0  0  0  0  0  0  0
  139.9960   69.3490  228.1110 C   0  0  0  0  0  0  0  0  0  0  0  0
  139.7710   68.6170  229.2120 F   0  0  0  0  0  0  0  0  0  0  0  0
  140.6770   70.5630  228.1980 C   0  0  0  0  0  0  0  0  0  0  0  0
  140.9240   71.3390  227.0840 C   0  0  0  0  0  0  0  0  0  0  0  0
  140.4780   70.8860  225.8540 C   0  0  0  0  0  0  0  0  0  0  0  0
  140.7140   71.6340  224.7690 N   0  0  0  0  0  0  0  0  0  0  0  0
  139.5860   73.7490  223.1890 H   0  0  0  0  0  0  0  0  0  0  0  0
  141.2297   74.0467  220.7352 H   0  0  0  0  0  0  0  0  0  0  0  0
  139.4495   74.0041  220.4452 H   0  0  0  0  0  0  0  0  0  0  0  0
  142.7495   76.1862  220.5210 H   0  0  0  0  0  0  0  0  0  0  0  0
  141.5988   75.2353  219.5176 H   0  0  0  0  0  0  0  0  0  0  0  0
  142.7168   77.9719  219.1165 H   0  0  0  0  0  0  0  0  0  0  0  0
  142.4317   76.6138  217.9444 H   0  0  0  0  0  0  0  0  0  0  0  0
  140.9294   78.4428  217.4780 H   0  0  0  0  0  0  0  0  0  0  0  0
  140.0256   77.0038  218.1190 H   0  0  0  0  0  0  0  0  0  0  0  0
  140.6381   79.6327  219.4619 H   0  0  0  0  0  0  0  0  0  0  0  0
  139.0518   78.7775  219.2100 H   0  0  0  0  0  0  0  0  0  0  0  0
  139.1941   77.9468  221.1664 H   0  0  0  0  0  0  0  0  0  0  0  0
  141.3419   77.3137  223.1872 H   0  0  0  0  0  0  0  0  0  0  0  0
  142.4678   78.7278  224.8416 H   0  0  0  0  0  0  0  0  0  0  0  0
  142.7079   81.1777  224.4474 H   0  0  0  0  0  0  0  0  0  0  0  0
  141.2640   82.8740  221.5840 H   0  0  0  0  0  0  0  0  0  0  0  0
  140.6641   80.7197  220.6989 H   0  0  0  0  0  0  0  0  0  0  0  0
  139.2746   69.7024  222.4263 H   0  0  0  0  0  0  0  0  0  0  0  0
  138.8251   68.2950  224.4295 H   0  0  0  0  0  0  0  0  0  0  0  0
  139.0103   67.9459  226.7811 H   0  0  0  0  0  0  0  0  0  0  0  0
  141.0266   70.9113  229.1811 H   0  0  0  0  0  0  0  0  0  0  0  0
  141.4622   72.2944  227.1711 H   0  0  0  0  0  0  0  0  0  0  0  0
  1  2  2  0
  2  3  1  0
  3  4  1  0
  4  5  1  0
  5  6  2  0
  5  7  1  0
  7  8  1  0
  8  9  1  0
  9 10  1  0
 10 11  1  0
 11 12  1  0
 12 13  1  0
 13 14  2  0
 14 15  1  0
 15 16  2  0
 16 17  1  0
 17 18  1  0
 17 19  2  0
  2 20  1  0
 20 21  2  0
 21 22  1  0
 22 23  2  0
 23 24  1  0
 24 25  2  0
 25 26  1  0
 25 27  1  0
 27 28  2  0
 28 29  1  0
 29 30  2  0
 12  7  1  0
 19 13  1  0
 30 20  1  0
 29 23  1  0
  3 31  1  0
  4 32  1  0
  4 33  1  0
  8 34  1  0
  8 35  1  0
  9 36  1  0
  9 37  1  0
 10 38  1  0
 10 39  1  0
 11 40  1  0
 11 41  1  0
 12 42  1  1
 14 43  1  0
 15 44  1  0
 16 45  1  0
 18 46  1  0
 19 47  1  0
 21 48  1  0
 22 49  1  0
 24 50  1  0
 27 51  1  0
 28 52  1  0
M  END
>  <smiles>  (35) 
O=C(NCC(=O)N1CCCCC1c1cccc(O)c1)c1ccc2cc(F)ccc2n1

>  <score_type>  (35) 
oracle

>  <origin>  (35) 
autodockgpu

>  <m_score__min__energy>  (35) 
-8.9600000000000009

>  <m_primary>  (35) 
energy

>  <rmsd>  (35) 
2.053179833857099

>  <m_score__min__rmsd>  (35) 
2.053179833857099

>  <meeko>  (35) 
{"free_energy": -8.33, "intermolecular_energy": -10.12, "internal_energy": -1.7, "cluster_size": 14, "cluster_id": 2, "rank_in_cluster": 10}

>  <energy>  (35) 
-8.54

>  <cluster_rmsd>  (35) 
0.75

>  <cluster>  (35) 
3

$$$$

     RDKit          3D

 52 55  0  0  0  0  0  0  0  0999 V2000
  137.1850   75.8500  222.0420 O   0  0  0  0  0  0  0  0  0  0  0  0
  138.4190   76.0050  222.2490 C   0  0  0  0  0  0  0  0  0  0  0  0
  139.2990   74.8790  222.1830 N   0  0  0  0  0  0  0  0  0  0  0  0
  138.8140   73.5380  221.8810 C   0  0  0  0  0  0  0  0  0  0  0  0
  139.5930   72.5170  222.6400 C   0  0  0  0  0  0  0  0  0  0  0  0
  140.8430   72.6000  222.7740 O   0  0  0  0  0  0  0  0  0  0  0  0
  138.9030   71.3990  223.2420 N   0  0  0  0  0  0  0  0  0  0  0  0
  137.4630   71.4740  223.2180 C   0  0  0  0  0  0  0  0  0  0  0  0
  136.8870   70.1190  223.3860 C   0  0  0  0  0  0  0  0  0  0  0  0
  137.7650   69.0530  222.7930 C   0  0  0  0  0  0  0  0  0  0  0  0
  139.1010   68.9650  223.4880 C   0  0  0  0  0  0  0  0  0  0  0  0
  139.6700   70.3160  223.8150 C   0  0  2  0  0  0  0  0  0  0  0  0
  139.9830   70.5040  225.2550 C   0  0  0  0  0  0  0  0  0  0  0  0
  139.5320   69.6540  226.2440 C   0  0  0  0  0  0  0  0  0  0  0  0
  139.8220   69.8240  227.5830 C   0  0  0  0  0  0  0  0  0  0  0  0
  140.6000   70.8860  227.9940 C   0  0  0  0  0  0  0  0  0  0  0  0
  141.0690   71.7570  227.0330 C   0  0  0  0  0  0  0  0  0  0  0  0
  141.8490   72.8280  227.4260 O   0  0  0  0  0  0  0  0  0  0  0  0
  140.7700   71.5740  225.7000 C   0  0  0  0  0  0  0  0  0  0  0  0
  139.0190   77.2980  222.5580 C   0  0  0  0  0  0  0  0  0  0  0  0
  138.1570   78.3780  222.6840 C   0  0  0  0  0  0  0  0  0  0  0  0
  138.6600   79.6330  222.9770 C   0  0  0  0  0  0  0  0  0  0  0  0
  140.0200   79.7940  223.1410 C   0  0  0  0  0  0  0  0  0  0  0  0
  140.5200   81.0380  223.4310 C   0  0  0  0  0  0  0  0  0  0  0  0
  141.8940   81.1770  223.5910 C   0  0  0  0  0  0  0  0  0  0  0  0
  142.4180   82.3790  223.8760 F   0  0  0  0  0  0  0  0  0  0  0  0
  142.7200   80.0620  223.4540 C   0  0  0  0  0  0  0  0  0  0  0  0
  142.2110   78.8130  223.1620 C   0  0  0  0  0  0  0  0  0  0  0  0
  140.8420   78.6800  223.0040 C   0  0  0  0  0  0  0  0  0  0  0  0
  140.3420   77.4720  222.7200 N   0  0  0  0  0  0  0  0  0  0  0  0
  140.3300   75.0130  222.3560 H   0  0  0  0  0  0  0  0  0  0  0  0
  137.7527   73.4653  222.1611 H   0  0  0  0  0  0  0  0  0  0  0  0
  138.9359   73.3499  220.8041 H   0  0  0  0  0  0  0  0  0  0  0  0
  137.1173   72.1219  224.0370 H   0  0  0  0  0  0  0  0  0  0  0  0
  137.1370   71.8902  222.2534 H   0  0  0  0  0  0  0  0  0  0  0  0
  136.7614   69.9179  224.4601 H   0  0  0  0  0  0  0  0  0  0  0  0
  135.9217   70.0940  222.8592 H   0  0  0  0  0  0  0  0  0  0  0  0
  137.2543   68.0828  222.8825 H   0  0  0  0  0  0  0  0  0  0  0  0
  137.9481   69.3128  221.7399 H   0  0  0  0  0  0  0  0  0  0  0  0
  138.9755   68.3995  224.4231 H   0  0  0  0  0  0  0  0  0  0  0  0
  139.8014   68.4645  222.8032 H   0  0  0  0  0  0  0  0  0  0  0  0
  140.6501   70.3493  223.3167 H   0  0  0  0  0  0  0  0  0  0  0  0
  138.9090   68.7963  225.9502 H   0  0  0  0  0  0  0  0  0  0  0  0
  139.4316   69.1107  228.3238 H   0  0  0  0  0  0  0  0  0  0  0  0
  140.8395   71.0340  229.0574 H   0  0  0  0  0  0  0  0  0  0  0  0
  141.5470   73.7850  227.2320 H   0  0  0  0  0  0  0  0  0  0  0  0
  141.1615   72.2904  224.9628 H   0  0  0  0  0  0  0  0  0  0  0  0
  137.0743   78.2364  222.5510 H   0  0  0  0  0  0  0  0  0  0  0  0
  137.9824   80.4936  223.0781 H   0  0  0  0  0  0  0  0  0  0  0  0
  139.8502   81.9044  223.5344 H   0  0  0  0  0  0  0  0  0  0  0  0
  143.8060   80.1811  223.5820 H   0  0  0  0  0  0  0  0  0  0  0  0
  142.8770   77.9439  223.0573 H   0  0  0  0  0  0  0  0  0  0  0  0
  1  2  2  0
  2  3  1  0
  3  4  1  0
  4  5  1  0
  5  6  2  0
  5  7  1  0
  7  8  1  0
  8  9  1  0
  9 10  1  0
 10 11  1  0
 11 12  1  0
 12 13  1  0
 13 14  2  0
 14 15  1  0
 15 16  2  0
 16 17  1  0
 17 18  1  0
 17 19  2  0
  2 20  1  0
 20 21  2  0
 21 22  1  0
 22 23  2  0
 23 24  1  0
 24 25  2  0
 25 26  1  0
 25 27  1  0
 27 28  2  0
 28 29  1  0
 29 30  2  0
 12  7  1  0
 19 13  1  0
 30 20  1  0
 29 23  1  0
  3 31  1  0
  4 32  1  0
  4 33  1  0
  8 34  1  0
  8 35  1  0
  9 36  1  0
  9 37  1  0
 10 38  1  0
 10 39  1  0
 11 40  1  0
 11 41  1  0
 12 42  1  6
 14 43  1  0
 15 44  1  0
 16 45  1  0
 18 46  1  0
 19 47  1  0
 21 48  1  0
 22 49  1  0
 24 50  1  0
 27 51  1  0
 28 52  1  0
M  END
>  <smiles>  (36) 
O=C(NCC(=O)N1CCCCC1c1cccc(O)c1)c1ccc2cc(F)ccc2n1

>  <score_type>  (36) 
oracle

>  <origin>  (36) 
autodockgpu

>  <m_score__min__energy>  (36) 
-8.9600000000000009

>  <m_primary>  (36) 
energy

>  <rmsd>  (36) 
8.673963319169857

>  <m_score__min__rmsd>  (36) 
8.673963319169857

>  <meeko>  (36) 
{"free_energy": -8.38, "intermolecular_energy": -10.17, "internal_energy": -1.74, "cluster_size": 10, "cluster_id": 4, "rank_in_cluster": 8}

>  <energy>  (36) 
-7.71

>  <cluster_rmsd>  (36) 
1.23

>  <cluster>  (36) 
3

$$$$

     RDKit          3D

 52 55  0  0  0  0  0  0  0  0999 V2000
  139.1510   71.3320  221.1370 O   0  0  0  0  0  0  0  0  0  0  0  0
  139.3690   71.8770  222.2520 C   0  0  0  0  0  0  0  0  0  0  0  0
  139.3840   73.3040  222.3550 N   0  0  0  0  0  0  0  0  0  0  0  0
  139.1530   74.1630  221.2010 C   0  0  0  0  0  0  0  0  0  0  0  0
  139.5260   75.5740  221.5150 C   0  0  0  0  0  0  0  0  0  0  0  0
  138.7720   76.3240  222.1880 O   0  0  0  0  0  0  0  0  0  0  0  0
  140.7840   76.1000  221.0360 N   0  0  0  0  0  0  0  0  0  0  0  0
  141.8780   75.1610  221.0060 C   0  0  0  0  0  0  0  0  0  0  0  0
  142.9230   75.6370  220.0700 C   0  0  0  0  0  0  0  0  0  0  0  0
  142.3430   76.4140  218.9220 C   0  0  0  0  0  0  0  0  0  0  0  0
  141.6640   77.6810  219.3780 C   0  0  0  0  0  0  0  0  0  0  0  0
  140.8670   77.4870  220.6370 C   0  0  2  0  0  0  0  0  0  0  0  0
  141.2530   78.4030  221.7410 C   0  0  0  0  0  0  0  0  0  0  0  0
  141.4670   77.9770  223.0360 C   0  0  0  0  0  0  0  0  0  0  0  0
  141.8290   78.8250  224.0640 C   0  0  0  0  0  0  0  0  0  0  0  0
  141.9950   80.1730  223.8250 C   0  0  0  0  0  0  0  0  0  0  0  0
  141.7890   80.6340  222.5410 C   0  0  0  0  0  0  0  0  0  0  0  0
  141.9510   81.9820  222.2830 O   0  0  0  0  0  0  0  0  0  0  0  0
  141.4290   79.7750  221.5260 C   0  0  0  0  0  0  0  0  0  0  0  0
  139.6140   71.1220  223.4750 C   0  0  0  0  0  0  0  0  0  0  0  0
  139.2880   69.7730  223.4570 C   0  0  0  0  0  0  0  0  0  0  0  0
  139.4950   68.9980  224.5840 C   0  0  0  0  0  0  0  0  0  0  0  0
  140.0240   69.5810  225.7170 C   0  0  0  0  0  0  0  0  0  0  0  0
  140.2290   68.8130  226.8360 C   0  0  0  0  0  0  0  0  0  0  0  0
  140.7630   69.4210  227.9660 C   0  0  0  0  0  0  0  0  0  0  0  0
  140.9770   68.7010  229.0780 F   0  0  0  0  0  0  0  0  0  0  0  0
  141.0740   70.7800  227.9350 C   0  0  0  0  0  0  0  0  0  0  0  0
  140.8650   71.5470  226.8070 C   0  0  0  0  0  0  0  0  0  0  0  0
  140.3330   70.9360  225.6840 C   0  0  0  0  0  0  0  0  0  0  0  0
  140.1280   71.6750  224.5870 N   0  0  0  0  0  0  0  0  0  0  0  0
  139.5670   73.7570  223.2890 H   0  0  0  0  0  0  0  0  0  0  0  0
  139.7623   73.8069  220.3572 H   0  0  0  0  0  0  0  0  0  0  0  0
  138.0850   74.1276  220.9399 H   0  0  0  0  0  0  0  0  0  0  0  0
  142.3066   75.0674  222.0147 H   0  0  0  0  0  0  0  0  0  0  0  0
  141.5070   74.1821  220.6684 H   0  0  0  0  0  0  0  0  0  0  0  0
  143.6225   76.2846  220.6190 H   0  0  0  0  0  0  0  0  0  0  0  0
  143.4350   74.7552  219.6575 H   0  0  0  0  0  0  0  0  0  0  0  0
  143.1537   76.6769  218.2265 H   0  0  0  0  0  0  0  0  0  0  0  0
  141.5866   75.7819  218.4339 H   0  0  0  0  0  0  0  0  0  0  0  0
  142.4324   78.4464  219.5616 H   0  0  0  0  0  0  0  0  0  0  0  0
  140.9663   77.9895  218.5855 H   0  0  0  0  0  0  0  0  0  0  0  0
  139.8396   77.7866  220.3828 H   0  0  0  0  0  0  0  0  0  0  0  0
  141.3429   76.9074  223.2609 H   0  0  0  0  0  0  0  0  0  0  0  0
  141.9854   78.4241  225.0763 H   0  0  0  0  0  0  0  0  0  0  0  0
  142.2831   80.8603  224.6341 H   0  0  0  0  0  0  0  0  0  0  0  0
  141.7990   82.3490  221.3410 H   0  0  0  0  0  0  0  0  0  0  0  0
  141.2750   80.1799  220.5149 H   0  0  0  0  0  0  0  0  0  0  0  0
  138.8655   69.3207  222.5476 H   0  0  0  0  0  0  0  0  0  0  0  0
  139.2404   67.9279  224.5769 H   0  0  0  0  0  0  0  0  0  0  0  0
  139.9768   67.7423  226.8384 H   0  0  0  0  0  0  0  0  0  0  0  0
  141.4971   71.2531  228.8334 H   0  0  0  0  0  0  0  0  0  0  0  0
  141.1151   72.6182  226.8001 H   0  0  0  0  0  0  0  0  0  0  0  0
  1  2  2  0
  2  3  1  0
  3  4  1  0
  4  5  1  0
  5  6  2  0
  5  7  1  0
  7  8  1  0
  8  9  1  0
  9 10  1  0
 10 11  1  0
 11 12  1  0
 12 13  1  0
 13 14  2  0
 14 15  1  0
 15 16  2  0
 16 17  1  0
 17 18  1  0
 17 19  2  0
  2 20  1  0
 20 21  2  0
 21 22  1  0
 22 23  2  0
 23 24  1  0
 24 25  2  0
 25 26  1  0
 25 27  1  0
 27 28  2  0
 28 29  1  0
 29 30  2  0
 12  7  1  0
 19 13  1  0
 30 20  1  0
 29 23  1  0
  3 31  1  0
  4 32  1  0
  4 33  1  0
  8 34  1  0
  8 35  1  0
  9 36  1  0
  9 37  1  0
 10 38  1  0
 10 39  1  0
 11 40  1  0
 11 41  1  0
 12 42  1  6
 14 43  1  0
 15 44  1  0
 16 45  1  0
 18 46  1  0
 19 47  1  0
 21 48  1  0
 22 49  1  0
 24 50  1  0
 27 51  1  0
 28 52  1  0
M  END
>  <smiles>  (37) 
O=C(NCC(=O)N1CCCCC1c1cccc(O)c1)c1ccc2cc(F)ccc2n1

>  <score_type>  (37) 
oracle

>  <origin>  (37) 
autodockgpu

>  <m_score__min__energy>  (37) 
-8.9600000000000009

>  <m_primary>  (37) 
energy

>  <rmsd>  (37) 
1.9214456957479615

>  <m_score__min__rmsd>  (37) 
1.9214456957479615

>  <meeko>  (37) 
{"free_energy": -8.46, "intermolecular_energy": -10.25, "internal_energy": -1.6, "cluster_size": 14, "cluster_id": 2, "rank_in_cluster": 8}

>  <energy>  (37) 
-8.81

>  <cluster_rmsd>  (37) 
0.0

>  <cluster>  (37) 
4

$$$$

     RDKit          3D

 52 55  0  0  0  0  0  0  0  0999 V2000
  139.7080   71.0860  221.1360 O   0  0  0  0  0  0  0  0  0  0  0  0
  139.5740   71.5810  222.2870 C   0  0  0  0  0  0  0  0  0  0  0  0
  139.2880   72.9750  222.4340 N   0  0  0  0  0  0  0  0  0  0  0  0
  139.1440   73.8580  221.2830 C   0  0  0  0  0  0  0  0  0  0  0  0
  140.1790   74.9320  221.3150 C   0  0  0  0  0  0  0  0  0  0  0  0
  140.3860   75.6230  222.3470 O   0  0  0  0  0  0  0  0  0  0  0  0
  140.9700   75.1930  220.1340 N   0  0  0  0  0  0  0  0  0  0  0  0
  140.2610   75.1000  218.8810 C   0  0  0  0  0  0  0  0  0  0  0  0
  140.9960   75.8460  217.8320 C   0  0  0  0  0  0  0  0  0  0  0  0
  141.7290   77.0330  218.3910 C   0  0  0  0  0  0  0  0  0  0  0  0
  142.8060   76.6290  219.3660 C   0  0  0  0  0  0  0  0  0  0  0  0
  142.3720   75.5140  220.2750 C   0  0  2  0  0  0  0  0  0  0  0  0
  143.2620   74.3250  220.2360 C   0  0  0  0  0  0  0  0  0  0  0  0
  142.8760   73.0770  220.6800 C   0  0  0  0  0  0  0  0  0  0  0  0
  143.7000   71.9700  220.6430 C   0  0  0  0  0  0  0  0  0  0  0  0
  144.9810   72.0750  220.1440 C   0  0  0  0  0  0  0  0  0  0  0  0
  145.4010   73.3080  219.6910 C   0  0  0  0  0  0  0  0  0  0  0  0
  146.6830   73.4330  219.1880 O   0  0  0  0  0  0  0  0  0  0  0  0
  144.5670   74.4040  219.7340 C   0  0  0  0  0  0  0  0  0  0  0  0
  139.6950   70.7970  223.5110 C   0  0  0  0  0  0  0  0  0  0  0  0
  139.1840   69.5070  223.4850 C   0  0  0  0  0  0  0  0  0  0  0  0
  139.2660   68.7090  224.6120 C   0  0  0  0  0  0  0  0  0  0  0  0
  139.8580   69.2110  225.7530 C   0  0  0  0  0  0  0  0  0  0  0  0
  139.9400   68.4210  226.8720 C   0  0  0  0  0  0  0  0  0  0  0  0
  140.5400   68.9460  228.0100 C   0  0  0  0  0  0  0  0  0  0  0  0
  140.6380   68.2010  229.1220 F   0  0  0  0  0  0  0  0  0  0  0  0
  141.0380   70.2480  227.9870 C   0  0  0  0  0  0  0  0  0  0  0  0
  140.9530   71.0390  226.8590 C   0  0  0  0  0  0  0  0  0  0  0  0
  140.3540   70.5100  225.7280 C   0  0  0  0  0  0  0  0  0  0  0  0
  140.2680   71.2710  224.6310 N   0  0  0  0  0  0  0  0  0  0  0  0
  139.1760   73.3850  223.3980 H   0  0  0  0  0  0  0  0  0  0  0  0
  139.2599   73.2711  220.3599 H   0  0  0  0  0  0  0  0  0  0  0  0
  138.1477   74.3233  221.3143 H   0  0  0  0  0  0  0  0  0  0  0  0
  140.1766   74.0435  218.5866 H   0  0  0  0  0  0  0  0  0  0  0  0
  139.2567   75.5331  218.9988 H   0  0  0  0  0  0  0  0  0  0  0  0
  141.7239   75.1698  217.3599 H   0  0  0  0  0  0  0  0  0  0  0  0
  140.2615   76.2149  217.1010 H   0  0  0  0  0  0  0  0  0  0  0  0
  142.1920   77.5867  217.5609 H   0  0  0  0  0  0  0  0  0  0  0  0
  141.0010   77.6564  218.9308 H   0  0  0  0  0  0  0  0  0  0  0  0
  143.6888   76.2983  218.7991 H   0  0  0  0  0  0  0  0  0  0  0  0
  143.0323   77.5030  219.9944 H   0  0  0  0  0  0  0  0  0  0  0  0
  142.4872   75.9068  221.2960 H   0  0  0  0  0  0  0  0  0  0  0  0
  141.8599   72.9580  221.0841 H   0  0  0  0  0  0  0  0  0  0  0  0
  143.3334   71.0011  221.0128 H   0  0  0  0  0  0  0  0  0  0  0  0
  145.6482   71.2012  220.1083 H   0  0  0  0  0  0  0  0  0  0  0  0
  147.0730   74.3580  218.9950 H   0  0  0  0  0  0  0  0  0  0  0  0
  144.9377   75.3708  219.3626 H   0  0  0  0  0  0  0  0  0  0  0  0
  138.7142   69.1194  222.5690 H   0  0  0  0  0  0  0  0  0  0  0  0
  138.8637   67.6853  224.5988 H   0  0  0  0  0  0  0  0  0  0  0  0
  139.5402   67.3962  226.8682 H   0  0  0  0  0  0  0  0  0  0  0  0
  141.5114   70.6559  228.8922 H   0  0  0  0  0  0  0  0  0  0  0  0
  141.3513   72.0644  226.8585 H   0  0  0  0  0  0  0  0  0  0  0  0
  1  2  2  0
  2  3  1  0
  3  4  1  0
  4  5  1  0
  5  6  2  0
  5  7  1  0
  7  8  1  0
  8  9  1  0
  9 10  1  0
 10 11  1  0
 11 12  1  0
 12 13  1  0
 13 14  2  0
 14 15  1  0
 15 16  2  0
 16 17  1  0
 17 18  1  0
 17 19  2  0
  2 20  1  0
 20 21  2  0
 21 22  1  0
 22 23  2  0
 23 24  1  0
 24 25  2  0
 25 26  1  0
 25 27  1  0
 27 28  2  0
 28 29  1  0
 29 30  2  0
 12  7  1  0
 19 13  1  0
 30 20  1  0
 29 23  1  0
  3 31  1  0
  4 32  1  0
  4 33  1  0
  8 34  1  0
  8 35  1  0
  9 36  1  0
  9 37  1  0
 10 38  1  0
 10 39  1  0
 11 40  1  0
 11 41  1  0
 12 42  1  1
 14 43  1  0
 15 44  1  0
 16 45  1  0
 18 46  1  0
 19 47  1  0
 21 48  1  0
 22 49  1  0
 24 50  1  0
 27 51  1  0
 28 52  1  0
M  END
>  <smiles>  (38) 
O=C(NCC(=O)N1CCCCC1c1cccc(O)c1)c1ccc2cc(F)ccc2n1

>  <score_type>  (38) 
oracle

>  <origin>  (38) 
autodockgpu

>  <m_score__min__energy>  (38) 
-8.9600000000000009

>  <m_primary>  (38) 
energy

>  <rmsd>  (38) 
1.4078194928205399

>  <m_score__min__rmsd>  (38) 
1.4078194928205399

>  <meeko>  (38) 
{"free_energy": -8.88, "intermolecular_energy": -10.67, "internal_energy": -1.78, "cluster_size": 17, "cluster_id": 1, "rank_in_cluster": 6}

>  <energy>  (38) 
-8.77

>  <cluster_rmsd>  (38) 
0.19

>  <cluster>  (38) 
4

$$$$

     RDKit          3D

 52 55  0  0  0  0  0  0  0  0999 V2000
  141.3560   72.6070  221.5750 O   0  0  0  0  0  0  0  0  0  0  0  0
  140.4190   72.6600  222.4160 C   0  0  0  0  0  0  0  0  0  0  0  0
  139.4570   73.7170  222.3440 N   0  0  0  0  0  0  0  0  0  0  0  0
  139.5220   74.7500  221.3190 C   0  0  0  0  0  0  0  0  0  0  0  0
  138.8190   75.9850  221.7750 C   0  0  0  0  0  0  0  0  0  0  0  0
  137.6150   75.9660  222.1400 O   0  0  0  0  0  0  0  0  0  0  0  0
  139.5330   77.2410  221.8000 N   0  0  0  0  0  0  0  0  0  0  0  0
  138.7140   78.4230  221.6830 C   0  0  0  0  0  0  0  0  0  0  0  0
  139.4480   79.5970  222.2070 C   0  0  0  0  0  0  0  0  0  0  0  0
  140.3790   79.2280  223.3280 C   0  0  0  0  0  0  0  0  0  0  0  0
  141.4720   78.2930  222.8760 C   0  0  0  0  0  0  0  0  0  0  0  0
  140.9720   77.2370  221.9320 C   0  0  2  0  0  0  0  0  0  0  0  0
  141.6900   77.2060  220.6310 C   0  0  0  0  0  0  0  0  0  0  0  0
  142.2610   76.0630  220.1090 C   0  0  0  0  0  0  0  0  0  0  0  0
  142.9260   76.0300  218.9000 C   0  0  0  0  0  0  0  0  0  0  0  0
  143.0470   77.1770  218.1440 C   0  0  0  0  0  0  0  0  0  0  0  0
  142.4880   78.3380  218.6340 C   0  0  0  0  0  0  0  0  0  0  0  0
  142.6000   79.4980  217.8900 O   0  0  0  0  0  0  0  0  0  0  0  0
  141.8270   78.3550  219.8430 C   0  0  0  0  0  0  0  0  0  0  0  0
  140.2510   71.6830  223.4860 C   0  0  0  0  0  0  0  0  0  0  0  0
  139.6180   70.4920  223.1570 C   0  0  0  0  0  0  0  0  0  0  0  0
  139.4270   69.5220  224.1240 C   0  0  0  0  0  0  0  0  0  0  0  0
  139.8690   69.7540  225.4090 C   0  0  0  0  0  0  0  0  0  0  0  0
  139.6790   68.7930  226.3700 C   0  0  0  0  0  0  0  0  0  0  0  0
  140.1330   69.0470  227.6590 C   0  0  0  0  0  0  0  0  0  0  0  0
  139.9650   68.1290  228.6240 F   0  0  0  0  0  0  0  0  0  0  0  0
  140.7620   70.2590  227.9410 C   0  0  0  0  0  0  0  0  0  0  0  0
  140.9500   71.2230  226.9710 C   0  0  0  0  0  0  0  0  0  0  0  0
  140.4970   70.9630  225.6890 C   0  0  0  0  0  0  0  0  0  0  0  0
  140.6760   71.8940  224.7430 N   0  0  0  0  0  0  0  0  0  0  0  0
  138.6740   73.7580  223.0490 H   0  0  0  0  0  0  0  0  0  0  0  0
  140.5757   74.9888  221.1123 H   0  0  0  0  0  0  0  0  0  0  0  0
  139.0313   74.3777  220.4076 H   0  0  0  0  0  0  0  0  0  0  0  0
  138.4647   78.5910  220.6249 H   0  0  0  0  0  0  0  0  0  0  0  0
  137.7907   78.2835  222.2644 H   0  0  0  0  0  0  0  0  0  0  0  0
  140.0353   80.0416  221.3901 H   0  0  0  0  0  0  0  0  0  0  0  0
  138.7090   80.3100  222.6014 H   0  0  0  0  0  0  0  0  0  0  0  0
  140.8389   80.1458  223.7232 H   0  0  0  0  0  0  0  0  0  0  0  0
  139.7900   78.7110  224.0999 H   0  0  0  0  0  0  0  0  0  0  0  0
  142.2508   78.8804  222.3677 H   0  0  0  0  0  0  0  0  0  0  0  0
  141.8665   77.7842  223.7679 H   0  0  0  0  0  0  0  0  0  0  0  0
  141.2241   76.2770  222.4061 H   0  0  0  0  0  0  0  0  0  0  0  0
  142.1820   75.1301  220.6864 H   0  0  0  0  0  0  0  0  0  0  0  0
  143.3606   75.0863  218.5385 H   0  0  0  0  0  0  0  0  0  0  0  0
  143.5740   77.1659  217.1785 H   0  0  0  0  0  0  0  0  0  0  0  0
  143.4110   79.6460  217.2850 H   0  0  0  0  0  0  0  0  0  0  0  0
  141.3935   79.3008  220.2001 H   0  0  0  0  0  0  0  0  0  0  0  0
  139.2687   70.3201  222.1282 H   0  0  0  0  0  0  0  0  0  0  0  0
  138.9276   68.5752  223.8705 H   0  0  0  0  0  0  0  0  0  0  0  0
  139.1792   67.8440  226.1260 H   0  0  0  0  0  0  0  0  0  0  0  0
  141.1179   70.4522  228.9637 H   0  0  0  0  0  0  0  0  0  0  0  0
  141.4475   72.1743  227.2108 H   0  0  0  0  0  0  0  0  0  0  0  0
  1  2  2  0
  2  3  1  0
  3  4  1  0
  4  5  1  0
  5  6  2  0
  5  7  1  0
  7  8  1  0
  8  9  1  0
  9 10  1  0
 10 11  1  0
 11 12  1  0
 12 13  1  0
 13 14  2  0
 14 15  1  0
 15 16  2  0
 16 17  1  0
 17 18  1  0
 17 19  2  0
  2 20  1  0
 20 21  2  0
 21 22  1  0
 22 23  2  0
 23 24  1  0
 24 25  2  0
 25 26  1  0
 25 27  1  0
 27 28  2  0
 28 29  1  0
 29 30  2  0
 12  7  1  0
 19 13  1  0
 30 20  1  0
 29 23  1  0
  3 31  1  0
  4 32  1  0
  4 33  1  0
  8 34  1  0
  8 35  1  0
  9 36  1  0
  9 37  1  0
 10 38  1  0
 10 39  1  0
 11 40  1  0
 11 41  1  0
 12 42  1  1
 14 43  1  0
 15 44  1  0
 16 45  1  0
 18 46  1  0
 19 47  1  0
 21 48  1  0
 22 49  1  0
 24 50  1  0
 27 51  1  0
 28 52  1  0
M  END
>  <smiles>  (39) 
O=C(NCC(=O)N1CCCCC1c1cccc(O)c1)c1ccc2cc(F)ccc2n1

>  <score_type>  (39) 
oracle

>  <origin>  (39) 
autodockgpu

>  <m_score__min__energy>  (39) 
-8.9600000000000009

>  <m_primary>  (39) 
energy

>  <rmsd>  (39) 
3.0749940755053675

>  <m_score__min__rmsd>  (39) 
3.0749940755053675

>  <meeko>  (39) 
{"free_energy": -8.83, "intermolecular_energy": -10.62, "internal_energy": -1.52, "cluster_size": 5, "cluster_id": 3, "rank_in_cluster": 1}

>  <energy>  (39) 
-8.66

>  <cluster_rmsd>  (39) 
1.28

>  <cluster>  (39) 
4

$$$$

     RDKit          3D

 52 55  0  0  0  0  0  0  0  0999 V2000
  141.1000   73.8790  220.4350 O   0  0  0  0  0  0  0  0  0  0  0  0
  140.5340   74.6670  221.2400 C   0  0  0  0  0  0  0  0  0  0  0  0
  139.4570   74.1980  222.0560 N   0  0  0  0  0  0  0  0  0  0  0  0
  138.9820   72.8220  221.9910 C   0  0  0  0  0  0  0  0  0  0  0  0
  139.6810   71.9780  223.0040 C   0  0  0  0  0  0  0  0  0  0  0  0
  140.9140   72.1000  223.2320 O   0  0  0  0  0  0  0  0  0  0  0  0
  138.9310   70.9920  223.7480 N   0  0  0  0  0  0  0  0  0  0  0  0
  137.5180   71.2550  223.8740 C   0  0  0  0  0  0  0  0  0  0  0  0
  136.8010   69.9980  224.1920 C   0  0  0  0  0  0  0  0  0  0  0  0
  137.4640   68.7970  223.5780 C   0  0  0  0  0  0  0  0  0  0  0  0
  138.8500   68.5700  224.1290 C   0  0  0  0  0  0  0  0  0  0  0  0
  139.6180   69.8490  224.3030 C   0  0  2  0  0  0  0  0  0  0  0  0
  140.1160   70.0670  225.6860 C   0  0  0  0  0  0  0  0  0  0  0  0
  140.4820   71.3060  226.1710 C   0  0  0  0  0  0  0  0  0  0  0  0
  140.9430   71.5120  227.4560 C   0  0  0  0  0  0  0  0  0  0  0  0
  141.0580   70.4520  228.3300 C   0  0  0  0  0  0  0  0  0  0  0  0
  140.7010   69.1990  227.8800 C   0  0  0  0  0  0  0  0  0  0  0  0
  140.8110   68.1240  228.7420 O   0  0  0  0  0  0  0  0  0  0  0  0
  140.2430   69.0090  226.5940 C   0  0  0  0  0  0  0  0  0  0  0  0
  140.9220   76.0650  221.3930 C   0  0  0  0  0  0  0  0  0  0  0  0
  141.5810   76.6560  220.3230 C   0  0  0  0  0  0  0  0  0  0  0  0
  141.9760   77.9780  220.4020 C   0  0  0  0  0  0  0  0  0  0  0  0
  141.7100   78.6960  221.5490 C   0  0  0  0  0  0  0  0  0  0  0  0
  142.1020   80.0080  221.6280 C   0  0  0  0  0  0  0  0  0  0  0  0
  141.8230   80.7130  222.7940 C   0  0  0  0  0  0  0  0  0  0  0  0
  142.1920   81.9980  222.9060 F   0  0  0  0  0  0  0  0  0  0  0  0
  141.1600   80.0750  223.8420 C   0  0  0  0  0  0  0  0  0  0  0  0
  140.7670   78.7550  223.7560 C   0  0  0  0  0  0  0  0  0  0  0  0
  141.0480   78.0580  222.5930 C   0  0  0  0  0  0  0  0  0  0  0  0
  140.6700   76.7770  222.5040 N   0  0  0  0  0  0  0  0  0  0  0  0
  138.9870   74.8600  222.7280 H   0  0  0  0  0  0  0  0  0  0  0  0
  137.9001   72.8031  222.1888 H   0  0  0  0  0  0  0  0  0  0  0  0
  139.1919   72.4207  220.9885 H   0  0  0  0  0  0  0  0  0  0  0  0
  137.3526   71.9841  224.6808 H   0  0  0  0  0  0  0  0  0  0  0  0
  137.1376   71.6605  222.9249 H   0  0  0  0  0  0  0  0  0  0  0  0
  136.7771   69.8701  225.2843 H   0  0  0  0  0  0  0  0  0  0  0  0
  135.7854   70.0733  223.7762 H   0  0  0  0  0  0  0  0  0  0  0  0
  136.8500   67.9082  223.7853 H   0  0  0  0  0  0  0  0  0  0  0  0
  137.5547   68.9762  222.4965 H   0  0  0  0  0  0  0  0  0  0  0  0
  138.7636   68.0748  225.1074 H   0  0  0  0  0  0  0  0  0  0  0  0
  139.3983   67.9473  223.4067 H   0  0  0  0  0  0  0  0  0  0  0  0
  140.5302   69.7280  223.7003 H   0  0  0  0  0  0  0  0  0  0  0  0
  140.4024   72.1737  225.4996 H   0  0  0  0  0  0  0  0  0  0  0  0
  141.2194   72.5251  227.7835 H   0  0  0  0  0  0  0  0  0  0  0  0
  141.4240   70.6018  229.3565 H   0  0  0  0  0  0  0  0  0  0  0  0
  140.6490   67.1730  228.4040 H   0  0  0  0  0  0  0  0  0  0  0  0
  139.9686   67.9940  226.2709 H   0  0  0  0  0  0  0  0  0  0  0  0
  141.7883   76.0727  219.4137 H   0  0  0  0  0  0  0  0  0  0  0  0
  142.4976   78.4530  219.5580 H   0  0  0  0  0  0  0  0  0  0  0  0
  142.6246   80.4911  220.7892 H   0  0  0  0  0  0  0  0  0  0  0  0
  140.9446   80.6389  224.7615 H   0  0  0  0  0  0  0  0  0  0  0  0
  140.2429   78.2680  224.5916 H   0  0  0  0  0  0  0  0  0  0  0  0
  1  2  2  0
  2  3  1  0
  3  4  1  0
  4  5  1  0
  5  6  2  0
  5  7  1  0
  7  8  1  0
  8  9  1  0
  9 10  1  0
 10 11  1  0
 11 12  1  0
 12 13  1  0
 13 14  2  0
 14 15  1  0
 15 16  2  0
 16 17  1  0
 17 18  1  0
 17 19  2  0
  2 20  1  0
 20 21  2  0
 21 22  1  0
 22 23  2  0
 23 24  1  0
 24 25  2  0
 25 26  1  0
 25 27  1  0
 27 28  2  0
 28 29  1  0
 29 30  2  0
 12  7  1  0
 19 13  1  0
 30 20  1  0
 29 23  1  0
  3 31  1  0
  4 32  1  0
  4 33  1  0
  8 34  1  0
  8 35  1  0
  9 36  1  0
  9 37  1  0
 10 38  1  0
 10 39  1  0
 11 40  1  0
 11 41  1  0
 12 42  1  6
 14 43  1  0
 15 44  1  0
 16 45  1  0
 18 46  1  0
 19 47  1  0
 21 48  1  0
 22 49  1  0
 24 50  1  0
 27 51  1  0
 28 52  1  0
M  END
>  <smiles>  (40) 
O=C(NCC(=O)N1CCCCC1c1cccc(O)c1)c1ccc2cc(F)ccc2n1

>  <score_type>  (40) 
oracle

>  <origin>  (40) 
autodockgpu

>  <m_score__min__energy>  (40) 
-8.9600000000000009

>  <m_primary>  (40) 
energy

>  <rmsd>  (40) 
8.66458073720523

>  <m_score__min__rmsd>  (40) 
8.66458073720523

>  <meeko>  (40) 
{"free_energy": -8.81, "intermolecular_energy": -10.6, "internal_energy": -1.48, "cluster_size": 10, "cluster_id": 4, "rank_in_cluster": 1}

>  <energy>  (40) 
-8.42

>  <cluster_rmsd>  (40) 
1.89

>  <cluster>  (40) 
4

$$$$

     RDKit          3D

 52 55  0  0  0  0  0  0  0  0999 V2000
  140.5840   71.7700  221.0720 O   0  0  0  0  0  0  0  0  0  0  0  0
  140.0460   72.1670  222.1410 C   0  0  0  0  0  0  0  0  0  0  0  0
  139.3870   73.4370  222.1770 N   0  0  0  0  0  0  0  0  0  0  0  0
  139.3140   74.3010  221.0060 C   0  0  0  0  0  0  0  0  0  0  0  0
  140.4080   75.3150  221.0350 C   0  0  0  0  0  0  0  0  0  0  0  0
  140.5920   76.0650  222.0290 O   0  0  0  0  0  0  0  0  0  0  0  0
  141.2860   75.4460  219.8940 N   0  0  0  0  0  0  0  0  0  0  0  0
  140.6660   75.2400  218.6080 C   0  0  0  0  0  0  0  0  0  0  0  0
  141.4880   75.8680  217.5480 C   0  0  0  0  0  0  0  0  0  0  0  0
  142.2060   77.0940  218.0390 C   0  0  0  0  0  0  0  0  0  0  0  0
  143.2020   76.7720  219.1250 C   0  0  0  0  0  0  0  0  0  0  0  0
  142.6810   75.7590  220.1040 C   0  0  2  0  0  0  0  0  0  0  0  0
  143.5460   74.5600  220.2460 C   0  0  0  0  0  0  0  0  0  0  0  0
  144.9100   74.6300  220.4490 C   0  0  0  0  0  0  0  0  0  0  0  0
  145.7160   73.5180  220.5840 C   0  0  0  0  0  0  0  0  0  0  0  0
  145.1700   72.2540  220.5180 C   0  0  0  0  0  0  0  0  0  0  0  0
  143.8100   72.1450  220.3150 C   0  0  0  0  0  0  0  0  0  0  0  0
  143.2450   70.8850  220.2450 O   0  0  0  0  0  0  0  0  0  0  0  0
  143.0180   73.2640  220.1830 C   0  0  0  0  0  0  0  0  0  0  0  0
  140.0550   71.3900  223.3750 C   0  0  0  0  0  0  0  0  0  0  0  0
  139.5560   70.0970  223.3080 C   0  0  0  0  0  0  0  0  0  0  0  0
  139.5350   69.3050  224.4420 C   0  0  0  0  0  0  0  0  0  0  0  0
  140.0130   69.8150  225.6300 C   0  0  0  0  0  0  0  0  0  0  0  0
  139.9930   69.0310  226.7560 C   0  0  0  0  0  0  0  0  0  0  0  0
  140.4800   69.5650  227.9430 C   0  0  0  0  0  0  0  0  0  0  0  0
  140.4760   68.8270  229.0640 F   0  0  0  0  0  0  0  0  0  0  0  0
  140.9710   70.8700  227.9610 C   0  0  0  0  0  0  0  0  0  0  0  0
  140.9890   71.6550  226.8260 C   0  0  0  0  0  0  0  0  0  0  0  0
  140.5030   71.1170  225.6460 C   0  0  0  0  0  0  0  0  0  0  0  0
  140.5170   71.8730  224.5410 N   0  0  0  0  0  0  0  0  0  0  0  0
  138.9390   73.7660  223.0730 H   0  0  0  0  0  0  0  0  0  0  0  0
  139.4123   73.6885  220.0976 H   0  0  0  0  0  0  0  0  0  0  0  0
  138.3456   74.8227  221.0090 H   0  0  0  0  0  0  0  0  0  0  0  0
  140.5805   74.1609  218.4125 H   0  0  0  0  0  0  0  0  0  0  0  0
  139.6654   75.6969  218.6100 H   0  0  0  0  0  0  0  0  0  0  0  0
  142.2324   75.1379  217.1975 H   0  0  0  0  0  0  0  0  0  0  0  0
  140.8141   76.1740  216.7343 H   0  0  0  0  0  0  0  0  0  0  0  0
  142.7390   77.5549  217.1943 H   0  0  0  0  0  0  0  0  0  0  0  0
  141.4560   77.7797  218.4600 H   0  0  0  0  0  0  0  0  0  0  0  0
  144.1154   76.3741  218.6588 H   0  0  0  0  0  0  0  0  0  0  0  0
  143.4015   77.7004  219.6803 H   0  0  0  0  0  0  0  0  0  0  0  0
  142.7316   76.2489  221.0876 H   0  0  0  0  0  0  0  0  0  0  0  0
  145.3784   75.6236  220.5061 H   0  0  0  0  0  0  0  0  0  0  0  0
  146.7973   73.6406  220.7447 H   0  0  0  0  0  0  0  0  0  0  0  0
  145.8002   71.3587  220.6241 H   0  0  0  0  0  0  0  0  0  0  0  0
  142.2340   70.7780  220.1350 H   0  0  0  0  0  0  0  0  0  0  0  0
  141.9372   73.1361  220.0231 H   0  0  0  0  0  0  0  0  0  0  0  0
  139.1774   69.7020  222.3538 H   0  0  0  0  0  0  0  0  0  0  0  0
  139.1410   68.2790  224.3961 H   0  0  0  0  0  0  0  0  0  0  0  0
  139.6007   68.0040  226.7199 H   0  0  0  0  0  0  0  0  0  0  0  0
  141.3542   71.2848  228.9050 H   0  0  0  0  0  0  0  0  0  0  0  0
  141.3798   72.6828  226.8578 H   0  0  0  0  0  0  0  0  0  0  0  0
  1  2  2  0
  2  3  1  0
  3  4  1  0
  4  5  1  0
  5  6  2  0
  5  7  1  0
  7  8  1  0
  8  9  1  0
  9 10  1  0
 10 11  1  0
 11 12  1  0
 12 13  1  0
 13 14  2  0
 14 15  1  0
 15 16  2  0
 16 17  1  0
 17 18  1  0
 17 19  2  0
  2 20  1  0
 20 21  2  0
 21 22  1  0
 22 23  2  0
 23 24  1  0
 24 25  2  0
 25 26  1  0
 25 27  1  0
 27 28  2  0
 28 29  1  0
 29 30  2  0
 12  7  1  0
 19 13  1  0
 30 20  1  0
 29 23  1  0
  3 31  1  0
  4 32  1  0
  4 33  1  0
  8 34  1  0
  8 35  1  0
  9 36  1  0
  9 37  1  0
 10 38  1  0
 10 39  1  0
 11 40  1  0
 11 41  1  0
 12 42  1  1
 14 43  1  0
 15 44  1  0
 16 45  1  0
 18 46  1  0
 19 47  1  0
 21 48  1  0
 22 49  1  0
 24 50  1  0
 27 51  1  0
 28 52  1  0
M  END
>  <smiles>  (41) 
O=C(NCC(=O)N1CCCCC1c1cccc(O)c1)c1ccc2cc(F)ccc2n1

>  <score_type>  (41) 
oracle

>  <origin>  (41) 
autodockgpu

>  <m_score__min__energy>  (41) 
-8.9600000000000009

>  <m_primary>  (41) 
energy

>  <rmsd>  (41) 
1.6285280419927257

>  <m_score__min__rmsd>  (41) 
1.6285280419927257

>  <meeko>  (41) 
{"free_energy": -7.92, "intermolecular_energy": -9.71, "internal_energy": -2.39, "cluster_size": 17, "cluster_id": 1, "rank_in_cluster": 14}

>  <energy>  (41) 
-8.4

>  <cluster_rmsd>  (41) 
1.35

>  <cluster>  (41) 
4

$$$$

     RDKit          3D

 52 55  0  0  0  0  0  0  0  0999 V2000
  138.4360   71.1720  221.5330 O   0  0  0  0  0  0  0  0  0  0  0  0
  139.0300   71.6200  222.5510 C   0  0  0  0  0  0  0  0  0  0  0  0
  139.4450   72.9880  222.5880 N   0  0  0  0  0  0  0  0  0  0  0  0
  139.2040   73.8980  221.4750 C   0  0  0  0  0  0  0  0  0  0  0  0
  139.7770   75.2440  221.7660 C   0  0  0  0  0  0  0  0  0  0  0  0
  140.8950   75.3820  222.3300 O   0  0  0  0  0  0  0  0  0  0  0  0
  139.0360   76.4280  221.3930 N   0  0  0  0  0  0  0  0  0  0  0  0
  138.8900   76.6470  219.9750 C   0  0  0  0  0  0  0  0  0  0  0  0
  137.7440   77.5510  219.7230 C   0  0  0  0  0  0  0  0  0  0  0  0
  136.6560   77.3870  220.7470 C   0  0  0  0  0  0  0  0  0  0  0  0
  137.1170   77.7680  222.1320 C   0  0  0  0  0  0  0  0  0  0  0  0
  138.5100   77.2910  222.4270 C   0  0  2  0  0  0  0  0  0  0  0  0
  139.4440   78.3740  222.8310 C   0  0  0  0  0  0  0  0  0  0  0  0
  139.0300   79.5370  223.4480 C   0  0  0  0  0  0  0  0  0  0  0  0
  139.8950   80.5440  223.8270 C   0  0  0  0  0  0  0  0  0  0  0  0
  141.2480   80.4210  223.5940 C   0  0  0  0  0  0  0  0  0  0  0  0
  141.6970   79.2710  222.9790 C   0  0  0  0  0  0  0  0  0  0  0  0
  143.0510   79.1300  222.7370 O   0  0  0  0  0  0  0  0  0  0  0  0
  140.8220   78.2750  222.6070 C   0  0  0  0  0  0  0  0  0  0  0  0
  139.3270   70.8050  223.7240 C   0  0  0  0  0  0  0  0  0  0  0  0
  138.9550   69.4690  223.6720 C   0  0  0  0  0  0  0  0  0  0  0  0
  139.2070   68.6400  224.7510 C   0  0  0  0  0  0  0  0  0  0  0  0
  139.8270   69.1570  225.8690 C   0  0  0  0  0  0  0  0  0  0  0  0
  140.0760   68.3360  226.9400 C   0  0  0  0  0  0  0  0  0  0  0  0
  140.7020   68.8780  228.0570 C   0  0  0  0  0  0  0  0  0  0  0  0
  140.9620   68.1040  229.1220 F   0  0  0  0  0  0  0  0  0  0  0  0
  141.0560   70.2270  228.0620 C   0  0  0  0  0  0  0  0  0  0  0  0
  140.8020   71.0480  226.9820 C   0  0  0  0  0  0  0  0  0  0  0  0
  140.1790   70.5030  225.8720 C   0  0  0  0  0  0  0  0  0  0  0  0
  139.9290   71.2940  224.8210 N   0  0  0  0  0  0  0  0  0  0  0  0
  139.9420   73.3590  223.4410 H   0  0  0  0  0  0  0  0  0  0  0  0
  139.6754   73.4926  220.5676 H   0  0  0  0  0  0  0  0  0  0  0  0
  138.1187   73.9983  221.3267 H   0  0  0  0  0  0  0  0  0  0  0  0
  139.8093   77.1035  219.5793 H   0  0  0  0  0  0  0  0  0  0  0  0
  138.7100   75.6838  219.4751 H   0  0  0  0  0  0  0  0  0  0  0  0
  138.1009   78.5912  219.7488 H   0  0  0  0  0  0  0  0  0  0  0  0
  137.3230   77.2966  218.7391 H   0  0  0  0  0  0  0  0  0  0  0  0
  135.8065   78.0275  220.4674 H   0  0  0  0  0  0  0  0  0  0  0  0
  136.3669   76.3259  220.7665 H   0  0  0  0  0  0  0  0  0  0  0  0
  137.0931   78.8640  222.2225 H   0  0  0  0  0  0  0  0  0  0  0  0
  136.4398   77.2872  222.8533 H   0  0  0  0  0  0  0  0  0  0  0  0
  138.4193   76.6607  223.3240 H   0  0  0  0  0  0  0  0  0  0  0  0
  137.9563   79.6683  223.6479 H   0  0  0  0  0  0  0  0  0  0  0  0
  139.5031   81.4477  224.3166 H   0  0  0  0  0  0  0  0  0  0  0  0
  141.9484   81.2160  223.8896 H   0  0  0  0  0  0  0  0  0  0  0  0
  143.3820   78.4800  222.0200 H   0  0  0  0  0  0  0  0  0  0  0  0
  141.2186   77.3729  222.1182 H   0  0  0  0  0  0  0  0  0  0  0  0
  138.4605   69.0696  222.7743 H   0  0  0  0  0  0  0  0  0  0  0  0
  138.9158   67.5798  224.7172 H   0  0  0  0  0  0  0  0  0  0  0  0
  139.7874   67.2748  226.9154 H   0  0  0  0  0  0  0  0  0  0  0  0
  141.5506   70.6477  228.9499 H   0  0  0  0  0  0  0  0  0  0  0  0
  141.0877   72.1100  227.0026 H   0  0  0  0  0  0  0  0  0  0  0  0
  1  2  2  0
  2  3  1  0
  3  4  1  0
  4  5  1  0
  5  6  2  0
  5  7  1  0
  7  8  1  0
  8  9  1  0
  9 10  1  0
 10 11  1  0
 11 12  1  0
 12 13  1  0
 13 14  2  0
 14 15  1  0
 15 16  2  0
 16 17  1  0
 17 18  1  0
 17 19  2  0
  2 20  1  0
 20 21  2  0
 21 22  1  0
 22 23  2  0
 23 24  1  0
 24 25  2  0
 25 26  1  0
 25 27  1  0
 27 28  2  0
 28 29  1  0
 29 30  2  0
 12  7  1  0
 19 13  1  0
 30 20  1  0
 29 23  1  0
  3 31  1  0
  4 32  1  0
  4 33  1  0
  8 34  1  0
  8 35  1  0
  9 36  1  0
  9 37  1  0
 10 38  1  0
 10 39  1  0
 11 40  1  0
 11 41  1  0
 12 42  1  1
 14 43  1  0
 15 44  1  0
 16 45  1  0
 18 46  1  0
 19 47  1  0
 21 48  1  0
 22 49  1  0
 24 50  1  0
 27 51  1  0
 28 52  1  0
M  END
>  <smiles>  (42) 
O=C(NCC(=O)N1CCCCC1c1cccc(O)c1)c1ccc2cc(F)ccc2n1

>  <score_type>  (42) 
oracle

>  <origin>  (42) 
autodockgpu

>  <m_score__min__energy>  (42) 
-8.9600000000000009

>  <m_primary>  (42) 
energy

>  <rmsd>  (42) 
2.5788754122327298

>  <m_score__min__rmsd>  (42) 
2.5788754122327298

>  <meeko>  (42) 
{"free_energy": -8.23, "intermolecular_energy": -10.02, "internal_energy": -1.71, "cluster_size": 14, "cluster_id": 2, "rank_in_cluster": 13}

>  <energy>  (42) 
-8.39

>  <cluster_rmsd>  (42) 
1.38

>  <cluster>  (42) 
4

$$$$

     RDKit          3D

 52 55  0  0  0  0  0  0  0  0999 V2000
  140.0120   71.3660  221.0960 O   0  0  0  0  0  0  0  0  0  0  0  0
  139.8450   71.8660  222.2410 C   0  0  0  0  0  0  0  0  0  0  0  0
  139.6200   73.2720  222.3770 N   0  0  0  0  0  0  0  0  0  0  0  0
  139.5770   74.1620  221.2240 C   0  0  0  0  0  0  0  0  0  0  0  0
  139.7870   75.5770  221.6460 C   0  0  0  0  0  0  0  0  0  0  0  0
  139.0970   76.1080  222.5550 O   0  0  0  0  0  0  0  0  0  0  0  0
  140.8100   76.3670  220.9980 N   0  0  0  0  0  0  0  0  0  0  0  0
  142.0550   75.6850  220.7480 C   0  0  0  0  0  0  0  0  0  0  0  0
  142.8070   76.3870  219.6820 C   0  0  0  0  0  0  0  0  0  0  0  0
  141.8950   77.0370  218.6800 C   0  0  0  0  0  0  0  0  0  0  0  0
  141.0510   78.1230  219.3000 C   0  0  0  0  0  0  0  0  0  0  0  0
  140.5330   77.7450  220.6590 C   0  0  2  0  0  0  0  0  0  0  0  0
  140.8980   78.7070  221.7300 C   0  0  0  0  0  0  0  0  0  0  0  0
  142.2030   79.0290  222.0460 C   0  0  0  0  0  0  0  0  0  0  0  0
  142.5440   79.9250  223.0390 C   0  0  0  0  0  0  0  0  0  0  0  0
  141.5620   80.5520  223.7760 C   0  0  0  0  0  0  0  0  0  0  0  0
  140.2470   80.2540  223.4880 C   0  0  0  0  0  0  0  0  0  0  0  0
  139.2480   80.8720  224.2180 O   0  0  0  0  0  0  0  0  0  0  0  0
  139.9210   79.3580  222.4940 C   0  0  0  0  0  0  0  0  0  0  0  0
  139.8670   71.0760  223.4670 C   0  0  0  0  0  0  0  0  0  0  0  0
  139.3830   69.7780  223.3880 C   0  0  0  0  0  0  0  0  0  0  0  0
  139.3760   68.9740  224.5130 C   0  0  0  0  0  0  0  0  0  0  0  0
  139.8510   69.4780  225.7060 C   0  0  0  0  0  0  0  0  0  0  0  0
  139.8440   68.6820  226.8240 C   0  0  0  0  0  0  0  0  0  0  0  0
  140.3280   69.2110  228.0150 C   0  0  0  0  0  0  0  0  0  0  0  0
  140.3360   68.4610  229.1280 F   0  0  0  0  0  0  0  0  0  0  0  0
  140.8030   70.5210  228.0450 C   0  0  0  0  0  0  0  0  0  0  0  0
  140.8080   71.3170  226.9170 C   0  0  0  0  0  0  0  0  0  0  0  0
  140.3250   70.7860  225.7330 C   0  0  0  0  0  0  0  0  0  0  0  0
  140.3270   71.5530  224.6360 N   0  0  0  0  0  0  0  0  0  0  0  0
  139.4800   73.6870  223.3360 H   0  0  0  0  0  0  0  0  0  0  0  0
  140.3680   73.8747  220.5156 H   0  0  0  0  0  0  0  0  0  0  0  0
  138.5897   74.0768  220.7464 H   0  0  0  0  0  0  0  0  0  0  0  0
  142.6552   75.6712  221.6697 H   0  0  0  0  0  0  0  0  0  0  0  0
  141.8459   74.6541  220.4261 H   0  0  0  0  0  0  0  0  0  0  0  0
  143.4364   77.1621  220.1437 H   0  0  0  0  0  0  0  0  0  0  0  0
  143.4167   75.6413  219.1508 H   0  0  0  0  0  0  0  0  0  0  0  0
  142.5058   77.4771  217.8779 H   0  0  0  0  0  0  0  0  0  0  0  0
  141.2174   76.2642  218.2881 H   0  0  0  0  0  0  0  0  0  0  0  0
  141.6618   79.0328  219.3960 H   0  0  0  0  0  0  0  0  0  0  0  0
  140.1824   78.2858  218.6450 H   0  0  0  0  0  0  0  0  0  0  0  0
  139.4379   77.8203  220.5873 H   0  0  0  0  0  0  0  0  0  0  0  0
  143.0120   78.5470  221.4775 H   0  0  0  0  0  0  0  0  0  0  0  0
  143.6034   80.1396  223.2431 H   0  0  0  0  0  0  0  0  0  0  0  0
  141.8198   81.2684  224.5699 H   0  0  0  0  0  0  0  0  0  0  0  0
  138.3060   80.9590  223.8310 H   0  0  0  0  0  0  0  0  0  0  0  0
  138.8601   79.1471  222.2939 H   0  0  0  0  0  0  0  0  0  0  0  0
  139.0051   69.3888  222.4311 H   0  0  0  0  0  0  0  0  0  0  0  0
  138.9957   67.9434  224.4572 H   0  0  0  0  0  0  0  0  0  0  0  0
  139.4646   67.6505  226.7788 H   0  0  0  0  0  0  0  0  0  0  0  0
  141.1837   70.9313  228.9919 H   0  0  0  0  0  0  0  0  0  0  0  0
  141.1868   72.3489  226.9579 H   0  0  0  0  0  0  0  0  0  0  0  0
  1  2  2  0
  2  3  1  0
  3  4  1  0
  4  5  1  0
  5  6  2  0
  5  7  1  0
  7  8  1  0
  8  9  1  0
  9 10  1  0
 10 11  1  0
 11 12  1  0
 12 13  1  0
 13 14  2  0
 14 15  1  0
 15 16  2  0
 16 17  1  0
 17 18  1  0
 17 19  2  0
  2 20  1  0
 20 21  2  0
 21 22  1  0
 22 23  2  0
 23 24  1  0
 24 25  2  0
 25 26  1  0
 25 27  1  0
 27 28  2  0
 28 29  1  0
 29 30  2  0
 12  7  1  0
 19 13  1  0
 30 20  1  0
 29 23  1  0
  3 31  1  0
  4 32  1  0
  4 33  1  0
  8 34  1  0
  8 35  1  0
  9 36  1  0
  9 37  1  0
 10 38  1  0
 10 39  1  0
 11 40  1  0
 11 41  1  0
 12 42  1  6
 14 43  1  0
 15 44  1  0
 16 45  1  0
 18 46  1  0
 19 47  1  0
 21 48  1  0
 22 49  1  0
 24 50  1  0
 27 51  1  0
 28 52  1  0
M  END
>  <smiles>  (43) 
O=C(NCC(=O)N1CCCCC1c1cccc(O)c1)c1ccc2cc(F)ccc2n1

>  <score_type>  (43) 
oracle

>  <origin>  (43) 
autodockgpu

>  <m_score__min__energy>  (43) 
-8.9600000000000009

>  <m_primary>  (43) 
energy

>  <rmsd>  (43) 
1.9511274801211562

>  <m_score__min__rmsd>  (43) 
1.9511274801211562

>  <meeko>  (43) 
{"free_energy": -8.32, "intermolecular_energy": -10.11, "internal_energy": -1.6, "cluster_size": 14, "cluster_id": 2, "rank_in_cluster": 11}

>  <energy>  (43) 
-8.39

>  <cluster_rmsd>  (43) 
1.92

>  <cluster>  (43) 
4

$$$$

     RDKit          3D

 52 55  0  0  0  0  0  0  0  0999 V2000
  141.2520   73.2360  221.5740 O   0  0  0  0  0  0  0  0  0  0  0  0
  140.2460   73.0890  222.3200 C   0  0  0  0  0  0  0  0  0  0  0  0
  139.2170   74.0820  222.3310 N   0  0  0  0  0  0  0  0  0  0  0  0
  139.2890   75.2770  221.4990 C   0  0  0  0  0  0  0  0  0  0  0  0
  138.8660   76.4800  222.2730 C   0  0  0  0  0  0  0  0  0  0  0  0
  137.8630   76.4610  223.0330 O   0  0  0  0  0  0  0  0  0  0  0  0
  139.6240   77.7050  222.1530 N   0  0  0  0  0  0  0  0  0  0  0  0
  138.8410   78.9100  222.0330 C   0  0  0  0  0  0  0  0  0  0  0  0
  139.6620   80.0830  222.4120 C   0  0  0  0  0  0  0  0  0  0  0  0
  140.6780   79.7450  223.4670 C   0  0  0  0  0  0  0  0  0  0  0  0
  141.6900   78.7390  222.9810 C   0  0  0  0  0  0  0  0  0  0  0  0
  141.0680   77.6490  222.1550 C   0  0  2  0  0  0  0  0  0  0  0  0
  141.6620   77.5080  220.8000 C   0  0  0  0  0  0  0  0  0  0  0  0
  142.0960   76.3030  220.2860 C   0  0  0  0  0  0  0  0  0  0  0  0
  142.6450   76.1690  219.0270 C   0  0  0  0  0  0  0  0  0  0  0  0
  142.7840   77.2700  218.2090 C   0  0  0  0  0  0  0  0  0  0  0  0
  142.3610   78.4910  218.6900 C   0  0  0  0  0  0  0  0  0  0  0  0
  142.4930   79.6080  217.8850 O   0  0  0  0  0  0  0  0  0  0  0  0
  141.8140   78.6100  219.9490 C   0  0  0  0  0  0  0  0  0  0  0  0
  140.0640   71.9370  223.1950 C   0  0  0  0  0  0  0  0  0  0  0  0
  139.3600   70.8580  222.6770 C   0  0  0  0  0  0  0  0  0  0  0  0
  139.1520   69.7330  223.4530 C   0  0  0  0  0  0  0  0  0  0  0  0
  139.6480   69.6980  224.7390 C   0  0  0  0  0  0  0  0  0  0  0  0
  139.4410   68.5830  225.5110 C   0  0  0  0  0  0  0  0  0  0  0  0
  139.9500   68.5700  226.8050 C   0  0  0  0  0  0  0  0  0  0  0  0
  139.7660   67.4950  227.5870 F   0  0  0  0  0  0  0  0  0  0  0  0
  140.6490   69.6780  227.2810 C   0  0  0  0  0  0  0  0  0  0  0  0
  140.8540   70.7970  226.5000 C   0  0  0  0  0  0  0  0  0  0  0  0
  140.3460   70.8050  225.2120 C   0  0  0  0  0  0  0  0  0  0  0  0
  140.5410   71.8870  224.4500 N   0  0  0  0  0  0  0  0  0  0  0  0
  138.3770   73.9560  222.9550 H   0  0  0  0  0  0  0  0  0  0  0  0
  140.3239   75.4150  221.1528 H   0  0  0  0  0  0  0  0  0  0  0  0
  138.6144   75.1524  220.6391 H   0  0  0  0  0  0  0  0  0  0  0  0
  138.5018   79.0227  220.9927 H   0  0  0  0  0  0  0  0  0  0  0  0
  137.9705   78.8451  222.7024 H   0  0  0  0  0  0  0  0  0  0  0  0
  140.1875   80.4517  221.5187 H   0  0  0  0  0  0  0  0  0  0  0  0
  138.9885   80.8492  222.8235 H   0  0  0  0  0  0  0  0  0  0  0  0
  141.2052   80.6652  223.7589 H   0  0  0  0  0  0  0  0  0  0  0  0
  140.1441   79.3018  224.3205 H   0  0  0  0  0  0  0  0  0  0  0  0
  142.4401   79.2610  222.3687 H   0  0  0  0  0  0  0  0  0  0  0  0
  142.1451   78.2693  223.8654 H   0  0  0  0  0  0  0  0  0  0  0  0
  141.3284   76.7097  222.6648 H   0  0  0  0  0  0  0  0  0  0  0  0
  141.9994   75.4035  220.9117 H   0  0  0  0  0  0  0  0  0  0  0  0
  142.9730   75.1799  218.6748 H   0  0  0  0  0  0  0  0  0  0  0  0
  143.2192   77.1772  217.2030 H   0  0  0  0  0  0  0  0  0  0  0  0
  143.3310   79.7340  217.3140 H   0  0  0  0  0  0  0  0  0  0  0  0
  141.4866   79.6010  220.2965 H   0  0  0  0  0  0  0  0  0  0  0  0
  138.9681   70.8984  221.6500 H   0  0  0  0  0  0  0  0  0  0  0  0
  138.5962   68.8742  223.0485 H   0  0  0  0  0  0  0  0  0  0  0  0
  138.8855   67.7197  225.1158 H   0  0  0  0  0  0  0  0  0  0  0  0
  141.0477   69.6599  228.3061 H   0  0  0  0  0  0  0  0  0  0  0  0
  141.4082   71.6627  226.8917 H   0  0  0  0  0  0  0  0  0  0  0  0
  1  2  2  0
  2  3  1  0
  3  4  1  0
  4  5  1  0
  5  6  2  0
  5  7  1  0
  7  8  1  0
  8  9  1  0
  9 10  1  0
 10 11  1  0
 11 12  1  0
 12 13  1  0
 13 14  2  0
 14 15  1  0
 15 16  2  0
 16 17  1  0
 17 18  1  0
 17 19  2  0
  2 20  1  0
 20 21  2  0
 21 22  1  0
 22 23  2  0
 23 24  1  0
 24 25  2  0
 25 26  1  0
 25 27  1  0
 27 28  2  0
 28 29  1  0
 29 30  2  0
 12  7  1  0
 19 13  1  0
 30 20  1  0
 29 23  1  0
  3 31  1  0
  4 32  1  0
  4 33  1  0
  8 34  1  0
  8 35  1  0
  9 36  1  0
  9 37  1  0
 10 38  1  0
 10 39  1  0
 11 40  1  0
 11 41  1  0
 12 42  1  1
 14 43  1  0
 15 44  1  0
 16 45  1  0
 18 46  1  0
 19 47  1  0
 21 48  1  0
 22 49  1  0
 24 50  1  0
 27 51  1  0
 28 52  1  0
M  END
>  <smiles>  (44) 
O=C(NCC(=O)N1CCCCC1c1cccc(O)c1)c1ccc2cc(F)ccc2n1

>  <score_type>  (44) 
oracle

>  <origin>  (44) 
autodockgpu

>  <m_score__min__energy>  (44) 
-8.9600000000000009

>  <m_primary>  (44) 
energy

>  <rmsd>  (44) 
3.373005781262333

>  <m_score__min__rmsd>  (44) 
3.373005781262333

>  <meeko>  (44) 
{"free_energy": -8.59, "intermolecular_energy": -10.38, "internal_energy": -1.59, "cluster_size": 5, "cluster_id": 3, "rank_in_cluster": 3}

>  <energy>  (44) 
-8.38

>  <cluster_rmsd>  (44) 
1.91

>  <cluster>  (44) 
4

$$$$

     RDKit          3D

 52 55  0  0  0  0  0  0  0  0999 V2000
  141.3250   72.5570  221.5730 O   0  0  0  0  0  0  0  0  0  0  0  0
  140.4030   72.6370  222.4290 C   0  0  0  0  0  0  0  0  0  0  0  0
  139.4540   73.7050  222.3550 N   0  0  0  0  0  0  0  0  0  0  0  0
  139.5160   74.7200  221.3120 C   0  0  0  0  0  0  0  0  0  0  0  0
  138.7870   75.9520  221.7350 C   0  0  0  0  0  0  0  0  0  0  0  0
  137.5690   75.9250  222.0540 O   0  0  0  0  0  0  0  0  0  0  0  0
  139.4910   77.2130  221.7850 N   0  0  0  0  0  0  0  0  0  0  0  0
  138.6630   78.3890  221.6760 C   0  0  0  0  0  0  0  0  0  0  0  0
  139.3840   79.5620  222.2240 C   0  0  0  0  0  0  0  0  0  0  0  0
  140.3070   79.1850  223.3480 C   0  0  0  0  0  0  0  0  0  0  0  0
  141.4110   78.2640  222.8930 C   0  0  0  0  0  0  0  0  0  0  0  0
  140.9290   77.2180  221.9290 C   0  0  2  0  0  0  0  0  0  0  0  0
  141.6580   77.2110  220.6350 C   0  0  0  0  0  0  0  0  0  0  0  0
  142.2600   76.0840  220.1120 C   0  0  0  0  0  0  0  0  0  0  0  0
  142.9350   76.0730  218.9080 C   0  0  0  0  0  0  0  0  0  0  0  0
  143.0370   77.2270  218.1600 C   0  0  0  0  0  0  0  0  0  0  0  0
  142.4470   78.3720  218.6510 C   0  0  0  0  0  0  0  0  0  0  0  0
  142.5390   79.5390  217.9140 O   0  0  0  0  0  0  0  0  0  0  0  0
  141.7760   78.3670  219.8540 C   0  0  0  0  0  0  0  0  0  0  0  0
  140.2400   71.6800  223.5180 C   0  0  0  0  0  0  0  0  0  0  0  0
  139.6050   70.4840  223.2150 C   0  0  0  0  0  0  0  0  0  0  0  0
  139.4180   69.5330  224.2010 C   0  0  0  0  0  0  0  0  0  0  0  0
  139.8680   69.7880  225.4790 C   0  0  0  0  0  0  0  0  0  0  0  0
  139.6830   68.8450  226.4590 C   0  0  0  0  0  0  0  0  0  0  0  0
  140.1440   69.1230  227.7400 C   0  0  0  0  0  0  0  0  0  0  0  0
  139.9810   68.2230  228.7230 F   0  0  0  0  0  0  0  0  0  0  0  0
  140.7760   70.3390  227.9960 C   0  0  0  0  0  0  0  0  0  0  0  0
  140.9600   71.2840  227.0070 C   0  0  0  0  0  0  0  0  0  0  0  0
  140.4980   71.0010  225.7320 C   0  0  0  0  0  0  0  0  0  0  0  0
  140.6730   71.9140  224.7690 N   0  0  0  0  0  0  0  0  0  0  0  0
  138.6840   73.7690  223.0730 H   0  0  0  0  0  0  0  0  0  0  0  0
  140.5684   74.9722  221.1149 H   0  0  0  0  0  0  0  0  0  0  0  0
  139.0434   74.3228  220.4016 H   0  0  0  0  0  0  0  0  0  0  0  0
  138.4224   78.5696  220.6179 H   0  0  0  0  0  0  0  0  0  0  0  0
  137.7347   78.2342  222.2455 H   0  0  0  0  0  0  0  0  0  0  0  0
  139.9755   80.0224  221.4189 H   0  0  0  0  0  0  0  0  0  0  0  0
  138.6358   80.2635  222.6216 H   0  0  0  0  0  0  0  0  0  0  0  0
  140.7565   80.1007  223.7597 H   0  0  0  0  0  0  0  0  0  0  0  0
  139.7150   78.6535  224.1077 H   0  0  0  0  0  0  0  0  0  0  0  0
  142.1904   78.8643  222.4010 H   0  0  0  0  0  0  0  0  0  0  0  0
  141.7996   77.7449  223.7815 H   0  0  0  0  0  0  0  0  0  0  0  0
  141.1859   76.2530  222.3903 H   0  0  0  0  0  0  0  0  0  0  0  0
  142.1986   75.1466  220.6842 H   0  0  0  0  0  0  0  0  0  0  0  0
  143.3927   75.1413  218.5442 H   0  0  0  0  0  0  0  0  0  0  0  0
  143.5734   77.2336  217.1997 H   0  0  0  0  0  0  0  0  0  0  0  0
  143.3620   79.7180  217.3350 H   0  0  0  0  0  0  0  0  0  0  0  0
  141.3184   79.3009  220.2124 H   0  0  0  0  0  0  0  0  0  0  0  0
  139.2507   70.2927  222.1913 H   0  0  0  0  0  0  0  0  0  0  0  0
  138.9153   68.5827  223.9682 H   0  0  0  0  0  0  0  0  0  0  0  0
  139.1817   67.8917  226.2356 H   0  0  0  0  0  0  0  0  0  0  0  0
  141.1376   70.5509  229.0130 H   0  0  0  0  0  0  0  0  0  0  0  0
  141.4612   72.2384  227.2258 H   0  0  0  0  0  0  0  0  0  0  0  0
  1  2  2  0
  2  3  1  0
  3  4  1  0
  4  5  1  0
  5  6  2  0
  5  7  1  0
  7  8  1  0
  8  9  1  0
  9 10  1  0
 10 11  1  0
 11 12  1  0
 12 13  1  0
 13 14  2  0
 14 15  1  0
 15 16  2  0
 16 17  1  0
 17 18  1  0
 17 19  2  0
  2 20  1  0
 20 21  2  0
 21 22  1  0
 22 23  2  0
 23 24  1  0
 24 25  2  0
 25 26  1  0
 25 27  1  0
 27 28  2  0
 28 29  1  0
 29 30  2  0
 12  7  1  0
 19 13  1  0
 30 20  1  0
 29 23  1  0
  3 31  1  0
  4 32  1  0
  4 33  1  0
  8 34  1  0
  8 35  1  0
  9 36  1  0
  9 37  1  0
 10 38  1  0
 10 39  1  0
 11 40  1  0
 11 41  1  0
 12 42  1  1
 14 43  1  0
 15 44  1  0
 16 45  1  0
 18 46  1  0
 19 47  1  0
 21 48  1  0
 22 49  1  0
 24 50  1  0
 27 51  1  0
 28 52  1  0
M  END
>  <smiles>  (45) 
O=C(NCC(=O)N1CCCCC1c1cccc(O)c1)c1ccc2cc(F)ccc2n1

>  <score_type>  (45) 
oracle

>  <origin>  (45) 
autodockgpu

>  <m_score__min__energy>  (45) 
-8.9600000000000009

>  <m_primary>  (45) 
energy

>  <rmsd>  (45) 
3.0678788456820807

>  <m_score__min__rmsd>  (45) 
3.0678788456820807

>  <meeko>  (45) 
{"free_energy": -8.81, "intermolecular_energy": -10.6, "internal_energy": -1.51, "cluster_size": 5, "cluster_id": 3, "rank_in_cluster": 2}

>  <energy>  (45) 
-8.37

>  <cluster_rmsd>  (45) 
1.46

>  <cluster>  (45) 
4

$$$$

     RDKit          3D

 52 55  0  0  0  0  0  0  0  0999 V2000
  141.1910   72.0670  221.5340 O   0  0  0  0  0  0  0  0  0  0  0  0
  140.3320   72.3020  222.4260 C   0  0  0  0  0  0  0  0  0  0  0  0
  139.4460   73.4170  222.2850 N   0  0  0  0  0  0  0  0  0  0  0  0
  139.5000   74.3040  221.1310 C   0  0  0  0  0  0  0  0  0  0  0  0
  140.8680   74.8820  220.9780 C   0  0  0  0  0  0  0  0  0  0  0  0
  141.5100   75.3340  221.9620 O   0  0  0  0  0  0  0  0  0  0  0  0
  141.4790   74.9270  219.6690 N   0  0  0  0  0  0  0  0  0  0  0  0
  140.7130   74.3240  218.6060 C   0  0  0  0  0  0  0  0  0  0  0  0
  141.1670   74.8510  217.2990 C   0  0  0  0  0  0  0  0  0  0  0  0
  141.6480   76.2720  217.3970 C   0  0  0  0  0  0  0  0  0  0  0  0
  142.8640   76.4010  218.2800 C   0  0  0  0  0  0  0  0  0  0  0  0
  142.7750   75.5480  219.5120 C   0  0  2  0  0  0  0  0  0  0  0  0
  143.9100   74.6040  219.6740 C   0  0  0  0  0  0  0  0  0  0  0  0
  144.5600   74.4000  220.8740 C   0  0  0  0  0  0  0  0  0  0  0  0
  145.6140   73.5220  221.0280 C   0  0  0  0  0  0  0  0  0  0  0  0
  146.0710   72.7920  219.9510 C   0  0  0  0  0  0  0  0  0  0  0  0
  145.4460   72.9700  218.7350 C   0  0  0  0  0  0  0  0  0  0  0  0
  145.8910   72.2470  217.6440 O   0  0  0  0  0  0  0  0  0  0  0  0
  144.3950   73.8500  218.5970 C   0  0  0  0  0  0  0  0  0  0  0  0
  140.1830   71.4850  223.6250 C   0  0  0  0  0  0  0  0  0  0  0  0
  139.5150   70.2760  223.4830 C   0  0  0  0  0  0  0  0  0  0  0  0
  139.3400   69.4520  224.5800 C   0  0  0  0  0  0  0  0  0  0  0  0
  139.8320   69.8460  225.8070 C   0  0  0  0  0  0  0  0  0  0  0  0
  139.6570   69.0300  226.8960 C   0  0  0  0  0  0  0  0  0  0  0  0
  140.1620   69.4470  228.1220 C   0  0  0  0  0  0  0  0  0  0  0  0
  140.0100   68.6740  229.2080 F   0  0  0  0  0  0  0  0  0  0  0  0
  140.8240   70.6700  228.2150 C   0  0  0  0  0  0  0  0  0  0  0  0
  140.9970   71.4870  227.1160 C   0  0  0  0  0  0  0  0  0  0  0  0
  140.4930   71.0670  225.8970 C   0  0  0  0  0  0  0  0  0  0  0  0
  140.6560   71.8550  224.8270 N   0  0  0  0  0  0  0  0  0  0  0  0
  138.7290   73.6100  223.0340 H   0  0  0  0  0  0  0  0  0  0  0  0
  139.2443   73.7350  220.2250 H   0  0  0  0  0  0  0  0  0  0  0  0
  138.7823   75.1243  221.2795 H   0  0  0  0  0  0  0  0  0  0  0  0
  140.8531   73.2332  218.6284 H   0  0  0  0  0  0  0  0  0  0  0  0
  139.6485   74.5641  218.7443 H   0  0  0  0  0  0  0  0  0  0  0  0
  141.9910   74.2225  216.9303 H   0  0  0  0  0  0  0  0  0  0  0  0
  140.3098   74.8309  216.6100 H   0  0  0  0  0  0  0  0  0  0  0  0
  141.9025   76.6304  216.3887 H   0  0  0  0  0  0  0  0  0  0  0  0
  140.8411   76.8722  217.8428 H   0  0  0  0  0  0  0  0  0  0  0  0
  143.7511   76.0977  217.7047 H   0  0  0  0  0  0  0  0  0  0  0  0
  142.9306   77.4499  218.6047 H   0  0  0  0  0  0  0  0  0  0  0  0
  142.8772   76.2445  220.3572 H   0  0  0  0  0  0  0  0  0  0  0  0
  144.2206   74.9665  221.7537 H   0  0  0  0  0  0  0  0  0  0  0  0
  146.0906   73.4044  222.0124 H   0  0  0  0  0  0  0  0  0  0  0  0
  146.9096   72.0883  220.0589 H   0  0  0  0  0  0  0  0  0  0  0  0
  145.4100   72.3220  216.7450 H   0  0  0  0  0  0  0  0  0  0  0  0
  143.9218   73.9643  217.6106 H   0  0  0  0  0  0  0  0  0  0  0  0
  139.1256   69.9740  222.4996 H   0  0  0  0  0  0  0  0  0  0  0  0
  138.8136   68.4918  224.4750 H   0  0  0  0  0  0  0  0  0  0  0  0
  139.1299   68.0692  226.8012 H   0  0  0  0  0  0  0  0  0  0  0  0
  141.2189   70.9925  229.1897 H   0  0  0  0  0  0  0  0  0  0  0  0
  141.5228   72.4489  227.2066 H   0  0  0  0  0  0  0  0  0  0  0  0
  1  2  2  0
  2  3  1  0
  3  4  1  0
  4  5  1  0
  5  6  2  0
  5  7  1  0
  7  8  1  0
  8  9  1  0
  9 10  1  0
 10 11  1  0
 11 12  1  0
 12 13  1  0
 13 14  2  0
 14 15  1  0
 15 16  2  0
 16 17  1  0
 17 18  1  0
 17 19  2  0
  2 20  1  0
 20 21  2  0
 21 22  1  0
 22 23  2  0
 23 24  1  0
 24 25  2  0
 25 26  1  0
 25 27  1  0
 27 28  2  0
 28 29  1  0
 29 30  2  0
 12  7  1  0
 19 13  1  0
 30 20  1  0
 29 23  1  0
  3 31  1  0
  4 32  1  0
  4 33  1  0
  8 34  1  0
  8 35  1  0
  9 36  1  0
  9 37  1  0
 10 38  1  0
 10 39  1  0
 11 40  1  0
 11 41  1  0
 12 42  1  1
 14 43  1  0
 15 44  1  0
 16 45  1  0
 18 46  1  0
 19 47  1  0
 21 48  1  0
 22 49  1  0
 24 50  1  0
 27 51  1  0
 28 52  1  0
M  END
>  <smiles>  (46) 
O=C(NCC(=O)N1CCCCC1c1cccc(O)c1)c1ccc2cc(F)ccc2n1

>  <score_type>  (46) 
oracle

>  <origin>  (46) 
autodockgpu

>  <m_score__min__energy>  (46) 
-8.9600000000000009

>  <m_primary>  (46) 
energy

>  <rmsd>  (46) 
1.6867390552916268

>  <m_score__min__rmsd>  (46) 
1.6867390552916268

>  <meeko>  (46) 
{"free_energy": -8.37, "intermolecular_energy": -10.16, "internal_energy": -1.5, "cluster_size": 17, "cluster_id": 1, "rank_in_cluster": 11}

>  <energy>  (46) 
-7.68

>  <cluster_rmsd>  (46) 
1.77

>  <cluster>  (46) 
4

$$$$

     RDKit          3D

 52 55  0  0  0  0  0  0  0  0999 V2000
  140.9200   73.8550  220.4280 O   0  0  0  0  0  0  0  0  0  0  0  0
  140.3860   74.6690  221.2290 C   0  0  0  0  0  0  0  0  0  0  0  0
  139.2960   74.2460  222.0520 N   0  0  0  0  0  0  0  0  0  0  0  0
  138.7700   72.8880  221.9970 C   0  0  0  0  0  0  0  0  0  0  0  0
  139.5420   71.9910  222.9060 C   0  0  0  0  0  0  0  0  0  0  0  0
  140.7880   72.1020  223.0450 O   0  0  0  0  0  0  0  0  0  0  0  0
  138.8480   70.9630  223.6490 N   0  0  0  0  0  0  0  0  0  0  0  0
  137.4270   71.1610  223.8010 C   0  0  0  0  0  0  0  0  0  0  0  0
  136.7720   69.8700  224.1130 C   0  0  0  0  0  0  0  0  0  0  0  0
  137.4780   68.7070  223.4740 C   0  0  0  0  0  0  0  0  0  0  0  0
  138.8810   68.5350  223.9990 C   0  0  0  0  0  0  0  0  0  0  0  0
  139.5940   69.8450  224.1790 C   0  0  2  0  0  0  0  0  0  0  0  0
  140.1040   70.0680  225.5560 C   0  0  0  0  0  0  0  0  0  0  0  0
  140.5200   71.3010  226.0180 C   0  0  0  0  0  0  0  0  0  0  0  0
  140.9920   71.5120  227.2980 C   0  0  0  0  0  0  0  0  0  0  0  0
  141.0680   70.4640  228.1910 C   0  0  0  0  0  0  0  0  0  0  0  0
  140.6620   69.2180  227.7630 C   0  0  0  0  0  0  0  0  0  0  0  0
  140.7320   68.1550  228.6450 O   0  0  0  0  0  0  0  0  0  0  0  0
  140.1920   69.0220  226.4830 C   0  0  0  0  0  0  0  0  0  0  0  0
  140.8260   76.0520  221.3710 C   0  0  0  0  0  0  0  0  0  0  0  0
  141.6920   76.5400  220.4010 C   0  0  0  0  0  0  0  0  0  0  0  0
  142.1480   77.8430  220.4750 C   0  0  0  0  0  0  0  0  0  0  0  0
  141.7340   78.6450  221.5190 C   0  0  0  0  0  0  0  0  0  0  0  0
  142.1860   79.9380  221.5940 C   0  0  0  0  0  0  0  0  0  0  0  0
  141.7560   80.7280  222.6540 C   0  0  0  0  0  0  0  0  0  0  0  0
  142.1780   81.9980  222.7590 F   0  0  0  0  0  0  0  0  0  0  0  0
  140.8870   80.1930  223.6040 C   0  0  0  0  0  0  0  0  0  0  0  0
  140.4350   78.8910  223.5230 C   0  0  0  0  0  0  0  0  0  0  0  0
  140.8670   78.1090  222.4650 C   0  0  0  0  0  0  0  0  0  0  0  0
  140.4330   76.8460  222.3810 N   0  0  0  0  0  0  0  0  0  0  0  0
  138.8520   74.9300  222.7210 H   0  0  0  0  0  0  0  0  0  0  0  0
  137.7146   72.8958  222.3069 H   0  0  0  0  0  0  0  0  0  0  0  0
  138.8601   72.5132  220.9668 H   0  0  0  0  0  0  0  0  0  0  0  0
  137.2427   71.8716  224.6202 H   0  0  0  0  0  0  0  0  0  0  0  0
  137.0134   71.5613  222.8636 H   0  0  0  0  0  0  0  0  0  0  0  0
  136.7705   69.7278  225.2038 H   0  0  0  0  0  0  0  0  0  0  0  0
  135.7479   69.9051  223.7129 H   0  0  0  0  0  0  0  0  0  0  0  0
  136.9075   67.7894  223.6802 H   0  0  0  0  0  0  0  0  0  0  0  0
  137.5431   68.9033  222.3936 H   0  0  0  0  0  0  0  0  0  0  0  0
  138.8332   68.0232  224.9715 H   0  0  0  0  0  0  0  0  0  0  0  0
  139.4444   67.9474  223.2591 H   0  0  0  0  0  0  0  0  0  0  0  0
  140.5015   69.7722  223.5617 H   0  0  0  0  0  0  0  0  0  0  0  0
  140.4729   72.1588  225.3311 H   0  0  0  0  0  0  0  0  0  0  0  0
  141.3085   72.5193  227.6066 H   0  0  0  0  0  0  0  0  0  0  0  0
  141.4414   70.6176  229.2142 H   0  0  0  0  0  0  0  0  0  0  0  0
  140.5640   67.2010  228.3170 H   0  0  0  0  0  0  0  0  0  0  0  0
  139.8761   68.0129  226.1797 H   0  0  0  0  0  0  0  0  0  0  0  0
  142.0149   75.8901  219.5743 H   0  0  0  0  0  0  0  0  0  0  0  0
  142.8335   78.2363  219.7099 H   0  0  0  0  0  0  0  0  0  0  0  0
  142.8720   80.3400  220.8339 H   0  0  0  0  0  0  0  0  0  0  0  0
  140.5527   80.8249  224.4400 H   0  0  0  0  0  0  0  0  0  0  0  0
  139.7485   78.4848  224.2804 H   0  0  0  0  0  0  0  0  0  0  0  0
  1  2  2  0
  2  3  1  0
  3  4  1  0
  4  5  1  0
  5  6  2  0
  5  7  1  0
  7  8  1  0
  8  9  1  0
  9 10  1  0
 10 11  1  0
 11 12  1  0
 12 13  1  0
 13 14  2  0
 14 15  1  0
 15 16  2  0
 16 17  1  0
 17 18  1  0
 17 19  2  0
  2 20  1  0
 20 21  2  0
 21 22  1  0
 22 23  2  0
 23 24  1  0
 24 25  2  0
 25 26  1  0
 25 27  1  0
 27 28  2  0
 28 29  1  0
 29 30  2  0
 12  7  1  0
 19 13  1  0
 30 20  1  0
 29 23  1  0
  3 31  1  0
  4 32  1  0
  4 33  1  0
  8 34  1  0
  8 35  1  0
  9 36  1  0
  9 37  1  0
 10 38  1  0
 10 39  1  0
 11 40  1  0
 11 41  1  0
 12 42  1  6
 14 43  1  0
 15 44  1  0
 16 45  1  0
 18 46  1  0
 19 47  1  0
 21 48  1  0
 22 49  1  0
 24 50  1  0
 27 51  1  0
 28 52  1  0
M  END
>  <smiles>  (47) 
O=C(NCC(=O)N1CCCCC1c1cccc(O)c1)c1ccc2cc(F)ccc2n1

>  <score_type>  (47) 
oracle

>  <origin>  (47) 
autodockgpu

>  <m_score__min__energy>  (47) 
-8.9600000000000009

>  <m_primary>  (47) 
energy

>  <rmsd>  (47) 
8.666096917715004

>  <m_score__min__rmsd>  (47) 
8.666096917715004

>  <meeko>  (47) 
{"free_energy": -8.77, "intermolecular_energy": -10.56, "internal_energy": -1.52, "cluster_size": 10, "cluster_id": 4, "rank_in_cluster": 2}

>  <energy>  (47) 
-7.63

>  <cluster_rmsd>  (47) 
0.0

>  <cluster>  (47) 
5

$$$$

     RDKit          3D

 52 55  0  0  0  0  0  0  0  0999 V2000
  139.0990   71.0930  221.1910 O   0  0  0  0  0  0  0  0  0  0  0  0
  139.3280   71.6250  222.3100 C   0  0  0  0  0  0  0  0  0  0  0  0
  139.3610   73.0510  222.4270 N   0  0  0  0  0  0  0  0  0  0  0  0
  139.1360   73.9240  221.2820 C   0  0  0  0  0  0  0  0  0  0  0  0
  140.0310   75.1160  221.3480 C   0  0  0  0  0  0  0  0  0  0  0  0
  140.0570   75.8700  222.3560 O   0  0  0  0  0  0  0  0  0  0  0  0
  140.8940   75.4210  220.2300 N   0  0  0  0  0  0  0  0  0  0  0  0
  140.2400   75.5080  218.9480 C   0  0  0  0  0  0  0  0  0  0  0  0
  141.0800   76.2860  218.0080 C   0  0  0  0  0  0  0  0  0  0  0  0
  141.8800   77.3480  218.7090 C   0  0  0  0  0  0  0  0  0  0  0  0
  142.8740   76.7630  219.6810 C   0  0  0  0  0  0  0  0  0  0  0  0
  142.3100   75.6070  220.4570 C   0  0  2  0  0  0  0  0  0  0  0  0
  143.1030   74.3570  220.3350 C   0  0  0  0  0  0  0  0  0  0  0  0
  142.6680   73.1360  220.8120 C   0  0  0  0  0  0  0  0  0  0  0  0
  143.4010   71.9720  220.6980 C   0  0  0  0  0  0  0  0  0  0  0  0
  144.6350   71.9870  220.0830 C   0  0  0  0  0  0  0  0  0  0  0  0
  145.1010   73.1890  219.5940 C   0  0  0  0  0  0  0  0  0  0  0  0
  146.3370   73.2240  218.9750 O   0  0  0  0  0  0  0  0  0  0  0  0
  144.3580   74.3430  219.7150 C   0  0  0  0  0  0  0  0  0  0  0  0
  139.5680   70.8560  223.5260 C   0  0  0  0  0  0  0  0  0  0  0  0
  139.2070   69.5150  223.5030 C   0  0  0  0  0  0  0  0  0  0  0  0
  139.4070   68.7280  224.6220 C   0  0  0  0  0  0  0  0  0  0  0  0
  139.9650   69.2880  225.7520 C   0  0  0  0  0  0  0  0  0  0  0  0
  140.1630   68.5080  226.8630 C   0  0  0  0  0  0  0  0  0  0  0  0
  140.7260   69.0940  227.9910 C   0  0  0  0  0  0  0  0  0  0  0  0
  140.9340   68.3610  229.0950 F   0  0  0  0  0  0  0  0  0  0  0  0
  141.0710   70.4450  227.9660 C   0  0  0  0  0  0  0  0  0  0  0  0
  140.8690   71.2250  226.8450 C   0  0  0  0  0  0  0  0  0  0  0  0
  140.3080   70.6360  225.7240 C   0  0  0  0  0  0  0  0  0  0  0  0
  140.1090   71.3870  224.6350 N   0  0  0  0  0  0  0  0  0  0  0  0
  139.5530   73.4930  223.3650 H   0  0  0  0  0  0  0  0  0  0  0  0
  139.3430   73.3670  220.3563 H   0  0  0  0  0  0  0  0  0  0  0  0
  138.0900   74.2642  221.2949 H   0  0  0  0  0  0  0  0  0  0  0  0
  140.0856   74.4953  218.5473 H   0  0  0  0  0  0  0  0  0  0  0  0
  139.2691   76.0108  219.0689 H   0  0  0  0  0  0  0  0  0  0  0  0
  141.7720   75.5989  217.4991 H   0  0  0  0  0  0  0  0  0  0  0  0
  140.4118   76.7844  217.2903 H   0  0  0  0  0  0  0  0  0  0  0  0
  142.4249   77.9362  217.9559 H   0  0  0  0  0  0  0  0  0  0  0  0
  141.1804   77.9774  219.2787 H   0  0  0  0  0  0  0  0  0  0  0  0
  143.7533   76.4149  219.1192 H   0  0  0  0  0  0  0  0  0  0  0  0
  143.1392   77.5507  220.4015 H   0  0  0  0  0  0  0  0  0  0  0  0
  142.4079   75.8882  221.5159 H   0  0  0  0  0  0  0  0  0  0  0  0
  141.6873   73.0888  221.3081 H   0  0  0  0  0  0  0  0  0  0  0  0
  142.9995   71.0296  221.0990 H   0  0  0  0  0  0  0  0  0  0  0  0
  145.2302   71.0671  219.9854 H   0  0  0  0  0  0  0  0  0  0  0  0
  146.7250   74.1110  218.6480 H   0  0  0  0  0  0  0  0  0  0  0  0
  144.7636   75.2826  219.3118 H   0  0  0  0  0  0  0  0  0  0  0  0
  138.7626   69.0797  222.5958 H   0  0  0  0  0  0  0  0  0  0  0  0
  139.1237   67.6652  224.6111 H   0  0  0  0  0  0  0  0  0  0  0  0
  139.8830   67.4442  226.8614 H   0  0  0  0  0  0  0  0  0  0  0  0
  141.5157   70.9010  228.8629 H   0  0  0  0  0  0  0  0  0  0  0  0
  141.1471   72.2893  226.8422 H   0  0  0  0  0  0  0  0  0  0  0  0
  1  2  2  0
  2  3  1  0
  3  4  1  0
  4  5  1  0
  5  6  2  0
  5  7  1  0
  7  8  1  0
  8  9  1  0
  9 10  1  0
 10 11  1  0
 11 12  1  0
 12 13  1  0
 13 14  2  0
 14 15  1  0
 15 16  2  0
 16 17  1  0
 17 18  1  0
 17 19  2  0
  2 20  1  0
 20 21  2  0
 21 22  1  0
 22 23  2  0
 23 24  1  0
 24 25  2  0
 25 26  1  0
 25 27  1  0
 27 28  2  0
 28 29  1  0
 29 30  2  0
 12  7  1  0
 19 13  1  0
 30 20  1  0
 29 23  1  0
  3 31  1  0
  4 32  1  0
  4 33  1  0
  8 34  1  0
  8 35  1  0
  9 36  1  0
  9 37  1  0
 10 38  1  0
 10 39  1  0
 11 40  1  0
 11 41  1  0
 12 42  1  1
 14 43  1  0
 15 44  1  0
 16 45  1  0
 18 46  1  0
 19 47  1  0
 21 48  1  0
 22 49  1  0
 24 50  1  0
 27 51  1  0
 28 52  1  0
M  END
>  <smiles>  (48) 
O=C(NCC(=O)N1CCCCC1c1cccc(O)c1)c1ccc2cc(F)ccc2n1

>  <score_type>  (48) 
oracle

>  <origin>  (48) 
autodockgpu

>  <m_score__min__energy>  (48) 
-8.9600000000000009

>  <m_primary>  (48) 
energy

>  <rmsd>  (48) 
1.4671599236526924

>  <m_score__min__rmsd>  (48) 
1.4671599236526924

>  <meeko>  (48) 
{"free_energy": -8.89, "intermolecular_energy": -10.68, "internal_energy": -1.93, "cluster_size": 17, "cluster_id": 1, "rank_in_cluster": 5}

>  <energy>  (48) 
-6.72

>  <cluster_rmsd>  (48) 
0.0

>  <cluster>  (48) 
6

$$$$

     RDKit          3D

 52 55  0  0  0  0  0  0  0  0999 V2000
  140.9090   71.5590  221.2650 O   0  0  0  0  0  0  0  0  0  0  0  0
  140.3170   71.9780  222.2960 C   0  0  0  0  0  0  0  0  0  0  0  0
  139.7390   73.2860  222.3020 N   0  0  0  0  0  0  0  0  0  0  0  0
  139.8120   74.1670  221.1440 C   0  0  0  0  0  0  0  0  0  0  0  0
  139.9020   75.5930  221.5740 C   0  0  0  0  0  0  0  0  0  0  0  0
  139.2160   76.0410  222.5310 O   0  0  0  0  0  0  0  0  0  0  0  0
  140.7970   76.4910  220.8800 N   0  0  0  0  0  0  0  0  0  0  0  0
  142.0440   75.9100  220.4470 C   0  0  0  0  0  0  0  0  0  0  0  0
  142.6290   76.7300  219.3610 C   0  0  0  0  0  0  0  0  0  0  0  0
  141.5730   77.3830  218.5140 C   0  0  0  0  0  0  0  0  0  0  0  0
  140.7420   78.3670  219.3000 C   0  0  0  0  0  0  0  0  0  0  0  0
  140.4040   77.8660  220.6750 C   0  0  2  0  0  0  0  0  0  0  0  0
  140.8300   78.7770  221.7680 C   0  0  0  0  0  0  0  0  0  0  0  0
  139.9580   79.2890  222.7080 C   0  0  0  0  0  0  0  0  0  0  0  0
  140.3510   80.1340  223.7270 C   0  0  0  0  0  0  0  0  0  0  0  0
  141.6720   80.5090  223.8460 C   0  0  0  0  0  0  0  0  0  0  0  0
  142.5720   80.0170  222.9240 C   0  0  0  0  0  0  0  0  0  0  0  0
  143.9010   80.3830  223.0270 O   0  0  0  0  0  0  0  0  0  0  0  0
  142.1650   79.1750  221.9130 C   0  0  0  0  0  0  0  0  0  0  0  0
  140.1810   71.1870  223.5140 C   0  0  0  0  0  0  0  0  0  0  0  0
  139.5330   69.9650  223.4020 C   0  0  0  0  0  0  0  0  0  0  0  0
  139.3700   69.1650  224.5180 C   0  0  0  0  0  0  0  0  0  0  0  0
  139.8560   69.5960  225.7350 C   0  0  0  0  0  0  0  0  0  0  0  0
  139.6940   68.8040  226.8430 C   0  0  0  0  0  0  0  0  0  0  0  0
  140.1920   69.2580  228.0590 C   0  0  0  0  0  0  0  0  0  0  0  0
  140.0520   68.5090  229.1640 F   0  0  0  0  0  0  0  0  0  0  0  0
  140.8350   70.4940  228.1220 C   0  0  0  0  0  0  0  0  0  0  0  0
  140.9940   71.2870  227.0030 C   0  0  0  0  0  0  0  0  0  0  0  0
  140.4970   70.8290  225.7950 C   0  0  0  0  0  0  0  0  0  0  0  0
  140.6480   71.5930  224.7070 N   0  0  0  0  0  0  0  0  0  0  0  0
  139.2440   73.6330  223.1660 H   0  0  0  0  0  0  0  0  0  0  0  0
  140.7024   73.9114  220.5508 H   0  0  0  0  0  0  0  0  0  0  0  0
  138.9020   74.0354  220.5403 H   0  0  0  0  0  0  0  0  0  0  0  0
  142.7439   75.8738  221.2948 H   0  0  0  0  0  0  0  0  0  0  0  0
  141.8603   74.8915  220.0745 H   0  0  0  0  0  0  0  0  0  0  0  0
  143.2594   77.5128  219.8079 H   0  0  0  0  0  0  0  0  0  0  0  0
  143.2184   76.0640  218.7137 H   0  0  0  0  0  0  0  0  0  0  0  0
  142.0624   77.9150  217.6849 H   0  0  0  0  0  0  0  0  0  0  0  0
  140.9021   76.5946  218.1422 H   0  0  0  0  0  0  0  0  0  0  0  0
  141.3053   79.3070  219.3957 H   0  0  0  0  0  0  0  0  0  0  0  0
  139.7970   78.5150  218.7568 H   0  0  0  0  0  0  0  0  0  0  0  0
  139.3053   77.8728  220.7278 H   0  0  0  0  0  0  0  0  0  0  0  0
  138.8961   79.0096  222.6418 H   0  0  0  0  0  0  0  0  0  0  0  0
  139.6076   80.5090  224.4459 H   0  0  0  0  0  0  0  0  0  0  0  0
  141.9990   81.1812  224.6530 H   0  0  0  0  0  0  0  0  0  0  0  0
  144.5900   80.0120  222.3690 H   0  0  0  0  0  0  0  0  0  0  0  0
  142.9123   78.8032  221.1965 H   0  0  0  0  0  0  0  0  0  0  0  0
  139.1493   69.6330  222.4260 H   0  0  0  0  0  0  0  0  0  0  0  0
  138.8580   68.1948  224.4362 H   0  0  0  0  0  0  0  0  0  0  0  0
  139.1823   67.8329  226.7712 H   0  0  0  0  0  0  0  0  0  0  0  0
  141.2256   70.8462  229.0881 H   0  0  0  0  0  0  0  0  0  0  0  0
  141.5035   72.2596  227.0699 H   0  0  0  0  0  0  0  0  0  0  0  0
  1  2  2  0
  2  3  1  0
  3  4  1  0
  4  5  1  0
  5  6  2  0
  5  7  1  0
  7  8  1  0
  8  9  1  0
  9 10  1  0
 10 11  1  0
 11 12  1  0
 12 13  1  0
 13 14  2  0
 14 15  1  0
 15 16  2  0
 16 17  1  0
 17 18  1  0
 17 19  2  0
  2 20  1  0
 20 21  2  0
 21 22  1  0
 22 23  2  0
 23 24  1  0
 24 25  2  0
 25 26  1  0
 25 27  1  0
 27 28  2  0
 28 29  1  0
 29 30  2  0
 12  7  1  0
 19 13  1  0
 30 20  1  0
 29 23  1  0
  3 31  1  0
  4 32  1  0
  4 33  1  0
  8 34  1  0
  8 35  1  0
  9 36  1  0
  9 37  1  0
 10 38  1  0
 10 39  1  0
 11 40  1  0
 11 41  1  0
 12 42  1  6
 14 43  1  0
 15 44  1  0
 16 45  1  0
 18 46  1  0
 19 47  1  0
 21 48  1  0
 22 49  1  0
 24 50  1  0
 27 51  1  0
 28 52  1  0
M  END
>  <smiles>  (49) 
O=C(NCC(=O)N1CCCCC1c1cccc(O)c1)c1ccc2cc(F)ccc2n1

>  <score_type>  (49) 
oracle

>  <origin>  (49) 
autodockgpu

>  <m_score__min__energy>  (49) 
-8.9600000000000009

>  <m_primary>  (49) 
energy

>  <rmsd>  (49) 
2.004724114358291

>  <m_score__min__rmsd>  (49) 
2.004724114358291

>  <meeko>  (49) 
{"free_energy": -8.92, "intermolecular_energy": -10.71, "internal_energy": -1.54, "cluster_size": 14, "cluster_id": 2, "rank_in_cluster": 1}

>  <energy>  (49) 
-6.7

>  <cluster_rmsd>  (49) 
0.12

>  <cluster>  (49) 
6

$$$$

     RDKit          3D

 52 55  0  0  0  0  0  0  0  0999 V2000
  140.2550   70.8730  221.6110 O   0  0  0  0  0  0  0  0  0  0  0  0
  140.0110   71.5460  222.6480 C   0  0  0  0  0  0  0  0  0  0  0  0
  139.5540   72.8970  222.5290 N   0  0  0  0  0  0  0  0  0  0  0  0
  139.3580   73.5330  221.2330 C   0  0  0  0  0  0  0  0  0  0  0  0
  139.9820   74.8880  221.2140 C   0  0  0  0  0  0  0  0  0  0  0  0
  139.7450   75.7400  222.1100 O   0  0  0  0  0  0  0  0  0  0  0  0
  140.8860   75.2390  220.1420 N   0  0  0  0  0  0  0  0  0  0  0  0
  140.2940   75.3050  218.8290 C   0  0  0  0  0  0  0  0  0  0  0  0
  141.1440   76.1270  217.9360 C   0  0  0  0  0  0  0  0  0  0  0  0
  141.8560   77.2200  218.6810 C   0  0  0  0  0  0  0  0  0  0  0  0
  142.8260   76.6750  219.7000 C   0  0  0  0  0  0  0  0  0  0  0  0
  142.2780   75.4890  220.4410 C   0  0  2  0  0  0  0  0  0  0  0  0
  143.1330   74.2780  220.3550 C   0  0  0  0  0  0  0  0  0  0  0  0
  142.7120   73.0250  220.7520 C   0  0  0  0  0  0  0  0  0  0  0  0
  143.5030   71.8960  220.6700 C   0  0  0  0  0  0  0  0  0  0  0  0
  144.7860   71.9830  220.1720 C   0  0  0  0  0  0  0  0  0  0  0  0
  145.2410   73.2200  219.7660 C   0  0  0  0  0  0  0  0  0  0  0  0
  146.5250   73.3270  219.2640 O   0  0  0  0  0  0  0  0  0  0  0  0
  144.4390   74.3370  219.8530 C   0  0  0  0  0  0  0  0  0  0  0  0
  140.1710   71.0180  223.9980 C   0  0  0  0  0  0  0  0  0  0  0  0
  140.6990   71.8770  224.9520 C   0  0  0  0  0  0  0  0  0  0  0  0
  140.8760   71.4390  226.2520 C   0  0  0  0  0  0  0  0  0  0  0  0
  140.5250   70.1480  226.5840 C   0  0  0  0  0  0  0  0  0  0  0  0
  140.7010   69.7120  227.8730 C   0  0  0  0  0  0  0  0  0  0  0  0
  140.3410   68.4060  228.1850 C   0  0  0  0  0  0  0  0  0  0  0  0
  140.4990   67.9470  229.4360 F   0  0  0  0  0  0  0  0  0  0  0  0
  139.8150   67.5810  227.1920 C   0  0  0  0  0  0  0  0  0  0  0  0
  139.6400   68.0240  225.8970 C   0  0  0  0  0  0  0  0  0  0  0  0
  140.0010   69.3260  225.5920 C   0  0  0  0  0  0  0  0  0  0  0  0
  139.8340   69.7620  224.3370 N   0  0  0  0  0  0  0  0  0  0  0  0
  139.3510   73.4570  223.3990 H   0  0  0  0  0  0  0  0  0  0  0  0
  139.8195   72.9113  220.4516 H   0  0  0  0  0  0  0  0  0  0  0  0
  138.2786   73.6367  221.0482 H   0  0  0  0  0  0  0  0  0  0  0  0
  140.2064   74.2891  218.4164 H   0  0  0  0  0  0  0  0  0  0  0  0
  139.2963   75.7623  218.9030 H   0  0  0  0  0  0  0  0  0  0  0  0
  141.8926   75.4759  217.4609 H   0  0  0  0  0  0  0  0  0  0  0  0
  140.4910   76.5981  217.1865 H   0  0  0  0  0  0  0  0  0  0  0  0
  142.4101   77.8382  217.9593 H   0  0  0  0  0  0  0  0  0  0  0  0
  141.0997   77.8123  219.2169 H   0  0  0  0  0  0  0  0  0  0  0  0
  143.7480   76.3719  219.1822 H   0  0  0  0  0  0  0  0  0  0  0  0
  143.0174   77.4693  220.4366 H   0  0  0  0  0  0  0  0  0  0  0  0
  142.3093   75.7680  221.5046 H   0  0  0  0  0  0  0  0  0  0  0  0
  141.6937   72.9202  221.1546 H   0  0  0  0  0  0  0  0  0  0  0  0
  143.1086   70.9246  221.0029 H   0  0  0  0  0  0  0  0  0  0  0  0
  145.4274   71.0922  220.1007 H   0  0  0  0  0  0  0  0  0  0  0  0
  146.9040   74.2410  219.0090 H   0  0  0  0  0  0  0  0  0  0  0  0
  144.8372   75.3059  219.5175 H   0  0  0  0  0  0  0  0  0  0  0  0
  140.9763   72.9047  224.6745 H   0  0  0  0  0  0  0  0  0  0  0  0
  141.2929   72.1144  227.0136 H   0  0  0  0  0  0  0  0  0  0  0  0
  141.1172   70.3801  228.6414 H   0  0  0  0  0  0  0  0  0  0  0  0
  139.5319   66.5493  227.4477 H   0  0  0  0  0  0  0  0  0  0  0  0
  139.2239   67.3593  225.1256 H   0  0  0  0  0  0  0  0  0  0  0  0
  1  2  2  0
  2  3  1  0
  3  4  1  0
  4  5  1  0
  5  6  2  0
  5  7  1  0
  7  8  1  0
  8  9  1  0
  9 10  1  0
 10 11  1  0
 11 12  1  0
 12 13  1  0
 13 14  2  0
 14 15  1  0
 15 16  2  0
 16 17  1  0
 17 18  1  0
 17 19  2  0
  2 20  1  0
 20 21  2  0
 21 22  1  0
 22 23  2  0
 23 24  1  0
 24 25  2  0
 25 26  1  0
 25 27  1  0
 27 28  2  0
 28 29  1  0
 29 30  2  0
 12  7  1  0
 19 13  1  0
 30 20  1  0
 29 23  1  0
  3 31  1  0
  4 32  1  0
  4 33  1  0
  8 34  1  0
  8 35  1  0
  9 36  1  0
  9 37  1  0
 10 38  1  0
 10 39  1  0
 11 40  1  0
 11 41  1  0
 12 42  1  1
 14 43  1  0
 15 44  1  0
 16 45  1  0
 18 46  1  0
 19 47  1  0
 21 48  1  0
 22 49  1  0
 24 50  1  0
 27 51  1  0
 28 52  1  0
M  END
>  <smiles>  (50) 
O=C(NCC(=O)N1CCCCC1c1cccc(O)c1)c1ccc2cc(F)ccc2n1

>  <score_type>  (50) 
oracle

>  <origin>  (50) 
autodockgpu

>  <m_score__min__energy>  (50) 
-8.9600000000000009

>  <m_primary>  (50) 
energy

>  <rmsd>  (50) 
2.6915826457478946

>  <m_score__min__rmsd>  (50) 
2.6915826457478946

>  <meeko>  (50) 
{"free_energy": -8.96, "intermolecular_energy": -10.75, "internal_energy": -1.69, "cluster_size": 17, "cluster_id": 1, "rank_in_cluster": 1}

>  <energy>  (50) 
-6.58

>  <cluster_rmsd>  (50) 
0.0

>  <cluster>  (50) 
7

$$$$

     RDKit          3D

 52 55  0  0  0  0  0  0  0  0999 V2000
  141.0850   73.0170  222.3120 O   0  0  0  0  0  0  0  0  0  0  0  0
  139.9740   72.6520  222.7830 C   0  0  0  0  0  0  0  0  0  0  0  0
  138.7310   73.2050  222.3760 N   0  0  0  0  0  0  0  0  0  0  0  0
  138.7590   74.2590  221.3500 C   0  0  0  0  0  0  0  0  0  0  0  0
  139.0880   75.5540  221.9870 C   0  0  0  0  0  0  0  0  0  0  0  0
  140.2790   75.7990  222.3110 O   0  0  0  0  0  0  0  0  0  0  0  0
  138.1290   76.5650  222.2650 N   0  0  0  0  0  0  0  0  0  0  0  0
  136.9890   76.2390  223.1000 C   0  0  0  0  0  0  0  0  0  0  0  0
  135.6830   76.6210  222.4410 C   0  0  0  0  0  0  0  0  0  0  0  0
  135.8370   77.8380  221.5570 C   0  0  0  0  0  0  0  0  0  0  0  0
  137.0010   78.6600  222.1280 C   0  0  0  0  0  0  0  0  0  0  0  0
  138.2460   77.8910  221.7480 C   0  0  1  0  0  0  0  0  0  0  0  0
  139.4820   78.6080  222.1340 C   0  0  0  0  0  0  0  0  0  0  0  0
  139.8800   78.7140  223.4710 C   0  0  0  0  0  0  0  0  0  0  0  0
  141.0230   79.3750  223.8410 C   0  0  0  0  0  0  0  0  0  0  0  0
  141.8070   79.9560  222.8410 C   0  0  0  0  0  0  0  0  0  0  0  0
  141.4240   79.8590  221.5130 C   0  0  0  0  0  0  0  0  0  0  0  0
  142.2560   80.4650  220.5650 O   0  0  0  0  0  0  0  0  0  0  0  0
  140.2750   79.1950  221.1420 C   0  0  0  0  0  0  0  0  0  0  0  0
  139.9690   71.5920  223.8110 C   0  0  0  0  0  0  0  0  0  0  0  0
  139.4490   70.3530  223.5470 C   0  0  0  0  0  0  0  0  0  0  0  0
  139.4340   69.3440  224.4980 C   0  0  0  0  0  0  0  0  0  0  0  0
  139.9750   69.6370  225.7480 C   0  0  0  0  0  0  0  0  0  0  0  0
  140.0050   68.7050  226.7510 C   0  0  0  0  0  0  0  0  0  0  0  0
  140.5410   68.9860  228.0020 C   0  0  0  0  0  0  0  0  0  0  0  0
  140.5750   68.0690  228.9970 F   0  0  0  0  0  0  0  0  0  0  0  0
  141.0550   70.2380  228.2340 C   0  0  0  0  0  0  0  0  0  0  0  0
  141.0230   71.1640  227.2320 C   0  0  0  0  0  0  0  0  0  0  0  0
  140.4890   70.8860  225.9870 C   0  0  0  0  0  0  0  0  0  0  0  0
  140.4770   71.8190  225.0350 N   0  0  0  0  0  0  0  0  0  0  0  0
  137.8150   72.8770  222.7890 H   0  0  0  0  0  0  0  0  0  0  0  0
  139.5216   74.0167  220.5952 H   0  0  0  0  0  0  0  0  0  0  0  0
  137.7741   74.3269  220.8649 H   0  0  0  0  0  0  0  0  0  0  0  0
  136.9871   75.1561  223.2930 H   0  0  0  0  0  0  0  0  0  0  0  0
  137.0781   76.8074  224.0375 H   0  0  0  0  0  0  0  0  0  0  0  0
  135.3329   75.7773  221.8281 H   0  0  0  0  0  0  0  0  0  0  0  0
  134.9575   76.8617  223.2321 H   0  0  0  0  0  0  0  0  0  0  0  0
  136.0619   77.5300  220.5252 H   0  0  0  0  0  0  0  0  0  0  0  0
  134.9099   78.4297  221.5370 H   0  0  0  0  0  0  0  0  0  0  0  0
  137.0178   79.6665  221.6845 H   0  0  0  0  0  0  0  0  0  0  0  0
  136.9157   78.7969  223.2161 H   0  0  0  0  0  0  0  0  0  0  0  0
  138.3340   77.8103  220.6545 H   0  0  0  0  0  0  0  0  0  0  0  0
  139.2560   78.2523  224.2504 H   0  0  0  0  0  0  0  0  0  0  0  0
  141.3155   79.4461  224.8990 H   0  0  0  0  0  0  0  0  0  0  0  0
  142.7299   80.4914  223.1085 H   0  0  0  0  0  0  0  0  0  0  0  0
  143.2150   80.1770  220.4210 H   0  0  0  0  0  0  0  0  0  0  0  0
  139.9859   79.1275  220.0828 H   0  0  0  0  0  0  0  0  0  0  0  0
  139.0303   70.1520  222.5498 H   0  0  0  0  0  0  0  0  0  0  0  0
  139.0123   68.3529  224.2747 H   0  0  0  0  0  0  0  0  0  0  0  0
  139.5922   67.7033  226.5606 H   0  0  0  0  0  0  0  0  0  0  0  0
  141.4865   70.4910  229.2137 H   0  0  0  0  0  0  0  0  0  0  0  0
  141.4361   72.1658  227.4211 H   0  0  0  0  0  0  0  0  0  0  0  0
  1  2  2  0
  2  3  1  0
  3  4  1  0
  4  5  1  0
  5  6  2  0
  5  7  1  0
  7  8  1  0
  8  9  1  0
  9 10  1  0
 10 11  1  0
 11 12  1  0
 12 13  1  0
 13 14  2  0
 14 15  1  0
 15 16  2  0
 16 17  1  0
 17 18  1  0
 17 19  2  0
  2 20  1  0
 20 21  2  0
 21 22  1  0
 22 23  2  0
 23 24  1  0
 24 25  2  0
 25 26  1  0
 25 27  1  0
 27 28  2  0
 28 29  1  0
 29 30  2  0
 12  7  1  0
 19 13  1  0
 30 20  1  0
 29 23  1  0
  3 31  1  0
  4 32  1  0
  4 33  1  0
  8 34  1  0
  8 35  1  0
  9 36  1  0
  9 37  1  0
 10 38  1  0
 10 39  1  0
 11 40  1  0
 11 41  1  0
 12 42  1  6
 14 43  1  0
 15 44  1  0
 16 45  1  0
 18 46  1  0
 19 47  1  0
 21 48  1  0
 22 49  1  0
 24 50  1  0
 27 51  1  0
 28 52  1  0
M  END
>  <smiles>  (51) 
O=C(NCC(=O)N1CCCCC1c1cccc(O)c1)c1ccc2cc(F)ccc2n1

>  <score_type>  (51) 
oracle

>  <origin>  (51) 
autodockgpu

>  <m_score__min__energy>  (51) 
-8.9600000000000009

>  <m_primary>  (51) 
energy

>  <rmsd>  (51) 
3.349798053439555

>  <m_score__min__rmsd>  (51) 
3.349798053439555

>  <meeko>  (51) 
{"free_energy": -8.03, "intermolecular_energy": -9.82, "internal_energy": -1.26, "cluster_size": 2, "cluster_id": 4, "rank_in_cluster": 1}

>  <energy>  (51) 
-8.96

>  <cluster_rmsd>  (51) 
0.0

>  <cluster>  (51) 
1

$$$$

     RDKit          3D

 52 55  0  0  0  0  0  0  0  0999 V2000
  140.3190   70.7750  221.3580 O   0  0  0  0  0  0  0  0  0  0  0  0
  139.9920   71.3470  222.4330 C   0  0  0  0  0  0  0  0  0  0  0  0
  139.6920   72.7320  222.5240 N   0  0  0  0  0  0  0  0  0  0  0  0
  139.7720   73.5270  221.2890 C   0  0  0  0  0  0  0  0  0  0  0  0
  140.9990   74.3550  221.3170 C   0  0  0  0  0  0  0  0  0  0  0  0
  141.0090   75.4220  221.9850 O   0  0  0  0  0  0  0  0  0  0  0  0
  142.1950   74.0220  220.6260 N   0  0  0  0  0  0  0  0  0  0  0  0
  142.3410   72.6860  220.0810 C   0  0  0  0  0  0  0  0  0  0  0  0
  143.6330   72.0360  220.5240 C   0  0  0  0  0  0  0  0  0  0  0  0
  144.7310   73.0560  220.7230 C   0  0  0  0  0  0  0  0  0  0  0  0
  144.4170   74.2370  219.7940 C   0  0  0  0  0  0  0  0  0  0  0  0
  143.2600   74.9550  220.4510 C   0  0  1  0  0  0  0  0  0  0  0  0
  142.8960   76.1970  219.7320 C   0  0  0  0  0  0  0  0  0  0  0  0
  142.1700   77.2170  220.3570 C   0  0  0  0  0  0  0  0  0  0  0  0
  141.8260   78.3720  219.7030 C   0  0  0  0  0  0  0  0  0  0  0  0
  142.2220   78.5230  218.3710 C   0  0  0  0  0  0  0  0  0  0  0  0
  142.9410   77.5210  217.7410 C   0  0  0  0  0  0  0  0  0  0  0  0
  143.3040   77.7400  216.4070 O   0  0  0  0  0  0  0  0  0  0  0  0
  143.2850   76.3600  218.3990 C   0  0  0  0  0  0  0  0  0  0  0  0
  139.9170   70.5290  223.6600 C   0  0  0  0  0  0  0  0  0  0  0  0
  139.2720   69.3210  223.6670 C   0  0  0  0  0  0  0  0  0  0  0  0
  139.1910   68.5380  224.8080 C   0  0  0  0  0  0  0  0  0  0  0  0
  139.7950   69.0280  225.9640 C   0  0  0  0  0  0  0  0  0  0  0  0
  139.7670   68.3260  227.1390 C   0  0  0  0  0  0  0  0  0  0  0  0
  140.3660   68.8040  228.2980 C   0  0  0  0  0  0  0  0  0  0  0  0
  140.3430   68.1150  229.4620 F   0  0  0  0  0  0  0  0  0  0  0  0
  141.0060   70.0190  228.2570 C   0  0  0  0  0  0  0  0  0  0  0  0
  141.0310   70.7160  227.0840 C   0  0  0  0  0  0  0  0  0  0  0  0
  140.4350   70.2410  225.9310 C   0  0  0  0  0  0  0  0  0  0  0  0
  140.4820   70.9530  224.8040 N   0  0  0  0  0  0  0  0  0  0  0  0
  139.4200   73.1820  223.4410 H   0  0  0  0  0  0  0  0  0  0  0  0
  139.8034   72.8533  220.4200 H   0  0  0  0  0  0  0  0  0  0  0  0
  138.8896   74.1794  221.2137 H   0  0  0  0  0  0  0  0  0  0  0  0
  141.4968   72.0684  220.4216 H   0  0  0  0  0  0  0  0  0  0  0  0
  142.3567   72.7644  218.9839 H   0  0  0  0  0  0  0  0  0  0  0  0
  143.4597   71.5086  221.4736 H   0  0  0  0  0  0  0  0  0  0  0  0
  143.9526   71.3362  219.7378 H   0  0  0  0  0  0  0  0  0  0  0  0
  144.7490   73.3928  221.7700 H   0  0  0  0  0  0  0  0  0  0  0  0
  145.7159   72.6242  220.4915 H   0  0  0  0  0  0  0  0  0  0  0  0
  145.2876   74.9039  219.7088 H   0  0  0  0  0  0  0  0  0  0  0  0
  144.1724   73.9064  218.7738 H   0  0  0  0  0  0  0  0  0  0  0  0
  143.5443   75.3181  221.4496 H   0  0  0  0  0  0  0  0  0  0  0  0
  141.8656   77.0882  221.4062 H   0  0  0  0  0  0  0  0  0  0  0  0
  141.2529   79.1599  220.2137 H   0  0  0  0  0  0  0  0  0  0  0  0
  141.9619   79.4399  217.8219 H   0  0  0  0  0  0  0  0  0  0  0  0
  143.6440   78.6320  216.0760 H   0  0  0  0  0  0  0  0  0  0  0  0
  143.8566   75.5740  217.8836 H   0  0  0  0  0  0  0  0  0  0  0  0
  138.8039   68.9610  222.7389 H   0  0  0  0  0  0  0  0  0  0  0  0
  138.6708   67.5688  224.8010 H   0  0  0  0  0  0  0  0  0  0  0  0
  139.2543   67.3532  227.1664 H   0  0  0  0  0  0  0  0  0  0  0  0
  141.4915   70.4243  229.1570 H   0  0  0  0  0  0  0  0  0  0  0  0
  141.5430   71.6891  227.0552 H   0  0  0  0  0  0  0  0  0  0  0  0
  1  2  2  0
  2  3  1  0
  3  4  1  0
  4  5  1  0
  5  6  2  0
  5  7  1  0
  7  8  1  0
  8  9  1  0
  9 10  1  0
 10 11  1  0
 11 12  1  0
 12 13  1  0
 13 14  2  0
 14 15  1  0
 15 16  2  0
 16 17  1  0
 17 18  1  0
 17 19  2  0
  2 20  1  0
 20 21  2  0
 21 22  1  0
 22 23  2  0
 23 24  1  0
 24 25  2  0
 25 26  1  0
 25 27  1  0
 27 28  2  0
 28 29  1  0
 29 30  2  0
 12  7  1  0
 19 13  1  0
 30 20  1  0
 29 23  1  0
  3 31  1  0
  4 32  1  0
  4 33  1  0
  8 34  1  0
  8 35  1  0
  9 36  1  0
  9 37  1  0
 10 38  1  0
 10 39  1  0
 11 40  1  0
 11 41  1  0
 12 42  1  1
 14 43  1  0
 15 44  1  0
 16 45  1  0
 18 46  1  0
 19 47  1  0
 21 48  1  0
 22 49  1  0
 24 50  1  0
 27 51  1  0
 28 52  1  0
M  END
>  <smiles>  (52) 
O=C(NCC(=O)N1CCCCC1c1cccc(O)c1)c1ccc2cc(F)ccc2n1

>  <score_type>  (52) 
oracle

>  <origin>  (52) 
autodockgpu

>  <m_score__min__energy>  (52) 
-8.9600000000000009

>  <m_primary>  (52) 
energy

>  <rmsd>  (52) 
2.8235000688698

>  <m_score__min__rmsd>  (52) 
2.8235000688698

>  <meeko>  (52) 
{"free_energy": -8.62, "intermolecular_energy": -10.41, "internal_energy": -1.38, "cluster_size": 8, "cluster_id": 2, "rank_in_cluster": 1}

>  <energy>  (52) 
-8.96

>  <cluster_rmsd>  (52) 
0.16

>  <cluster>  (52) 
1

$$$$

     RDKit          3D

 52 55  0  0  0  0  0  0  0  0999 V2000
  140.2900   73.7320  222.3520 O   0  0  0  0  0  0  0  0  0  0  0  0
  140.4740   72.4930  222.2070 C   0  0  0  0  0  0  0  0  0  0  0  0
  140.9030   71.9030  220.9880 N   0  0  0  0  0  0  0  0  0  0  0  0
  141.1400   72.7990  219.8450 C   0  0  0  0  0  0  0  0  0  0  0  0
  142.4260   72.4450  219.2040 C   0  0  0  0  0  0  0  0  0  0  0  0
  142.4520   71.5420  218.3270 O   0  0  0  0  0  0  0  0  0  0  0  0
  143.6630   73.0690  219.5160 N   0  0  0  0  0  0  0  0  0  0  0  0
  144.8860   72.5140  218.9680 C   0  0  0  0  0  0  0  0  0  0  0  0
  145.9190   72.2600  220.0430 C   0  0  0  0  0  0  0  0  0  0  0  0
  145.8070   73.2580  221.1740 C   0  0  0  0  0  0  0  0  0  0  0  0
  145.2080   74.5400  220.5780 C   0  0  0  0  0  0  0  0  0  0  0  0
  143.7470   74.2220  220.3530 C   0  0  1  0  0  0  0  0  0  0  0  0
  142.9880   75.4000  219.8770 C   0  0  0  0  0  0  0  0  0  0  0  0
  141.8670   75.8750  220.5650 C   0  0  0  0  0  0  0  0  0  0  0  0
  141.1550   76.9660  220.1350 C   0  0  0  0  0  0  0  0  0  0  0  0
  141.5750   77.6150  218.9710 C   0  0  0  0  0  0  0  0  0  0  0  0
  142.6850   77.1550  218.2800 C   0  0  0  0  0  0  0  0  0  0  0  0
  143.0480   77.8540  217.1230 O   0  0  0  0  0  0  0  0  0  0  0  0
  143.3990   76.0590  218.7130 C   0  0  0  0  0  0  0  0  0  0  0  0
  140.2300   71.6130  223.3670 C   0  0  0  0  0  0  0  0  0  0  0  0
  139.5120   70.4550  223.2370 C   0  0  0  0  0  0  0  0  0  0  0  0
  139.2720   69.6140  224.3130 C   0  0  0  0  0  0  0  0  0  0  0  0
  139.7940   69.9930  225.5480 C   0  0  0  0  0  0  0  0  0  0  0  0
  139.6090   69.2280  226.6680 C   0  0  0  0  0  0  0  0  0  0  0  0
  140.1240   69.5950  227.9050 C   0  0  0  0  0  0  0  0  0  0  0  0
  139.9460   68.8430  229.0160 F   0  0  0  0  0  0  0  0  0  0  0  0
  140.8410   70.7620  228.0010 C   0  0  0  0  0  0  0  0  0  0  0  0
  141.0230   71.5230  226.8820 C   0  0  0  0  0  0  0  0  0  0  0  0
  140.5100   71.1590  225.6520 C   0  0  0  0  0  0  0  0  0  0  0  0
  140.7100   71.9290  224.5820 N   0  0  0  0  0  0  0  0  0  0  0  0
  141.0490   70.8600  220.8980 H   0  0  0  0  0  0  0  0  0  0  0  0
  140.3235   72.6886  219.1162 H   0  0  0  0  0  0  0  0  0  0  0  0
  141.1777   73.8410  220.1954 H   0  0  0  0  0  0  0  0  0  0  0  0
  144.6522   71.5630  218.4671 H   0  0  0  0  0  0  0  0  0  0  0  0
  145.3039   73.2428  218.2579 H   0  0  0  0  0  0  0  0  0  0  0  0
  145.7725   71.2469  220.4458 H   0  0  0  0  0  0  0  0  0  0  0  0
  146.9165   72.3644  219.5913 H   0  0  0  0  0  0  0  0  0  0  0  0
  145.1492   72.8640  221.9627 H   0  0  0  0  0  0  0  0  0  0  0  0
  146.7908   73.4550  221.6249 H   0  0  0  0  0  0  0  0  0  0  0  0
  145.3171   75.3801  221.2796 H   0  0  0  0  0  0  0  0  0  0  0  0
  145.7137   74.8385  219.6479 H   0  0  0  0  0  0  0  0  0  0  0  0
  143.2529   73.9735  221.3038 H   0  0  0  0  0  0  0  0  0  0  0  0
  141.5457   75.3571  221.4807 H   0  0  0  0  0  0  0  0  0  0  0  0
  140.2757   77.3209  220.6925 H   0  0  0  0  0  0  0  0  0  0  0  0
  141.0237   78.4926  218.6024 H   0  0  0  0  0  0  0  0  0  0  0  0
  143.6830   78.6400  217.1410 H   0  0  0  0  0  0  0  0  0  0  0  0
  144.2780   75.7077  218.1527 H   0  0  0  0  0  0  0  0  0  0  0  0
  139.1131   70.1832  222.2486 H   0  0  0  0  0  0  0  0  0  0  0  0
  138.6933   68.6858  224.1964 H   0  0  0  0  0  0  0  0  0  0  0  0
  139.0346   68.2935  226.5860 H   0  0  0  0  0  0  0  0  0  0  0  0
  141.2630   71.0795  228.9660 H   0  0  0  0  0  0  0  0  0  0  0  0
  141.5975   72.4576  226.9626 H   0  0  0  0  0  0  0  0  0  0  0  0
  1  2  2  0
  2  3  1  0
  3  4  1  0
  4  5  1  0
  5  6  2  0
  5  7  1  0
  7  8  1  0
  8  9  1  0
  9 10  1  0
 10 11  1  0
 11 12  1  0
 12 13  1  0
 13 14  2  0
 14 15  1  0
 15 16  2  0
 16 17  1  0
 17 18  1  0
 17 19  2  0
  2 20  1  0
 20 21  2  0
 21 22  1  0
 22 23  2  0
 23 24  1  0
 24 25  2  0
 25 26  1  0
 25 27  1  0
 27 28  2  0
 28 29  1  0
 29 30  2  0
 12  7  1  0
 19 13  1  0
 30 20  1  0
 29 23  1  0
  3 31  1  0
  4 32  1  0
  4 33  1  0
  8 34  1  0
  8 35  1  0
  9 36  1  0
  9 37  1  0
 10 38  1  0
 10 39  1  0
 11 40  1  0
 11 41  1  0
 12 42  1  1
 14 43  1  0
 15 44  1  0
 16 45  1  0
 18 46  1  0
 19 47  1  0
 21 48  1  0
 22 49  1  0
 24 50  1  0
 27 51  1  0
 28 52  1  0
M  END
>  <smiles>  (53) 
O=C(NCC(=O)N1CCCCC1c1cccc(O)c1)c1ccc2cc(F)ccc2n1

>  <score_type>  (53) 
oracle

>  <origin>  (53) 
autodockgpu

>  <m_score__min__energy>  (53) 
-8.9600000000000009

>  <m_primary>  (53) 
energy

>  <rmsd>  (53) 
3.8601748746482043

>  <m_score__min__rmsd>  (53) 
3.8601748746482043

>  <meeko>  (53) 
{"free_energy": -8.43, "intermolecular_energy": -10.22, "internal_energy": -1.49, "cluster_size": 8, "cluster_id": 2, "rank_in_cluster": 3}

>  <energy>  (53) 
-8.92

>  <cluster_rmsd>  (53) 
0.05

>  <cluster>  (53) 
1

$$$$

     RDKit          3D

 52 55  0  0  0  0  0  0  0  0999 V2000
  139.6480   73.3130  222.7370 O   0  0  0  0  0  0  0  0  0  0  0  0
  139.9420   72.1100  222.5000 C   0  0  0  0  0  0  0  0  0  0  0  0
  140.2570   71.6220  221.2040 N   0  0  0  0  0  0  0  0  0  0  0  0
  140.2330   72.5840  220.0910 C   0  0  0  0  0  0  0  0  0  0  0  0
  141.1190   73.7260  220.4110 C   0  0  0  0  0  0  0  0  0  0  0  0
  140.6310   74.7550  220.9470 O   0  0  0  0  0  0  0  0  0  0  0  0
  142.5140   73.7430  220.1470 N   0  0  0  0  0  0  0  0  0  0  0  0
  143.1300   72.5720  219.5530 C   0  0  0  0  0  0  0  0  0  0  0  0
  144.3290   72.1030  220.3480 C   0  0  0  0  0  0  0  0  0  0  0  0
  145.0400   73.2560  221.0180 C   0  0  0  0  0  0  0  0  0  0  0  0
  144.7730   74.5030  220.1630 C   0  0  0  0  0  0  0  0  0  0  0  0
  143.3350   74.8720  220.4480 C   0  0  1  0  0  0  0  0  0  0  0  0
  142.9400   76.1310  219.7780 C   0  0  0  0  0  0  0  0  0  0  0  0
  142.2140   77.1210  220.4500 C   0  0  0  0  0  0  0  0  0  0  0  0
  141.8430   78.2920  219.8410 C   0  0  0  0  0  0  0  0  0  0  0  0
  142.2080   78.4920  218.5080 C   0  0  0  0  0  0  0  0  0  0  0  0
  142.9270   77.5200  217.8310 C   0  0  0  0  0  0  0  0  0  0  0  0
  143.2590   77.7870  216.4980 O   0  0  0  0  0  0  0  0  0  0  0  0
  143.2990   76.3430  218.4430 C   0  0  0  0  0  0  0  0  0  0  0  0
  139.9600   71.1630  223.6320 C   0  0  0  0  0  0  0  0  0  0  0  0
  139.4630   69.8930  223.4990 C   0  0  0  0  0  0  0  0  0  0  0  0
  139.4710   68.9870  224.5490 C   0  0  0  0  0  0  0  0  0  0  0  0
  140.0080   69.4180  225.7600 C   0  0  0  0  0  0  0  0  0  0  0  0
  140.0590   68.5950  226.8530 C   0  0  0  0  0  0  0  0  0  0  0  0
  140.5930   69.0140  228.0660 C   0  0  0  0  0  0  0  0  0  0  0  0
  140.6470   68.2060  229.1500 F   0  0  0  0  0  0  0  0  0  0  0  0
  141.0830   70.2930  228.1650 C   0  0  0  0  0  0  0  0  0  0  0  0
  141.0300   71.1100  227.0740 C   0  0  0  0  0  0  0  0  0  0  0  0
  140.4990   70.6950  225.8670 C   0  0  0  0  0  0  0  0  0  0  0  0
  140.4660   71.5240  224.8230 N   0  0  0  0  0  0  0  0  0  0  0  0
  140.5010   70.6070  221.0370 H   0  0  0  0  0  0  0  0  0  0  0  0
  140.5854   72.0919  219.1725 H   0  0  0  0  0  0  0  0  0  0  0  0
  139.2055   72.9464  219.9398 H   0  0  0  0  0  0  0  0  0  0  0  0
  142.3885   71.7604  219.5149 H   0  0  0  0  0  0  0  0  0  0  0  0
  143.4736   72.8416  218.5434 H   0  0  0  0  0  0  0  0  0  0  0  0
  143.9908   71.3957  221.1196 H   0  0  0  0  0  0  0  0  0  0  0  0
  145.0339   71.6215  219.6543 H   0  0  0  0  0  0  0  0  0  0  0  0
  144.6468   73.4033  222.0347 H   0  0  0  0  0  0  0  0  0  0  0  0
  146.1191   73.0587  221.0998 H   0  0  0  0  0  0  0  0  0  0  0  0
  145.4472   75.3223  220.4531 H   0  0  0  0  0  0  0  0  0  0  0  0
  144.9473   74.3156  219.0932 H   0  0  0  0  0  0  0  0  0  0  0  0
  143.1980   75.1023  221.5149 H   0  0  0  0  0  0  0  0  0  0  0  0
  141.9321   76.9543  221.5001 H   0  0  0  0  0  0  0  0  0  0  0  0
  141.2716   79.0556  220.3892 H   0  0  0  0  0  0  0  0  0  0  0  0
  141.9243   79.4226  217.9946 H   0  0  0  0  0  0  0  0  0  0  0  0
  143.7460   78.6270  216.2170 H   0  0  0  0  0  0  0  0  0  0  0  0
  143.8694   75.5820  217.8903 H   0  0  0  0  0  0  0  0  0  0  0  0
  139.0450   69.5827  222.5300 H   0  0  0  0  0  0  0  0  0  0  0  0
  139.0697   67.9697  224.4304 H   0  0  0  0  0  0  0  0  0  0  0  0
  139.6655   67.5713  226.7687 H   0  0  0  0  0  0  0  0  0  0  0  0
  141.5124   70.6538  229.1113 H   0  0  0  0  0  0  0  0  0  0  0  0
  141.4232   72.1339  227.1575 H   0  0  0  0  0  0  0  0  0  0  0  0
  1  2  2  0
  2  3  1  0
  3  4  1  0
  4  5  1  0
  5  6  2  0
  5  7  1  0
  7  8  1  0
  8  9  1  0
  9 10  1  0
 10 11  1  0
 11 12  1  0
 12 13  1  0
 13 14  2  0
 14 15  1  0
 15 16  2  0
 16 17  1  0
 17 18  1  0
 17 19  2  0
  2 20  1  0
 20 21  2  0
 21 22  1  0
 22 23  2  0
 23 24  1  0
 24 25  2  0
 25 26  1  0
 25 27  1  0
 27 28  2  0
 28 29  1  0
 29 30  2  0
 12  7  1  0
 19 13  1  0
 30 20  1  0
 29 23  1  0
  3 31  1  0
  4 32  1  0
  4 33  1  0
  8 34  1  0
  8 35  1  0
  9 36  1  0
  9 37  1  0
 10 38  1  0
 10 39  1  0
 11 40  1  0
 11 41  1  0
 12 42  1  1
 14 43  1  0
 15 44  1  0
 16 45  1  0
 18 46  1  0
 19 47  1  0
 21 48  1  0
 22 49  1  0
 24 50  1  0
 27 51  1  0
 28 52  1  0
M  END
>  <smiles>  (54) 
O=C(NCC(=O)N1CCCCC1c1cccc(O)c1)c1ccc2cc(F)ccc2n1

>  <score_type>  (54) 
oracle

>  <origin>  (54) 
autodockgpu

>  <m_score__min__energy>  (54) 
-8.9600000000000009

>  <m_primary>  (54) 
energy

>  <rmsd>  (54) 
3.146351365660891

>  <m_score__min__rmsd>  (54) 
3.146351365660891

>  <meeko>  (54) 
{"free_energy": -8.31, "intermolecular_energy": -10.1, "internal_energy": -1.19, "cluster_size": 8, "cluster_id": 2, "rank_in_cluster": 5}

>  <energy>  (54) 
-8.75

>  <cluster_rmsd>  (54) 
0.32

>  <cluster>  (54) 
1

$$$$

     RDKit          3D

 52 55  0  0  0  0  0  0  0  0999 V2000
  140.4160   71.5820  221.0070 O   0  0  0  0  0  0  0  0  0  0  0  0
  140.1040   72.1600  222.0830 C   0  0  0  0  0  0  0  0  0  0  0  0
  139.8710   73.5580  222.1810 N   0  0  0  0  0  0  0  0  0  0  0  0
  140.0050   74.3570  220.9530 C   0  0  0  0  0  0  0  0  0  0  0  0
  140.4780   75.7150  221.3010 C   0  0  0  0  0  0  0  0  0  0  0  0
  140.5430   76.0570  222.5110 O   0  0  0  0  0  0  0  0  0  0  0  0
  140.8750   76.6850  220.3410 N   0  0  0  0  0  0  0  0  0  0  0  0
  140.3150   76.6190  219.0050 C   0  0  0  0  0  0  0  0  0  0  0  0
  141.3920   76.6290  217.9440 C   0  0  0  0  0  0  0  0  0  0  0  0
  142.5990   77.4290  218.3790 C   0  0  0  0  0  0  0  0  0  0  0  0
  142.0980   78.4870  219.3730 C   0  0  0  0  0  0  0  0  0  0  0  0
  141.8080   77.7220  220.6440 C   0  0  1  0  0  0  0  0  0  0  0  0
  141.4130   78.6180  221.7550 C   0  0  0  0  0  0  0  0  0  0  0  0
  142.3640   79.2030  222.5960 C   0  0  0  0  0  0  0  0  0  0  0  0
  142.0120   80.0360  223.6280 C   0  0  0  0  0  0  0  0  0  0  0  0
  140.6550   80.3000  223.8330 C   0  0  0  0  0  0  0  0  0  0  0  0
  139.7030   79.7270  223.0060 C   0  0  0  0  0  0  0  0  0  0  0  0
  138.3630   80.0350  223.2690 O   0  0  0  0  0  0  0  0  0  0  0  0
  140.0580   78.8900  221.9700 C   0  0  0  0  0  0  0  0  0  0  0  0
  139.9750   71.3390  223.3020 C   0  0  0  0  0  0  0  0  0  0  0  0
  139.3640   70.1140  223.2680 C   0  0  0  0  0  0  0  0  0  0  0  0
  139.2320   69.3260  224.4020 C   0  0  0  0  0  0  0  0  0  0  0  0
  139.7500   69.8290  225.5930 C   0  0  0  0  0  0  0  0  0  0  0  0
  139.6670   69.1250  226.7640 C   0  0  0  0  0  0  0  0  0  0  0  0
  140.1790   69.6170  227.9580 C   0  0  0  0  0  0  0  0  0  0  0  0
  140.1020   68.9250  229.1190 F   0  0  0  0  0  0  0  0  0  0  0  0
  140.7870   70.8480  227.9580 C   0  0  0  0  0  0  0  0  0  0  0  0
  140.8670   71.5480  226.7890 C   0  0  0  0  0  0  0  0  0  0  0  0
  140.3570   71.0600  225.6010 C   0  0  0  0  0  0  0  0  0  0  0  0
  140.4550   71.7750  224.4790 N   0  0  0  0  0  0  0  0  0  0  0  0
  139.6100   74.0150  223.0980 H   0  0  0  0  0  0  0  0  0  0  0  0
  140.7304   73.8768  220.2798 H   0  0  0  0  0  0  0  0  0  0  0  0
  139.0292   74.4249  220.4499 H   0  0  0  0  0  0  0  0  0  0  0  0
  139.7297   75.6926  218.9096 H   0  0  0  0  0  0  0  0  0  0  0  0
  139.6800   77.5048  218.8562 H   0  0  0  0  0  0  0  0  0  0  0  0
  141.7042   75.5935  217.7434 H   0  0  0  0  0  0  0  0  0  0  0  0
  140.9776   77.0984  217.0396 H   0  0  0  0  0  0  0  0  0  0  0  0
  143.3339   76.7708  218.8655 H   0  0  0  0  0  0  0  0  0  0  0  0
  143.0905   77.9012  217.5156 H   0  0  0  0  0  0  0  0  0  0  0  0
  142.8710   79.2497  219.5484 H   0  0  0  0  0  0  0  0  0  0  0  0
  141.2108   79.0188  218.9988 H   0  0  0  0  0  0  0  0  0  0  0  0
  142.7210   77.2399  221.0236 H   0  0  0  0  0  0  0  0  0  0  0  0
  143.4293   78.9886  222.4249 H   0  0  0  0  0  0  0  0  0  0  0  0
  142.7783   80.4845  224.2774 H   0  0  0  0  0  0  0  0  0  0  0  0
  140.3424   80.9639  224.6524 H   0  0  0  0  0  0  0  0  0  0  0  0
  137.9790   80.9580  223.1220 H   0  0  0  0  0  0  0  0  0  0  0  0
  139.2885   78.4434  221.3231 H   0  0  0  0  0  0  0  0  0  0  0  0
  138.9656   69.7434  222.3120 H   0  0  0  0  0  0  0  0  0  0  0  0
  138.7383   68.3438  224.3622 H   0  0  0  0  0  0  0  0  0  0  0  0
  139.1797   68.1389  226.7594 H   0  0  0  0  0  0  0  0  0  0  0  0
  141.2038   71.2642  228.8870 H   0  0  0  0  0  0  0  0  0  0  0  0
  141.3541   72.5343  226.7927 H   0  0  0  0  0  0  0  0  0  0  0  0
  1  2  2  0
  2  3  1  0
  3  4  1  0
  4  5  1  0
  5  6  2  0
  5  7  1  0
  7  8  1  0
  8  9  1  0
  9 10  1  0
 10 11  1  0
 11 12  1  0
 12 13  1  0
 13 14  2  0
 14 15  1  0
 15 16  2  0
 16 17  1  0
 17 18  1  0
 17 19  2  0
  2 20  1  0
 20 21  2  0
 21 22  1  0
 22 23  2  0
 23 24  1  0
 24 25  2  0
 25 26  1  0
 25 27  1  0
 27 28  2  0
 28 29  1  0
 29 30  2  0
 12  7  1  0
 19 13  1  0
 30 20  1  0
 29 23  1  0
  3 31  1  0
  4 32  1  0
  4 33  1  0
  8 34  1  0
  8 35  1  0
  9 36  1  0
  9 37  1  0
 10 38  1  0
 10 39  1  0
 11 40  1  0
 11 41  1  0
 12 42  1  1
 14 43  1  0
 15 44  1  0
 16 45  1  0
 18 46  1  0
 19 47  1  0
 21 48  1  0
 22 49  1  0
 24 50  1  0
 27 51  1  0
 28 52  1  0
M  END
>  <smiles>  (55) 
O=C(NCC(=O)N1CCCCC1c1cccc(O)c1)c1ccc2cc(F)ccc2n1

>  <score_type>  (55) 
oracle

>  <origin>  (55) 
autodockgpu

>  <m_score__min__energy>  (55) 
-8.9600000000000009

>  <m_primary>  (55) 
energy

>  <rmsd>  (55) 
1.5907191344262093

>  <m_score__min__rmsd>  (55) 
1.5907191344262093

>  <meeko>  (55) 
{"free_energy": -8.15, "intermolecular_energy": -9.94, "internal_energy": -1.65, "cluster_size": 10, "cluster_id": 3, "rank_in_cluster": 4}

>  <energy>  (55) 
-8.74

>  <cluster_rmsd>  (55) 
0.15

>  <cluster>  (55) 
1

$$$$

     RDKit          3D

 52 55  0  0  0  0  0  0  0  0999 V2000
  140.6900   71.6620  221.0890 O   0  0  0  0  0  0  0  0  0  0  0  0
  140.2450   72.2100  222.1330 C   0  0  0  0  0  0  0  0  0  0  0  0
  139.9160   73.5890  222.2150 N   0  0  0  0  0  0  0  0  0  0  0  0
  140.1110   74.4060  221.0070 C   0  0  0  0  0  0  0  0  0  0  0  0
  140.8030   75.6630  221.3720 C   0  0  0  0  0  0  0  0  0  0  0  0
  140.6160   76.1640  222.5110 O   0  0  0  0  0  0  0  0  0  0  0  0
  141.6850   76.3610  220.5040 N   0  0  0  0  0  0  0  0  0  0  0  0
  141.8190   77.7980  220.6470 C   0  0  0  0  0  0  0  0  0  0  0  0
  141.6080   78.5160  219.3330 C   0  0  0  0  0  0  0  0  0  0  0  0
  142.0630   77.6790  218.1600 C   0  0  0  0  0  0  0  0  0  0  0  0
  143.1670   76.7460  218.6780 C   0  0  0  0  0  0  0  0  0  0  0  0
  142.4430   75.6980  219.4920 C   0  0  1  0  0  0  0  0  0  0  0  0
  143.3590   74.6440  219.9830 C   0  0  0  0  0  0  0  0  0  0  0  0
  144.6360   74.9510  220.4650 C   0  0  0  0  0  0  0  0  0  0  0  0
  145.4940   73.9850  220.9230 C   0  0  0  0  0  0  0  0  0  0  0  0
  145.0670   72.6550  220.9030 C   0  0  0  0  0  0  0  0  0  0  0  0
  143.8050   72.3370  220.4280 C   0  0  0  0  0  0  0  0  0  0  0  0
  143.4440   70.9850  220.4360 O   0  0  0  0  0  0  0  0  0  0  0  0
  142.9430   73.3090  219.9670 C   0  0  0  0  0  0  0  0  0  0  0  0
  140.0580   71.3700  223.3330 C   0  0  0  0  0  0  0  0  0  0  0  0
  139.4510   70.1450  223.2510 C   0  0  0  0  0  0  0  0  0  0  0  0
  139.2660   69.3400  224.3650 C   0  0  0  0  0  0  0  0  0  0  0  0
  139.7230   69.8270  225.5870 C   0  0  0  0  0  0  0  0  0  0  0  0
  139.5840   69.1050  226.7420 C   0  0  0  0  0  0  0  0  0  0  0  0
  140.0360   69.5800  227.9670 C   0  0  0  0  0  0  0  0  0  0  0  0
  139.9020   68.8710  229.1120 F   0  0  0  0  0  0  0  0  0  0  0  0
  140.6400   70.8120  228.0150 C   0  0  0  0  0  0  0  0  0  0  0  0
  140.7760   71.5290  226.8620 C   0  0  0  0  0  0  0  0  0  0  0  0
  140.3260   71.0580  225.6430 C   0  0  0  0  0  0  0  0  0  0  0  0
  140.4790   71.7890  224.5380 N   0  0  0  0  0  0  0  0  0  0  0  0
  139.5450   74.0200  223.1060 H   0  0  0  0  0  0  0  0  0  0  0  0
  140.7209   73.8484  220.2810 H   0  0  0  0  0  0  0  0  0  0  0  0
  139.1339   74.6402  220.5593 H   0  0  0  0  0  0  0  0  0  0  0  0
  141.0721   78.1548  221.3715 H   0  0  0  0  0  0  0  0  0  0  0  0
  142.8406   78.0130  220.9935 H   0  0  0  0  0  0  0  0  0  0  0  0
  140.5374   78.7402  219.2171 H   0  0  0  0  0  0  0  0  0  0  0  0
  142.2047   79.4400  219.3472 H   0  0  0  0  0  0  0  0  0  0  0  0
  141.2218   77.0883  217.7681 H   0  0  0  0  0  0  0  0  0  0  0  0
  142.4366   78.3153  217.3442 H   0  0  0  0  0  0  0  0  0  0  0  0
  143.7050   76.2805  217.8391 H   0  0  0  0  0  0  0  0  0  0  0  0
  143.9185   77.2854  219.2733 H   0  0  0  0  0  0  0  0  0  0  0  0
  141.7333   75.1401  218.8634 H   0  0  0  0  0  0  0  0  0  0  0  0
  144.9621   76.0015  220.4768 H   0  0  0  0  0  0  0  0  0  0  0  0
  146.4938   74.2505  221.2970 H   0  0  0  0  0  0  0  0  0  0  0  0
  145.7340   71.8588  221.2651 H   0  0  0  0  0  0  0  0  0  0  0  0
  142.4800   70.6800  220.4600 H   0  0  0  0  0  0  0  0  0  0  0  0
  141.9445   73.0390  219.5928 H   0  0  0  0  0  0  0  0  0  0  0  0
  139.0994   69.7887  222.2715 H   0  0  0  0  0  0  0  0  0  0  0  0
  138.7783   68.3571  224.2866 H   0  0  0  0  0  0  0  0  0  0  0  0
  139.0995   68.1184  226.6988 H   0  0  0  0  0  0  0  0  0  0  0  0
  141.0091   71.2154  228.9695 H   0  0  0  0  0  0  0  0  0  0  0  0
  141.2604   72.5157  226.9041 H   0  0  0  0  0  0  0  0  0  0  0  0
  1  2  2  0
  2  3  1  0
  3  4  1  0
  4  5  1  0
  5  6  2  0
  5  7  1  0
  7  8  1  0
  8  9  1  0
  9 10  1  0
 10 11  1  0
 11 12  1  0
 12 13  1  0
 13 14  2  0
 14 15  1  0
 15 16  2  0
 16 17  1  0
 17 18  1  0
 17 19  2  0
  2 20  1  0
 20 21  2  0
 21 22  1  0
 22 23  2  0
 23 24  1  0
 24 25  2  0
 25 26  1  0
 25 27  1  0
 27 28  2  0
 28 29  1  0
 29 30  2  0
 12  7  1  0
 19 13  1  0
 30 20  1  0
 29 23  1  0
  3 31  1  0
  4 32  1  0
  4 33  1  0
  8 34  1  0
  8 35  1  0
  9 36  1  0
  9 37  1  0
 10 38  1  0
 10 39  1  0
 11 40  1  0
 11 41  1  0
 12 42  1  6
 14 43  1  0
 15 44  1  0
 16 45  1  0
 18 46  1  0
 19 47  1  0
 21 48  1  0
 22 49  1  0
 24 50  1  0
 27 51  1  0
 28 52  1  0
M  END
>  <smiles>  (56) 
O=C(NCC(=O)N1CCCCC1c1cccc(O)c1)c1ccc2cc(F)ccc2n1

>  <score_type>  (56) 
oracle

>  <origin>  (56) 
autodockgpu

>  <m_score__min__energy>  (56) 
-8.9600000000000009

>  <m_primary>  (56) 
energy

>  <rmsd>  (56) 
2.3535068802885615

>  <m_score__min__rmsd>  (56) 
2.3535068802885615

>  <meeko>  (56) 
{"free_energy": -8.3, "intermolecular_energy": -10.09, "internal_energy": -2.55, "cluster_size": 26, "cluster_id": 1, "rank_in_cluster": 16}

>  <energy>  (56) 
-8.71

>  <cluster_rmsd>  (56) 
0.46

>  <cluster>  (56) 
1

$$$$

     RDKit          3D

 52 55  0  0  0  0  0  0  0  0999 V2000
  140.7330   71.6080  221.0990 O   0  0  0  0  0  0  0  0  0  0  0  0
  140.2910   72.1620  222.1410 C   0  0  0  0  0  0  0  0  0  0  0  0
  139.9680   73.5440  222.2150 N   0  0  0  0  0  0  0  0  0  0  0  0
  140.1660   74.3540  221.0040 C   0  0  0  0  0  0  0  0  0  0  0  0
  140.7900   75.6450  221.3740 C   0  0  0  0  0  0  0  0  0  0  0  0
  140.5310   76.1580  222.4940 O   0  0  0  0  0  0  0  0  0  0  0  0
  141.6810   76.3620  220.5330 N   0  0  0  0  0  0  0  0  0  0  0  0
  141.8150   77.7950  220.7120 C   0  0  0  0  0  0  0  0  0  0  0  0
  141.6180   78.5450  219.4130 C   0  0  0  0  0  0  0  0  0  0  0  0
  142.0850   77.7360  218.2250 C   0  0  0  0  0  0  0  0  0  0  0  0
  143.1830   76.7900  218.7320 C   0  0  0  0  0  0  0  0  0  0  0  0
  142.4490   75.7230  219.5130 C   0  0  1  0  0  0  0  0  0  0  0  0
  143.3600   74.6570  219.9880 C   0  0  0  0  0  0  0  0  0  0  0  0
  144.6440   74.9480  220.4590 C   0  0  0  0  0  0  0  0  0  0  0  0
  145.4970   73.9700  220.9030 C   0  0  0  0  0  0  0  0  0  0  0  0
  145.0560   72.6440  220.8780 C   0  0  0  0  0  0  0  0  0  0  0  0
  143.7860   72.3420  220.4140 C   0  0  0  0  0  0  0  0  0  0  0  0
  143.4110   70.9940  220.4190 O   0  0  0  0  0  0  0  0  0  0  0  0
  142.9300   73.3260  219.9680 C   0  0  0  0  0  0  0  0  0  0  0  0
  140.0990   71.3290  223.3450 C   0  0  0  0  0  0  0  0  0  0  0  0
  139.4800   70.1100  223.2700 C   0  0  0  0  0  0  0  0  0  0  0  0
  139.2910   69.3120  224.3880 C   0  0  0  0  0  0  0  0  0  0  0  0
  139.7580   69.7990  225.6060 C   0  0  0  0  0  0  0  0  0  0  0  0
  139.6160   69.0830  226.7650 C   0  0  0  0  0  0  0  0  0  0  0  0
  140.0770   69.5580  227.9860 C   0  0  0  0  0  0  0  0  0  0  0  0
  139.9410   68.8550  229.1340 F   0  0  0  0  0  0  0  0  0  0  0  0
  140.6950   70.7840  228.0270 C   0  0  0  0  0  0  0  0  0  0  0  0
  140.8330   71.4950  226.8700 C   0  0  0  0  0  0  0  0  0  0  0  0
  140.3740   71.0240  225.6550 C   0  0  0  0  0  0  0  0  0  0  0  0
  140.5290   71.7490  224.5470 N   0  0  0  0  0  0  0  0  0  0  0  0
  139.5980   73.9800  223.1040 H   0  0  0  0  0  0  0  0  0  0  0  0
  140.8231   73.8154  220.3053 H   0  0  0  0  0  0  0  0  0  0  0  0
  139.1946   74.5394  220.5224 H   0  0  0  0  0  0  0  0  0  0  0  0
  141.0611   78.1351  221.4372 H   0  0  0  0  0  0  0  0  0  0  0  0
  142.8332   78.0003  221.0740 H   0  0  0  0  0  0  0  0  0  0  0  0
  140.5487   78.7727  219.2913 H   0  0  0  0  0  0  0  0  0  0  0  0
  142.2148   79.4680  219.4557 H   0  0  0  0  0  0  0  0  0  0  0  0
  141.2477   77.1555  217.8102 H   0  0  0  0  0  0  0  0  0  0  0  0
  142.4675   78.3915  217.4287 H   0  0  0  0  0  0  0  0  0  0  0  0
  143.7297   76.3443  217.8879 H   0  0  0  0  0  0  0  0  0  0  0  0
  143.9286   77.3142  219.3479 H   0  0  0  0  0  0  0  0  0  0  0  0
  141.7451   75.1813  218.8641 H   0  0  0  0  0  0  0  0  0  0  0  0
  144.9809   75.9950  220.4739 H   0  0  0  0  0  0  0  0  0  0  0  0
  146.5028   74.2229  221.2695 H   0  0  0  0  0  0  0  0  0  0  0  0
  145.7186   71.8385  221.2275 H   0  0  0  0  0  0  0  0  0  0  0  0
  142.4470   70.6990  220.4920 H   0  0  0  0  0  0  0  0  0  0  0  0
  141.9250   73.0688  219.6023 H   0  0  0  0  0  0  0  0  0  0  0  0
  139.1218   69.7530  222.2932 H   0  0  0  0  0  0  0  0  0  0  0  0
  138.7925   68.3341  224.3157 H   0  0  0  0  0  0  0  0  0  0  0  0
  139.1214   68.1012  226.7276 H   0  0  0  0  0  0  0  0  0  0  0  0
  141.0731   71.1869  228.9781 H   0  0  0  0  0  0  0  0  0  0  0  0
  141.3269   72.4772  226.9063 H   0  0  0  0  0  0  0  0  0  0  0  0
  1  2  2  0
  2  3  1  0
  3  4  1  0
  4  5  1  0
  5  6  2  0
  5  7  1  0
  7  8  1  0
  8  9  1  0
  9 10  1  0
 10 11  1  0
 11 12  1  0
 12 13  1  0
 13 14  2  0
 14 15  1  0
 15 16  2  0
 16 17  1  0
 17 18  1  0
 17 19  2  0
  2 20  1  0
 20 21  2  0
 21 22  1  0
 22 23  2  0
 23 24  1  0
 24 25  2  0
 25 26  1  0
 25 27  1  0
 27 28  2  0
 28 29  1  0
 29 30  2  0
 12  7  1  0
 19 13  1  0
 30 20  1  0
 29 23  1  0
  3 31  1  0
  4 32  1  0
  4 33  1  0
  8 34  1  0
  8 35  1  0
  9 36  1  0
  9 37  1  0
 10 38  1  0
 10 39  1  0
 11 40  1  0
 11 41  1  0
 12 42  1  6
 14 43  1  0
 15 44  1  0
 16 45  1  0
 18 46  1  0
 19 47  1  0
 21 48  1  0
 22 49  1  0
 24 50  1  0
 27 51  1  0
 28 52  1  0
M  END
>  <smiles>  (57) 
O=C(NCC(=O)N1CCCCC1c1cccc(O)c1)c1ccc2cc(F)ccc2n1

>  <score_type>  (57) 
oracle

>  <origin>  (57) 
autodockgpu

>  <m_score__min__energy>  (57) 
-8.9600000000000009

>  <m_primary>  (57) 
energy

>  <rmsd>  (57) 
2.3684224137653427

>  <m_score__min__rmsd>  (57) 
2.3684224137653427

>  <meeko>  (57) 
{"free_energy": -8.31, "intermolecular_energy": -10.1, "internal_energy": -2.54, "cluster_size": 26, "cluster_id": 1, "rank_in_cluster": 14}

>  <energy>  (57) 
-8.71

>  <cluster_rmsd>  (57) 
0.38

>  <cluster>  (57) 
1

$$$$

     RDKit          3D

 52 55  0  0  0  0  0  0  0  0999 V2000
  139.2140   73.2670  220.4900 O   0  0  0  0  0  0  0  0  0  0  0  0
  139.2910   73.4610  221.7330 C   0  0  0  0  0  0  0  0  0  0  0  0
  139.3840   74.7510  222.3200 N   0  0  0  0  0  0  0  0  0  0  0  0
  139.3880   75.9110  221.4150 C   0  0  0  0  0  0  0  0  0  0  0  0
  140.6030   76.7190  221.6600 C   0  0  0  0  0  0  0  0  0  0  0  0
  140.9290   77.0030  222.8420 O   0  0  0  0  0  0  0  0  0  0  0  0
  141.4480   77.2100  220.6290 N   0  0  0  0  0  0  0  0  0  0  0  0
  141.8290   78.6090  220.6410 C   0  0  0  0  0  0  0  0  0  0  0  0
  141.5450   79.2800  219.3160 C   0  0  0  0  0  0  0  0  0  0  0  0
  141.6830   78.3160  218.1600 C   0  0  0  0  0  0  0  0  0  0  0  0
  142.6880   77.2400  218.5940 C   0  0  0  0  0  0  0  0  0  0  0  0
  141.9340   76.3750  219.5780 C   0  0  1  0  0  0  0  0  0  0  0  0
  142.7330   75.2100  220.0210 C   0  0  0  0  0  0  0  0  0  0  0  0
  144.1310   75.2420  220.0280 C   0  0  0  0  0  0  0  0  0  0  0  0
  144.8830   74.1700  220.4360 C   0  0  0  0  0  0  0  0  0  0  0  0
  144.2180   73.0150  220.8560 C   0  0  0  0  0  0  0  0  0  0  0  0
  142.8340   72.9700  220.8540 C   0  0  0  0  0  0  0  0  0  0  0  0
  142.2350   71.7820  221.2880 O   0  0  0  0  0  0  0  0  0  0  0  0
  142.0790   74.0480  220.4430 C   0  0  0  0  0  0  0  0  0  0  0  0
  139.2850   72.2820  222.6230 C   0  0  0  0  0  0  0  0  0  0  0  0
  138.4020   71.2540  222.4270 C   0  0  0  0  0  0  0  0  0  0  0  0
  138.3800   70.1380  223.2500 C   0  0  0  0  0  0  0  0  0  0  0  0
  139.2970   70.0980  224.2970 C   0  0  0  0  0  0  0  0  0  0  0  0
  139.3500   69.0380  225.1620 C   0  0  0  0  0  0  0  0  0  0  0  0
  140.2610   68.9880  226.2100 C   0  0  0  0  0  0  0  0  0  0  0  0
  140.3190   67.9430  227.0680 F   0  0  0  0  0  0  0  0  0  0  0  0
  141.1320   70.0350  226.3790 C   0  0  0  0  0  0  0  0  0  0  0  0
  141.0760   71.0900  225.5150 C   0  0  0  0  0  0  0  0  0  0  0  0
  140.1700   71.1420  224.4720 C   0  0  0  0  0  0  0  0  0  0  0  0
  140.1470   72.1910  223.6490 N   0  0  0  0  0  0  0  0  0  0  0  0
  139.4470   74.8810  223.3670 H   0  0  0  0  0  0  0  0  0  0  0  0
  139.3826   75.5628  220.3716 H   0  0  0  0  0  0  0  0  0  0  0  0
  138.4941   76.5250  221.5994 H   0  0  0  0  0  0  0  0  0  0  0  0
  141.2628   79.1254  221.4302 H   0  0  0  0  0  0  0  0  0  0  0  0
  142.9114   78.6669  220.8284 H   0  0  0  0  0  0  0  0  0  0  0  0
  140.5187   79.6757  219.3296 H   0  0  0  0  0  0  0  0  0  0  0  0
  142.2776   80.0887  219.1773 H   0  0  0  0  0  0  0  0  0  0  0  0
  140.7101   77.8555  217.9334 H   0  0  0  0  0  0  0  0  0  0  0  0
  142.0287   78.8349  217.2538 H   0  0  0  0  0  0  0  0  0  0  0  0
  143.0158   76.6454  217.7285 H   0  0  0  0  0  0  0  0  0  0  0  0
  143.5950   77.6765  219.0377 H   0  0  0  0  0  0  0  0  0  0  0  0
  141.0602   75.9115  219.0967 H   0  0  0  0  0  0  0  0  0  0  0  0
  144.6441   76.1564  219.6956 H   0  0  0  0  0  0  0  0  0  0  0  0
  145.9819   74.2182  220.4327 H   0  0  0  0  0  0  0  0  0  0  0  0
  144.7951   72.1397  221.1889 H   0  0  0  0  0  0  0  0  0  0  0  0
  141.4880   71.7670  221.9690 H   0  0  0  0  0  0  0  0  0  0  0  0
  140.9803   73.9950  220.4469 H   0  0  0  0  0  0  0  0  0  0  0  0
  137.6888   71.3152  221.5918 H   0  0  0  0  0  0  0  0  0  0  0  0
  137.6668   69.3175  223.0824 H   0  0  0  0  0  0  0  0  0  0  0  0
  138.6503   68.2007  225.0231 H   0  0  0  0  0  0  0  0  0  0  0  0
  141.8649   70.0241  227.1992 H   0  0  0  0  0  0  0  0  0  0  0  0
  141.7756   71.9275  225.6532 H   0  0  0  0  0  0  0  0  0  0  0  0
  1  2  2  0
  2  3  1  0
  3  4  1  0
  4  5  1  0
  5  6  2  0
  5  7  1  0
  7  8  1  0
  8  9  1  0
  9 10  1  0
 10 11  1  0
 11 12  1  0
 12 13  1  0
 13 14  2  0
 14 15  1  0
 15 16  2  0
 16 17  1  0
 17 18  1  0
 17 19  2  0
  2 20  1  0
 20 21  2  0
 21 22  1  0
 22 23  2  0
 23 24  1  0
 24 25  2  0
 25 26  1  0
 25 27  1  0
 27 28  2  0
 28 29  1  0
 29 30  2  0
 12  7  1  0
 19 13  1  0
 30 20  1  0
 29 23  1  0
  3 31  1  0
  4 32  1  0
  4 33  1  0
  8 34  1  0
  8 35  1  0
  9 36  1  0
  9 37  1  0
 10 38  1  0
 10 39  1  0
 11 40  1  0
 11 41  1  0
 12 42  1  6
 14 43  1  0
 15 44  1  0
 16 45  1  0
 18 46  1  0
 19 47  1  0
 21 48  1  0
 22 49  1  0
 24 50  1  0
 27 51  1  0
 28 52  1  0
M  END
>  <smiles>  (58) 
O=C(NCC(=O)N1CCCCC1c1cccc(O)c1)c1ccc2cc(F)ccc2n1

>  <score_type>  (58) 
oracle

>  <origin>  (58) 
autodockgpu

>  <m_score__min__energy>  (58) 
-8.9600000000000009

>  <m_primary>  (58) 
energy

>  <rmsd>  (58) 
2.776826701025668

>  <m_score__min__rmsd>  (58) 
2.776826701025668

>  <meeko>  (58) 
{"free_energy": -6.96, "intermolecular_energy": -8.75, "internal_energy": -2.67, "cluster_size": 26, "cluster_id": 1, "rank_in_cluster": 26}

>  <energy>  (58) 
-8.51

>  <cluster_rmsd>  (58) 
0.95

>  <cluster>  (58) 
1

$$$$

     RDKit          3D

 52 55  0  0  0  0  0  0  0  0999 V2000
  141.3020   71.8810  221.8500 O   0  0  0  0  0  0  0  0  0  0  0  0
  140.2700   72.0810  222.5460 C   0  0  0  0  0  0  0  0  0  0  0  0
  139.3060   73.0810  222.2480 N   0  0  0  0  0  0  0  0  0  0  0  0
  139.5410   73.9200  221.0630 C   0  0  0  0  0  0  0  0  0  0  0  0
  140.8520   74.5940  221.1910 C   0  0  0  0  0  0  0  0  0  0  0  0
  141.0320   75.4260  222.1190 O   0  0  0  0  0  0  0  0  0  0  0  0
  141.9490   74.3650  220.3180 N   0  0  0  0  0  0  0  0  0  0  0  0
  141.9870   73.1370  219.5470 C   0  0  0  0  0  0  0  0  0  0  0  0
  143.2990   72.4040  219.7210 C   0  0  0  0  0  0  0  0  0  0  0  0
  144.4460   73.3610  219.9540 C   0  0  0  0  0  0  0  0  0  0  0  0
  144.0680   74.6850  219.2750 C   0  0  0  0  0  0  0  0  0  0  0  0
  143.0190   75.2990  220.1740 C   0  0  1  0  0  0  0  0  0  0  0  0
  142.6170   76.6490  219.7180 C   0  0  0  0  0  0  0  0  0  0  0  0
  142.0470   77.5780  220.5950 C   0  0  0  0  0  0  0  0  0  0  0  0
  141.6710   78.8310  220.1860 C   0  0  0  0  0  0  0  0  0  0  0  0
  141.8690   79.1790  218.8470 C   0  0  0  0  0  0  0  0  0  0  0  0
  142.4330   78.2690  217.9680 C   0  0  0  0  0  0  0  0  0  0  0  0
  142.6020   78.6850  216.6430 O   0  0  0  0  0  0  0  0  0  0  0  0
  142.8100   77.0090  218.3800 C   0  0  0  0  0  0  0  0  0  0  0  0
  140.0540   71.2270  223.7310 C   0  0  0  0  0  0  0  0  0  0  0  0
  139.2840   70.0970  223.6580 C   0  0  0  0  0  0  0  0  0  0  0  0
  139.0690   69.2820  224.7590 C   0  0  0  0  0  0  0  0  0  0  0  0
  139.6710   69.6560  225.9580 C   0  0  0  0  0  0  0  0  0  0  0  0
  139.5160   68.9140  227.0980 C   0  0  0  0  0  0  0  0  0  0  0  0
  140.1110   69.2770  228.3000 C   0  0  0  0  0  0  0  0  0  0  0  0
  139.9630   68.5480  229.4310 F   0  0  0  0  0  0  0  0  0  0  0  0
  140.8780   70.4160  228.3390 C   0  0  0  0  0  0  0  0  0  0  0  0
  141.0290   71.1530  227.2010 C   0  0  0  0  0  0  0  0  0  0  0  0
  140.4370   70.7930  226.0050 C   0  0  0  0  0  0  0  0  0  0  0  0
  140.6100   71.5400  224.9140 N   0  0  0  0  0  0  0  0  0  0  0  0
  138.4500   73.2240  222.8510 H   0  0  0  0  0  0  0  0  0  0  0  0
  139.5384   73.2904  220.1610 H   0  0  0  0  0  0  0  0  0  0  0  0
  138.7454   74.6754  220.9837 H   0  0  0  0  0  0  0  0  0  0  0  0
  141.1671   72.4829  219.8787 H   0  0  0  0  0  0  0  0  0  0  0  0
  141.8797   73.3977  218.4837 H   0  0  0  0  0  0  0  0  0  0  0  0
  143.2179   71.7274  220.5845 H   0  0  0  0  0  0  0  0  0  0  0  0
  143.5031   71.8414  218.7981 H   0  0  0  0  0  0  0  0  0  0  0  0
  144.5943   73.5180  221.0326 H   0  0  0  0  0  0  0  0  0  0  0  0
  145.3831   72.9602  219.5403 H   0  0  0  0  0  0  0  0  0  0  0  0
  144.9451   75.3443  219.1977 H   0  0  0  0  0  0  0  0  0  0  0  0
  143.6973   74.5334  218.2505 H   0  0  0  0  0  0  0  0  0  0  0  0
  143.4286   75.4850  221.1778 H   0  0  0  0  0  0  0  0  0  0  0  0
  141.8957   77.2937  221.6468 H   0  0  0  0  0  0  0  0  0  0  0  0
  141.2246   79.5448  220.8939 H   0  0  0  0  0  0  0  0  0  0  0  0
  141.5764   80.1776  218.4904 H   0  0  0  0  0  0  0  0  0  0  0  0
  143.2630   79.4040  216.3790 H   0  0  0  0  0  0  0  0  0  0  0  0
  143.2553   76.2981  217.6685 H   0  0  0  0  0  0  0  0  0  0  0  0
  138.8220   69.8276  222.6968 H   0  0  0  0  0  0  0  0  0  0  0  0
  138.4481   68.3767  224.6884 H   0  0  0  0  0  0  0  0  0  0  0  0
  138.9015   68.0024  227.0613 H   0  0  0  0  0  0  0  0  0  0  0  0
  141.3637   70.7294  229.2749 H   0  0  0  0  0  0  0  0  0  0  0  0
  141.6430   72.0650  227.2364 H   0  0  0  0  0  0  0  0  0  0  0  0
  1  2  2  0
  2  3  1  0
  3  4  1  0
  4  5  1  0
  5  6  2  0
  5  7  1  0
  7  8  1  0
  8  9  1  0
  9 10  1  0
 10 11  1  0
 11 12  1  0
 12 13  1  0
 13 14  2  0
 14 15  1  0
 15 16  2  0
 16 17  1  0
 17 18  1  0
 17 19  2  0
  2 20  1  0
 20 21  2  0
 21 22  1  0
 22 23  2  0
 23 24  1  0
 24 25  2  0
 25 26  1  0
 25 27  1  0
 27 28  2  0
 28 29  1  0
 29 30  2  0
 12  7  1  0
 19 13  1  0
 30 20  1  0
 29 23  1  0
  3 31  1  0
  4 32  1  0
  4 33  1  0
  8 34  1  0
  8 35  1  0
  9 36  1  0
  9 37  1  0
 10 38  1  0
 10 39  1  0
 11 40  1  0
 11 41  1  0
 12 42  1  1
 14 43  1  0
 15 44  1  0
 16 45  1  0
 18 46  1  0
 19 47  1  0
 21 48  1  0
 22 49  1  0
 24 50  1  0
 27 51  1  0
 28 52  1  0
M  END
>  <smiles>  (59) 
O=C(NCC(=O)N1CCCCC1c1cccc(O)c1)c1ccc2cc(F)ccc2n1

>  <score_type>  (59) 
oracle

>  <origin>  (59) 
autodockgpu

>  <m_score__min__energy>  (59) 
-8.9600000000000009

>  <m_primary>  (59) 
energy

>  <rmsd>  (59) 
2.510333080917536

>  <m_score__min__rmsd>  (59) 
2.510333080917536

>  <meeko>  (59) 
{"free_energy": -8.54, "intermolecular_energy": -10.33, "internal_energy": -1.23, "cluster_size": 8, "cluster_id": 2, "rank_in_cluster": 2}

>  <energy>  (59) 
-8.51

>  <cluster_rmsd>  (59) 
1.14

>  <cluster>  (59) 
1

$$$$

     RDKit          3D

 52 55  0  0  0  0  0  0  0  0999 V2000
  140.7420   71.7070  221.0870 O   0  0  0  0  0  0  0  0  0  0  0  0
  140.2890   72.2400  222.1350 C   0  0  0  0  0  0  0  0  0  0  0  0
  139.9380   73.6140  222.2260 N   0  0  0  0  0  0  0  0  0  0  0  0
  140.1200   74.4420  221.0250 C   0  0  0  0  0  0  0  0  0  0  0  0
  140.8690   75.6680  221.3830 C   0  0  0  0  0  0  0  0  0  0  0  0
  140.7430   76.1540  222.5370 O   0  0  0  0  0  0  0  0  0  0  0  0
  141.7420   76.3500  220.4940 N   0  0  0  0  0  0  0  0  0  0  0  0
  141.8830   77.7880  220.6150 C   0  0  0  0  0  0  0  0  0  0  0  0
  141.6560   78.4890  219.2940 C   0  0  0  0  0  0  0  0  0  0  0  0
  142.0920   77.6340  218.1260 C   0  0  0  0  0  0  0  0  0  0  0  0
  143.2000   76.7040  218.6420 C   0  0  0  0  0  0  0  0  0  0  0  0
  142.4830   75.6700  219.4810 C   0  0  1  0  0  0  0  0  0  0  0  0
  143.4030   74.6200  219.9730 C   0  0  0  0  0  0  0  0  0  0  0  0
  144.6830   74.9300  220.4440 C   0  0  0  0  0  0  0  0  0  0  0  0
  145.5440   73.9670  220.9040 C   0  0  0  0  0  0  0  0  0  0  0  0
  145.1160   72.6370  220.8970 C   0  0  0  0  0  0  0  0  0  0  0  0
  143.8500   72.3160  220.4340 C   0  0  0  0  0  0  0  0  0  0  0  0
  143.4880   70.9640  220.4560 O   0  0  0  0  0  0  0  0  0  0  0  0
  142.9860   73.2840  219.9710 C   0  0  0  0  0  0  0  0  0  0  0  0
  140.1140   71.3890  223.3290 C   0  0  0  0  0  0  0  0  0  0  0  0
  139.5290   70.1540  223.2380 C   0  0  0  0  0  0  0  0  0  0  0  0
  139.3560   69.3390  224.3460 C   0  0  0  0  0  0  0  0  0  0  0  0
  139.8030   69.8250  225.5720 C   0  0  0  0  0  0  0  0  0  0  0  0
  139.6750   69.0930  226.7220 C   0  0  0  0  0  0  0  0  0  0  0  0
  140.1160   69.5680  227.9510 C   0  0  0  0  0  0  0  0  0  0  0  0
  139.9930   68.8490  229.0910 F   0  0  0  0  0  0  0  0  0  0  0  0
  140.6990   70.8100  228.0080 C   0  0  0  0  0  0  0  0  0  0  0  0
  140.8240   71.5370  226.8600 C   0  0  0  0  0  0  0  0  0  0  0  0
  140.3850   71.0660  225.6370 C   0  0  0  0  0  0  0  0  0  0  0  0
  140.5260   71.8080  224.5380 N   0  0  0  0  0  0  0  0  0  0  0  0
  139.5600   74.0320  223.1210 H   0  0  0  0  0  0  0  0  0  0  0  0
  140.6838   73.8746  220.2698 H   0  0  0  0  0  0  0  0  0  0  0  0
  139.1369   74.7178  220.6159 H   0  0  0  0  0  0  0  0  0  0  0  0
  141.1476   78.1575  221.3449 H   0  0  0  0  0  0  0  0  0  0  0  0
  142.9102   78.0038  220.9439 H   0  0  0  0  0  0  0  0  0  0  0  0
  140.5846   78.7154  219.1899 H   0  0  0  0  0  0  0  0  0  0  0  0
  142.2558   79.4110  219.2872 H   0  0  0  0  0  0  0  0  0  0  0  0
  141.2435   77.0411  217.7539 H   0  0  0  0  0  0  0  0  0  0  0  0
  142.4564   78.2576  217.2964 H   0  0  0  0  0  0  0  0  0  0  0  0
  143.7247   76.2246  217.8024 H   0  0  0  0  0  0  0  0  0  0  0  0
  143.9616   77.2488  219.2191 H   0  0  0  0  0  0  0  0  0  0  0  0
  141.7617   75.1061  218.8713 H   0  0  0  0  0  0  0  0  0  0  0  0
  145.0096   75.9804  220.4454 H   0  0  0  0  0  0  0  0  0  0  0  0
  146.5464   74.2348  221.2693 H   0  0  0  0  0  0  0  0  0  0  0  0
  145.7854   71.8431  221.2598 H   0  0  0  0  0  0  0  0  0  0  0  0
  142.5240   70.6600  220.4770 H   0  0  0  0  0  0  0  0  0  0  0  0
  141.9849   73.0114  219.6057 H   0  0  0  0  0  0  0  0  0  0  0  0
  139.1859   69.7978  222.2555 H   0  0  0  0  0  0  0  0  0  0  0  0
  138.8848   68.3487  224.2602 H   0  0  0  0  0  0  0  0  0  0  0  0
  139.2086   68.0981  226.6713 H   0  0  0  0  0  0  0  0  0  0  0  0
  141.0602   71.2132  228.9656 H   0  0  0  0  0  0  0  0  0  0  0  0
  141.2902   72.5321  226.9096 H   0  0  0  0  0  0  0  0  0  0  0  0
  1  2  2  0
  2  3  1  0
  3  4  1  0
  4  5  1  0
  5  6  2  0
  5  7  1  0
  7  8  1  0
  8  9  1  0
  9 10  1  0
 10 11  1  0
 11 12  1  0
 12 13  1  0
 13 14  2  0
 14 15  1  0
 15 16  2  0
 16 17  1  0
 17 18  1  0
 17 19  2  0
  2 20  1  0
 20 21  2  0
 21 22  1  0
 22 23  2  0
 23 24  1  0
 24 25  2  0
 25 26  1  0
 25 27  1  0
 27 28  2  0
 28 29  1  0
 29 30  2  0
 12  7  1  0
 19 13  1  0
 30 20  1  0
 29 23  1  0
  3 31  1  0
  4 32  1  0
  4 33  1  0
  8 34  1  0
  8 35  1  0
  9 36  1  0
  9 37  1  0
 10 38  1  0
 10 39  1  0
 11 40  1  0
 11 41  1  0
 12 42  1  6
 14 43  1  0
 15 44  1  0
 16 45  1  0
 18 46  1  0
 19 47  1  0
 21 48  1  0
 22 49  1  0
 24 50  1  0
 27 51  1  0
 28 52  1  0
M  END
>  <smiles>  (60) 
O=C(NCC(=O)N1CCCCC1c1cccc(O)c1)c1ccc2cc(F)ccc2n1

>  <score_type>  (60) 
oracle

>  <origin>  (60) 
autodockgpu

>  <m_score__min__energy>  (60) 
-8.9600000000000009

>  <m_primary>  (60) 
energy

>  <rmsd>  (60) 
2.3656097415607538

>  <m_score__min__rmsd>  (60) 
2.3656097415607538

>  <meeko>  (60) 
{"free_energy": -8.3, "intermolecular_energy": -10.09, "internal_energy": -2.55, "cluster_size": 26, "cluster_id": 1, "rank_in_cluster": 15}

>  <energy>  (60) 
-8.48

>  <cluster_rmsd>  (60) 
1.28

>  <cluster>  (60) 
1

$$$$

     RDKit          3D

 52 55  0  0  0  0  0  0  0  0999 V2000
  139.3230   70.7460  221.5180 O   0  0  0  0  0  0  0  0  0  0  0  0
  139.4230   71.5900  222.4490 C   0  0  0  0  0  0  0  0  0  0  0  0
  139.1310   72.9710  222.2890 N   0  0  0  0  0  0  0  0  0  0  0  0
  138.6900   73.4220  220.9610 C   0  0  0  0  0  0  0  0  0  0  0  0
  139.6230   74.4570  220.4600 C   0  0  0  0  0  0  0  0  0  0  0  0
  139.2060   75.6310  220.2800 O   0  0  0  0  0  0  0  0  0  0  0  0
  140.9890   74.2110  220.1600 N   0  0  0  0  0  0  0  0  0  0  0  0
  141.3300   73.0890  219.3070 C   0  0  0  0  0  0  0  0  0  0  0  0
  142.3730   72.1970  219.9400 C   0  0  0  0  0  0  0  0  0  0  0  0
  143.3190   72.9810  220.8210 C   0  0  0  0  0  0  0  0  0  0  0  0
  143.3620   74.4120  220.2660 C   0  0  0  0  0  0  0  0  0  0  0  0
  142.0420   75.0280  220.6710 C   0  0  1  0  0  0  0  0  0  0  0  0
  141.9610   76.4600  220.3040 C   0  0  0  0  0  0  0  0  0  0  0  0
  141.4380   77.4130  221.1850 C   0  0  0  0  0  0  0  0  0  0  0  0
  141.3570   78.7420  220.8580 C   0  0  0  0  0  0  0  0  0  0  0  0
  141.8170   79.1440  219.6010 C   0  0  0  0  0  0  0  0  0  0  0  0
  142.3370   78.2110  218.7190 C   0  0  0  0  0  0  0  0  0  0  0  0
  142.7780   78.6850  217.4780 O   0  0  0  0  0  0  0  0  0  0  0  0
  142.4170   76.8750  219.0490 C   0  0  0  0  0  0  0  0  0  0  0  0
  139.8670   71.1140  223.7750 C   0  0  0  0  0  0  0  0  0  0  0  0
  140.6380   71.9020  224.5870 C   0  0  0  0  0  0  0  0  0  0  0  0
  141.0650   71.4750  225.8360 C   0  0  0  0  0  0  0  0  0  0  0  0
  140.6790   70.2000  226.2400 C   0  0  0  0  0  0  0  0  0  0  0  0
  141.0520   69.6910  227.4550 C   0  0  0  0  0  0  0  0  0  0  0  0
  140.6740   68.4200  227.8700 C   0  0  0  0  0  0  0  0  0  0  0  0
  141.0390   67.9110  229.0700 F   0  0  0  0  0  0  0  0  0  0  0  0
  139.9010   67.6550  227.0320 C   0  0  0  0  0  0  0  0  0  0  0  0
  139.5310   68.1650  225.8210 C   0  0  0  0  0  0  0  0  0  0  0  0
  139.9080   69.4290  225.4070 C   0  0  0  0  0  0  0  0  0  0  0  0
  139.5250   69.8920  224.2160 N   0  0  0  0  0  0  0  0  0  0  0  0
  139.2240   73.6540  223.0900 H   0  0  0  0  0  0  0  0  0  0  0  0
  138.6815   72.5684  220.2673 H   0  0  0  0  0  0  0  0  0  0  0  0
  137.6766   73.8437  221.0332 H   0  0  0  0  0  0  0  0  0  0  0  0
  140.4224   72.4967  219.1185 H   0  0  0  0  0  0  0  0  0  0  0  0
  141.7452   73.4871  218.3694 H   0  0  0  0  0  0  0  0  0  0  0  0
  141.8670   71.4344  220.5502 H   0  0  0  0  0  0  0  0  0  0  0  0
  142.9605   71.7315  219.1349 H   0  0  0  0  0  0  0  0  0  0  0  0
  142.9520   72.9882  221.8579 H   0  0  0  0  0  0  0  0  0  0  0  0
  144.3218   72.5288  220.8226 H   0  0  0  0  0  0  0  0  0  0  0  0
  144.2009   74.9720  220.7049 H   0  0  0  0  0  0  0  0  0  0  0  0
  143.5087   74.4284  219.1760 H   0  0  0  0  0  0  0  0  0  0  0  0
  141.9409   75.0437  221.7662 H   0  0  0  0  0  0  0  0  0  0  0  0
  141.0802   77.0852  222.1722 H   0  0  0  0  0  0  0  0  0  0  0  0
  140.9407   79.4730  221.5667 H   0  0  0  0  0  0  0  0  0  0  0  0
  141.7660   80.2039  219.3113 H   0  0  0  0  0  0  0  0  0  0  0  0
  143.6860   79.1110  217.3510 H   0  0  0  0  0  0  0  0  0  0  0  0
  142.8328   76.1472  218.3366 H   0  0  0  0  0  0  0  0  0  0  0  0
  140.9277   72.9043  224.2384 H   0  0  0  0  0  0  0  0  0  0  0  0
  141.6831   72.1174  226.4805 H   0  0  0  0  0  0  0  0  0  0  0  0
  141.6704   70.3077  228.1237 H   0  0  0  0  0  0  0  0  0  0  0  0
  139.5843   66.6453  227.3322 H   0  0  0  0  0  0  0  0  0  0  0  0
  138.9119   67.5493  225.1519 H   0  0  0  0  0  0  0  0  0  0  0  0
  1  2  2  0
  2  3  1  0
  3  4  1  0
  4  5  1  0
  5  6  2  0
  5  7  1  0
  7  8  1  0
  8  9  1  0
  9 10  1  0
 10 11  1  0
 11 12  1  0
 12 13  1  0
 13 14  2  0
 14 15  1  0
 15 16  2  0
 16 17  1  0
 17 18  1  0
 17 19  2  0
  2 20  1  0
 20 21  2  0
 21 22  1  0
 22 23  2  0
 23 24  1  0
 24 25  2  0
 25 26  1  0
 25 27  1  0
 27 28  2  0
 28 29  1  0
 29 30  2  0
 12  7  1  0
 19 13  1  0
 30 20  1  0
 29 23  1  0
  3 31  1  0
  4 32  1  0
  4 33  1  0
  8 34  1  0
  8 35  1  0
  9 36  1  0
  9 37  1  0
 10 38  1  0
 10 39  1  0
 11 40  1  0
 11 41  1  0
 12 42  1  1
 14 43  1  0
 15 44  1  0
 16 45  1  0
 18 46  1  0
 19 47  1  0
 21 48  1  0
 22 49  1  0
 24 50  1  0
 27 51  1  0
 28 52  1  0
M  END
>  <smiles>  (61) 
O=C(NCC(=O)N1CCCCC1c1cccc(O)c1)c1ccc2cc(F)ccc2n1

>  <score_type>  (61) 
oracle

>  <origin>  (61) 
autodockgpu

>  <m_score__min__energy>  (61) 
-8.9600000000000009

>  <m_primary>  (61) 
energy

>  <rmsd>  (61) 
3.157643333061919

>  <m_score__min__rmsd>  (61) 
3.157643333061919

>  <meeko>  (61) 
{"free_energy": -7.73, "intermolecular_energy": -9.52, "internal_energy": -1.56, "cluster_size": 8, "cluster_id": 2, "rank_in_cluster": 8}

>  <energy>  (61) 
-8.4

>  <cluster_rmsd>  (61) 
0.96

>  <cluster>  (61) 
1

$$$$

     RDKit          3D

 52 55  0  0  0  0  0  0  0  0999 V2000
  140.7630   71.5400  221.1260 O   0  0  0  0  0  0  0  0  0  0  0  0
  140.3030   72.1020  222.1570 C   0  0  0  0  0  0  0  0  0  0  0  0
  139.9720   73.4820  222.2140 N   0  0  0  0  0  0  0  0  0  0  0  0
  140.1830   74.2830  220.9990 C   0  0  0  0  0  0  0  0  0  0  0  0
  140.7400   75.6030  221.3720 C   0  0  0  0  0  0  0  0  0  0  0  0
  140.4150   76.1220  222.4710 O   0  0  0  0  0  0  0  0  0  0  0  0
  141.6360   76.3430  220.5550 N   0  0  0  0  0  0  0  0  0  0  0  0
  141.7580   77.7720  220.7640 C   0  0  0  0  0  0  0  0  0  0  0  0
  141.5710   78.5460  219.4790 C   0  0  0  0  0  0  0  0  0  0  0  0
  142.0560   77.7640  218.2790 C   0  0  0  0  0  0  0  0  0  0  0  0
  143.1540   76.8150  218.7800 C   0  0  0  0  0  0  0  0  0  0  0  0
  142.4200   75.7290  219.5320 C   0  0  1  0  0  0  0  0  0  0  0  0
  143.3320   74.6590  219.9960 C   0  0  0  0  0  0  0  0  0  0  0  0
  144.6150   74.9470  220.4730 C   0  0  0  0  0  0  0  0  0  0  0  0
  145.4690   73.9660  220.9060 C   0  0  0  0  0  0  0  0  0  0  0  0
  145.0310   72.6400  220.8650 C   0  0  0  0  0  0  0  0  0  0  0  0
  143.7630   72.3410  220.3960 C   0  0  0  0  0  0  0  0  0  0  0  0
  143.3900   70.9920  220.3830 O   0  0  0  0  0  0  0  0  0  0  0  0
  142.9050   73.3280  219.9600 C   0  0  0  0  0  0  0  0  0  0  0  0
  140.0990   71.2790  223.3650 C   0  0  0  0  0  0  0  0  0  0  0  0
  139.4650   70.0670  223.2960 C   0  0  0  0  0  0  0  0  0  0  0  0
  139.2630   69.2780  224.4190 C   0  0  0  0  0  0  0  0  0  0  0  0
  139.7340   69.7660  225.6350 C   0  0  0  0  0  0  0  0  0  0  0  0
  139.5820   69.0580  226.7980 C   0  0  0  0  0  0  0  0  0  0  0  0
  140.0470   69.5350  228.0170 C   0  0  0  0  0  0  0  0  0  0  0  0
  139.9000   68.8410  229.1690 F   0  0  0  0  0  0  0  0  0  0  0  0
  140.6800   70.7530  228.0510 C   0  0  0  0  0  0  0  0  0  0  0  0
  140.8290   71.4560  226.8910 C   0  0  0  0  0  0  0  0  0  0  0  0
  140.3660   70.9830  225.6770 C   0  0  0  0  0  0  0  0  0  0  0  0
  140.5330   71.7000  224.5660 N   0  0  0  0  0  0  0  0  0  0  0  0
  139.5870   73.9240  223.0940 H   0  0  0  0  0  0  0  0  0  0  0  0
  140.8871   73.7621  220.3335 H   0  0  0  0  0  0  0  0  0  0  0  0
  139.2237   74.4222  220.4789 H   0  0  0  0  0  0  0  0  0  0  0  0
  140.9935   78.0925  221.4870 H   0  0  0  0  0  0  0  0  0  0  0  0
  142.7706   77.9768  221.1419 H   0  0  0  0  0  0  0  0  0  0  0  0
  140.5018   78.7698  219.3501 H   0  0  0  0  0  0  0  0  0  0  0  0
  142.1622   79.4711  219.5470 H   0  0  0  0  0  0  0  0  0  0  0  0
  141.2271   77.1870  217.8432 H   0  0  0  0  0  0  0  0  0  0  0  0
  142.4426   78.4375  217.4999 H   0  0  0  0  0  0  0  0  0  0  0  0
  143.7126   76.3891  217.9335 H   0  0  0  0  0  0  0  0  0  0  0  0
  143.8889   77.3322  219.4144 H   0  0  0  0  0  0  0  0  0  0  0  0
  141.7274   75.1950  218.8648 H   0  0  0  0  0  0  0  0  0  0  0  0
  144.9495   75.9945  220.5016 H   0  0  0  0  0  0  0  0  0  0  0  0
  146.4740   74.2166  221.2765 H   0  0  0  0  0  0  0  0  0  0  0  0
  145.6948   71.8319  221.2060 H   0  0  0  0  0  0  0  0  0  0  0  0
  142.4300   70.6920  220.4860 H   0  0  0  0  0  0  0  0  0  0  0  0
  141.9011   73.0727  219.5899 H   0  0  0  0  0  0  0  0  0  0  0  0
  139.1050   69.7083  222.3205 H   0  0  0  0  0  0  0  0  0  0  0  0
  138.7516   68.3065  224.3515 H   0  0  0  0  0  0  0  0  0  0  0  0
  139.0762   68.0817  226.7655 H   0  0  0  0  0  0  0  0  0  0  0  0
  141.0618   71.1566  229.0004 H   0  0  0  0  0  0  0  0  0  0  0  0
  141.3347   72.4323  226.9228 H   0  0  0  0  0  0  0  0  0  0  0  0
  1  2  2  0
  2  3  1  0
  3  4  1  0
  4  5  1  0
  5  6  2  0
  5  7  1  0
  7  8  1  0
  8  9  1  0
  9 10  1  0
 10 11  1  0
 11 12  1  0
 12 13  1  0
 13 14  2  0
 14 15  1  0
 15 16  2  0
 16 17  1  0
 17 18  1  0
 17 19  2  0
  2 20  1  0
 20 21  2  0
 21 22  1  0
 22 23  2  0
 23 24  1  0
 24 25  2  0
 25 26  1  0
 25 27  1  0
 27 28  2  0
 28 29  1  0
 29 30  2  0
 12  7  1  0
 19 13  1  0
 30 20  1  0
 29 23  1  0
  3 31  1  0
  4 32  1  0
  4 33  1  0
  8 34  1  0
  8 35  1  0
  9 36  1  0
  9 37  1  0
 10 38  1  0
 10 39  1  0
 11 40  1  0
 11 41  1  0
 12 42  1  6
 14 43  1  0
 15 44  1  0
 16 45  1  0
 18 46  1  0
 19 47  1  0
 21 48  1  0
 22 49  1  0
 24 50  1  0
 27 51  1  0
 28 52  1  0
M  END
>  <smiles>  (62) 
O=C(NCC(=O)N1CCCCC1c1cccc(O)c1)c1ccc2cc(F)ccc2n1

>  <score_type>  (62) 
oracle

>  <origin>  (62) 
autodockgpu

>  <m_score__min__energy>  (62) 
-8.9600000000000009

>  <m_primary>  (62) 
energy

>  <rmsd>  (62) 
2.3591459954383125

>  <m_score__min__rmsd>  (62) 
2.3591459954383125

>  <meeko>  (62) 
{"free_energy": -8.29, "intermolecular_energy": -10.08, "internal_energy": -2.52, "cluster_size": 26, "cluster_id": 1, "rank_in_cluster": 17}

>  <energy>  (62) 
-8.38

>  <cluster_rmsd>  (62) 
0.82

>  <cluster>  (62) 
1

$$$$

     RDKit          3D

 52 55  0  0  0  0  0  0  0  0999 V2000
  140.5460   71.4420  221.0610 O   0  0  0  0  0  0  0  0  0  0  0  0
  140.1700   72.0150  222.1190 C   0  0  0  0  0  0  0  0  0  0  0  0
  139.9020   73.4070  222.2030 N   0  0  0  0  0  0  0  0  0  0  0  0
  140.0770   74.2080  220.9810 C   0  0  0  0  0  0  0  0  0  0  0  0
  140.6640   75.5200  221.3350 C   0  0  0  0  0  0  0  0  0  0  0  0
  140.3210   76.0820  222.4070 O   0  0  0  0  0  0  0  0  0  0  0  0
  141.6110   76.2050  220.5270 N   0  0  0  0  0  0  0  0  0  0  0  0
  141.8290   77.6220  220.7510 C   0  0  0  0  0  0  0  0  0  0  0  0
  141.6990   78.4190  219.4730 C   0  0  0  0  0  0  0  0  0  0  0  0
  142.1340   77.6180  218.2680 C   0  0  0  0  0  0  0  0  0  0  0  0
  143.1640   76.5920  218.7620 C   0  0  0  0  0  0  0  0  0  0  0  0
  142.3550   75.5500  219.5000 C   0  0  1  0  0  0  0  0  0  0  0  0
  143.1910   74.4170  219.9560 C   0  0  0  0  0  0  0  0  0  0  0  0
  142.7330   73.0970  219.8900 C   0  0  0  0  0  0  0  0  0  0  0  0
  143.4970   72.0380  220.3080 C   0  0  0  0  0  0  0  0  0  0  0  0
  144.7740   72.3000  220.8130 C   0  0  0  0  0  0  0  0  0  0  0  0
  145.2400   73.6030  220.8830 C   0  0  0  0  0  0  0  0  0  0  0  0
  146.5270   73.7910  221.4000 O   0  0  0  0  0  0  0  0  0  0  0  0
  144.4710   74.6660  220.4640 C   0  0  0  0  0  0  0  0  0  0  0  0
  140.0010   71.1920  223.3330 C   0  0  0  0  0  0  0  0  0  0  0  0
  139.4120   69.9570  223.2740 C   0  0  0  0  0  0  0  0  0  0  0  0
  139.2440   69.1680  224.4020 C   0  0  0  0  0  0  0  0  0  0  0  0
  139.6990   69.6810  225.6140 C   0  0  0  0  0  0  0  0  0  0  0  0
  139.5770   68.9750  226.7810 C   0  0  0  0  0  0  0  0  0  0  0  0
  140.0270   69.4770  227.9960 C   0  0  0  0  0  0  0  0  0  0  0  0
  139.9100   68.7840  229.1530 F   0  0  0  0  0  0  0  0  0  0  0  0
  140.6130   70.7180  228.0210 C   0  0  0  0  0  0  0  0  0  0  0  0
  140.7330   71.4190  226.8560 C   0  0  0  0  0  0  0  0  0  0  0  0
  140.2850   70.9210  225.6460 C   0  0  0  0  0  0  0  0  0  0  0  0
  140.4210   71.6370  224.5300 N   0  0  0  0  0  0  0  0  0  0  0  0
  139.5870   73.8590  223.1060 H   0  0  0  0  0  0  0  0  0  0  0  0
  140.7490   73.6797  220.2886 H   0  0  0  0  0  0  0  0  0  0  0  0
  139.1007   74.3599  220.4974 H   0  0  0  0  0  0  0  0  0  0  0  0
  141.0855   77.9865  221.4751 H   0  0  0  0  0  0  0  0  0  0  0  0
  142.8517   77.7542  221.1339 H   0  0  0  0  0  0  0  0  0  0  0  0
  140.6477   78.7156  219.3433 H   0  0  0  0  0  0  0  0  0  0  0  0
  142.3509   79.3015  219.5515 H   0  0  0  0  0  0  0  0  0  0  0  0
  141.2695   77.1025  217.8244 H   0  0  0  0  0  0  0  0  0  0  0  0
  142.5681   78.2714  217.4969 H   0  0  0  0  0  0  0  0  0  0  0  0
  143.6959   76.1384  217.9127 H   0  0  0  0  0  0  0  0  0  0  0  0
  143.9299   77.0516  219.4040 H   0  0  0  0  0  0  0  0  0  0  0  0
  141.6306   75.0710  218.8249 H   0  0  0  0  0  0  0  0  0  0  0  0
  141.7271   72.9022  219.4897 H   0  0  0  0  0  0  0  0  0  0  0  0
  143.1148   71.0083  220.2475 H   0  0  0  0  0  0  0  0  0  0  0  0
  145.4099   71.4703  221.1554 H   0  0  0  0  0  0  0  0  0  0  0  0
  146.6980   73.9720  222.3790 H   0  0  0  0  0  0  0  0  0  0  0  0
  144.8567   75.6942  220.5277 H   0  0  0  0  0  0  0  0  0  0  0  0
  139.0615   69.5794  222.3021 H   0  0  0  0  0  0  0  0  0  0  0  0
  138.7705   68.1770  224.3418 H   0  0  0  0  0  0  0  0  0  0  0  0
  139.1084   67.9801  226.7558 H   0  0  0  0  0  0  0  0  0  0  0  0
  140.9809   71.1418  228.9671 H   0  0  0  0  0  0  0  0  0  0  0  0
  141.2019   72.4137  226.8803 H   0  0  0  0  0  0  0  0  0  0  0  0
  1  2  2  0
  2  3  1  0
  3  4  1  0
  4  5  1  0
  5  6  2  0
  5  7  1  0
  7  8  1  0
  8  9  1  0
  9 10  1  0
 10 11  1  0
 11 12  1  0
 12 13  1  0
 13 14  2  0
 14 15  1  0
 15 16  2  0
 16 17  1  0
 17 18  1  0
 17 19  2  0
  2 20  1  0
 20 21  2  0
 21 22  1  0
 22 23  2  0
 23 24  1  0
 24 25  2  0
 25 26  1  0
 25 27  1  0
 27 28  2  0
 28 29  1  0
 29 30  2  0
 12  7  1  0
 19 13  1  0
 30 20  1  0
 29 23  1  0
  3 31  1  0
  4 32  1  0
  4 33  1  0
  8 34  1  0
  8 35  1  0
  9 36  1  0
  9 37  1  0
 10 38  1  0
 10 39  1  0
 11 40  1  0
 11 41  1  0
 12 42  1  6
 14 43  1  0
 15 44  1  0
 16 45  1  0
 18 46  1  0
 19 47  1  0
 21 48  1  0
 22 49  1  0
 24 50  1  0
 27 51  1  0
 28 52  1  0
M  END
>  <smiles>  (63) 
O=C(NCC(=O)N1CCCCC1c1cccc(O)c1)c1ccc2cc(F)ccc2n1

>  <score_type>  (63) 
oracle

>  <origin>  (63) 
autodockgpu

>  <m_score__min__energy>  (63) 
-8.9600000000000009

>  <m_primary>  (63) 
energy

>  <rmsd>  (63) 
2.3206650450155126

>  <m_score__min__rmsd>  (63) 
2.3206650450155126

>  <meeko>  (63) 
{"free_energy": -8.38, "intermolecular_energy": -10.17, "internal_energy": -1.86, "cluster_size": 26, "cluster_id": 1, "rank_in_cluster": 12}

>  <energy>  (63) 
-8.32

>  <cluster_rmsd>  (63) 
1.21

>  <cluster>  (63) 
1

$$$$

     RDKit          3D

 52 55  0  0  0  0  0  0  0  0999 V2000
  140.1880   71.8030  221.0390 O   0  0  0  0  0  0  0  0  0  0  0  0
  139.9520   72.3300  222.1590 C   0  0  0  0  0  0  0  0  0  0  0  0
  139.7660   73.7260  222.3440 N   0  0  0  0  0  0  0  0  0  0  0  0
  139.8570   74.5870  221.1540 C   0  0  0  0  0  0  0  0  0  0  0  0
  140.7250   75.7480  221.4540 C   0  0  0  0  0  0  0  0  0  0  0  0
  140.7210   76.2400  222.6120 O   0  0  0  0  0  0  0  0  0  0  0  0
  141.5830   76.3610  220.5020 N   0  0  0  0  0  0  0  0  0  0  0  0
  141.8140   77.7900  220.5840 C   0  0  0  0  0  0  0  0  0  0  0  0
  141.5530   78.4780  219.2630 C   0  0  0  0  0  0  0  0  0  0  0  0
  141.8700   77.5770  218.0910 C   0  0  0  0  0  0  0  0  0  0  0  0
  142.9500   76.5930  218.5640 C   0  0  0  0  0  0  0  0  0  0  0  0
  142.2240   75.6200  219.4640 C   0  0  1  0  0  0  0  0  0  0  0  0
  143.1080   74.5260  219.9270 C   0  0  0  0  0  0  0  0  0  0  0  0
  142.5890   73.3050  220.3720 C   0  0  0  0  0  0  0  0  0  0  0  0
  143.3960   72.2840  220.8030 C   0  0  0  0  0  0  0  0  0  0  0  0
  144.7800   72.4820  220.7910 C   0  0  0  0  0  0  0  0  0  0  0  0
  145.3060   73.6850  220.3520 C   0  0  0  0  0  0  0  0  0  0  0  0
  146.7000   73.8140  220.3670 O   0  0  0  0  0  0  0  0  0  0  0  0
  144.4940   74.7120  219.9200 C   0  0  0  0  0  0  0  0  0  0  0  0
  139.8650   71.4470  223.3390 C   0  0  0  0  0  0  0  0  0  0  0  0
  139.2950   70.2050  223.2520 C   0  0  0  0  0  0  0  0  0  0  0  0
  139.2030   69.3600  224.3480 C   0  0  0  0  0  0  0  0  0  0  0  0
  139.7190   69.8230  225.5560 C   0  0  0  0  0  0  0  0  0  0  0  0
  139.6740   69.0600  226.6920 C   0  0  0  0  0  0  0  0  0  0  0  0
  140.1840   69.5120  227.9030 C   0  0  0  0  0  0  0  0  0  0  0  0
  140.1440   68.7630  229.0300 F   0  0  0  0  0  0  0  0  0  0  0  0
  140.7500   70.7610  227.9560 C   0  0  0  0  0  0  0  0  0  0  0  0
  140.7930   71.5190  226.8220 C   0  0  0  0  0  0  0  0  0  0  0  0
  140.2850   71.0710  225.6170 C   0  0  0  0  0  0  0  0  0  0  0  0
  140.3450   71.8420  224.5300 N   0  0  0  0  0  0  0  0  0  0  0  0
  139.5690   74.1390  223.2970 H   0  0  0  0  0  0  0  0  0  0  0  0
  140.2855   74.0143  220.3183 H   0  0  0  0  0  0  0  0  0  0  0  0
  138.8526   74.9402  220.8776 H   0  0  0  0  0  0  0  0  0  0  0  0
  141.1442   78.2158  221.3456 H   0  0  0  0  0  0  0  0  0  0  0  0
  142.8690   77.9510  220.8506 H   0  0  0  0  0  0  0  0  0  0  0  0
  140.4925   78.7661  219.2145 H   0  0  0  0  0  0  0  0  0  0  0  0
  142.2048   79.3620  219.2021 H   0  0  0  0  0  0  0  0  0  0  0  0
  140.9683   77.0286  217.7808 H   0  0  0  0  0  0  0  0  0  0  0  0
  142.2212   78.1621  217.2283 H   0  0  0  0  0  0  0  0  0  0  0  0
  143.3967   76.0677  217.7070 H   0  0  0  0  0  0  0  0  0  0  0  0
  143.7741   77.1024  219.0850 H   0  0  0  0  0  0  0  0  0  0  0  0
  141.4375   75.0890  218.9078 H   0  0  0  0  0  0  0  0  0  0  0  0
  141.4986   73.1598  220.3761 H   0  0  0  0  0  0  0  0  0  0  0  0
  142.9655   71.3329  221.1495 H   0  0  0  0  0  0  0  0  0  0  0  0
  145.4522   71.6804  221.1310 H   0  0  0  0  0  0  0  0  0  0  0  0
  147.1850   74.5290  219.8430 H   0  0  0  0  0  0  0  0  0  0  0  0
  144.9290   75.6618  219.5756 H   0  0  0  0  0  0  0  0  0  0  0  0
  138.8980   69.8672  222.2834 H   0  0  0  0  0  0  0  0  0  0  0  0
  138.7414   68.3649  224.2665 H   0  0  0  0  0  0  0  0  0  0  0  0
  139.2204   68.0590  226.6446 H   0  0  0  0  0  0  0  0  0  0  0  0
  141.1635   71.1460  228.8998 H   0  0  0  0  0  0  0  0  0  0  0  0
  141.2470   72.5198  226.8684 H   0  0  0  0  0  0  0  0  0  0  0  0
  1  2  2  0
  2  3  1  0
  3  4  1  0
  4  5  1  0
  5  6  2  0
  5  7  1  0
  7  8  1  0
  8  9  1  0
  9 10  1  0
 10 11  1  0
 11 12  1  0
 12 13  1  0
 13 14  2  0
 14 15  1  0
 15 16  2  0
 16 17  1  0
 17 18  1  0
 17 19  2  0
  2 20  1  0
 20 21  2  0
 21 22  1  0
 22 23  2  0
 23 24  1  0
 24 25  2  0
 25 26  1  0
 25 27  1  0
 27 28  2  0
 28 29  1  0
 29 30  2  0
 12  7  1  0
 19 13  1  0
 30 20  1  0
 29 23  1  0
  3 31  1  0
  4 32  1  0
  4 33  1  0
  8 34  1  0
  8 35  1  0
  9 36  1  0
  9 37  1  0
 10 38  1  0
 10 39  1  0
 11 40  1  0
 11 41  1  0
 12 42  1  6
 14 43  1  0
 15 44  1  0
 16 45  1  0
 18 46  1  0
 19 47  1  0
 21 48  1  0
 22 49  1  0
 24 50  1  0
 27 51  1  0
 28 52  1  0
M  END
>  <smiles>  (64) 
O=C(NCC(=O)N1CCCCC1c1cccc(O)c1)c1ccc2cc(F)ccc2n1

>  <score_type>  (64) 
oracle

>  <origin>  (64) 
autodockgpu

>  <m_score__min__energy>  (64) 
-8.9600000000000009

>  <m_primary>  (64) 
energy

>  <rmsd>  (64) 
2.2865232150275343

>  <m_score__min__rmsd>  (64) 
2.2865232150275343

>  <meeko>  (64) 
{"free_energy": -8.75, "intermolecular_energy": -10.54, "internal_energy": -1.86, "cluster_size": 26, "cluster_id": 1, "rank_in_cluster": 4}

>  <energy>  (64) 
-8.31

>  <cluster_rmsd>  (64) 
1.18

>  <cluster>  (64) 
1

$$$$

     RDKit          3D

 52 55  0  0  0  0  0  0  0  0999 V2000
  140.2360   71.6810  221.0030 O   0  0  0  0  0  0  0  0  0  0  0  0
  139.9830   72.2470  222.1000 C   0  0  0  0  0  0  0  0  0  0  0  0
  139.7660   73.6450  222.2280 N   0  0  0  0  0  0  0  0  0  0  0  0
  139.8450   74.4590  221.0050 C   0  0  0  0  0  0  0  0  0  0  0  0
  140.3930   75.7930  221.3390 C   0  0  0  0  0  0  0  0  0  0  0  0
  140.4910   76.1370  222.5460 O   0  0  0  0  0  0  0  0  0  0  0  0
  140.8260   76.7360  220.3690 N   0  0  0  0  0  0  0  0  0  0  0  0
  140.2540   76.6850  219.0380 C   0  0  0  0  0  0  0  0  0  0  0  0
  141.3220   76.6380  217.9680 C   0  0  0  0  0  0  0  0  0  0  0  0
  142.5670   77.3860  218.3890 C   0  0  0  0  0  0  0  0  0  0  0  0
  142.1220   78.4730  219.3780 C   0  0  0  0  0  0  0  0  0  0  0  0
  141.8080   77.7320  220.6570 C   0  0  1  0  0  0  0  0  0  0  0  0
  141.4610   78.6540  221.7630 C   0  0  0  0  0  0  0  0  0  0  0  0
  142.4470   79.2270  222.5730 C   0  0  0  0  0  0  0  0  0  0  0  0
  142.1410   80.0830  223.5990 C   0  0  0  0  0  0  0  0  0  0  0  0
  140.7960   80.3840  223.8320 C   0  0  0  0  0  0  0  0  0  0  0  0
  139.8100   79.8230  223.0370 C   0  0  0  0  0  0  0  0  0  0  0  0
  138.4850   80.1690  223.3280 O   0  0  0  0  0  0  0  0  0  0  0  0
  140.1190   78.9630  222.0060 C   0  0  0  0  0  0  0  0  0  0  0  0
  139.9080   71.4100  223.3140 C   0  0  0  0  0  0  0  0  0  0  0  0
  139.3410   70.1640  223.2790 C   0  0  0  0  0  0  0  0  0  0  0  0
  139.2610   69.3610  224.4070 C   0  0  0  0  0  0  0  0  0  0  0  0
  139.7830   69.8720  225.5930 C   0  0  0  0  0  0  0  0  0  0  0  0
  139.7500   69.1540  226.7580 C   0  0  0  0  0  0  0  0  0  0  0  0
  140.2670   69.6530  227.9470 C   0  0  0  0  0  0  0  0  0  0  0  0
  140.2380   68.9480  229.1020 F   0  0  0  0  0  0  0  0  0  0  0  0
  140.8290   70.9060  227.9470 C   0  0  0  0  0  0  0  0  0  0  0  0
  140.8600   71.6190  226.7840 C   0  0  0  0  0  0  0  0  0  0  0  0
  140.3450   71.1240  225.6010 C   0  0  0  0  0  0  0  0  0  0  0  0
  140.3950   71.8520  224.4850 N   0  0  0  0  0  0  0  0  0  0  0  0
  139.5550   74.0910  223.1630 H   0  0  0  0  0  0  0  0  0  0  0  0
  140.5030   73.9636  220.2759 H   0  0  0  0  0  0  0  0  0  0  0  0
  138.8401   74.5716  220.5721 H   0  0  0  0  0  0  0  0  0  0  0  0
  139.6267   75.7852  218.9545 H   0  0  0  0  0  0  0  0  0  0  0  0
  139.6591   77.5978  218.8868 H   0  0  0  0  0  0  0  0  0  0  0  0
  141.5855   75.5880  217.7729 H   0  0  0  0  0  0  0  0  0  0  0  0
  140.9225   77.1182  217.0626 H   0  0  0  0  0  0  0  0  0  0  0  0
  143.2747   76.6987  218.8757 H   0  0  0  0  0  0  0  0  0  0  0  0
  143.0730   77.8292  217.5186 H   0  0  0  0  0  0  0  0  0  0  0  0
  142.9299   79.2014  219.5414 H   0  0  0  0  0  0  0  0  0  0  0  0
  141.2566   79.0412  219.0062 H   0  0  0  0  0  0  0  0  0  0  0  0
  142.7013   77.2124  221.0339 H   0  0  0  0  0  0  0  0  0  0  0  0
  143.5021   78.9828  222.3804 H   0  0  0  0  0  0  0  0  0  0  0  0
  142.9336   80.5218  224.2230 H   0  0  0  0  0  0  0  0  0  0  0  0
  140.5200   81.0677  224.6483 H   0  0  0  0  0  0  0  0  0  0  0  0
  138.0960   81.0730  223.0950 H   0  0  0  0  0  0  0  0  0  0  0  0
  139.3233   78.5267  221.3843 H   0  0  0  0  0  0  0  0  0  0  0  0
  138.9367   69.7886  222.3274 H   0  0  0  0  0  0  0  0  0  0  0  0
  138.8039   68.3613  224.3667 H   0  0  0  0  0  0  0  0  0  0  0  0
  139.2999   68.1503  226.7525 H   0  0  0  0  0  0  0  0  0  0  0  0
  141.2484   71.3290  228.8718 H   0  0  0  0  0  0  0  0  0  0  0  0
  141.3105   72.6225  226.7882 H   0  0  0  0  0  0  0  0  0  0  0  0
  1  2  2  0
  2  3  1  0
  3  4  1  0
  4  5  1  0
  5  6  2  0
  5  7  1  0
  7  8  1  0
  8  9  1  0
  9 10  1  0
 10 11  1  0
 11 12  1  0
 12 13  1  0
 13 14  2  0
 14 15  1  0
 15 16  2  0
 16 17  1  0
 17 18  1  0
 17 19  2  0
  2 20  1  0
 20 21  2  0
 21 22  1  0
 22 23  2  0
 23 24  1  0
 24 25  2  0
 25 26  1  0
 25 27  1  0
 27 28  2  0
 28 29  1  0
 29 30  2  0
 12  7  1  0
 19 13  1  0
 30 20  1  0
 29 23  1  0
  3 31  1  0
  4 32  1  0
  4 33  1  0
  8 34  1  0
  8 35  1  0
  9 36  1  0
  9 37  1  0
 10 38  1  0
 10 39  1  0
 11 40  1  0
 11 41  1  0
 12 42  1  1
 14 43  1  0
 15 44  1  0
 16 45  1  0
 18 46  1  0
 19 47  1  0
 21 48  1  0
 22 49  1  0
 24 50  1  0
 27 51  1  0
 28 52  1  0
M  END
>  <smiles>  (65) 
O=C(NCC(=O)N1CCCCC1c1cccc(O)c1)c1ccc2cc(F)ccc2n1

>  <score_type>  (65) 
oracle

>  <origin>  (65) 
autodockgpu

>  <m_score__min__energy>  (65) 
-8.9600000000000009

>  <m_primary>  (65) 
energy

>  <rmsd>  (65) 
1.5804770899133689

>  <m_score__min__rmsd>  (65) 
1.5804770899133689

>  <meeko>  (65) 
{"free_energy": -8.18, "intermolecular_energy": -9.97, "internal_energy": -1.64, "cluster_size": 10, "cluster_id": 3, "rank_in_cluster": 2}

>  <energy>  (65) 
-8.3

>  <cluster_rmsd>  (65) 
1.19

>  <cluster>  (65) 
1

$$$$

     RDKit          3D

 52 55  0  0  0  0  0  0  0  0999 V2000
  140.8970   71.2450  221.2580 O   0  0  0  0  0  0  0  0  0  0  0  0
  140.3900   71.8480  222.2420 C   0  0  0  0  0  0  0  0  0  0  0  0
  140.0470   73.2260  222.2240 N   0  0  0  0  0  0  0  0  0  0  0  0
  140.3040   73.9740  220.9840 C   0  0  0  0  0  0  0  0  0  0  0  0
  140.2640   75.4260  221.2700 C   0  0  0  0  0  0  0  0  0  0  0  0
  139.8290   75.8250  222.3820 O   0  0  0  0  0  0  0  0  0  0  0  0
  140.6910   76.4240  220.3540 N   0  0  0  0  0  0  0  0  0  0  0  0
  140.2440   76.3500  218.9760 C   0  0  0  0  0  0  0  0  0  0  0  0
  141.4020   76.4220  218.0060 C   0  0  0  0  0  0  0  0  0  0  0  0
  142.5310   77.2710  218.5450 C   0  0  0  0  0  0  0  0  0  0  0  0
  141.9030   78.2920  219.5040 C   0  0  0  0  0  0  0  0  0  0  0  0
  141.5470   77.4990  220.7410 C   0  0  1  0  0  0  0  0  0  0  0  0
  141.0220   78.3620  221.8230 C   0  0  0  0  0  0  0  0  0  0  0  0
  141.8470   78.8290  222.8520 C   0  0  0  0  0  0  0  0  0  0  0  0
  141.3740   79.6290  223.8600 C   0  0  0  0  0  0  0  0  0  0  0  0
  140.0230   79.9840  223.8460 C   0  0  0  0  0  0  0  0  0  0  0  0
  139.1950   79.5280  222.8330 C   0  0  0  0  0  0  0  0  0  0  0  0
  137.8520   79.9220  222.8830 O   0  0  0  0  0  0  0  0  0  0  0  0
  139.6710   78.7230  221.8210 C   0  0  0  0  0  0  0  0  0  0  0  0
  140.1400   71.0770  223.4760 C   0  0  0  0  0  0  0  0  0  0  0  0
  139.5080   69.8630  223.4360 C   0  0  0  0  0  0  0  0  0  0  0  0
  139.2640   69.1230  224.5830 C   0  0  0  0  0  0  0  0  0  0  0  0
  139.6900   69.6630  225.7940 C   0  0  0  0  0  0  0  0  0  0  0  0
  139.4940   69.0060  226.9800 C   0  0  0  0  0  0  0  0  0  0  0  0
  139.9140   69.5350  228.1940 C   0  0  0  0  0  0  0  0  0  0  0  0
  139.7240   68.8910  229.3690 F   0  0  0  0  0  0  0  0  0  0  0  0
  140.5460   70.7540  228.1990 C   0  0  0  0  0  0  0  0  0  0  0  0
  140.7390   71.4060  227.0160 C   0  0  0  0  0  0  0  0  0  0  0  0
  140.3210   70.8810  225.8080 C   0  0  0  0  0  0  0  0  0  0  0  0
  140.5290   71.5500  224.6730 N   0  0  0  0  0  0  0  0  0  0  0  0
  139.6220   73.7030  223.0660 H   0  0  0  0  0  0  0  0  0  0  0  0
  141.2954   73.7042  220.5912 H   0  0  0  0  0  0  0  0  0  0  0  0
  139.5353   73.7246  220.2377 H   0  0  0  0  0  0  0  0  0  0  0  0
  139.7114   75.3995  218.8249 H   0  0  0  0  0  0  0  0  0  0  0  0
  139.5830   77.2081  218.7841 H   0  0  0  0  0  0  0  0  0  0  0  0
  141.7773   75.4044  217.8228 H   0  0  0  0  0  0  0  0  0  0  0  0
  141.0410   76.8827  217.0746 H   0  0  0  0  0  0  0  0  0  0  0  0
  143.2540   76.6410  219.0838 H   0  0  0  0  0  0  0  0  0  0  0  0
  143.0679   77.7763  217.7286 H   0  0  0  0  0  0  0  0  0  0  0  0
  142.6231   79.0869  219.7482 H   0  0  0  0  0  0  0  0  0  0  0  0
  141.0250   78.7871  219.0635 H   0  0  0  0  0  0  0  0  0  0  0  0
  142.4476   77.0548  221.1899 H   0  0  0  0  0  0  0  0  0  0  0  0
  142.9097   78.5451  222.8523 H   0  0  0  0  0  0  0  0  0  0  0  0
  142.0416   79.9824  224.6597 H   0  0  0  0  0  0  0  0  0  0  0  0
  139.6159   80.6266  224.6405 H   0  0  0  0  0  0  0  0  0  0  0  0
  137.1390   79.4950  222.3080 H   0  0  0  0  0  0  0  0  0  0  0  0
  138.9993   78.3701  221.0246 H   0  0  0  0  0  0  0  0  0  0  0  0
  139.1839   69.4625  222.4641 H   0  0  0  0  0  0  0  0  0  0  0  0
  138.7547   68.1490  224.5382 H   0  0  0  0  0  0  0  0  0  0  0  0
  138.9883   68.0292  226.9708 H   0  0  0  0  0  0  0  0  0  0  0  0
  140.8920   71.1988  229.1437 H   0  0  0  0  0  0  0  0  0  0  0  0
  141.2446   72.3829  227.0242 H   0  0  0  0  0  0  0  0  0  0  0  0
  1  2  2  0
  2  3  1  0
  3  4  1  0
  4  5  1  0
  5  6  2  0
  5  7  1  0
  7  8  1  0
  8  9  1  0
  9 10  1  0
 10 11  1  0
 11 12  1  0
 12 13  1  0
 13 14  2  0
 14 15  1  0
 15 16  2  0
 16 17  1  0
 17 18  1  0
 17 19  2  0
  2 20  1  0
 20 21  2  0
 21 22  1  0
 22 23  2  0
 23 24  1  0
 24 25  2  0
 25 26  1  0
 25 27  1  0
 27 28  2  0
 28 29  1  0
 29 30  2  0
 12  7  1  0
 19 13  1  0
 30 20  1  0
 29 23  1  0
  3 31  1  0
  4 32  1  0
  4 33  1  0
  8 34  1  0
  8 35  1  0
  9 36  1  0
  9 37  1  0
 10 38  1  0
 10 39  1  0
 11 40  1  0
 11 41  1  0
 12 42  1  1
 14 43  1  0
 15 44  1  0
 16 45  1  0
 18 46  1  0
 19 47  1  0
 21 48  1  0
 22 49  1  0
 24 50  1  0
 27 51  1  0
 28 52  1  0
M  END
>  <smiles>  (66) 
O=C(NCC(=O)N1CCCCC1c1cccc(O)c1)c1ccc2cc(F)ccc2n1

>  <score_type>  (66) 
oracle

>  <origin>  (66) 
autodockgpu

>  <m_score__min__energy>  (66) 
-8.9600000000000009

>  <m_primary>  (66) 
energy

>  <rmsd>  (66) 
1.5739284726386433

>  <m_score__min__rmsd>  (66) 
1.5739284726386433

>  <meeko>  (66) 
{"free_energy": -7.96, "intermolecular_energy": -9.75, "internal_energy": -1.75, "cluster_size": 10, "cluster_id": 3, "rank_in_cluster": 7}

>  <energy>  (66) 
-8.3

>  <cluster_rmsd>  (66) 
1.19

>  <cluster>  (66) 
1

$$$$

     RDKit          3D

 52 55  0  0  0  0  0  0  0  0999 V2000
  140.7180   71.5460  221.1010 O   0  0  0  0  0  0  0  0  0  0  0  0
  140.2730   72.1080  222.1370 C   0  0  0  0  0  0  0  0  0  0  0  0
  139.9470   73.4890  222.2000 N   0  0  0  0  0  0  0  0  0  0  0  0
  140.1460   74.2910  220.9820 C   0  0  0  0  0  0  0  0  0  0  0  0
  140.7220   75.6040  221.3480 C   0  0  0  0  0  0  0  0  0  0  0  0
  140.4060   76.1330  222.4460 O   0  0  0  0  0  0  0  0  0  0  0  0
  141.6270   76.3270  220.5270 N   0  0  0  0  0  0  0  0  0  0  0  0
  141.8040   77.7480  220.7600 C   0  0  0  0  0  0  0  0  0  0  0  0
  141.6190   78.5520  219.4930 C   0  0  0  0  0  0  0  0  0  0  0  0
  142.0520   77.7770  218.2700 C   0  0  0  0  0  0  0  0  0  0  0  0
  143.1250   76.7800  218.7300 C   0  0  0  0  0  0  0  0  0  0  0  0
  142.3680   75.7060  219.4770 C   0  0  1  0  0  0  0  0  0  0  0  0
  143.2500   74.5960  219.9020 C   0  0  0  0  0  0  0  0  0  0  0  0
  144.5110   74.8360  220.4580 C   0  0  0  0  0  0  0  0  0  0  0  0
  145.3380   73.8180  220.8570 C   0  0  0  0  0  0  0  0  0  0  0  0
  144.8940   72.5020  220.6970 C   0  0  0  0  0  0  0  0  0  0  0  0
  143.6480   72.2510  220.1480 C   0  0  0  0  0  0  0  0  0  0  0  0
  143.2680   70.9100  220.0170 O   0  0  0  0  0  0  0  0  0  0  0  0
  142.8180   73.2750  219.7470 C   0  0  0  0  0  0  0  0  0  0  0  0
  140.0800   71.2850  223.3470 C   0  0  0  0  0  0  0  0  0  0  0  0
  139.4760   70.0580  223.2790 C   0  0  0  0  0  0  0  0  0  0  0  0
  139.2860   69.2680  224.4030 C   0  0  0  0  0  0  0  0  0  0  0  0
  139.7370   69.7720  225.6210 C   0  0  0  0  0  0  0  0  0  0  0  0
  139.5940   69.0650  226.7840 C   0  0  0  0  0  0  0  0  0  0  0  0
  140.0380   69.5580  228.0050 C   0  0  0  0  0  0  0  0  0  0  0  0
  139.9010   68.8640  229.1590 F   0  0  0  0  0  0  0  0  0  0  0  0
  140.6410   70.7910  228.0390 C   0  0  0  0  0  0  0  0  0  0  0  0
  140.7810   71.4930  226.8770 C   0  0  0  0  0  0  0  0  0  0  0  0
  140.3380   71.0040  225.6620 C   0  0  0  0  0  0  0  0  0  0  0  0
  140.4950   71.7210  224.5490 N   0  0  0  0  0  0  0  0  0  0  0  0
  139.5740   73.9320  223.0850 H   0  0  0  0  0  0  0  0  0  0  0  0
  140.8338   73.7645  220.3039 H   0  0  0  0  0  0  0  0  0  0  0  0
  139.1797   74.4407  220.4782 H   0  0  0  0  0  0  0  0  0  0  0  0
  141.0658   78.0814  221.5043 H   0  0  0  0  0  0  0  0  0  0  0  0
  142.8304   77.9101  221.1210 H   0  0  0  0  0  0  0  0  0  0  0  0
  140.5559   78.8153  219.3901 H   0  0  0  0  0  0  0  0  0  0  0  0
  142.2438   79.4544  219.5656 H   0  0  0  0  0  0  0  0  0  0  0  0
  141.1945   77.2383  217.8405 H   0  0  0  0  0  0  0  0  0  0  0  0
  142.4474   78.4515  217.4963 H   0  0  0  0  0  0  0  0  0  0  0  0
  143.6506   76.3511  217.8641 H   0  0  0  0  0  0  0  0  0  0  0  0
  143.8906   77.2584  219.3585 H   0  0  0  0  0  0  0  0  0  0  0  0
  141.6437   75.2098  218.8142 H   0  0  0  0  0  0  0  0  0  0  0  0
  144.8501   75.8754  220.5790 H   0  0  0  0  0  0  0  0  0  0  0  0
  146.3256   74.0312  221.2919 H   0  0  0  0  0  0  0  0  0  0  0  0
  145.5358   71.6645  221.0079 H   0  0  0  0  0  0  0  0  0  0  0  0
  142.5040   70.5080  220.5430 H   0  0  0  0  0  0  0  0  0  0  0  0
  141.8315   73.0570  219.3120 H   0  0  0  0  0  0  0  0  0  0  0  0
  139.1307   69.6874  222.3026 H   0  0  0  0  0  0  0  0  0  0  0  0
  138.7992   68.2839  224.3355 H   0  0  0  0  0  0  0  0  0  0  0  0
  139.1129   68.0763  226.7513 H   0  0  0  0  0  0  0  0  0  0  0  0
  141.0062   71.2072  228.9895 H   0  0  0  0  0  0  0  0  0  0  0  0
  141.2627   72.4814  226.9082 H   0  0  0  0  0  0  0  0  0  0  0  0
  1  2  2  0
  2  3  1  0
  3  4  1  0
  4  5  1  0
  5  6  2  0
  5  7  1  0
  7  8  1  0
  8  9  1  0
  9 10  1  0
 10 11  1  0
 11 12  1  0
 12 13  1  0
 13 14  2  0
 14 15  1  0
 15 16  2  0
 16 17  1  0
 17 18  1  0
 17 19  2  0
  2 20  1  0
 20 21  2  0
 21 22  1  0
 22 23  2  0
 23 24  1  0
 24 25  2  0
 25 26  1  0
 25 27  1  0
 27 28  2  0
 28 29  1  0
 29 30  2  0
 12  7  1  0
 19 13  1  0
 30 20  1  0
 29 23  1  0
  3 31  1  0
  4 32  1  0
  4 33  1  0
  8 34  1  0
  8 35  1  0
  9 36  1  0
  9 37  1  0
 10 38  1  0
 10 39  1  0
 11 40  1  0
 11 41  1  0
 12 42  1  6
 14 43  1  0
 15 44  1  0
 16 45  1  0
 18 46  1  0
 19 47  1  0
 21 48  1  0
 22 49  1  0
 24 50  1  0
 27 51  1  0
 28 52  1  0
M  END
>  <smiles>  (67) 
O=C(NCC(=O)N1CCCCC1c1cccc(O)c1)c1ccc2cc(F)ccc2n1

>  <score_type>  (67) 
oracle

>  <origin>  (67) 
autodockgpu

>  <m_score__min__energy>  (67) 
-8.9600000000000009

>  <m_primary>  (67) 
energy

>  <rmsd>  (67) 
2.3566275199758224

>  <m_score__min__rmsd>  (67) 
2.3566275199758224

>  <meeko>  (67) 
{"free_energy": -8.22, "intermolecular_energy": -10.01, "internal_energy": -2.52, "cluster_size": 26, "cluster_id": 1, "rank_in_cluster": 22}

>  <energy>  (67) 
-8.29

>  <cluster_rmsd>  (67) 
1.19

>  <cluster>  (67) 
1

$$$$

     RDKit          3D

 52 55  0  0  0  0  0  0  0  0999 V2000
  140.1700   71.7250  221.0470 O   0  0  0  0  0  0  0  0  0  0  0  0
  139.9370   72.2620  222.1630 C   0  0  0  0  0  0  0  0  0  0  0  0
  139.7560   73.6610  222.3360 N   0  0  0  0  0  0  0  0  0  0  0  0
  139.8500   74.5110  221.1390 C   0  0  0  0  0  0  0  0  0  0  0  0
  140.8050   75.6120  221.3940 C   0  0  0  0  0  0  0  0  0  0  0  0
  140.9360   76.0600  222.5630 O   0  0  0  0  0  0  0  0  0  0  0  0
  141.6040   76.2150  220.3850 N   0  0  0  0  0  0  0  0  0  0  0  0
  141.8520   77.6420  220.4460 C   0  0  0  0  0  0  0  0  0  0  0  0
  141.5110   78.3280  219.1420 C   0  0  0  0  0  0  0  0  0  0  0  0
  141.7440   77.4210  217.9560 C   0  0  0  0  0  0  0  0  0  0  0  0
  142.8440   76.4300  218.3620 C   0  0  0  0  0  0  0  0  0  0  0  0
  142.1710   75.4650  219.3110 C   0  0  1  0  0  0  0  0  0  0  0  0
  143.0740   74.3660  219.7200 C   0  0  0  0  0  0  0  0  0  0  0  0
  142.6120   73.2810  220.4720 C   0  0  0  0  0  0  0  0  0  0  0  0
  143.4370   72.2560  220.8570 C   0  0  0  0  0  0  0  0  0  0  0  0
  144.7810   72.3080  220.4780 C   0  0  0  0  0  0  0  0  0  0  0  0
  145.2520   73.3770  219.7320 C   0  0  0  0  0  0  0  0  0  0  0  0
  146.6080   73.3640  219.3880 O   0  0  0  0  0  0  0  0  0  0  0  0
  144.4220   74.4070  219.3470 C   0  0  0  0  0  0  0  0  0  0  0  0
  139.8470   71.3890  223.3500 C   0  0  0  0  0  0  0  0  0  0  0  0
  139.2680   70.1510  223.2750 C   0  0  0  0  0  0  0  0  0  0  0  0
  139.1740   69.3150  224.3780 C   0  0  0  0  0  0  0  0  0  0  0  0
  139.6960   69.7850  225.5810 C   0  0  0  0  0  0  0  0  0  0  0  0
  139.6490   69.0320  226.7240 C   0  0  0  0  0  0  0  0  0  0  0  0
  140.1650   69.4890  227.9290 C   0  0  0  0  0  0  0  0  0  0  0  0
  140.1230   68.7500  229.0620 F   0  0  0  0  0  0  0  0  0  0  0  0
  140.7400   70.7360  227.9710 C   0  0  0  0  0  0  0  0  0  0  0  0
  140.7840   71.4840  226.8300 C   0  0  0  0  0  0  0  0  0  0  0  0
  140.2700   71.0300  225.6300 C   0  0  0  0  0  0  0  0  0  0  0  0
  140.3330   71.7910  224.5370 N   0  0  0  0  0  0  0  0  0  0  0  0
  139.5620   74.0820  223.2850 H   0  0  0  0  0  0  0  0  0  0  0  0
  140.2018   73.9094  220.2880 H   0  0  0  0  0  0  0  0  0  0  0  0
  138.8597   74.9292  220.9057 H   0  0  0  0  0  0  0  0  0  0  0  0
  141.2371   78.0762  221.2481 H   0  0  0  0  0  0  0  0  0  0  0  0
  142.9235   77.7945  220.6424 H   0  0  0  0  0  0  0  0  0  0  0  0
  140.4519   78.6245  219.1614 H   0  0  0  0  0  0  0  0  0  0  0  0
  142.1643   79.2066  219.0355 H   0  0  0  0  0  0  0  0  0  0  0  0
  140.8198   76.8791  217.7068 H   0  0  0  0  0  0  0  0  0  0  0  0
  142.0432   78.0002  217.0700 H   0  0  0  0  0  0  0  0  0  0  0  0
  143.2302   75.8985  217.4798 H   0  0  0  0  0  0  0  0  0  0  0  0
  143.7035   76.9348  218.8271 H   0  0  0  0  0  0  0  0  0  0  0  0
  141.3467   74.9373  218.8089 H   0  0  0  0  0  0  0  0  0  0  0  0
  141.5520   73.2491  220.7641 H   0  0  0  0  0  0  0  0  0  0  0  0
  143.0506   71.4136  221.4495 H   0  0  0  0  0  0  0  0  0  0  0  0
  145.4662   71.4993  220.7721 H   0  0  0  0  0  0  0  0  0  0  0  0
  147.1030   74.1970  219.0980 H   0  0  0  0  0  0  0  0  0  0  0  0
  144.8128   75.2483  218.7558 H   0  0  0  0  0  0  0  0  0  0  0  0
  138.8649   69.8085  222.3105 H   0  0  0  0  0  0  0  0  0  0  0  0
  138.7065   68.3219  224.3057 H   0  0  0  0  0  0  0  0  0  0  0  0
  139.1880   68.0340  226.6860 H   0  0  0  0  0  0  0  0  0  0  0  0
  141.1589   71.1260  228.9104 H   0  0  0  0  0  0  0  0  0  0  0  0
  141.2443   72.4824  226.8668 H   0  0  0  0  0  0  0  0  0  0  0  0
  1  2  2  0
  2  3  1  0
  3  4  1  0
  4  5  1  0
  5  6  2  0
  5  7  1  0
  7  8  1  0
  8  9  1  0
  9 10  1  0
 10 11  1  0
 11 12  1  0
 12 13  1  0
 13 14  2  0
 14 15  1  0
 15 16  2  0
 16 17  1  0
 17 18  1  0
 17 19  2  0
  2 20  1  0
 20 21  2  0
 21 22  1  0
 22 23  2  0
 23 24  1  0
 24 25  2  0
 25 26  1  0
 25 27  1  0
 27 28  2  0
 28 29  1  0
 29 30  2  0
 12  7  1  0
 19 13  1  0
 30 20  1  0
 29 23  1  0
  3 31  1  0
  4 32  1  0
  4 33  1  0
  8 34  1  0
  8 35  1  0
  9 36  1  0
  9 37  1  0
 10 38  1  0
 10 39  1  0
 11 40  1  0
 11 41  1  0
 12 42  1  6
 14 43  1  0
 15 44  1  0
 16 45  1  0
 18 46  1  0
 19 47  1  0
 21 48  1  0
 22 49  1  0
 24 50  1  0
 27 51  1  0
 28 52  1  0
M  END
>  <smiles>  (68) 
O=C(NCC(=O)N1CCCCC1c1cccc(O)c1)c1ccc2cc(F)ccc2n1

>  <score_type>  (68) 
oracle

>  <origin>  (68) 
autodockgpu

>  <m_score__min__energy>  (68) 
-8.9600000000000009

>  <m_primary>  (68) 
energy

>  <rmsd>  (68) 
2.2349386176322934

>  <m_score__min__rmsd>  (68) 
2.2349386176322934

>  <meeko>  (68) 
{"free_energy": -8.92, "intermolecular_energy": -10.71, "internal_energy": -1.78, "cluster_size": 26, "cluster_id": 1, "rank_in_cluster": 3}

>  <energy>  (68) 
-8.29

>  <cluster_rmsd>  (68) 
1.18

>  <cluster>  (68) 
1

$$$$

     RDKit          3D

 52 55  0  0  0  0  0  0  0  0999 V2000
  140.6940   71.2350  221.1520 O   0  0  0  0  0  0  0  0  0  0  0  0
  140.3320   71.8620  222.1840 C   0  0  0  0  0  0  0  0  0  0  0  0
  140.1430   73.2690  222.2200 N   0  0  0  0  0  0  0  0  0  0  0  0
  140.3870   74.0190  220.9780 C   0  0  0  0  0  0  0  0  0  0  0  0
  140.8050   75.3990  221.3120 C   0  0  0  0  0  0  0  0  0  0  0  0
  140.3710   75.9380  222.3640 O   0  0  0  0  0  0  0  0  0  0  0  0
  141.6820   76.1760  220.5090 N   0  0  0  0  0  0  0  0  0  0  0  0
  141.6980   77.6160  220.6800 C   0  0  0  0  0  0  0  0  0  0  0  0
  141.5120   78.3400  219.3660 C   0  0  0  0  0  0  0  0  0  0  0  0
  142.0990   77.5610  218.2110 C   0  0  0  0  0  0  0  0  0  0  0  0
  143.2370   76.7040  218.7830 C   0  0  0  0  0  0  0  0  0  0  0  0
  142.5470   75.5900  219.5370 C   0  0  1  0  0  0  0  0  0  0  0  0
  143.5100   74.5990  220.0680 C   0  0  0  0  0  0  0  0  0  0  0  0
  144.8000   74.9700  220.4620 C   0  0  0  0  0  0  0  0  0  0  0  0
  145.7010   74.0620  220.9560 C   0  0  0  0  0  0  0  0  0  0  0  0
  145.3040   72.7270  221.0670 C   0  0  0  0  0  0  0  0  0  0  0  0
  144.0290   72.3460  220.6810 C   0  0  0  0  0  0  0  0  0  0  0  0
  143.7000   70.9930  220.8190 O   0  0  0  0  0  0  0  0  0  0  0  0
  143.1250   73.2590  220.1830 C   0  0  0  0  0  0  0  0  0  0  0  0
  140.0920   71.0890  223.4190 C   0  0  0  0  0  0  0  0  0  0  0  0
  139.4840   69.8620  223.3790 C   0  0  0  0  0  0  0  0  0  0  0  0
  139.2500   69.1200  224.5270 C   0  0  0  0  0  0  0  0  0  0  0  0
  139.6590   69.6710  225.7380 C   0  0  0  0  0  0  0  0  0  0  0  0
  139.4710   69.0130  226.9240 C   0  0  0  0  0  0  0  0  0  0  0  0
  139.8750   69.5530  228.1390 C   0  0  0  0  0  0  0  0  0  0  0  0
  139.6920   68.9080  229.3150 F   0  0  0  0  0  0  0  0  0  0  0  0
  140.4820   70.7850  228.1450 C   0  0  0  0  0  0  0  0  0  0  0  0
  140.6680   71.4380  226.9610 C   0  0  0  0  0  0  0  0  0  0  0  0
  140.2660   70.9020  225.7520 C   0  0  0  0  0  0  0  0  0  0  0  0
  140.4660   71.5720  224.6160 N   0  0  0  0  0  0  0  0  0  0  0  0
  139.8380   73.7660  223.1010 H   0  0  0  0  0  0  0  0  0  0  0  0
  141.1818   73.5243  220.4005 H   0  0  0  0  0  0  0  0  0  0  0  0
  139.4647   74.0488  220.3792 H   0  0  0  0  0  0  0  0  0  0  0  0
  140.8843   77.9025  221.3625 H   0  0  0  0  0  0  0  0  0  0  0  0
  142.6778   77.9004  221.0911 H   0  0  0  0  0  0  0  0  0  0  0  0
  140.4362   78.4852  219.1880 H   0  0  0  0  0  0  0  0  0  0  0  0
  142.0347   79.3058  219.4294 H   0  0  0  0  0  0  0  0  0  0  0  0
  141.3301   76.9164  217.7600 H   0  0  0  0  0  0  0  0  0  0  0  0
  142.4716   78.2383  217.4285 H   0  0  0  0  0  0  0  0  0  0  0  0
  143.8582   76.2953  217.9724 H   0  0  0  0  0  0  0  0  0  0  0  0
  143.9081   77.2873  219.4306 H   0  0  0  0  0  0  0  0  0  0  0  0
  141.9201   74.9915  218.8596 H   0  0  0  0  0  0  0  0  0  0  0  0
  145.1013   76.0242  220.3727 H   0  0  0  0  0  0  0  0  0  0  0  0
  146.7110   74.3767  221.2573 H   0  0  0  0  0  0  0  0  0  0  0  0
  146.0051   71.9769  221.4617 H   0  0  0  0  0  0  0  0  0  0  0  0
  144.0830   70.4130  221.5520 H   0  0  0  0  0  0  0  0  0  0  0  0
  142.1168   72.9393  219.8807 H   0  0  0  0  0  0  0  0  0  0  0  0
  139.1719   69.4529  222.4068 H   0  0  0  0  0  0  0  0  0  0  0  0
  138.7609   68.1357  224.4823 H   0  0  0  0  0  0  0  0  0  0  0  0
  138.9850   68.0262  226.9147 H   0  0  0  0  0  0  0  0  0  0  0  0
  140.8135   71.2390  229.0905 H   0  0  0  0  0  0  0  0  0  0  0  0
  141.1544   72.4246  226.9692 H   0  0  0  0  0  0  0  0  0  0  0  0
  1  2  2  0
  2  3  1  0
  3  4  1  0
  4  5  1  0
  5  6  2  0
  5  7  1  0
  7  8  1  0
  8  9  1  0
  9 10  1  0
 10 11  1  0
 11 12  1  0
 12 13  1  0
 13 14  2  0
 14 15  1  0
 15 16  2  0
 16 17  1  0
 17 18  1  0
 17 19  2  0
  2 20  1  0
 20 21  2  0
 21 22  1  0
 22 23  2  0
 23 24  1  0
 24 25  2  0
 25 26  1  0
 25 27  1  0
 27 28  2  0
 28 29  1  0
 29 30  2  0
 12  7  1  0
 19 13  1  0
 30 20  1  0
 29 23  1  0
  3 31  1  0
  4 32  1  0
  4 33  1  0
  8 34  1  0
  8 35  1  0
  9 36  1  0
  9 37  1  0
 10 38  1  0
 10 39  1  0
 11 40  1  0
 11 41  1  0
 12 42  1  6
 14 43  1  0
 15 44  1  0
 16 45  1  0
 18 46  1  0
 19 47  1  0
 21 48  1  0
 22 49  1  0
 24 50  1  0
 27 51  1  0
 28 52  1  0
M  END
>  <smiles>  (69) 
O=C(NCC(=O)N1CCCCC1c1cccc(O)c1)c1ccc2cc(F)ccc2n1

>  <score_type>  (69) 
oracle

>  <origin>  (69) 
autodockgpu

>  <m_score__min__energy>  (69) 
-8.9600000000000009

>  <m_primary>  (69) 
energy

>  <rmsd>  (69) 
2.333160682398084

>  <m_score__min__rmsd>  (69) 
2.333160682398084

>  <meeko>  (69) 
{"free_energy": -8.48, "intermolecular_energy": -10.27, "internal_energy": -1.81, "cluster_size": 26, "cluster_id": 1, "rank_in_cluster": 10}

>  <energy>  (69) 
-8.29

>  <cluster_rmsd>  (69) 
1.17

>  <cluster>  (69) 
1

$$$$

     RDKit          3D

 52 55  0  0  0  0  0  0  0  0999 V2000
  139.8550   71.3690  221.0190 O   0  0  0  0  0  0  0  0  0  0  0  0
  139.7760   71.9210  222.1490 C   0  0  0  0  0  0  0  0  0  0  0  0
  139.6770   73.3260  222.3290 N   0  0  0  0  0  0  0  0  0  0  0  0
  139.6680   74.1670  221.1220 C   0  0  0  0  0  0  0  0  0  0  0  0
  139.6440   75.5930  221.5170 C   0  0  0  0  0  0  0  0  0  0  0  0
  139.8890   75.9080  222.7110 O   0  0  0  0  0  0  0  0  0  0  0  0
  139.3560   76.6570  220.6210 N   0  0  0  0  0  0  0  0  0  0  0  0
  138.0770   76.6730  219.9380 C   0  0  0  0  0  0  0  0  0  0  0  0
  138.2410   76.8260  218.4420 C   0  0  0  0  0  0  0  0  0  0  0  0
  139.4610   77.6490  218.0950 C   0  0  0  0  0  0  0  0  0  0  0  0
  139.7130   78.5940  219.2790 C   0  0  0  0  0  0  0  0  0  0  0  0
  140.2830   77.7130  220.3670 C   0  0  1  0  0  0  0  0  0  0  0  0
  140.6890   78.4930  221.5590 C   0  0  0  0  0  0  0  0  0  0  0  0
  139.7780   78.8040  222.5740 C   0  0  0  0  0  0  0  0  0  0  0  0
  140.1410   79.5250  223.6820 C   0  0  0  0  0  0  0  0  0  0  0  0
  141.4660   79.9560  223.7890 C   0  0  0  0  0  0  0  0  0  0  0  0
  142.3780   79.6540  222.7910 C   0  0  0  0  0  0  0  0  0  0  0  0
  143.6870   80.1170  222.9640 O   0  0  0  0  0  0  0  0  0  0  0  0
  142.0120   78.9300  221.6770 C   0  0  0  0  0  0  0  0  0  0  0  0
  139.7870   71.0580  223.3470 C   0  0  0  0  0  0  0  0  0  0  0  0
  139.2830   69.7850  223.3060 C   0  0  0  0  0  0  0  0  0  0  0  0
  139.2840   68.9580  224.4190 C   0  0  0  0  0  0  0  0  0  0  0  0
  139.8220   69.4720  225.5960 C   0  0  0  0  0  0  0  0  0  0  0  0
  139.8670   68.7310  226.7470 C   0  0  0  0  0  0  0  0  0  0  0  0
  140.4010   69.2340  227.9270 C   0  0  0  0  0  0  0  0  0  0  0  0
  140.4490   68.5060  229.0670 F   0  0  0  0  0  0  0  0  0  0  0  0
  140.8990   70.5130  227.9340 C   0  0  0  0  0  0  0  0  0  0  0  0
  140.8520   71.2490  226.7860 C   0  0  0  0  0  0  0  0  0  0  0  0
  140.3200   70.7510  225.6110 C   0  0  0  0  0  0  0  0  0  0  0  0
  140.2930   71.5020  224.5100 N   0  0  0  0  0  0  0  0  0  0  0  0
  139.6120   73.7600  223.2910 H   0  0  0  0  0  0  0  0  0  0  0  0
  140.5716   73.9659  220.5278 H   0  0  0  0  0  0  0  0  0  0  0  0
  138.7761   73.9372  220.5205 H   0  0  0  0  0  0  0  0  0  0  0  0
  137.5516   75.7288  220.1439 H   0  0  0  0  0  0  0  0  0  0  0  0
  137.5021   77.5344  220.3088 H   0  0  0  0  0  0  0  0  0  0  0  0
  138.3438   75.8281  217.9907 H   0  0  0  0  0  0  0  0  0  0  0  0
  137.3539   77.3457  218.0509 H   0  0  0  0  0  0  0  0  0  0  0  0
  140.3301   76.9919  217.9438 H   0  0  0  0  0  0  0  0  0  0  0  0
  139.3024   78.2157  217.1657 H   0  0  0  0  0  0  0  0  0  0  0  0
  140.4315   79.3792  219.0011 H   0  0  0  0  0  0  0  0  0  0  0  0
  138.7950   79.1074  219.6011 H   0  0  0  0  0  0  0  0  0  0  0  0
  141.2249   77.2498  220.0379 H   0  0  0  0  0  0  0  0  0  0  0  0
  138.7377   78.4592  222.4801 H   0  0  0  0  0  0  0  0  0  0  0  0
  139.4073   79.7585  224.4676 H   0  0  0  0  0  0  0  0  0  0  0  0
  141.7854   80.5361  224.6673 H   0  0  0  0  0  0  0  0  0  0  0  0
  144.4420   79.8550  222.3450 H   0  0  0  0  0  0  0  0  0  0  0  0
  142.7487   78.6996  220.8933 H   0  0  0  0  0  0  0  0  0  0  0  0
  138.8647   69.4073  222.3614 H   0  0  0  0  0  0  0  0  0  0  0  0
  138.8763   67.9373  224.3740 H   0  0  0  0  0  0  0  0  0  0  0  0
  139.4680   67.7060  226.7369 H   0  0  0  0  0  0  0  0  0  0  0  0
  141.3299   70.9387  228.8522 H   0  0  0  0  0  0  0  0  0  0  0  0
  141.2512   72.2740  226.7957 H   0  0  0  0  0  0  0  0  0  0  0  0
  1  2  2  0
  2  3  1  0
  3  4  1  0
  4  5  1  0
  5  6  2  0
  5  7  1  0
  7  8  1  0
  8  9  1  0
  9 10  1  0
 10 11  1  0
 11 12  1  0
 12 13  1  0
 13 14  2  0
 14 15  1  0
 15 16  2  0
 16 17  1  0
 17 18  1  0
 17 19  2  0
  2 20  1  0
 20 21  2  0
 21 22  1  0
 22 23  2  0
 23 24  1  0
 24 25  2  0
 25 26  1  0
 25 27  1  0
 27 28  2  0
 28 29  1  0
 29 30  2  0
 12  7  1  0
 19 13  1  0
 30 20  1  0
 29 23  1  0
  3 31  1  0
  4 32  1  0
  4 33  1  0
  8 34  1  0
  8 35  1  0
  9 36  1  0
  9 37  1  0
 10 38  1  0
 10 39  1  0
 11 40  1  0
 11 41  1  0
 12 42  1  6
 14 43  1  0
 15 44  1  0
 16 45  1  0
 18 46  1  0
 19 47  1  0
 21 48  1  0
 22 49  1  0
 24 50  1  0
 27 51  1  0
 28 52  1  0
M  END
>  <smiles>  (70) 
O=C(NCC(=O)N1CCCCC1c1cccc(O)c1)c1ccc2cc(F)ccc2n1

>  <score_type>  (70) 
oracle

>  <origin>  (70) 
autodockgpu

>  <m_score__min__energy>  (70) 
-8.9600000000000009

>  <m_primary>  (70) 
energy

>  <rmsd>  (70) 
1.6008202140246657

>  <m_score__min__rmsd>  (70) 
1.6008202140246657

>  <meeko>  (70) 
{"free_energy": -7.97, "intermolecular_energy": -9.76, "internal_energy": -1.84, "cluster_size": 10, "cluster_id": 3, "rank_in_cluster": 6}

>  <energy>  (70) 
-8.28

>  <cluster_rmsd>  (70) 
0.81

>  <cluster>  (70) 
1

$$$$

     RDKit          3D

 52 55  0  0  0  0  0  0  0  0999 V2000
  140.3280   71.7590  221.0400 O   0  0  0  0  0  0  0  0  0  0  0  0
  140.0290   72.2990  222.1390 C   0  0  0  0  0  0  0  0  0  0  0  0
  139.7860   73.6910  222.2870 N   0  0  0  0  0  0  0  0  0  0  0  0
  139.8940   74.5310  221.0850 C   0  0  0  0  0  0  0  0  0  0  0  0
  140.8600   75.6240  221.3370 C   0  0  0  0  0  0  0  0  0  0  0  0
  140.9070   76.1580  222.4750 O   0  0  0  0  0  0  0  0  0  0  0  0
  141.7590   76.1250  220.3580 N   0  0  0  0  0  0  0  0  0  0  0  0
  142.2030   77.5020  220.4520 C   0  0  0  0  0  0  0  0  0  0  0  0
  141.9930   78.2500  219.1550 C   0  0  0  0  0  0  0  0  0  0  0  0
  142.1250   77.3390  217.9560 C   0  0  0  0  0  0  0  0  0  0  0  0
  143.0660   76.1970  218.3660 C   0  0  0  0  0  0  0  0  0  0  0  0
  142.2420   75.3210  219.2810 C   0  0  1  0  0  0  0  0  0  0  0  0
  142.9720   74.0990  219.6880 C   0  0  0  0  0  0  0  0  0  0  0  0
  142.5150   72.8230  219.3400 C   0  0  0  0  0  0  0  0  0  0  0  0
  143.1820   71.6840  219.7100 C   0  0  0  0  0  0  0  0  0  0  0  0
  144.3550   71.8150  220.4580 C   0  0  0  0  0  0  0  0  0  0  0  0
  144.8190   73.0720  220.8080 C   0  0  0  0  0  0  0  0  0  0  0  0
  146.0000   73.1290  221.5570 O   0  0  0  0  0  0  0  0  0  0  0  0
  144.1480   74.2170  220.4370 C   0  0  0  0  0  0  0  0  0  0  0  0
  139.9250   71.4360  223.3320 C   0  0  0  0  0  0  0  0  0  0  0  0
  139.3840   70.1800  223.2520 C   0  0  0  0  0  0  0  0  0  0  0  0
  139.2780   69.3530  224.3600 C   0  0  0  0  0  0  0  0  0  0  0  0
  139.7470   69.8500  225.5740 C   0  0  0  0  0  0  0  0  0  0  0  0
  139.6840   69.1070  226.7230 C   0  0  0  0  0  0  0  0  0  0  0  0
  140.1480   69.5910  227.9400 C   0  0  0  0  0  0  0  0  0  0  0  0
  140.0900   68.8630  229.0790 F   0  0  0  0  0  0  0  0  0  0  0  0
  140.6860   70.8540  227.9860 C   0  0  0  0  0  0  0  0  0  0  0  0
  140.7460   71.5920  226.8390 C   0  0  0  0  0  0  0  0  0  0  0  0
  140.2840   71.1110  225.6280 C   0  0  0  0  0  0  0  0  0  0  0  0
  140.3610   71.8630  224.5300 N   0  0  0  0  0  0  0  0  0  0  0  0
  139.5350   74.1140  223.2230 H   0  0  0  0  0  0  0  0  0  0  0  0
  140.2431   73.9197  220.2397 H   0  0  0  0  0  0  0  0  0  0  0  0
  138.9092   74.9579  220.8441 H   0  0  0  0  0  0  0  0  0  0  0  0
  141.6359   78.0052  221.2490 H   0  0  0  0  0  0  0  0  0  0  0  0
  143.2803   77.4992  220.6742 H   0  0  0  0  0  0  0  0  0  0  0  0
  140.9857   78.6920  219.1576 H   0  0  0  0  0  0  0  0  0  0  0  0
  142.7656   79.0294  219.0799 H   0  0  0  0  0  0  0  0  0  0  0  0
  141.1403   76.9361  217.6766 H   0  0  0  0  0  0  0  0  0  0  0  0
  142.5230   77.8851  217.0880 H   0  0  0  0  0  0  0  0  0  0  0  0
  143.3952   75.6310  217.4821 H   0  0  0  0  0  0  0  0  0  0  0  0
  143.9764   76.5685  218.8590 H   0  0  0  0  0  0  0  0  0  0  0  0
  141.3644   74.9234  218.7502 H   0  0  0  0  0  0  0  0  0  0  0  0
  141.5908   72.7310  218.7506 H   0  0  0  0  0  0  0  0  0  0  0  0
  142.8032   70.6914  219.4251 H   0  0  0  0  0  0  0  0  0  0  0  0
  144.9107   70.9182  220.7693 H   0  0  0  0  0  0  0  0  0  0  0  0
  146.4200   72.3090  221.9730 H   0  0  0  0  0  0  0  0  0  0  0  0
  144.5305   75.2074  220.7249 H   0  0  0  0  0  0  0  0  0  0  0  0
  139.0225   69.8163  222.2788 H   0  0  0  0  0  0  0  0  0  0  0  0
  138.8416   68.3462  224.2835 H   0  0  0  0  0  0  0  0  0  0  0  0
  139.2528   68.0959  226.6810 H   0  0  0  0  0  0  0  0  0  0  0  0
  141.0633   71.2651  228.9339 H   0  0  0  0  0  0  0  0  0  0  0  0
  141.1765   72.6035  226.8798 H   0  0  0  0  0  0  0  0  0  0  0  0
  1  2  2  0
  2  3  1  0
  3  4  1  0
  4  5  1  0
  5  6  2  0
  5  7  1  0
  7  8  1  0
  8  9  1  0
  9 10  1  0
 10 11  1  0
 11 12  1  0
 12 13  1  0
 13 14  2  0
 14 15  1  0
 15 16  2  0
 16 17  1  0
 17 18  1  0
 17 19  2  0
  2 20  1  0
 20 21  2  0
 21 22  1  0
 22 23  2  0
 23 24  1  0
 24 25  2  0
 25 26  1  0
 25 27  1  0
 27 28  2  0
 28 29  1  0
 29 30  2  0
 12  7  1  0
 19 13  1  0
 30 20  1  0
 29 23  1  0
  3 31  1  0
  4 32  1  0
  4 33  1  0
  8 34  1  0
  8 35  1  0
  9 36  1  0
  9 37  1  0
 10 38  1  0
 10 39  1  0
 11 40  1  0
 11 41  1  0
 12 42  1  6
 14 43  1  0
 15 44  1  0
 16 45  1  0
 18 46  1  0
 19 47  1  0
 21 48  1  0
 22 49  1  0
 24 50  1  0
 27 51  1  0
 28 52  1  0
M  END
>  <smiles>  (71) 
O=C(NCC(=O)N1CCCCC1c1cccc(O)c1)c1ccc2cc(F)ccc2n1

>  <score_type>  (71) 
oracle

>  <origin>  (71) 
autodockgpu

>  <m_score__min__energy>  (71) 
-8.9600000000000009

>  <m_primary>  (71) 
energy

>  <rmsd>  (71) 
2.3339600620790404

>  <m_score__min__rmsd>  (71) 
2.3339600620790404

>  <meeko>  (71) 
{"free_energy": -8.25, "intermolecular_energy": -10.04, "internal_energy": -1.97, "cluster_size": 26, "cluster_id": 1, "rank_in_cluster": 21}

>  <energy>  (71) 
-8.25

>  <cluster_rmsd>  (71) 
0.87

>  <cluster>  (71) 
1

$$$$

     RDKit          3D

 52 55  0  0  0  0  0  0  0  0999 V2000
  140.0890   71.7430  221.0420 O   0  0  0  0  0  0  0  0  0  0  0  0
  139.8910   72.2800  222.1650 C   0  0  0  0  0  0  0  0  0  0  0  0
  139.7200   73.6780  222.3460 N   0  0  0  0  0  0  0  0  0  0  0  0
  139.7810   74.5310  221.1480 C   0  0  0  0  0  0  0  0  0  0  0  0
  140.8110   75.5750  221.3420 C   0  0  0  0  0  0  0  0  0  0  0  0
  141.0330   76.0190  222.4990 O   0  0  0  0  0  0  0  0  0  0  0  0
  141.5870   76.1270  220.2870 N   0  0  0  0  0  0  0  0  0  0  0  0
  141.8300   77.5560  220.2690 C   0  0  0  0  0  0  0  0  0  0  0  0
  141.4600   78.1720  218.9390 C   0  0  0  0  0  0  0  0  0  0  0  0
  141.6710   77.2050  217.7960 C   0  0  0  0  0  0  0  0  0  0  0  0
  142.7830   76.2390  218.2290 C   0  0  0  0  0  0  0  0  0  0  0  0
  142.1340   75.3230  219.2410 C   0  0  1  0  0  0  0  0  0  0  0  0
  143.0490   74.2490  219.6880 C   0  0  0  0  0  0  0  0  0  0  0  0
  142.5800   73.1320  220.3880 C   0  0  0  0  0  0  0  0  0  0  0  0
  143.4170   72.1300  220.8060 C   0  0  0  0  0  0  0  0  0  0  0  0
  144.7800   72.2390  220.5160 C   0  0  0  0  0  0  0  0  0  0  0  0
  145.2570   73.3400  219.8240 C   0  0  0  0  0  0  0  0  0  0  0  0
  146.6330   73.3840  219.5680 O   0  0  0  0  0  0  0  0  0  0  0  0
  144.4150   74.3470  219.4040 C   0  0  0  0  0  0  0  0  0  0  0  0
  139.8330   71.4050  223.3530 C   0  0  0  0  0  0  0  0  0  0  0  0
  139.2550   70.1650  223.2910 C   0  0  0  0  0  0  0  0  0  0  0  0
  139.1900   69.3270  224.3940 C   0  0  0  0  0  0  0  0  0  0  0  0
  139.7410   69.7970  225.5840 C   0  0  0  0  0  0  0  0  0  0  0  0
  139.7240   69.0420  226.7270 C   0  0  0  0  0  0  0  0  0  0  0  0
  140.2690   69.4990  227.9200 C   0  0  0  0  0  0  0  0  0  0  0  0
  140.2570   68.7580  229.0520 F   0  0  0  0  0  0  0  0  0  0  0  0
  140.8420   70.7470  227.9490 C   0  0  0  0  0  0  0  0  0  0  0  0
  140.8560   71.4970  226.8080 C   0  0  0  0  0  0  0  0  0  0  0  0
  140.3130   71.0430  225.6210 C   0  0  0  0  0  0  0  0  0  0  0  0
  140.3470   71.8060  224.5280 N   0  0  0  0  0  0  0  0  0  0  0  0
  139.5540   74.0980  223.3010 H   0  0  0  0  0  0  0  0  0  0  0  0
  140.0405   73.9171  220.2729 H   0  0  0  0  0  0  0  0  0  0  0  0
  138.8023   75.0055  220.9837 H   0  0  0  0  0  0  0  0  0  0  0  0
  141.2295   78.0292  221.0599 H   0  0  0  0  0  0  0  0  0  0  0  0
  142.9046   77.7221  220.4354 H   0  0  0  0  0  0  0  0  0  0  0  0
  140.4006   78.4669  218.9653 H   0  0  0  0  0  0  0  0  0  0  0  0
  142.1086   79.0449  218.7734 H   0  0  0  0  0  0  0  0  0  0  0  0
  140.7436   76.6486  217.5950 H   0  0  0  0  0  0  0  0  0  0  0  0
  141.9492   77.7384  216.8751 H   0  0  0  0  0  0  0  0  0  0  0  0
  143.1521   75.6633  217.3674 H   0  0  0  0  0  0  0  0  0  0  0  0
  143.6505   76.7694  218.6486 H   0  0  0  0  0  0  0  0  0  0  0  0
  141.3016   74.7677  218.7840 H   0  0  0  0  0  0  0  0  0  0  0  0
  141.5054   73.0554  220.6100 H   0  0  0  0  0  0  0  0  0  0  0  0
  143.0256   71.2616  221.3561 H   0  0  0  0  0  0  0  0  0  0  0  0
  145.4748   71.4493  220.8378 H   0  0  0  0  0  0  0  0  0  0  0  0
  147.0650   74.1360  219.0480 H   0  0  0  0  0  0  0  0  0  0  0  0
  144.8108   75.2137  218.8544 H   0  0  0  0  0  0  0  0  0  0  0  0
  138.8289   69.8230  222.3363 H   0  0  0  0  0  0  0  0  0  0  0  0
  138.7230   68.3330  224.3319 H   0  0  0  0  0  0  0  0  0  0  0  0
  139.2645   68.0430  226.6991 H   0  0  0  0  0  0  0  0  0  0  0  0
  141.2833   71.1367  228.8782 H   0  0  0  0  0  0  0  0  0  0  0  0
  141.3150   72.4963  226.8345 H   0  0  0  0  0  0  0  0  0  0  0  0
  1  2  2  0
  2  3  1  0
  3  4  1  0
  4  5  1  0
  5  6  2  0
  5  7  1  0
  7  8  1  0
  8  9  1  0
  9 10  1  0
 10 11  1  0
 11 12  1  0
 12 13  1  0
 13 14  2  0
 14 15  1  0
 15 16  2  0
 16 17  1  0
 17 18  1  0
 17 19  2  0
  2 20  1  0
 20 21  2  0
 21 22  1  0
 22 23  2  0
 23 24  1  0
 24 25  2  0
 25 26  1  0
 25 27  1  0
 27 28  2  0
 28 29  1  0
 29 30  2  0
 12  7  1  0
 19 13  1  0
 30 20  1  0
 29 23  1  0
  3 31  1  0
  4 32  1  0
  4 33  1  0
  8 34  1  0
  8 35  1  0
  9 36  1  0
  9 37  1  0
 10 38  1  0
 10 39  1  0
 11 40  1  0
 11 41  1  0
 12 42  1  6
 14 43  1  0
 15 44  1  0
 16 45  1  0
 18 46  1  0
 19 47  1  0
 21 48  1  0
 22 49  1  0
 24 50  1  0
 27 51  1  0
 28 52  1  0
M  END
>  <smiles>  (72) 
O=C(NCC(=O)N1CCCCC1c1cccc(O)c1)c1ccc2cc(F)ccc2n1

>  <score_type>  (72) 
oracle

>  <origin>  (72) 
autodockgpu

>  <m_score__min__energy>  (72) 
-8.9600000000000009

>  <m_primary>  (72) 
energy

>  <rmsd>  (72) 
2.1868792946499074

>  <m_score__min__rmsd>  (72) 
2.1868792946499074

>  <meeko>  (72) 
{"free_energy": -8.74, "intermolecular_energy": -10.53, "internal_energy": -1.83, "cluster_size": 26, "cluster_id": 1, "rank_in_cluster": 5}

>  <energy>  (72) 
-8.22

>  <cluster_rmsd>  (72) 
1.2

>  <cluster>  (72) 
1

$$$$

     RDKit          3D

 52 55  0  0  0  0  0  0  0  0999 V2000
  139.8110   71.3810  221.0380 O   0  0  0  0  0  0  0  0  0  0  0  0
  139.7440   71.9340  222.1680 C   0  0  0  0  0  0  0  0  0  0  0  0
  139.6850   73.3420  222.3500 N   0  0  0  0  0  0  0  0  0  0  0  0
  139.7050   74.1840  221.1440 C   0  0  0  0  0  0  0  0  0  0  0  0
  141.0650   74.1720  220.5600 C   0  0  0  0  0  0  0  0  0  0  0  0
  141.6340   73.0720  220.3400 O   0  0  0  0  0  0  0  0  0  0  0  0
  141.7910   75.3460  220.2240 N   0  0  0  0  0  0  0  0  0  0  0  0
  141.4440   76.5960  220.8720 C   0  0  0  0  0  0  0  0  0  0  0  0
  141.1980   77.7000  219.8680 C   0  0  0  0  0  0  0  0  0  0  0  0
  142.0490   77.5310  218.6310 C   0  0  0  0  0  0  0  0  0  0  0  0
  143.3100   76.7650  219.0580 C   0  0  0  0  0  0  0  0  0  0  0  0
  142.8500   75.3400  219.2660 C   0  0  1  0  0  0  0  0  0  0  0  0
  143.9760   74.4330  219.5820 C   0  0  0  0  0  0  0  0  0  0  0  0
  144.6120   74.4610  220.8270 C   0  0  0  0  0  0  0  0  0  0  0  0
  145.6560   73.6250  221.1320 C   0  0  0  0  0  0  0  0  0  0  0  0
  146.0880   72.7210  220.1590 C   0  0  0  0  0  0  0  0  0  0  0  0
  145.4670   72.6840  218.9210 C   0  0  0  0  0  0  0  0  0  0  0  0
  145.9520   71.7540  217.9940 O   0  0  0  0  0  0  0  0  0  0  0  0
  144.4190   73.5240  218.6150 C   0  0  0  0  0  0  0  0  0  0  0  0
  139.7250   71.0700  223.3650 C   0  0  0  0  0  0  0  0  0  0  0  0
  139.1950   69.8070  223.3170 C   0  0  0  0  0  0  0  0  0  0  0  0
  139.1680   68.9790  224.4290 C   0  0  0  0  0  0  0  0  0  0  0  0
  139.7040   69.4810  225.6120 C   0  0  0  0  0  0  0  0  0  0  0  0
  139.7220   68.7380  226.7620 C   0  0  0  0  0  0  0  0  0  0  0  0
  140.2530   69.2280  227.9490 C   0  0  0  0  0  0  0  0  0  0  0  0
  140.2740   68.4980  229.0880 F   0  0  0  0  0  0  0  0  0  0  0  0
  140.7770   70.4970  227.9630 C   0  0  0  0  0  0  0  0  0  0  0  0
  140.7570   71.2350  226.8150 C   0  0  0  0  0  0  0  0  0  0  0  0
  140.2280   70.7490  225.6340 C   0  0  0  0  0  0  0  0  0  0  0  0
  140.2270   71.5020  224.5340 N   0  0  0  0  0  0  0  0  0  0  0  0
  139.6280   73.7760  223.3120 H   0  0  0  0  0  0  0  0  0  0  0  0
  138.9866   73.7908  220.4097 H   0  0  0  0  0  0  0  0  0  0  0  0
  139.4280   75.2147  221.4102 H   0  0  0  0  0  0  0  0  0  0  0  0
  140.5315   76.4468  221.4678 H   0  0  0  0  0  0  0  0  0  0  0  0
  142.2883   76.8961  221.5101 H   0  0  0  0  0  0  0  0  0  0  0  0
  140.1376   77.6861  219.5757 H   0  0  0  0  0  0  0  0  0  0  0  0
  141.4648   78.6575  220.3393 H   0  0  0  0  0  0  0  0  0  0  0  0
  141.4991   76.9594  217.8688 H   0  0  0  0  0  0  0  0  0  0  0  0
  142.3097   78.5072  218.1962 H   0  0  0  0  0  0  0  0  0  0  0  0
  144.0767   76.8128  218.2707 H   0  0  0  0  0  0  0  0  0  0  0  0
  143.7640   77.1895  219.9656 H   0  0  0  0  0  0  0  0  0  0  0  0
  142.4455   74.9224  218.3322 H   0  0  0  0  0  0  0  0  0  0  0  0
  144.2639   75.1766  221.5864 H   0  0  0  0  0  0  0  0  0  0  0  0
  146.1409   73.6656  222.1185 H   0  0  0  0  0  0  0  0  0  0  0  0
  146.9222   72.0376  220.3758 H   0  0  0  0  0  0  0  0  0  0  0  0
  145.3640   71.3340  217.2870 H   0  0  0  0  0  0  0  0  0  0  0  0
  143.9383   73.4808  217.6266 H   0  0  0  0  0  0  0  0  0  0  0  0
  138.7785   69.4390  222.3677 H   0  0  0  0  0  0  0  0  0  0  0  0
  138.7405   67.9667  224.3786 H   0  0  0  0  0  0  0  0  0  0  0  0
  139.3029   67.7211  226.7457 H   0  0  0  0  0  0  0  0  0  0  0  0
  141.2068   70.9130  228.8862 H   0  0  0  0  0  0  0  0  0  0  0  0
  141.1764   72.2518  226.8301 H   0  0  0  0  0  0  0  0  0  0  0  0
  1  2  2  0
  2  3  1  0
  3  4  1  0
  4  5  1  0
  5  6  2  0
  5  7  1  0
  7  8  1  0
  8  9  1  0
  9 10  1  0
 10 11  1  0
 11 12  1  0
 12 13  1  0
 13 14  2  0
 14 15  1  0
 15 16  2  0
 16 17  1  0
 17 18  1  0
 17 19  2  0
  2 20  1  0
 20 21  2  0
 21 22  1  0
 22 23  2  0
 23 24  1  0
 24 25  2  0
 25 26  1  0
 25 27  1  0
 27 28  2  0
 28 29  1  0
 29 30  2  0
 12  7  1  0
 19 13  1  0
 30 20  1  0
 29 23  1  0
  3 31  1  0
  4 32  1  0
  4 33  1  0
  8 34  1  0
  8 35  1  0
  9 36  1  0
  9 37  1  0
 10 38  1  0
 10 39  1  0
 11 40  1  0
 11 41  1  0
 12 42  1  6
 14 43  1  0
 15 44  1  0
 16 45  1  0
 18 46  1  0
 19 47  1  0
 21 48  1  0
 22 49  1  0
 24 50  1  0
 27 51  1  0
 28 52  1  0
M  END
>  <smiles>  (73) 
O=C(NCC(=O)N1CCCCC1c1cccc(O)c1)c1ccc2cc(F)ccc2n1

>  <score_type>  (73) 
oracle

>  <origin>  (73) 
autodockgpu

>  <m_score__min__energy>  (73) 
-8.9600000000000009

>  <m_primary>  (73) 
energy

>  <rmsd>  (73) 
2.1976365460448015

>  <m_score__min__rmsd>  (73) 
2.1976365460448015

>  <meeko>  (73) 
{"free_energy": -8.51, "intermolecular_energy": -10.3, "internal_energy": -1.33, "cluster_size": 26, "cluster_id": 1, "rank_in_cluster": 9}

>  <energy>  (73) 
-8.13

>  <cluster_rmsd>  (73) 
1.01

>  <cluster>  (73) 
1

$$$$

     RDKit          3D

 52 55  0  0  0  0  0  0  0  0999 V2000
  140.5020   71.7370  221.0710 O   0  0  0  0  0  0  0  0  0  0  0  0
  140.1260   72.2830  222.1430 C   0  0  0  0  0  0  0  0  0  0  0  0
  139.8460   73.6710  222.2590 N   0  0  0  0  0  0  0  0  0  0  0  0
  140.0090   74.4990  221.0550 C   0  0  0  0  0  0  0  0  0  0  0  0
  140.9100   75.6340  221.3590 C   0  0  0  0  0  0  0  0  0  0  0  0
  140.9080   76.1330  222.5140 O   0  0  0  0  0  0  0  0  0  0  0  0
  141.7990   76.2130  220.4140 N   0  0  0  0  0  0  0  0  0  0  0  0
  142.0620   77.6380  220.4800 C   0  0  0  0  0  0  0  0  0  0  0  0
  141.8400   78.3130  219.1460 C   0  0  0  0  0  0  0  0  0  0  0  0
  142.1570   77.3890  217.9920 C   0  0  0  0  0  0  0  0  0  0  0  0
  143.2040   76.3870  218.4970 C   0  0  0  0  0  0  0  0  0  0  0  0
  142.4400   75.4430  219.3970 C   0  0  1  0  0  0  0  0  0  0  0  0
  143.2900   74.3350  219.8910 C   0  0  0  0  0  0  0  0  0  0  0  0
  142.8690   73.0030  219.8200 C   0  0  0  0  0  0  0  0  0  0  0  0
  143.6450   71.9680  220.2730 C   0  0  0  0  0  0  0  0  0  0  0  0
  144.8970   72.2670  220.8190 C   0  0  0  0  0  0  0  0  0  0  0  0
  145.3260   73.5820  220.8940 C   0  0  0  0  0  0  0  0  0  0  0  0
  146.5890   73.8080  221.4520 O   0  0  0  0  0  0  0  0  0  0  0  0
  144.5440   74.6220  220.4400 C   0  0  0  0  0  0  0  0  0  0  0  0
  139.9690   71.4310  223.3390 C   0  0  0  0  0  0  0  0  0  0  0  0
  139.3570   70.2090  223.2620 C   0  0  0  0  0  0  0  0  0  0  0  0
  139.1990   69.3930  224.3720 C   0  0  0  0  0  0  0  0  0  0  0  0
  139.6910   69.8670  225.5860 C   0  0  0  0  0  0  0  0  0  0  0  0
  139.5820   69.1330  226.7370 C   0  0  0  0  0  0  0  0  0  0  0  0
  140.0680   69.5950  227.9540 C   0  0  0  0  0  0  0  0  0  0  0  0
  139.9640   68.8750  229.0950 F   0  0  0  0  0  0  0  0  0  0  0  0
  140.6770   70.8250  227.9980 C   0  0  0  0  0  0  0  0  0  0  0  0
  140.7840   71.5530  226.8490 C   0  0  0  0  0  0  0  0  0  0  0  0
  140.3000   71.0960  225.6380 C   0  0  0  0  0  0  0  0  0  0  0  0
  140.4240   71.8370  224.5370 N   0  0  0  0  0  0  0  0  0  0  0  0
  139.5320   74.0990  223.1730 H   0  0  0  0  0  0  0  0  0  0  0  0
  140.4433   73.8914  220.2474 H   0  0  0  0  0  0  0  0  0  0  0  0
  139.0285   74.8824  220.7364 H   0  0  0  0  0  0  0  0  0  0  0  0
  141.3894   78.0900  221.2239 H   0  0  0  0  0  0  0  0  0  0  0  0
  143.1158   77.7781  220.7625 H   0  0  0  0  0  0  0  0  0  0  0  0
  140.7873   78.6241  219.0747 H   0  0  0  0  0  0  0  0  0  0  0  0
  142.5127   79.1812  219.0849 H   0  0  0  0  0  0  0  0  0  0  0  0
  141.2484   76.8577  217.6724 H   0  0  0  0  0  0  0  0  0  0  0  0
  142.5377   77.9542  217.1285 H   0  0  0  0  0  0  0  0  0  0  0  0
  143.6531   75.8398  217.6550 H   0  0  0  0  0  0  0  0  0  0  0  0
  144.0303   76.8843  219.0261 H   0  0  0  0  0  0  0  0  0  0  0  0
  141.6515   74.9227  218.8334 H   0  0  0  0  0  0  0  0  0  0  0  0
  141.8832   72.7789  219.3866 H   0  0  0  0  0  0  0  0  0  0  0  0
  143.2917   70.9283  220.2086 H   0  0  0  0  0  0  0  0  0  0  0  0
  145.5422   71.4568  221.1895 H   0  0  0  0  0  0  0  0  0  0  0  0
  146.7230   73.9950  222.4370 H   0  0  0  0  0  0  0  0  0  0  0  0
  144.9001   75.6605  220.5083 H   0  0  0  0  0  0  0  0  0  0  0  0
  138.9785   69.8633  222.2887 H   0  0  0  0  0  0  0  0  0  0  0  0
  138.7059   68.4126  224.2970 H   0  0  0  0  0  0  0  0  0  0  0  0
  139.0948   68.1476  226.6969 H   0  0  0  0  0  0  0  0  0  0  0  0
  141.0730   71.2178  228.9461 H   0  0  0  0  0  0  0  0  0  0  0  0
  141.2725   72.5378  226.8880 H   0  0  0  0  0  0  0  0  0  0  0  0
  1  2  2  0
  2  3  1  0
  3  4  1  0
  4  5  1  0
  5  6  2  0
  5  7  1  0
  7  8  1  0
  8  9  1  0
  9 10  1  0
 10 11  1  0
 11 12  1  0
 12 13  1  0
 13 14  2  0
 14 15  1  0
 15 16  2  0
 16 17  1  0
 17 18  1  0
 17 19  2  0
  2 20  1  0
 20 21  2  0
 21 22  1  0
 22 23  2  0
 23 24  1  0
 24 25  2  0
 25 26  1  0
 25 27  1  0
 27 28  2  0
 28 29  1  0
 29 30  2  0
 12  7  1  0
 19 13  1  0
 30 20  1  0
 29 23  1  0
  3 31  1  0
  4 32  1  0
  4 33  1  0
  8 34  1  0
  8 35  1  0
  9 36  1  0
  9 37  1  0
 10 38  1  0
 10 39  1  0
 11 40  1  0
 11 41  1  0
 12 42  1  6
 14 43  1  0
 15 44  1  0
 16 45  1  0
 18 46  1  0
 19 47  1  0
 21 48  1  0
 22 49  1  0
 24 50  1  0
 27 51  1  0
 28 52  1  0
M  END
>  <smiles>  (74) 
O=C(NCC(=O)N1CCCCC1c1cccc(O)c1)c1ccc2cc(F)ccc2n1

>  <score_type>  (74) 
oracle

>  <origin>  (74) 
autodockgpu

>  <m_score__min__energy>  (74) 
-8.9600000000000009

>  <m_primary>  (74) 
energy

>  <rmsd>  (74) 
2.350512428318653

>  <m_score__min__rmsd>  (74) 
2.350512428318653

>  <meeko>  (74) 
{"free_energy": -8.28, "intermolecular_energy": -10.07, "internal_energy": -1.9, "cluster_size": 26, "cluster_id": 1, "rank_in_cluster": 20}

>  <energy>  (74) 
-8.02

>  <cluster_rmsd>  (74) 
1.03

>  <cluster>  (74) 
1

$$$$

     RDKit          3D

 52 55  0  0  0  0  0  0  0  0999 V2000
  140.6530   71.6310  221.0600 O   0  0  0  0  0  0  0  0  0  0  0  0
  140.2350   72.1820  222.1130 C   0  0  0  0  0  0  0  0  0  0  0  0
  139.9260   73.5660  222.2040 N   0  0  0  0  0  0  0  0  0  0  0  0
  140.1110   74.3830  220.9950 C   0  0  0  0  0  0  0  0  0  0  0  0
  140.7600   75.6620  221.3620 C   0  0  0  0  0  0  0  0  0  0  0  0
  140.5260   76.1740  222.4880 O   0  0  0  0  0  0  0  0  0  0  0  0
  141.6510   76.3690  220.5120 N   0  0  0  0  0  0  0  0  0  0  0  0
  141.7940   77.8030  220.6810 C   0  0  0  0  0  0  0  0  0  0  0  0
  141.5940   78.5450  219.3790 C   0  0  0  0  0  0  0  0  0  0  0  0
  142.0510   77.7260  218.1930 C   0  0  0  0  0  0  0  0  0  0  0  0
  143.1460   76.7780  218.7010 C   0  0  0  0  0  0  0  0  0  0  0  0
  142.4110   75.7200  219.4920 C   0  0  1  0  0  0  0  0  0  0  0  0
  143.3180   74.6520  219.9690 C   0  0  0  0  0  0  0  0  0  0  0  0
  144.6010   74.9400  220.4450 C   0  0  0  0  0  0  0  0  0  0  0  0
  145.4510   73.9600  220.8910 C   0  0  0  0  0  0  0  0  0  0  0  0
  145.0080   72.6350  220.8630 C   0  0  0  0  0  0  0  0  0  0  0  0
  143.7390   72.3360  220.3940 C   0  0  0  0  0  0  0  0  0  0  0  0
  143.3620   70.9880  220.3950 O   0  0  0  0  0  0  0  0  0  0  0  0
  142.8860   73.3210  219.9460 C   0  0  0  0  0  0  0  0  0  0  0  0
  140.0560   71.3420  223.3150 C   0  0  0  0  0  0  0  0  0  0  0  0
  139.4590   70.1120  223.2350 C   0  0  0  0  0  0  0  0  0  0  0  0
  139.2820   69.3070  224.3500 C   0  0  0  0  0  0  0  0  0  0  0  0
  139.7390   69.7990  225.5710 C   0  0  0  0  0  0  0  0  0  0  0  0
  139.6080   69.0770  226.7270 C   0  0  0  0  0  0  0  0  0  0  0  0
  140.0590   69.5570  227.9500 C   0  0  0  0  0  0  0  0  0  0  0  0
  139.9330   68.8480  229.0970 F   0  0  0  0  0  0  0  0  0  0  0  0
  140.6530   70.7930  227.9960 C   0  0  0  0  0  0  0  0  0  0  0  0
  140.7810   71.5110  226.8420 C   0  0  0  0  0  0  0  0  0  0  0  0
  140.3330   71.0350  225.6240 C   0  0  0  0  0  0  0  0  0  0  0  0
  140.4770   71.7660  224.5190 N   0  0  0  0  0  0  0  0  0  0  0  0
  139.5760   73.9990  223.1020 H   0  0  0  0  0  0  0  0  0  0  0  0
  140.7464   73.8409  220.2791 H   0  0  0  0  0  0  0  0  0  0  0  0
  139.1328   74.5856  220.5345 H   0  0  0  0  0  0  0  0  0  0  0  0
  141.0461   78.1521  221.4082 H   0  0  0  0  0  0  0  0  0  0  0  0
  142.8153   78.0051  221.0360 H   0  0  0  0  0  0  0  0  0  0  0  0
  140.5252   78.7771  219.2614 H   0  0  0  0  0  0  0  0  0  0  0  0
  142.1957   79.4652  219.4127 H   0  0  0  0  0  0  0  0  0  0  0  0
  141.2087   77.1474  217.7858 H   0  0  0  0  0  0  0  0  0  0  0  0
  142.4327   78.3743  217.3905 H   0  0  0  0  0  0  0  0  0  0  0  0
  143.6865   76.3242  217.8573 H   0  0  0  0  0  0  0  0  0  0  0  0
  143.8968   77.3025  219.3103 H   0  0  0  0  0  0  0  0  0  0  0  0
  141.7014   75.1782  218.8494 H   0  0  0  0  0  0  0  0  0  0  0  0
  144.9396   75.9864  220.4624 H   0  0  0  0  0  0  0  0  0  0  0  0
  146.4560   74.2109  221.2613 H   0  0  0  0  0  0  0  0  0  0  0  0
  145.6679   71.8279  221.2139 H   0  0  0  0  0  0  0  0  0  0  0  0
  142.3970   70.6940  220.4560 H   0  0  0  0  0  0  0  0  0  0  0  0
  141.8820   73.0654  219.5763 H   0  0  0  0  0  0  0  0  0  0  0  0
  139.1092   69.7517  222.2563 H   0  0  0  0  0  0  0  0  0  0  0  0
  138.8007   68.3208  224.2739 H   0  0  0  0  0  0  0  0  0  0  0  0
  139.1311   68.0866  226.6860 H   0  0  0  0  0  0  0  0  0  0  0  0
  141.0210   71.1997  228.9495 H   0  0  0  0  0  0  0  0  0  0  0  0
  141.2568   72.5019  226.8828 H   0  0  0  0  0  0  0  0  0  0  0  0
  1  2  2  0
  2  3  1  0
  3  4  1  0
  4  5  1  0
  5  6  2  0
  5  7  1  0
  7  8  1  0
  8  9  1  0
  9 10  1  0
 10 11  1  0
 11 12  1  0
 12 13  1  0
 13 14  2  0
 14 15  1  0
 15 16  2  0
 16 17  1  0
 17 18  1  0
 17 19  2  0
  2 20  1  0
 20 21  2  0
 21 22  1  0
 22 23  2  0
 23 24  1  0
 24 25  2  0
 25 26  1  0
 25 27  1  0
 27 28  2  0
 28 29  1  0
 29 30  2  0
 12  7  1  0
 19 13  1  0
 30 20  1  0
 29 23  1  0
  3 31  1  0
  4 32  1  0
  4 33  1  0
  8 34  1  0
  8 35  1  0
  9 36  1  0
  9 37  1  0
 10 38  1  0
 10 39  1  0
 11 40  1  0
 11 41  1  0
 12 42  1  6
 14 43  1  0
 15 44  1  0
 16 45  1  0
 18 46  1  0
 19 47  1  0
 21 48  1  0
 22 49  1  0
 24 50  1  0
 27 51  1  0
 28 52  1  0
M  END
>  <smiles>  (75) 
O=C(NCC(=O)N1CCCCC1c1cccc(O)c1)c1ccc2cc(F)ccc2n1

>  <score_type>  (75) 
oracle

>  <origin>  (75) 
autodockgpu

>  <m_score__min__energy>  (75) 
-8.9600000000000009

>  <m_primary>  (75) 
energy

>  <rmsd>  (75) 
2.348358722917524

>  <m_score__min__rmsd>  (75) 
2.348358722917524

>  <meeko>  (75) 
{"free_energy": -8.29, "intermolecular_energy": -10.08, "internal_energy": -2.56, "cluster_size": 26, "cluster_id": 1, "rank_in_cluster": 19}

>  <energy>  (75) 
-7.83

>  <cluster_rmsd>  (75) 
1.57

>  <cluster>  (75) 
1

$$$$

     RDKit          3D

 52 55  0  0  0  0  0  0  0  0999 V2000
  141.2450   71.3970  221.1820 O   0  0  0  0  0  0  0  0  0  0  0  0
  140.6320   72.0020  222.1030 C   0  0  0  0  0  0  0  0  0  0  0  0
  140.2480   73.3670  222.0230 N   0  0  0  0  0  0  0  0  0  0  0  0
  140.5910   74.0990  220.7940 C   0  0  0  0  0  0  0  0  0  0  0  0
  141.1430   75.4240  221.1510 C   0  0  0  0  0  0  0  0  0  0  0  0
  140.9380   75.8900  222.3020 O   0  0  0  0  0  0  0  0  0  0  0  0
  141.9080   76.2280  220.2630 N   0  0  0  0  0  0  0  0  0  0  0  0
  141.9640   77.6600  220.4850 C   0  0  0  0  0  0  0  0  0  0  0  0
  141.6040   78.4360  219.2390 C   0  0  0  0  0  0  0  0  0  0  0  0
  142.0130   77.7000  217.9830 C   0  0  0  0  0  0  0  0  0  0  0  0
  143.2100   76.8150  218.3560 C   0  0  0  0  0  0  0  0  0  0  0  0
  142.6210   75.6760  219.1560 C   0  0  1  0  0  0  0  0  0  0  0  0
  143.6370   74.6590  219.5080 C   0  0  0  0  0  0  0  0  0  0  0  0
  143.9600   74.3780  220.8400 C   0  0  0  0  0  0  0  0  0  0  0  0
  144.8990   73.4380  221.1800 C   0  0  0  0  0  0  0  0  0  0  0  0
  145.5450   72.7440  220.1530 C   0  0  0  0  0  0  0  0  0  0  0  0
  145.2340   73.0130  218.8300 C   0  0  0  0  0  0  0  0  0  0  0  0
  145.9200   72.2810  217.8540 O   0  0  0  0  0  0  0  0  0  0  0  0
  144.2910   73.9580  218.4890 C   0  0  0  0  0  0  0  0  0  0  0  0
  140.2980   71.2470  223.3270 C   0  0  0  0  0  0  0  0  0  0  0  0
  139.5680   70.0900  223.2680 C   0  0  0  0  0  0  0  0  0  0  0  0
  139.2430   69.3660  224.4050 C   0  0  0  0  0  0  0  0  0  0  0  0
  139.6920   69.8620  225.6270 C   0  0  0  0  0  0  0  0  0  0  0  0
  139.4210   69.2170  226.8040 C   0  0  0  0  0  0  0  0  0  0  0  0
  139.8620   69.7030  228.0290 C   0  0  0  0  0  0  0  0  0  0  0  0
  139.5980   69.0700  229.1960 F   0  0  0  0  0  0  0  0  0  0  0  0
  140.5930   70.8650  228.0540 C   0  0  0  0  0  0  0  0  0  0  0  0
  140.8600   71.5050  226.8790 C   0  0  0  0  0  0  0  0  0  0  0  0
  140.4210   71.0240  225.6600 C   0  0  0  0  0  0  0  0  0  0  0  0
  140.7040   71.6790  224.5330 N   0  0  0  0  0  0  0  0  0  0  0  0
  139.7340   73.8460  222.8130 H   0  0  0  0  0  0  0  0  0  0  0  0
  141.3408   73.5300  220.2248 H   0  0  0  0  0  0  0  0  0  0  0  0
  139.6882   74.2298  220.1794 H   0  0  0  0  0  0  0  0  0  0  0  0
  141.2572   77.9241  221.2855 H   0  0  0  0  0  0  0  0  0  0  0  0
  142.9949   77.9224  220.7651 H   0  0  0  0  0  0  0  0  0  0  0  0
  140.5157   78.5952  219.2203 H   0  0  0  0  0  0  0  0  0  0  0  0
  142.1427   79.3947  219.2650 H   0  0  0  0  0  0  0  0  0  0  0  0
  141.1810   77.0783  217.6208 H   0  0  0  0  0  0  0  0  0  0  0  0
  142.2787   78.4052  217.1817 H   0  0  0  0  0  0  0  0  0  0  0  0
  143.7068   76.4353  217.4510 H   0  0  0  0  0  0  0  0  0  0  0  0
  143.9715   77.3687  218.9249 H   0  0  0  0  0  0  0  0  0  0  0  0
  141.8989   75.1088  218.5503 H   0  0  0  0  0  0  0  0  0  0  0  0
  143.4442   74.9288  221.6404 H   0  0  0  0  0  0  0  0  0  0  0  0
  145.1378   73.2353  222.2345 H   0  0  0  0  0  0  0  0  0  0  0  0
  146.3014   71.9831  220.3956 H   0  0  0  0  0  0  0  0  0  0  0  0
  145.4470   71.6800  217.1930 H   0  0  0  0  0  0  0  0  0  0  0  0
  144.0563   74.1580  217.4331 H   0  0  0  0  0  0  0  0  0  0  0  0
  139.2288   69.7234  222.2879 H   0  0  0  0  0  0  0  0  0  0  0  0
  138.6549   68.4383  224.3446 H   0  0  0  0  0  0  0  0  0  0  0  0
  138.8363   68.2856  226.7792 H   0  0  0  0  0  0  0  0  0  0  0  0
  140.9581   71.2740  229.0076 H   0  0  0  0  0  0  0  0  0  0  0  0
  141.4450   72.4362  226.9027 H   0  0  0  0  0  0  0  0  0  0  0  0
  1  2  2  0
  2  3  1  0
  3  4  1  0
  4  5  1  0
  5  6  2  0
  5  7  1  0
  7  8  1  0
  8  9  1  0
  9 10  1  0
 10 11  1  0
 11 12  1  0
 12 13  1  0
 13 14  2  0
 14 15  1  0
 15 16  2  0
 16 17  1  0
 17 18  1  0
 17 19  2  0
  2 20  1  0
 20 21  2  0
 21 22  1  0
 22 23  2  0
 23 24  1  0
 24 25  2  0
 25 26  1  0
 25 27  1  0
 27 28  2  0
 28 29  1  0
 29 30  2  0
 12  7  1  0
 19 13  1  0
 30 20  1  0
 29 23  1  0
  3 31  1  0
  4 32  1  0
  4 33  1  0
  8 34  1  0
  8 35  1  0
  9 36  1  0
  9 37  1  0
 10 38  1  0
 10 39  1  0
 11 40  1  0
 11 41  1  0
 12 42  1  6
 14 43  1  0
 15 44  1  0
 16 45  1  0
 18 46  1  0
 19 47  1  0
 21 48  1  0
 22 49  1  0
 24 50  1  0
 27 51  1  0
 28 52  1  0
M  END
>  <smiles>  (76) 
O=C(NCC(=O)N1CCCCC1c1cccc(O)c1)c1ccc2cc(F)ccc2n1

>  <score_type>  (76) 
oracle

>  <origin>  (76) 
autodockgpu

>  <m_score__min__energy>  (76) 
-8.9600000000000009

>  <m_primary>  (76) 
energy

>  <rmsd>  (76) 
2.431203350783275

>  <m_score__min__rmsd>  (76) 
2.431203350783275

>  <meeko>  (76) 
{"free_energy": -8.51, "intermolecular_energy": -10.3, "internal_energy": -1.72, "cluster_size": 26, "cluster_id": 1, "rank_in_cluster": 8}

>  <energy>  (76) 
-6.96

>  <cluster_rmsd>  (76) 
1.3

>  <cluster>  (76) 
1

$$$$

     RDKit          3D

 52 55  0  0  0  0  0  0  0  0999 V2000
  140.3710   70.7920  221.3450 O   0  0  0  0  0  0  0  0  0  0  0  0
  139.9600   71.3520  222.3970 C   0  0  0  0  0  0  0  0  0  0  0  0
  139.5660   72.7160  222.4550 N   0  0  0  0  0  0  0  0  0  0  0  0
  139.6490   73.5000  221.2130 C   0  0  0  0  0  0  0  0  0  0  0  0
  140.8490   74.3650  221.2590 C   0  0  0  0  0  0  0  0  0  0  0  0
  140.8490   75.3850  221.9960 O   0  0  0  0  0  0  0  0  0  0  0  0
  142.0300   74.1190  220.5090 N   0  0  0  0  0  0  0  0  0  0  0  0
  142.3720   72.7510  220.1680 C   0  0  0  0  0  0  0  0  0  0  0  0
  143.7890   72.4090  220.5710 C   0  0  0  0  0  0  0  0  0  0  0  0
  144.6990   73.6140  220.4930 C   0  0  0  0  0  0  0  0  0  0  0  0
  144.1090   74.5490  219.4270 C   0  0  0  0  0  0  0  0  0  0  0  0
  142.8950   75.1700  220.0800 C   0  0  1  0  0  0  0  0  0  0  0  0
  142.2610   76.1920  219.2170 C   0  0  0  0  0  0  0  0  0  0  0  0
  141.0040   75.9860  218.6410 C   0  0  0  0  0  0  0  0  0  0  0  0
  140.4050   76.9250  217.8400 C   0  0  0  0  0  0  0  0  0  0  0  0
  141.0840   78.1220  217.6010 C   0  0  0  0  0  0  0  0  0  0  0  0
  142.3300   78.3400  218.1660 C   0  0  0  0  0  0  0  0  0  0  0  0
  142.9520   79.5620  217.8850 O   0  0  0  0  0  0  0  0  0  0  0  0
  142.9310   77.3950  218.9700 C   0  0  0  0  0  0  0  0  0  0  0  0
  139.8850   70.5460  223.6310 C   0  0  0  0  0  0  0  0  0  0  0  0
  139.2250   69.3460  223.6530 C   0  0  0  0  0  0  0  0  0  0  0  0
  139.1430   68.5730  224.8010 C   0  0  0  0  0  0  0  0  0  0  0  0
  139.7630   69.0640  225.9470 C   0  0  0  0  0  0  0  0  0  0  0  0
  139.7360   68.3720  227.1280 C   0  0  0  0  0  0  0  0  0  0  0  0
  140.3500   68.8510  228.2780 C   0  0  0  0  0  0  0  0  0  0  0  0
  140.3280   68.1720  229.4480 F   0  0  0  0  0  0  0  0  0  0  0  0
  141.0050   70.0570  228.2220 C   0  0  0  0  0  0  0  0  0  0  0  0
  141.0300   70.7450  227.0440 C   0  0  0  0  0  0  0  0  0  0  0  0
  140.4180   70.2690  225.8990 C   0  0  0  0  0  0  0  0  0  0  0  0
  140.4650   70.9710  224.7670 N   0  0  0  0  0  0  0  0  0  0  0  0
  139.2240   73.1570  223.3530 H   0  0  0  0  0  0  0  0  0  0  0  0
  139.7202   72.8185  220.3525 H   0  0  0  0  0  0  0  0  0  0  0  0
  138.7490   74.1241  221.1107 H   0  0  0  0  0  0  0  0  0  0  0  0
  141.6803   72.0711  220.6870 H   0  0  0  0  0  0  0  0  0  0  0  0
  142.2908   72.6402  219.0766 H   0  0  0  0  0  0  0  0  0  0  0  0
  143.7846   72.0320  221.6044 H   0  0  0  0  0  0  0  0  0  0  0  0
  144.1690   71.6468  219.8748 H   0  0  0  0  0  0  0  0  0  0  0  0
  144.7348   74.1249  221.4665 H   0  0  0  0  0  0  0  0  0  0  0  0
  145.7254   73.3166  220.2319 H   0  0  0  0  0  0  0  0  0  0  0  0
  144.8370   75.3248  219.1475 H   0  0  0  0  0  0  0  0  0  0  0  0
  143.8513   74.0113  218.5026 H   0  0  0  0  0  0  0  0  0  0  0  0
  143.1847   75.7417  220.9740 H   0  0  0  0  0  0  0  0  0  0  0  0
  140.4779   75.0399  218.8364 H   0  0  0  0  0  0  0  0  0  0  0  0
  139.4152   76.7399  217.3972 H   0  0  0  0  0  0  0  0  0  0  0  0
  140.6284   78.8933  216.9627 H   0  0  0  0  0  0  0  0  0  0  0  0
  143.5940   79.6790  217.1120 H   0  0  0  0  0  0  0  0  0  0  0  0
  143.9213   77.5838  219.4101 H   0  0  0  0  0  0  0  0  0  0  0  0
  138.7453   68.9845  222.7315 H   0  0  0  0  0  0  0  0  0  0  0  0
  138.6098   67.6109  224.8063 H   0  0  0  0  0  0  0  0  0  0  0  0
  139.2113   67.4060  227.1673 H   0  0  0  0  0  0  0  0  0  0  0  0
  141.5028   70.4628  229.1150 H   0  0  0  0  0  0  0  0  0  0  0  0
  141.5547   71.7110  227.0038 H   0  0  0  0  0  0  0  0  0  0  0  0
  1  2  2  0
  2  3  1  0
  3  4  1  0
  4  5  1  0
  5  6  2  0
  5  7  1  0
  7  8  1  0
  8  9  1  0
  9 10  1  0
 10 11  1  0
 11 12  1  0
 12 13  1  0
 13 14  2  0
 14 15  1  0
 15 16  2  0
 16 17  1  0
 17 18  1  0
 17 19  2  0
  2 20  1  0
 20 21  2  0
 21 22  1  0
 22 23  2  0
 23 24  1  0
 24 25  2  0
 25 26  1  0
 25 27  1  0
 27 28  2  0
 28 29  1  0
 29 30  2  0
 12  7  1  0
 19 13  1  0
 30 20  1  0
 29 23  1  0
  3 31  1  0
  4 32  1  0
  4 33  1  0
  8 34  1  0
  8 35  1  0
  9 36  1  0
  9 37  1  0
 10 38  1  0
 10 39  1  0
 11 40  1  0
 11 41  1  0
 12 42  1  1
 14 43  1  0
 15 44  1  0
 16 45  1  0
 18 46  1  0
 19 47  1  0
 21 48  1  0
 22 49  1  0
 24 50  1  0
 27 51  1  0
 28 52  1  0
M  END
>  <smiles>  (77) 
O=C(NCC(=O)N1CCCCC1c1cccc(O)c1)c1ccc2cc(F)ccc2n1

>  <score_type>  (77) 
oracle

>  <origin>  (77) 
autodockgpu

>  <m_score__min__energy>  (77) 
-8.9600000000000009

>  <m_primary>  (77) 
energy

>  <rmsd>  (77) 
2.682601344967347

>  <m_score__min__rmsd>  (77) 
2.682601344967347

>  <meeko>  (77) 
{"free_energy": -8.28, "intermolecular_energy": -10.07, "internal_energy": -1.46, "cluster_size": 8, "cluster_id": 2, "rank_in_cluster": 6}

>  <energy>  (77) 
-8.62

>  <cluster_rmsd>  (77) 
0.0

>  <cluster>  (77) 
2

$$$$

     RDKit          3D

 52 55  0  0  0  0  0  0  0  0999 V2000
  141.2210   77.4000  217.5170 O   0  0  0  0  0  0  0  0  0  0  0  0
  142.0940   77.3110  218.4220 C   0  0  0  0  0  0  0  0  0  0  0  0
  142.3530   78.3420  219.3640 N   0  0  0  0  0  0  0  0  0  0  0  0
  141.5510   79.5710  219.2640 C   0  0  0  0  0  0  0  0  0  0  0  0
  140.5190   79.5710  220.3250 C   0  0  0  0  0  0  0  0  0  0  0  0
  139.3030   79.6300  220.0050 O   0  0  0  0  0  0  0  0  0  0  0  0
  140.8120   79.5100  221.7140 N   0  0  0  0  0  0  0  0  0  0  0  0
  140.4260   80.6210  222.5620 C   0  0  0  0  0  0  0  0  0  0  0  0
  141.5870   81.1280  223.3870 C   0  0  0  0  0  0  0  0  0  0  0  0
  142.5520   80.0180  223.7360 C   0  0  0  0  0  0  0  0  0  0  0  0
  141.7420   78.7140  223.7580 C   0  0  0  0  0  0  0  0  0  0  0  0
  141.4770   78.3940  222.3050 C   0  0  1  0  0  0  0  0  0  0  0  0
  140.7900   77.0930  222.1380 C   0  0  0  0  0  0  0  0  0  0  0  0
  141.4490   75.9800  221.6050 C   0  0  0  0  0  0  0  0  0  0  0  0
  140.8240   74.7700  221.4460 C   0  0  0  0  0  0  0  0  0  0  0  0
  139.4860   74.6580  221.8340 C   0  0  0  0  0  0  0  0  0  0  0  0
  138.8220   75.7520  222.3630 C   0  0  0  0  0  0  0  0  0  0  0  0
  137.4840   75.5680  222.7300 O   0  0  0  0  0  0  0  0  0  0  0  0
  139.4500   76.9680  222.5220 C   0  0  0  0  0  0  0  0  0  0  0  0
  142.8860   76.0680  218.5040 C   0  0  0  0  0  0  0  0  0  0  0  0
  142.8460   75.1350  217.5020 C   0  0  0  0  0  0  0  0  0  0  0  0
  143.5820   73.9620  217.5590 C   0  0  0  0  0  0  0  0  0  0  0  0
  144.3760   73.7600  218.6860 C   0  0  0  0  0  0  0  0  0  0  0  0
  145.1380   72.6320  218.8320 C   0  0  0  0  0  0  0  0  0  0  0  0
  145.9330   72.4200  219.9510 C   0  0  0  0  0  0  0  0  0  0  0  0
  146.6890   71.3080  220.1020 F   0  0  0  0  0  0  0  0  0  0  0  0
  145.9520   73.3750  220.9380 C   0  0  0  0  0  0  0  0  0  0  0  0
  145.1900   74.4980  220.7890 C   0  0  0  0  0  0  0  0  0  0  0  0
  144.3990   74.7090  219.6760 C   0  0  0  0  0  0  0  0  0  0  0  0
  143.6690   75.8200  219.5680 N   0  0  0  0  0  0  0  0  0  0  0  0
  143.0920   78.2370  220.1130 H   0  0  0  0  0  0  0  0  0  0  0  0
  142.2046   80.4471  219.3875 H   0  0  0  0  0  0  0  0  0  0  0  0
  141.0650   79.6140  218.2781 H   0  0  0  0  0  0  0  0  0  0  0  0
  140.0549   81.4401  221.9285 H   0  0  0  0  0  0  0  0  0  0  0  0
  139.6446   80.2691  223.2517 H   0  0  0  0  0  0  0  0  0  0  0  0
  142.1225   81.8985  222.8130 H   0  0  0  0  0  0  0  0  0  0  0  0
  141.1867   81.5416  224.3244 H   0  0  0  0  0  0  0  0  0  0  0  0
  143.3477   79.9564  222.9789 H   0  0  0  0  0  0  0  0  0  0  0  0
  143.0286   80.2022  224.7101 H   0  0  0  0  0  0  0  0  0  0  0  0
  142.3204   77.9075  224.2323 H   0  0  0  0  0  0  0  0  0  0  0  0
  140.8112   78.8153  224.3353 H   0  0  0  0  0  0  0  0  0  0  0  0
  142.4220   78.2499  221.7607 H   0  0  0  0  0  0  0  0  0  0  0  0
  142.5023   76.0788  221.3038 H   0  0  0  0  0  0  0  0  0  0  0  0
  141.3623   73.9088  221.0235 H   0  0  0  0  0  0  0  0  0  0  0  0
  138.9594   73.6991  221.7189 H   0  0  0  0  0  0  0  0  0  0  0  0
  137.1860   74.8210  223.3420 H   0  0  0  0  0  0  0  0  0  0  0  0
  138.9070   77.8266  222.9439 H   0  0  0  0  0  0  0  0  0  0  0  0
  142.2097   75.3226  216.6245 H   0  0  0  0  0  0  0  0  0  0  0  0
  143.5410   73.2206  216.7475 H   0  0  0  0  0  0  0  0  0  0  0  0
  145.1201   71.8702  218.0387 H   0  0  0  0  0  0  0  0  0  0  0  0
  146.5724   73.2370  221.8358 H   0  0  0  0  0  0  0  0  0  0  0  0
  145.2064   75.2605  221.5817 H   0  0  0  0  0  0  0  0  0  0  0  0
  1  2  2  0
  2  3  1  0
  3  4  1  0
  4  5  1  0
  5  6  2  0
  5  7  1  0
  7  8  1  0
  8  9  1  0
  9 10  1  0
 10 11  1  0
 11 12  1  0
 12 13  1  0
 13 14  2  0
 14 15  1  0
 15 16  2  0
 16 17  1  0
 17 18  1  0
 17 19  2  0
  2 20  1  0
 20 21  2  0
 21 22  1  0
 22 23  2  0
 23 24  1  0
 24 25  2  0
 25 26  1  0
 25 27  1  0
 27 28  2  0
 28 29  1  0
 29 30  2  0
 12  7  1  0
 19 13  1  0
 30 20  1  0
 29 23  1  0
  3 31  1  0
  4 32  1  0
  4 33  1  0
  8 34  1  0
  8 35  1  0
  9 36  1  0
  9 37  1  0
 10 38  1  0
 10 39  1  0
 11 40  1  0
 11 41  1  0
 12 42  1  6
 14 43  1  0
 15 44  1  0
 16 45  1  0
 18 46  1  0
 19 47  1  0
 21 48  1  0
 22 49  1  0
 24 50  1  0
 27 51  1  0
 28 52  1  0
M  END
>  <smiles>  (78) 
O=C(NCC(=O)N1CCCCC1c1cccc(O)c1)c1ccc2cc(F)ccc2n1

>  <score_type>  (78) 
oracle

>  <origin>  (78) 
autodockgpu

>  <m_score__min__energy>  (78) 
-8.9600000000000009

>  <m_primary>  (78) 
energy

>  <rmsd>  (78) 
7.894200601800209

>  <m_score__min__rmsd>  (78) 
7.894200601800209

>  <meeko>  (78) 
{"free_energy": -7.06, "intermolecular_energy": -8.85, "internal_energy": -2.4, "cluster_size": 3, "cluster_id": 6, "rank_in_cluster": 2}

>  <energy>  (78) 
-8.54

>  <cluster_rmsd>  (78) 
0.74

>  <cluster>  (78) 
2

$$$$

     RDKit          3D

 52 55  0  0  0  0  0  0  0  0999 V2000
  140.1830   77.8780  218.4430 O   0  0  0  0  0  0  0  0  0  0  0  0
  141.2410   77.5770  219.0570 C   0  0  0  0  0  0  0  0  0  0  0  0
  142.1440   78.5410  219.5790 N   0  0  0  0  0  0  0  0  0  0  0  0
  141.8120   79.9600  219.3830 C   0  0  0  0  0  0  0  0  0  0  0  0
  140.8330   80.3810  220.4110 C   0  0  0  0  0  0  0  0  0  0  0  0
  139.7410   80.8920  220.0510 O   0  0  0  0  0  0  0  0  0  0  0  0
  141.0470   80.2460  221.8090 N   0  0  0  0  0  0  0  0  0  0  0  0
  140.9780   81.4290  222.6460 C   0  0  0  0  0  0  0  0  0  0  0  0
  142.2080   81.5750  223.5130 C   0  0  0  0  0  0  0  0  0  0  0  0
  142.7880   80.2320  223.8930 C   0  0  0  0  0  0  0  0  0  0  0  0
  141.6280   79.2260  223.8830 C   0  0  0  0  0  0  0  0  0  0  0  0
  141.3300   78.9880  222.4200 C   0  0  1  0  0  0  0  0  0  0  0  0
  140.2940   77.9480  222.2250 C   0  0  0  0  0  0  0  0  0  0  0  0
  138.9750   78.2810  221.9000 C   0  0  0  0  0  0  0  0  0  0  0  0
  138.0070   77.3280  221.7160 C   0  0  0  0  0  0  0  0  0  0  0  0
  138.3620   75.9840  221.8610 C   0  0  0  0  0  0  0  0  0  0  0  0
  139.6650   75.6410  222.1830 C   0  0  0  0  0  0  0  0  0  0  0  0
  139.9500   74.2770  222.3120 O   0  0  0  0  0  0  0  0  0  0  0  0
  140.6380   76.6000  222.3680 C   0  0  0  0  0  0  0  0  0  0  0  0
  141.5540   76.1460  219.2430 C   0  0  0  0  0  0  0  0  0  0  0  0
  140.6360   75.1760  218.9400 C   0  0  0  0  0  0  0  0  0  0  0  0
  140.9110   73.8270  219.1060 C   0  0  0  0  0  0  0  0  0  0  0  0
  142.1680   73.4870  219.5980 C   0  0  0  0  0  0  0  0  0  0  0  0
  142.5300   72.1810  219.7960 C   0  0  0  0  0  0  0  0  0  0  0  0
  143.7820   71.8300  220.2870 C   0  0  0  0  0  0  0  0  0  0  0  0
  144.1470   70.5420  220.4840 F   0  0  0  0  0  0  0  0  0  0  0  0
  144.6800   72.8270  220.5800 C   0  0  0  0  0  0  0  0  0  0  0  0
  144.3150   74.1270  220.3820 C   0  0  0  0  0  0  0  0  0  0  0  0
  143.0700   74.4780  219.8950 C   0  0  0  0  0  0  0  0  0  0  0  0
  142.7520   75.7600  219.7150 N   0  0  0  0  0  0  0  0  0  0  0  0
  143.0250   78.2560  220.0910 H   0  0  0  0  0  0  0  0  0  0  0  0
  142.7249   80.5669  219.4748 H   0  0  0  0  0  0  0  0  0  0  0  0
  141.3786   80.1018  218.3820 H   0  0  0  0  0  0  0  0  0  0  0  0
  140.8888   82.3163  222.0020 H   0  0  0  0  0  0  0  0  0  0  0  0
  140.1037   81.3306  223.3062 H   0  0  0  0  0  0  0  0  0  0  0  0
  142.9675   82.1476  222.9604 H   0  0  0  0  0  0  0  0  0  0  0  0
  141.9159   82.0957  224.4369 H   0  0  0  0  0  0  0  0  0  0  0  0
  143.5555   79.9316  223.1645 H   0  0  0  0  0  0  0  0  0  0  0  0
  143.2635   80.2747  224.8840 H   0  0  0  0  0  0  0  0  0  0  0  0
  141.9253   78.2880  224.3747 H   0  0  0  0  0  0  0  0  0  0  0  0
  140.7497   79.6023  224.4280 H   0  0  0  0  0  0  0  0  0  0  0  0
  142.2080   78.5661  221.9091 H   0  0  0  0  0  0  0  0  0  0  0  0
  138.7058   79.3417  221.7884 H   0  0  0  0  0  0  0  0  0  0  0  0
  136.9760   77.6141  221.4605 H   0  0  0  0  0  0  0  0  0  0  0  0
  137.6059   75.1977  221.7193 H   0  0  0  0  0  0  0  0  0  0  0  0
  139.5250   73.6980  223.0230 H   0  0  0  0  0  0  0  0  0  0  0  0
  141.6677   76.3098  222.6238 H   0  0  0  0  0  0  0  0  0  0  0  0
  139.6509   75.4760  218.5533 H   0  0  0  0  0  0  0  0  0  0  0  0
  140.1658   73.0566  218.8588 H   0  0  0  0  0  0  0  0  0  0  0  0
  141.8079   71.3857  219.5592 H   0  0  0  0  0  0  0  0  0  0  0  0
  145.6792   72.5812  220.9687 H   0  0  0  0  0  0  0  0  0  0  0  0
  145.0366   74.9230  220.6181 H   0  0  0  0  0  0  0  0  0  0  0  0
  1  2  2  0
  2  3  1  0
  3  4  1  0
  4  5  1  0
  5  6  2  0
  5  7  1  0
  7  8  1  0
  8  9  1  0
  9 10  1  0
 10 11  1  0
 11 12  1  0
 12 13  1  0
 13 14  2  0
 14 15  1  0
 15 16  2  0
 16 17  1  0
 17 18  1  0
 17 19  2  0
  2 20  1  0
 20 21  2  0
 21 22  1  0
 22 23  2  0
 23 24  1  0
 24 25  2  0
 25 26  1  0
 25 27  1  0
 27 28  2  0
 28 29  1  0
 29 30  2  0
 12  7  1  0
 19 13  1  0
 30 20  1  0
 29 23  1  0
  3 31  1  0
  4 32  1  0
  4 33  1  0
  8 34  1  0
  8 35  1  0
  9 36  1  0
  9 37  1  0
 10 38  1  0
 10 39  1  0
 11 40  1  0
 11 41  1  0
 12 42  1  6
 14 43  1  0
 15 44  1  0
 16 45  1  0
 18 46  1  0
 19 47  1  0
 21 48  1  0
 22 49  1  0
 24 50  1  0
 27 51  1  0
 28 52  1  0
M  END
>  <smiles>  (79) 
O=C(NCC(=O)N1CCCCC1c1cccc(O)c1)c1ccc2cc(F)ccc2n1

>  <score_type>  (79) 
oracle

>  <origin>  (79) 
autodockgpu

>  <m_score__min__energy>  (79) 
-8.9600000000000009

>  <m_primary>  (79) 
energy

>  <rmsd>  (79) 
7.468957157608269

>  <m_score__min__rmsd>  (79) 
7.468957157608269

>  <meeko>  (79) 
{"free_energy": -6.97, "intermolecular_energy": -8.76, "internal_energy": -2.77, "cluster_size": 3, "cluster_id": 6, "rank_in_cluster": 3}

>  <energy>  (79) 
-8.43

>  <cluster_rmsd>  (79) 
1.48

>  <cluster>  (79) 
2

$$$$

     RDKit          3D

 52 55  0  0  0  0  0  0  0  0999 V2000
  140.2270   71.5720  221.0550 O   0  0  0  0  0  0  0  0  0  0  0  0
  139.9760   72.1180  222.1630 C   0  0  0  0  0  0  0  0  0  0  0  0
  139.7850   73.5170  222.3210 N   0  0  0  0  0  0  0  0  0  0  0  0
  139.8900   74.3570  221.1180 C   0  0  0  0  0  0  0  0  0  0  0  0
  140.7090   75.5510  221.4240 C   0  0  0  0  0  0  0  0  0  0  0  0
  140.6760   76.0430  222.5820 O   0  0  0  0  0  0  0  0  0  0  0  0
  141.5500   76.1970  220.4790 N   0  0  0  0  0  0  0  0  0  0  0  0
  141.7840   77.6230  220.6070 C   0  0  0  0  0  0  0  0  0  0  0  0
  141.4990   78.3570  219.3160 C   0  0  0  0  0  0  0  0  0  0  0  0
  141.7940   77.4990  218.1080 C   0  0  0  0  0  0  0  0  0  0  0  0
  142.8810   76.4990  218.5250 C   0  0  0  0  0  0  0  0  0  0  0  0
  142.1710   75.4940  219.4040 C   0  0  1  0  0  0  0  0  0  0  0  0
  143.0620   74.3840  219.8110 C   0  0  0  0  0  0  0  0  0  0  0  0
  142.5690   73.2560  220.4750 C   0  0  0  0  0  0  0  0  0  0  0  0
  143.3830   72.2210  220.8580 C   0  0  0  0  0  0  0  0  0  0  0  0
  144.7470   72.3080  220.5680 C   0  0  0  0  0  0  0  0  0  0  0  0
  145.2490   73.4190  219.9100 C   0  0  0  0  0  0  0  0  0  0  0  0
  146.6240   73.4400  219.6520 O   0  0  0  0  0  0  0  0  0  0  0  0
  144.4300   74.4600  219.5270 C   0  0  0  0  0  0  0  0  0  0  0  0
  139.8740   71.2560  223.3570 C   0  0  0  0  0  0  0  0  0  0  0  0
  139.2820   70.0230  223.2900 C   0  0  0  0  0  0  0  0  0  0  0  0
  139.1770   69.1960  224.3990 C   0  0  0  0  0  0  0  0  0  0  0  0
  139.7010   69.6700  225.6000 C   0  0  0  0  0  0  0  0  0  0  0  0
  139.6430   68.9260  226.7480 C   0  0  0  0  0  0  0  0  0  0  0  0
  140.1610   69.3880  227.9510 C   0  0  0  0  0  0  0  0  0  0  0  0
  140.1090   68.6580  229.0900 F   0  0  0  0  0  0  0  0  0  0  0  0
  140.7490   70.6280  227.9840 C   0  0  0  0  0  0  0  0  0  0  0  0
  140.8040   71.3670  226.8380 C   0  0  0  0  0  0  0  0  0  0  0  0
  140.2880   70.9090  225.6400 C   0  0  0  0  0  0  0  0  0  0  0  0
  140.3610   71.6610  224.5420 N   0  0  0  0  0  0  0  0  0  0  0  0
  139.5740   73.9460  223.2640 H   0  0  0  0  0  0  0  0  0  0  0  0
  140.3658   73.7827  220.3094 H   0  0  0  0  0  0  0  0  0  0  0  0
  138.8851   74.6716  220.7999 H   0  0  0  0  0  0  0  0  0  0  0  0
  141.1289   78.0219  221.3955 H   0  0  0  0  0  0  0  0  0  0  0  0
  142.8439   77.7742  220.8595 H   0  0  0  0  0  0  0  0  0  0  0  0
  140.4378   78.6461  219.2972 H   0  0  0  0  0  0  0  0  0  0  0  0
  142.1500   79.2427  219.2745 H   0  0  0  0  0  0  0  0  0  0  0  0
  140.8864   76.9622  217.7948 H   0  0  0  0  0  0  0  0  0  0  0  0
  142.1302   78.1148  217.2608 H   0  0  0  0  0  0  0  0  0  0  0  0
  143.3109   76.0044  217.6415 H   0  0  0  0  0  0  0  0  0  0  0  0
  143.7151   76.9894  219.0482 H   0  0  0  0  0  0  0  0  0  0  0  0
  141.3739   74.9833  218.8437 H   0  0  0  0  0  0  0  0  0  0  0  0
  141.4933   73.1972  220.6972 H   0  0  0  0  0  0  0  0  0  0  0  0
  142.9724   71.3443  221.3804 H   0  0  0  0  0  0  0  0  0  0  0  0
  145.4238   71.4925  220.8628 H   0  0  0  0  0  0  0  0  0  0  0  0
  147.0810   74.2210  219.2020 H   0  0  0  0  0  0  0  0  0  0  0  0
  144.8452   75.3358  219.0068 H   0  0  0  0  0  0  0  0  0  0  0  0
  138.8772   69.6776  222.3272 H   0  0  0  0  0  0  0  0  0  0  0  0
  138.6999   68.2071  224.3329 H   0  0  0  0  0  0  0  0  0  0  0  0
  139.1720   67.9325  226.7165 H   0  0  0  0  0  0  0  0  0  0  0  0
  141.1701   71.0206  228.9213 H   0  0  0  0  0  0  0  0  0  0  0  0
  141.2748   72.3607  226.8685 H   0  0  0  0  0  0  0  0  0  0  0  0
  1  2  2  0
  2  3  1  0
  3  4  1  0
  4  5  1  0
  5  6  2  0
  5  7  1  0
  7  8  1  0
  8  9  1  0
  9 10  1  0
 10 11  1  0
 11 12  1  0
 12 13  1  0
 13 14  2  0
 14 15  1  0
 15 16  2  0
 16 17  1  0
 17 18  1  0
 17 19  2  0
  2 20  1  0
 20 21  2  0
 21 22  1  0
 22 23  2  0
 23 24  1  0
 24 25  2  0
 25 26  1  0
 25 27  1  0
 27 28  2  0
 28 29  1  0
 29 30  2  0
 12  7  1  0
 19 13  1  0
 30 20  1  0
 29 23  1  0
  3 31  1  0
  4 32  1  0
  4 33  1  0
  8 34  1  0
  8 35  1  0
  9 36  1  0
  9 37  1  0
 10 38  1  0
 10 39  1  0
 11 40  1  0
 11 41  1  0
 12 42  1  6
 14 43  1  0
 15 44  1  0
 16 45  1  0
 18 46  1  0
 19 47  1  0
 21 48  1  0
 22 49  1  0
 24 50  1  0
 27 51  1  0
 28 52  1  0
M  END
>  <smiles>  (80) 
O=C(NCC(=O)N1CCCCC1c1cccc(O)c1)c1ccc2cc(F)ccc2n1

>  <score_type>  (80) 
oracle

>  <origin>  (80) 
autodockgpu

>  <m_score__min__energy>  (80) 
-8.9600000000000009

>  <m_primary>  (80) 
energy

>  <rmsd>  (80) 
2.2306150646824183

>  <m_score__min__rmsd>  (80) 
2.2306150646824183

>  <meeko>  (80) 
{"free_energy": -8.96, "intermolecular_energy": -10.75, "internal_energy": -1.71, "cluster_size": 26, "cluster_id": 1, "rank_in_cluster": 2}

>  <energy>  (80) 
-8.39

>  <cluster_rmsd>  (80) 
0.47

>  <cluster>  (80) 
2

$$$$

     RDKit          3D

 52 55  0  0  0  0  0  0  0  0999 V2000
  140.8850   71.3150  221.0270 O   0  0  0  0  0  0  0  0  0  0  0  0
  140.4840   71.9360  222.0480 C   0  0  0  0  0  0  0  0  0  0  0  0
  140.2690   73.3400  222.0760 N   0  0  0  0  0  0  0  0  0  0  0  0
  140.5330   74.0930  220.8410 C   0  0  0  0  0  0  0  0  0  0  0  0
  141.2480   75.3460  221.1730 C   0  0  0  0  0  0  0  0  0  0  0  0
  141.2420   75.7650  222.3600 O   0  0  0  0  0  0  0  0  0  0  0  0
  141.9570   76.1270  220.2220 N   0  0  0  0  0  0  0  0  0  0  0  0
  141.9550   77.5710  220.3600 C   0  0  0  0  0  0  0  0  0  0  0  0
  141.5350   78.2570  219.0790 C   0  0  0  0  0  0  0  0  0  0  0  0
  141.9510   77.4660  217.8590 C   0  0  0  0  0  0  0  0  0  0  0  0
  143.1940   76.6560  218.2550 C   0  0  0  0  0  0  0  0  0  0  0  0
  142.6720   75.5420  219.1340 C   0  0  1  0  0  0  0  0  0  0  0  0
  143.7390   74.5920  219.5210 C   0  0  0  0  0  0  0  0  0  0  0  0
  144.1800   74.4870  220.8440 C   0  0  0  0  0  0  0  0  0  0  0  0
  145.1670   73.6110  221.2160 C   0  0  0  0  0  0  0  0  0  0  0  0
  145.7410   72.8020  220.2320 C   0  0  0  0  0  0  0  0  0  0  0  0
  145.3130   72.8960  218.9180 C   0  0  0  0  0  0  0  0  0  0  0  0
  145.9320   72.0560  217.9850 O   0  0  0  0  0  0  0  0  0  0  0  0
  144.3220   73.7770  218.5450 C   0  0  0  0  0  0  0  0  0  0  0  0
  140.2250   71.1600  223.2770 C   0  0  0  0  0  0  0  0  0  0  0  0
  139.5420   69.9750  223.2340 C   0  0  0  0  0  0  0  0  0  0  0  0
  139.2880   69.2300  224.3760 C   0  0  0  0  0  0  0  0  0  0  0  0
  139.7590   69.7360  225.5850 C   0  0  0  0  0  0  0  0  0  0  0  0
  139.5570   69.0720  226.7660 C   0  0  0  0  0  0  0  0  0  0  0  0
  140.0210   69.5670  227.9780 C   0  0  0  0  0  0  0  0  0  0  0  0
  139.8260   68.9150  229.1480 F   0  0  0  0  0  0  0  0  0  0  0  0
  140.7040   70.7580  227.9870 C   0  0  0  0  0  0  0  0  0  0  0  0
  140.9030   71.4170  226.8090 C   0  0  0  0  0  0  0  0  0  0  0  0
  140.4410   70.9260  225.6020 C   0  0  0  0  0  0  0  0  0  0  0  0
  140.6560   71.6010  224.4720 N   0  0  0  0  0  0  0  0  0  0  0  0
  139.9310   73.8330  222.9490 H   0  0  0  0  0  0  0  0  0  0  0  0
  141.1525   73.4848  220.1655 H   0  0  0  0  0  0  0  0  0  0  0  0
  139.5804   74.3333  220.3462 H   0  0  0  0  0  0  0  0  0  0  0  0
  141.2543   77.8512  221.1603 H   0  0  0  0  0  0  0  0  0  0  0  0
  142.9790   77.8930  220.6005 H   0  0  0  0  0  0  0  0  0  0  0  0
  140.4406   78.3677  219.0761 H   0  0  0  0  0  0  0  0  0  0  0  0
  142.0303   79.2383  219.0370 H   0  0  0  0  0  0  0  0  0  0  0  0
  141.1401   76.7889  217.5526 H   0  0  0  0  0  0  0  0  0  0  0  0
  142.1694   78.1337  217.0125 H   0  0  0  0  0  0  0  0  0  0  0  0
  143.6880   76.2448  217.3623 H   0  0  0  0  0  0  0  0  0  0  0  0
  143.9422   77.2743  218.7725 H   0  0  0  0  0  0  0  0  0  0  0  0
  141.9635   74.9092  218.5794 H   0  0  0  0  0  0  0  0  0  0  0  0
  143.7202   75.1278  221.6108 H   0  0  0  0  0  0  0  0  0  0  0  0
  145.4986   73.5467  222.2629 H   0  0  0  0  0  0  0  0  0  0  0  0
  146.5343   72.0891  220.5013 H   0  0  0  0  0  0  0  0  0  0  0  0
  145.4380   71.6610  217.1970 H   0  0  0  0  0  0  0  0  0  0  0  0
  143.9944   73.8386  217.4967 H   0  0  0  0  0  0  0  0  0  0  0  0
  139.1833   69.6016  222.2635 H   0  0  0  0  0  0  0  0  0  0  0  0
  138.7373   68.2789  224.3288 H   0  0  0  0  0  0  0  0  0  0  0  0
  139.0105   68.1174  226.7542 H   0  0  0  0  0  0  0  0  0  0  0  0
  141.0854   71.1751  228.9307 H   0  0  0  0  0  0  0  0  0  0  0  0
  141.4497   72.3715  226.8200 H   0  0  0  0  0  0  0  0  0  0  0  0
  1  2  2  0
  2  3  1  0
  3  4  1  0
  4  5  1  0
  5  6  2  0
  5  7  1  0
  7  8  1  0
  8  9  1  0
  9 10  1  0
 10 11  1  0
 11 12  1  0
 12 13  1  0
 13 14  2  0
 14 15  1  0
 15 16  2  0
 16 17  1  0
 17 18  1  0
 17 19  2  0
  2 20  1  0
 20 21  2  0
 21 22  1  0
 22 23  2  0
 23 24  1  0
 24 25  2  0
 25 26  1  0
 25 27  1  0
 27 28  2  0
 28 29  1  0
 29 30  2  0
 12  7  1  0
 19 13  1  0
 30 20  1  0
 29 23  1  0
  3 31  1  0
  4 32  1  0
  4 33  1  0
  8 34  1  0
  8 35  1  0
  9 36  1  0
  9 37  1  0
 10 38  1  0
 10 39  1  0
 11 40  1  0
 11 41  1  0
 12 42  1  6
 14 43  1  0
 15 44  1  0
 16 45  1  0
 18 46  1  0
 19 47  1  0
 21 48  1  0
 22 49  1  0
 24 50  1  0
 27 51  1  0
 28 52  1  0
M  END
>  <smiles>  (81) 
O=C(NCC(=O)N1CCCCC1c1cccc(O)c1)c1ccc2cc(F)ccc2n1

>  <score_type>  (81) 
oracle

>  <origin>  (81) 
autodockgpu

>  <m_score__min__energy>  (81) 
-8.9600000000000009

>  <m_primary>  (81) 
energy

>  <rmsd>  (81) 
2.357086172468149

>  <m_score__min__rmsd>  (81) 
2.357086172468149

>  <meeko>  (81) 
{"free_energy": -8.4, "intermolecular_energy": -10.19, "internal_energy": -1.76, "cluster_size": 26, "cluster_id": 1, "rank_in_cluster": 11}

>  <energy>  (81) 
-8.31

>  <cluster_rmsd>  (81) 
1.05

>  <cluster>  (81) 
2

$$$$

     RDKit          3D

 52 55  0  0  0  0  0  0  0  0999 V2000
  140.1880   71.5740  220.9870 O   0  0  0  0  0  0  0  0  0  0  0  0
  139.9390   72.1440  222.0820 C   0  0  0  0  0  0  0  0  0  0  0  0
  139.7330   73.5440  222.2070 N   0  0  0  0  0  0  0  0  0  0  0  0
  139.8190   74.3550  220.9830 C   0  0  0  0  0  0  0  0  0  0  0  0
  140.2950   75.7140  221.3270 C   0  0  0  0  0  0  0  0  0  0  0  0
  140.3180   76.0740  222.5320 O   0  0  0  0  0  0  0  0  0  0  0  0
  140.7380   76.6630  220.3670 N   0  0  0  0  0  0  0  0  0  0  0  0
  140.2410   76.5710  219.0080 C   0  0  0  0  0  0  0  0  0  0  0  0
  141.3660   76.5580  217.9980 C   0  0  0  0  0  0  0  0  0  0  0  0
  142.5530   77.3640  218.4730 C   0  0  0  0  0  0  0  0  0  0  0  0
  142.0100   78.4420  219.4210 C   0  0  0  0  0  0  0  0  0  0  0  0
  141.6590   77.7040  220.6930 C   0  0  1  0  0  0  0  0  0  0  0  0
  141.2150   78.6230  221.7650 C   0  0  0  0  0  0  0  0  0  0  0  0
  141.8700   78.6770  223.0000 C   0  0  0  0  0  0  0  0  0  0  0  0
  141.4690   79.5240  224.0010 C   0  0  0  0  0  0  0  0  0  0  0  0
  140.3710   80.3550  223.7670 C   0  0  0  0  0  0  0  0  0  0  0  0
  139.7140   80.3120  222.5480 C   0  0  0  0  0  0  0  0  0  0  0  0
  138.6220   81.1720  222.3830 O   0  0  0  0  0  0  0  0  0  0  0  0
  140.1160   79.4600  221.5430 C   0  0  0  0  0  0  0  0  0  0  0  0
  139.8570   71.3110  223.2980 C   0  0  0  0  0  0  0  0  0  0  0  0
  139.3110   70.0550  223.2590 C   0  0  0  0  0  0  0  0  0  0  0  0
  139.2260   69.2560  224.3890 C   0  0  0  0  0  0  0  0  0  0  0  0
  139.7200   69.7800  225.5810 C   0  0  0  0  0  0  0  0  0  0  0  0
  139.6780   69.0660  226.7490 C   0  0  0  0  0  0  0  0  0  0  0  0
  140.1670   69.5780  227.9440 C   0  0  0  0  0  0  0  0  0  0  0  0
  140.1300   68.8770  229.1010 F   0  0  0  0  0  0  0  0  0  0  0  0
  140.7090   70.8400  227.9490 C   0  0  0  0  0  0  0  0  0  0  0  0
  140.7480   71.5490  226.7830 C   0  0  0  0  0  0  0  0  0  0  0  0
  140.2610   71.0410  225.5940 C   0  0  0  0  0  0  0  0  0  0  0  0
  140.3180   71.7660  224.4760 N   0  0  0  0  0  0  0  0  0  0  0  0
  139.5250   73.9940  223.1410 H   0  0  0  0  0  0  0  0  0  0  0  0
  140.5237   73.8860  220.2806 H   0  0  0  0  0  0  0  0  0  0  0  0
  138.8258   74.4207  220.5148 H   0  0  0  0  0  0  0  0  0  0  0  0
  139.6585   75.6437  218.9040 H   0  0  0  0  0  0  0  0  0  0  0  0
  139.6161   77.4548  218.8121 H   0  0  0  0  0  0  0  0  0  0  0  0
  141.6844   75.5182  217.8324 H   0  0  0  0  0  0  0  0  0  0  0  0
  140.9954   77.0099  217.0661 H   0  0  0  0  0  0  0  0  0  0  0  0
  143.2625   76.7141  219.0062 H   0  0  0  0  0  0  0  0  0  0  0  0
  143.0852   77.8182  217.6243 H   0  0  0  0  0  0  0  0  0  0  0  0
  142.7764   79.2065  219.6165 H   0  0  0  0  0  0  0  0  0  0  0  0
  141.1423   78.9674  218.9954 H   0  0  0  0  0  0  0  0  0  0  0  0
  142.5516   77.2284  221.1255 H   0  0  0  0  0  0  0  0  0  0  0  0
  142.7342   78.0190  223.1736 H   0  0  0  0  0  0  0  0  0  0  0  0
  141.9990   79.5484  224.9646 H   0  0  0  0  0  0  0  0  0  0  0  0
  140.0273   81.0448  224.5519 H   0  0  0  0  0  0  0  0  0  0  0  0
  138.4880   81.7250  221.5480 H   0  0  0  0  0  0  0  0  0  0  0  0
  139.5818   79.4380  220.5817 H   0  0  0  0  0  0  0  0  0  0  0  0
  138.9286   69.6689  222.3026 H   0  0  0  0  0  0  0  0  0  0  0  0
  138.7861   68.2487  224.3457 H   0  0  0  0  0  0  0  0  0  0  0  0
  139.2434   68.0555  226.7404 H   0  0  0  0  0  0  0  0  0  0  0  0
  141.1059   71.2731  228.8790 H   0  0  0  0  0  0  0  0  0  0  0  0
  141.1822   72.5597  226.7904 H   0  0  0  0  0  0  0  0  0  0  0  0
  1  2  2  0
  2  3  1  0
  3  4  1  0
  4  5  1  0
  5  6  2  0
  5  7  1  0
  7  8  1  0
  8  9  1  0
  9 10  1  0
 10 11  1  0
 11 12  1  0
 12 13  1  0
 13 14  2  0
 14 15  1  0
 15 16  2  0
 16 17  1  0
 17 18  1  0
 17 19  2  0
  2 20  1  0
 20 21  2  0
 21 22  1  0
 22 23  2  0
 23 24  1  0
 24 25  2  0
 25 26  1  0
 25 27  1  0
 27 28  2  0
 28 29  1  0
 29 30  2  0
 12  7  1  0
 19 13  1  0
 30 20  1  0
 29 23  1  0
  3 31  1  0
  4 32  1  0
  4 33  1  0
  8 34  1  0
  8 35  1  0
  9 36  1  0
  9 37  1  0
 10 38  1  0
 10 39  1  0
 11 40  1  0
 11 41  1  0
 12 42  1  1
 14 43  1  0
 15 44  1  0
 16 45  1  0
 18 46  1  0
 19 47  1  0
 21 48  1  0
 22 49  1  0
 24 50  1  0
 27 51  1  0
 28 52  1  0
M  END
>  <smiles>  (82) 
O=C(NCC(=O)N1CCCCC1c1cccc(O)c1)c1ccc2cc(F)ccc2n1

>  <score_type>  (82) 
oracle

>  <origin>  (82) 
autodockgpu

>  <m_score__min__energy>  (82) 
-8.9600000000000009

>  <m_primary>  (82) 
energy

>  <rmsd>  (82) 
1.5204945882545442

>  <m_score__min__rmsd>  (82) 
1.5204945882545442

>  <meeko>  (82) 
{"free_energy": -7.92, "intermolecular_energy": -9.71, "internal_energy": -1.73, "cluster_size": 10, "cluster_id": 3, "rank_in_cluster": 8}

>  <energy>  (82) 
-8.28

>  <cluster_rmsd>  (82) 
0.87

>  <cluster>  (82) 
2

$$$$

     RDKit          3D

 52 55  0  0  0  0  0  0  0  0999 V2000
  138.2360   71.1090  221.4540 O   0  0  0  0  0  0  0  0  0  0  0  0
  138.8160   71.6660  222.4240 C   0  0  0  0  0  0  0  0  0  0  0  0
  139.1580   73.0450  222.4460 N   0  0  0  0  0  0  0  0  0  0  0  0
  138.8080   73.8500  221.2650 C   0  0  0  0  0  0  0  0  0  0  0  0
  139.5270   75.1420  221.3230 C   0  0  0  0  0  0  0  0  0  0  0  0
  140.3350   75.3590  222.2640 O   0  0  0  0  0  0  0  0  0  0  0  0
  139.3640   76.1810  220.3680 N   0  0  0  0  0  0  0  0  0  0  0  0
  138.1820   76.1830  219.5290 C   0  0  0  0  0  0  0  0  0  0  0  0
  138.5340   76.2920  218.0620 C   0  0  0  0  0  0  0  0  0  0  0  0
  139.7950   77.0970  217.8480 C   0  0  0  0  0  0  0  0  0  0  0  0
  139.9050   78.0750  219.0270 C   0  0  0  0  0  0  0  0  0  0  0  0
  140.3250   77.2240  220.2030 C   0  0  1  0  0  0  0  0  0  0  0  0
  140.5850   78.0370  221.4130 C   0  0  0  0  0  0  0  0  0  0  0  0
  139.5920   78.2550  222.3740 C   0  0  0  0  0  0  0  0  0  0  0  0
  139.8190   79.0050  223.5000 C   0  0  0  0  0  0  0  0  0  0  0  0
  141.0880   79.5620  223.6800 C   0  0  0  0  0  0  0  0  0  0  0  0
  142.0800   79.3540  222.7360 C   0  0  0  0  0  0  0  0  0  0  0  0
  143.3260   79.9420  222.9820 O   0  0  0  0  0  0  0  0  0  0  0  0
  141.8500   78.6000  221.6050 C   0  0  0  0  0  0  0  0  0  0  0  0
  139.1570   70.8380  223.5980 C   0  0  0  0  0  0  0  0  0  0  0  0
  138.8810   69.4970  223.6230 C   0  0  0  0  0  0  0  0  0  0  0  0
  139.1940   68.7020  224.7150 C   0  0  0  0  0  0  0  0  0  0  0  0
  139.8060   69.3220  225.8020 C   0  0  0  0  0  0  0  0  0  0  0  0
  140.1510   68.6190  226.9250 C   0  0  0  0  0  0  0  0  0  0  0  0
  140.7610   69.2270  228.0150 C   0  0  0  0  0  0  0  0  0  0  0  0
  141.1060   68.5380  229.1280 F   0  0  0  0  0  0  0  0  0  0  0  0
  141.0250   70.5730  227.9590 C   0  0  0  0  0  0  0  0  0  0  0  0
  140.6790   71.2700  226.8380 C   0  0  0  0  0  0  0  0  0  0  0  0
  140.0710   70.6670  225.7530 C   0  0  0  0  0  0  0  0  0  0  0  0
  139.7480   71.3830  224.6750 N   0  0  0  0  0  0  0  0  0  0  0  0
  139.6440   73.4830  223.2760 H   0  0  0  0  0  0  0  0  0  0  0  0
  139.0980   73.3088  220.3523 H   0  0  0  0  0  0  0  0  0  0  0  0
  137.7233   74.0323  221.2517 H   0  0  0  0  0  0  0  0  0  0  0  0
  137.6272   75.2475  219.6934 H   0  0  0  0  0  0  0  0  0  0  0  0
  137.5722   77.0575  219.7999 H   0  0  0  0  0  0  0  0  0  0  0  0
  138.6832   75.2810  217.6551 H   0  0  0  0  0  0  0  0  0  0  0  0
  137.7080   76.8057  217.5484 H   0  0  0  0  0  0  0  0  0  0  0  0
  140.6700   76.4308  217.8262 H   0  0  0  0  0  0  0  0  0  0  0  0
  139.7598   77.6370  216.8903 H   0  0  0  0  0  0  0  0  0  0  0  0
  140.6602   78.8474  218.8194 H   0  0  0  0  0  0  0  0  0  0  0  0
  138.9585   78.6027  219.2159 H   0  0  0  0  0  0  0  0  0  0  0  0
  141.2965   76.7458  220.0095 H   0  0  0  0  0  0  0  0  0  0  0  0
  138.5973   77.8108  222.2219 H   0  0  0  0  0  0  0  0  0  0  0  0
  139.0227   79.1639  224.2421 H   0  0  0  0  0  0  0  0  0  0  0  0
  141.2996   80.1673  224.5738 H   0  0  0  0  0  0  0  0  0  0  0  0
  144.1020   79.8580  222.3390 H   0  0  0  0  0  0  0  0  0  0  0  0
  142.6492   78.4439  220.8654 H   0  0  0  0  0  0  0  0  0  0  0  0
  138.3960   69.0363  222.7498 H   0  0  0  0  0  0  0  0  0  0  0  0
  138.9682   67.6254  224.7227 H   0  0  0  0  0  0  0  0  0  0  0  0
  139.9388   67.5404  226.9654 H   0  0  0  0  0  0  0  0  0  0  0  0
  141.5085   71.0824  228.8056 H   0  0  0  0  0  0  0  0  0  0  0  0
  140.8912   72.3485  226.7964 H   0  0  0  0  0  0  0  0  0  0  0  0
  1  2  2  0
  2  3  1  0
  3  4  1  0
  4  5  1  0
  5  6  2  0
  5  7  1  0
  7  8  1  0
  8  9  1  0
  9 10  1  0
 10 11  1  0
 11 12  1  0
 12 13  1  0
 13 14  2  0
 14 15  1  0
 15 16  2  0
 16 17  1  0
 17 18  1  0
 17 19  2  0
  2 20  1  0
 20 21  2  0
 21 22  1  0
 22 23  2  0
 23 24  1  0
 24 25  2  0
 25 26  1  0
 25 27  1  0
 27 28  2  0
 28 29  1  0
 29 30  2  0
 12  7  1  0
 19 13  1  0
 30 20  1  0
 29 23  1  0
  3 31  1  0
  4 32  1  0
  4 33  1  0
  8 34  1  0
  8 35  1  0
  9 36  1  0
  9 37  1  0
 10 38  1  0
 10 39  1  0
 11 40  1  0
 11 41  1  0
 12 42  1  6
 14 43  1  0
 15 44  1  0
 16 45  1  0
 18 46  1  0
 19 47  1  0
 21 48  1  0
 22 49  1  0
 24 50  1  0
 27 51  1  0
 28 52  1  0
M  END
>  <smiles>  (83) 
O=C(NCC(=O)N1CCCCC1c1cccc(O)c1)c1ccc2cc(F)ccc2n1

>  <score_type>  (83) 
oracle

>  <origin>  (83) 
autodockgpu

>  <m_score__min__energy>  (83) 
-8.9600000000000009

>  <m_primary>  (83) 
energy

>  <rmsd>  (83) 
1.2094624635018718

>  <m_score__min__rmsd>  (83) 
1.2094624635018718

>  <meeko>  (83) 
{"free_energy": -7.74, "intermolecular_energy": -9.53, "internal_energy": -1.91, "cluster_size": 10, "cluster_id": 3, "rank_in_cluster": 9}

>  <energy>  (83) 
-8.2

>  <cluster_rmsd>  (83) 
0.87

>  <cluster>  (83) 
2

$$$$

     RDKit          3D

 52 55  0  0  0  0  0  0  0  0999 V2000
  140.8110   71.5330  221.1300 O   0  0  0  0  0  0  0  0  0  0  0  0
  140.3440   72.0940  222.1570 C   0  0  0  0  0  0  0  0  0  0  0  0
  140.0110   73.4740  222.2130 N   0  0  0  0  0  0  0  0  0  0  0  0
  140.2320   74.2760  221.0000 C   0  0  0  0  0  0  0  0  0  0  0  0
  140.8090   75.5860  221.3750 C   0  0  0  0  0  0  0  0  0  0  0  0
  140.5080   76.0990  222.4840 O   0  0  0  0  0  0  0  0  0  0  0  0
  141.7020   76.3220  220.5510 N   0  0  0  0  0  0  0  0  0  0  0  0
  141.8200   77.7540  220.7500 C   0  0  0  0  0  0  0  0  0  0  0  0
  141.6280   78.5180  219.4590 C   0  0  0  0  0  0  0  0  0  0  0  0
  142.1140   77.7280  218.2650 C   0  0  0  0  0  0  0  0  0  0  0  0
  143.2160   76.7870  218.7710 C   0  0  0  0  0  0  0  0  0  0  0  0
  142.4860   75.7040  219.5320 C   0  0  1  0  0  0  0  0  0  0  0  0
  143.4020   74.6400  220.0020 C   0  0  0  0  0  0  0  0  0  0  0  0
  144.6880   74.9360  220.4670 C   0  0  0  0  0  0  0  0  0  0  0  0
  145.5460   73.9610  220.9060 C   0  0  0  0  0  0  0  0  0  0  0  0
  145.1090   72.6330  220.8840 C   0  0  0  0  0  0  0  0  0  0  0  0
  143.8380   72.3270  220.4270 C   0  0  0  0  0  0  0  0  0  0  0  0
  143.4670   70.9780  220.4330 O   0  0  0  0  0  0  0  0  0  0  0  0
  142.9760   73.3080  219.9850 C   0  0  0  0  0  0  0  0  0  0  0  0
  140.1300   71.2700  223.3640 C   0  0  0  0  0  0  0  0  0  0  0  0
  139.4950   70.0590  223.2890 C   0  0  0  0  0  0  0  0  0  0  0  0
  139.2850   69.2690  224.4100 C   0  0  0  0  0  0  0  0  0  0  0  0
  139.7480   69.7560  225.6300 C   0  0  0  0  0  0  0  0  0  0  0  0
  139.5860   69.0480  226.7910 C   0  0  0  0  0  0  0  0  0  0  0  0
  140.0430   69.5240  228.0140 C   0  0  0  0  0  0  0  0  0  0  0  0
  139.8870   68.8290  229.1640 F   0  0  0  0  0  0  0  0  0  0  0  0
  140.6760   70.7420  228.0540 C   0  0  0  0  0  0  0  0  0  0  0  0
  140.8340   71.4450  226.8950 C   0  0  0  0  0  0  0  0  0  0  0  0
  140.3800   70.9730  225.6770 C   0  0  0  0  0  0  0  0  0  0  0  0
  140.5550   71.6910  224.5670 N   0  0  0  0  0  0  0  0  0  0  0  0
  139.6200   73.9160  223.0900 H   0  0  0  0  0  0  0  0  0  0  0  0
  140.9271   73.7466  220.3317 H   0  0  0  0  0  0  0  0  0  0  0  0
  139.2737   74.4313  220.4827 H   0  0  0  0  0  0  0  0  0  0  0  0
  141.0558   78.0773  221.4721 H   0  0  0  0  0  0  0  0  0  0  0  0
  142.8324   77.9649  221.1248 H   0  0  0  0  0  0  0  0  0  0  0  0
  140.5578   78.7371  219.3300 H   0  0  0  0  0  0  0  0  0  0  0  0
  142.2155   79.4460  219.5187 H   0  0  0  0  0  0  0  0  0  0  0  0
  141.2864   77.1446  217.8353 H   0  0  0  0  0  0  0  0  0  0  0  0
  142.4972   78.3967  217.4802 H   0  0  0  0  0  0  0  0  0  0  0  0
  143.7749   76.3568  217.9268 H   0  0  0  0  0  0  0  0  0  0  0  0
  143.9504   77.3111  219.4003 H   0  0  0  0  0  0  0  0  0  0  0  0
  141.7938   75.1636  218.8696 H   0  0  0  0  0  0  0  0  0  0  0  0
  145.0212   75.9842  220.4808 H   0  0  0  0  0  0  0  0  0  0  0  0
  146.5532   74.2171  221.2666 H   0  0  0  0  0  0  0  0  0  0  0  0
  145.7760   71.8298  221.2303 H   0  0  0  0  0  0  0  0  0  0  0  0
  142.5060   70.6780  220.3430 H   0  0  0  0  0  0  0  0  0  0  0  0
  141.9698   73.0474  219.6249 H   0  0  0  0  0  0  0  0  0  0  0  0
  139.1408   69.7019  222.3107 H   0  0  0  0  0  0  0  0  0  0  0  0
  138.7737   68.2977  224.3382 H   0  0  0  0  0  0  0  0  0  0  0  0
  139.0786   68.0727  226.7544 H   0  0  0  0  0  0  0  0  0  0  0  0
  141.0503   71.1452  229.0065 H   0  0  0  0  0  0  0  0  0  0  0  0
  141.3401   72.4210  226.9309 H   0  0  0  0  0  0  0  0  0  0  0  0
  1  2  2  0
  2  3  1  0
  3  4  1  0
  4  5  1  0
  5  6  2  0
  5  7  1  0
  7  8  1  0
  8  9  1  0
  9 10  1  0
 10 11  1  0
 11 12  1  0
 12 13  1  0
 13 14  2  0
 14 15  1  0
 15 16  2  0
 16 17  1  0
 17 18  1  0
 17 19  2  0
  2 20  1  0
 20 21  2  0
 21 22  1  0
 22 23  2  0
 23 24  1  0
 24 25  2  0
 25 26  1  0
 25 27  1  0
 27 28  2  0
 28 29  1  0
 29 30  2  0
 12  7  1  0
 19 13  1  0
 30 20  1  0
 29 23  1  0
  3 31  1  0
  4 32  1  0
  4 33  1  0
  8 34  1  0
  8 35  1  0
  9 36  1  0
  9 37  1  0
 10 38  1  0
 10 39  1  0
 11 40  1  0
 11 41  1  0
 12 42  1  6
 14 43  1  0
 15 44  1  0
 16 45  1  0
 18 46  1  0
 19 47  1  0
 21 48  1  0
 22 49  1  0
 24 50  1  0
 27 51  1  0
 28 52  1  0
M  END
>  <smiles>  (84) 
O=C(NCC(=O)N1CCCCC1c1cccc(O)c1)c1ccc2cc(F)ccc2n1

>  <score_type>  (84) 
oracle

>  <origin>  (84) 
autodockgpu

>  <m_score__min__energy>  (84) 
-8.9600000000000009

>  <m_primary>  (84) 
energy

>  <rmsd>  (84) 
2.3774505791198157

>  <m_score__min__rmsd>  (84) 
2.3774505791198157

>  <meeko>  (84) 
{"free_energy": -8.32, "intermolecular_energy": -10.11, "internal_energy": -2.51, "cluster_size": 26, "cluster_id": 1, "rank_in_cluster": 13}

>  <energy>  (84) 
-7.73

>  <cluster_rmsd>  (84) 
1.11

>  <cluster>  (84) 
2

$$$$

     RDKit          3D

 52 55  0  0  0  0  0  0  0  0999 V2000
  140.2370   71.7280  221.0290 O   0  0  0  0  0  0  0  0  0  0  0  0
  139.9850   72.2700  222.1380 C   0  0  0  0  0  0  0  0  0  0  0  0
  139.7850   73.6670  222.2990 N   0  0  0  0  0  0  0  0  0  0  0  0
  139.8820   74.5110  221.0980 C   0  0  0  0  0  0  0  0  0  0  0  0
  140.7980   75.6420  221.3650 C   0  0  0  0  0  0  0  0  0  0  0  0
  140.8810   76.1080  222.5320 O   0  0  0  0  0  0  0  0  0  0  0  0
  141.6090   76.2550  220.3730 N   0  0  0  0  0  0  0  0  0  0  0  0
  141.8560   77.6820  220.4520 C   0  0  0  0  0  0  0  0  0  0  0  0
  141.5300   78.3810  219.1510 C   0  0  0  0  0  0  0  0  0  0  0  0
  141.7780   77.4860  217.9580 C   0  0  0  0  0  0  0  0  0  0  0  0
  142.8730   76.4910  218.3670 C   0  0  0  0  0  0  0  0  0  0  0  0
  142.1880   75.5170  219.2980 C   0  0  1  0  0  0  0  0  0  0  0  0
  143.0870   74.4130  219.7060 C   0  0  0  0  0  0  0  0  0  0  0  0
  142.6180   73.3260  220.4520 C   0  0  0  0  0  0  0  0  0  0  0  0
  143.4390   72.2970  220.8360 C   0  0  0  0  0  0  0  0  0  0  0  0
  144.7850   72.3480  220.4630 C   0  0  0  0  0  0  0  0  0  0  0  0
  145.2620   73.4180  219.7240 C   0  0  0  0  0  0  0  0  0  0  0  0
  146.6200   73.4030  219.3860 O   0  0  0  0  0  0  0  0  0  0  0  0
  144.4360   74.4520  219.3390 C   0  0  0  0  0  0  0  0  0  0  0  0
  139.8920   71.4050  223.3310 C   0  0  0  0  0  0  0  0  0  0  0  0
  139.3100   70.1670  223.2630 C   0  0  0  0  0  0  0  0  0  0  0  0
  139.2130   69.3380  224.3700 C   0  0  0  0  0  0  0  0  0  0  0  0
  139.7340   69.8130  225.5710 C   0  0  0  0  0  0  0  0  0  0  0  0
  139.6850   69.0670  226.7180 C   0  0  0  0  0  0  0  0  0  0  0  0
  140.2010   69.5310  227.9210 C   0  0  0  0  0  0  0  0  0  0  0  0
  140.1560   68.7980  229.0580 F   0  0  0  0  0  0  0  0  0  0  0  0
  140.7790   70.7760  227.9560 C   0  0  0  0  0  0  0  0  0  0  0  0
  140.8260   71.5170  226.8100 C   0  0  0  0  0  0  0  0  0  0  0  0
  140.3120   71.0570  225.6130 C   0  0  0  0  0  0  0  0  0  0  0  0
  140.3780   71.8120  224.5160 N   0  0  0  0  0  0  0  0  0  0  0  0
  139.5750   74.0930  223.2440 H   0  0  0  0  0  0  0  0  0  0  0  0
  140.2708   73.9137  220.2601 H   0  0  0  0  0  0  0  0  0  0  0  0
  138.8854   74.8983  220.8396 H   0  0  0  0  0  0  0  0  0  0  0  0
  141.2316   78.1078  221.2512 H   0  0  0  0  0  0  0  0  0  0  0  0
  142.9250   77.8329  220.6629 H   0  0  0  0  0  0  0  0  0  0  0  0
  140.4705   78.6765  219.1608 H   0  0  0  0  0  0  0  0  0  0  0  0
  142.1838   79.2610  219.0613 H   0  0  0  0  0  0  0  0  0  0  0  0
  140.8570   76.9466  217.6918 H   0  0  0  0  0  0  0  0  0  0  0  0
  142.0881   78.0746  217.0819 H   0  0  0  0  0  0  0  0  0  0  0  0
  143.2698   75.9682  217.4842 H   0  0  0  0  0  0  0  0  0  0  0  0
  143.7272   76.9907  218.8472 H   0  0  0  0  0  0  0  0  0  0  0  0
  141.3688   74.9959  218.7809 H   0  0  0  0  0  0  0  0  0  0  0  0
  141.5567   73.2960  220.7396 H   0  0  0  0  0  0  0  0  0  0  0  0
  143.0481   71.4527  221.4228 H   0  0  0  0  0  0  0  0  0  0  0  0
  145.4671   71.5366  220.7570 H   0  0  0  0  0  0  0  0  0  0  0  0
  147.1050   74.2240  219.0490 H   0  0  0  0  0  0  0  0  0  0  0  0
  144.8315   75.2944  218.7525 H   0  0  0  0  0  0  0  0  0  0  0  0
  138.9070   69.8197  222.3002 H   0  0  0  0  0  0  0  0  0  0  0  0
  138.7436   68.3455  224.3024 H   0  0  0  0  0  0  0  0  0  0  0  0
  139.2227   68.0694  226.6857 H   0  0  0  0  0  0  0  0  0  0  0  0
  141.1980   71.1707  228.8934 H   0  0  0  0  0  0  0  0  0  0  0  0
  141.2890   72.5143  226.8410 H   0  0  0  0  0  0  0  0  0  0  0  0
  1  2  2  0
  2  3  1  0
  3  4  1  0
  4  5  1  0
  5  6  2  0
  5  7  1  0
  7  8  1  0
  8  9  1  0
  9 10  1  0
 10 11  1  0
 11 12  1  0
 12 13  1  0
 13 14  2  0
 14 15  1  0
 15 16  2  0
 16 17  1  0
 17 18  1  0
 17 19  2  0
  2 20  1  0
 20 21  2  0
 21 22  1  0
 22 23  2  0
 23 24  1  0
 24 25  2  0
 25 26  1  0
 25 27  1  0
 27 28  2  0
 28 29  1  0
 29 30  2  0
 12  7  1  0
 19 13  1  0
 30 20  1  0
 29 23  1  0
  3 31  1  0
  4 32  1  0
  4 33  1  0
  8 34  1  0
  8 35  1  0
  9 36  1  0
  9 37  1  0
 10 38  1  0
 10 39  1  0
 11 40  1  0
 11 41  1  0
 12 42  1  6
 14 43  1  0
 15 44  1  0
 16 45  1  0
 18 46  1  0
 19 47  1  0
 21 48  1  0
 22 49  1  0
 24 50  1  0
 27 51  1  0
 28 52  1  0
M  END
>  <smiles>  (85) 
O=C(NCC(=O)N1CCCCC1c1cccc(O)c1)c1ccc2cc(F)ccc2n1

>  <score_type>  (85) 
oracle

>  <origin>  (85) 
autodockgpu

>  <m_score__min__energy>  (85) 
-8.9600000000000009

>  <m_primary>  (85) 
energy

>  <rmsd>  (85) 
2.2518898062105652

>  <m_score__min__rmsd>  (85) 
2.2518898062105652

>  <meeko>  (85) 
{"free_energy": -8.96, "intermolecular_energy": -10.75, "internal_energy": -1.74, "cluster_size": 26, "cluster_id": 1, "rank_in_cluster": 1}

>  <energy>  (85) 
-8.38

>  <cluster_rmsd>  (85) 
0.0

>  <cluster>  (85) 
3

$$$$

     RDKit          3D

 52 55  0  0  0  0  0  0  0  0999 V2000
  140.0920   70.8770  221.3350 O   0  0  0  0  0  0  0  0  0  0  0  0
  139.9140   71.4510  222.4430 C   0  0  0  0  0  0  0  0  0  0  0  0
  139.7570   72.8560  222.5810 N   0  0  0  0  0  0  0  0  0  0  0  0
  139.8070   73.6690  221.3560 C   0  0  0  0  0  0  0  0  0  0  0  0
  141.0580   74.4590  221.3430 C   0  0  0  0  0  0  0  0  0  0  0  0
  141.1250   75.5230  222.0120 O   0  0  0  0  0  0  0  0  0  0  0  0
  142.2170   74.0920  220.6080 N   0  0  0  0  0  0  0  0  0  0  0  0
  142.5190   72.6850  220.4310 C   0  0  0  0  0  0  0  0  0  0  0  0
  143.9350   72.3580  220.8480 C   0  0  0  0  0  0  0  0  0  0  0  0
  144.8720   73.5200  220.6070 C   0  0  0  0  0  0  0  0  0  0  0  0
  144.2840   74.3340  219.4460 C   0  0  0  0  0  0  0  0  0  0  0  0
  143.0980   75.0600  220.0390 C   0  0  1  0  0  0  0  0  0  0  0  0
  142.4720   75.9870  219.0690 C   0  0  0  0  0  0  0  0  0  0  0  0
  141.3760   75.5990  218.2900 C   0  0  0  0  0  0  0  0  0  0  0  0
  140.7860   76.4470  217.3890 C   0  0  0  0  0  0  0  0  0  0  0  0
  141.3050   77.7380  217.2540 C   0  0  0  0  0  0  0  0  0  0  0  0
  142.3900   78.1340  218.0190 C   0  0  0  0  0  0  0  0  0  0  0  0
  142.8570   79.4400  217.8320 O   0  0  0  0  0  0  0  0  0  0  0  0
  142.9830   77.2810  218.9240 C   0  0  0  0  0  0  0  0  0  0  0  0
  139.8670   70.6150  223.6590 C   0  0  0  0  0  0  0  0  0  0  0  0
  139.2670   69.3840  223.6490 C   0  0  0  0  0  0  0  0  0  0  0  0
  139.2120   68.5830  224.7800 C   0  0  0  0  0  0  0  0  0  0  0  0
  139.7960   69.0800  225.9430 C   0  0  0  0  0  0  0  0  0  0  0  0
  139.7920   68.3620  227.1080 C   0  0  0  0  0  0  0  0  0  0  0  0
  140.3700   68.8470  228.2750 C   0  0  0  0  0  0  0  0  0  0  0  0
  140.3700   68.1430  229.4300 F   0  0  0  0  0  0  0  0  0  0  0  0
  140.9650   70.0850  228.2520 C   0  0  0  0  0  0  0  0  0  0  0  0
  140.9670   70.7980  227.0880 C   0  0  0  0  0  0  0  0  0  0  0  0
  140.3910   70.3170  225.9270 C   0  0  0  0  0  0  0  0  0  0  0  0
  140.4140   71.0440  224.8100 N   0  0  0  0  0  0  0  0  0  0  0  0
  139.6080   73.3080  223.5250 H   0  0  0  0  0  0  0  0  0  0  0  0
  139.7800   73.0094  220.4761 H   0  0  0  0  0  0  0  0  0  0  0  0
  138.9423   74.3484  221.3296 H   0  0  0  0  0  0  0  0  0  0  0  0
  141.8221   72.0917  221.0412 H   0  0  0  0  0  0  0  0  0  0  0  0
  142.4128   72.4442  219.3630 H   0  0  0  0  0  0  0  0  0  0  0  0
  143.9427   72.1103  221.9197 H   0  0  0  0  0  0  0  0  0  0  0  0
  144.2822   71.5068  220.2439 H   0  0  0  0  0  0  0  0  0  0  0  0
  144.9404   74.1443  221.5101 H   0  0  0  0  0  0  0  0  0  0  0  0
  145.8849   73.1653  220.3657 H   0  0  0  0  0  0  0  0  0  0  0  0
  145.0245   75.0515  219.0627 H   0  0  0  0  0  0  0  0  0  0  0  0
  143.9960   73.6956  218.5978 H   0  0  0  0  0  0  0  0  0  0  0  0
  143.4185   75.7275  220.8524 H   0  0  0  0  0  0  0  0  0  0  0  0
  140.9752   74.5810  218.4044 H   0  0  0  0  0  0  0  0  0  0  0  0
  139.9254   76.1197  216.7871 H   0  0  0  0  0  0  0  0  0  0  0  0
  140.8512   78.4404  216.5393 H   0  0  0  0  0  0  0  0  0  0  0  0
  143.6790   79.6490  217.2820 H   0  0  0  0  0  0  0  0  0  0  0  0
  143.8443   77.6122  219.5228 H   0  0  0  0  0  0  0  0  0  0  0  0
  138.8146   69.0192  222.7150 H   0  0  0  0  0  0  0  0  0  0  0  0
  138.7272   67.5958  224.7595 H   0  0  0  0  0  0  0  0  0  0  0  0
  139.3165   67.3702  227.1211 H   0  0  0  0  0  0  0  0  0  0  0  0
  141.4331   70.4959  229.1587 H   0  0  0  0  0  0  0  0  0  0  0  0
  141.4433   71.7894  227.0733 H   0  0  0  0  0  0  0  0  0  0  0  0
  1  2  2  0
  2  3  1  0
  3  4  1  0
  4  5  1  0
  5  6  2  0
  5  7  1  0
  7  8  1  0
  8  9  1  0
  9 10  1  0
 10 11  1  0
 11 12  1  0
 12 13  1  0
 13 14  2  0
 14 15  1  0
 15 16  2  0
 16 17  1  0
 17 18  1  0
 17 19  2  0
  2 20  1  0
 20 21  2  0
 21 22  1  0
 22 23  2  0
 23 24  1  0
 24 25  2  0
 25 26  1  0
 25 27  1  0
 27 28  2  0
 28 29  1  0
 29 30  2  0
 12  7  1  0
 19 13  1  0
 30 20  1  0
 29 23  1  0
  3 31  1  0
  4 32  1  0
  4 33  1  0
  8 34  1  0
  8 35  1  0
  9 36  1  0
  9 37  1  0
 10 38  1  0
 10 39  1  0
 11 40  1  0
 11 41  1  0
 12 42  1  1
 14 43  1  0
 15 44  1  0
 16 45  1  0
 18 46  1  0
 19 47  1  0
 21 48  1  0
 22 49  1  0
 24 50  1  0
 27 51  1  0
 28 52  1  0
M  END
>  <smiles>  (86) 
O=C(NCC(=O)N1CCCCC1c1cccc(O)c1)c1ccc2cc(F)ccc2n1

>  <score_type>  (86) 
oracle

>  <origin>  (86) 
autodockgpu

>  <m_score__min__energy>  (86) 
-8.9600000000000009

>  <m_primary>  (86) 
energy

>  <rmsd>  (86) 
2.8332150312783257

>  <m_score__min__rmsd>  (86) 
2.8332150312783257

>  <meeko>  (86) 
{"free_energy": -8.2, "intermolecular_energy": -9.99, "internal_energy": -1.59, "cluster_size": 8, "cluster_id": 2, "rank_in_cluster": 7}

>  <energy>  (86) 
-8.18

>  <cluster_rmsd>  (86) 
0.57

>  <cluster>  (86) 
3

$$$$

     RDKit          3D

 52 55  0  0  0  0  0  0  0  0999 V2000
  140.6630   71.6920  221.0460 O   0  0  0  0  0  0  0  0  0  0  0  0
  140.2470   72.2370  222.1040 C   0  0  0  0  0  0  0  0  0  0  0  0
  139.9320   73.6180  222.2020 N   0  0  0  0  0  0  0  0  0  0  0  0
  140.1070   74.4420  220.9960 C   0  0  0  0  0  0  0  0  0  0  0  0
  140.7970   75.7010  221.3570 C   0  0  0  0  0  0  0  0  0  0  0  0
  140.6060   76.2060  222.4940 O   0  0  0  0  0  0  0  0  0  0  0  0
  141.6810   76.3950  220.4890 N   0  0  0  0  0  0  0  0  0  0  0  0
  141.8310   77.8300  220.6420 C   0  0  0  0  0  0  0  0  0  0  0  0
  141.6200   78.5590  219.3350 C   0  0  0  0  0  0  0  0  0  0  0  0
  142.0600   77.7260  218.1520 C   0  0  0  0  0  0  0  0  0  0  0  0
  143.1570   76.7780  218.6580 C   0  0  0  0  0  0  0  0  0  0  0  0
  142.4270   75.7320  219.4690 C   0  0  1  0  0  0  0  0  0  0  0  0
  143.3350   74.6650  219.9470 C   0  0  0  0  0  0  0  0  0  0  0  0
  144.6300   74.9520  220.3920 C   0  0  0  0  0  0  0  0  0  0  0  0
  145.4810   73.9730  220.8380 C   0  0  0  0  0  0  0  0  0  0  0  0
  145.0270   72.6520  220.8430 C   0  0  0  0  0  0  0  0  0  0  0  0
  143.7470   72.3540  220.4050 C   0  0  0  0  0  0  0  0  0  0  0  0
  143.3590   71.0100  220.4380 O   0  0  0  0  0  0  0  0  0  0  0  0
  142.8930   73.3380  219.9570 C   0  0  0  0  0  0  0  0  0  0  0  0
  140.0780   71.3910  223.3020 C   0  0  0  0  0  0  0  0  0  0  0  0
  139.4740   70.1640  223.2230 C   0  0  0  0  0  0  0  0  0  0  0  0
  139.3060   69.3530  224.3350 C   0  0  0  0  0  0  0  0  0  0  0  0
  139.7790   69.8360  225.5540 C   0  0  0  0  0  0  0  0  0  0  0  0
  139.6580   69.1080  226.7070 C   0  0  0  0  0  0  0  0  0  0  0  0
  140.1250   69.5780  227.9280 C   0  0  0  0  0  0  0  0  0  0  0  0
  140.0100   68.8640  229.0710 F   0  0  0  0  0  0  0  0  0  0  0  0
  140.7270   70.8120  227.9730 C   0  0  0  0  0  0  0  0  0  0  0  0
  140.8450   71.5350  226.8220 C   0  0  0  0  0  0  0  0  0  0  0  0
  140.3800   71.0680  225.6070 C   0  0  0  0  0  0  0  0  0  0  0  0
  140.5140   71.8050  224.5040 N   0  0  0  0  0  0  0  0  0  0  0  0
  139.5850   74.0460  223.1040 H   0  0  0  0  0  0  0  0  0  0  0  0
  140.7102   73.8911  220.2593 H   0  0  0  0  0  0  0  0  0  0  0  0
  139.1227   74.6734  220.5629 H   0  0  0  0  0  0  0  0  0  0  0  0
  141.0920   78.1892  221.3734 H   0  0  0  0  0  0  0  0  0  0  0  0
  142.8567   78.0319  220.9844 H   0  0  0  0  0  0  0  0  0  0  0  0
  140.5510   78.7948  219.2270 H   0  0  0  0  0  0  0  0  0  0  0  0
  142.2265   79.4765  219.3526 H   0  0  0  0  0  0  0  0  0  0  0  0
  141.2107   77.1470  217.7601 H   0  0  0  0  0  0  0  0  0  0  0  0
  142.4353   78.3643  217.3385 H   0  0  0  0  0  0  0  0  0  0  0  0
  143.6857   76.3126  217.8131 H   0  0  0  0  0  0  0  0  0  0  0  0
  143.9169   77.3058  219.2529 H   0  0  0  0  0  0  0  0  0  0  0  0
  141.7080   75.1857  218.8408 H   0  0  0  0  0  0  0  0  0  0  0  0
  144.9768   75.9959  220.3840 H   0  0  0  0  0  0  0  0  0  0  0  0
  146.4954   74.2219  221.1830 H   0  0  0  0  0  0  0  0  0  0  0  0
  145.6876   71.8462  221.1957 H   0  0  0  0  0  0  0  0  0  0  0  0
  142.4100   70.7140  220.2570 H   0  0  0  0  0  0  0  0  0  0  0  0
  141.8796   73.0840  219.6126 H   0  0  0  0  0  0  0  0  0  0  0  0
  139.1108   69.8110  222.2465 H   0  0  0  0  0  0  0  0  0  0  0  0
  138.8197   68.3693  224.2584 H   0  0  0  0  0  0  0  0  0  0  0  0
  139.1760   68.1201  226.6654 H   0  0  0  0  0  0  0  0  0  0  0  0
  141.1087   71.2117  228.9241 H   0  0  0  0  0  0  0  0  0  0  0  0
  141.3266   72.5232  226.8623 H   0  0  0  0  0  0  0  0  0  0  0  0
  1  2  2  0
  2  3  1  0
  3  4  1  0
  4  5  1  0
  5  6  2  0
  5  7  1  0
  7  8  1  0
  8  9  1  0
  9 10  1  0
 10 11  1  0
 11 12  1  0
 12 13  1  0
 13 14  2  0
 14 15  1  0
 15 16  2  0
 16 17  1  0
 17 18  1  0
 17 19  2  0
  2 20  1  0
 20 21  2  0
 21 22  1  0
 22 23  2  0
 23 24  1  0
 24 25  2  0
 25 26  1  0
 25 27  1  0
 27 28  2  0
 28 29  1  0
 29 30  2  0
 12  7  1  0
 19 13  1  0
 30 20  1  0
 29 23  1  0
  3 31  1  0
  4 32  1  0
  4 33  1  0
  8 34  1  0
  8 35  1  0
  9 36  1  0
  9 37  1  0
 10 38  1  0
 10 39  1  0
 11 40  1  0
 11 41  1  0
 12 42  1  6
 14 43  1  0
 15 44  1  0
 16 45  1  0
 18 46  1  0
 19 47  1  0
 21 48  1  0
 22 49  1  0
 24 50  1  0
 27 51  1  0
 28 52  1  0
M  END
>  <smiles>  (87) 
O=C(NCC(=O)N1CCCCC1c1cccc(O)c1)c1ccc2cc(F)ccc2n1

>  <score_type>  (87) 
oracle

>  <origin>  (87) 
autodockgpu

>  <m_score__min__energy>  (87) 
-8.9600000000000009

>  <m_primary>  (87) 
energy

>  <rmsd>  (87) 
2.3600459772324935

>  <m_score__min__rmsd>  (87) 
2.3600459772324935

>  <meeko>  (87) 
{"free_energy": -8.29, "intermolecular_energy": -10.08, "internal_energy": -2.54, "cluster_size": 26, "cluster_id": 1, "rank_in_cluster": 18}

>  <energy>  (87) 
-8.16

>  <cluster_rmsd>  (87) 
0.56

>  <cluster>  (87) 
3

$$$$

     RDKit          3D

 52 55  0  0  0  0  0  0  0  0999 V2000
  141.0370   72.3060  221.4630 O   0  0  0  0  0  0  0  0  0  0  0  0
  140.1200   72.4870  222.3080 C   0  0  0  0  0  0  0  0  0  0  0  0
  139.1680   73.5370  222.2170 N   0  0  0  0  0  0  0  0  0  0  0  0
  139.2720   74.4520  221.0700 C   0  0  0  0  0  0  0  0  0  0  0  0
  140.4200   75.3640  221.2720 C   0  0  0  0  0  0  0  0  0  0  0  0
  141.0780   75.3020  222.3430 O   0  0  0  0  0  0  0  0  0  0  0  0
  140.8400   76.3300  220.3190 N   0  0  0  0  0  0  0  0  0  0  0  0
  140.3230   76.2520  218.9670 C   0  0  0  0  0  0  0  0  0  0  0  0
  141.4320   76.2620  217.9390 C   0  0  0  0  0  0  0  0  0  0  0  0
  142.6200   77.0710  218.4060 C   0  0  0  0  0  0  0  0  0  0  0  0
  142.0830   78.1320  219.3770 C   0  0  0  0  0  0  0  0  0  0  0  0
  141.7580   77.3740  220.6440 C   0  0  1  0  0  0  0  0  0  0  0  0
  141.3240   78.2750  221.7350 C   0  0  0  0  0  0  0  0  0  0  0  0
  142.2420   79.0390  222.4620 C   0  0  0  0  0  0  0  0  0  0  0  0
  141.8530   79.8780  223.4750 C   0  0  0  0  0  0  0  0  0  0  0  0
  140.4920   79.9630  223.7790 C   0  0  0  0  0  0  0  0  0  0  0  0
  139.5720   79.2120  223.0670 C   0  0  0  0  0  0  0  0  0  0  0  0
  138.2260   79.3480  223.4250 O   0  0  0  0  0  0  0  0  0  0  0  0
  139.9640   78.3690  222.0500 C   0  0  0  0  0  0  0  0  0  0  0  0
  140.0340   71.5580  223.4520 C   0  0  0  0  0  0  0  0  0  0  0  0
  139.4330   70.3340  223.3250 C   0  0  0  0  0  0  0  0  0  0  0  0
  139.3430   69.4450  224.3860 C   0  0  0  0  0  0  0  0  0  0  0  0
  139.8900   69.8450  225.6020 C   0  0  0  0  0  0  0  0  0  0  0  0
  139.8490   69.0370  226.7060 C   0  0  0  0  0  0  0  0  0  0  0  0
  140.3910   69.4250  227.9250 C   0  0  0  0  0  0  0  0  0  0  0  0
  140.3540   68.6310  229.0200 F   0  0  0  0  0  0  0  0  0  0  0  0
  140.9880   70.6580  228.0190 C   0  0  0  0  0  0  0  0  0  0  0  0
  141.0270   71.4620  226.9160 C   0  0  0  0  0  0  0  0  0  0  0  0
  140.4870   71.0770  225.7040 C   0  0  0  0  0  0  0  0  0  0  0  0
  140.5460   71.8910  224.6490 N   0  0  0  0  0  0  0  0  0  0  0  0
  138.4100   73.6640  222.9430 H   0  0  0  0  0  0  0  0  0  0  0  0
  139.4230   73.8702  220.1488 H   0  0  0  0  0  0  0  0  0  0  0  0
  138.3463   75.0398  220.9834 H   0  0  0  0  0  0  0  0  0  0  0  0
  139.7466   75.3213  218.8596 H   0  0  0  0  0  0  0  0  0  0  0  0
  139.6881   77.1333  218.7929 H   0  0  0  0  0  0  0  0  0  0  0  0
  141.7560   75.2272  217.7541 H   0  0  0  0  0  0  0  0  0  0  0  0
  141.0430   76.7237  217.0195 H   0  0  0  0  0  0  0  0  0  0  0  0
  143.3429   76.4198  218.9192 H   0  0  0  0  0  0  0  0  0  0  0  0
  143.1355   77.5407  217.5553 H   0  0  0  0  0  0  0  0  0  0  0  0
  142.8461   78.9002  219.5710 H   0  0  0  0  0  0  0  0  0  0  0  0
  141.2046   78.6559  218.9721 H   0  0  0  0  0  0  0  0  0  0  0  0
  142.6611   76.8995  221.0554 H   0  0  0  0  0  0  0  0  0  0  0  0
  143.3110   78.9648  222.2135 H   0  0  0  0  0  0  0  0  0  0  0  0
  142.5937   80.4689  224.0338 H   0  0  0  0  0  0  0  0  0  0  0  0
  140.1505   80.6281  224.5859 H   0  0  0  0  0  0  0  0  0  0  0  0
  137.5600   79.8510  222.8550 H   0  0  0  0  0  0  0  0  0  0  0  0
  139.2197   77.7794  221.4947 H   0  0  0  0  0  0  0  0  0  0  0  0
  139.0086   70.0470  222.3516 H   0  0  0  0  0  0  0  0  0  0  0  0
  138.8591   68.4639  224.2712 H   0  0  0  0  0  0  0  0  0  0  0  0
  139.3718   68.0492  226.6256 H   0  0  0  0  0  0  0  0  0  0  0  0
  141.4286   70.9933  228.9695 H   0  0  0  0  0  0  0  0  0  0  0  0
  141.5046   72.4498  226.9951 H   0  0  0  0  0  0  0  0  0  0  0  0
  1  2  2  0
  2  3  1  0
  3  4  1  0
  4  5  1  0
  5  6  2  0
  5  7  1  0
  7  8  1  0
  8  9  1  0
  9 10  1  0
 10 11  1  0
 11 12  1  0
 12 13  1  0
 13 14  2  0
 14 15  1  0
 15 16  2  0
 16 17  1  0
 17 18  1  0
 17 19  2  0
  2 20  1  0
 20 21  2  0
 21 22  1  0
 22 23  2  0
 23 24  1  0
 24 25  2  0
 25 26  1  0
 25 27  1  0
 27 28  2  0
 28 29  1  0
 29 30  2  0
 12  7  1  0
 19 13  1  0
 30 20  1  0
 29 23  1  0
  3 31  1  0
  4 32  1  0
  4 33  1  0
  8 34  1  0
  8 35  1  0
  9 36  1  0
  9 37  1  0
 10 38  1  0
 10 39  1  0
 11 40  1  0
 11 41  1  0
 12 42  1  1
 14 43  1  0
 15 44  1  0
 16 45  1  0
 18 46  1  0
 19 47  1  0
 21 48  1  0
 22 49  1  0
 24 50  1  0
 27 51  1  0
 28 52  1  0
M  END
>  <smiles>  (88) 
O=C(NCC(=O)N1CCCCC1c1cccc(O)c1)c1ccc2cc(F)ccc2n1

>  <score_type>  (88) 
oracle

>  <origin>  (88) 
autodockgpu

>  <m_score__min__energy>  (88) 
-8.9600000000000009

>  <m_primary>  (88) 
energy

>  <rmsd>  (88) 
1.4470044065471115

>  <m_score__min__rmsd>  (88) 
1.4470044065471115

>  <meeko>  (88) 
{"free_energy": -8.38, "intermolecular_energy": -10.17, "internal_energy": -1.25, "cluster_size": 10, "cluster_id": 3, "rank_in_cluster": 1}

>  <energy>  (88) 
-8.15

>  <cluster_rmsd>  (88) 
0.54

>  <cluster>  (88) 
3

$$$$

     RDKit          3D

 52 55  0  0  0  0  0  0  0  0999 V2000
  139.4550   70.7000  221.3640 O   0  0  0  0  0  0  0  0  0  0  0  0
  139.5580   71.2920  222.4720 C   0  0  0  0  0  0  0  0  0  0  0  0
  139.6260   72.7050  222.6010 N   0  0  0  0  0  0  0  0  0  0  0  0
  139.5720   73.5040  221.3670 C   0  0  0  0  0  0  0  0  0  0  0  0
  140.7160   74.4430  221.3400 C   0  0  0  0  0  0  0  0  0  0  0  0
  140.6660   75.4970  222.0270 O   0  0  0  0  0  0  0  0  0  0  0  0
  141.8940   74.2340  220.5750 N   0  0  0  0  0  0  0  0  0  0  0  0
  142.0600   72.9760  219.8730 C   0  0  0  0  0  0  0  0  0  0  0  0
  143.3870   72.3250  220.1920 C   0  0  0  0  0  0  0  0  0  0  0  0
  144.4610   73.3520  220.4700 C   0  0  0  0  0  0  0  0  0  0  0  0
  144.0750   74.6210  219.6970 C   0  0  0  0  0  0  0  0  0  0  0  0
  142.9230   75.2180  220.4730 C   0  0  1  0  0  0  0  0  0  0  0  0
  142.4930   76.5210  219.9170 C   0  0  0  0  0  0  0  0  0  0  0  0
  141.8500   77.4780  220.7090 C   0  0  0  0  0  0  0  0  0  0  0  0
  141.4480   78.6890  220.2070 C   0  0  0  0  0  0  0  0  0  0  0  0
  141.6950   78.9630  218.8600 C   0  0  0  0  0  0  0  0  0  0  0  0
  142.3320   78.0250  218.0640 C   0  0  0  0  0  0  0  0  0  0  0  0
  142.5470   78.3670  216.7240 O   0  0  0  0  0  0  0  0  0  0  0  0
  142.7350   76.8070  218.5690 C   0  0  0  0  0  0  0  0  0  0  0  0
  139.6090   70.4710  223.6980 C   0  0  0  0  0  0  0  0  0  0  0  0
  139.1400   69.1840  223.7070 C   0  0  0  0  0  0  0  0  0  0  0  0
  139.1800   68.3960  224.8470 C   0  0  0  0  0  0  0  0  0  0  0  0
  139.7200   68.9640  225.9980 C   0  0  0  0  0  0  0  0  0  0  0  0
  139.8010   68.2640  227.1720 C   0  0  0  0  0  0  0  0  0  0  0  0
  140.3370   68.8210  228.3270 C   0  0  0  0  0  0  0  0  0  0  0  0
  140.4200   68.1340  229.4900 F   0  0  0  0  0  0  0  0  0  0  0  0
  140.7990   70.1130  228.2840 C   0  0  0  0  0  0  0  0  0  0  0  0
  140.7160   70.8080  227.1120 C   0  0  0  0  0  0  0  0  0  0  0  0
  140.1820   70.2560  225.9630 C   0  0  0  0  0  0  0  0  0  0  0  0
  140.1190   70.9680  224.8380 N   0  0  0  0  0  0  0  0  0  0  0  0
  139.7110   73.1730  223.5450 H   0  0  0  0  0  0  0  0  0  0  0  0
  139.6245   72.8361  220.4945 H   0  0  0  0  0  0  0  0  0  0  0  0
  138.6299   74.0710  221.3368 H   0  0  0  0  0  0  0  0  0  0  0  0
  141.2489   72.2940  220.1681 H   0  0  0  0  0  0  0  0  0  0  0  0
  142.0311   73.1812  218.7927 H   0  0  0  0  0  0  0  0  0  0  0  0
  143.2665   71.6861  221.0793 H   0  0  0  0  0  0  0  0  0  0  0  0
  143.6970   71.7324  219.3187 H   0  0  0  0  0  0  0  0  0  0  0  0
  144.5100   73.5658  221.5479 H   0  0  0  0  0  0  0  0  0  0  0  0
  145.4487   72.9841  220.1550 H   0  0  0  0  0  0  0  0  0  0  0  0
  144.9209   75.3231  219.6598 H   0  0  0  0  0  0  0  0  0  0  0  0
  143.8008   74.4019  218.6545 H   0  0  0  0  0  0  0  0  0  0  0  0
  143.2352   75.4736  221.4963 H   0  0  0  0  0  0  0  0  0  0  0  0
  141.6607   77.2518  221.7687 H   0  0  0  0  0  0  0  0  0  0  0  0
  140.9436   79.4261  220.8491 H   0  0  0  0  0  0  0  0  0  0  0  0
  141.3829   79.9262  218.4300 H   0  0  0  0  0  0  0  0  0  0  0  0
  143.3430   78.9140  216.4240 H   0  0  0  0  0  0  0  0  0  0  0  0
  143.2383   76.0725  217.9230 H   0  0  0  0  0  0  0  0  0  0  0  0
  138.7190   68.7631  222.7820 H   0  0  0  0  0  0  0  0  0  0  0  0
  138.8004   67.3636  224.8424 H   0  0  0  0  0  0  0  0  0  0  0  0
  139.4304   67.2288  227.2019 H   0  0  0  0  0  0  0  0  0  0  0  0
  141.2299   70.5815  229.1811 H   0  0  0  0  0  0  0  0  0  0  0  0
  141.0869   71.8431  227.0810 H   0  0  0  0  0  0  0  0  0  0  0  0
  1  2  2  0
  2  3  1  0
  3  4  1  0
  4  5  1  0
  5  6  2  0
  5  7  1  0
  7  8  1  0
  8  9  1  0
  9 10  1  0
 10 11  1  0
 11 12  1  0
 12 13  1  0
 13 14  2  0
 14 15  1  0
 15 16  2  0
 16 17  1  0
 17 18  1  0
 17 19  2  0
  2 20  1  0
 20 21  2  0
 21 22  1  0
 22 23  2  0
 23 24  1  0
 24 25  2  0
 25 26  1  0
 25 27  1  0
 27 28  2  0
 28 29  1  0
 29 30  2  0
 12  7  1  0
 19 13  1  0
 30 20  1  0
 29 23  1  0
  3 31  1  0
  4 32  1  0
  4 33  1  0
  8 34  1  0
  8 35  1  0
  9 36  1  0
  9 37  1  0
 10 38  1  0
 10 39  1  0
 11 40  1  0
 11 41  1  0
 12 42  1  1
 14 43  1  0
 15 44  1  0
 16 45  1  0
 18 46  1  0
 19 47  1  0
 21 48  1  0
 22 49  1  0
 24 50  1  0
 27 51  1  0
 28 52  1  0
M  END
>  <smiles>  (89) 
O=C(NCC(=O)N1CCCCC1c1cccc(O)c1)c1ccc2cc(F)ccc2n1

>  <score_type>  (89) 
oracle

>  <origin>  (89) 
autodockgpu

>  <m_score__min__energy>  (89) 
-8.9600000000000009

>  <m_primary>  (89) 
energy

>  <rmsd>  (89) 
2.5445908005297775

>  <m_score__min__rmsd>  (89) 
2.5445908005297775

>  <meeko>  (89) 
{"free_energy": -8.39, "intermolecular_energy": -10.18, "internal_energy": -1.41, "cluster_size": 8, "cluster_id": 2, "rank_in_cluster": 4}

>  <energy>  (89) 
-8.04

>  <cluster_rmsd>  (89) 
0.63

>  <cluster>  (89) 
3

$$$$

     RDKit          3D

 52 55  0  0  0  0  0  0  0  0999 V2000
  139.0000   71.6400  221.1610 O   0  0  0  0  0  0  0  0  0  0  0  0
  139.7080   72.0220  222.1320 C   0  0  0  0  0  0  0  0  0  0  0  0
  140.4650   73.2240  222.1230 N   0  0  0  0  0  0  0  0  0  0  0  0
  140.4100   74.0540  220.9100 C   0  0  0  0  0  0  0  0  0  0  0  0
  140.9830   75.3870  221.2010 C   0  0  0  0  0  0  0  0  0  0  0  0
  141.3980   75.6420  222.3610 O   0  0  0  0  0  0  0  0  0  0  0  0
  141.0990   76.4250  220.2380 N   0  0  0  0  0  0  0  0  0  0  0  0
  140.4480   76.2650  218.9520 C   0  0  0  0  0  0  0  0  0  0  0  0
  141.4050   76.4970  217.8050 C   0  0  0  0  0  0  0  0  0  0  0  0
  142.4670   77.5120  218.1600 C   0  0  0  0  0  0  0  0  0  0  0  0
  141.8600   78.4410  219.2210 C   0  0  0  0  0  0  0  0  0  0  0  0
  141.8360   77.6210  220.4900 C   0  0  1  0  0  0  0  0  0  0  0  0
  141.3730   78.4110  221.6540 C   0  0  0  0  0  0  0  0  0  0  0  0
  140.0600   78.3160  222.1270 C   0  0  0  0  0  0  0  0  0  0  0  0
  139.6190   79.0420  223.2030 C   0  0  0  0  0  0  0  0  0  0  0  0
  140.5200   79.8990  223.8400 C   0  0  0  0  0  0  0  0  0  0  0  0
  141.8240   80.0020  223.3820 C   0  0  0  0  0  0  0  0  0  0  0  0
  142.6720   80.8790  224.0680 O   0  0  0  0  0  0  0  0  0  0  0  0
  142.2660   79.2730  222.2990 C   0  0  0  0  0  0  0  0  0  0  0  0
  139.7490   71.1740  223.3400 C   0  0  0  0  0  0  0  0  0  0  0  0
  139.1970   69.9210  223.3420 C   0  0  0  0  0  0  0  0  0  0  0  0
  139.2250   69.1070  224.4650 C   0  0  0  0  0  0  0  0  0  0  0  0
  139.8410   69.6160  225.6060 C   0  0  0  0  0  0  0  0  0  0  0  0
  139.9170   68.8870  226.7630 C   0  0  0  0  0  0  0  0  0  0  0  0
  140.5290   69.3840  227.9080 C   0  0  0  0  0  0  0  0  0  0  0  0
  140.6090   68.6690  229.0540 F   0  0  0  0  0  0  0  0  0  0  0  0
  141.0730   70.6440  227.8710 C   0  0  0  0  0  0  0  0  0  0  0  0
  140.9950   71.3670  226.7170 C   0  0  0  0  0  0  0  0  0  0  0  0
  140.3860   70.8750  225.5780 C   0  0  0  0  0  0  0  0  0  0  0  0
  140.3300   71.6130  224.4690 N   0  0  0  0  0  0  0  0  0  0  0  0
  141.0490   73.5180  222.9540 H   0  0  0  0  0  0  0  0  0  0  0  0
  140.9897   73.5722  220.1089 H   0  0  0  0  0  0  0  0  0  0  0  0
  139.3642   74.1656  220.5879 H   0  0  0  0  0  0  0  0  0  0  0  0
  140.0477   75.2429  218.8804 H   0  0  0  0  0  0  0  0  0  0  0  0
  139.6428   77.0111  218.8814 H   0  0  0  0  0  0  0  0  0  0  0  0
  141.8930   75.5448  217.5497 H   0  0  0  0  0  0  0  0  0  0  0  0
  140.8300   76.8863  216.9519 H   0  0  0  0  0  0  0  0  0  0  0  0
  143.3548   77.0044  218.5651 H   0  0  0  0  0  0  0  0  0  0  0  0
  142.7803   78.0806  217.2720 H   0  0  0  0  0  0  0  0  0  0  0  0
  142.4832   79.3379  219.3518 H   0  0  0  0  0  0  0  0  0  0  0  0
  140.8573   78.7933  218.9373 H   0  0  0  0  0  0  0  0  0  0  0  0
  142.8547   77.3227  220.7787 H   0  0  0  0  0  0  0  0  0  0  0  0
  139.3590   77.6371  221.6194 H   0  0  0  0  0  0  0  0  0  0  0  0
  138.5812   78.9520  223.5562 H   0  0  0  0  0  0  0  0  0  0  0  0
  140.1939   80.4930  224.7065 H   0  0  0  0  0  0  0  0  0  0  0  0
  143.6720   80.8930  223.9210 H   0  0  0  0  0  0  0  0  0  0  0  0
  143.3041   79.3675  221.9476 H   0  0  0  0  0  0  0  0  0  0  0  0
  138.7167   69.5484  222.4252 H   0  0  0  0  0  0  0  0  0  0  0  0
  138.7793   68.1014  224.4549 H   0  0  0  0  0  0  0  0  0  0  0  0
  139.4805   67.8776  226.7870 H   0  0  0  0  0  0  0  0  0  0  0  0
  141.5652   71.0649  228.7602 H   0  0  0  0  0  0  0  0  0  0  0  0
  141.4318   72.3763  226.6920 H   0  0  0  0  0  0  0  0  0  0  0  0
  1  2  2  0
  2  3  1  0
  3  4  1  0
  4  5  1  0
  5  6  2  0
  5  7  1  0
  7  8  1  0
  8  9  1  0
  9 10  1  0
 10 11  1  0
 11 12  1  0
 12 13  1  0
 13 14  2  0
 14 15  1  0
 15 16  2  0
 16 17  1  0
 17 18  1  0
 17 19  2  0
  2 20  1  0
 20 21  2  0
 21 22  1  0
 22 23  2  0
 23 24  1  0
 24 25  2  0
 25 26  1  0
 25 27  1  0
 27 28  2  0
 28 29  1  0
 29 30  2  0
 12  7  1  0
 19 13  1  0
 30 20  1  0
 29 23  1  0
  3 31  1  0
  4 32  1  0
  4 33  1  0
  8 34  1  0
  8 35  1  0
  9 36  1  0
  9 37  1  0
 10 38  1  0
 10 39  1  0
 11 40  1  0
 11 41  1  0
 12 42  1  1
 14 43  1  0
 15 44  1  0
 16 45  1  0
 18 46  1  0
 19 47  1  0
 21 48  1  0
 22 49  1  0
 24 50  1  0
 27 51  1  0
 28 52  1  0
M  END
>  <smiles>  (90) 
O=C(NCC(=O)N1CCCCC1c1cccc(O)c1)c1ccc2cc(F)ccc2n1

>  <score_type>  (90) 
oracle

>  <origin>  (90) 
autodockgpu

>  <m_score__min__energy>  (90) 
-8.9600000000000009

>  <m_primary>  (90) 
energy

>  <rmsd>  (90) 
1.533087019671526

>  <m_score__min__rmsd>  (90) 
1.533087019671526

>  <meeko>  (90) 
{"free_energy": -7.37, "intermolecular_energy": -9.16, "internal_energy": -1.92, "cluster_size": 10, "cluster_id": 3, "rank_in_cluster": 10}

>  <energy>  (90) 
-7.97

>  <cluster_rmsd>  (90) 
1.9

>  <cluster>  (90) 
3

$$$$

     RDKit          3D

 52 55  0  0  0  0  0  0  0  0999 V2000
  141.3180   72.1670  221.3150 O   0  0  0  0  0  0  0  0  0  0  0  0
  140.4470   72.5020  222.1630 C   0  0  0  0  0  0  0  0  0  0  0  0
  139.6720   73.6880  222.0640 N   0  0  0  0  0  0  0  0  0  0  0  0
  139.9120   74.5610  220.9040 C   0  0  0  0  0  0  0  0  0  0  0  0
  141.0990   75.4070  221.1640 C   0  0  0  0  0  0  0  0  0  0  0  0
  141.4480   75.6330  222.3520 O   0  0  0  0  0  0  0  0  0  0  0  0
  141.8900   75.9950  220.1420 N   0  0  0  0  0  0  0  0  0  0  0  0
  142.0680   77.4340  220.1330 C   0  0  0  0  0  0  0  0  0  0  0  0
  141.7230   78.0350  218.7890 C   0  0  0  0  0  0  0  0  0  0  0  0
  142.0250   77.0810  217.6560 C   0  0  0  0  0  0  0  0  0  0  0  0
  143.1620   76.1670  218.1340 C   0  0  0  0  0  0  0  0  0  0  0  0
  142.5150   75.2200  219.1190 C   0  0  1  0  0  0  0  0  0  0  0  0
  143.4600   74.1880  219.6010 C   0  0  0  0  0  0  0  0  0  0  0  0
  143.3440   72.8500  219.2110 C   0  0  0  0  0  0  0  0  0  0  0  0
  144.2130   71.8840  219.6500 C   0  0  0  0  0  0  0  0  0  0  0  0
  145.2440   72.2630  220.5140 C   0  0  0  0  0  0  0  0  0  0  0  0
  145.3700   73.5850  220.9080 C   0  0  0  0  0  0  0  0  0  0  0  0
  146.4260   73.8930  221.7740 O   0  0  0  0  0  0  0  0  0  0  0  0
  144.4960   74.5550  220.4670 C   0  0  0  0  0  0  0  0  0  0  0  0
  140.2230   71.6100  223.3180 C   0  0  0  0  0  0  0  0  0  0  0  0
  139.5400   70.4310  223.1800 C   0  0  0  0  0  0  0  0  0  0  0  0
  139.3190   69.5790  224.2510 C   0  0  0  0  0  0  0  0  0  0  0  0
  139.8210   69.9690  225.4910 C   0  0  0  0  0  0  0  0  0  0  0  0
  139.6530   69.1940  226.6070 C   0  0  0  0  0  0  0  0  0  0  0  0
  140.1480   69.5720  227.8490 C   0  0  0  0  0  0  0  0  0  0  0  0
  139.9860   68.8110  228.9560 F   0  0  0  0  0  0  0  0  0  0  0  0
  140.8290   70.7600  227.9530 C   0  0  0  0  0  0  0  0  0  0  0  0
  140.9940   71.5310  226.8390 C   0  0  0  0  0  0  0  0  0  0  0  0
  140.5010   71.1560  225.6030 C   0  0  0  0  0  0  0  0  0  0  0  0
  140.6840   71.9360  224.5380 N   0  0  0  0  0  0  0  0  0  0  0  0
  138.9480   73.9410  222.7910 H   0  0  0  0  0  0  0  0  0  0  0  0
  140.0892   73.9442  220.0106 H   0  0  0  0  0  0  0  0  0  0  0  0
  139.0332   75.2013  220.7373 H   0  0  0  0  0  0  0  0  0  0  0  0
  141.4158   77.8781  220.8994 H   0  0  0  0  0  0  0  0  0  0  0  0
  143.1265   77.6485  220.3414 H   0  0  0  0  0  0  0  0  0  0  0  0
  140.6507   78.2799  218.7726 H   0  0  0  0  0  0  0  0  0  0  0  0
  142.3357   78.9379  218.6496 H   0  0  0  0  0  0  0  0  0  0  0  0
  141.1334   76.4825  217.4175 H   0  0  0  0  0  0  0  0  0  0  0  0
  142.3154   77.6283  216.7471 H   0  0  0  0  0  0  0  0  0  0  0  0
  143.5922   75.6106  217.2883 H   0  0  0  0  0  0  0  0  0  0  0  0
  143.9863   76.7362  218.5885 H   0  0  0  0  0  0  0  0  0  0  0  0
  141.7273   74.6286  218.6294 H   0  0  0  0  0  0  0  0  0  0  0  0
  142.5292   72.5630  218.5300 H   0  0  0  0  0  0  0  0  0  0  0  0
  144.1013   70.8375  219.3301 H   0  0  0  0  0  0  0  0  0  0  0  0
  145.9567   71.5102  220.8818 H   0  0  0  0  0  0  0  0  0  0  0  0
  146.3730   73.7380  222.7720 H   0  0  0  0  0  0  0  0  0  0  0  0
  144.6109   75.6001  220.7903 H   0  0  0  0  0  0  0  0  0  0  0  0
  139.1547   70.1513  222.1884 H   0  0  0  0  0  0  0  0  0  0  0  0
  138.7699   68.6339  224.1271 H   0  0  0  0  0  0  0  0  0  0  0  0
  139.1090   68.2421  226.5176 H   0  0  0  0  0  0  0  0  0  0  0  0
  141.2362   71.0859  228.9215 H   0  0  0  0  0  0  0  0  0  0  0  0
  141.5377   72.4831  226.9276 H   0  0  0  0  0  0  0  0  0  0  0  0
  1  2  2  0
  2  3  1  0
  3  4  1  0
  4  5  1  0
  5  6  2  0
  5  7  1  0
  7  8  1  0
  8  9  1  0
  9 10  1  0
 10 11  1  0
 11 12  1  0
 12 13  1  0
 13 14  2  0
 14 15  1  0
 15 16  2  0
 16 17  1  0
 17 18  1  0
 17 19  2  0
  2 20  1  0
 20 21  2  0
 21 22  1  0
 22 23  2  0
 23 24  1  0
 24 25  2  0
 25 26  1  0
 25 27  1  0
 27 28  2  0
 28 29  1  0
 29 30  2  0
 12  7  1  0
 19 13  1  0
 30 20  1  0
 29 23  1  0
  3 31  1  0
  4 32  1  0
  4 33  1  0
  8 34  1  0
  8 35  1  0
  9 36  1  0
  9 37  1  0
 10 38  1  0
 10 39  1  0
 11 40  1  0
 11 41  1  0
 12 42  1  6
 14 43  1  0
 15 44  1  0
 16 45  1  0
 18 46  1  0
 19 47  1  0
 21 48  1  0
 22 49  1  0
 24 50  1  0
 27 51  1  0
 28 52  1  0
M  END
>  <smiles>  (91) 
O=C(NCC(=O)N1CCCCC1c1cccc(O)c1)c1ccc2cc(F)ccc2n1

>  <score_type>  (91) 
oracle

>  <origin>  (91) 
autodockgpu

>  <m_score__min__energy>  (91) 
-8.9600000000000009

>  <m_primary>  (91) 
energy

>  <rmsd>  (91) 
2.33445651950878

>  <m_score__min__rmsd>  (91) 
2.33445651950878

>  <meeko>  (91) 
{"free_energy": -8.13, "intermolecular_energy": -9.92, "internal_energy": -1.71, "cluster_size": 26, "cluster_id": 1, "rank_in_cluster": 23}

>  <energy>  (91) 
-7.96

>  <cluster_rmsd>  (91) 
0.63

>  <cluster>  (91) 
3

$$$$

     RDKit          3D

 52 55  0  0  0  0  0  0  0  0999 V2000
  140.2550   72.0380  220.9810 O   0  0  0  0  0  0  0  0  0  0  0  0
  140.0000   72.5240  222.1160 C   0  0  0  0  0  0  0  0  0  0  0  0
  139.7850   73.9100  222.3440 N   0  0  0  0  0  0  0  0  0  0  0  0
  139.8680   74.8100  221.1830 C   0  0  0  0  0  0  0  0  0  0  0  0
  140.7290   75.9660  221.5200 C   0  0  0  0  0  0  0  0  0  0  0  0
  140.7040   76.4360  222.6880 O   0  0  0  0  0  0  0  0  0  0  0  0
  141.6030   76.5980  220.5950 N   0  0  0  0  0  0  0  0  0  0  0  0
  141.8300   78.0260  220.7080 C   0  0  0  0  0  0  0  0  0  0  0  0
  141.5910   78.7380  219.3960 C   0  0  0  0  0  0  0  0  0  0  0  0
  141.9310   77.8610  218.2130 C   0  0  0  0  0  0  0  0  0  0  0  0
  143.0030   76.8690  218.6860 C   0  0  0  0  0  0  0  0  0  0  0  0
  142.2640   75.8780  219.5550 C   0  0  1  0  0  0  0  0  0  0  0  0
  143.1410   74.7770  220.0130 C   0  0  0  0  0  0  0  0  0  0  0  0
  144.5020   74.9820  220.2650 C   0  0  0  0  0  0  0  0  0  0  0  0
  145.3250   73.9710  220.6900 C   0  0  0  0  0  0  0  0  0  0  0  0
  144.7740   72.7000  220.8750 C   0  0  0  0  0  0  0  0  0  0  0  0
  143.4280   72.4840  220.6300 C   0  0  0  0  0  0  0  0  0  0  0  0
  142.9440   71.1870  220.8360 O   0  0  0  0  0  0  0  0  0  0  0  0
  142.6010   73.5000  220.2020 C   0  0  0  0  0  0  0  0  0  0  0  0
  139.9220   71.6020  223.2660 C   0  0  0  0  0  0  0  0  0  0  0  0
  139.2660   70.4030  223.1670 C   0  0  0  0  0  0  0  0  0  0  0  0
  139.1810   69.5220  224.2350 C   0  0  0  0  0  0  0  0  0  0  0  0
  139.7920   69.9030  225.4270 C   0  0  0  0  0  0  0  0  0  0  0  0
  139.7610   69.1000  226.5350 C   0  0  0  0  0  0  0  0  0  0  0  0
  140.3670   69.4690  227.7300 C   0  0  0  0  0  0  0  0  0  0  0  0
  140.3400   68.6790  228.8290 F   0  0  0  0  0  0  0  0  0  0  0  0
  141.0160   70.6770  227.7950 C   0  0  0  0  0  0  0  0  0  0  0  0
  141.0450   71.4750  226.6890 C   0  0  0  0  0  0  0  0  0  0  0  0
  140.4420   71.1090  225.5000 C   0  0  0  0  0  0  0  0  0  0  0  0
  140.4920   71.9180  224.4410 N   0  0  0  0  0  0  0  0  0  0  0  0
  139.5730   74.2870  223.3080 H   0  0  0  0  0  0  0  0  0  0  0  0
  140.2987   74.2680  220.3281 H   0  0  0  0  0  0  0  0  0  0  0  0
  138.8608   75.1653  220.9198 H   0  0  0  0  0  0  0  0  0  0  0  0
  141.1461   78.4364  221.4656 H   0  0  0  0  0  0  0  0  0  0  0  0
  142.8798   78.1836  220.9962 H   0  0  0  0  0  0  0  0  0  0  0  0
  140.5308   79.0246  219.3341 H   0  0  0  0  0  0  0  0  0  0  0  0
  142.2419   79.6242  219.3637 H   0  0  0  0  0  0  0  0  0  0  0  0
  141.0360   77.3180  217.8752 H   0  0  0  0  0  0  0  0  0  0  0  0
  142.2976   78.4636  217.3689 H   0  0  0  0  0  0  0  0  0  0  0  0
  143.4649   76.3605  217.8269 H   0  0  0  0  0  0  0  0  0  0  0  0
  143.8168   77.3695  219.2311 H   0  0  0  0  0  0  0  0  0  0  0  0
  141.4890   75.3560  218.9747 H   0  0  0  0  0  0  0  0  0  0  0  0
  144.9253   75.9865  220.1174 H   0  0  0  0  0  0  0  0  0  0  0  0
  146.3925   74.1557  220.8806 H   0  0  0  0  0  0  0  0  0  0  0  0
  145.4103   71.8699  221.2157 H   0  0  0  0  0  0  0  0  0  0  0  0
  141.9580   70.9830  220.9300 H   0  0  0  0  0  0  0  0  0  0  0  0
  141.5343   73.3102  220.0121 H   0  0  0  0  0  0  0  0  0  0  0  0
  138.7927   70.1310  222.2120 H   0  0  0  0  0  0  0  0  0  0  0  0
  138.6525   68.5616  224.1441 H   0  0  0  0  0  0  0  0  0  0  0  0
  139.2403   68.1327  226.4778 H   0  0  0  0  0  0  0  0  0  0  0  0
  141.5060   70.9971  228.7263 H   0  0  0  0  0  0  0  0  0  0  0  0
  141.5657   72.4423  226.7451 H   0  0  0  0  0  0  0  0  0  0  0  0
  1  2  2  0
  2  3  1  0
  3  4  1  0
  4  5  1  0
  5  6  2  0
  5  7  1  0
  7  8  1  0
  8  9  1  0
  9 10  1  0
 10 11  1  0
 11 12  1  0
 12 13  1  0
 13 14  2  0
 14 15  1  0
 15 16  2  0
 16 17  1  0
 17 18  1  0
 17 19  2  0
  2 20  1  0
 20 21  2  0
 21 22  1  0
 22 23  2  0
 23 24  1  0
 24 25  2  0
 25 26  1  0
 25 27  1  0
 27 28  2  0
 28 29  1  0
 29 30  2  0
 12  7  1  0
 19 13  1  0
 30 20  1  0
 29 23  1  0
  3 31  1  0
  4 32  1  0
  4 33  1  0
  8 34  1  0
  8 35  1  0
  9 36  1  0
  9 37  1  0
 10 38  1  0
 10 39  1  0
 11 40  1  0
 11 41  1  0
 12 42  1  6
 14 43  1  0
 15 44  1  0
 16 45  1  0
 18 46  1  0
 19 47  1  0
 21 48  1  0
 22 49  1  0
 24 50  1  0
 27 51  1  0
 28 52  1  0
M  END
>  <smiles>  (92) 
O=C(NCC(=O)N1CCCCC1c1cccc(O)c1)c1ccc2cc(F)ccc2n1

>  <score_type>  (92) 
oracle

>  <origin>  (92) 
autodockgpu

>  <m_score__min__energy>  (92) 
-8.9600000000000009

>  <m_primary>  (92) 
energy

>  <rmsd>  (92) 
2.387063107740682

>  <m_score__min__rmsd>  (92) 
2.387063107740682

>  <meeko>  (92) 
{"free_energy": -8.02, "intermolecular_energy": -9.81, "internal_energy": -2.56, "cluster_size": 26, "cluster_id": 1, "rank_in_cluster": 24}

>  <energy>  (92) 
-7.92

>  <cluster_rmsd>  (92) 
0.82

>  <cluster>  (92) 
3

$$$$

     RDKit          3D

 52 55  0  0  0  0  0  0  0  0999 V2000
  138.8850   71.0960  221.3390 O   0  0  0  0  0  0  0  0  0  0  0  0
  139.2870   71.6180  222.4140 C   0  0  0  0  0  0  0  0  0  0  0  0
  139.5800   73.0010  222.5510 N   0  0  0  0  0  0  0  0  0  0  0  0
  139.4010   73.8550  221.3670 C   0  0  0  0  0  0  0  0  0  0  0  0
  139.4570   75.2770  221.7740 C   0  0  0  0  0  0  0  0  0  0  0  0
  140.4090   75.6760  222.4940 O   0  0  0  0  0  0  0  0  0  0  0  0
  138.4870   76.2450  221.4010 N   0  0  0  0  0  0  0  0  0  0  0  0
  137.0830   75.8840  221.4410 C   0  0  0  0  0  0  0  0  0  0  0  0
  136.3870   76.1860  220.1330 C   0  0  0  0  0  0  0  0  0  0  0  0
  136.9910   77.3870  219.4430 C   0  0  0  0  0  0  0  0  0  0  0  0
  137.5900   78.2780  220.5400 C   0  0  0  0  0  0  0  0  0  0  0  0
  138.8450   77.5630  220.9840 C   0  0  1  0  0  0  0  0  0  0  0  0
  139.6130   78.3490  221.9760 C   0  0  0  0  0  0  0  0  0  0  0  0
  138.9850   78.9710  223.0600 C   0  0  0  0  0  0  0  0  0  0  0  0
  139.6840   79.7020  223.9860 C   0  0  0  0  0  0  0  0  0  0  0  0
  141.0680   79.8190  223.8310 C   0  0  0  0  0  0  0  0  0  0  0  0
  141.7020   79.2070  222.7620 C   0  0  0  0  0  0  0  0  0  0  0  0
  143.0900   79.3660  222.6690 O   0  0  0  0  0  0  0  0  0  0  0  0
  140.9990   78.4740  221.8310 C   0  0  0  0  0  0  0  0  0  0  0  0
  139.4590   70.7420  223.5900 C   0  0  0  0  0  0  0  0  0  0  0  0
  139.0370   69.4400  223.5700 C   0  0  0  0  0  0  0  0  0  0  0  0
  139.1900   68.6000  224.6630 C   0  0  0  0  0  0  0  0  0  0  0  0
  139.7960   69.1340  225.7980 C   0  0  0  0  0  0  0  0  0  0  0  0
  139.9900   68.3830  226.9260 C   0  0  0  0  0  0  0  0  0  0  0  0
  140.5930   68.9040  228.0640 C   0  0  0  0  0  0  0  0  0  0  0  0
  140.7890   68.1670  229.1820 F   0  0  0  0  0  0  0  0  0  0  0  0
  141.0060   70.2140  228.0510 C   0  0  0  0  0  0  0  0  0  0  0  0
  140.8110   70.9600  226.9250 C   0  0  0  0  0  0  0  0  0  0  0  0
  140.2100   70.4430  225.7930 C   0  0  0  0  0  0  0  0  0  0  0  0
  140.0370   71.2040  224.7120 N   0  0  0  0  0  0  0  0  0  0  0  0
  139.9150   73.4090  223.4670 H   0  0  0  0  0  0  0  0  0  0  0  0
  140.2017   73.6491  220.6414 H   0  0  0  0  0  0  0  0  0  0  0  0
  138.4255   73.6430  220.9049 H   0  0  0  0  0  0  0  0  0  0  0  0
  136.9982   74.8072  221.6489 H   0  0  0  0  0  0  0  0  0  0  0  0
  136.5998   76.4788  222.2302 H   0  0  0  0  0  0  0  0  0  0  0  0
  136.4770   75.3120  219.4712 H   0  0  0  0  0  0  0  0  0  0  0  0
  135.3319   76.4095  220.3495 H   0  0  0  0  0  0  0  0  0  0  0  0
  137.7781   77.0658  218.7449 H   0  0  0  0  0  0  0  0  0  0  0  0
  136.2305   77.9323  218.8649 H   0  0  0  0  0  0  0  0  0  0  0  0
  137.8333   79.2732  220.1395 H   0  0  0  0  0  0  0  0  0  0  0  0
  136.8884   78.4359  221.3724 H   0  0  0  0  0  0  0  0  0  0  0  0
  139.5503   77.4613  220.1460 H   0  0  0  0  0  0  0  0  0  0  0  0
  137.8955   78.8706  223.1733 H   0  0  0  0  0  0  0  0  0  0  0  0
  139.1684   80.1842  224.8296 H   0  0  0  0  0  0  0  0  0  0  0  0
  141.6550   80.3981  224.5591 H   0  0  0  0  0  0  0  0  0  0  0  0
  143.6660   78.7790  222.0820 H   0  0  0  0  0  0  0  0  0  0  0  0
  141.5186   77.9952  220.9879 H   0  0  0  0  0  0  0  0  0  0  0  0
  138.5618   69.0477  222.6588 H   0  0  0  0  0  0  0  0  0  0  0  0
  138.8470   67.5552  224.6348 H   0  0  0  0  0  0  0  0  0  0  0  0
  139.6581   67.3343  226.9315 H   0  0  0  0  0  0  0  0  0  0  0  0
  141.4873   70.6557  228.9360 H   0  0  0  0  0  0  0  0  0  0  0  0
  141.1435   72.0085  226.9182 H   0  0  0  0  0  0  0  0  0  0  0  0
  1  2  2  0
  2  3  1  0
  3  4  1  0
  4  5  1  0
  5  6  2  0
  5  7  1  0
  7  8  1  0
  8  9  1  0
  9 10  1  0
 10 11  1  0
 11 12  1  0
 12 13  1  0
 13 14  2  0
 14 15  1  0
 15 16  2  0
 16 17  1  0
 17 18  1  0
 17 19  2  0
  2 20  1  0
 20 21  2  0
 21 22  1  0
 22 23  2  0
 23 24  1  0
 24 25  2  0
 25 26  1  0
 25 27  1  0
 27 28  2  0
 28 29  1  0
 29 30  2  0
 12  7  1  0
 19 13  1  0
 30 20  1  0
 29 23  1  0
  3 31  1  0
  4 32  1  0
  4 33  1  0
  8 34  1  0
  8 35  1  0
  9 36  1  0
  9 37  1  0
 10 38  1  0
 10 39  1  0
 11 40  1  0
 11 41  1  0
 12 42  1  6
 14 43  1  0
 15 44  1  0
 16 45  1  0
 18 46  1  0
 19 47  1  0
 21 48  1  0
 22 49  1  0
 24 50  1  0
 27 51  1  0
 28 52  1  0
M  END
>  <smiles>  (93) 
O=C(NCC(=O)N1CCCCC1c1cccc(O)c1)c1ccc2cc(F)ccc2n1

>  <score_type>  (93) 
oracle

>  <origin>  (93) 
autodockgpu

>  <m_score__min__energy>  (93) 
-8.9600000000000009

>  <m_primary>  (93) 
energy

>  <rmsd>  (93) 
2.4071420690539522

>  <m_score__min__rmsd>  (93) 
2.4071420690539522

>  <meeko>  (93) 
{"free_energy": -7.78, "intermolecular_energy": -9.57, "internal_energy": -1.62, "cluster_size": 2, "cluster_id": 4, "rank_in_cluster": 2}

>  <energy>  (93) 
-7.74

>  <cluster_rmsd>  (93) 
1.86

>  <cluster>  (93) 
3

$$$$

     RDKit          3D

 52 55  0  0  0  0  0  0  0  0999 V2000
  140.3840   71.8220  221.0880 O   0  0  0  0  0  0  0  0  0  0  0  0
  140.0400   72.3470  222.1810 C   0  0  0  0  0  0  0  0  0  0  0  0
  139.7740   73.7340  222.3350 N   0  0  0  0  0  0  0  0  0  0  0  0
  139.9130   74.5880  221.1450 C   0  0  0  0  0  0  0  0  0  0  0  0
  140.6950   75.7940  221.4960 C   0  0  0  0  0  0  0  0  0  0  0  0
  140.6230   76.2600  222.6640 O   0  0  0  0  0  0  0  0  0  0  0  0
  141.5410   76.4810  220.5850 N   0  0  0  0  0  0  0  0  0  0  0  0
  141.7530   77.9050  220.7610 C   0  0  0  0  0  0  0  0  0  0  0  0
  141.4780   78.6750  219.4890 C   0  0  0  0  0  0  0  0  0  0  0  0
  141.8050   77.8580  218.2600 C   0  0  0  0  0  0  0  0  0  0  0  0
  142.9000   76.8610  218.6650 C   0  0  0  0  0  0  0  0  0  0  0  0
  142.1900   75.8190  219.5000 C   0  0  1  0  0  0  0  0  0  0  0  0
  143.0900   74.7100  219.8880 C   0  0  0  0  0  0  0  0  0  0  0  0
  142.6130   73.4060  220.0570 C   0  0  0  0  0  0  0  0  0  0  0  0
  143.4360   72.3690  220.4160 C   0  0  0  0  0  0  0  0  0  0  0  0
  144.7930   72.6380  220.6140 C   0  0  0  0  0  0  0  0  0  0  0  0
  145.2790   73.9250  220.4490 C   0  0  0  0  0  0  0  0  0  0  0  0
  146.6480   74.1210  220.6640 O   0  0  0  0  0  0  0  0  0  0  0  0
  144.4510   74.9660  220.0900 C   0  0  0  0  0  0  0  0  0  0  0  0
  139.9070   71.4700  223.3620 C   0  0  0  0  0  0  0  0  0  0  0  0
  139.2790   70.2560  223.2740 C   0  0  0  0  0  0  0  0  0  0  0  0
  139.1440   69.4180  224.3700 C   0  0  0  0  0  0  0  0  0  0  0  0
  139.6740   69.8580  225.5800 C   0  0  0  0  0  0  0  0  0  0  0  0
  139.5890   69.1000  226.7170 C   0  0  0  0  0  0  0  0  0  0  0  0
  140.1140   69.5290  227.9300 C   0  0  0  0  0  0  0  0  0  0  0  0
  140.0340   68.7840  229.0570 F   0  0  0  0  0  0  0  0  0  0  0  0
  140.7380   70.7510  227.9840 C   0  0  0  0  0  0  0  0  0  0  0  0
  140.8210   71.5040  226.8490 C   0  0  0  0  0  0  0  0  0  0  0  0
  140.2980   71.0790  225.6420 C   0  0  0  0  0  0  0  0  0  0  0  0
  140.3990   71.8440  224.5550 N   0  0  0  0  0  0  0  0  0  0  0  0
  139.4860   74.1440  223.2660 H   0  0  0  0  0  0  0  0  0  0  0  0
  140.4332   74.0309  220.3519 H   0  0  0  0  0  0  0  0  0  0  0  0
  138.9164   74.8866  220.7879 H   0  0  0  0  0  0  0  0  0  0  0  0
  141.0802   78.2702  221.5509 H   0  0  0  0  0  0  0  0  0  0  0  0
  142.8066   78.0626  221.0351 H   0  0  0  0  0  0  0  0  0  0  0  0
  140.4132   78.9498  219.4616 H   0  0  0  0  0  0  0  0  0  0  0  0
  142.1162   79.5709  219.4854 H   0  0  0  0  0  0  0  0  0  0  0  0
  140.9105   77.3181  217.9158 H   0  0  0  0  0  0  0  0  0  0  0  0
  142.1456   78.5039  217.4373 H   0  0  0  0  0  0  0  0  0  0  0  0
  143.3523   76.4004  217.7743 H   0  0  0  0  0  0  0  0  0  0  0  0
  143.7177   77.3468  219.2176 H   0  0  0  0  0  0  0  0  0  0  0  0
  141.4102   75.3137  218.9112 H   0  0  0  0  0  0  0  0  0  0  0  0
  141.5433   73.2056  219.8969 H   0  0  0  0  0  0  0  0  0  0  0  0
  143.0380   71.3516  220.5448 H   0  0  0  0  0  0  0  0  0  0  0  0
  145.4770   71.8259  220.9016 H   0  0  0  0  0  0  0  0  0  0  0  0
  147.2440   74.5760  219.9870 H   0  0  0  0  0  0  0  0  0  0  0  0
  144.8532   75.9821  219.9641 H   0  0  0  0  0  0  0  0  0  0  0  0
  138.8694   69.9363  222.3044 H   0  0  0  0  0  0  0  0  0  0  0  0
  138.6385   68.4446  224.2871 H   0  0  0  0  0  0  0  0  0  0  0  0
  139.0897   68.1211  226.6688 H   0  0  0  0  0  0  0  0  0  0  0  0
  141.1650   71.1178  228.9290 H   0  0  0  0  0  0  0  0  0  0  0  0
  141.3211   72.4826  226.8961 H   0  0  0  0  0  0  0  0  0  0  0  0
  1  2  2  0
  2  3  1  0
  3  4  1  0
  4  5  1  0
  5  6  2  0
  5  7  1  0
  7  8  1  0
  8  9  1  0
  9 10  1  0
 10 11  1  0
 11 12  1  0
 12 13  1  0
 13 14  2  0
 14 15  1  0
 15 16  2  0
 16 17  1  0
 17 18  1  0
 17 19  2  0
  2 20  1  0
 20 21  2  0
 21 22  1  0
 22 23  2  0
 23 24  1  0
 24 25  2  0
 25 26  1  0
 25 27  1  0
 27 28  2  0
 28 29  1  0
 29 30  2  0
 12  7  1  0
 19 13  1  0
 30 20  1  0
 29 23  1  0
  3 31  1  0
  4 32  1  0
  4 33  1  0
  8 34  1  0
  8 35  1  0
  9 36  1  0
  9 37  1  0
 10 38  1  0
 10 39  1  0
 11 40  1  0
 11 41  1  0
 12 42  1  6
 14 43  1  0
 15 44  1  0
 16 45  1  0
 18 46  1  0
 19 47  1  0
 21 48  1  0
 22 49  1  0
 24 50  1  0
 27 51  1  0
 28 52  1  0
M  END
>  <smiles>  (94) 
O=C(NCC(=O)N1CCCCC1c1cccc(O)c1)c1ccc2cc(F)ccc2n1

>  <score_type>  (94) 
oracle

>  <origin>  (94) 
autodockgpu

>  <m_score__min__energy>  (94) 
-8.9600000000000009

>  <m_primary>  (94) 
energy

>  <rmsd>  (94) 
2.337059684529273

>  <m_score__min__rmsd>  (94) 
2.337059684529273

>  <meeko>  (94) 
{"free_energy": -8.71, "intermolecular_energy": -10.5, "internal_energy": -1.84, "cluster_size": 26, "cluster_id": 1, "rank_in_cluster": 6}

>  <energy>  (94) 
-7.37

>  <cluster_rmsd>  (94) 
1.58

>  <cluster>  (94) 
3

$$$$

     RDKit          3D

 52 55  0  0  0  0  0  0  0  0999 V2000
  140.0170   71.7200  221.0340 O   0  0  0  0  0  0  0  0  0  0  0  0
  139.8680   72.2670  222.1600 C   0  0  0  0  0  0  0  0  0  0  0  0
  139.6910   73.6660  222.3340 N   0  0  0  0  0  0  0  0  0  0  0  0
  139.6860   74.5050  221.1260 C   0  0  0  0  0  0  0  0  0  0  0  0
  140.2810   75.8230  221.4420 C   0  0  0  0  0  0  0  0  0  0  0  0
  140.3560   76.1960  222.6420 O   0  0  0  0  0  0  0  0  0  0  0  0
  140.7850   76.7190  220.4620 N   0  0  0  0  0  0  0  0  0  0  0  0
  140.2400   76.6680  219.1190 C   0  0  0  0  0  0  0  0  0  0  0  0
  141.3270   76.5400  218.0760 C   0  0  0  0  0  0  0  0  0  0  0  0
  142.6010   77.2290  218.5080 C   0  0  0  0  0  0  0  0  0  0  0  0
  142.1940   78.3610  219.4630 C   0  0  0  0  0  0  0  0  0  0  0  0
  141.8120   77.6670  220.7500 C   0  0  1  0  0  0  0  0  0  0  0  0
  141.4920   78.6310  221.8280 C   0  0  0  0  0  0  0  0  0  0  0  0
  142.4820   79.1300  222.6810 C   0  0  0  0  0  0  0  0  0  0  0  0
  142.2000   80.0230  223.6820 C   0  0  0  0  0  0  0  0  0  0  0  0
  140.8770   80.4420  223.8430 C   0  0  0  0  0  0  0  0  0  0  0  0
  139.8870   79.9570  223.0050 C   0  0  0  0  0  0  0  0  0  0  0  0
  138.5840   80.4200  223.2230 O   0  0  0  0  0  0  0  0  0  0  0  0
  140.1710   79.0580  221.9990 C   0  0  0  0  0  0  0  0  0  0  0  0
  139.8760   71.4050  223.3590 C   0  0  0  0  0  0  0  0  0  0  0  0
  139.3900   70.1250  223.3130 C   0  0  0  0  0  0  0  0  0  0  0  0
  139.3890   69.2990  224.4260 C   0  0  0  0  0  0  0  0  0  0  0  0
  139.9060   69.8210  225.6090 C   0  0  0  0  0  0  0  0  0  0  0  0
  139.9470   69.0810  226.7610 C   0  0  0  0  0  0  0  0  0  0  0  0
  140.4610   69.5910  227.9470 C   0  0  0  0  0  0  0  0  0  0  0  0
  140.5050   68.8650  229.0880 F   0  0  0  0  0  0  0  0  0  0  0  0
  140.9410   70.8780  227.9590 C   0  0  0  0  0  0  0  0  0  0  0  0
  140.8980   71.6130  226.8090 C   0  0  0  0  0  0  0  0  0  0  0  0
  140.3870   71.1060  225.6290 C   0  0  0  0  0  0  0  0  0  0  0  0
  140.3630   71.8560  224.5270 N   0  0  0  0  0  0  0  0  0  0  0  0
  139.5680   74.0950  223.2920 H   0  0  0  0  0  0  0  0  0  0  0  0
  140.2755   74.0157  220.3366 H   0  0  0  0  0  0  0  0  0  0  0  0
  138.6517   74.6422  220.7775 H   0  0  0  0  0  0  0  0  0  0  0  0
  139.5674   75.8011  219.0405 H   0  0  0  0  0  0  0  0  0  0  0  0
  139.6980   77.6072  218.9343 H   0  0  0  0  0  0  0  0  0  0  0  0
  141.5375   75.4732  217.9097 H   0  0  0  0  0  0  0  0  0  0  0  0
  140.9736   77.0211  217.1520 H   0  0  0  0  0  0  0  0  0  0  0  0
  143.2599   76.5161  219.0254 H   0  0  0  0  0  0  0  0  0  0  0  0
  143.1489   77.6241  217.6398 H   0  0  0  0  0  0  0  0  0  0  0  0
  143.0365   79.0483  219.6295 H   0  0  0  0  0  0  0  0  0  0  0  0
  141.3693   78.9666  219.0590 H   0  0  0  0  0  0  0  0  0  0  0  0
  142.6675   77.1086  221.1579 H   0  0  0  0  0  0  0  0  0  0  0  0
  143.5207   78.7948  222.5440 H   0  0  0  0  0  0  0  0  0  0  0  0
  142.9952   80.4002  224.3418 H   0  0  0  0  0  0  0  0  0  0  0  0
  140.6212   81.1588  224.6372 H   0  0  0  0  0  0  0  0  0  0  0  0
  137.8000   80.1220  222.6590 H   0  0  0  0  0  0  0  0  0  0  0  0
  139.3724   78.6829  221.3420 H   0  0  0  0  0  0  0  0  0  0  0  0
  138.9883   69.7410  222.3637 H   0  0  0  0  0  0  0  0  0  0  0  0
  138.9958   68.2728  224.3769 H   0  0  0  0  0  0  0  0  0  0  0  0
  139.5611   68.0510  226.7468 H   0  0  0  0  0  0  0  0  0  0  0  0
  141.3542   71.3105  228.8821 H   0  0  0  0  0  0  0  0  0  0  0  0
  141.2830   72.6433  226.8221 H   0  0  0  0  0  0  0  0  0  0  0  0
  1  2  2  0
  2  3  1  0
  3  4  1  0
  4  5  1  0
  5  6  2  0
  5  7  1  0
  7  8  1  0
  8  9  1  0
  9 10  1  0
 10 11  1  0
 11 12  1  0
 12 13  1  0
 13 14  2  0
 14 15  1  0
 15 16  2  0
 16 17  1  0
 17 18  1  0
 17 19  2  0
  2 20  1  0
 20 21  2  0
 21 22  1  0
 22 23  2  0
 23 24  1  0
 24 25  2  0
 25 26  1  0
 25 27  1  0
 27 28  2  0
 28 29  1  0
 29 30  2  0
 12  7  1  0
 19 13  1  0
 30 20  1  0
 29 23  1  0
  3 31  1  0
  4 32  1  0
  4 33  1  0
  8 34  1  0
  8 35  1  0
  9 36  1  0
  9 37  1  0
 10 38  1  0
 10 39  1  0
 11 40  1  0
 11 41  1  0
 12 42  1  1
 14 43  1  0
 15 44  1  0
 16 45  1  0
 18 46  1  0
 19 47  1  0
 21 48  1  0
 22 49  1  0
 24 50  1  0
 27 51  1  0
 28 52  1  0
M  END
>  <smiles>  (95) 
O=C(NCC(=O)N1CCCCC1c1cccc(O)c1)c1ccc2cc(F)ccc2n1

>  <score_type>  (95) 
oracle

>  <origin>  (95) 
autodockgpu

>  <m_score__min__energy>  (95) 
-8.9600000000000009

>  <m_primary>  (95) 
energy

>  <rmsd>  (95) 
1.5576814123825213

>  <m_score__min__rmsd>  (95) 
1.5576814123825213

>  <meeko>  (95) 
{"free_energy": -8.16, "intermolecular_energy": -9.95, "internal_energy": -1.67, "cluster_size": 10, "cluster_id": 3, "rank_in_cluster": 3}

>  <energy>  (95) 
-8.03

>  <cluster_rmsd>  (95) 
0.0

>  <cluster>  (95) 
4

$$$$

     RDKit          3D

 52 55  0  0  0  0  0  0  0  0999 V2000
  140.0790   77.7860  219.0050 O   0  0  0  0  0  0  0  0  0  0  0  0
  141.3120   77.6430  219.2280 C   0  0  0  0  0  0  0  0  0  0  0  0
  142.1990   78.7300  219.4470 N   0  0  0  0  0  0  0  0  0  0  0  0
  141.6340   80.0880  219.4070 C   0  0  0  0  0  0  0  0  0  0  0  0
  140.6150   80.2260  220.4710 C   0  0  0  0  0  0  0  0  0  0  0  0
  139.4100   80.4080  220.1540 O   0  0  0  0  0  0  0  0  0  0  0  0
  140.9080   80.1660  221.8600 N   0  0  0  0  0  0  0  0  0  0  0  0
  140.8830   81.3910  222.6360 C   0  0  0  0  0  0  0  0  0  0  0  0
  142.1600   81.5850  223.4220 C   0  0  0  0  0  0  0  0  0  0  0  0
  142.7650   80.2640  223.8390 C   0  0  0  0  0  0  0  0  0  0  0  0
  141.6100   79.2580  223.9490 C   0  0  0  0  0  0  0  0  0  0  0  0
  141.2300   78.9420  222.5200 C   0  0  1  0  0  0  0  0  0  0  0  0
  140.1890   77.8930  222.4410 C   0  0  0  0  0  0  0  0  0  0  0  0
  138.8290   78.2140  222.3880 C   0  0  0  0  0  0  0  0  0  0  0  0
  137.8540   77.2530  222.3140 C   0  0  0  0  0  0  0  0  0  0  0  0
  138.2460   75.9120  222.2890 C   0  0  0  0  0  0  0  0  0  0  0  0
  139.5900   75.5790  222.3400 C   0  0  0  0  0  0  0  0  0  0  0  0
  139.9110   74.2170  222.3120 O   0  0  0  0  0  0  0  0  0  0  0  0
  140.5690   76.5470  222.4160 C   0  0  0  0  0  0  0  0  0  0  0  0
  141.8570   76.2710  219.2640 C   0  0  0  0  0  0  0  0  0  0  0  0
  141.1550   75.2170  218.7440 C   0  0  0  0  0  0  0  0  0  0  0  0
  141.6490   73.9220  218.7670 C   0  0  0  0  0  0  0  0  0  0  0  0
  142.9010   73.7260  219.3440 C   0  0  0  0  0  0  0  0  0  0  0  0
  143.4710   72.4830  219.4130 C   0  0  0  0  0  0  0  0  0  0  0  0
  144.7190   72.2760  219.9880 C   0  0  0  0  0  0  0  0  0  0  0  0
  145.2890   71.0500  220.0580 F   0  0  0  0  0  0  0  0  0  0  0  0
  145.3980   73.3540  220.4990 C   0  0  0  0  0  0  0  0  0  0  0  0
  144.8260   74.5920  220.4290 C   0  0  0  0  0  0  0  0  0  0  0  0
  143.5840   74.7990  219.8590 C   0  0  0  0  0  0  0  0  0  0  0  0
  143.0600   76.0240  219.8090 N   0  0  0  0  0  0  0  0  0  0  0  0
  143.2290   78.5780  219.6320 H   0  0  0  0  0  0  0  0  0  0  0  0
  142.4353   80.8241  219.5681 H   0  0  0  0  0  0  0  0  0  0  0  0
  141.1683   80.2643  218.4261 H   0  0  0  0  0  0  0  0  0  0  0  0
  140.7530   82.2428  221.9523 H   0  0  0  0  0  0  0  0  0  0  0  0
  140.0489   81.3259  223.3502 H   0  0  0  0  0  0  0  0  0  0  0  0
  142.8845   82.1276  222.7970 H   0  0  0  0  0  0  0  0  0  0  0  0
  141.9200   82.1550  224.3316 H   0  0  0  0  0  0  0  0  0  0  0  0
  143.4906   79.9256  223.0847 H   0  0  0  0  0  0  0  0  0  0  0  0
  143.2958   80.3597  224.7977 H   0  0  0  0  0  0  0  0  0  0  0  0
  141.9384   78.3478  224.4722 H   0  0  0  0  0  0  0  0  0  0  0  0
  140.7628   79.6622  224.5225 H   0  0  0  0  0  0  0  0  0  0  0  0
  142.0787   78.4940  221.9824 H   0  0  0  0  0  0  0  0  0  0  0  0
  138.5315   79.2729  222.4063 H   0  0  0  0  0  0  0  0  0  0  0  0
  136.7903   77.5305  222.2753 H   0  0  0  0  0  0  0  0  0  0  0  0
  137.4860   75.1191  222.2287 H   0  0  0  0  0  0  0  0  0  0  0  0
  139.5230   73.5540  222.9690 H   0  0  0  0  0  0  0  0  0  0  0  0
  141.6316   76.2654  222.4563 H   0  0  0  0  0  0  0  0  0  0  0  0
  140.1687   75.4034  218.2941 H   0  0  0  0  0  0  0  0  0  0  0  0
  141.0751   73.0831  218.3464 H   0  0  0  0  0  0  0  0  0  0  0  0
  142.9244   71.6221  219.0007 H   0  0  0  0  0  0  0  0  0  0  0  0
  146.3888   73.2225  220.9583 H   0  0  0  0  0  0  0  0  0  0  0  0
  145.3722   75.4537  220.8402 H   0  0  0  0  0  0  0  0  0  0  0  0
  1  2  2  0
  2  3  1  0
  3  4  1  0
  4  5  1  0
  5  6  2  0
  5  7  1  0
  7  8  1  0
  8  9  1  0
  9 10  1  0
 10 11  1  0
 11 12  1  0
 12 13  1  0
 13 14  2  0
 14 15  1  0
 15 16  2  0
 16 17  1  0
 17 18  1  0
 17 19  2  0
  2 20  1  0
 20 21  2  0
 21 22  1  0
 22 23  2  0
 23 24  1  0
 24 25  2  0
 25 26  1  0
 25 27  1  0
 27 28  2  0
 28 29  1  0
 29 30  2  0
 12  7  1  0
 19 13  1  0
 30 20  1  0
 29 23  1  0
  3 31  1  0
  4 32  1  0
  4 33  1  0
  8 34  1  0
  8 35  1  0
  9 36  1  0
  9 37  1  0
 10 38  1  0
 10 39  1  0
 11 40  1  0
 11 41  1  0
 12 42  1  6
 14 43  1  0
 15 44  1  0
 16 45  1  0
 18 46  1  0
 19 47  1  0
 21 48  1  0
 22 49  1  0
 24 50  1  0
 27 51  1  0
 28 52  1  0
M  END
>  <smiles>  (96) 
O=C(NCC(=O)N1CCCCC1c1cccc(O)c1)c1ccc2cc(F)ccc2n1

>  <score_type>  (96) 
oracle

>  <origin>  (96) 
autodockgpu

>  <m_score__min__energy>  (96) 
-8.9600000000000009

>  <m_primary>  (96) 
energy

>  <rmsd>  (96) 
7.704512272883884

>  <m_score__min__rmsd>  (96) 
7.704512272883884

>  <meeko>  (96) 
{"free_energy": -7.28, "intermolecular_energy": -9.07, "internal_energy": -2.6, "cluster_size": 3, "cluster_id": 6, "rank_in_cluster": 1}

>  <energy>  (96) 
-7.78

>  <cluster_rmsd>  (96) 
1.32

>  <cluster>  (96) 
4

$$$$

     RDKit          3D

 52 55  0  0  0  0  0  0  0  0999 V2000
  140.3020   73.5740  222.3410 O   0  0  0  0  0  0  0  0  0  0  0  0
  140.3790   72.3260  222.1880 C   0  0  0  0  0  0  0  0  0  0  0  0
  140.6260   71.7040  220.9350 N   0  0  0  0  0  0  0  0  0  0  0  0
  140.7980   72.5790  219.7650 C   0  0  0  0  0  0  0  0  0  0  0  0
  141.1030   71.7530  218.5750 C   0  0  0  0  0  0  0  0  0  0  0  0
  140.5540   72.0250  217.4760 O   0  0  0  0  0  0  0  0  0  0  0  0
  141.9950   70.6480  218.5880 N   0  0  0  0  0  0  0  0  0  0  0  0
  141.9260   69.6780  217.5110 C   0  0  0  0  0  0  0  0  0  0  0  0
  141.7980   68.2650  218.0350 C   0  0  0  0  0  0  0  0  0  0  0  0
  142.5040   68.0940  219.3600 C   0  0  0  0  0  0  0  0  0  0  0  0
  143.6410   69.1260  219.3970 C   0  0  0  0  0  0  0  0  0  0  0  0
  142.9560   70.4540  219.6250 C   0  0  1  0  0  0  0  0  0  0  0  0
  143.9270   71.5580  219.7960 C   0  0  0  0  0  0  0  0  0  0  0  0
  144.0810   72.2140  221.0210 C   0  0  0  0  0  0  0  0  0  0  0  0
  144.9770   73.2380  221.1930 C   0  0  0  0  0  0  0  0  0  0  0  0
  145.7570   73.6270  220.1000 C   0  0  0  0  0  0  0  0  0  0  0  0
  145.6140   72.9860  218.8810 C   0  0  0  0  0  0  0  0  0  0  0  0
  146.4270   73.4280  217.8300 O   0  0  0  0  0  0  0  0  0  0  0  0
  144.7130   71.9580  218.7090 C   0  0  0  0  0  0  0  0  0  0  0  0
  140.2040   71.4670  223.3760 C   0  0  0  0  0  0  0  0  0  0  0  0
  139.5380   70.2730  223.2930 C   0  0  0  0  0  0  0  0  0  0  0  0
  139.3630   69.4500  224.3960 C   0  0  0  0  0  0  0  0  0  0  0  0
  139.8940   69.8860  225.6080 C   0  0  0  0  0  0  0  0  0  0  0  0
  139.7710   69.1440  226.7520 C   0  0  0  0  0  0  0  0  0  0  0  0
  140.2960   69.5680  227.9660 C   0  0  0  0  0  0  0  0  0  0  0  0
  140.1780   68.8390  229.1000 F   0  0  0  0  0  0  0  0  0  0  0  0
  140.9580   70.7700  228.0150 C   0  0  0  0  0  0  0  0  0  0  0  0
  141.0780   71.5080  226.8730 C   0  0  0  0  0  0  0  0  0  0  0  0
  140.5560   71.0870  225.6640 C   0  0  0  0  0  0  0  0  0  0  0  0
  140.6950   71.8370  224.5710 N   0  0  0  0  0  0  0  0  0  0  0  0
  140.6860   70.6530  220.8380 H   0  0  0  0  0  0  0  0  0  0  0  0
  139.8714   73.1457  219.5909 H   0  0  0  0  0  0  0  0  0  0  0  0
  141.6258   73.2798  219.9483 H   0  0  0  0  0  0  0  0  0  0  0  0
  141.0522   69.9052  216.8826 H   0  0  0  0  0  0  0  0  0  0  0  0
  142.8582   69.7444  216.9309 H   0  0  0  0  0  0  0  0  0  0  0  0
  140.7317   68.0287  218.1661 H   0  0  0  0  0  0  0  0  0  0  0  0
  142.2658   67.5857  217.3071 H   0  0  0  0  0  0  0  0  0  0  0  0
  141.8027   68.2741  220.1881 H   0  0  0  0  0  0  0  0  0  0  0  0
  142.8966   67.0721  219.4676 H   0  0  0  0  0  0  0  0  0  0  0  0
  144.3379   68.9043  220.2187 H   0  0  0  0  0  0  0  0  0  0  0  0
  144.2345   69.1206  218.4709 H   0  0  0  0  0  0  0  0  0  0  0  0
  142.4099   70.4499  220.5799 H   0  0  0  0  0  0  0  0  0  0  0  0
  143.4633   71.8985  221.8748 H   0  0  0  0  0  0  0  0  0  0  0  0
  145.0793   73.7404  222.1662 H   0  0  0  0  0  0  0  0  0  0  0  0
  146.4857   74.4438  220.2086 H   0  0  0  0  0  0  0  0  0  0  0  0
  146.4450   74.3920  217.5260 H   0  0  0  0  0  0  0  0  0  0  0  0
  144.6129   71.4597  217.7334 H   0  0  0  0  0  0  0  0  0  0  0  0
  139.1293   69.9570  222.3219 H   0  0  0  0  0  0  0  0  0  0  0  0
  138.8271   68.4926  224.3169 H   0  0  0  0  0  0  0  0  0  0  0  0
  139.2397   68.1818  226.7083 H   0  0  0  0  0  0  0  0  0  0  0  0
  141.3856   71.1331  228.9612 H   0  0  0  0  0  0  0  0  0  0  0  0
  141.6083   72.4708  226.9161 H   0  0  0  0  0  0  0  0  0  0  0  0
  1  2  2  0
  2  3  1  0
  3  4  1  0
  4  5  1  0
  5  6  2  0
  5  7  1  0
  7  8  1  0
  8  9  1  0
  9 10  1  0
 10 11  1  0
 11 12  1  0
 12 13  1  0
 13 14  2  0
 14 15  1  0
 15 16  2  0
 16 17  1  0
 17 18  1  0
 17 19  2  0
  2 20  1  0
 20 21  2  0
 21 22  1  0
 22 23  2  0
 23 24  1  0
 24 25  2  0
 25 26  1  0
 25 27  1  0
 27 28  2  0
 28 29  1  0
 29 30  2  0
 12  7  1  0
 19 13  1  0
 30 20  1  0
 29 23  1  0
  3 31  1  0
  4 32  1  0
  4 33  1  0
  8 34  1  0
  8 35  1  0
  9 36  1  0
  9 37  1  0
 10 38  1  0
 10 39  1  0
 11 40  1  0
 11 41  1  0
 12 42  1  1
 14 43  1  0
 15 44  1  0
 16 45  1  0
 18 46  1  0
 19 47  1  0
 21 48  1  0
 22 49  1  0
 24 50  1  0
 27 51  1  0
 28 52  1  0
M  END
>  <smiles>  (97) 
O=C(NCC(=O)N1CCCCC1c1cccc(O)c1)c1ccc2cc(F)ccc2n1

>  <score_type>  (97) 
oracle

>  <origin>  (97) 
autodockgpu

>  <m_score__min__energy>  (97) 
-8.9600000000000009

>  <m_primary>  (97) 
energy

>  <rmsd>  (97) 
4.640755857862849

>  <m_score__min__rmsd>  (97) 
4.640755857862849

>  <meeko>  (97) 
{"free_energy": -7.92, "intermolecular_energy": -9.71, "internal_energy": -1.6, "cluster_size": 1, "cluster_id": 5, "rank_in_cluster": 1}

>  <energy>  (97) 
-7.92

>  <cluster_rmsd>  (97) 
0.0

>  <cluster>  (97) 
5

$$$$

     RDKit          3D

 52 55  0  0  0  0  0  0  0  0999 V2000
  139.2820   70.5800  221.4060 O   0  0  0  0  0  0  0  0  0  0  0  0
  139.1330   71.3930  222.3580 C   0  0  0  0  0  0  0  0  0  0  0  0
  138.4920   72.6530  222.2180 N   0  0  0  0  0  0  0  0  0  0  0  0
  137.9810   73.0110  220.8860 C   0  0  0  0  0  0  0  0  0  0  0  0
  138.7570   74.1540  220.3540 C   0  0  0  0  0  0  0  0  0  0  0  0
  138.8490   74.3140  219.1090 O   0  0  0  0  0  0  0  0  0  0  0  0
  139.4220   75.1070  221.1720 N   0  0  0  0  0  0  0  0  0  0  0  0
  138.7330   75.6400  222.3310 C   0  0  0  0  0  0  0  0  0  0  0  0
  138.7400   77.1520  222.3430 C   0  0  0  0  0  0  0  0  0  0  0  0
  139.9890   77.7100  221.6990 C   0  0  0  0  0  0  0  0  0  0  0  0
  141.0910   76.6550  221.8760 C   0  0  0  0  0  0  0  0  0  0  0  0
  140.7460   75.5610  220.8910 C   0  0  1  0  0  0  0  0  0  0  0  0
  141.7790   74.5010  220.8540 C   0  0  0  0  0  0  0  0  0  0  0  0
  141.4830   73.1780  221.2000 C   0  0  0  0  0  0  0  0  0  0  0  0
  142.4300   72.1870  221.1690 C   0  0  0  0  0  0  0  0  0  0  0  0
  143.7280   72.5230  220.7750 C   0  0  0  0  0  0  0  0  0  0  0  0
  144.0340   73.8280  220.4290 C   0  0  0  0  0  0  0  0  0  0  0  0
  145.3540   74.0920  220.0450 O   0  0  0  0  0  0  0  0  0  0  0  0
  143.0820   74.8240  220.4620 C   0  0  0  0  0  0  0  0  0  0  0  0
  139.6530   71.0120  223.6860 C   0  0  0  0  0  0  0  0  0  0  0  0
  140.4540   71.8620  224.4020 C   0  0  0  0  0  0  0  0  0  0  0  0
  140.9520   71.5240  225.6510 C   0  0  0  0  0  0  0  0  0  0  0  0
  140.6060   70.2750  226.1600 C   0  0  0  0  0  0  0  0  0  0  0  0
  141.0510   69.8530  227.3850 C   0  0  0  0  0  0  0  0  0  0  0  0
  140.7130   68.6090  227.9030 C   0  0  0  0  0  0  0  0  0  0  0  0
  141.1480   68.1860  229.1130 F   0  0  0  0  0  0  0  0  0  0  0  0
  139.9080   67.7810  227.1600 C   0  0  0  0  0  0  0  0  0  0  0  0
  139.4670   68.2050  225.9390 C   0  0  0  0  0  0  0  0  0  0  0  0
  139.8030   69.4420  225.4230 C   0  0  0  0  0  0  0  0  0  0  0  0
  139.3520   69.8190  224.2260 N   0  0  0  0  0  0  0  0  0  0  0  0
  138.3810   73.3130  223.0360 H   0  0  0  0  0  0  0  0  0  0  0  0
  138.0847   72.1500  220.2093 H   0  0  0  0  0  0  0  0  0  0  0  0
  136.9197   73.2902  220.9618 H   0  0  0  0  0  0  0  0  0  0  0  0
  137.6906   75.2890  222.3180 H   0  0  0  0  0  0  0  0  0  0  0  0
  139.2576   75.2887  223.2318 H   0  0  0  0  0  0  0  0  0  0  0  0
  137.8610   77.5171  221.7916 H   0  0  0  0  0  0  0  0  0  0  0  0
  138.7150   77.4870  223.3905 H   0  0  0  0  0  0  0  0  0  0  0  0
  139.8122   77.8967  220.6295 H   0  0  0  0  0  0  0  0  0  0  0  0
  140.2789   78.6642  222.1632 H   0  0  0  0  0  0  0  0  0  0  0  0
  142.0777   77.0842  221.6474 H   0  0  0  0  0  0  0  0  0  0  0  0
  141.1427   76.2802  222.9089 H   0  0  0  0  0  0  0  0  0  0  0  0
  140.7479   75.9491  219.8617 H   0  0  0  0  0  0  0  0  0  0  0  0
  140.4574   72.9248  221.5068 H   0  0  0  0  0  0  0  0  0  0  0  0
  142.1746   71.1538  221.4472 H   0  0  0  0  0  0  0  0  0  0  0  0
  144.5084   71.7486  220.7397 H   0  0  0  0  0  0  0  0  0  0  0  0
  145.5970   74.4050  219.1150 H   0  0  0  0  0  0  0  0  0  0  0  0
  143.3428   75.8560  220.1846 H   0  0  0  0  0  0  0  0  0  0  0  0
  140.7097   72.8421  223.9731 H   0  0  0  0  0  0  0  0  0  0  0  0
  141.5945   72.2146  226.2169 H   0  0  0  0  0  0  0  0  0  0  0  0
  141.6957   70.5196  227.9766 H   0  0  0  0  0  0  0  0  0  0  0  0
  139.6224   66.7901  227.5429 H   0  0  0  0  0  0  0  0  0  0  0  0
  138.8225   67.5392  225.3462 H   0  0  0  0  0  0  0  0  0  0  0  0
  1  2  2  0
  2  3  1  0
  3  4  1  0
  4  5  1  0
  5  6  2  0
  5  7  1  0
  7  8  1  0
  8  9  1  0
  9 10  1  0
 10 11  1  0
 11 12  1  0
 12 13  1  0
 13 14  2  0
 14 15  1  0
 15 16  2  0
 16 17  1  0
 17 18  1  0
 17 19  2  0
  2 20  1  0
 20 21  2  0
 21 22  1  0
 22 23  2  0
 23 24  1  0
 24 25  2  0
 25 26  1  0
 25 27  1  0
 27 28  2  0
 28 29  1  0
 29 30  2  0
 12  7  1  0
 19 13  1  0
 30 20  1  0
 29 23  1  0
  3 31  1  0
  4 32  1  0
  4 33  1  0
  8 34  1  0
  8 35  1  0
  9 36  1  0
  9 37  1  0
 10 38  1  0
 10 39  1  0
 11 40  1  0
 11 41  1  0
 12 42  1  6
 14 43  1  0
 15 44  1  0
 16 45  1  0
 18 46  1  0
 19 47  1  0
 21 48  1  0
 22 49  1  0
 24 50  1  0
 27 51  1  0
 28 52  1  0
M  END
>  <smiles>  (98) 
O=C(NCC(=O)N1CCCCC1c1cccc(O)c1)c1ccc2cc(F)ccc2n1

>  <score_type>  (98) 
oracle

>  <origin>  (98) 
autodockgpu

>  <m_score__min__energy>  (98) 
-8.9600000000000009

>  <m_primary>  (98) 
energy

>  <rmsd>  (98) 
3.2811080936722

>  <m_score__min__rmsd>  (98) 
3.2811080936722

>  <meeko>  (98) 
{"free_energy": -7.83, "intermolecular_energy": -9.62, "internal_energy": -1.69, "cluster_size": 26, "cluster_id": 1, "rank_in_cluster": 25}

>  <energy>  (98) 
-7.28

>  <cluster_rmsd>  (98) 
0.0

>  <cluster>  (98) 
6

$$$$

     RDKit          3D

 52 55  0  0  0  0  0  0  0  0999 V2000
  140.1380   71.8610  221.0200 O   0  0  0  0  0  0  0  0  0  0  0  0
  139.9140   72.3760  222.1480 C   0  0  0  0  0  0  0  0  0  0  0  0
  139.7270   73.7700  222.3490 N   0  0  0  0  0  0  0  0  0  0  0  0
  139.8050   74.6440  221.1690 C   0  0  0  0  0  0  0  0  0  0  0  0
  140.6760   75.8010  221.4710 C   0  0  0  0  0  0  0  0  0  0  0  0
  140.6910   76.2760  222.6370 O   0  0  0  0  0  0  0  0  0  0  0  0
  141.5170   76.4300  220.5140 N   0  0  0  0  0  0  0  0  0  0  0  0
  141.7120   77.8650  220.5870 C   0  0  0  0  0  0  0  0  0  0  0  0
  141.4320   78.5380  219.2620 C   0  0  0  0  0  0  0  0  0  0  0  0
  141.7700   77.6390  218.0950 C   0  0  0  0  0  0  0  0  0  0  0  0
  142.8750   76.6850  218.5730 C   0  0  0  0  0  0  0  0  0  0  0  0
  142.1750   75.6990  219.4800 C   0  0  1  0  0  0  0  0  0  0  0  0
  143.0870   74.6300  219.9480 C   0  0  0  0  0  0  0  0  0  0  0  0
  142.6050   73.3770  220.3380 C   0  0  0  0  0  0  0  0  0  0  0  0
  143.4380   72.3780  220.7730 C   0  0  0  0  0  0  0  0  0  0  0  0
  144.8110   72.6340  220.8220 C   0  0  0  0  0  0  0  0  0  0  0  0
  145.3010   73.8720  220.4380 C   0  0  0  0  0  0  0  0  0  0  0  0
  146.6860   74.0580  220.5130 O   0  0  0  0  0  0  0  0  0  0  0  0
  144.4630   74.8750  220.0020 C   0  0  0  0  0  0  0  0  0  0  0  0
  139.8400   71.4800  223.3190 C   0  0  0  0  0  0  0  0  0  0  0  0
  139.2930   70.2290  223.2190 C   0  0  0  0  0  0  0  0  0  0  0  0
  139.2150   69.3710  224.3060 C   0  0  0  0  0  0  0  0  0  0  0  0
  139.7170   69.8330  225.5200 C   0  0  0  0  0  0  0  0  0  0  0  0
  139.6840   69.0590  226.6490 C   0  0  0  0  0  0  0  0  0  0  0  0
  140.1810   69.5080  227.8660 C   0  0  0  0  0  0  0  0  0  0  0  0
  140.1520   68.7480  228.9850 F   0  0  0  0  0  0  0  0  0  0  0  0
  140.7230   70.7680  227.9330 C   0  0  0  0  0  0  0  0  0  0  0  0
  140.7550   71.5370  226.8060 C   0  0  0  0  0  0  0  0  0  0  0  0
  140.2590   71.0910  225.5950 C   0  0  0  0  0  0  0  0  0  0  0  0
  140.3090   71.8730  224.5160 N   0  0  0  0  0  0  0  0  0  0  0  0
  139.5400   74.1720  223.3090 H   0  0  0  0  0  0  0  0  0  0  0  0
  140.2237   74.0806  220.3221 H   0  0  0  0  0  0  0  0  0  0  0  0
  138.7975   75.0007  220.9088 H   0  0  0  0  0  0  0  0  0  0  0  0
  141.0326   78.2784  221.3469 H   0  0  0  0  0  0  0  0  0  0  0  0
  142.7629   78.0542  220.8512 H   0  0  0  0  0  0  0  0  0  0  0  0
  140.3645   78.7988  219.2134 H   0  0  0  0  0  0  0  0  0  0  0  0
  142.0615   79.4376  219.1949 H   0  0  0  0  0  0  0  0  0  0  0  0
  140.8821   77.0664  217.7889 H   0  0  0  0  0  0  0  0  0  0  0  0
  142.1054   78.2276  217.2284 H   0  0  0  0  0  0  0  0  0  0  0  0
  143.3340   76.1660  217.7186 H   0  0  0  0  0  0  0  0  0  0  0  0
  143.6862   77.2183  219.0902 H   0  0  0  0  0  0  0  0  0  0  0  0
  141.4015   75.1446  218.9284 H   0  0  0  0  0  0  0  0  0  0  0  0
  141.5226   73.1861  220.2946 H   0  0  0  0  0  0  0  0  0  0  0  0
  143.0356   71.4000  221.0756 H   0  0  0  0  0  0  0  0  0  0  0  0
  145.5037   71.8517  221.1659 H   0  0  0  0  0  0  0  0  0  0  0  0
  147.2130   74.5150  219.7810 H   0  0  0  0  0  0  0  0  0  0  0  0
  144.8693   75.8520  219.7014 H   0  0  0  0  0  0  0  0  0  0  0  0
  138.9033   69.8939  222.2465 H   0  0  0  0  0  0  0  0  0  0  0  0
  138.7748   68.3672  224.2130 H   0  0  0  0  0  0  0  0  0  0  0  0
  139.2503   68.0498  226.5905 H   0  0  0  0  0  0  0  0  0  0  0  0
  141.1258   71.1521  228.8818 H   0  0  0  0  0  0  0  0  0  0  0  0
  141.1901   72.5457  226.8631 H   0  0  0  0  0  0  0  0  0  0  0  0
  1  2  2  0
  2  3  1  0
  3  4  1  0
  4  5  1  0
  5  6  2  0
  5  7  1  0
  7  8  1  0
  8  9  1  0
  9 10  1  0
 10 11  1  0
 11 12  1  0
 12 13  1  0
 13 14  2  0
 14 15  1  0
 15 16  2  0
 16 17  1  0
 17 18  1  0
 17 19  2  0
  2 20  1  0
 20 21  2  0
 21 22  1  0
 22 23  2  0
 23 24  1  0
 24 25  2  0
 25 26  1  0
 25 27  1  0
 27 28  2  0
 28 29  1  0
 29 30  2  0
 12  7  1  0
 19 13  1  0
 30 20  1  0
 29 23  1  0
  3 31  1  0
  4 32  1  0
  4 33  1  0
  8 34  1  0
  8 35  1  0
  9 36  1  0
  9 37  1  0
 10 38  1  0
 10 39  1  0
 11 40  1  0
 11 41  1  0
 12 42  1  6
 14 43  1  0
 15 44  1  0
 16 45  1  0
 18 46  1  0
 19 47  1  0
 21 48  1  0
 22 49  1  0
 24 50  1  0
 27 51  1  0
 28 52  1  0
M  END
>  <smiles>  (99) 
O=C(NCC(=O)N1CCCCC1c1cccc(O)c1)c1ccc2cc(F)ccc2n1

>  <score_type>  (99) 
oracle

>  <origin>  (99) 
autodockgpu

>  <m_score__min__energy>  (99) 
-8.9600000000000009

>  <m_primary>  (99) 
energy

>  <rmsd>  (99) 
2.270789337864068

>  <m_score__min__rmsd>  (99) 
2.270789337864068

>  <meeko>  (99) 
{"free_energy": -8.71, "intermolecular_energy": -10.5, "internal_energy": -1.91, "cluster_size": 26, "cluster_id": 1, "rank_in_cluster": 7}

>  <energy>  (99) 
-7.06

>  <cluster_rmsd>  (99) 
1.28

>  <cluster>  (99) 
6

$$$$

     RDKit          3D

 52 55  0  0  0  0  0  0  0  0999 V2000
  141.0810   71.3360  221.4270 O   0  0  0  0  0  0  0  0  0  0  0  0
  140.4910   71.9360  222.3650 C   0  0  0  0  0  0  0  0  0  0  0  0
  140.1020   73.3010  222.3010 N   0  0  0  0  0  0  0  0  0  0  0  0
  140.4140   74.0380  221.0670 C   0  0  0  0  0  0  0  0  0  0  0  0
  140.3580   75.4920  221.3370 C   0  0  0  0  0  0  0  0  0  0  0  0
  139.9540   75.8980  222.4580 O   0  0  0  0  0  0  0  0  0  0  0  0
  140.7370   76.4870  220.3970 N   0  0  0  0  0  0  0  0  0  0  0  0
  140.2530   76.3840  219.0340 C   0  0  0  0  0  0  0  0  0  0  0  0
  141.3800   76.4680  218.0290 C   0  0  0  0  0  0  0  0  0  0  0  0
  142.5060   77.3470  218.5230 C   0  0  0  0  0  0  0  0  0  0  0  0
  141.8840   78.3670  219.4870 C   0  0  0  0  0  0  0  0  0  0  0  0
  141.5810   77.5840  220.7440 C   0  0  1  0  0  0  0  0  0  0  0  0
  141.0700   78.4510  221.8300 C   0  0  0  0  0  0  0  0  0  0  0  0
  141.9220   78.9880  222.8000 C   0  0  0  0  0  0  0  0  0  0  0  0
  141.4620   79.7930  223.8110 C   0  0  0  0  0  0  0  0  0  0  0  0
  140.0940   80.0780  223.8600 C   0  0  0  0  0  0  0  0  0  0  0  0
  139.2390   79.5530  222.9060 C   0  0  0  0  0  0  0  0  0  0  0  0
  137.8830   79.8800  223.0170 O   0  0  0  0  0  0  0  0  0  0  0  0
  139.7030   78.7430  221.8910 C   0  0  0  0  0  0  0  0  0  0  0  0
  140.1880   71.1760  223.5940 C   0  0  0  0  0  0  0  0  0  0  0  0
  139.5060   69.9890  223.5420 C   0  0  0  0  0  0  0  0  0  0  0  0
  139.2120   69.2590  224.6840 C   0  0  0  0  0  0  0  0  0  0  0  0
  139.6380   69.7810  225.9030 C   0  0  0  0  0  0  0  0  0  0  0  0
  139.3940   69.1330  227.0840 C   0  0  0  0  0  0  0  0  0  0  0  0
  139.8140   69.6440  228.3050 C   0  0  0  0  0  0  0  0  0  0  0  0
  139.5770   69.0080  229.4760 F   0  0  0  0  0  0  0  0  0  0  0  0
  140.4960   70.8360  228.3230 C   0  0  0  0  0  0  0  0  0  0  0  0
  140.7370   71.4790  227.1440 C   0  0  0  0  0  0  0  0  0  0  0  0
  140.3190   70.9730  225.9280 C   0  0  0  0  0  0  0  0  0  0  0  0
  140.5750   71.6320  224.7980 N   0  0  0  0  0  0  0  0  0  0  0  0
  139.6070   73.7750  223.1050 H   0  0  0  0  0  0  0  0  0  0  0  0
  141.4229   73.7670  220.7225 H   0  0  0  0  0  0  0  0  0  0  0  0
  139.6808   73.7797  220.2887 H   0  0  0  0  0  0  0  0  0  0  0  0
  139.7378   75.4199  218.9112 H   0  0  0  0  0  0  0  0  0  0  0  0
  139.5682   77.2250  218.8503 H   0  0  0  0  0  0  0  0  0  0  0  0
  141.7713   75.4562  217.8470 H   0  0  0  0  0  0  0  0  0  0  0  0
  140.9816   76.9093  217.1035 H   0  0  0  0  0  0  0  0  0  0  0  0
  143.2578   76.7396  219.0482 H   0  0  0  0  0  0  0  0  0  0  0  0
  143.0084   77.8522  217.6849 H   0  0  0  0  0  0  0  0  0  0  0  0
  142.5935   79.1802  219.6998 H   0  0  0  0  0  0  0  0  0  0  0  0
  140.9829   78.8369  219.0660 H   0  0  0  0  0  0  0  0  0  0  0  0
  142.5035   77.1645  221.1717 H   0  0  0  0  0  0  0  0  0  0  0  0
  142.9964   78.7574  222.7508 H   0  0  0  0  0  0  0  0  0  0  0  0
  142.1513   80.2036  224.5635 H   0  0  0  0  0  0  0  0  0  0  0  0
  139.6960   80.7211  224.6587 H   0  0  0  0  0  0  0  0  0  0  0  0
  137.1970   79.5920  222.3320 H   0  0  0  0  0  0  0  0  0  0  0  0
  139.0098   78.3332  221.1416 H   0  0  0  0  0  0  0  0  0  0  0  0
  139.1816   69.6030  222.5644 H   0  0  0  0  0  0  0  0  0  0  0  0
  138.6646   68.3064  224.6293 H   0  0  0  0  0  0  0  0  0  0  0  0
  138.8484   68.1780  227.0652 H   0  0  0  0  0  0  0  0  0  0  0  0
  140.8429   71.2661  229.2742 H   0  0  0  0  0  0  0  0  0  0  0  0
  141.2832   72.4336  227.1621 H   0  0  0  0  0  0  0  0  0  0  0  0
  1  2  2  0
  2  3  1  0
  3  4  1  0
  4  5  1  0
  5  6  2  0
  5  7  1  0
  7  8  1  0
  8  9  1  0
  9 10  1  0
 10 11  1  0
 11 12  1  0
 12 13  1  0
 13 14  2  0
 14 15  1  0
 15 16  2  0
 16 17  1  0
 17 18  1  0
 17 19  2  0
  2 20  1  0
 20 21  2  0
 21 22  1  0
 22 23  2  0
 23 24  1  0
 24 25  2  0
 25 26  1  0
 25 27  1  0
 27 28  2  0
 28 29  1  0
 29 30  2  0
 12  7  1  0
 19 13  1  0
 30 20  1  0
 29 23  1  0
  3 31  1  0
  4 32  1  0
  4 33  1  0
  8 34  1  0
  8 35  1  0
  9 36  1  0
  9 37  1  0
 10 38  1  0
 10 39  1  0
 11 40  1  0
 11 41  1  0
 12 42  1  1
 14 43  1  0
 15 44  1  0
 16 45  1  0
 18 46  1  0
 19 47  1  0
 21 48  1  0
 22 49  1  0
 24 50  1  0
 27 51  1  0
 28 52  1  0
M  END
>  <smiles>  (100) 
O=C(NCC(=O)N1CCCCC1c1cccc(O)c1)c1ccc2cc(F)ccc2n1

>  <score_type>  (100) 
oracle

>  <origin>  (100) 
autodockgpu

>  <m_score__min__energy>  (100) 
-8.9600000000000009

>  <m_primary>  (100) 
energy

>  <rmsd>  (100) 
1.6579024894881365

>  <m_score__min__rmsd>  (100) 
1.6579024894881365

>  <meeko>  (100) 
{"free_energy": -8.04, "intermolecular_energy": -9.83, "internal_energy": -1.7, "cluster_size": 10, "cluster_id": 3, "rank_in_cluster": 5}

>  <energy>  (100) 
-6.97

>  <cluster_rmsd>  (100) 
0.55

>  <cluster>  (100) 
6

$$$$
