
     RDKit          3D

 64 67  0  0  0  0  0  0  0  0999 V2000
  142.6370   80.2070  223.1300 C   0  0  0  0  0  0  0  0  0  0  0  0
  141.8140   78.9450  223.2900 C   0  0  0  0  0  0  0  0  0  0  0  0
  140.6920   78.9510  222.2850 C   0  0  0  0  0  0  0  0  0  0  0  0
  139.6470   79.5480  222.6500 O   0  0  0  0  0  0  0  0  0  0  0  0
  140.8510   78.3150  221.0330 N   0  0  0  0  0  0  0  0  0  0  0  0
  141.4360   79.0550  219.9480 C   0  0  0  0  0  0  0  0  0  0  0  0
  142.0790   78.3470  218.9440 C   0  0  0  0  0  0  0  0  0  0  0  0
  142.6540   79.0300  217.8830 C   0  0  0  0  0  0  0  0  0  0  0  0
  142.5820   80.4100  217.8330 C   0  0  0  0  0  0  0  0  0  0  0  0
  141.9340   81.1170  218.8460 C   0  0  0  0  0  0  0  0  0  0  0  0
  141.3590   80.4420  219.9070 C   0  0  0  0  0  0  0  0  0  0  0  0
  140.4190   76.9380  220.8860 C   0  0  0  0  0  0  0  0  0  0  0  0
  139.0100   76.7800  221.3120 C   0  0  0  0  0  0  0  0  0  0  0  0
  138.7170   75.7530  222.3450 C   0  0  0  0  0  0  0  0  0  0  0  0
  139.4780   74.5690  221.9940 N   0  0  0  0  0  0  0  0  0  0  0  0
  138.8270   73.3210  221.8470 C   0  0  0  0  0  0  0  0  0  0  0  0
  137.5900   73.2250  222.0180 O   0  0  0  0  0  0  0  0  0  0  0  0
  139.5680   72.0880  221.4890 C   0  0  0  0  0  0  0  0  0  0  0  0
  138.9170   70.8680  222.1480 C   0  0  2  0  0  0  0  0  0  0  0  0
  137.5130   70.8120  221.7490 N   0  0  0  0  0  0  0  0  0  0  0  0
  139.0490   71.0590  223.6390 C   0  0  0  0  0  0  0  0  0  0  0  0
  140.4420   71.5770  223.9300 C   0  0  0  0  0  0  0  0  0  0  0  0
  140.5100   71.2970  225.4080 C   0  0  0  0  0  0  0  0  0  0  0  0
  141.2100   71.9060  226.4490 C   0  0  0  0  0  0  0  0  0  0  0  0
  141.0690   71.4180  227.7320 C   0  0  0  0  0  0  0  0  0  0  0  0
  140.2450   70.3390  228.0020 C   0  0  0  0  0  0  0  0  0  0  0  0
  139.5500   69.7320  226.9830 C   0  0  0  0  0  0  0  0  0  0  0  0
  139.6800   70.2070  225.6910 C   0  0  0  0  0  0  0  0  0  0  0  0
  139.0590   69.7590  224.3940 C   0  0  0  0  0  0  0  0  0  0  0  0
  140.9100   74.6290  221.7870 C   0  0  0  0  0  0  0  0  0  0  0  0
  141.4080   76.0130  221.5100 C   0  0  0  0  0  0  0  0  0  0  0  0
  142.8960   80.6041  224.1226 H   0  0  0  0  0  0  0  0  0  0  0  0
  143.5586   79.9759  222.5756 H   0  0  0  0  0  0  0  0  0  0  0  0
  142.0539   80.9572  222.5756 H   0  0  0  0  0  0  0  0  0  0  0  0
  142.4532   78.0658  223.1217 H   0  0  0  0  0  0  0  0  0  0  0  0
  141.3971   78.9037  224.3071 H   0  0  0  0  0  0  0  0  0  0  0  0
  142.1327   77.2492  218.9890 H   0  0  0  0  0  0  0  0  0  0  0  0
  143.1662   78.4753  217.0830 H   0  0  0  0  0  0  0  0  0  0  0  0
  143.0374   80.9523  216.9913 H   0  0  0  0  0  0  0  0  0  0  0  0
  141.8803   82.2147  218.8006 H   0  0  0  0  0  0  0  0  0  0  0  0
  140.8473   80.9956  220.7081 H   0  0  0  0  0  0  0  0  0  0  0  0
  140.4067   76.6463  219.8255 H   0  0  0  0  0  0  0  0  0  0  0  0
  138.6745   77.7501  221.7073 H   0  0  0  0  0  0  0  0  0  0  0  0
  138.4825   76.4309  220.4121 H   0  0  0  0  0  0  0  0  0  0  0  0
  139.0217   76.1175  223.3371 H   0  0  0  0  0  0  0  0  0  0  0  0
  137.6404   75.5306  222.3830 H   0  0  0  0  0  0  0  0  0  0  0  0
  139.5549   71.9608  220.3965 H   0  0  0  0  0  0  0  0  0  0  0  0
  140.6050   72.1769  221.8449 H   0  0  0  0  0  0  0  0  0  0  0  0
  139.3953   69.9251  221.8445 H   0  0  0  0  0  0  0  0  0  0  0  0
  136.8970   71.1680  222.4970 H   0  0  0  0  0  0  0  0  0  0  0  0
  137.3910   71.3430  220.8470 H   0  0  0  0  0  0  0  0  0  0  0  0
  138.2106   71.7078  223.9325 H   0  0  0  0  0  0  0  0  0  0  0  0
  141.2106   71.0223  223.3718 H   0  0  0  0  0  0  0  0  0  0  0  0
  140.6205   72.6241  223.6440 H   0  0  0  0  0  0  0  0  0  0  0  0
  141.8670   72.7655  226.2497 H   0  0  0  0  0  0  0  0  0  0  0  0
  141.6213   71.8950  228.5550 H   0  0  0  0  0  0  0  0  0  0  0  0
  140.1463   69.9671  229.0325 H   0  0  0  0  0  0  0  0  0  0  0  0
  138.8948   68.8740  227.1941 H   0  0  0  0  0  0  0  0  0  0  0  0
  139.6741   68.9996  223.8890 H   0  0  0  0  0  0  0  0  0  0  0  0
  138.0751   69.2778  224.4961 H   0  0  0  0  0  0  0  0  0  0  0  0
  141.4101   74.2519  222.6913 H   0  0  0  0  0  0  0  0  0  0  0  0
  141.1385   74.0161  220.9026 H   0  0  0  0  0  0  0  0  0  0  0  0
  141.7299   76.4548  222.4646 H   0  0  0  0  0  0  0  0  0  0  0  0
  142.2206   75.9006  220.7772 H   0  0  0  0  0  0  0  0  0  0  0  0
  1  2  1  0
  2  3  1  0
  3  4  2  0
  3  5  1  0
  5  6  1  0
  6  7  2  0
  7  8  1  0
  8  9  2  0
  9 10  1  0
 10 11  2  0
  5 12  1  0
 12 13  1  0
 13 14  1  0
 14 15  1  0
 15 16  1  0
 16 17  2  0
 16 18  1  0
 18 19  1  0
 19 20  1  0
 19 21  1  0
 21 22  1  0
 22 23  1  0
 23 24  2  0
 24 25  1  0
 25 26  2  0
 26 27  1  0
 27 28  2  0
 28 29  1  0
 15 30  1  0
 30 31  1  0
 11  6  1  0
 31 12  1  0
 29 21  1  0
 28 23  1  0
  1 32  1  0
  1 33  1  0
  1 34  1  0
  2 35  1  0
  2 36  1  0
  7 37  1  0
  8 38  1  0
  9 39  1  0
 10 40  1  0
 11 41  1  0
 12 42  1  0
 13 43  1  0
 13 44  1  0
 14 45  1  0
 14 46  1  0
 18 47  1  0
 18 48  1  0
 19 49  1  6
 20 50  1  0
 20 51  1  0
 21 52  1  0
 22 53  1  0
 22 54  1  0
 24 55  1  0
 25 56  1  0
 26 57  1  0
 27 58  1  0
 29 59  1  0
 29 60  1  0
 30 61  1  0
 30 62  1  0
 31 63  1  0
 31 64  1  0
M  END
>  <smiles>  (1) 
CCC(=O)N(c1ccccc1)C1CCN(C(=O)CC(N)C2Cc3ccccc3C2)CC1

>  <score_type>  (1) 
oracle

>  <origin>  (1) 
autodockgpu

>  <m_score__min__energy>  (1) 
-8.4100000000000001

>  <m_primary>  (1) 
energy

>  <rmsd>  (1) 
6.383905439715032

>  <m_score__min__rmsd>  (1) 
6.383905439715032

>  <meeko>  (1) 
{"free_energy": -7.4, "intermolecular_energy": -9.79, "internal_energy": -2.41, "cluster_size": 24, "cluster_id": 1, "rank_in_cluster": 22}

>  <energy>  (1) 
-8.41

>  <cluster_rmsd>  (1) 
0.0

>  <cluster>  (1) 
1

$$$$

     RDKit          3D

 64 67  0  0  0  0  0  0  0  0999 V2000
  138.0660   80.8520  224.2050 C   0  0  0  0  0  0  0  0  0  0  0  0
  137.3150   79.7620  223.4660 C   0  0  0  0  0  0  0  0  0  0  0  0
  138.1550   79.2710  222.3160 C   0  0  0  0  0  0  0  0  0  0  0  0
  137.6820   79.4940  221.1720 O   0  0  0  0  0  0  0  0  0  0  0  0
  139.3800   78.6110  222.5570 N   0  0  0  0  0  0  0  0  0  0  0  0
  140.5820   79.3920  222.6560 C   0  0  0  0  0  0  0  0  0  0  0  0
  141.2760   79.3770  223.8560 C   0  0  0  0  0  0  0  0  0  0  0  0
  142.4400   80.1200  223.9850 C   0  0  0  0  0  0  0  0  0  0  0  0
  142.9010   80.8680  222.9180 C   0  0  0  0  0  0  0  0  0  0  0  0
  142.1990   80.8790  221.7120 C   0  0  0  0  0  0  0  0  0  0  0  0
  141.0370   80.1410  221.5770 C   0  0  0  0  0  0  0  0  0  0  0  0
  139.3820   77.1660  222.6960 C   0  0  0  0  0  0  0  0  0  0  0  0
  140.6980   76.6030  222.3180 C   0  0  0  0  0  0  0  0  0  0  0  0
  140.7160   75.5400  221.2810 C   0  0  0  0  0  0  0  0  0  0  0  0
  139.6290   74.6300  221.5860 N   0  0  0  0  0  0  0  0  0  0  0  0
  139.8780   73.2460  221.7360 C   0  0  0  0  0  0  0  0  0  0  0  0
  141.0380   72.7910  221.6070 O   0  0  0  0  0  0  0  0  0  0  0  0
  138.7940   72.2840  222.0470 C   0  0  0  0  0  0  0  0  0  0  0  0
  139.3870   70.9450  222.4980 C   0  0  2  0  0  0  0  0  0  0  0  0
  138.5510   69.8640  221.9840 N   0  0  0  0  0  0  0  0  0  0  0  0
  139.3880   70.9590  224.0070 C   0  0  0  0  0  0  0  0  0  0  0  0
  140.6260   71.6950  224.4740 C   0  0  0  0  0  0  0  0  0  0  0  0
  140.6620   71.2420  225.9100 C   0  0  0  0  0  0  0  0  0  0  0  0
  141.1590   71.8320  227.0710 C   0  0  0  0  0  0  0  0  0  0  0  0
  141.0440   71.1610  228.2710 C   0  0  0  0  0  0  0  0  0  0  0  0
  140.4440   69.9150  228.3410 C   0  0  0  0  0  0  0  0  0  0  0  0
  139.9490   69.3250  227.2020 C   0  0  0  0  0  0  0  0  0  0  0  0
  140.0560   69.9830  225.9900 C   0  0  0  0  0  0  0  0  0  0  0  0
  139.6190   69.5980  224.6020 C   0  0  0  0  0  0  0  0  0  0  0  0
  138.2700   75.1090  221.7420 C   0  0  0  0  0  0  0  0  0  0  0  0
  138.1910   76.5760  222.0240 C   0  0  0  0  0  0  0  0  0  0  0  0
  137.9608   80.6993  225.2893 H   0  0  0  0  0  0  0  0  0  0  0  0
  139.1306   80.8142  223.9310 H   0  0  0  0  0  0  0  0  0  0  0  0
  137.6515   81.8334  223.9310 H   0  0  0  0  0  0  0  0  0  0  0  0
  137.1083   78.9278  224.1526 H   0  0  0  0  0  0  0  0  0  0  0  0
  136.3649   80.1632  223.0836 H   0  0  0  0  0  0  0  0  0  0  0  0
  140.9054   78.7789  224.7015 H   0  0  0  0  0  0  0  0  0  0  0  0
  142.9952   80.1140  224.9346 H   0  0  0  0  0  0  0  0  0  0  0  0
  143.8246   81.4567  223.0199 H   0  0  0  0  0  0  0  0  0  0  0  0
  142.5708   81.4762  220.8664 H   0  0  0  0  0  0  0  0  0  0  0  0
  140.4803   80.1467  220.6283 H   0  0  0  0  0  0  0  0  0  0  0  0
  139.2664   76.8780  223.7513 H   0  0  0  0  0  0  0  0  0  0  0  0
  141.3182   77.4334  221.9496 H   0  0  0  0  0  0  0  0  0  0  0  0
  141.0652   76.1108  223.2307 H   0  0  0  0  0  0  0  0  0  0  0  0
  140.5698   75.9822  220.2845 H   0  0  0  0  0  0  0  0  0  0  0  0
  141.6807   75.0114  221.2782 H   0  0  0  0  0  0  0  0  0  0  0  0
  138.1657   72.6926  222.8522 H   0  0  0  0  0  0  0  0  0  0  0  0
  138.1884   72.1217  221.1432 H   0  0  0  0  0  0  0  0  0  0  0  0
  140.4092   70.7929  222.1211 H   0  0  0  0  0  0  0  0  0  0  0  0
  137.6100   69.8830  222.4110 H   0  0  0  0  0  0  0  0  0  0  0  0
  138.5120   69.9290  220.9340 H   0  0  0  0  0  0  0  0  0  0  0  0
  138.4187   71.3870  224.3023 H   0  0  0  0  0  0  0  0  0  0  0  0
  141.5234   71.3788  223.9220 H   0  0  0  0  0  0  0  0  0  0  0  0
  140.6037   72.7851  224.3288 H   0  0  0  0  0  0  0  0  0  0  0  0
  141.6376   72.8216  227.0309 H   0  0  0  0  0  0  0  0  0  0  0  0
  141.4360   71.6241  229.1885 H   0  0  0  0  0  0  0  0  0  0  0  0
  140.3634   69.3971  229.3081 H   0  0  0  0  0  0  0  0  0  0  0  0
  139.4708   68.3357  227.2543 H   0  0  0  0  0  0  0  0  0  0  0  0
  140.4057   69.0473  224.0655 H   0  0  0  0  0  0  0  0  0  0  0  0
  138.7503   68.9244  224.5626 H   0  0  0  0  0  0  0  0  0  0  0  0
  137.7173   74.9011  220.8139 H   0  0  0  0  0  0  0  0  0  0  0  0
  137.8363   74.5860  222.6071 H   0  0  0  0  0  0  0  0  0  0  0  0
  138.0495   77.0979  221.0661 H   0  0  0  0  0  0  0  0  0  0  0  0
  137.3544   76.7032  222.7269 H   0  0  0  0  0  0  0  0  0  0  0  0
  1  2  1  0
  2  3  1  0
  3  4  2  0
  3  5  1  0
  5  6  1  0
  6  7  2  0
  7  8  1  0
  8  9  2  0
  9 10  1  0
 10 11  2  0
  5 12  1  0
 12 13  1  0
 13 14  1  0
 14 15  1  0
 15 16  1  0
 16 17  2  0
 16 18  1  0
 18 19  1  0
 19 20  1  0
 19 21  1  0
 21 22  1  0
 22 23  1  0
 23 24  2  0
 24 25  1  0
 25 26  2  0
 26 27  1  0
 27 28  2  0
 28 29  1  0
 15 30  1  0
 30 31  1  0
 11  6  1  0
 31 12  1  0
 29 21  1  0
 28 23  1  0
  1 32  1  0
  1 33  1  0
  1 34  1  0
  2 35  1  0
  2 36  1  0
  7 37  1  0
  8 38  1  0
  9 39  1  0
 10 40  1  0
 11 41  1  0
 12 42  1  0
 13 43  1  0
 13 44  1  0
 14 45  1  0
 14 46  1  0
 18 47  1  0
 18 48  1  0
 19 49  1  6
 20 50  1  0
 20 51  1  0
 21 52  1  0
 22 53  1  0
 22 54  1  0
 24 55  1  0
 25 56  1  0
 26 57  1  0
 27 58  1  0
 29 59  1  0
 29 60  1  0
 30 61  1  0
 30 62  1  0
 31 63  1  0
 31 64  1  0
M  END
>  <smiles>  (2) 
CCC(=O)N(c1ccccc1)C1CCN(C(=O)CC(N)C2Cc3ccccc3C2)CC1

>  <score_type>  (2) 
oracle

>  <origin>  (2) 
autodockgpu

>  <m_score__min__energy>  (2) 
-8.4100000000000001

>  <m_primary>  (2) 
energy

>  <rmsd>  (2) 
6.650824803773387

>  <m_score__min__rmsd>  (2) 
6.650824803773387

>  <meeko>  (2) 
{"free_energy": -8.41, "intermolecular_energy": -10.79, "internal_energy": -1.43, "cluster_size": 24, "cluster_id": 1, "rank_in_cluster": 1}

>  <energy>  (2) 
-8.34

>  <cluster_rmsd>  (2) 
0.39

>  <cluster>  (2) 
1

$$$$

     RDKit          3D

 64 67  0  0  0  0  0  0  0  0999 V2000
  142.5880   79.1100  218.1420 C   0  0  0  0  0  0  0  0  0  0  0  0
  141.1530   78.6340  218.0440 C   0  0  0  0  0  0  0  0  0  0  0  0
  140.4340   78.9520  219.3280 C   0  0  0  0  0  0  0  0  0  0  0  0
  139.6150   79.9050  219.2640 O   0  0  0  0  0  0  0  0  0  0  0  0
  140.6960   78.2050  220.4980 N   0  0  0  0  0  0  0  0  0  0  0  0
  141.2850   78.8690  221.6290 C   0  0  0  0  0  0  0  0  0  0  0  0
  140.9070   78.4610  222.8990 C   0  0  0  0  0  0  0  0  0  0  0  0
  141.4570   79.0810  224.0100 C   0  0  0  0  0  0  0  0  0  0  0  0
  142.3780   80.0980  223.8460 C   0  0  0  0  0  0  0  0  0  0  0  0
  142.7550   80.5050  222.5660 C   0  0  0  0  0  0  0  0  0  0  0  0
  142.2100   79.8910  221.4530 C   0  0  0  0  0  0  0  0  0  0  0  0
  140.3600   76.7930  220.5180 C   0  0  0  0  0  0  0  0  0  0  0  0
  138.9950   76.5850  221.0540 C   0  0  0  0  0  0  0  0  0  0  0  0
  138.8440   75.6530  222.2010 C   0  0  0  0  0  0  0  0  0  0  0  0
  139.6670   74.4930  221.9160 N   0  0  0  0  0  0  0  0  0  0  0  0
  139.1040   73.1960  221.9380 C   0  0  0  0  0  0  0  0  0  0  0  0
  137.8910   73.0340  222.2030 O   0  0  0  0  0  0  0  0  0  0  0  0
  139.9110   71.9860  221.6540 C   0  0  0  0  0  0  0  0  0  0  0  0
  139.2660   70.7540  222.2980 C   0  0  2  0  0  0  0  0  0  0  0  0
  137.8860   70.6500  221.8320 N   0  0  0  0  0  0  0  0  0  0  0  0
  139.3200   70.9680  223.7900 C   0  0  0  0  0  0  0  0  0  0  0  0
  140.6860   71.5180  224.1420 C   0  0  0  0  0  0  0  0  0  0  0  0
  140.6860   71.2600  225.6270 C   0  0  0  0  0  0  0  0  0  0  0  0
  141.3210   71.8970  226.6920 C   0  0  0  0  0  0  0  0  0  0  0  0
  141.1260   71.4240  227.9730 C   0  0  0  0  0  0  0  0  0  0  0  0
  140.3110   70.3310  228.2180 C   0  0  0  0  0  0  0  0  0  0  0  0
  139.6800   69.6970  227.1740 C   0  0  0  0  0  0  0  0  0  0  0  0
  139.8640   70.1570  225.8830 C   0  0  0  0  0  0  0  0  0  0  0  0
  139.3180   69.6790  224.5640 C   0  0  0  0  0  0  0  0  0  0  0  0
  141.0760   74.6290  221.6060 C   0  0  0  0  0  0  0  0  0  0  0  0
  141.4510   76.0070  221.1600 C   0  0  0  0  0  0  0  0  0  0  0  0
  142.8716   79.2041  219.2006 H   0  0  0  0  0  0  0  0  0  0  0  0
  143.2499   78.3833  217.6483 H   0  0  0  0  0  0  0  0  0  0  0  0
  142.6844   80.0882  217.6483 H   0  0  0  0  0  0  0  0  0  0  0  0
  140.6532   79.1438  217.2071 H   0  0  0  0  0  0  0  0  0  0  0  0
  141.1363   77.5477  217.8718 H   0  0  0  0  0  0  0  0  0  0  0  0
  140.1747   77.6498  223.0242 H   0  0  0  0  0  0  0  0  0  0  0  0
  141.1607   78.7639  225.0208 H   0  0  0  0  0  0  0  0  0  0  0  0
  142.8155   80.5885  224.7280 H   0  0  0  0  0  0  0  0  0  0  0  0
  143.4875   81.3162  222.4416 H   0  0  0  0  0  0  0  0  0  0  0  0
  142.5049   80.2075  220.4416 H   0  0  0  0  0  0  0  0  0  0  0  0
  140.3047   76.3927  219.4949 H   0  0  0  0  0  0  0  0  0  0  0  0
  138.6134   77.5659  221.3738 H   0  0  0  0  0  0  0  0  0  0  0  0
  138.4400   76.1101  220.2316 H   0  0  0  0  0  0  0  0  0  0  0  0
  139.1825   76.1376  223.1287 H   0  0  0  0  0  0  0  0  0  0  0  0
  137.7913   75.3639  222.3360 H   0  0  0  0  0  0  0  0  0  0  0  0
  139.9713   71.8371  220.5658 H   0  0  0  0  0  0  0  0  0  0  0  0
  140.9194   72.1219  222.0719 H   0  0  0  0  0  0  0  0  0  0  0  0
  139.7863   69.8221  222.0318 H   0  0  0  0  0  0  0  0  0  0  0  0
  137.2210   70.9510  222.5630 H   0  0  0  0  0  0  0  0  0  0  0  0
  137.7790   71.2060  220.9450 H   0  0  0  0  0  0  0  0  0  0  0  0
  138.4554   71.6036  224.0318 H   0  0  0  0  0  0  0  0  0  0  0  0
  141.4922   70.9712  223.6310 H   0  0  0  0  0  0  0  0  0  0  0  0
  140.8578   72.5644  223.8496 H   0  0  0  0  0  0  0  0  0  0  0  0
  141.9701   72.7668  226.5129 H   0  0  0  0  0  0  0  0  0  0  0  0
  141.6268   71.9238  228.8153 H   0  0  0  0  0  0  0  0  0  0  0  0
  140.1688   69.9705  229.2475 H   0  0  0  0  0  0  0  0  0  0  0  0
  139.0323   68.8286  227.3646 H   0  0  0  0  0  0  0  0  0  0  0  0
  139.9725   68.9255  224.1015 H   0  0  0  0  0  0  0  0  0  0  0  0
  138.3398   69.1794  224.6242 H   0  0  0  0  0  0  0  0  0  0  0  0
  141.6575   74.3827  222.5067 H   0  0  0  0  0  0  0  0  0  0  0  0
  141.2949   73.9449  220.7729 H   0  0  0  0  0  0  0  0  0  0  0  0
  141.7976   76.5659  222.0418 H   0  0  0  0  0  0  0  0  0  0  0  0
  142.2226   75.8746  220.3872 H   0  0  0  0  0  0  0  0  0  0  0  0
  1  2  1  0
  2  3  1  0
  3  4  2  0
  3  5  1  0
  5  6  1  0
  6  7  2  0
  7  8  1  0
  8  9  2  0
  9 10  1  0
 10 11  2  0
  5 12  1  0
 12 13  1  0
 13 14  1  0
 14 15  1  0
 15 16  1  0
 16 17  2  0
 16 18  1  0
 18 19  1  0
 19 20  1  0
 19 21  1  0
 21 22  1  0
 22 23  1  0
 23 24  2  0
 24 25  1  0
 25 26  2  0
 26 27  1  0
 27 28  2  0
 28 29  1  0
 15 30  1  0
 30 31  1  0
 11  6  1  0
 31 12  1  0
 29 21  1  0
 28 23  1  0
  1 32  1  0
  1 33  1  0
  1 34  1  0
  2 35  1  0
  2 36  1  0
  7 37  1  0
  8 38  1  0
  9 39  1  0
 10 40  1  0
 11 41  1  0
 12 42  1  0
 13 43  1  0
 13 44  1  0
 14 45  1  0
 14 46  1  0
 18 47  1  0
 18 48  1  0
 19 49  1  1
 20 50  1  0
 20 51  1  0
 21 52  1  0
 22 53  1  0
 22 54  1  0
 24 55  1  0
 25 56  1  0
 26 57  1  0
 27 58  1  0
 29 59  1  0
 29 60  1  0
 30 61  1  0
 30 62  1  0
 31 63  1  0
 31 64  1  0
M  END
>  <smiles>  (3) 
CCC(=O)N(c1ccccc1)C1CCN(C(=O)CC(N)C2Cc3ccccc3C2)CC1

>  <score_type>  (3) 
oracle

>  <origin>  (3) 
autodockgpu

>  <m_score__min__energy>  (3) 
-8.4100000000000001

>  <m_primary>  (3) 
energy

>  <rmsd>  (3) 
6.488274180390752

>  <m_score__min__rmsd>  (3) 
6.488274180390752

>  <meeko>  (3) 
{"free_energy": -7.9, "intermolecular_energy": -10.29, "internal_energy": -2.28, "cluster_size": 24, "cluster_id": 1, "rank_in_cluster": 12}

>  <energy>  (3) 
-8.24

>  <cluster_rmsd>  (3) 
1.5

>  <cluster>  (3) 
1

$$$$

     RDKit          3D

 64 67  0  0  0  0  0  0  0  0999 V2000
  142.9450   77.0790  218.2580 C   0  0  0  0  0  0  0  0  0  0  0  0
  142.4770   78.5150  218.3800 C   0  0  0  0  0  0  0  0  0  0  0  0
  141.1830   78.5530  219.1500 C   0  0  0  0  0  0  0  0  0  0  0  0
  140.2440   79.1770  218.5930 O   0  0  0  0  0  0  0  0  0  0  0  0
  141.0820   77.9200  220.4090 N   0  0  0  0  0  0  0  0  0  0  0  0
  141.4720   78.6470  221.5860 C   0  0  0  0  0  0  0  0  0  0  0  0
  142.1640   79.8370  221.4220 C   0  0  0  0  0  0  0  0  0  0  0  0
  142.5550   80.5630  222.5370 C   0  0  0  0  0  0  0  0  0  0  0  0
  142.2520   80.0970  223.8020 C   0  0  0  0  0  0  0  0  0  0  0  0
  141.5560   78.8990  223.9620 C   0  0  0  0  0  0  0  0  0  0  0  0
  141.1640   78.1700  222.8550 C   0  0  0  0  0  0  0  0  0  0  0  0
  140.5860   76.5570  220.4710 C   0  0  0  0  0  0  0  0  0  0  0  0
  139.2250   76.5180  221.0520 C   0  0  0  0  0  0  0  0  0  0  0  0
  139.0050   75.6300  222.2220 C   0  0  0  0  0  0  0  0  0  0  0  0
  139.6790   74.3780  221.9390 N   0  0  0  0  0  0  0  0  0  0  0  0
  138.9720   73.1560  222.0060 C   0  0  0  0  0  0  0  0  0  0  0  0
  137.7570   73.1410  222.3120 O   0  0  0  0  0  0  0  0  0  0  0  0
  139.6240   71.8550  221.7240 C   0  0  0  0  0  0  0  0  0  0  0  0
  138.8690   70.7200  222.4230 C   0  0  2  0  0  0  0  0  0  0  0  0
  137.4650   70.7770  222.0270 N   0  0  0  0  0  0  0  0  0  0  0  0
  139.0240   70.9470  223.9060 C   0  0  0  0  0  0  0  0  0  0  0  0
  140.4150   71.4870  224.1620 C   0  0  0  0  0  0  0  0  0  0  0  0
  140.5110   71.2420  225.6450 C   0  0  0  0  0  0  0  0  0  0  0  0
  141.2210   71.8830  226.6610 C   0  0  0  0  0  0  0  0  0  0  0  0
  141.1070   71.4230  227.9560 C   0  0  0  0  0  0  0  0  0  0  0  0
  140.3010   70.3400  228.2640 C   0  0  0  0  0  0  0  0  0  0  0  0
  139.5960   69.7020  227.2710 C   0  0  0  0  0  0  0  0  0  0  0  0
  139.6980   70.1490  225.9660 C   0  0  0  0  0  0  0  0  0  0  0  0
  139.0620   69.6640  224.6900 C   0  0  0  0  0  0  0  0  0  0  0  0
  141.0830   74.3450  221.5830 C   0  0  0  0  0  0  0  0  0  0  0  0
  141.6000   75.6620  221.0960 C   0  0  0  0  0  0  0  0  0  0  0  0
  143.0841   76.6521  219.2622 H   0  0  0  0  0  0  0  0  0  0  0  0
  142.1914   76.4929  217.7116 H   0  0  0  0  0  0  0  0  0  0  0  0
  143.8993   77.0495  217.7116 H   0  0  0  0  0  0  0  0  0  0  0  0
  143.2380   79.1057  218.9110 H   0  0  0  0  0  0  0  0  0  0  0  0
  142.3214   78.9384  217.3768 H   0  0  0  0  0  0  0  0  0  0  0  0
  142.4018   80.2035  220.4125 H   0  0  0  0  0  0  0  0  0  0  0  0
  143.1051   81.5077  222.4146 H   0  0  0  0  0  0  0  0  0  0  0  0
  142.5610   80.6733  224.6866 H   0  0  0  0  0  0  0  0  0  0  0  0
  141.3184   78.5333  224.9719 H   0  0  0  0  0  0  0  0  0  0  0  0
  140.6153   77.2244  222.9766 H   0  0  0  0  0  0  0  0  0  0  0  0
  140.4507   76.1469  219.4593 H   0  0  0  0  0  0  0  0  0  0  0  0
  138.9697   77.5419  221.3626 H   0  0  0  0  0  0  0  0  0  0  0  0
  138.5924   76.0965  220.2569 H   0  0  0  0  0  0  0  0  0  0  0  0
  139.4263   76.0889  223.1286 H   0  0  0  0  0  0  0  0  0  0  0  0
  137.9308   75.4666  222.3933 H   0  0  0  0  0  0  0  0  0  0  0  0
  139.6238   71.6766  220.6386 H   0  0  0  0  0  0  0  0  0  0  0  0
  140.6571   71.8831  222.1008 H   0  0  0  0  0  0  0  0  0  0  0  0
  139.2592   69.7283  222.1505 H   0  0  0  0  0  0  0  0  0  0  0  0
  136.8800   71.1760  222.7780 H   0  0  0  0  0  0  0  0  0  0  0  0
  137.3830   71.3200  221.1290 H   0  0  0  0  0  0  0  0  0  0  0  0
  138.1834   71.5933  224.1987 H   0  0  0  0  0  0  0  0  0  0  0  0
  141.1807   70.9283  223.6039 H   0  0  0  0  0  0  0  0  0  0  0  0
  140.5763   72.5292  223.8494 H   0  0  0  0  0  0  0  0  0  0  0  0
  141.8642   72.7453  226.4315 H   0  0  0  0  0  0  0  0  0  0  0  0
  141.6665   71.9255  228.7588 H   0  0  0  0  0  0  0  0  0  0  0  0
  140.2247   69.9899  229.3040 H   0  0  0  0  0  0  0  0  0  0  0  0
  138.9548   68.8415  227.5128 H   0  0  0  0  0  0  0  0  0  0  0  0
  139.6782   68.9007  224.1923 H   0  0  0  0  0  0  0  0  0  0  0  0
  138.0859   69.1734  224.8189 H   0  0  0  0  0  0  0  0  0  0  0  0
  141.6616   74.0491  222.4705 H   0  0  0  0  0  0  0  0  0  0  0  0
  141.1937   73.6258  220.7581 H   0  0  0  0  0  0  0  0  0  0  0  0
  142.0376   76.1928  221.9544 H   0  0  0  0  0  0  0  0  0  0  0  0
  142.3257   75.4274  220.3033 H   0  0  0  0  0  0  0  0  0  0  0  0
  1  2  1  0
  2  3  1  0
  3  4  2  0
  3  5  1  0
  5  6  1  0
  6  7  2  0
  7  8  1  0
  8  9  2  0
  9 10  1  0
 10 11  2  0
  5 12  1  0
 12 13  1  0
 13 14  1  0
 14 15  1  0
 15 16  1  0
 16 17  2  0
 16 18  1  0
 18 19  1  0
 19 20  1  0
 19 21  1  0
 21 22  1  0
 22 23  1  0
 23 24  2  0
 24 25  1  0
 25 26  2  0
 26 27  1  0
 27 28  2  0
 28 29  1  0
 15 30  1  0
 30 31  1  0
 11  6  1  0
 31 12  1  0
 29 21  1  0
 28 23  1  0
  1 32  1  0
  1 33  1  0
  1 34  1  0
  2 35  1  0
  2 36  1  0
  7 37  1  0
  8 38  1  0
  9 39  1  0
 10 40  1  0
 11 41  1  0
 12 42  1  0
 13 43  1  0
 13 44  1  0
 14 45  1  0
 14 46  1  0
 18 47  1  0
 18 48  1  0
 19 49  1  6
 20 50  1  0
 20 51  1  0
 21 52  1  0
 22 53  1  0
 22 54  1  0
 24 55  1  0
 25 56  1  0
 26 57  1  0
 27 58  1  0
 29 59  1  0
 29 60  1  0
 30 61  1  0
 30 62  1  0
 31 63  1  0
 31 64  1  0
M  END
>  <smiles>  (4) 
CCC(=O)N(c1ccccc1)C1CCN(C(=O)CC(N)C2Cc3ccccc3C2)CC1

>  <score_type>  (4) 
oracle

>  <origin>  (4) 
autodockgpu

>  <m_score__min__energy>  (4) 
-8.4100000000000001

>  <m_primary>  (4) 
energy

>  <rmsd>  (4) 
6.6243855601888075

>  <m_score__min__rmsd>  (4) 
6.6243855601888075

>  <meeko>  (4) 
{"free_energy": -8.11, "intermolecular_energy": -10.49, "internal_energy": -2.21, "cluster_size": 24, "cluster_id": 1, "rank_in_cluster": 4}

>  <energy>  (4) 
-8.11

>  <cluster_rmsd>  (4) 
1.81

>  <cluster>  (4) 
1

$$$$

     RDKit          3D

 64 67  0  0  0  0  0  0  0  0999 V2000
  142.5780   80.0720  218.0830 C   0  0  0  0  0  0  0  0  0  0  0  0
  141.9740   78.6950  218.2710 C   0  0  0  0  0  0  0  0  0  0  0  0
  140.8330   78.7810  219.2500 C   0  0  0  0  0  0  0  0  0  0  0  0
  139.8700   79.5060  218.8910 O   0  0  0  0  0  0  0  0  0  0  0  0
  140.8880   78.0780  220.4750 N   0  0  0  0  0  0  0  0  0  0  0  0
  141.3630   78.7610  221.6470 C   0  0  0  0  0  0  0  0  0  0  0  0
  142.1780   79.8690  221.4740 C   0  0  0  0  0  0  0  0  0  0  0  0
  142.6540   80.5510  222.5840 C   0  0  0  0  0  0  0  0  0  0  0  0
  142.3130   80.1230  223.8530 C   0  0  0  0  0  0  0  0  0  0  0  0
  141.4920   79.0070  224.0210 C   0  0  0  0  0  0  0  0  0  0  0  0
  141.0150   78.3220  222.9190 C   0  0  0  0  0  0  0  0  0  0  0  0
  140.4610   76.6910  220.5070 C   0  0  0  0  0  0  0  0  0  0  0  0
  139.0920   76.5750  221.0600 C   0  0  0  0  0  0  0  0  0  0  0  0
  138.8940   75.6600  222.2130 C   0  0  0  0  0  0  0  0  0  0  0  0
  139.6370   74.4480  221.9260 N   0  0  0  0  0  0  0  0  0  0  0  0
  138.9920   73.1900  221.9630 C   0  0  0  0  0  0  0  0  0  0  0  0
  137.7730   73.1090  222.2430 O   0  0  0  0  0  0  0  0  0  0  0  0
  139.7150   71.9290  221.6760 C   0  0  0  0  0  0  0  0  0  0  0  0
  139.0520   70.7590  222.4100 C   0  0  2  0  0  0  0  0  0  0  0  0
  137.6440   70.7020  222.0280 N   0  0  0  0  0  0  0  0  0  0  0  0
  139.2030   71.0320  223.8860 C   0  0  0  0  0  0  0  0  0  0  0  0
  140.6120   71.5270  224.1360 C   0  0  0  0  0  0  0  0  0  0  0  0
  140.6860   71.3330  225.6280 C   0  0  0  0  0  0  0  0  0  0  0  0
  141.4110   71.9820  226.6260 C   0  0  0  0  0  0  0  0  0  0  0  0
  141.2680   71.5730  227.9360 C   0  0  0  0  0  0  0  0  0  0  0  0
  140.4190   70.5340  228.2750 C   0  0  0  0  0  0  0  0  0  0  0  0
  139.6980   69.8880  227.2980 C   0  0  0  0  0  0  0  0  0  0  0  0
  139.8290   70.2840  225.9790 C   0  0  0  0  0  0  0  0  0  0  0  0
  139.1850   69.7780  224.7150 C   0  0  0  0  0  0  0  0  0  0  0  0
  141.0480   74.4910  221.6000 C   0  0  0  0  0  0  0  0  0  0  0  0
  141.5060   75.8390  221.1410 C   0  0  0  0  0  0  0  0  0  0  0  0
  142.7758   80.5230  219.0666 H   0  0  0  0  0  0  0  0  0  0  0  0
  143.5208   79.9855  217.5230 H   0  0  0  0  0  0  0  0  0  0  0  0
  141.8758   80.7071  217.5230 H   0  0  0  0  0  0  0  0  0  0  0  0
  141.6022   78.3220  217.3053 H   0  0  0  0  0  0  0  0  0  0  0  0
  142.7399   78.0065  218.6576 H   0  0  0  0  0  0  0  0  0  0  0  0
  142.4458   80.2056  220.4616 H   0  0  0  0  0  0  0  0  0  0  0  0
  143.3016   81.4307  222.4545 H   0  0  0  0  0  0  0  0  0  0  0  0
  142.6899   80.6638  224.7336 H   0  0  0  0  0  0  0  0  0  0  0  0
  141.2236   78.6713  225.0336 H   0  0  0  0  0  0  0  0  0  0  0  0
  140.3686   77.4412  223.0471 H   0  0  0  0  0  0  0  0  0  0  0  0
  140.3675   76.2901  219.4869 H   0  0  0  0  0  0  0  0  0  0  0  0
  138.7793   77.5801  221.3794 H   0  0  0  0  0  0  0  0  0  0  0  0
  138.4974   76.1338  220.2465 H   0  0  0  0  0  0  0  0  0  0  0  0
  139.2731   76.1261  223.1344 H   0  0  0  0  0  0  0  0  0  0  0  0
  137.8263   75.4400  222.3602 H   0  0  0  0  0  0  0  0  0  0  0  0
  139.6943   71.7369  220.5931 H   0  0  0  0  0  0  0  0  0  0  0  0
  140.7550   72.0255  222.0210 H   0  0  0  0  0  0  0  0  0  0  0  0
  139.5125   69.7927  222.1564 H   0  0  0  0  0  0  0  0  0  0  0  0
  137.0380   71.0800  222.7740 H   0  0  0  0  0  0  0  0  0  0  0  0
  137.5150   71.2110  221.1160 H   0  0  0  0  0  0  0  0  0  0  0  0
  138.3852   71.7196  224.1476 H   0  0  0  0  0  0  0  0  0  0  0  0
  141.3600   70.9190  223.6061 H   0  0  0  0  0  0  0  0  0  0  0  0
  140.8163   72.5501  223.7874 H   0  0  0  0  0  0  0  0  0  0  0  0
  142.0890   72.8103  226.3723 H   0  0  0  0  0  0  0  0  0  0  0  0
  141.8396   72.0824  228.7258 H   0  0  0  0  0  0  0  0  0  0  0  0
  140.3208   70.2247  229.3260 H   0  0  0  0  0  0  0  0  0  0  0  0
  139.0218   69.0621  227.5636 H   0  0  0  0  0  0  0  0  0  0  0  0
  139.7753   68.9743  224.2507 H   0  0  0  0  0  0  0  0  0  0  0  0
  138.1897   69.3300  224.8519 H   0  0  0  0  0  0  0  0  0  0  0  0
  141.6224   74.2130  222.4960 H   0  0  0  0  0  0  0  0  0  0  0  0
  141.2130   73.7893  220.7691 H   0  0  0  0  0  0  0  0  0  0  0  0
  141.8989   76.3790  222.0151 H   0  0  0  0  0  0  0  0  0  0  0  0
  142.2576   75.6523  220.3599 H   0  0  0  0  0  0  0  0  0  0  0  0
  1  2  1  0
  2  3  1  0
  3  4  2  0
  3  5  1  0
  5  6  1  0
  6  7  2  0
  7  8  1  0
  8  9  2  0
  9 10  1  0
 10 11  2  0
  5 12  1  0
 12 13  1  0
 13 14  1  0
 14 15  1  0
 15 16  1  0
 16 17  2  0
 16 18  1  0
 18 19  1  0
 19 20  1  0
 19 21  1  0
 21 22  1  0
 22 23  1  0
 23 24  2  0
 24 25  1  0
 25 26  2  0
 26 27  1  0
 27 28  2  0
 28 29  1  0
 15 30  1  0
 30 31  1  0
 11  6  1  0
 31 12  1  0
 29 21  1  0
 28 23  1  0
  1 32  1  0
  1 33  1  0
  1 34  1  0
  2 35  1  0
  2 36  1  0
  7 37  1  0
  8 38  1  0
  9 39  1  0
 10 40  1  0
 11 41  1  0
 12 42  1  0
 13 43  1  0
 13 44  1  0
 14 45  1  0
 14 46  1  0
 18 47  1  0
 18 48  1  0
 19 49  1  1
 20 50  1  0
 20 51  1  0
 21 52  1  0
 22 53  1  0
 22 54  1  0
 24 55  1  0
 25 56  1  0
 26 57  1  0
 27 58  1  0
 29 59  1  0
 29 60  1  0
 30 61  1  0
 30 62  1  0
 31 63  1  0
 31 64  1  0
M  END
>  <smiles>  (5) 
CCC(=O)N(c1ccccc1)C1CCN(C(=O)CC(N)C2Cc3ccccc3C2)CC1

>  <score_type>  (5) 
oracle

>  <origin>  (5) 
autodockgpu

>  <m_score__min__energy>  (5) 
-8.4100000000000001

>  <m_primary>  (5) 
energy

>  <rmsd>  (5) 
6.549276034182218

>  <m_score__min__rmsd>  (5) 
6.549276034182218

>  <meeko>  (5) 
{"free_energy": -8.05, "intermolecular_energy": -10.43, "internal_energy": -2.27, "cluster_size": 24, "cluster_id": 1, "rank_in_cluster": 7}

>  <energy>  (5) 
-8.1

>  <cluster_rmsd>  (5) 
1.93

>  <cluster>  (5) 
1

$$$$

     RDKit          3D

 64 67  0  0  0  0  0  0  0  0999 V2000
  142.5900   77.9020  217.0730 C   0  0  0  0  0  0  0  0  0  0  0  0
  142.6030   77.4230  218.5110 C   0  0  0  0  0  0  0  0  0  0  0  0
  141.8190   78.3860  219.3630 C   0  0  0  0  0  0  0  0  0  0  0  0
  141.8160   79.5790  218.9630 O   0  0  0  0  0  0  0  0  0  0  0  0
  141.1510   77.9330  220.5230 N   0  0  0  0  0  0  0  0  0  0  0  0
  141.0190   78.8260  221.6410 C   0  0  0  0  0  0  0  0  0  0  0  0
  141.8510   78.6360  222.7340 C   0  0  0  0  0  0  0  0  0  0  0  0
  141.7490   79.4800  223.8290 C   0  0  0  0  0  0  0  0  0  0  0  0
  140.8210   80.5040  223.8250 C   0  0  0  0  0  0  0  0  0  0  0  0
  139.9860   80.6900  222.7230 C   0  0  0  0  0  0  0  0  0  0  0  0
  140.0820   79.8520  221.6280 C   0  0  0  0  0  0  0  0  0  0  0  0
  140.6210   76.5820  220.5440 C   0  0  0  0  0  0  0  0  0  0  0  0
  139.2490   76.5640  221.1020 C   0  0  0  0  0  0  0  0  0  0  0  0
  138.9880   75.6550  222.2480 C   0  0  0  0  0  0  0  0  0  0  0  0
  139.6360   74.3930  221.9450 N   0  0  0  0  0  0  0  0  0  0  0  0
  138.8970   73.1880  221.9720 C   0  0  0  0  0  0  0  0  0  0  0  0
  137.6770   73.1960  222.2580 O   0  0  0  0  0  0  0  0  0  0  0  0
  139.5220   71.8780  221.6700 C   0  0  0  0  0  0  0  0  0  0  0  0
  138.8000   70.7590  222.4270 C   0  0  2  0  0  0  0  0  0  0  0  0
  137.3790   70.8080  222.0960 N   0  0  0  0  0  0  0  0  0  0  0  0
  139.0230   71.0160  223.8970 C   0  0  0  0  0  0  0  0  0  0  0  0
  140.4550   71.4700  224.0870 C   0  0  0  0  0  0  0  0  0  0  0  0
  140.5890   71.2620  225.5730 C   0  0  0  0  0  0  0  0  0  0  0  0
  141.3760   71.8830  226.5430 C   0  0  0  0  0  0  0  0  0  0  0  0
  141.2790   71.4690  227.8560 C   0  0  0  0  0  0  0  0  0  0  0  0
  140.4160   70.4510  228.2240 C   0  0  0  0  0  0  0  0  0  0  0  0
  139.6360   69.8330  227.2760 C   0  0  0  0  0  0  0  0  0  0  0  0
  139.7190   70.2350  225.9560 C   0  0  0  0  0  0  0  0  0  0  0  0
  139.0070   69.7570  224.7180 C   0  0  0  0  0  0  0  0  0  0  0  0
  141.0440   74.3330  221.6120 C   0  0  0  0  0  0  0  0  0  0  0  0
  141.6010   75.6470  221.1640 C   0  0  0  0  0  0  0  0  0  0  0  0
  142.5602   79.0014  217.0530 H   0  0  0  0  0  0  0  0  0  0  0  0
  143.4980   77.5505  216.5612 H   0  0  0  0  0  0  0  0  0  0  0  0
  141.7024   77.5017  216.5612 H   0  0  0  0  0  0  0  0  0  0  0  0
  142.1460   76.4242  218.5698 H   0  0  0  0  0  0  0  0  0  0  0  0
  143.6405   77.3709  218.8729 H   0  0  0  0  0  0  0  0  0  0  0  0
  142.5883   77.8196  222.7321 H   0  0  0  0  0  0  0  0  0  0  0  0
  142.4056   79.3349  224.6995 H   0  0  0  0  0  0  0  0  0  0  0  0
  140.7405   81.1744  224.6933 H   0  0  0  0  0  0  0  0  0  0  0  0
  139.2487   81.5063  222.7255 H   0  0  0  0  0  0  0  0  0  0  0  0
  139.4251   79.9955  220.7574 H   0  0  0  0  0  0  0  0  0  0  0  0
  140.4937   76.1994  219.5206 H   0  0  0  0  0  0  0  0  0  0  0  0
  139.0137   77.5866  221.4320 H   0  0  0  0  0  0  0  0  0  0  0  0
  138.6194   76.1769  220.2873 H   0  0  0  0  0  0  0  0  0  0  0  0
  139.4060   76.0820  223.1716 H   0  0  0  0  0  0  0  0  0  0  0  0
  137.9075   75.5149  222.3995 H   0  0  0  0  0  0  0  0  0  0  0  0
  139.4574   71.6854  220.5889 H   0  0  0  0  0  0  0  0  0  0  0  0
  140.5755   71.9023  221.9854 H   0  0  0  0  0  0  0  0  0  0  0  0
  139.1780   69.7620  222.1567 H   0  0  0  0  0  0  0  0  0  0  0  0
  136.8320   71.2440  222.8560 H   0  0  0  0  0  0  0  0  0  0  0  0
  137.2570   71.3120  221.1790 H   0  0  0  0  0  0  0  0  0  0  0  0
  138.2366   71.7233  224.1992 H   0  0  0  0  0  0  0  0  0  0  0  0
  141.1616   70.8459  223.5203 H   0  0  0  0  0  0  0  0  0  0  0  0
  140.6725   72.4897  223.7363 H   0  0  0  0  0  0  0  0  0  0  0  0
  142.0659   72.6933  226.2646 H   0  0  0  0  0  0  0  0  0  0  0  0
  141.8982   71.9564  228.6235 H   0  0  0  0  0  0  0  0  0  0  0  0
  140.3545   70.1364  229.2763 H   0  0  0  0  0  0  0  0  0  0  0  0
  138.9499   69.0235  227.5659 H   0  0  0  0  0  0  0  0  0  0  0  0
  139.5542   68.9412  224.2230 H   0  0  0  0  0  0  0  0  0  0  0  0
  138.0066   69.3354  224.8956 H   0  0  0  0  0  0  0  0  0  0  0  0
  141.5998   74.0031  222.5020 H   0  0  0  0  0  0  0  0  0  0  0  0
  141.1514   73.6298  220.7730 H   0  0  0  0  0  0  0  0  0  0  0  0
  142.0376   76.1467  222.0413 H   0  0  0  0  0  0  0  0  0  0  0  0
  142.3329   75.4119  220.3772 H   0  0  0  0  0  0  0  0  0  0  0  0
  1  2  1  0
  2  3  1  0
  3  4  2  0
  3  5  1  0
  5  6  1  0
  6  7  2  0
  7  8  1  0
  8  9  2  0
  9 10  1  0
 10 11  2  0
  5 12  1  0
 12 13  1  0
 13 14  1  0
 14 15  1  0
 15 16  1  0
 16 17  2  0
 16 18  1  0
 18 19  1  0
 19 20  1  0
 19 21  1  0
 21 22  1  0
 22 23  1  0
 23 24  2  0
 24 25  1  0
 25 26  2  0
 26 27  1  0
 27 28  2  0
 28 29  1  0
 15 30  1  0
 30 31  1  0
 11  6  1  0
 31 12  1  0
 29 21  1  0
 28 23  1  0
  1 32  1  0
  1 33  1  0
  1 34  1  0
  2 35  1  0
  2 36  1  0
  7 37  1  0
  8 38  1  0
  9 39  1  0
 10 40  1  0
 11 41  1  0
 12 42  1  0
 13 43  1  0
 13 44  1  0
 14 45  1  0
 14 46  1  0
 18 47  1  0
 18 48  1  0
 19 49  1  6
 20 50  1  0
 20 51  1  0
 21 52  1  0
 22 53  1  0
 22 54  1  0
 24 55  1  0
 25 56  1  0
 26 57  1  0
 27 58  1  0
 29 59  1  0
 29 60  1  0
 30 61  1  0
 30 62  1  0
 31 63  1  0
 31 64  1  0
M  END
>  <smiles>  (6) 
CCC(=O)N(c1ccccc1)C1CCN(C(=O)CC(N)C2Cc3ccccc3C2)CC1

>  <score_type>  (6) 
oracle

>  <origin>  (6) 
autodockgpu

>  <m_score__min__energy>  (6) 
-8.4100000000000001

>  <m_primary>  (6) 
energy

>  <rmsd>  (6) 
6.6000327641893675

>  <m_score__min__rmsd>  (6) 
6.6000327641893675

>  <meeko>  (6) 
{"free_energy": -7.54, "intermolecular_energy": -9.92, "internal_energy": -2.36, "cluster_size": 24, "cluster_id": 1, "rank_in_cluster": 20}

>  <energy>  (6) 
-8.05

>  <cluster_rmsd>  (6) 
1.8

>  <cluster>  (6) 
1

$$$$

     RDKit          3D

 64 67  0  0  0  0  0  0  0  0999 V2000
  138.8270   67.5060  221.5970 C   0  0  0  0  0  0  0  0  0  0  0  0
  139.1760   68.7830  222.3330 C   0  0  0  0  0  0  0  0  0  0  0  0
  139.1340   68.5300  223.8170 C   0  0  0  0  0  0  0  0  0  0  0  0
  138.8380   67.3550  224.1540 O   0  0  0  0  0  0  0  0  0  0  0  0
  139.4130   69.5740  224.7280 N   0  0  0  0  0  0  0  0  0  0  0  0
  139.9210   69.2410  226.0310 C   0  0  0  0  0  0  0  0  0  0  0  0
  139.7180   70.1430  227.0640 C   0  0  0  0  0  0  0  0  0  0  0  0
  140.1950   69.8520  228.3330 C   0  0  0  0  0  0  0  0  0  0  0  0
  140.8680   68.6660  228.5600 C   0  0  0  0  0  0  0  0  0  0  0  0
  141.0700   67.7620  227.5170 C   0  0  0  0  0  0  0  0  0  0  0  0
  140.5970   68.0460  226.2490 C   0  0  0  0  0  0  0  0  0  0  0  0
  139.1790   70.9450  224.3160 C   0  0  0  0  0  0  0  0  0  0  0  0
  137.8470   71.0860  223.6870 C   0  0  0  0  0  0  0  0  0  0  0  0
  137.7900   71.6810  222.3270 C   0  0  0  0  0  0  0  0  0  0  0  0
  138.6870   72.8210  222.3250 N   0  0  0  0  0  0  0  0  0  0  0  0
  138.2180   74.0960  221.9320 C   0  0  0  0  0  0  0  0  0  0  0  0
  137.0260   74.2550  221.5820 O   0  0  0  0  0  0  0  0  0  0  0  0
  139.1020   75.2860  221.9160 C   0  0  0  0  0  0  0  0  0  0  0  0
  138.3290   76.5280  222.3700 C   0  0  2  0  0  0  0  0  0  0  0  0
  137.1610   76.6940  221.5090 N   0  0  0  0  0  0  0  0  0  0  0  0
  139.2720   77.6970  222.2360 C   0  0  0  0  0  0  0  0  0  0  0  0
  140.6410   77.2610  222.7140 C   0  0  0  0  0  0  0  0  0  0  0  0
  141.2830   78.6110  222.9010 C   0  0  0  0  0  0  0  0  0  0  0  0
  142.6080   79.0400  222.8310 C   0  0  0  0  0  0  0  0  0  0  0  0
  142.8990   80.3700  223.0530 C   0  0  0  0  0  0  0  0  0  0  0  0
  141.8990   81.2830  223.3440 C   0  0  0  0  0  0  0  0  0  0  0  0
  140.5900   80.8710  223.4150 C   0  0  0  0  0  0  0  0  0  0  0  0
  140.2800   79.5410  223.1950 C   0  0  0  0  0  0  0  0  0  0  0  0
  138.9660   78.8060  223.2050 C   0  0  0  0  0  0  0  0  0  0  0  0
  140.0740   72.6860  222.7200 C   0  0  0  0  0  0  0  0  0  0  0  0
  140.3390   71.4600  223.5350 C   0  0  0  0  0  0  0  0  0  0  0  0
  138.6097   66.7108  222.3253 H   0  0  0  0  0  0  0  0  0  0  0  0
  137.9426   67.6767  220.9656 H   0  0  0  0  0  0  0  0  0  0  0  0
  139.6753   67.2031  220.9656 H   0  0  0  0  0  0  0  0  0  0  0  0
  140.1861   69.1090  222.0443 H   0  0  0  0  0  0  0  0  0  0  0  0
  138.4509   69.5681  222.0725 H   0  0  0  0  0  0  0  0  0  0  0  0
  139.1812   71.0849  226.8778 H   0  0  0  0  0  0  0  0  0  0  0  0
  140.0383   70.5633  229.1573 H   0  0  0  0  0  0  0  0  0  0  0  0
  141.2456   68.4343  229.5668 H   0  0  0  0  0  0  0  0  0  0  0  0
  141.6072   66.8204  227.7037 H   0  0  0  0  0  0  0  0  0  0  0  0
  140.7536   67.3357  225.4238 H   0  0  0  0  0  0  0  0  0  0  0  0
  139.1269   71.6088  225.1916 H   0  0  0  0  0  0  0  0  0  0  0  0
  137.4035   70.0812  223.6258 H   0  0  0  0  0  0  0  0  0  0  0  0
  137.3087   71.7998  224.3279 H   0  0  0  0  0  0  0  0  0  0  0  0
  138.1146   70.9436  221.5781 H   0  0  0  0  0  0  0  0  0  0  0  0
  136.7641   71.9882  222.0756 H   0  0  0  0  0  0  0  0  0  0  0  0
  139.9499   75.1175  222.5962 H   0  0  0  0  0  0  0  0  0  0  0  0
  139.4676   75.4467  220.8910 H   0  0  0  0  0  0  0  0  0  0  0  0
  137.9770   76.4448  223.4088 H   0  0  0  0  0  0  0  0  0  0  0  0
  137.3040   76.2410  220.5920 H   0  0  0  0  0  0  0  0  0  0  0  0
  136.3110   76.3220  222.0080 H   0  0  0  0  0  0  0  0  0  0  0  0
  139.1968   78.0227  221.1880 H   0  0  0  0  0  0  0  0  0  0  0  0
  140.5859   76.6989  223.6579 H   0  0  0  0  0  0  0  0  0  0  0  0
  141.1766   76.5783  222.0379 H   0  0  0  0  0  0  0  0  0  0  0  0
  143.4123   78.3257  222.6013 H   0  0  0  0  0  0  0  0  0  0  0  0
  143.9433   80.7113  222.9980 H   0  0  0  0  0  0  0  0  0  0  0  0
  142.1529   82.3390  223.5185 H   0  0  0  0  0  0  0  0  0  0  0  0
  139.7938   81.5942  223.6453 H   0  0  0  0  0  0  0  0  0  0  0  0
  138.7244   78.4175  224.2053 H   0  0  0  0  0  0  0  0  0  0  0  0
  138.0924   79.4203  222.9413 H   0  0  0  0  0  0  0  0  0  0  0  0
  140.6933   72.6425  221.8119 H   0  0  0  0  0  0  0  0  0  0  0  0
  140.3207   73.5549  223.3478 H   0  0  0  0  0  0  0  0  0  0  0  0
  140.6677   70.6633  222.8515 H   0  0  0  0  0  0  0  0  0  0  0  0
  141.0978   71.7491  224.2770 H   0  0  0  0  0  0  0  0  0  0  0  0
  1  2  1  0
  2  3  1  0
  3  4  2  0
  3  5  1  0
  5  6  1  0
  6  7  2  0
  7  8  1  0
  8  9  2  0
  9 10  1  0
 10 11  2  0
  5 12  1  0
 12 13  1  0
 13 14  1  0
 14 15  1  0
 15 16  1  0
 16 17  2  0
 16 18  1  0
 18 19  1  0
 19 20  1  0
 19 21  1  0
 21 22  1  0
 22 23  1  0
 23 24  2  0
 24 25  1  0
 25 26  2  0
 26 27  1  0
 27 28  2  0
 28 29  1  0
 15 30  1  0
 30 31  1  0
 11  6  1  0
 31 12  1  0
 29 21  1  0
 28 23  1  0
  1 32  1  0
  1 33  1  0
  1 34  1  0
  2 35  1  0
  2 36  1  0
  7 37  1  0
  8 38  1  0
  9 39  1  0
 10 40  1  0
 11 41  1  0
 12 42  1  0
 13 43  1  0
 13 44  1  0
 14 45  1  0
 14 46  1  0
 18 47  1  0
 18 48  1  0
 19 49  1  1
 20 50  1  0
 20 51  1  0
 21 52  1  0
 22 53  1  0
 22 54  1  0
 24 55  1  0
 25 56  1  0
 26 57  1  0
 27 58  1  0
 29 59  1  0
 29 60  1  0
 30 61  1  0
 30 62  1  0
 31 63  1  0
 31 64  1  0
M  END
>  <smiles>  (7) 
CCC(=O)N(c1ccccc1)C1CCN(C(=O)CC(N)C2Cc3ccccc3C2)CC1

>  <score_type>  (7) 
oracle

>  <origin>  (7) 
autodockgpu

>  <m_score__min__energy>  (7) 
-8.4100000000000001

>  <m_primary>  (7) 
energy

>  <rmsd>  (7) 
7.715797635652517

>  <m_score__min__rmsd>  (7) 
7.715797635652517

>  <meeko>  (7) 
{"free_energy": -8.27, "intermolecular_energy": -10.65, "internal_energy": -1.84, "cluster_size": 18, "cluster_id": 2, "rank_in_cluster": 2}

>  <energy>  (7) 
-8.05

>  <cluster_rmsd>  (7) 
1.89

>  <cluster>  (7) 
1

$$$$

     RDKit          3D

 64 67  0  0  0  0  0  0  0  0999 V2000
  146.7210   73.3770  221.9860 C   0  0  0  0  0  0  0  0  0  0  0  0
  145.7200   74.0460  221.0650 C   0  0  0  0  0  0  0  0  0  0  0  0
  145.6030   73.2480  219.7930 C   0  0  0  0  0  0  0  0  0  0  0  0
  146.5500   73.3940  218.9780 O   0  0  0  0  0  0  0  0  0  0  0  0
  144.4870   72.4090  219.5760 N   0  0  0  0  0  0  0  0  0  0  0  0
  144.7020   70.9980  219.4040 C   0  0  0  0  0  0  0  0  0  0  0  0
  145.9200   70.5780  218.8910 C   0  0  0  0  0  0  0  0  0  0  0  0
  146.1590   69.2240  218.7140 C   0  0  0  0  0  0  0  0  0  0  0  0
  145.1850   68.3030  219.0480 C   0  0  0  0  0  0  0  0  0  0  0  0
  143.9610   68.7310  219.5640 C   0  0  0  0  0  0  0  0  0  0  0  0
  143.7160   70.0800  219.7430 C   0  0  0  0  0  0  0  0  0  0  0  0
  143.1630   73.0000  219.5340 C   0  0  0  0  0  0  0  0  0  0  0  0
  143.1670   74.2440  218.7310 C   0  0  0  0  0  0  0  0  0  0  0  0
  142.6480   75.4780  219.3760 C   0  0  0  0  0  0  0  0  0  0  0  0
  141.4390   75.1090  220.0870 N   0  0  0  0  0  0  0  0  0  0  0  0
  140.2290   75.7990  219.8410 C   0  0  0  0  0  0  0  0  0  0  0  0
  140.1890   76.7340  219.0090 O   0  0  0  0  0  0  0  0  0  0  0  0
  138.9720   75.4540  220.5470 C   0  0  0  0  0  0  0  0  0  0  0  0
  139.0460   75.8980  222.0110 C   0  0  2  0  0  0  0  0  0  0  0  0
  137.6910   75.9680  222.5500 N   0  0  0  0  0  0  0  0  0  0  0  0
  139.7040   77.2550  222.0190 C   0  0  0  0  0  0  0  0  0  0  0  0
  141.0610   77.1220  222.6760 C   0  0  0  0  0  0  0  0  0  0  0  0
  141.3460   78.5740  222.9620 C   0  0  0  0  0  0  0  0  0  0  0  0
  142.5340   79.2950  223.0780 C   0  0  0  0  0  0  0  0  0  0  0  0
  142.4780   80.6460  223.3500 C   0  0  0  0  0  0  0  0  0  0  0  0
  141.2660   81.2960  223.5100 C   0  0  0  0  0  0  0  0  0  0  0  0
  140.0890   80.5950  223.3970 C   0  0  0  0  0  0  0  0  0  0  0  0
  140.1250   79.2400  223.1240 C   0  0  0  0  0  0  0  0  0  0  0  0
  139.0260   78.2250  222.9470 C   0  0  0  0  0  0  0  0  0  0  0  0
  141.4370   74.0360  221.0600 C   0  0  0  0  0  0  0  0  0  0  0  0
  142.5940   73.1000  220.9080 C   0  0  0  0  0  0  0  0  0  0  0  0
  146.4392   73.5653  223.0325 H   0  0  0  0  0  0  0  0  0  0  0  0
  146.7260   72.2934  221.7969 H   0  0  0  0  0  0  0  0  0  0  0  0
  147.7241   73.7868  221.7969 H   0  0  0  0  0  0  0  0  0  0  0  0
  144.7391   74.0932  221.5607 H   0  0  0  0  0  0  0  0  0  0  0  0
  146.0595   75.0657  220.8303 H   0  0  0  0  0  0  0  0  0  0  0  0
  146.6922   71.3152  218.6260 H   0  0  0  0  0  0  0  0  0  0  0  0
  147.1230   68.8834  218.3081 H   0  0  0  0  0  0  0  0  0  0  0  0
  145.3748   67.2288  218.9068 H   0  0  0  0  0  0  0  0  0  0  0  0
  143.1892   67.9933  219.8290 H   0  0  0  0  0  0  0  0  0  0  0  0
  142.7525   70.4220  220.1487 H   0  0  0  0  0  0  0  0  0  0  0  0
  142.4620   72.3436  218.9976 H   0  0  0  0  0  0  0  0  0  0  0  0
  144.2075   74.4405  218.4329 H   0  0  0  0  0  0  0  0  0  0  0  0
  142.4702   74.0458  217.9033 H   0  0  0  0  0  0  0  0  0  0  0  0
  143.3927   75.8782  220.0797 H   0  0  0  0  0  0  0  0  0  0  0  0
  142.4403   76.2552  218.6258 H   0  0  0  0  0  0  0  0  0  0  0  0
  138.1288   75.9618  220.0559 H   0  0  0  0  0  0  0  0  0  0  0  0
  138.8284   74.3640  220.5103 H   0  0  0  0  0  0  0  0  0  0  0  0
  139.6224   75.1960  222.6314 H   0  0  0  0  0  0  0  0  0  0  0  0
  136.9880   75.9940  221.7930 H   0  0  0  0  0  0  0  0  0  0  0  0
  137.5390   75.1570  223.2050 H   0  0  0  0  0  0  0  0  0  0  0  0
  139.6945   77.5975  220.9737 H   0  0  0  0  0  0  0  0  0  0  0  0
  141.0130   76.5244  223.5983 H   0  0  0  0  0  0  0  0  0  0  0  0
  141.8231   76.6065  222.0732 H   0  0  0  0  0  0  0  0  0  0  0  0
  143.5044   78.7921  222.9540 H   0  0  0  0  0  0  0  0  0  0  0  0
  143.4134   81.2176  223.4415 H   0  0  0  0  0  0  0  0  0  0  0  0
  141.2450   82.3740  223.7277 H   0  0  0  0  0  0  0  0  0  0  0  0
  139.1246   81.1088  223.5230 H   0  0  0  0  0  0  0  0  0  0  0  0
  138.7516   77.7515  223.9012 H   0  0  0  0  0  0  0  0  0  0  0  0
  138.0766   78.6346  222.5718 H   0  0  0  0  0  0  0  0  0  0  0  0
  141.4743   74.4772  222.0670 H   0  0  0  0  0  0  0  0  0  0  0  0
  140.5198   73.4506  220.8989 H   0  0  0  0  0  0  0  0  0  0  0  0
  143.3944   73.4385  221.5824 H   0  0  0  0  0  0  0  0  0  0  0  0
  142.2058   72.0990  221.1474 H   0  0  0  0  0  0  0  0  0  0  0  0
  1  2  1  0
  2  3  1  0
  3  4  2  0
  3  5  1  0
  5  6  1  0
  6  7  2  0
  7  8  1  0
  8  9  2  0
  9 10  1  0
 10 11  2  0
  5 12  1  0
 12 13  1  0
 13 14  1  0
 14 15  1  0
 15 16  1  0
 16 17  2  0
 16 18  1  0
 18 19  1  0
 19 20  1  0
 19 21  1  0
 21 22  1  0
 22 23  1  0
 23 24  2  0
 24 25  1  0
 25 26  2  0
 26 27  1  0
 27 28  2  0
 28 29  1  0
 15 30  1  0
 30 31  1  0
 11  6  1  0
 31 12  1  0
 29 21  1  0
 28 23  1  0
  1 32  1  0
  1 33  1  0
  1 34  1  0
  2 35  1  0
  2 36  1  0
  7 37  1  0
  8 38  1  0
  9 39  1  0
 10 40  1  0
 11 41  1  0
 12 42  1  0
 13 43  1  0
 13 44  1  0
 14 45  1  0
 14 46  1  0
 18 47  1  0
 18 48  1  0
 19 49  1  1
 20 50  1  0
 20 51  1  0
 21 52  1  0
 22 53  1  0
 22 54  1  0
 24 55  1  0
 25 56  1  0
 26 57  1  0
 27 58  1  0
 29 59  1  0
 29 60  1  0
 30 61  1  0
 30 62  1  0
 31 63  1  0
 31 64  1  0
M  END
>  <smiles>  (8) 
CCC(=O)N(c1ccccc1)C1CCN(C(=O)CC(N)C2Cc3ccccc3C2)CC1

>  <score_type>  (8) 
oracle

>  <origin>  (8) 
autodockgpu

>  <m_score__min__energy>  (8) 
-8.4100000000000001

>  <m_primary>  (8) 
energy

>  <rmsd>  (8) 
6.011017513795874

>  <m_score__min__rmsd>  (8) 
6.011017513795874

>  <meeko>  (8) 
{"free_energy": -7.99, "intermolecular_energy": -10.38, "internal_energy": -1.63, "cluster_size": 1, "cluster_id": 3, "rank_in_cluster": 1}

>  <energy>  (8) 
-8.02

>  <cluster_rmsd>  (8) 
1.8

>  <cluster>  (8) 
1

$$$$

     RDKit          3D

 64 67  0  0  0  0  0  0  0  0999 V2000
  140.4120   81.2530  219.3410 C   0  0  0  0  0  0  0  0  0  0  0  0
  140.1080   79.7700  219.3780 C   0  0  0  0  0  0  0  0  0  0  0  0
  141.3230   79.0230  219.8610 C   0  0  0  0  0  0  0  0  0  0  0  0
  142.2170   78.8350  218.9960 O   0  0  0  0  0  0  0  0  0  0  0  0
  141.4060   78.5830  221.2010 N   0  0  0  0  0  0  0  0  0  0  0  0
  141.7150   79.5400  222.2280 C   0  0  0  0  0  0  0  0  0  0  0  0
  140.6900   80.3420  222.7070 C   0  0  0  0  0  0  0  0  0  0  0  0
  140.9550   81.2750  223.6980 C   0  0  0  0  0  0  0  0  0  0  0  0
  142.2350   81.3990  224.2020 C   0  0  0  0  0  0  0  0  0  0  0  0
  143.2630   80.5900  223.7170 C   0  0  0  0  0  0  0  0  0  0  0  0
  143.0070   79.6580  222.7280 C   0  0  0  0  0  0  0  0  0  0  0  0
  141.1760   77.1810  221.4940 C   0  0  0  0  0  0  0  0  0  0  0  0
  141.5080   76.3370  220.3240 C   0  0  0  0  0  0  0  0  0  0  0  0
  140.4570   75.4140  219.8240 C   0  0  0  0  0  0  0  0  0  0  0  0
  139.8520   74.7910  220.9850 N   0  0  0  0  0  0  0  0  0  0  0  0
  139.7860   73.3820  221.0850 C   0  0  0  0  0  0  0  0  0  0  0  0
  140.2480   72.6580  220.1730 O   0  0  0  0  0  0  0  0  0  0  0  0
  139.1750   72.7060  222.2540 C   0  0  0  0  0  0  0  0  0  0  0  0
  139.8630   71.3600  222.5080 C   0  0  2  0  0  0  0  0  0  0  0  0
  139.3240   70.3740  221.5760 N   0  0  0  0  0  0  0  0  0  0  0  0
  139.5570   70.9810  223.9360 C   0  0  0  0  0  0  0  0  0  0  0  0
  140.6990   71.4570  224.8090 C   0  0  0  0  0  0  0  0  0  0  0  0
  140.4250   70.6440  226.0470 C   0  0  0  0  0  0  0  0  0  0  0  0
  140.6960   70.8650  227.3970 C   0  0  0  0  0  0  0  0  0  0  0  0
  140.3150   69.9180  228.3240 C   0  0  0  0  0  0  0  0  0  0  0  0
  139.6700   68.7550  227.9380 C   0  0  0  0  0  0  0  0  0  0  0  0
  139.3980   68.5280  226.6100 C   0  0  0  0  0  0  0  0  0  0  0  0
  139.7720   69.4660  225.6660 C   0  0  0  0  0  0  0  0  0  0  0  0
  139.6140   69.4970  224.1690 C   0  0  0  0  0  0  0  0  0  0  0  0
  139.3020   75.5860  222.0640 C   0  0  0  0  0  0  0  0  0  0  0  0
  139.8220   76.9880  222.0870 C   0  0  0  0  0  0  0  0  0  0  0  0
  140.4907   81.6369  220.3688 H   0  0  0  0  0  0  0  0  0  0  0  0
  141.3629   81.4193  218.8137 H   0  0  0  0  0  0  0  0  0  0  0  0
  139.6032   81.7800  218.8137 H   0  0  0  0  0  0  0  0  0  0  0  0
  139.2670   79.5846  220.0623 H   0  0  0  0  0  0  0  0  0  0  0  0
  139.8409   79.4241  218.3686 H   0  0  0  0  0  0  0  0  0  0  0  0
  139.6721   80.2386  222.3029 H   0  0  0  0  0  0  0  0  0  0  0  0
  140.1472   81.9153  224.0821 H   0  0  0  0  0  0  0  0  0  0  0  0
  142.4447   82.1385  224.9889 H   0  0  0  0  0  0  0  0  0  0  0  0
  144.2802   80.6938  224.1225 H   0  0  0  0  0  0  0  0  0  0  0  0
  143.8146   79.0186  222.3421 H   0  0  0  0  0  0  0  0  0  0  0  0
  141.8665   76.8303  222.2752 H   0  0  0  0  0  0  0  0  0  0  0  0
  141.7754   77.0110  219.4968 H   0  0  0  0  0  0  0  0  0  0  0  0
  142.3163   75.6781  220.6740 H   0  0  0  0  0  0  0  0  0  0  0  0
  139.6988   75.9758  219.2587 H   0  0  0  0  0  0  0  0  0  0  0  0
  140.8871   74.6569  219.1519 H   0  0  0  0  0  0  0  0  0  0  0  0
  139.2875   73.3447  223.1425 H   0  0  0  0  0  0  0  0  0  0  0  0
  138.1085   72.5304  222.0495 H   0  0  0  0  0  0  0  0  0  0  0  0
  140.9513   71.4117  222.3562 H   0  0  0  0  0  0  0  0  0  0  0  0
  139.3110   70.7390  220.6100 H   0  0  0  0  0  0  0  0  0  0  0  0
  139.8820   69.4840  221.6570 H   0  0  0  0  0  0  0  0  0  0  0  0
  138.5637   71.4020  224.1506 H   0  0  0  0  0  0  0  0  0  0  0  0
  141.6784   71.2170  224.3695 H   0  0  0  0  0  0  0  0  0  0  0  0
  140.7454   72.5448  224.9654 H   0  0  0  0  0  0  0  0  0  0  0  0
  141.2077   71.7841  227.7186 H   0  0  0  0  0  0  0  0  0  0  0  0
  140.5273   70.0895  229.3896 H   0  0  0  0  0  0  0  0  0  0  0  0
  139.3753   68.0127  228.6944 H   0  0  0  0  0  0  0  0  0  0  0  0
  138.8856   67.6052  226.3001 H   0  0  0  0  0  0  0  0  0  0  0  0
  140.4738   69.0377  223.6593 H   0  0  0  0  0  0  0  0  0  0  0  0
  138.7483   68.9370  223.7855 H   0  0  0  0  0  0  0  0  0  0  0  0
  138.2084   75.6205  221.9505 H   0  0  0  0  0  0  0  0  0  0  0  0
  139.6046   75.1096  223.0082 H   0  0  0  0  0  0  0  0  0  0  0  0
  139.1151   77.6207  221.5303 H   0  0  0  0  0  0  0  0  0  0  0  0
  139.9169   77.2571  223.1494 H   0  0  0  0  0  0  0  0  0  0  0  0
  1  2  1  0
  2  3  1  0
  3  4  2  0
  3  5  1  0
  5  6  1  0
  6  7  2  0
  7  8  1  0
  8  9  2  0
  9 10  1  0
 10 11  2  0
  5 12  1  0
 12 13  1  0
 13 14  1  0
 14 15  1  0
 15 16  1  0
 16 17  2  0
 16 18  1  0
 18 19  1  0
 19 20  1  0
 19 21  1  0
 21 22  1  0
 22 23  1  0
 23 24  2  0
 24 25  1  0
 25 26  2  0
 26 27  1  0
 27 28  2  0
 28 29  1  0
 15 30  1  0
 30 31  1  0
 11  6  1  0
 31 12  1  0
 29 21  1  0
 28 23  1  0
  1 32  1  0
  1 33  1  0
  1 34  1  0
  2 35  1  0
  2 36  1  0
  7 37  1  0
  8 38  1  0
  9 39  1  0
 10 40  1  0
 11 41  1  0
 12 42  1  0
 13 43  1  0
 13 44  1  0
 14 45  1  0
 14 46  1  0
 18 47  1  0
 18 48  1  0
 19 49  1  1
 20 50  1  0
 20 51  1  0
 21 52  1  0
 22 53  1  0
 22 54  1  0
 24 55  1  0
 25 56  1  0
 26 57  1  0
 27 58  1  0
 29 59  1  0
 29 60  1  0
 30 61  1  0
 30 62  1  0
 31 63  1  0
 31 64  1  0
M  END
>  <smiles>  (9) 
CCC(=O)N(c1ccccc1)C1CCN(C(=O)CC(N)C2Cc3ccccc3C2)CC1

>  <score_type>  (9) 
oracle

>  <origin>  (9) 
autodockgpu

>  <m_score__min__energy>  (9) 
-8.4100000000000001

>  <m_primary>  (9) 
energy

>  <rmsd>  (9) 
6.302538548168449

>  <m_score__min__rmsd>  (9) 
6.302538548168449

>  <meeko>  (9) 
{"free_energy": -7.8, "intermolecular_energy": -10.19, "internal_energy": -1.87, "cluster_size": 24, "cluster_id": 1, "rank_in_cluster": 15}

>  <energy>  (9) 
-7.99

>  <cluster_rmsd>  (9) 
1.84

>  <cluster>  (9) 
1

$$$$

     RDKit          3D

 64 67  0  0  0  0  0  0  0  0999 V2000
  142.6500   77.6900  218.2860 C   0  0  0  0  0  0  0  0  0  0  0  0
  141.8810   78.9920  218.3770 C   0  0  0  0  0  0  0  0  0  0  0  0
  140.6310   78.7780  219.1880 C   0  0  0  0  0  0  0  0  0  0  0  0
  139.5760   79.2380  218.6820 O   0  0  0  0  0  0  0  0  0  0  0  0
  140.6910   78.1030  220.4280 N   0  0  0  0  0  0  0  0  0  0  0  0
  141.0830   78.8360  221.6000 C   0  0  0  0  0  0  0  0  0  0  0  0
  142.1570   79.7070  221.4990 C   0  0  0  0  0  0  0  0  0  0  0  0
  142.5620   80.4300  222.6110 C   0  0  0  0  0  0  0  0  0  0  0  0
  141.8930   80.2790  223.8110 C   0  0  0  0  0  0  0  0  0  0  0  0
  140.8120   79.4010  223.9070 C   0  0  0  0  0  0  0  0  0  0  0  0
  140.4040   78.6770  222.8020 C   0  0  0  0  0  0  0  0  0  0  0  0
  140.3520   76.6920  220.4750 C   0  0  0  0  0  0  0  0  0  0  0  0
  138.9830   76.4970  221.0040 C   0  0  0  0  0  0  0  0  0  0  0  0
  138.8220   75.5890  222.1690 C   0  0  0  0  0  0  0  0  0  0  0  0
  139.6460   74.4230  221.9150 N   0  0  0  0  0  0  0  0  0  0  0  0
  139.0800   73.1270  221.9600 C   0  0  0  0  0  0  0  0  0  0  0  0
  137.8650   72.9730  222.2190 O   0  0  0  0  0  0  0  0  0  0  0  0
  139.8880   71.9100  221.7070 C   0  0  0  0  0  0  0  0  0  0  0  0
  139.2380   70.6940  222.3760 C   0  0  2  0  0  0  0  0  0  0  0  0
  137.8520   70.5950  221.9260 N   0  0  0  0  0  0  0  0  0  0  0  0
  139.3090   70.9290  223.8640 C   0  0  0  0  0  0  0  0  0  0  0  0
  140.6680   71.5130  224.1880 C   0  0  0  0  0  0  0  0  0  0  0  0
  140.6950   71.2750  225.6760 C   0  0  0  0  0  0  0  0  0  0  0  0
  141.3320   71.9410  226.7230 C   0  0  0  0  0  0  0  0  0  0  0  0
  141.1650   71.4810  228.0130 C   0  0  0  0  0  0  0  0  0  0  0  0
  140.3790   70.3740  228.2840 C   0  0  0  0  0  0  0  0  0  0  0  0
  139.7460   69.7110  227.2580 C   0  0  0  0  0  0  0  0  0  0  0  0
  139.9020   70.1580  225.9590 C   0  0  0  0  0  0  0  0  0  0  0  0
  139.3470   69.6510  224.6540 C   0  0  0  0  0  0  0  0  0  0  0  0
  141.0570   74.5500  221.6130 C   0  0  0  0  0  0  0  0  0  0  0  0
  141.4370   75.9180  221.1410 C   0  0  0  0  0  0  0  0  0  0  0  0
  142.8678   77.3212  219.2992 H   0  0  0  0  0  0  0  0  0  0  0  0
  142.0470   76.9449  217.7464 H   0  0  0  0  0  0  0  0  0  0  0  0
  143.5936   77.8584  217.7464 H   0  0  0  0  0  0  0  0  0  0  0  0
  142.5073   79.7551  218.8622 H   0  0  0  0  0  0  0  0  0  0  0  0
  141.6100   79.3304  217.3660 H   0  0  0  0  0  0  0  0  0  0  0  0
  142.6854   79.8240  220.5413 H   0  0  0  0  0  0  0  0  0  0  0  0
  143.4138   81.1222  222.5381 H   0  0  0  0  0  0  0  0  0  0  0  0
  142.2135   80.8525  224.6933 H   0  0  0  0  0  0  0  0  0  0  0  0
  140.2832   79.2848  224.8645 H   0  0  0  0  0  0  0  0  0  0  0  0
  139.5528   77.9840  222.8734 H   0  0  0  0  0  0  0  0  0  0  0  0
  140.3033   76.2705  219.4601 H   0  0  0  0  0  0  0  0  0  0  0  0
  138.6002   77.4847  221.3004 H   0  0  0  0  0  0  0  0  0  0  0  0
  138.4336   76.0060  220.1872 H   0  0  0  0  0  0  0  0  0  0  0  0
  139.1535   76.0926  223.0891 H   0  0  0  0  0  0  0  0  0  0  0  0
  137.7680   75.3035  222.3014 H   0  0  0  0  0  0  0  0  0  0  0  0
  139.9534   71.7363  220.6228 H   0  0  0  0  0  0  0  0  0  0  0  0
  140.8948   72.0544  222.1259 H   0  0  0  0  0  0  0  0  0  0  0  0
  139.7475   69.7539  222.1179 H   0  0  0  0  0  0  0  0  0  0  0  0
  137.1980   70.9190  222.6560 H   0  0  0  0  0  0  0  0  0  0  0  0
  137.7440   71.1340  221.0270 H   0  0  0  0  0  0  0  0  0  0  0  0
  138.4344   71.5488  224.1108 H   0  0  0  0  0  0  0  0  0  0  0  0
  141.4782   70.9768  223.6722 H   0  0  0  0  0  0  0  0  0  0  0  0
  140.8130   72.5588  223.8792 H   0  0  0  0  0  0  0  0  0  0  0  0
  141.9596   72.8219  226.5227 H   0  0  0  0  0  0  0  0  0  0  0  0
  141.6656   72.0035  228.8415 H   0  0  0  0  0  0  0  0  0  0  0  0
  140.2605   70.0243  229.3202 H   0  0  0  0  0  0  0  0  0  0  0  0
  139.1202   68.8315  227.4697 H   0  0  0  0  0  0  0  0  0  0  0  0
  140.0110   68.9061  224.1913 H   0  0  0  0  0  0  0  0  0  0  0  0
  138.3811   69.1310  224.7354 H   0  0  0  0  0  0  0  0  0  0  0  0
  141.6314   74.3219  222.5230 H   0  0  0  0  0  0  0  0  0  0  0  0
  141.2814   73.8480  220.7964 H   0  0  0  0  0  0  0  0  0  0  0  0
  141.7781   76.4947  222.0134 H   0  0  0  0  0  0  0  0  0  0  0  0
  142.2137   75.7684  220.3766 H   0  0  0  0  0  0  0  0  0  0  0  0
  1  2  1  0
  2  3  1  0
  3  4  2  0
  3  5  1  0
  5  6  1  0
  6  7  2  0
  7  8  1  0
  8  9  2  0
  9 10  1  0
 10 11  2  0
  5 12  1  0
 12 13  1  0
 13 14  1  0
 14 15  1  0
 15 16  1  0
 16 17  2  0
 16 18  1  0
 18 19  1  0
 19 20  1  0
 19 21  1  0
 21 22  1  0
 22 23  1  0
 23 24  2  0
 24 25  1  0
 25 26  2  0
 26 27  1  0
 27 28  2  0
 28 29  1  0
 15 30  1  0
 30 31  1  0
 11  6  1  0
 31 12  1  0
 29 21  1  0
 28 23  1  0
  1 32  1  0
  1 33  1  0
  1 34  1  0
  2 35  1  0
  2 36  1  0
  7 37  1  0
  8 38  1  0
  9 39  1  0
 10 40  1  0
 11 41  1  0
 12 42  1  0
 13 43  1  0
 13 44  1  0
 14 45  1  0
 14 46  1  0
 18 47  1  0
 18 48  1  0
 19 49  1  1
 20 50  1  0
 20 51  1  0
 21 52  1  0
 22 53  1  0
 22 54  1  0
 24 55  1  0
 25 56  1  0
 26 57  1  0
 27 58  1  0
 29 59  1  0
 29 60  1  0
 30 61  1  0
 30 62  1  0
 31 63  1  0
 31 64  1  0
M  END
>  <smiles>  (10) 
CCC(=O)N(c1ccccc1)C1CCN(C(=O)CC(N)C2Cc3ccccc3C2)CC1

>  <score_type>  (10) 
oracle

>  <origin>  (10) 
autodockgpu

>  <m_score__min__energy>  (10) 
-8.4100000000000001

>  <m_primary>  (10) 
energy

>  <rmsd>  (10) 
6.568619925525878

>  <m_score__min__rmsd>  (10) 
6.568619925525878

>  <meeko>  (10) 
{"free_energy": -7.84, "intermolecular_energy": -10.23, "internal_energy": -2.33, "cluster_size": 24, "cluster_id": 1, "rank_in_cluster": 14}

>  <energy>  (10) 
-7.95

>  <cluster_rmsd>  (10) 
1.95

>  <cluster>  (10) 
1

$$$$

     RDKit          3D

 64 67  0  0  0  0  0  0  0  0999 V2000
  142.6000   79.3080  217.9560 C   0  0  0  0  0  0  0  0  0  0  0  0
  141.5110   79.9260  218.8090 C   0  0  0  0  0  0  0  0  0  0  0  0
  140.5020   78.8690  219.1720 C   0  0  0  0  0  0  0  0  0  0  0  0
  139.6150   78.6520  218.3070 O   0  0  0  0  0  0  0  0  0  0  0  0
  140.5860   78.1950  220.4120 N   0  0  0  0  0  0  0  0  0  0  0  0
  140.9680   78.9390  221.5810 C   0  0  0  0  0  0  0  0  0  0  0  0
  139.9700   79.5560  222.3200 C   0  0  0  0  0  0  0  0  0  0  0  0
  140.3050   80.2810  223.4530 C   0  0  0  0  0  0  0  0  0  0  0  0
  141.6270   80.3830  223.8400 C   0  0  0  0  0  0  0  0  0  0  0  0
  142.6280   79.7590  223.0940 C   0  0  0  0  0  0  0  0  0  0  0  0
  142.3010   79.0350  221.9620 C   0  0  0  0  0  0  0  0  0  0  0  0
  140.2840   76.7770  220.4610 C   0  0  0  0  0  0  0  0  0  0  0  0
  138.9250   76.5470  221.0010 C   0  0  0  0  0  0  0  0  0  0  0  0
  138.7960   75.6350  222.1670 C   0  0  0  0  0  0  0  0  0  0  0  0
  139.6470   74.4900  221.9060 N   0  0  0  0  0  0  0  0  0  0  0  0
  139.1150   73.1810  221.9560 C   0  0  0  0  0  0  0  0  0  0  0  0
  137.9060   72.9950  222.2240 O   0  0  0  0  0  0  0  0  0  0  0  0
  139.9510   71.9840  221.6960 C   0  0  0  0  0  0  0  0  0  0  0  0
  139.3090   70.7420  222.3230 C   0  0  2  0  0  0  0  0  0  0  0  0
  137.9370   70.6270  221.8370 N   0  0  0  0  0  0  0  0  0  0  0  0
  139.3400   70.9470  223.8170 C   0  0  0  0  0  0  0  0  0  0  0  0
  140.6900   71.5210  224.1910 C   0  0  0  0  0  0  0  0  0  0  0  0
  140.6760   71.2530  225.6730 C   0  0  0  0  0  0  0  0  0  0  0  0
  141.2850   71.8950  226.7510 C   0  0  0  0  0  0  0  0  0  0  0  0
  141.0820   71.4100  228.0260 C   0  0  0  0  0  0  0  0  0  0  0  0
  140.2860   70.3000  228.2530 C   0  0  0  0  0  0  0  0  0  0  0  0
  139.6810   69.6600  227.1970 C   0  0  0  0  0  0  0  0  0  0  0  0
  139.8730   70.1330  225.9120 C   0  0  0  0  0  0  0  0  0  0  0  0
  139.3530   69.6530  224.5820 C   0  0  0  0  0  0  0  0  0  0  0  0
  141.0520   74.6530  221.5930 C   0  0  0  0  0  0  0  0  0  0  0  0
  141.3930   76.0300  221.1180 C   0  0  0  0  0  0  0  0  0  0  0  0
  143.3714   78.8703  218.6067 H   0  0  0  0  0  0  0  0  0  0  0  0
  142.1664   78.5214  217.3210 H   0  0  0  0  0  0  0  0  0  0  0  0
  143.0529   80.0837  217.3210 H   0  0  0  0  0  0  0  0  0  0  0  0
  141.9541   80.3412  219.7262 H   0  0  0  0  0  0  0  0  0  0  0  0
  141.0150   80.7308  218.2466 H   0  0  0  0  0  0  0  0  0  0  0  0
  138.9184   79.4706  222.0089 H   0  0  0  0  0  0  0  0  0  0  0  0
  139.5189   80.7745  224.0433 H   0  0  0  0  0  0  0  0  0  0  0  0
  141.8918   80.9582  224.7395 H   0  0  0  0  0  0  0  0  0  0  0  0
  143.6791   79.8432  223.4071 H   0  0  0  0  0  0  0  0  0  0  0  0
  143.0862   78.5413  221.3706 H   0  0  0  0  0  0  0  0  0  0  0  0
  140.2386   76.3553  219.4460 H   0  0  0  0  0  0  0  0  0  0  0  0
  138.5196   77.5246  221.3008 H   0  0  0  0  0  0  0  0  0  0  0  0
  138.3821   76.0420  220.1885 H   0  0  0  0  0  0  0  0  0  0  0  0
  139.1220   76.1466  223.0846 H   0  0  0  0  0  0  0  0  0  0  0  0
  137.7506   75.3231  222.3076 H   0  0  0  0  0  0  0  0  0  0  0  0
  140.0446   71.8354  220.6101 H   0  0  0  0  0  0  0  0  0  0  0  0
  140.9448   72.1374  222.1418 H   0  0  0  0  0  0  0  0  0  0  0  0
  139.8422   69.8170  222.0581 H   0  0  0  0  0  0  0  0  0  0  0  0
  137.2580   70.9100  222.5620 H   0  0  0  0  0  0  0  0  0  0  0  0
  137.8350   71.1940  220.9560 H   0  0  0  0  0  0  0  0  0  0  0  0
  138.4603   71.5644  224.0515 H   0  0  0  0  0  0  0  0  0  0  0  0
  141.5134   70.9937  223.6870 H   0  0  0  0  0  0  0  0  0  0  0  0
  140.8448   72.5727  223.9081 H   0  0  0  0  0  0  0  0  0  0  0  0
  141.9199   72.7780  226.5862 H   0  0  0  0  0  0  0  0  0  0  0  0
  141.5612   71.9142  228.8782 H   0  0  0  0  0  0  0  0  0  0  0  0
  140.1376   69.9301  229.2783 H   0  0  0  0  0  0  0  0  0  0  0  0
  139.0484   68.7775  227.3734 H   0  0  0  0  0  0  0  0  0  0  0  0
  140.0279   68.9155  224.1231 H   0  0  0  0  0  0  0  0  0  0  0  0
  138.3841   69.1340  224.6261 H   0  0  0  0  0  0  0  0  0  0  0  0
  141.6391   74.4399  222.4985 H   0  0  0  0  0  0  0  0  0  0  0  0
  141.2880   73.9567  220.7748 H   0  0  0  0  0  0  0  0  0  0  0  0
  141.7266   76.6151  221.9877 H   0  0  0  0  0  0  0  0  0  0  0  0
  142.1664   75.8995  220.3468 H   0  0  0  0  0  0  0  0  0  0  0  0
  1  2  1  0
  2  3  1  0
  3  4  2  0
  3  5  1  0
  5  6  1  0
  6  7  2  0
  7  8  1  0
  8  9  2  0
  9 10  1  0
 10 11  2  0
  5 12  1  0
 12 13  1  0
 13 14  1  0
 14 15  1  0
 15 16  1  0
 16 17  2  0
 16 18  1  0
 18 19  1  0
 19 20  1  0
 19 21  1  0
 21 22  1  0
 22 23  1  0
 23 24  2  0
 24 25  1  0
 25 26  2  0
 26 27  1  0
 27 28  2  0
 28 29  1  0
 15 30  1  0
 30 31  1  0
 11  6  1  0
 31 12  1  0
 29 21  1  0
 28 23  1  0
  1 32  1  0
  1 33  1  0
  1 34  1  0
  2 35  1  0
  2 36  1  0
  7 37  1  0
  8 38  1  0
  9 39  1  0
 10 40  1  0
 11 41  1  0
 12 42  1  0
 13 43  1  0
 13 44  1  0
 14 45  1  0
 14 46  1  0
 18 47  1  0
 18 48  1  0
 19 49  1  1
 20 50  1  0
 20 51  1  0
 21 52  1  0
 22 53  1  0
 22 54  1  0
 24 55  1  0
 25 56  1  0
 26 57  1  0
 27 58  1  0
 29 59  1  0
 29 60  1  0
 30 61  1  0
 30 62  1  0
 31 63  1  0
 31 64  1  0
M  END
>  <smiles>  (11) 
CCC(=O)N(c1ccccc1)C1CCN(C(=O)CC(N)C2Cc3ccccc3C2)CC1

>  <score_type>  (11) 
oracle

>  <origin>  (11) 
autodockgpu

>  <m_score__min__energy>  (11) 
-8.4100000000000001

>  <m_primary>  (11) 
energy

>  <rmsd>  (11) 
6.507137644415462

>  <m_score__min__rmsd>  (11) 
6.507137644415462

>  <meeko>  (11) 
{"free_energy": -7.64, "intermolecular_energy": -10.02, "internal_energy": -2.35, "cluster_size": 24, "cluster_id": 1, "rank_in_cluster": 17}

>  <energy>  (11) 
-7.92

>  <cluster_rmsd>  (11) 
1.83

>  <cluster>  (11) 
1

$$$$

     RDKit          3D

 64 67  0  0  0  0  0  0  0  0999 V2000
  142.6030   78.1780  218.3160 C   0  0  0  0  0  0  0  0  0  0  0  0
  141.1510   78.5090  218.0370 C   0  0  0  0  0  0  0  0  0  0  0  0
  140.4710   78.8930  219.3250 C   0  0  0  0  0  0  0  0  0  0  0  0
  139.7090   79.8910  219.2530 O   0  0  0  0  0  0  0  0  0  0  0  0
  140.7070   78.1540  220.5050 N   0  0  0  0  0  0  0  0  0  0  0  0
  141.2850   78.8220  221.6390 C   0  0  0  0  0  0  0  0  0  0  0  0
  140.9120   78.4030  222.9070 C   0  0  0  0  0  0  0  0  0  0  0  0
  141.4500   79.0270  224.0220 C   0  0  0  0  0  0  0  0  0  0  0  0
  142.3540   80.0600  223.8640 C   0  0  0  0  0  0  0  0  0  0  0  0
  142.7260   80.4780  222.5860 C   0  0  0  0  0  0  0  0  0  0  0  0
  142.1930   79.8610  221.4690 C   0  0  0  0  0  0  0  0  0  0  0  0
  140.3580   76.7460  220.5330 C   0  0  0  0  0  0  0  0  0  0  0  0
  138.9830   76.5550  221.0470 C   0  0  0  0  0  0  0  0  0  0  0  0
  138.8030   75.6340  222.1990 C   0  0  0  0  0  0  0  0  0  0  0  0
  139.6210   74.4650  221.9390 N   0  0  0  0  0  0  0  0  0  0  0  0
  139.0450   73.1730  221.9630 C   0  0  0  0  0  0  0  0  0  0  0  0
  137.8260   73.0250  222.2090 O   0  0  0  0  0  0  0  0  0  0  0  0
  139.8460   71.9530  221.7030 C   0  0  0  0  0  0  0  0  0  0  0  0
  139.2040   70.7420  222.3870 C   0  0  2  0  0  0  0  0  0  0  0  0
  137.8210   70.6250  221.9330 N   0  0  0  0  0  0  0  0  0  0  0  0
  139.2680   70.9980  223.8720 C   0  0  0  0  0  0  0  0  0  0  0  0
  140.6520   71.5120  224.2060 C   0  0  0  0  0  0  0  0  0  0  0  0
  140.6460   71.2990  225.6980 C   0  0  0  0  0  0  0  0  0  0  0  0
  141.3040   71.9470  226.7430 C   0  0  0  0  0  0  0  0  0  0  0  0
  141.0950   71.5200  228.0380 C   0  0  0  0  0  0  0  0  0  0  0  0
  140.2440   70.4630  228.3160 C   0  0  0  0  0  0  0  0  0  0  0  0
  139.5900   69.8190  227.2930 C   0  0  0  0  0  0  0  0  0  0  0  0
  139.7880   70.2330  225.9880 C   0  0  0  0  0  0  0  0  0  0  0  0
  139.2230   69.7340  224.6840 C   0  0  0  0  0  0  0  0  0  0  0  0
  141.0350   74.5850  221.6520 C   0  0  0  0  0  0  0  0  0  0  0  0
  141.4310   75.9550  221.2000 C   0  0  0  0  0  0  0  0  0  0  0  0
  142.7682   78.1403  219.4029 H   0  0  0  0  0  0  0  0  0  0  0  0
  142.8479   77.2010  217.8738 H   0  0  0  0  0  0  0  0  0  0  0  0
  143.2471   78.9524  217.8738 H   0  0  0  0  0  0  0  0  0  0  0  0
  141.0952   79.3480  217.3278 H   0  0  0  0  0  0  0  0  0  0  0  0
  140.6499   77.6309  217.6036 H   0  0  0  0  0  0  0  0  0  0  0  0
  140.1927   77.5795  223.0277 H   0  0  0  0  0  0  0  0  0  0  0  0
  141.1577   78.7003  225.0309 H   0  0  0  0  0  0  0  0  0  0  0  0
  142.7817   80.5544  224.7487 H   0  0  0  0  0  0  0  0  0  0  0  0
  143.4458   81.3012  222.4664 H   0  0  0  0  0  0  0  0  0  0  0  0
  142.4835   80.1879  220.4597 H   0  0  0  0  0  0  0  0  0  0  0  0
  140.3165   76.3371  219.5127 H   0  0  0  0  0  0  0  0  0  0  0  0
  138.6052   77.5420  221.3521 H   0  0  0  0  0  0  0  0  0  0  0  0
  138.4381   76.0780  220.2190 H   0  0  0  0  0  0  0  0  0  0  0  0
  139.1285   76.1237  223.1286 H   0  0  0  0  0  0  0  0  0  0  0  0
  137.7456   75.3549  222.3170 H   0  0  0  0  0  0  0  0  0  0  0  0
  139.8942   71.7744  220.6187 H   0  0  0  0  0  0  0  0  0  0  0  0
  140.8595   72.0968  222.1058 H   0  0  0  0  0  0  0  0  0  0  0  0
  139.7222   69.8025  222.1445 H   0  0  0  0  0  0  0  0  0  0  0  0
  137.1610   70.9590  222.6540 H   0  0  0  0  0  0  0  0  0  0  0  0
  137.7120   71.1450  221.0240 H   0  0  0  0  0  0  0  0  0  0  0  0
  138.4258   71.6693  224.0957 H   0  0  0  0  0  0  0  0  0  0  0  0
  141.4384   70.9233  223.7110 H   0  0  0  0  0  0  0  0  0  0  0  0
  140.8583   72.5428  223.8820 H   0  0  0  0  0  0  0  0  0  0  0  0
  141.9817   72.7887  226.5371 H   0  0  0  0  0  0  0  0  0  0  0  0
  141.6134   72.0280  228.8646 H   0  0  0  0  0  0  0  0  0  0  0  0
  140.0916   70.1389  229.3560 H   0  0  0  0  0  0  0  0  0  0  0  0
  138.9133   68.9795  227.5106 H   0  0  0  0  0  0  0  0  0  0  0  0
  139.8503   68.9448  224.2439 H   0  0  0  0  0  0  0  0  0  0  0  0
  138.2285   69.2702  224.7600 H   0  0  0  0  0  0  0  0  0  0  0  0
  141.5988   74.3415  222.5646 H   0  0  0  0  0  0  0  0  0  0  0  0
  141.2612   73.8913  220.8288 H   0  0  0  0  0  0  0  0  0  0  0  0
  141.7687   76.5185  222.0823 H   0  0  0  0  0  0  0  0  0  0  0  0
  142.2138   75.8081  220.4413 H   0  0  0  0  0  0  0  0  0  0  0  0
  1  2  1  0
  2  3  1  0
  3  4  2  0
  3  5  1  0
  5  6  1  0
  6  7  2  0
  7  8  1  0
  8  9  2  0
  9 10  1  0
 10 11  2  0
  5 12  1  0
 12 13  1  0
 13 14  1  0
 14 15  1  0
 15 16  1  0
 16 17  2  0
 16 18  1  0
 18 19  1  0
 19 20  1  0
 19 21  1  0
 21 22  1  0
 22 23  1  0
 23 24  2  0
 24 25  1  0
 25 26  2  0
 26 27  1  0
 27 28  2  0
 28 29  1  0
 15 30  1  0
 30 31  1  0
 11  6  1  0
 31 12  1  0
 29 21  1  0
 28 23  1  0
  1 32  1  0
  1 33  1  0
  1 34  1  0
  2 35  1  0
  2 36  1  0
  7 37  1  0
  8 38  1  0
  9 39  1  0
 10 40  1  0
 11 41  1  0
 12 42  1  0
 13 43  1  0
 13 44  1  0
 14 45  1  0
 14 46  1  0
 18 47  1  0
 18 48  1  0
 19 49  1  1
 20 50  1  0
 20 51  1  0
 21 52  1  0
 22 53  1  0
 22 54  1  0
 24 55  1  0
 25 56  1  0
 26 57  1  0
 27 58  1  0
 29 59  1  0
 29 60  1  0
 30 61  1  0
 30 62  1  0
 31 63  1  0
 31 64  1  0
M  END
>  <smiles>  (12) 
CCC(=O)N(c1ccccc1)C1CCN(C(=O)CC(N)C2Cc3ccccc3C2)CC1

>  <score_type>  (12) 
oracle

>  <origin>  (12) 
autodockgpu

>  <m_score__min__energy>  (12) 
-8.4100000000000001

>  <m_primary>  (12) 
energy

>  <rmsd>  (12) 
6.534492928133935

>  <m_score__min__rmsd>  (12) 
6.534492928133935

>  <meeko>  (12) 
{"free_energy": -7.88, "intermolecular_energy": -10.27, "internal_energy": -2.32, "cluster_size": 24, "cluster_id": 1, "rank_in_cluster": 13}

>  <energy>  (12) 
-7.9

>  <cluster_rmsd>  (12) 
1.77

>  <cluster>  (12) 
1

$$$$

     RDKit          3D

 64 67  0  0  0  0  0  0  0  0999 V2000
  142.5670   80.1750  218.0120 C   0  0  0  0  0  0  0  0  0  0  0  0
  142.2030   78.7330  218.3020 C   0  0  0  0  0  0  0  0  0  0  0  0
  140.9590   78.6940  219.1510 C   0  0  0  0  0  0  0  0  0  0  0  0
  139.9590   79.2830  218.6660 O   0  0  0  0  0  0  0  0  0  0  0  0
  140.9660   78.0310  220.3980 N   0  0  0  0  0  0  0  0  0  0  0  0
  141.4100   78.7470  221.5630 C   0  0  0  0  0  0  0  0  0  0  0  0
  141.0700   78.2460  222.8100 C   0  0  0  0  0  0  0  0  0  0  0  0
  141.4830   78.9130  223.9530 C   0  0  0  0  0  0  0  0  0  0  0  0
  142.2310   80.0700  223.8430 C   0  0  0  0  0  0  0  0  0  0  0  0
  142.5700   80.5700  222.5860 C   0  0  0  0  0  0  0  0  0  0  0  0
  142.1610   79.9100  221.4420 C   0  0  0  0  0  0  0  0  0  0  0  0
  140.5230   76.6500  220.4610 C   0  0  0  0  0  0  0  0  0  0  0  0
  139.1590   76.5600  221.0280 C   0  0  0  0  0  0  0  0  0  0  0  0
  138.9610   75.6700  222.2010 C   0  0  0  0  0  0  0  0  0  0  0  0
  139.6870   74.4440  221.9300 N   0  0  0  0  0  0  0  0  0  0  0  0
  139.0270   73.1950  221.9960 C   0  0  0  0  0  0  0  0  0  0  0  0
  137.8110   73.1340  222.2890 O   0  0  0  0  0  0  0  0  0  0  0  0
  139.7330   71.9200  221.7270 C   0  0  0  0  0  0  0  0  0  0  0  0
  139.0140   70.7590  222.4210 C   0  0  2  0  0  0  0  0  0  0  0  0
  137.6150   70.7530  222.0000 N   0  0  0  0  0  0  0  0  0  0  0  0
  139.1320   71.0010  223.9050 C   0  0  0  0  0  0  0  0  0  0  0  0
  140.5260   71.5180  224.1920 C   0  0  0  0  0  0  0  0  0  0  0  0
  140.5760   71.2910  225.6810 C   0  0  0  0  0  0  0  0  0  0  0  0
  141.2700   71.9310  226.7070 C   0  0  0  0  0  0  0  0  0  0  0  0
  141.1110   71.4900  228.0050 C   0  0  0  0  0  0  0  0  0  0  0  0
  140.2770   70.4260  228.3040 C   0  0  0  0  0  0  0  0  0  0  0  0
  139.5870   69.7890  227.2990 C   0  0  0  0  0  0  0  0  0  0  0  0
  139.7340   70.2170  225.9920 C   0  0  0  0  0  0  0  0  0  0  0  0
  139.1240   69.7290  224.7050 C   0  0  0  0  0  0  0  0  0  0  0  0
  141.0950   74.4640  221.5890 C   0  0  0  0  0  0  0  0  0  0  0  0
  141.5650   75.7980  221.1010 C   0  0  0  0  0  0  0  0  0  0  0  0
  142.7037   80.7164  218.9597 H   0  0  0  0  0  0  0  0  0  0  0  0
  143.5016   80.2079  217.4329 H   0  0  0  0  0  0  0  0  0  0  0  0
  141.7600   80.6475  217.4329 H   0  0  0  0  0  0  0  0  0  0  0  0
  142.0187   78.2032  217.3558 H   0  0  0  0  0  0  0  0  0  0  0  0
  143.0303   78.2451  218.8382 H   0  0  0  0  0  0  0  0  0  0  0  0
  140.4756   77.3241  222.8922 H   0  0  0  0  0  0  0  0  0  0  0  0
  141.2158   78.5220  224.9459 H   0  0  0  0  0  0  0  0  0  0  0  0
  142.5601   80.5983  224.7500 H   0  0  0  0  0  0  0  0  0  0  0  0
  143.1644   81.4920  222.5045 H   0  0  0  0  0  0  0  0  0  0  0  0
  142.4267   80.3006  220.4486 H   0  0  0  0  0  0  0  0  0  0  0  0
  140.4144   76.2308  219.4498 H   0  0  0  0  0  0  0  0  0  0  0  0
  138.8602   77.5746  221.3301 H   0  0  0  0  0  0  0  0  0  0  0  0
  138.5525   76.1091  220.2287 H   0  0  0  0  0  0  0  0  0  0  0  0
  139.3546   76.1492  223.1096 H   0  0  0  0  0  0  0  0  0  0  0  0
  137.8923   75.4659  222.3631 H   0  0  0  0  0  0  0  0  0  0  0  0
  139.7534   71.7381  220.6423 H   0  0  0  0  0  0  0  0  0  0  0  0
  140.7595   71.9897  222.1162 H   0  0  0  0  0  0  0  0  0  0  0  0
  139.4514   69.7835  222.1620 H   0  0  0  0  0  0  0  0  0  0  0  0
  137.0000   71.1270  222.7400 H   0  0  0  0  0  0  0  0  0  0  0  0
  137.5260   71.2920  221.0990 H   0  0  0  0  0  0  0  0  0  0  0  0
  138.2957   71.6659  224.1668 H   0  0  0  0  0  0  0  0  0  0  0  0
  141.2958   70.9373  223.6626 H   0  0  0  0  0  0  0  0  0  0  0  0
  140.7163   72.5525  223.8702 H   0  0  0  0  0  0  0  0  0  0  0  0
  141.9364   72.7774  226.4845 H   0  0  0  0  0  0  0  0  0  0  0  0
  141.6568   71.9930  228.8169 H   0  0  0  0  0  0  0  0  0  0  0  0
  140.1662   70.0900  229.3456 H   0  0  0  0  0  0  0  0  0  0  0  0
  138.9224   68.9444  227.5333 H   0  0  0  0  0  0  0  0  0  0  0  0
  139.7386   68.9479  224.2337 H   0  0  0  0  0  0  0  0  0  0  0  0
  138.1353   69.2592  224.8131 H   0  0  0  0  0  0  0  0  0  0  0  0
  141.6752   74.1950  222.4840 H   0  0  0  0  0  0  0  0  0  0  0  0
  141.2427   73.7457  220.7691 H   0  0  0  0  0  0  0  0  0  0  0  0
  141.9724   76.3494  221.9612 H   0  0  0  0  0  0  0  0  0  0  0  0
  142.3076   75.5886  220.3170 H   0  0  0  0  0  0  0  0  0  0  0  0
  1  2  1  0
  2  3  1  0
  3  4  2  0
  3  5  1  0
  5  6  1  0
  6  7  2  0
  7  8  1  0
  8  9  2  0
  9 10  1  0
 10 11  2  0
  5 12  1  0
 12 13  1  0
 13 14  1  0
 14 15  1  0
 15 16  1  0
 16 17  2  0
 16 18  1  0
 18 19  1  0
 19 20  1  0
 19 21  1  0
 21 22  1  0
 22 23  1  0
 23 24  2  0
 24 25  1  0
 25 26  2  0
 26 27  1  0
 27 28  2  0
 28 29  1  0
 15 30  1  0
 30 31  1  0
 11  6  1  0
 31 12  1  0
 29 21  1  0
 28 23  1  0
  1 32  1  0
  1 33  1  0
  1 34  1  0
  2 35  1  0
  2 36  1  0
  7 37  1  0
  8 38  1  0
  9 39  1  0
 10 40  1  0
 11 41  1  0
 12 42  1  0
 13 43  1  0
 13 44  1  0
 14 45  1  0
 14 46  1  0
 18 47  1  0
 18 48  1  0
 19 49  1  1
 20 50  1  0
 20 51  1  0
 21 52  1  0
 22 53  1  0
 22 54  1  0
 24 55  1  0
 25 56  1  0
 26 57  1  0
 27 58  1  0
 29 59  1  0
 29 60  1  0
 30 61  1  0
 30 62  1  0
 31 63  1  0
 31 64  1  0
M  END
>  <smiles>  (13) 
CCC(=O)N(c1ccccc1)C1CCN(C(=O)CC(N)C2Cc3ccccc3C2)CC1

>  <score_type>  (13) 
oracle

>  <origin>  (13) 
autodockgpu

>  <m_score__min__energy>  (13) 
-8.4100000000000001

>  <m_primary>  (13) 
energy

>  <rmsd>  (13) 
6.567020358634067

>  <m_score__min__rmsd>  (13) 
6.567020358634067

>  <meeko>  (13) 
{"free_energy": -8.1, "intermolecular_energy": -10.48, "internal_energy": -2.16, "cluster_size": 24, "cluster_id": 1, "rank_in_cluster": 5}

>  <energy>  (13) 
-7.88

>  <cluster_rmsd>  (13) 
1.72

>  <cluster>  (13) 
1

$$$$

     RDKit          3D

 64 67  0  0  0  0  0  0  0  0999 V2000
  139.0790   67.5970  221.3800 C   0  0  0  0  0  0  0  0  0  0  0  0
  139.4170   68.9030  222.0710 C   0  0  0  0  0  0  0  0  0  0  0  0
  139.0660   68.7990  223.5320 C   0  0  0  0  0  0  0  0  0  0  0  0
  138.4660   67.7460  223.8670 O   0  0  0  0  0  0  0  0  0  0  0  0
  139.4090   69.8390  224.4250 N   0  0  0  0  0  0  0  0  0  0  0  0
  139.9570   69.4990  225.7100 C   0  0  0  0  0  0  0  0  0  0  0  0
  140.1740   68.1600  225.9960 C   0  0  0  0  0  0  0  0  0  0  0  0
  140.7020   67.7990  227.2270 C   0  0  0  0  0  0  0  0  0  0  0  0
  141.0080   68.7740  228.1570 C   0  0  0  0  0  0  0  0  0  0  0  0
  140.7880   70.1200  227.8640 C   0  0  0  0  0  0  0  0  0  0  0  0
  140.2610   70.4870  226.6390 C   0  0  0  0  0  0  0  0  0  0  0  0
  139.1960   71.2140  224.0140 C   0  0  0  0  0  0  0  0  0  0  0  0
  137.8960   71.3620  223.3210 C   0  0  0  0  0  0  0  0  0  0  0  0
  137.9060   71.9680  221.9650 C   0  0  0  0  0  0  0  0  0  0  0  0
  138.8030   73.1070  222.0160 N   0  0  0  0  0  0  0  0  0  0  0  0
  138.3550   74.3860  221.6120 C   0  0  0  0  0  0  0  0  0  0  0  0
  137.1810   74.5490  221.2050 O   0  0  0  0  0  0  0  0  0  0  0  0
  139.2400   75.5740  221.6480 C   0  0  0  0  0  0  0  0  0  0  0  0
  138.5580   76.7200  222.4020 C   0  0  2  0  0  0  0  0  0  0  0  0
  137.2610   76.9840  221.7830 N   0  0  0  0  0  0  0  0  0  0  0  0
  139.4680   77.9170  222.2840 C   0  0  0  0  0  0  0  0  0  0  0  0
  140.8600   77.5000  222.7100 C   0  0  0  0  0  0  0  0  0  0  0  0
  141.4740   78.8580  222.9270 C   0  0  0  0  0  0  0  0  0  0  0  0
  142.7860   79.3220  222.8360 C   0  0  0  0  0  0  0  0  0  0  0  0
  143.0500   80.6510  223.0980 C   0  0  0  0  0  0  0  0  0  0  0  0
  142.0370   81.5280  223.4470 C   0  0  0  0  0  0  0  0  0  0  0  0
  140.7410   81.0800  223.5380 C   0  0  0  0  0  0  0  0  0  0  0  0
  140.4570   79.7520  223.2800 C   0  0  0  0  0  0  0  0  0  0  0  0
  139.1620   78.9840  223.2990 C   0  0  0  0  0  0  0  0  0  0  0  0
  140.1690   72.9670  222.4770 C   0  0  0  0  0  0  0  0  0  0  0  0
  140.3930   71.7340  223.2930 C   0  0  0  0  0  0  0  0  0  0  0  0
  138.8788   66.8233  222.1359 H   0  0  0  0  0  0  0  0  0  0  0  0
  138.1870   67.7350  220.7513 H   0  0  0  0  0  0  0  0  0  0  0  0
  139.9260   67.2849  220.7513 H   0  0  0  0  0  0  0  0  0  0  0  0
  140.4928   69.1069  221.9652 H   0  0  0  0  0  0  0  0  0  0  0  0
  138.8437   69.7218  221.6118 H   0  0  0  0  0  0  0  0  0  0  0  0
  139.9290   67.3884  225.2513 H   0  0  0  0  0  0  0  0  0  0  0  0
  140.8767   66.7387  227.4622 H   0  0  0  0  0  0  0  0  0  0  0  0
  141.4270   68.4875  229.1329 H   0  0  0  0  0  0  0  0  0  0  0  0
  141.0342   70.8912  228.6088 H   0  0  0  0  0  0  0  0  0  0  0  0
  140.0848   71.5469  226.4032 H   0  0  0  0  0  0  0  0  0  0  0  0
  139.1019   71.8697  224.8922 H   0  0  0  0  0  0  0  0  0  0  0  0
  137.4552   70.3583  223.2299 H   0  0  0  0  0  0  0  0  0  0  0  0
  137.3278   72.0715  223.9405 H   0  0  0  0  0  0  0  0  0  0  0  0
  138.2662   71.2363  221.2269 H   0  0  0  0  0  0  0  0  0  0  0  0
  136.8939   72.2785  221.6663 H   0  0  0  0  0  0  0  0  0  0  0  0
  140.1791   75.3121  222.1575 H   0  0  0  0  0  0  0  0  0  0  0  0
  139.4489   75.8969  220.6174 H   0  0  0  0  0  0  0  0  0  0  0  0
  138.3865   76.4789  223.4614 H   0  0  0  0  0  0  0  0  0  0  0  0
  137.2840   76.7890  220.7700 H   0  0  0  0  0  0  0  0  0  0  0  0
  136.5230   76.4200  222.2800 H   0  0  0  0  0  0  0  0  0  0  0  0
  139.3556   78.2763  221.2504 H   0  0  0  0  0  0  0  0  0  0  0  0
  140.8445   76.9047  223.6349 H   0  0  0  0  0  0  0  0  0  0  0  0
  141.3933   76.8549  221.9963 H   0  0  0  0  0  0  0  0  0  0  0  0
  143.6007   78.6369  222.5587 H   0  0  0  0  0  0  0  0  0  0  0  0
  144.0838   81.0202  223.0283 H   0  0  0  0  0  0  0  0  0  0  0  0
  142.2696   82.5835  223.6515 H   0  0  0  0  0  0  0  0  0  0  0  0
  139.9340   81.7744  223.8146 H   0  0  0  0  0  0  0  0  0  0  0  0
  138.9575   78.5553  224.2912 H   0  0  0  0  0  0  0  0  0  0  0  0
  138.2669   79.5848  223.0802 H   0  0  0  0  0  0  0  0  0  0  0  0
  140.8318   72.9307  221.5999 H   0  0  0  0  0  0  0  0  0  0  0  0
  140.3854   73.8302  223.1236 H   0  0  0  0  0  0  0  0  0  0  0  0
  140.7528   70.9426  222.6191 H   0  0  0  0  0  0  0  0  0  0  0  0
  141.1159   72.0157  224.0728 H   0  0  0  0  0  0  0  0  0  0  0  0
  1  2  1  0
  2  3  1  0
  3  4  2  0
  3  5  1  0
  5  6  1  0
  6  7  2  0
  7  8  1  0
  8  9  2  0
  9 10  1  0
 10 11  2  0
  5 12  1  0
 12 13  1  0
 13 14  1  0
 14 15  1  0
 15 16  1  0
 16 17  2  0
 16 18  1  0
 18 19  1  0
 19 20  1  0
 19 21  1  0
 21 22  1  0
 22 23  1  0
 23 24  2  0
 24 25  1  0
 25 26  2  0
 26 27  1  0
 27 28  2  0
 28 29  1  0
 15 30  1  0
 30 31  1  0
 11  6  1  0
 31 12  1  0
 29 21  1  0
 28 23  1  0
  1 32  1  0
  1 33  1  0
  1 34  1  0
  2 35  1  0
  2 36  1  0
  7 37  1  0
  8 38  1  0
  9 39  1  0
 10 40  1  0
 11 41  1  0
 12 42  1  0
 13 43  1  0
 13 44  1  0
 14 45  1  0
 14 46  1  0
 18 47  1  0
 18 48  1  0
 19 49  1  1
 20 50  1  0
 20 51  1  0
 21 52  1  0
 22 53  1  0
 22 54  1  0
 24 55  1  0
 25 56  1  0
 26 57  1  0
 27 58  1  0
 29 59  1  0
 29 60  1  0
 30 61  1  0
 30 62  1  0
 31 63  1  0
 31 64  1  0
M  END
>  <smiles>  (14) 
CCC(=O)N(c1ccccc1)C1CCN(C(=O)CC(N)C2Cc3ccccc3C2)CC1

>  <score_type>  (14) 
oracle

>  <origin>  (14) 
autodockgpu

>  <m_score__min__energy>  (14) 
-8.4100000000000001

>  <m_primary>  (14) 
energy

>  <rmsd>  (14) 
7.5181688908423165

>  <m_score__min__rmsd>  (14) 
7.5181688908423165

>  <meeko>  (14) 
{"free_energy": -8.01, "intermolecular_energy": -10.4, "internal_energy": -1.97, "cluster_size": 18, "cluster_id": 2, "rank_in_cluster": 8}

>  <energy>  (14) 
-7.84

>  <cluster_rmsd>  (14) 
1.73

>  <cluster>  (14) 
1

$$$$

     RDKit          3D

 64 67  0  0  0  0  0  0  0  0999 V2000
  139.1620   68.6950  221.4370 C   0  0  0  0  0  0  0  0  0  0  0  0
  138.7880   67.8700  222.6510 C   0  0  0  0  0  0  0  0  0  0  0  0
  138.0640   68.7430  223.6430 C   0  0  0  0  0  0  0  0  0  0  0  0
  136.8270   68.5370  223.7360 O   0  0  0  0  0  0  0  0  0  0  0  0
  138.7700   69.7110  224.3920 N   0  0  0  0  0  0  0  0  0  0  0  0
  139.5320   69.2860  225.5340 C   0  0  0  0  0  0  0  0  0  0  0  0
  139.9860   70.2550  226.4160 C   0  0  0  0  0  0  0  0  0  0  0  0
  140.7240   69.8780  227.5280 C   0  0  0  0  0  0  0  0  0  0  0  0
  141.0000   68.5420  227.7510 C   0  0  0  0  0  0  0  0  0  0  0  0
  140.5410   67.5720  226.8600 C   0  0  0  0  0  0  0  0  0  0  0  0
  139.8050   67.9400  225.7490 C   0  0  0  0  0  0  0  0  0  0  0  0
  138.7020   71.1010  223.9800 C   0  0  0  0  0  0  0  0  0  0  0  0
  137.4990   71.3470  223.1530 C   0  0  0  0  0  0  0  0  0  0  0  0
  137.7000   71.9620  221.8160 C   0  0  0  0  0  0  0  0  0  0  0  0
  138.6650   73.0320  221.9810 N   0  0  0  0  0  0  0  0  0  0  0  0
  138.3560   74.3430  221.5500 C   0  0  0  0  0  0  0  0  0  0  0  0
  137.2480   74.5940  221.0210 O   0  0  0  0  0  0  0  0  0  0  0  0
  139.3140   75.4640  221.7000 C   0  0  0  0  0  0  0  0  0  0  0  0
  138.6680   76.6120  222.4830 C   0  0  2  0  0  0  0  0  0  0  0  0
  137.3430   76.8730  221.9270 N   0  0  0  0  0  0  0  0  0  0  0  0
  139.5710   77.8090  222.3180 C   0  0  0  0  0  0  0  0  0  0  0  0
  140.9730   77.4070  222.7230 C   0  0  0  0  0  0  0  0  0  0  0  0
  141.5870   78.7720  222.8960 C   0  0  0  0  0  0  0  0  0  0  0  0
  142.8940   79.2380  222.7650 C   0  0  0  0  0  0  0  0  0  0  0  0
  143.1580   80.5740  222.9910 C   0  0  0  0  0  0  0  0  0  0  0  0
  142.1500   81.4550  223.3420 C   0  0  0  0  0  0  0  0  0  0  0  0
  140.8570   81.0050  223.4720 C   0  0  0  0  0  0  0  0  0  0  0  0
  140.5740   79.6700  223.2500 C   0  0  0  0  0  0  0  0  0  0  0  0
  139.2830   78.8970  223.3150 C   0  0  0  0  0  0  0  0  0  0  0  0
  139.9590   72.7910  222.5860 C   0  0  0  0  0  0  0  0  0  0  0  0
  140.0040   71.5380  223.4020 C   0  0  0  0  0  0  0  0  0  0  0  0
  139.5957   69.6518  221.7633 H   0  0  0  0  0  0  0  0  0  0  0  0
  139.8989   68.1453  220.8330 H   0  0  0  0  0  0  0  0  0  0  0  0
  138.2629   68.8870  220.8330 H   0  0  0  0  0  0  0  0  0  0  0  0
  138.1330   67.0412  222.3443 H   0  0  0  0  0  0  0  0  0  0  0  0
  139.6987   67.4629  223.1145 H   0  0  0  0  0  0  0  0  0  0  0  0
  139.7620   71.3166  226.2347 H   0  0  0  0  0  0  0  0  0  0  0  0
  141.0891   70.6409  228.2314 H   0  0  0  0  0  0  0  0  0  0  0  0
  141.5836   68.2428  228.6341 H   0  0  0  0  0  0  0  0  0  0  0  0
  140.7654   66.5106  227.0419 H   0  0  0  0  0  0  0  0  0  0  0  0
  139.4403   67.1779  225.0446 H   0  0  0  0  0  0  0  0  0  0  0  0
  138.5598   71.7565  224.8518 H   0  0  0  0  0  0  0  0  0  0  0  0
  137.0015   70.3781  222.9986 H   0  0  0  0  0  0  0  0  0  0  0  0
  136.9172   72.0898  223.7185 H   0  0  0  0  0  0  0  0  0  0  0  0
  138.0850   71.2120  221.1094 H   0  0  0  0  0  0  0  0  0  0  0  0
  136.7511   72.3481  221.4154 H   0  0  0  0  0  0  0  0  0  0  0  0
  140.2043   75.1110  222.2411 H   0  0  0  0  0  0  0  0  0  0  0  0
  139.6002   75.8271  220.7019 H   0  0  0  0  0  0  0  0  0  0  0  0
  138.5476   76.3742  223.5502 H   0  0  0  0  0  0  0  0  0  0  0  0
  137.3470   76.7930  220.8980 H   0  0  0  0  0  0  0  0  0  0  0  0
  136.6490   76.2190  222.3740 H   0  0  0  0  0  0  0  0  0  0  0  0
  139.4351   78.1441  221.2791 H   0  0  0  0  0  0  0  0  0  0  0  0
  140.9797   76.8328  223.6612 H   0  0  0  0  0  0  0  0  0  0  0  0
  141.4932   76.7478  222.0125 H   0  0  0  0  0  0  0  0  0  0  0  0
  143.7051   78.5497  222.4850 H   0  0  0  0  0  0  0  0  0  0  0  0
  144.1886   80.9452  222.8902 H   0  0  0  0  0  0  0  0  0  0  0  0
  142.3832   82.5157  223.5171 H   0  0  0  0  0  0  0  0  0  0  0  0
  140.0533   81.7025  223.7507 H   0  0  0  0  0  0  0  0  0  0  0  0
  139.1025   78.4900  224.3209 H   0  0  0  0  0  0  0  0  0  0  0  0
  138.3806   79.4891  223.1027 H   0  0  0  0  0  0  0  0  0  0  0  0
  140.7101   72.7144  221.7860 H   0  0  0  0  0  0  0  0  0  0  0  0
  140.1635   73.6313  223.2658 H   0  0  0  0  0  0  0  0  0  0  0  0
  140.3779   70.7280  222.7586 H   0  0  0  0  0  0  0  0  0  0  0  0
  140.6556   71.7600  224.2600 H   0  0  0  0  0  0  0  0  0  0  0  0
  1  2  1  0
  2  3  1  0
  3  4  2  0
  3  5  1  0
  5  6  1  0
  6  7  2  0
  7  8  1  0
  8  9  2  0
  9 10  1  0
 10 11  2  0
  5 12  1  0
 12 13  1  0
 13 14  1  0
 14 15  1  0
 15 16  1  0
 16 17  2  0
 16 18  1  0
 18 19  1  0
 19 20  1  0
 19 21  1  0
 21 22  1  0
 22 23  1  0
 23 24  2  0
 24 25  1  0
 25 26  2  0
 26 27  1  0
 27 28  2  0
 28 29  1  0
 15 30  1  0
 30 31  1  0
 11  6  1  0
 31 12  1  0
 29 21  1  0
 28 23  1  0
  1 32  1  0
  1 33  1  0
  1 34  1  0
  2 35  1  0
  2 36  1  0
  7 37  1  0
  8 38  1  0
  9 39  1  0
 10 40  1  0
 11 41  1  0
 12 42  1  0
 13 43  1  0
 13 44  1  0
 14 45  1  0
 14 46  1  0
 18 47  1  0
 18 48  1  0
 19 49  1  1
 20 50  1  0
 20 51  1  0
 21 52  1  0
 22 53  1  0
 22 54  1  0
 24 55  1  0
 25 56  1  0
 26 57  1  0
 27 58  1  0
 29 59  1  0
 29 60  1  0
 30 61  1  0
 30 62  1  0
 31 63  1  0
 31 64  1  0
M  END
>  <smiles>  (15) 
CCC(=O)N(c1ccccc1)C1CCN(C(=O)CC(N)C2Cc3ccccc3C2)CC1

>  <score_type>  (15) 
oracle

>  <origin>  (15) 
autodockgpu

>  <m_score__min__energy>  (15) 
-8.4100000000000001

>  <m_primary>  (15) 
energy

>  <rmsd>  (15) 
7.581347851460533

>  <m_score__min__rmsd>  (15) 
7.581347851460533

>  <meeko>  (15) 
{"free_energy": -7.78, "intermolecular_energy": -10.16, "internal_energy": -2.25, "cluster_size": 18, "cluster_id": 2, "rank_in_cluster": 17}

>  <energy>  (15) 
-7.8

>  <cluster_rmsd>  (15) 
1.79

>  <cluster>  (15) 
1

$$$$

     RDKit          3D

 64 67  0  0  0  0  0  0  0  0999 V2000
  142.9210   77.2370  217.2350 C   0  0  0  0  0  0  0  0  0  0  0  0
  142.4750   77.9980  218.4670 C   0  0  0  0  0  0  0  0  0  0  0  0
  142.5870   77.1040  219.6730 C   0  0  0  0  0  0  0  0  0  0  0  0
  143.6310   76.4050  219.7290 O   0  0  0  0  0  0  0  0  0  0  0  0
  141.5630   77.0850  220.6470 N   0  0  0  0  0  0  0  0  0  0  0  0
  141.5020   78.1500  221.6100 C   0  0  0  0  0  0  0  0  0  0  0  0
  141.5000   79.4560  221.1450 C   0  0  0  0  0  0  0  0  0  0  0  0
  141.4420   80.5060  222.0490 C   0  0  0  0  0  0  0  0  0  0  0  0
  141.3850   80.2450  223.4050 C   0  0  0  0  0  0  0  0  0  0  0  0
  141.3870   78.9280  223.8680 C   0  0  0  0  0  0  0  0  0  0  0  0
  141.4460   77.8770  222.9720 C   0  0  0  0  0  0  0  0  0  0  0  0
  140.6070   75.9930  220.6390 C   0  0  0  0  0  0  0  0  0  0  0  0
  139.2710   76.4590  221.0710 C   0  0  0  0  0  0  0  0  0  0  0  0
  138.6260   75.7420  222.2010 C   0  0  0  0  0  0  0  0  0  0  0  0
  138.8320   74.3240  221.9760 N   0  0  0  0  0  0  0  0  0  0  0  0
  137.7300   73.4390  221.9540 C   0  0  0  0  0  0  0  0  0  0  0  0
  136.5660   73.8680  222.1280 O   0  0  0  0  0  0  0  0  0  0  0  0
  137.8970   71.9830  221.7280 C   0  0  0  0  0  0  0  0  0  0  0  0
  137.2350   71.1910  222.8590 C   0  0  2  0  0  0  0  0  0  0  0  0
  136.6700   72.1310  223.8230 N   0  0  0  0  0  0  0  0  0  0  0  0
  138.3180   70.3530  223.4920 C   0  0  0  0  0  0  0  0  0  0  0  0
  137.6840   69.4780  224.5520 C   0  0  0  0  0  0  0  0  0  0  0  0
  138.9180   69.0710  225.3140 C   0  0  0  0  0  0  0  0  0  0  0  0
  139.2270   67.9390  226.0680 C   0  0  0  0  0  0  0  0  0  0  0  0
  140.4700   67.8430  226.6600 C   0  0  0  0  0  0  0  0  0  0  0  0
  141.4110   68.8480  226.5180 C   0  0  0  0  0  0  0  0  0  0  0  0
  141.1160   69.9680  225.7760 C   0  0  0  0  0  0  0  0  0  0  0  0
  139.8760   70.0810  225.1750 C   0  0  0  0  0  0  0  0  0  0  0  0
  139.2750   71.1650  224.3200 C   0  0  0  0  0  0  0  0  0  0  0  0
  140.1590   73.7800  221.7720 C   0  0  0  0  0  0  0  0  0  0  0  0
  141.1610   74.8110  221.3580 C   0  0  0  0  0  0  0  0  0  0  0  0
  143.4553   76.3253  217.5406 H   0  0  0  0  0  0  0  0  0  0  0  0
  142.0409   76.9625  216.6350 H   0  0  0  0  0  0  0  0  0  0  0  0
  143.5906   77.8707  216.6350 H   0  0  0  0  0  0  0  0  0  0  0  0
  143.1151   78.8819  218.6044 H   0  0  0  0  0  0  0  0  0  0  0  0
  141.4304   78.3194  218.3429 H   0  0  0  0  0  0  0  0  0  0  0  0
  141.5442   79.6583  220.0647 H   0  0  0  0  0  0  0  0  0  0  0  0
  141.4414   81.5449  221.6874 H   0  0  0  0  0  0  0  0  0  0  0  0
  141.3379   81.0779  224.1219 H   0  0  0  0  0  0  0  0  0  0  0  0
  141.3415   78.7261  224.9484 H   0  0  0  0  0  0  0  0  0  0  0  0
  141.4486   76.8376  223.3322 H   0  0  0  0  0  0  0  0  0  0  0  0
  140.4395   75.6324  219.6134 H   0  0  0  0  0  0  0  0  0  0  0  0
  139.3693   77.5147  221.3640 H   0  0  0  0  0  0  0  0  0  0  0  0
  138.6157   76.2687  220.2082 H   0  0  0  0  0  0  0  0  0  0  0  0
  139.0871   76.0444  223.1528 H   0  0  0  0  0  0  0  0  0  0  0  0
  137.5533   75.9792  222.2554 H   0  0  0  0  0  0  0  0  0  0  0  0
  137.4299   71.7083  220.7707 H   0  0  0  0  0  0  0  0  0  0  0  0
  138.9707   71.7450  221.7050 H   0  0  0  0  0  0  0  0  0  0  0  0
  136.4217   70.5458  222.4954 H   0  0  0  0  0  0  0  0  0  0  0  0
  137.2950   72.9400  223.9680 H   0  0  0  0  0  0  0  0  0  0  0  0
  135.7120   72.4240  223.4960 H   0  0  0  0  0  0  0  0  0  0  0  0
  138.8184   69.8354  222.6604 H   0  0  0  0  0  0  0  0  0  0  0  0
  136.9807   70.0421  225.1822 H   0  0  0  0  0  0  0  0  0  0  0  0
  137.0765   68.6452  224.1680 H   0  0  0  0  0  0  0  0  0  0  0  0
  138.4889   67.1325  226.1893 H   0  0  0  0  0  0  0  0  0  0  0  0
  140.7173   66.9517  227.2554 H   0  0  0  0  0  0  0  0  0  0  0  0
  142.3955   68.7510  226.9989 H   0  0  0  0  0  0  0  0  0  0  0  0
  141.8617   70.7685  225.6615 H   0  0  0  0  0  0  0  0  0  0  0  0
  138.7508   71.9183  224.9265 H   0  0  0  0  0  0  0  0  0  0  0  0
  140.0030   71.7515  223.7403 H   0  0  0  0  0  0  0  0  0  0  0  0
  140.4974   73.3215  222.7129 H   0  0  0  0  0  0  0  0  0  0  0  0
  140.0895   73.0454  220.9562 H   0  0  0  0  0  0  0  0  0  0  0  0
  141.6686   75.1731  222.2642 H   0  0  0  0  0  0  0  0  0  0  0  0
  141.8312   74.3104  220.6437 H   0  0  0  0  0  0  0  0  0  0  0  0
  1  2  1  0
  2  3  1  0
  3  4  2  0
  3  5  1  0
  5  6  1  0
  6  7  2  0
  7  8  1  0
  8  9  2  0
  9 10  1  0
 10 11  2  0
  5 12  1  0
 12 13  1  0
 13 14  1  0
 14 15  1  0
 15 16  1  0
 16 17  2  0
 16 18  1  0
 18 19  1  0
 19 20  1  0
 19 21  1  0
 21 22  1  0
 22 23  1  0
 23 24  2  0
 24 25  1  0
 25 26  2  0
 26 27  1  0
 27 28  2  0
 28 29  1  0
 15 30  1  0
 30 31  1  0
 11  6  1  0
 31 12  1  0
 29 21  1  0
 28 23  1  0
  1 32  1  0
  1 33  1  0
  1 34  1  0
  2 35  1  0
  2 36  1  0
  7 37  1  0
  8 38  1  0
  9 39  1  0
 10 40  1  0
 11 41  1  0
 12 42  1  0
 13 43  1  0
 13 44  1  0
 14 45  1  0
 14 46  1  0
 18 47  1  0
 18 48  1  0
 19 49  1  6
 20 50  1  0
 20 51  1  0
 21 52  1  0
 22 53  1  0
 22 54  1  0
 24 55  1  0
 25 56  1  0
 26 57  1  0
 27 58  1  0
 29 59  1  0
 29 60  1  0
 30 61  1  0
 30 62  1  0
 31 63  1  0
 31 64  1  0
M  END
>  <smiles>  (16) 
CCC(=O)N(c1ccccc1)C1CCN(C(=O)CC(N)C2Cc3ccccc3C2)CC1

>  <score_type>  (16) 
oracle

>  <origin>  (16) 
autodockgpu

>  <m_score__min__energy>  (16) 
-8.4100000000000001

>  <m_primary>  (16) 
energy

>  <rmsd>  (16) 
6.760690073401878

>  <m_score__min__rmsd>  (16) 
6.760690073401878

>  <meeko>  (16) 
{"free_energy": -7.8, "intermolecular_energy": -10.19, "internal_energy": -2.29, "cluster_size": 5, "cluster_id": 5, "rank_in_cluster": 2}

>  <energy>  (16) 
-7.7

>  <cluster_rmsd>  (16) 
1.9

>  <cluster>  (16) 
1

$$$$

     RDKit          3D

 64 67  0  0  0  0  0  0  0  0999 V2000
  142.6510   77.1960  218.8840 C   0  0  0  0  0  0  0  0  0  0  0  0
  141.9000   78.4670  219.2220 C   0  0  0  0  0  0  0  0  0  0  0  0
  140.6760   78.1230  220.0300 C   0  0  0  0  0  0  0  0  0  0  0  0
  139.6020   78.0630  219.3790 O   0  0  0  0  0  0  0  0  0  0  0  0
  140.7790   77.8940  221.4200 N   0  0  0  0  0  0  0  0  0  0  0  0
  141.2150   78.9670  222.2710 C   0  0  0  0  0  0  0  0  0  0  0  0
  140.2520   79.7940  222.8280 C   0  0  0  0  0  0  0  0  0  0  0  0
  140.6390   80.8390  223.6530 C   0  0  0  0  0  0  0  0  0  0  0  0
  141.9790   81.0490  223.9160 C   0  0  0  0  0  0  0  0  0  0  0  0
  142.9450   80.2140  223.3530 C   0  0  0  0  0  0  0  0  0  0  0  0
  142.5660   79.1700  222.5280 C   0  0  0  0  0  0  0  0  0  0  0  0
  140.4410   76.5820  221.9420 C   0  0  0  0  0  0  0  0  0  0  0  0
  141.4640   75.5830  221.5580 C   0  0  0  0  0  0  0  0  0  0  0  0
  140.9990   74.3620  220.8510 C   0  0  0  0  0  0  0  0  0  0  0  0
  139.8000   73.9090  221.5300 N   0  0  0  0  0  0  0  0  0  0  0  0
  139.7130   72.5820  222.0120 C   0  0  0  0  0  0  0  0  0  0  0  0
  140.6670   71.7850  221.8580 O   0  0  0  0  0  0  0  0  0  0  0  0
  138.5050   72.0800  222.7110 C   0  0  0  0  0  0  0  0  0  0  0  0
  138.5940   70.5620  222.8990 C   0  0  2  0  0  0  0  0  0  0  0  0
  137.3410   69.9590  222.4530 N   0  0  0  0  0  0  0  0  0  0  0  0
  138.8190   70.3210  224.3710 C   0  0  0  0  0  0  0  0  0  0  0  0
  140.0410   71.1050  224.8000 C   0  0  0  0  0  0  0  0  0  0  0  0
  140.3310   70.4220  226.1110 C   0  0  0  0  0  0  0  0  0  0  0  0
  140.9400   70.8610  227.2860 C   0  0  0  0  0  0  0  0  0  0  0  0
  141.0660   69.9880  228.3460 C   0  0  0  0  0  0  0  0  0  0  0  0
  140.5990   68.6870  228.2630 C   0  0  0  0  0  0  0  0  0  0  0  0
  139.9960   68.2450  227.1100 C   0  0  0  0  0  0  0  0  0  0  0  0
  139.8610   69.1060  226.0370 C   0  0  0  0  0  0  0  0  0  0  0  0
  139.2580   68.9140  224.6700 C   0  0  0  0  0  0  0  0  0  0  0  0
  138.6710   74.7930  221.7310 C   0  0  0  0  0  0  0  0  0  0  0  0
  139.0270   76.2410  221.6160 C   0  0  0  0  0  0  0  0  0  0  0  0
  142.9506   76.6890  219.8131 H   0  0  0  0  0  0  0  0  0  0  0  0
  142.0007   76.5310  218.2967 H   0  0  0  0  0  0  0  0  0  0  0  0
  143.5472   77.4448  218.2967 H   0  0  0  0  0  0  0  0  0  0  0  0
  142.5508   79.1337  219.8068 H   0  0  0  0  0  0  0  0  0  0  0  0
  141.5979   78.9741  218.2938 H   0  0  0  0  0  0  0  0  0  0  0  0
  139.1863   79.6221  222.6166 H   0  0  0  0  0  0  0  0  0  0  0  0
  139.8803   81.4999  224.0975 H   0  0  0  0  0  0  0  0  0  0  0  0
  142.2855   81.8774  224.5716 H   0  0  0  0  0  0  0  0  0  0  0  0
  144.0104   80.3863  223.5656 H   0  0  0  0  0  0  0  0  0  0  0  0
  143.3237   78.5093  222.0814 H   0  0  0  0  0  0  0  0  0  0  0  0
  140.4736   76.5819  223.0415 H   0  0  0  0  0  0  0  0  0  0  0  0
  142.1878   76.0882  220.9017 H   0  0  0  0  0  0  0  0  0  0  0  0
  141.8700   75.2166  222.5124 H   0  0  0  0  0  0  0  0  0  0  0  0
  140.7722   74.5970  219.8006 H   0  0  0  0  0  0  0  0  0  0  0  0
  141.7749   73.5823  220.8627 H   0  0  0  0  0  0  0  0  0  0  0  0
  138.4277   72.5640  223.6958 H   0  0  0  0  0  0  0  0  0  0  0  0
  137.6169   72.3149  222.1059 H   0  0  0  0  0  0  0  0  0  0  0  0
  139.4123   70.1160  222.3146 H   0  0  0  0  0  0  0  0  0  0  0  0
  137.4210   68.9320  222.3930 H   0  0  0  0  0  0  0  0  0  0  0  0
  136.5660   70.2600  223.1000 H   0  0  0  0  0  0  0  0  0  0  0  0
  137.8701   70.5787  224.8641 H   0  0  0  0  0  0  0  0  0  0  0  0
  140.8711   70.9927  224.0870 H   0  0  0  0  0  0  0  0  0  0  0  0
  139.8990   72.1940  224.8622 H   0  0  0  0  0  0  0  0  0  0  0  0
  141.3156   71.8918  227.3665 H   0  0  0  0  0  0  0  0  0  0  0  0
  141.5461   70.3313  229.2742 H   0  0  0  0  0  0  0  0  0  0  0  0
  140.7108   68.0070  229.1204 H   0  0  0  0  0  0  0  0  0  0  0  0
  139.6231   67.2124  227.0413 H   0  0  0  0  0  0  0  0  0  0  0  0
  140.0023   68.5566  223.9432 H   0  0  0  0  0  0  0  0  0  0  0  0
  138.4574   68.1613  224.6211 H   0  0  0  0  0  0  0  0  0  0  0  0
  137.9062   74.5602  220.9755 H   0  0  0  0  0  0  0  0  0  0  0  0
  138.3051   74.6273  222.7551 H   0  0  0  0  0  0  0  0  0  0  0  0
  138.8324   76.5566  220.5804 H   0  0  0  0  0  0  0  0  0  0  0  0
  138.4105   76.7637  222.3621 H   0  0  0  0  0  0  0  0  0  0  0  0
  1  2  1  0
  2  3  1  0
  3  4  2  0
  3  5  1  0
  5  6  1  0
  6  7  2  0
  7  8  1  0
  8  9  2  0
  9 10  1  0
 10 11  2  0
  5 12  1  0
 12 13  1  0
 13 14  1  0
 14 15  1  0
 15 16  1  0
 16 17  2  0
 16 18  1  0
 18 19  1  0
 19 20  1  0
 19 21  1  0
 21 22  1  0
 22 23  1  0
 23 24  2  0
 24 25  1  0
 25 26  2  0
 26 27  1  0
 27 28  2  0
 28 29  1  0
 15 30  1  0
 30 31  1  0
 11  6  1  0
 31 12  1  0
 29 21  1  0
 28 23  1  0
  1 32  1  0
  1 33  1  0
  1 34  1  0
  2 35  1  0
  2 36  1  0
  7 37  1  0
  8 38  1  0
  9 39  1  0
 10 40  1  0
 11 41  1  0
 12 42  1  0
 13 43  1  0
 13 44  1  0
 14 45  1  0
 14 46  1  0
 18 47  1  0
 18 48  1  0
 19 49  1  6
 20 50  1  0
 20 51  1  0
 21 52  1  0
 22 53  1  0
 22 54  1  0
 24 55  1  0
 25 56  1  0
 26 57  1  0
 27 58  1  0
 29 59  1  0
 29 60  1  0
 30 61  1  0
 30 62  1  0
 31 63  1  0
 31 64  1  0
M  END
>  <smiles>  (17) 
CCC(=O)N(c1ccccc1)C1CCN(C(=O)CC(N)C2Cc3ccccc3C2)CC1

>  <score_type>  (17) 
oracle

>  <origin>  (17) 
autodockgpu

>  <m_score__min__energy>  (17) 
-8.4100000000000001

>  <m_primary>  (17) 
energy

>  <rmsd>  (17) 
7.200102556173943

>  <m_score__min__rmsd>  (17) 
7.200102556173943

>  <meeko>  (17) 
{"free_energy": -8.24, "intermolecular_energy": -10.62, "internal_energy": -1.38, "cluster_size": 24, "cluster_id": 1, "rank_in_cluster": 3}

>  <energy>  (17) 
-7.64

>  <cluster_rmsd>  (17) 
1.9

>  <cluster>  (17) 
1

$$$$

     RDKit          3D

 64 67  0  0  0  0  0  0  0  0999 V2000
  146.2620   73.0690  221.6700 C   0  0  0  0  0  0  0  0  0  0  0  0
  145.7550   74.1410  220.7270 C   0  0  0  0  0  0  0  0  0  0  0  0
  144.9670   73.4950  219.6170 C   0  0  0  0  0  0  0  0  0  0  0  0
  145.5820   72.6140  218.9630 O   0  0  0  0  0  0  0  0  0  0  0  0
  143.6330   73.8880  219.3650 N   0  0  0  0  0  0  0  0  0  0  0  0
  143.3910   75.1440  218.7100 C   0  0  0  0  0  0  0  0  0  0  0  0
  143.5110   75.1970  217.3290 C   0  0  0  0  0  0  0  0  0  0  0  0
  143.2830   76.3930  216.6660 C   0  0  0  0  0  0  0  0  0  0  0  0
  142.9390   77.5230  217.3830 C   0  0  0  0  0  0  0  0  0  0  0  0
  142.8200   77.4650  218.7720 C   0  0  0  0  0  0  0  0  0  0  0  0
  143.0460   76.2750  219.4400 C   0  0  0  0  0  0  0  0  0  0  0  0
  142.5540   73.0090  219.7760 C   0  0  0  0  0  0  0  0  0  0  0  0
  141.2430   73.5550  219.3590 C   0  0  0  0  0  0  0  0  0  0  0  0
  140.2090   73.7350  220.4110 C   0  0  0  0  0  0  0  0  0  0  0  0
  140.2390   72.5460  221.2420 N   0  0  0  0  0  0  0  0  0  0  0  0
  139.0570   71.8010  221.4630 C   0  0  0  0  0  0  0  0  0  0  0  0
  137.9740   72.1590  220.9450 O   0  0  0  0  0  0  0  0  0  0  0  0
  139.0450   70.5820  222.3060 C   0  0  0  0  0  0  0  0  0  0  0  0
  137.8010   70.5680  223.2000 C   0  0  2  0  0  0  0  0  0  0  0  0
  137.2280   71.9110  223.2300 N   0  0  0  0  0  0  0  0  0  0  0  0
  138.2590   70.1420  224.5730 C   0  0  0  0  0  0  0  0  0  0  0  0
  139.4360   71.0070  224.9700 C   0  0  0  0  0  0  0  0  0  0  0  0
  139.9840   70.1810  226.1040 C   0  0  0  0  0  0  0  0  0  0  0  0
  140.7030   70.5170  227.2510 C   0  0  0  0  0  0  0  0  0  0  0  0
  141.0750   69.5200  228.1290 C   0  0  0  0  0  0  0  0  0  0  0  0
  140.7450   68.1960  227.8930 C   0  0  0  0  0  0  0  0  0  0  0  0
  140.0350   67.8550  226.7660 C   0  0  0  0  0  0  0  0  0  0  0  0
  139.6540   68.8410  225.8740 C   0  0  0  0  0  0  0  0  0  0  0  0
  138.8870   68.7770  224.5800 C   0  0  0  0  0  0  0  0  0  0  0  0
  141.4660   72.0950  221.8650 C   0  0  0  0  0  0  0  0  0  0  0  0
  142.6950   72.6500  221.2160 C   0  0  0  0  0  0  0  0  0  0  0  0
  146.1087   73.3931  222.7099 H   0  0  0  0  0  0  0  0  0  0  0  0
  145.7108   72.1338  221.4924 H   0  0  0  0  0  0  0  0  0  0  0  0
  147.3346   72.9018  221.4924 H   0  0  0  0  0  0  0  0  0  0  0  0
  145.1085   74.8396  221.2783 H   0  0  0  0  0  0  0  0  0  0  0  0
  146.6074   74.6914  220.3021 H   0  0  0  0  0  0  0  0  0  0  0  0
  143.7856   74.2947  216.7629 H   0  0  0  0  0  0  0  0  0  0  0  0
  143.3758   76.4423  215.5710 H   0  0  0  0  0  0  0  0  0  0  0  0
  142.7583   78.4719  216.8567 H   0  0  0  0  0  0  0  0  0  0  0  0
  142.5458   78.3679  219.3373 H   0  0  0  0  0  0  0  0  0  0  0  0
  142.9538   76.2246  220.5350 H   0  0  0  0  0  0  0  0  0  0  0  0
  142.6165   72.0453  219.2494 H   0  0  0  0  0  0  0  0  0  0  0  0
  141.4257   74.5399  218.9046 H   0  0  0  0  0  0  0  0  0  0  0  0
  140.8252   72.7950  218.6824 H   0  0  0  0  0  0  0  0  0  0  0  0
  140.4366   74.6249  221.0162 H   0  0  0  0  0  0  0  0  0  0  0  0
  139.2141   73.8768  219.9638 H   0  0  0  0  0  0  0  0  0  0  0  0
  139.0370   69.6928  221.6585 H   0  0  0  0  0  0  0  0  0  0  0  0
  139.9430   70.5765  222.9412 H   0  0  0  0  0  0  0  0  0  0  0  0
  137.0287   69.8778  222.8295 H   0  0  0  0  0  0  0  0  0  0  0  0
  137.9580   72.6310  223.1070 H   0  0  0  0  0  0  0  0  0  0  0  0
  136.4750   71.9800  222.4980 H   0  0  0  0  0  0  0  0  0  0  0  0
  137.3678   70.1966  225.2155 H   0  0  0  0  0  0  0  0  0  0  0  0
  140.1625   71.1116  224.1507 H   0  0  0  0  0  0  0  0  0  0  0  0
  139.1857   72.0466  225.2278 H   0  0  0  0  0  0  0  0  0  0  0  0
  140.9703   71.5647  227.4532 H   0  0  0  0  0  0  0  0  0  0  0  0
  141.6442   69.7816  229.0332 H   0  0  0  0  0  0  0  0  0  0  0  0
  141.0508   67.4172  228.6071 H   0  0  0  0  0  0  0  0  0  0  0  0
  139.7716   66.8043  226.5749 H   0  0  0  0  0  0  0  0  0  0  0  0
  139.5545   68.6316  223.7179 H   0  0  0  0  0  0  0  0  0  0  0  0
  138.1747   67.9419  224.5075 H   0  0  0  0  0  0  0  0  0  0  0  0
  141.4571   72.4057  222.9202 H   0  0  0  0  0  0  0  0  0  0  0  0
  141.5047   71.0010  221.7569 H   0  0  0  0  0  0  0  0  0  0  0  0
  142.9875   73.5576  221.7645 H   0  0  0  0  0  0  0  0  0  0  0  0
  143.4459   71.8471  221.2549 H   0  0  0  0  0  0  0  0  0  0  0  0
  1  2  1  0
  2  3  1  0
  3  4  2  0
  3  5  1  0
  5  6  1  0
  6  7  2  0
  7  8  1  0
  8  9  2  0
  9 10  1  0
 10 11  2  0
  5 12  1  0
 12 13  1  0
 13 14  1  0
 14 15  1  0
 15 16  1  0
 16 17  2  0
 16 18  1  0
 18 19  1  0
 19 20  1  0
 19 21  1  0
 21 22  1  0
 22 23  1  0
 23 24  2  0
 24 25  1  0
 25 26  2  0
 26 27  1  0
 27 28  2  0
 28 29  1  0
 15 30  1  0
 30 31  1  0
 11  6  1  0
 31 12  1  0
 29 21  1  0
 28 23  1  0
  1 32  1  0
  1 33  1  0
  1 34  1  0
  2 35  1  0
  2 36  1  0
  7 37  1  0
  8 38  1  0
  9 39  1  0
 10 40  1  0
 11 41  1  0
 12 42  1  0
 13 43  1  0
 13 44  1  0
 14 45  1  0
 14 46  1  0
 18 47  1  0
 18 48  1  0
 19 49  1  6
 20 50  1  0
 20 51  1  0
 21 52  1  0
 22 53  1  0
 22 54  1  0
 24 55  1  0
 25 56  1  0
 26 57  1  0
 27 58  1  0
 29 59  1  0
 29 60  1  0
 30 61  1  0
 30 62  1  0
 31 63  1  0
 31 64  1  0
M  END
>  <smiles>  (18) 
CCC(=O)N(c1ccccc1)C1CCN(C(=O)CC(N)C2Cc3ccccc3C2)CC1

>  <score_type>  (18) 
oracle

>  <origin>  (18) 
autodockgpu

>  <m_score__min__energy>  (18) 
-8.4100000000000001

>  <m_primary>  (18) 
energy

>  <rmsd>  (18) 
8.218550513296622

>  <m_score__min__rmsd>  (18) 
8.218550513296622

>  <meeko>  (18) 
{"free_energy": -7.82, "intermolecular_energy": -10.2, "internal_energy": -2.33, "cluster_size": 2, "cluster_id": 4, "rank_in_cluster": 1}

>  <energy>  (18) 
-7.62

>  <cluster_rmsd>  (18) 
1.93

>  <cluster>  (18) 
1

$$$$

     RDKit          3D

 64 67  0  0  0  0  0  0  0  0999 V2000
  138.7900   66.7620  222.6930 C   0  0  0  0  0  0  0  0  0  0  0  0
  138.7880   68.2440  222.3770 C   0  0  0  0  0  0  0  0  0  0  0  0
  138.1950   69.0000  223.5370 C   0  0  0  0  0  0  0  0  0  0  0  0
  137.0020   68.7130  223.8120 O   0  0  0  0  0  0  0  0  0  0  0  0
  138.9660   69.9560  224.2350 N   0  0  0  0  0  0  0  0  0  0  0  0
  139.5780   69.5800  225.4800 C   0  0  0  0  0  0  0  0  0  0  0  0
  140.1440   70.5770  226.2600 C   0  0  0  0  0  0  0  0  0  0  0  0
  140.7430   70.2470  227.4660 C   0  0  0  0  0  0  0  0  0  0  0  0
  140.7710   68.9300  227.8840 C   0  0  0  0  0  0  0  0  0  0  0  0
  140.2000   67.9310  227.0950 C   0  0  0  0  0  0  0  0  0  0  0  0
  139.6020   68.2520  225.8910 C   0  0  0  0  0  0  0  0  0  0  0  0
  139.1130   71.2850  223.6710 C   0  0  0  0  0  0  0  0  0  0  0  0
  138.0260   71.5710  222.7080 C   0  0  0  0  0  0  0  0  0  0  0  0
  138.4170   71.9920  221.3380 C   0  0  0  0  0  0  0  0  0  0  0  0
  139.4950   72.9520  221.4800 N   0  0  0  0  0  0  0  0  0  0  0  0
  139.3960   74.2290  220.8810 C   0  0  0  0  0  0  0  0  0  0  0  0
  138.3790   74.5450  220.2210 O   0  0  0  0  0  0  0  0  0  0  0  0
  140.4750   75.2380  221.0020 C   0  0  0  0  0  0  0  0  0  0  0  0
  140.3680   75.9710  222.3430 C   0  0  2  0  0  0  0  0  0  0  0  0
  138.9670   76.0030  222.7500 N   0  0  0  0  0  0  0  0  0  0  0  0
  140.8990   77.3650  222.1180 C   0  0  0  0  0  0  0  0  0  0  0  0
  141.4620   77.8760  223.4270 C   0  0  0  0  0  0  0  0  0  0  0  0
  141.5330   79.3480  223.1120 C   0  0  0  0  0  0  0  0  0  0  0  0
  142.3630   80.3690  223.5730 C   0  0  0  0  0  0  0  0  0  0  0  0
  142.1870   81.6500  223.0910 C   0  0  0  0  0  0  0  0  0  0  0  0
  141.2040   81.9360  222.1580 C   0  0  0  0  0  0  0  0  0  0  0  0
  140.3820   80.9360  221.6960 C   0  0  0  0  0  0  0  0  0  0  0  0
  140.5430   79.6460  222.1690 C   0  0  0  0  0  0  0  0  0  0  0  0
  139.8100   78.3680  221.8580 C   0  0  0  0  0  0  0  0  0  0  0  0
  140.6920   72.6330  222.2310 C   0  0  0  0  0  0  0  0  0  0  0  0
  140.5050   71.4910  223.1800 C   0  0  0  0  0  0  0  0  0  0  0  0
  138.7902   66.6197  223.7837 H   0  0  0  0  0  0  0  0  0  0  0  0
  137.8925   66.2940  222.2623 H   0  0  0  0  0  0  0  0  0  0  0  0
  139.6888   66.2965  222.2623 H   0  0  0  0  0  0  0  0  0  0  0  0
  139.8198   68.5845  222.2056 H   0  0  0  0  0  0  0  0  0  0  0  0
  138.1885   68.4270  221.4730 H   0  0  0  0  0  0  0  0  0  0  0  0
  140.1179   71.6240  225.9237 H   0  0  0  0  0  0  0  0  0  0  0  0
  141.1954   71.0324  228.0893 H   0  0  0  0  0  0  0  0  0  0  0  0
  141.2449   68.6686  228.8417 H   0  0  0  0  0  0  0  0  0  0  0  0
  140.2258   66.8843  227.4323 H   0  0  0  0  0  0  0  0  0  0  0  0
  139.1510   67.4671  225.2661 H   0  0  0  0  0  0  0  0  0  0  0  0
  138.9839   72.0528  224.4481 H   0  0  0  0  0  0  0  0  0  0  0  0
  137.4218   70.6568  222.6120 H   0  0  0  0  0  0  0  0  0  0  0  0
  137.4999   72.4404  223.1291 H   0  0  0  0  0  0  0  0  0  0  0  0
  138.7601   71.1219  220.7590 H   0  0  0  0  0  0  0  0  0  0  0  0
  137.5633   72.4368  220.8057 H   0  0  0  0  0  0  0  0  0  0  0  0
  141.4512   74.7348  220.9401 H   0  0  0  0  0  0  0  0  0  0  0  0
  140.3757   75.9684  220.1855 H   0  0  0  0  0  0  0  0  0  0  0  0
  140.9419   75.4725  223.1380 H   0  0  0  0  0  0  0  0  0  0  0  0
  138.3380   75.9280  221.9350 H   0  0  0  0  0  0  0  0  0  0  0  0
  138.7960   75.2390  223.4550 H   0  0  0  0  0  0  0  0  0  0  0  0
  141.6035   77.2842  221.2771 H   0  0  0  0  0  0  0  0  0  0  0  0
  140.7882   77.6695  224.2716 H   0  0  0  0  0  0  0  0  0  0  0  0
  142.4128   77.4181  223.7373 H   0  0  0  0  0  0  0  0  0  0  0  0
  143.1491   80.1559  224.3124 H   0  0  0  0  0  0  0  0  0  0  0  0
  142.8388   82.4582  223.4541 H   0  0  0  0  0  0  0  0  0  0  0  0
  141.0811   82.9641  221.7866 H   0  0  0  0  0  0  0  0  0  0  0  0
  139.6009   81.1601  220.9546 H   0  0  0  0  0  0  0  0  0  0  0  0
  138.9503   78.2184  222.5277 H   0  0  0  0  0  0  0  0  0  0  0  0
  139.3718   78.3216  220.8501 H   0  0  0  0  0  0  0  0  0  0  0  0
  141.4906   72.3709  221.5214 H   0  0  0  0  0  0  0  0  0  0  0  0
  140.9474   73.5187  222.8312 H   0  0  0  0  0  0  0  0  0  0  0  0
  140.8237   70.5704  222.6691 H   0  0  0  0  0  0  0  0  0  0  0  0
  141.1051   71.7360  224.0687 H   0  0  0  0  0  0  0  0  0  0  0  0
  1  2  1  0
  2  3  1  0
  3  4  2  0
  3  5  1  0
  5  6  1  0
  6  7  2  0
  7  8  1  0
  8  9  2  0
  9 10  1  0
 10 11  2  0
  5 12  1  0
 12 13  1  0
 13 14  1  0
 14 15  1  0
 15 16  1  0
 16 17  2  0
 16 18  1  0
 18 19  1  0
 19 20  1  0
 19 21  1  0
 21 22  1  0
 22 23  1  0
 23 24  2  0
 24 25  1  0
 25 26  2  0
 26 27  1  0
 27 28  2  0
 28 29  1  0
 15 30  1  0
 30 31  1  0
 11  6  1  0
 31 12  1  0
 29 21  1  0
 28 23  1  0
  1 32  1  0
  1 33  1  0
  1 34  1  0
  2 35  1  0
  2 36  1  0
  7 37  1  0
  8 38  1  0
  9 39  1  0
 10 40  1  0
 11 41  1  0
 12 42  1  0
 13 43  1  0
 13 44  1  0
 14 45  1  0
 14 46  1  0
 18 47  1  0
 18 48  1  0
 19 49  1  1
 20 50  1  0
 20 51  1  0
 21 52  1  0
 22 53  1  0
 22 54  1  0
 24 55  1  0
 25 56  1  0
 26 57  1  0
 27 58  1  0
 29 59  1  0
 29 60  1  0
 30 61  1  0
 30 62  1  0
 31 63  1  0
 31 64  1  0
M  END
>  <smiles>  (19) 
CCC(=O)N(c1ccccc1)C1CCN(C(=O)CC(N)C2Cc3ccccc3C2)CC1

>  <score_type>  (19) 
oracle

>  <origin>  (19) 
autodockgpu

>  <m_score__min__energy>  (19) 
-8.4100000000000001

>  <m_primary>  (19) 
energy

>  <rmsd>  (19) 
7.219721508210324

>  <m_score__min__rmsd>  (19) 
7.219721508210324

>  <meeko>  (19) 
{"free_energy": -8.06, "intermolecular_energy": -10.45, "internal_energy": -1.93, "cluster_size": 18, "cluster_id": 2, "rank_in_cluster": 6}

>  <energy>  (19) 
-7.56

>  <cluster_rmsd>  (19) 
1.7

>  <cluster>  (19) 
1

$$$$

     RDKit          3D

 64 67  0  0  0  0  0  0  0  0999 V2000
  138.7830   66.6860  222.3720 C   0  0  0  0  0  0  0  0  0  0  0  0
  138.9600   68.1870  222.2740 C   0  0  0  0  0  0  0  0  0  0  0  0
  138.1870   68.8540  223.3810 C   0  0  0  0  0  0  0  0  0  0  0  0
  136.9880   68.4930  223.4920 O   0  0  0  0  0  0  0  0  0  0  0  0
  138.8100   69.8140  224.2100 N   0  0  0  0  0  0  0  0  0  0  0  0
  139.5210   69.3680  225.3770 C   0  0  0  0  0  0  0  0  0  0  0  0
  139.5700   68.0060  225.6330 C   0  0  0  0  0  0  0  0  0  0  0  0
  140.2470   67.5430  226.7510 C   0  0  0  0  0  0  0  0  0  0  0  0
  140.8690   68.4390  227.6000 C   0  0  0  0  0  0  0  0  0  0  0  0
  140.8160   69.8090  227.3370 C   0  0  0  0  0  0  0  0  0  0  0  0
  140.1420   70.2770  226.2250 C   0  0  0  0  0  0  0  0  0  0  0  0
  138.7120   71.2180  223.8530 C   0  0  0  0  0  0  0  0  0  0  0  0
  137.4840   71.4760  223.0680 C   0  0  0  0  0  0  0  0  0  0  0  0
  137.6400   72.1430  221.7490 C   0  0  0  0  0  0  0  0  0  0  0  0
  138.5950   73.2200  221.9290 N   0  0  0  0  0  0  0  0  0  0  0  0
  138.2560   74.5420  221.5560 C   0  0  0  0  0  0  0  0  0  0  0  0
  137.1320   74.7960  221.0660 O   0  0  0  0  0  0  0  0  0  0  0  0
  139.2030   75.6700  221.7220 C   0  0  0  0  0  0  0  0  0  0  0  0
  138.5170   76.8360  222.4420 C   0  0  2  0  0  0  0  0  0  0  0  0
  137.2610   77.1350  221.7600 N   0  0  0  0  0  0  0  0  0  0  0  0
  139.4650   78.0070  222.3700 C   0  0  0  0  0  0  0  0  0  0  0  0
  140.8540   77.5160  222.7220 C   0  0  0  0  0  0  0  0  0  0  0  0
  141.5220   78.8360  223.0040 C   0  0  0  0  0  0  0  0  0  0  0  0
  142.8470   79.2610  222.8990 C   0  0  0  0  0  0  0  0  0  0  0  0
  143.1660   80.5610  223.2350 C   0  0  0  0  0  0  0  0  0  0  0  0
  142.1960   81.4470  223.6720 C   0  0  0  0  0  0  0  0  0  0  0  0
  140.8880   81.0380  223.7780 C   0  0  0  0  0  0  0  0  0  0  0  0
  140.5490   79.7390  223.4460 C   0  0  0  0  0  0  0  0  0  0  0  0
  139.2290   79.0150  223.4600 C   0  0  0  0  0  0  0  0  0  0  0  0
  139.9080   72.9750  222.4890 C   0  0  0  0  0  0  0  0  0  0  0  0
  139.9920   71.6940  223.2570 C   0  0  0  0  0  0  0  0  0  0  0  0
  138.7480   66.3893  223.4306 H   0  0  0  0  0  0  0  0  0  0  0  0
  137.8443   66.3945  221.8783 H   0  0  0  0  0  0  0  0  0  0  0  0
  139.6282   66.1841  221.8783 H   0  0  0  0  0  0  0  0  0  0  0  0
  140.0269   68.4379  222.3683 H   0  0  0  0  0  0  0  0  0  0  0  0
  138.5867   68.5387  221.3009 H   0  0  0  0  0  0  0  0  0  0  0  0
  139.0748   67.2971  224.9532 H   0  0  0  0  0  0  0  0  0  0  0  0
  140.2890   66.4642  226.9620 H   0  0  0  0  0  0  0  0  0  0  0  0
  141.4076   68.0713  228.4859 H   0  0  0  0  0  0  0  0  0  0  0  0
  141.3119   70.5177  228.0166 H   0  0  0  0  0  0  0  0  0  0  0  0
  140.0976   71.3556  226.0138 H   0  0  0  0  0  0  0  0  0  0  0  0
  138.5848   71.8393  224.7518 H   0  0  0  0  0  0  0  0  0  0  0  0
  136.9962   70.5061  222.8910 H   0  0  0  0  0  0  0  0  0  0  0  0
  136.9075   72.1888  223.6759 H   0  0  0  0  0  0  0  0  0  0  0  0
  138.0157   71.4254  221.0048 H   0  0  0  0  0  0  0  0  0  0  0  0
  136.6755   72.5296  221.3880 H   0  0  0  0  0  0  0  0  0  0  0  0
  140.0669   75.3348  222.3147 H   0  0  0  0  0  0  0  0  0  0  0  0
  139.5364   76.0075  220.7296 H   0  0  0  0  0  0  0  0  0  0  0  0
  138.2868   76.6012  223.4917 H   0  0  0  0  0  0  0  0  0  0  0  0
  137.3370   76.9680  220.7440 H   0  0  0  0  0  0  0  0  0  0  0  0
  136.4880   76.5690  222.1980 H   0  0  0  0  0  0  0  0  0  0  0  0
  139.3336   78.4365  221.3659 H   0  0  0  0  0  0  0  0  0  0  0  0
  140.8460   76.8630  223.6072 H   0  0  0  0  0  0  0  0  0  0  0  0
  141.3415   76.9004  221.9517 H   0  0  0  0  0  0  0  0  0  0  0  0
  143.6279   78.5681  222.5525 H   0  0  0  0  0  0  0  0  0  0  0  0
  144.2096   80.8993  223.1542 H   0  0  0  0  0  0  0  0  0  0  0  0
  142.4722   82.4789  223.9345 H   0  0  0  0  0  0  0  0  0  0  0  0
  140.1153   81.7399  224.1249 H   0  0  0  0  0  0  0  0  0  0  0  0
  139.0409   78.5300  224.4293 H   0  0  0  0  0  0  0  0  0  0  0  0
  138.3492   79.6580  223.3104 H   0  0  0  0  0  0  0  0  0  0  0  0
  140.6374   72.9378  221.6665 H   0  0  0  0  0  0  0  0  0  0  0  0
  140.1205   73.7927  223.1934 H   0  0  0  0  0  0  0  0  0  0  0  0
  140.3590   70.9132  222.5746 H   0  0  0  0  0  0  0  0  0  0  0  0
  140.6639   71.8938  224.1048 H   0  0  0  0  0  0  0  0  0  0  0  0
  1  2  1  0
  2  3  1  0
  3  4  2  0
  3  5  1  0
  5  6  1  0
  6  7  2  0
  7  8  1  0
  8  9  2  0
  9 10  1  0
 10 11  2  0
  5 12  1  0
 12 13  1  0
 13 14  1  0
 14 15  1  0
 15 16  1  0
 16 17  2  0
 16 18  1  0
 18 19  1  0
 19 20  1  0
 19 21  1  0
 21 22  1  0
 22 23  1  0
 23 24  2  0
 24 25  1  0
 25 26  2  0
 26 27  1  0
 27 28  2  0
 28 29  1  0
 15 30  1  0
 30 31  1  0
 11  6  1  0
 31 12  1  0
 29 21  1  0
 28 23  1  0
  1 32  1  0
  1 33  1  0
  1 34  1  0
  2 35  1  0
  2 36  1  0
  7 37  1  0
  8 38  1  0
  9 39  1  0
 10 40  1  0
 11 41  1  0
 12 42  1  0
 13 43  1  0
 13 44  1  0
 14 45  1  0
 14 46  1  0
 18 47  1  0
 18 48  1  0
 19 49  1  1
 20 50  1  0
 20 51  1  0
 21 52  1  0
 22 53  1  0
 22 54  1  0
 24 55  1  0
 25 56  1  0
 26 57  1  0
 27 58  1  0
 29 59  1  0
 29 60  1  0
 30 61  1  0
 30 62  1  0
 31 63  1  0
 31 64  1  0
M  END
>  <smiles>  (20) 
CCC(=O)N(c1ccccc1)C1CCN(C(=O)CC(N)C2Cc3ccccc3C2)CC1

>  <score_type>  (20) 
oracle

>  <origin>  (20) 
autodockgpu

>  <m_score__min__energy>  (20) 
-8.4100000000000001

>  <m_primary>  (20) 
energy

>  <rmsd>  (20) 
7.529838005363102

>  <m_score__min__rmsd>  (20) 
7.529838005363102

>  <meeko>  (20) 
{"free_energy": -7.84, "intermolecular_energy": -10.23, "internal_energy": -2.2, "cluster_size": 18, "cluster_id": 2, "rank_in_cluster": 14}

>  <energy>  (20) 
-7.54

>  <cluster_rmsd>  (20) 
1.95

>  <cluster>  (20) 
1

$$$$

     RDKit          3D

 64 67  0  0  0  0  0  0  0  0999 V2000
  146.0350   73.0150  221.6650 C   0  0  0  0  0  0  0  0  0  0  0  0
  145.9280   73.9750  220.4970 C   0  0  0  0  0  0  0  0  0  0  0  0
  145.0280   73.3820  219.4460 C   0  0  0  0  0  0  0  0  0  0  0  0
  145.5550   72.4960  218.7250 O   0  0  0  0  0  0  0  0  0  0  0  0
  143.6920   73.8240  219.3160 N   0  0  0  0  0  0  0  0  0  0  0  0
  143.4430   75.1270  218.7610 C   0  0  0  0  0  0  0  0  0  0  0  0
  143.5710   75.2910  217.3910 C   0  0  0  0  0  0  0  0  0  0  0  0
  143.3380   76.5350  216.8240 C   0  0  0  0  0  0  0  0  0  0  0  0
  142.9770   77.6000  217.6270 C   0  0  0  0  0  0  0  0  0  0  0  0
  142.8490   77.4300  219.0060 C   0  0  0  0  0  0  0  0  0  0  0  0
  143.0810   76.1920  219.5770 C   0  0  0  0  0  0  0  0  0  0  0  0
  142.6180   72.9480  219.7460 C   0  0  0  0  0  0  0  0  0  0  0  0
  141.3050   73.4670  219.3020 C   0  0  0  0  0  0  0  0  0  0  0  0
  140.2610   73.6690  220.3400 C   0  0  0  0  0  0  0  0  0  0  0  0
  140.2960   72.5080  221.2080 N   0  0  0  0  0  0  0  0  0  0  0  0
  139.1200   71.7580  221.4430 C   0  0  0  0  0  0  0  0  0  0  0  0
  138.0380   72.0880  220.9060 O   0  0  0  0  0  0  0  0  0  0  0  0
  139.1130   70.5660  222.3240 C   0  0  0  0  0  0  0  0  0  0  0  0
  137.8590   70.5630  223.2040 C   0  0  2  0  0  0  0  0  0  0  0  0
  137.2940   71.9100  223.2200 N   0  0  0  0  0  0  0  0  0  0  0  0
  138.3000   70.1430  224.5830 C   0  0  0  0  0  0  0  0  0  0  0  0
  139.5000   70.9800  224.9750 C   0  0  0  0  0  0  0  0  0  0  0  0
  140.0190   70.1530  226.1220 C   0  0  0  0  0  0  0  0  0  0  0  0
  140.7430   70.4830  227.2670 C   0  0  0  0  0  0  0  0  0  0  0  0
  141.0830   69.4880  228.1600 C   0  0  0  0  0  0  0  0  0  0  0  0
  140.7170   68.1710  227.9390 C   0  0  0  0  0  0  0  0  0  0  0  0
  140.0020   67.8350  226.8130 C   0  0  0  0  0  0  0  0  0  0  0  0
  139.6530   68.8200  225.9070 C   0  0  0  0  0  0  0  0  0  0  0  0
  138.8890   68.7600  224.6110 C   0  0  0  0  0  0  0  0  0  0  0  0
  141.5230   72.0880  221.8530 C   0  0  0  0  0  0  0  0  0  0  0  0
  142.7510   72.6350  221.1970 C   0  0  0  0  0  0  0  0  0  0  0  0
  145.9724   73.5770  222.6085 H   0  0  0  0  0  0  0  0  0  0  0  0
  145.2125   72.2861  221.6171 H   0  0  0  0  0  0  0  0  0  0  0  0
  146.9978   72.4851  221.6171 H   0  0  0  0  0  0  0  0  0  0  0  0
  145.5077   74.9304  220.8441 H   0  0  0  0  0  0  0  0  0  0  0  0
  146.9270   74.1493  220.0708 H   0  0  0  0  0  0  0  0  0  0  0  0
  143.8560   74.4389  216.7565 H   0  0  0  0  0  0  0  0  0  0  0  0
  143.4403   76.6736  215.7376 H   0  0  0  0  0  0  0  0  0  0  0  0
  142.7897   78.5862  217.1771 H   0  0  0  0  0  0  0  0  0  0  0  0
  142.5631   78.2822  219.6401 H   0  0  0  0  0  0  0  0  0  0  0  0
  142.9802   76.0521  220.6634 H   0  0  0  0  0  0  0  0  0  0  0  0
  142.6940   71.9692  219.2499 H   0  0  0  0  0  0  0  0  0  0  0  0
  141.4813   74.4391  218.8183 H   0  0  0  0  0  0  0  0  0  0  0  0
  140.9003   72.6820  218.6463 H   0  0  0  0  0  0  0  0  0  0  0  0
  140.4748   74.5798  220.9186 H   0  0  0  0  0  0  0  0  0  0  0  0
  139.2683   73.7861  219.8808 H   0  0  0  0  0  0  0  0  0  0  0  0
  139.1240   69.6569  221.7047 H   0  0  0  0  0  0  0  0  0  0  0  0
  140.0032   70.5928  222.9696 H   0  0  0  0  0  0  0  0  0  0  0  0
  137.0868   69.8749  222.8295 H   0  0  0  0  0  0  0  0  0  0  0  0
  138.0300   72.6260  223.1100 H   0  0  0  0  0  0  0  0  0  0  0  0
  136.5550   71.9820  222.4730 H   0  0  0  0  0  0  0  0  0  0  0  0
  137.4081   70.2317  225.2206 H   0  0  0  0  0  0  0  0  0  0  0  0
  140.2330   71.0536  224.1581 H   0  0  0  0  0  0  0  0  0  0  0  0
  139.2782   72.0296  225.2184 H   0  0  0  0  0  0  0  0  0  0  0  0
  141.0398   71.5252  227.4562 H   0  0  0  0  0  0  0  0  0  0  0  0
  141.6550   69.7454  229.0636 H   0  0  0  0  0  0  0  0  0  0  0  0
  140.9981   67.3931  228.6642 H   0  0  0  0  0  0  0  0  0  0  0  0
  139.7097   66.7897  226.6343 H   0  0  0  0  0  0  0  0  0  0  0  0
  139.5551   68.5838  223.7535 H   0  0  0  0  0  0  0  0  0  0  0  0
  138.1535   67.9446  224.5471 H   0  0  0  0  0  0  0  0  0  0  0  0
  141.5032   72.4300  222.8983 H   0  0  0  0  0  0  0  0  0  0  0  0
  141.5731   70.9917  221.7777 H   0  0  0  0  0  0  0  0  0  0  0  0
  143.0300   73.5619  221.7195 H   0  0  0  0  0  0  0  0  0  0  0  0
  143.5095   71.8414  221.2665 H   0  0  0  0  0  0  0  0  0  0  0  0
  1  2  1  0
  2  3  1  0
  3  4  2  0
  3  5  1  0
  5  6  1  0
  6  7  2  0
  7  8  1  0
  8  9  2  0
  9 10  1  0
 10 11  2  0
  5 12  1  0
 12 13  1  0
 13 14  1  0
 14 15  1  0
 15 16  1  0
 16 17  2  0
 16 18  1  0
 18 19  1  0
 19 20  1  0
 19 21  1  0
 21 22  1  0
 22 23  1  0
 23 24  2  0
 24 25  1  0
 25 26  2  0
 26 27  1  0
 27 28  2  0
 28 29  1  0
 15 30  1  0
 30 31  1  0
 11  6  1  0
 31 12  1  0
 29 21  1  0
 28 23  1  0
  1 32  1  0
  1 33  1  0
  1 34  1  0
  2 35  1  0
  2 36  1  0
  7 37  1  0
  8 38  1  0
  9 39  1  0
 10 40  1  0
 11 41  1  0
 12 42  1  0
 13 43  1  0
 13 44  1  0
 14 45  1  0
 14 46  1  0
 18 47  1  0
 18 48  1  0
 19 49  1  6
 20 50  1  0
 20 51  1  0
 21 52  1  0
 22 53  1  0
 22 54  1  0
 24 55  1  0
 25 56  1  0
 26 57  1  0
 27 58  1  0
 29 59  1  0
 29 60  1  0
 30 61  1  0
 30 62  1  0
 31 63  1  0
 31 64  1  0
M  END
>  <smiles>  (21) 
CCC(=O)N(c1ccccc1)C1CCN(C(=O)CC(N)C2Cc3ccccc3C2)CC1

>  <score_type>  (21) 
oracle

>  <origin>  (21) 
autodockgpu

>  <m_score__min__energy>  (21) 
-8.4100000000000001

>  <m_primary>  (21) 
energy

>  <rmsd>  (21) 
8.24887699752408

>  <m_score__min__rmsd>  (21) 
8.24887699752408

>  <meeko>  (21) 
{"free_energy": -7.75, "intermolecular_energy": -10.14, "internal_energy": -2.32, "cluster_size": 2, "cluster_id": 4, "rank_in_cluster": 2}

>  <energy>  (21) 
-7.53

>  <cluster_rmsd>  (21) 
1.62

>  <cluster>  (21) 
1

$$$$

     RDKit          3D

 64 67  0  0  0  0  0  0  0  0999 V2000
  142.5920   80.1600  223.2380 C   0  0  0  0  0  0  0  0  0  0  0  0
  141.8290   78.8530  223.3110 C   0  0  0  0  0  0  0  0  0  0  0  0
  140.7100   78.8720  222.3030 C   0  0  0  0  0  0  0  0  0  0  0  0
  139.6710   79.4810  222.6650 O   0  0  0  0  0  0  0  0  0  0  0  0
  140.8650   78.2340  221.0520 N   0  0  0  0  0  0  0  0  0  0  0  0
  141.4650   78.9650  219.9690 C   0  0  0  0  0  0  0  0  0  0  0  0
  141.3550   80.3480  219.9710 C   0  0  0  0  0  0  0  0  0  0  0  0
  141.9230   81.0820  218.9410 C   0  0  0  0  0  0  0  0  0  0  0  0
  142.5950   80.4340  217.9220 C   0  0  0  0  0  0  0  0  0  0  0  0
  142.7030   79.0430  217.9250 C   0  0  0  0  0  0  0  0  0  0  0  0
  142.1380   78.3040  218.9490 C   0  0  0  0  0  0  0  0  0  0  0  0
  140.4140   76.8630  220.9030 C   0  0  0  0  0  0  0  0  0  0  0  0
  139.0010   76.7250  221.3250 C   0  0  0  0  0  0  0  0  0  0  0  0
  138.6910   75.7020  222.3570 C   0  0  0  0  0  0  0  0  0  0  0  0
  139.4350   74.5070  222.0060 N   0  0  0  0  0  0  0  0  0  0  0  0
  138.7680   73.2700  221.8570 C   0  0  0  0  0  0  0  0  0  0  0  0
  137.5290   73.1910  222.0250 O   0  0  0  0  0  0  0  0  0  0  0  0
  139.4910   72.0260  221.5000 C   0  0  0  0  0  0  0  0  0  0  0  0
  138.8340   70.8180  222.1740 C   0  0  2  0  0  0  0  0  0  0  0  0
  137.4240   70.7790  221.7960 N   0  0  0  0  0  0  0  0  0  0  0  0
  138.9920   71.0120  223.6610 C   0  0  0  0  0  0  0  0  0  0  0  0
  140.3950   71.5150  223.9290 C   0  0  0  0  0  0  0  0  0  0  0  0
  140.4830   71.2400  225.4070 C   0  0  0  0  0  0  0  0  0  0  0  0
  141.2060   71.8450  226.4350 C   0  0  0  0  0  0  0  0  0  0  0  0
  141.0790   71.3630  227.7220 C   0  0  0  0  0  0  0  0  0  0  0  0
  140.2470   70.2940  228.0080 C   0  0  0  0  0  0  0  0  0  0  0  0
  139.5290   69.6920  227.0030 C   0  0  0  0  0  0  0  0  0  0  0  0
  139.6440   70.1610  225.7070 C   0  0  0  0  0  0  0  0  0  0  0  0
  138.9980   69.7150  224.4210 C   0  0  0  0  0  0  0  0  0  0  0  0
  140.8690   74.5470  221.8030 C   0  0  0  0  0  0  0  0  0  0  0  0
  141.3870   75.9240  221.5280 C   0  0  0  0  0  0  0  0  0  0  0  0
  142.8018   80.5194  224.2562 H   0  0  0  0  0  0  0  0  0  0  0  0
  143.5397   80.0019  222.7024 H   0  0  0  0  0  0  0  0  0  0  0  0
  141.9884   80.9075  222.7024 H   0  0  0  0  0  0  0  0  0  0  0  0
  142.5093   78.0176  223.0889 H   0  0  0  0  0  0  0  0  0  0  0  0
  141.4125   78.7258  224.3211 H   0  0  0  0  0  0  0  0  0  0  0  0
  140.8202   80.8592  220.7850 H   0  0  0  0  0  0  0  0  0  0  0  0
  141.8389   82.1788  218.9349 H   0  0  0  0  0  0  0  0  0  0  0  0
  143.0463   81.0170  217.1056 H   0  0  0  0  0  0  0  0  0  0  0  0
  143.2388   78.5326  217.1111 H   0  0  0  0  0  0  0  0  0  0  0  0
  142.2206   77.2071  218.9555 H   0  0  0  0  0  0  0  0  0  0  0  0
  140.4009   76.5721  219.8423 H   0  0  0  0  0  0  0  0  0  0  0  0
  138.6781   77.6997  221.7196 H   0  0  0  0  0  0  0  0  0  0  0  0
  138.4709   76.3839  220.4235 H   0  0  0  0  0  0  0  0  0  0  0  0
  138.9996   76.0613  223.3498 H   0  0  0  0  0  0  0  0  0  0  0  0
  137.6111   75.4957  222.3936 H   0  0  0  0  0  0  0  0  0  0  0  0
  139.4648   71.8914  220.4086 H   0  0  0  0  0  0  0  0  0  0  0  0
  140.5325   72.1057  221.8447 H   0  0  0  0  0  0  0  0  0  0  0  0
  139.2948   69.8673  221.8675 H   0  0  0  0  0  0  0  0  0  0  0  0
  136.8250   71.1560  222.5480 H   0  0  0  0  0  0  0  0  0  0  0  0
  137.2970   71.2980  220.8890 H   0  0  0  0  0  0  0  0  0  0  0  0
  138.1658   71.6717  223.9648 H   0  0  0  0  0  0  0  0  0  0  0  0
  141.1486   70.9494  223.3613 H   0  0  0  0  0  0  0  0  0  0  0  0
  140.5807   72.5590  223.6364 H   0  0  0  0  0  0  0  0  0  0  0  0
  141.8695   72.6962  226.2225 H   0  0  0  0  0  0  0  0  0  0  0  0
  141.6489   71.8366  228.5350 H   0  0  0  0  0  0  0  0  0  0  0  0
  140.1606   69.9261  229.0411 H   0  0  0  0  0  0  0  0  0  0  0  0
  138.8671   68.8426  227.2277 H   0  0  0  0  0  0  0  0  0  0  0  0
  139.5963   68.9463  223.9100 H   0  0  0  0  0  0  0  0  0  0  0  0
  138.0102   69.2459  224.5399 H   0  0  0  0  0  0  0  0  0  0  0  0
  141.3612   74.1626  222.7085 H   0  0  0  0  0  0  0  0  0  0  0  0
  141.0915   73.9313  220.9190 H   0  0  0  0  0  0  0  0  0  0  0  0
  141.7129   76.3604  222.4837 H   0  0  0  0  0  0  0  0  0  0  0  0
  142.1993   75.8003  220.7966 H   0  0  0  0  0  0  0  0  0  0  0  0
  1  2  1  0
  2  3  1  0
  3  4  2  0
  3  5  1  0
  5  6  1  0
  6  7  2  0
  7  8  1  0
  8  9  2  0
  9 10  1  0
 10 11  2  0
  5 12  1  0
 12 13  1  0
 13 14  1  0
 14 15  1  0
 15 16  1  0
 16 17  2  0
 16 18  1  0
 18 19  1  0
 19 20  1  0
 19 21  1  0
 21 22  1  0
 22 23  1  0
 23 24  2  0
 24 25  1  0
 25 26  2  0
 26 27  1  0
 27 28  2  0
 28 29  1  0
 15 30  1  0
 30 31  1  0
 11  6  1  0
 31 12  1  0
 29 21  1  0
 28 23  1  0
  1 32  1  0
  1 33  1  0
  1 34  1  0
  2 35  1  0
  2 36  1  0
  7 37  1  0
  8 38  1  0
  9 39  1  0
 10 40  1  0
 11 41  1  0
 12 42  1  0
 13 43  1  0
 13 44  1  0
 14 45  1  0
 14 46  1  0
 18 47  1  0
 18 48  1  0
 19 49  1  6
 20 50  1  0
 20 51  1  0
 21 52  1  0
 22 53  1  0
 22 54  1  0
 24 55  1  0
 25 56  1  0
 26 57  1  0
 27 58  1  0
 29 59  1  0
 29 60  1  0
 30 61  1  0
 30 62  1  0
 31 63  1  0
 31 64  1  0
M  END
>  <smiles>  (22) 
CCC(=O)N(c1ccccc1)C1CCN(C(=O)CC(N)C2Cc3ccccc3C2)CC1

>  <score_type>  (22) 
oracle

>  <origin>  (22) 
autodockgpu

>  <m_score__min__energy>  (22) 
-8.4100000000000001

>  <m_primary>  (22) 
energy

>  <rmsd>  (22) 
6.445065565830029

>  <m_score__min__rmsd>  (22) 
6.445065565830029

>  <meeko>  (22) 
{"free_energy": -7.4, "intermolecular_energy": -9.78, "internal_energy": -2.42, "cluster_size": 24, "cluster_id": 1, "rank_in_cluster": 23}

>  <energy>  (22) 
-7.4

>  <cluster_rmsd>  (22) 
2.0

>  <cluster>  (22) 
1

$$$$

     RDKit          3D

 64 67  0  0  0  0  0  0  0  0999 V2000
  138.1480   67.9050  221.8450 C   0  0  0  0  0  0  0  0  0  0  0  0
  138.8290   67.9090  223.1980 C   0  0  0  0  0  0  0  0  0  0  0  0
  138.2010   68.9650  224.0700 C   0  0  0  0  0  0  0  0  0  0  0  0
  136.9540   68.8720  224.2120 O   0  0  0  0  0  0  0  0  0  0  0  0
  138.9980   69.9690  224.6630 N   0  0  0  0  0  0  0  0  0  0  0  0
  139.7020   69.6690  225.8790 C   0  0  0  0  0  0  0  0  0  0  0  0
  140.0780   70.7240  226.6960 C   0  0  0  0  0  0  0  0  0  0  0  0
  140.7580   70.4690  227.8770 C   0  0  0  0  0  0  0  0  0  0  0  0
  141.0570   69.1670  228.2320 C   0  0  0  0  0  0  0  0  0  0  0  0
  140.6770   68.1090  227.4060 C   0  0  0  0  0  0  0  0  0  0  0  0
  139.9980   68.3560  226.2270 C   0  0  0  0  0  0  0  0  0  0  0  0
  139.0780   71.2690  224.0220 C   0  0  0  0  0  0  0  0  0  0  0  0
  138.0080   71.4250  223.0120 C   0  0  0  0  0  0  0  0  0  0  0  0
  138.4160   71.7890  221.6310 C   0  0  0  0  0  0  0  0  0  0  0  0
  139.4250   72.8250  221.7460 N   0  0  0  0  0  0  0  0  0  0  0  0
  139.2640   74.0550  221.0660 C   0  0  0  0  0  0  0  0  0  0  0  0
  138.2510   74.2630  220.3590 O   0  0  0  0  0  0  0  0  0  0  0  0
  140.2720   75.1380  221.1570 C   0  0  0  0  0  0  0  0  0  0  0  0
  139.9880   76.0260  222.3730 C   0  0  2  0  0  0  0  0  0  0  0  0
  138.5500   76.0290  222.6270 N   0  0  0  0  0  0  0  0  0  0  0  0
  140.4790   77.4090  222.0230 C   0  0  0  0  0  0  0  0  0  0  0  0
  141.4490   77.8550  223.0960 C   0  0  0  0  0  0  0  0  0  0  0  0
  141.4790   79.3330  222.8090 C   0  0  0  0  0  0  0  0  0  0  0  0
  142.4550   80.3100  223.0060 C   0  0  0  0  0  0  0  0  0  0  0  0
  142.1900   81.6120  222.6340 C   0  0  0  0  0  0  0  0  0  0  0  0
  140.9750   81.9630  222.0700 C   0  0  0  0  0  0  0  0  0  0  0  0
  140.0070   81.0080  221.8720 C   0  0  0  0  0  0  0  0  0  0  0  0
  140.2550   79.6980  222.2380 C   0  0  0  0  0  0  0  0  0  0  0  0
  139.4070   78.4560  222.1470 C   0  0  0  0  0  0  0  0  0  0  0  0
  140.6140   72.6300  222.5500 C   0  0  0  0  0  0  0  0  0  0  0  0
  140.4690   71.5370  223.5610 C   0  0  0  0  0  0  0  0  0  0  0  0
  137.0568   67.8986  221.9838 H   0  0  0  0  0  0  0  0  0  0  0  0
  138.4410   68.8049  221.2843 H   0  0  0  0  0  0  0  0  0  0  0  0
  138.4516   67.0086  221.2843 H   0  0  0  0  0  0  0  0  0  0  0  0
  138.7103   66.9234  223.6717 H   0  0  0  0  0  0  0  0  0  0  0  0
  139.8997   68.1263  223.0703 H   0  0  0  0  0  0  0  0  0  0  0  0
  139.8380   71.7583  226.4087 H   0  0  0  0  0  0  0  0  0  0  0  0
  141.0590   71.3012  228.5303 H   0  0  0  0  0  0  0  0  0  0  0  0
  141.5964   68.9644  229.1690 H   0  0  0  0  0  0  0  0  0  0  0  0
  140.9183   67.0750  227.6935 H   0  0  0  0  0  0  0  0  0  0  0  0
  139.6961   67.5246  225.5731 H   0  0  0  0  0  0  0  0  0  0  0  0
  138.8735   72.0715  224.7460 H   0  0  0  0  0  0  0  0  0  0  0  0
  137.4673   70.4688  222.9545 H   0  0  0  0  0  0  0  0  0  0  0  0
  137.4138   72.2814  223.3634 H   0  0  0  0  0  0  0  0  0  0  0  0
  138.8332   70.9108  221.1165 H   0  0  0  0  0  0  0  0  0  0  0  0
  137.5537   72.1439  221.0476 H   0  0  0  0  0  0  0  0  0  0  0  0
  141.2736   74.6944  221.2573 H   0  0  0  0  0  0  0  0  0  0  0  0
  140.2220   75.7517  220.2455 H   0  0  0  0  0  0  0  0  0  0  0  0
  140.4932   75.6645  223.2808 H   0  0  0  0  0  0  0  0  0  0  0  0
  138.0150   75.9210  221.7510 H   0  0  0  0  0  0  0  0  0  0  0  0
  138.3240   75.2740  223.3260 H   0  0  0  0  0  0  0  0  0  0  0  0
  140.8764   77.3347  221.0000 H   0  0  0  0  0  0  0  0  0  0  0  0
  141.0696   77.6412  224.1061 H   0  0  0  0  0  0  0  0  0  0  0  0
  142.4288   77.3554  223.0769 H   0  0  0  0  0  0  0  0  0  0  0  0
  143.4248   80.0455  223.4528 H   0  0  0  0  0  0  0  0  0  0  0  0
  142.9575   82.3848  222.7882 H   0  0  0  0  0  0  0  0  0  0  0  0
  140.7846   83.0069  221.7803 H   0  0  0  0  0  0  0  0  0  0  0  0
  139.0406   81.2841  221.4250 H   0  0  0  0  0  0  0  0  0  0  0  0
  138.7988   78.3109  223.0520 H   0  0  0  0  0  0  0  0  0  0  0  0
  138.6698   78.4599  221.3306 H   0  0  0  0  0  0  0  0  0  0  0  0
  141.4508   72.3791  221.8815 H   0  0  0  0  0  0  0  0  0  0  0  0
  140.7921   73.5645  223.1022 H   0  0  0  0  0  0  0  0  0  0  0  0
  140.8632   70.6108  223.1174 H   0  0  0  0  0  0  0  0  0  0  0  0
  141.0219   71.8736  224.4504 H   0  0  0  0  0  0  0  0  0  0  0  0
  1  2  1  0
  2  3  1  0
  3  4  2  0
  3  5  1  0
  5  6  1  0
  6  7  2  0
  7  8  1  0
  8  9  2  0
  9 10  1  0
 10 11  2  0
  5 12  1  0
 12 13  1  0
 13 14  1  0
 14 15  1  0
 15 16  1  0
 16 17  2  0
 16 18  1  0
 18 19  1  0
 19 20  1  0
 19 21  1  0
 21 22  1  0
 22 23  1  0
 23 24  2  0
 24 25  1  0
 25 26  2  0
 26 27  1  0
 27 28  2  0
 28 29  1  0
 15 30  1  0
 30 31  1  0
 11  6  1  0
 31 12  1  0
 29 21  1  0
 28 23  1  0
  1 32  1  0
  1 33  1  0
  1 34  1  0
  2 35  1  0
  2 36  1  0
  7 37  1  0
  8 38  1  0
  9 39  1  0
 10 40  1  0
 11 41  1  0
 12 42  1  0
 13 43  1  0
 13 44  1  0
 14 45  1  0
 14 46  1  0
 18 47  1  0
 18 48  1  0
 19 49  1  1
 20 50  1  0
 20 51  1  0
 21 52  1  0
 22 53  1  0
 22 54  1  0
 24 55  1  0
 25 56  1  0
 26 57  1  0
 27 58  1  0
 29 59  1  0
 29 60  1  0
 30 61  1  0
 30 62  1  0
 31 63  1  0
 31 64  1  0
M  END
>  <smiles>  (23) 
CCC(=O)N(c1ccccc1)C1CCN(C(=O)CC(N)C2Cc3ccccc3C2)CC1

>  <score_type>  (23) 
oracle

>  <origin>  (23) 
autodockgpu

>  <m_score__min__energy>  (23) 
-8.4100000000000001

>  <m_primary>  (23) 
energy

>  <rmsd>  (23) 
7.318217659011761

>  <m_score__min__rmsd>  (23) 
7.318217659011761

>  <meeko>  (23) 
{"free_energy": -8.05, "intermolecular_energy": -10.44, "internal_energy": -1.94, "cluster_size": 18, "cluster_id": 2, "rank_in_cluster": 7}

>  <energy>  (23) 
-7.4

>  <cluster_rmsd>  (23) 
1.99

>  <cluster>  (23) 
1

$$$$

     RDKit          3D

 64 67  0  0  0  0  0  0  0  0999 V2000
  137.9830   80.6040  224.1740 C   0  0  0  0  0  0  0  0  0  0  0  0
  137.2370   79.7760  223.1490 C   0  0  0  0  0  0  0  0  0  0  0  0
  138.2050   79.2850  222.1040 C   0  0  0  0  0  0  0  0  0  0  0  0
  137.8730   79.5160  220.9130 O   0  0  0  0  0  0  0  0  0  0  0  0
  139.3900   78.6170  222.4860 N   0  0  0  0  0  0  0  0  0  0  0  0
  140.5990   79.3780  222.6350 C   0  0  0  0  0  0  0  0  0  0  0  0
  141.0430   80.1230  221.5540 C   0  0  0  0  0  0  0  0  0  0  0  0
  142.2060   80.8690  221.6650 C   0  0  0  0  0  0  0  0  0  0  0  0
  142.9150   80.8660  222.8520 C   0  0  0  0  0  0  0  0  0  0  0  0
  142.4650   80.1140  223.9370 C   0  0  0  0  0  0  0  0  0  0  0  0
  141.3050   79.3680  223.8330 C   0  0  0  0  0  0  0  0  0  0  0  0
  139.3430   77.1840  222.7150 C   0  0  0  0  0  0  0  0  0  0  0  0
  140.6330   76.5520  222.3550 C   0  0  0  0  0  0  0  0  0  0  0  0
  140.5980   75.4270  221.3850 C   0  0  0  0  0  0  0  0  0  0  0  0
  139.4840   74.5780  221.7600 N   0  0  0  0  0  0  0  0  0  0  0  0
  139.6870   73.1980  221.9920 C   0  0  0  0  0  0  0  0  0  0  0  0
  140.8280   72.6940  221.8760 O   0  0  0  0  0  0  0  0  0  0  0  0
  138.5750   72.2950  222.3760 C   0  0  0  0  0  0  0  0  0  0  0  0
  139.1070   70.8840  222.6470 C   0  0  2  0  0  0  0  0  0  0  0  0
  138.1960   69.9150  222.0440 N   0  0  0  0  0  0  0  0  0  0  0  0
  139.1560   70.7210  224.1460 C   0  0  0  0  0  0  0  0  0  0  0  0
  140.3350   71.5130  224.6720 C   0  0  0  0  0  0  0  0  0  0  0  0
  140.4600   70.8990  226.0420 C   0  0  0  0  0  0  0  0  0  0  0  0
  140.9380   71.3940  227.2540 C   0  0  0  0  0  0  0  0  0  0  0  0
  140.9250   70.5780  228.3670 C   0  0  0  0  0  0  0  0  0  0  0  0
  140.4460   69.2810  228.3000 C   0  0  0  0  0  0  0  0  0  0  0  0
  139.9710   68.7840  227.1090 C   0  0  0  0  0  0  0  0  0  0  0  0
  139.9770   69.5870  225.9830 C   0  0  0  0  0  0  0  0  0  0  0  0
  139.5320   69.3280  224.5680 C   0  0  0  0  0  0  0  0  0  0  0  0
  138.1460   75.1130  221.9050 C   0  0  0  0  0  0  0  0  0  0  0  0
  138.1220   76.5970  222.0960 C   0  0  0  0  0  0  0  0  0  0  0  0
  137.6937   80.2829  225.1855 H   0  0  0  0  0  0  0  0  0  0  0  0
  139.0659   80.4641  224.0405 H   0  0  0  0  0  0  0  0  0  0  0  0
  137.7314   81.6665  224.0405 H   0  0  0  0  0  0  0  0  0  0  0  0
  136.7647   78.9154  223.6454 H   0  0  0  0  0  0  0  0  0  0  0  0
  136.4615   80.3928  222.6715 H   0  0  0  0  0  0  0  0  0  0  0  0
  140.4750   80.1223  220.6120 H   0  0  0  0  0  0  0  0  0  0  0  0
  142.5641   81.4621  220.8106 H   0  0  0  0  0  0  0  0  0  0  0  0
  143.8373   81.4588  222.9410 H   0  0  0  0  0  0  0  0  0  0  0  0
  143.0343   80.1142  224.8782 H   0  0  0  0  0  0  0  0  0  0  0  0
  140.9456   78.7746  224.6867 H   0  0  0  0  0  0  0  0  0  0  0  0
  139.2330   76.9658  223.7875 H   0  0  0  0  0  0  0  0  0  0  0  0
  141.2761   77.3356  221.9279 H   0  0  0  0  0  0  0  0  0  0  0  0
  140.9967   76.1038  223.2914 H   0  0  0  0  0  0  0  0  0  0  0  0
  140.4527   75.8122  220.3649 H   0  0  0  0  0  0  0  0  0  0  0  0
  141.5432   74.8646  221.4021 H   0  0  0  0  0  0  0  0  0  0  0  0
  138.0909   72.6814  223.2851 H   0  0  0  0  0  0  0  0  0  0  0  0
  137.8477   72.2516  221.5519 H   0  0  0  0  0  0  0  0  0  0  0  0
  140.1068   70.7249  222.2168 H   0  0  0  0  0  0  0  0  0  0  0  0
  138.5460   68.9510  222.1600 H   0  0  0  0  0  0  0  0  0  0  0  0
  137.2360   70.0420  222.4570 H   0  0  0  0  0  0  0  0  0  0  0  0
  138.1613   71.0163  224.5111 H   0  0  0  0  0  0  0  0  0  0  0  0
  141.2394   71.3523  224.0668 H   0  0  0  0  0  0  0  0  0  0  0  0
  140.2064   72.6054  224.6599 H   0  0  0  0  0  0  0  0  0  0  0  0
  141.3211   72.4228  227.3227 H   0  0  0  0  0  0  0  0  0  0  0  0
  141.3022   70.9654  229.3249 H   0  0  0  0  0  0  0  0  0  0  0  0
  140.4453   68.6478  229.1995 H   0  0  0  0  0  0  0  0  0  0  0  0
  139.5886   67.7542  227.0522 H   0  0  0  0  0  0  0  0  0  0  0  0
  140.3484   68.9225  223.9523 H   0  0  0  0  0  0  0  0  0  0  0  0
  138.7287   68.5834  224.4667 H   0  0  0  0  0  0  0  0  0  0  0  0
  137.5714   74.8677  220.9997 H   0  0  0  0  0  0  0  0  0  0  0  0
  137.7089   74.6602  222.8072 H   0  0  0  0  0  0  0  0  0  0  0  0
  137.9846   77.0634  221.1093 H   0  0  0  0  0  0  0  0  0  0  0  0
  137.3006   76.7975  222.7997 H   0  0  0  0  0  0  0  0  0  0  0  0
  1  2  1  0
  2  3  1  0
  3  4  2  0
  3  5  1  0
  5  6  1  0
  6  7  2  0
  7  8  1  0
  8  9  2  0
  9 10  1  0
 10 11  2  0
  5 12  1  0
 12 13  1  0
 13 14  1  0
 14 15  1  0
 15 16  1  0
 16 17  2  0
 16 18  1  0
 18 19  1  0
 19 20  1  0
 19 21  1  0
 21 22  1  0
 22 23  1  0
 23 24  2  0
 24 25  1  0
 25 26  2  0
 26 27  1  0
 27 28  2  0
 28 29  1  0
 15 30  1  0
 30 31  1  0
 11  6  1  0
 31 12  1  0
 29 21  1  0
 28 23  1  0
  1 32  1  0
  1 33  1  0
  1 34  1  0
  2 35  1  0
  2 36  1  0
  7 37  1  0
  8 38  1  0
  9 39  1  0
 10 40  1  0
 11 41  1  0
 12 42  1  0
 13 43  1  0
 13 44  1  0
 14 45  1  0
 14 46  1  0
 18 47  1  0
 18 48  1  0
 19 49  1  6
 20 50  1  0
 20 51  1  0
 21 52  1  0
 22 53  1  0
 22 54  1  0
 24 55  1  0
 25 56  1  0
 26 57  1  0
 27 58  1  0
 29 59  1  0
 29 60  1  0
 30 61  1  0
 30 62  1  0
 31 63  1  0
 31 64  1  0
M  END
>  <smiles>  (24) 
CCC(=O)N(c1ccccc1)C1CCN(C(=O)CC(N)C2Cc3ccccc3C2)CC1

>  <score_type>  (24) 
oracle

>  <origin>  (24) 
autodockgpu

>  <m_score__min__energy>  (24) 
-8.4100000000000001

>  <m_primary>  (24) 
energy

>  <rmsd>  (24) 
6.7900820178252514

>  <m_score__min__rmsd>  (24) 
6.7900820178252514

>  <meeko>  (24) 
{"free_energy": -8.34, "intermolecular_energy": -10.73, "internal_energy": -1.39, "cluster_size": 24, "cluster_id": 1, "rank_in_cluster": 2}

>  <energy>  (24) 
-7.37

>  <cluster_rmsd>  (24) 
1.94

>  <cluster>  (24) 
1

$$$$

     RDKit          3D

 64 67  0  0  0  0  0  0  0  0999 V2000
  138.7970   66.6570  222.3710 C   0  0  0  0  0  0  0  0  0  0  0  0
  138.9940   68.1570  222.2790 C   0  0  0  0  0  0  0  0  0  0  0  0
  138.2160   68.8300  223.3800 C   0  0  0  0  0  0  0  0  0  0  0  0
  137.0140   68.4740  223.4830 O   0  0  0  0  0  0  0  0  0  0  0  0
  138.8370   69.7890  224.2110 N   0  0  0  0  0  0  0  0  0  0  0  0
  139.5490   69.3410  225.3760 C   0  0  0  0  0  0  0  0  0  0  0  0
  139.6040   67.9780  225.6270 C   0  0  0  0  0  0  0  0  0  0  0  0
  140.2830   67.5130  226.7430 C   0  0  0  0  0  0  0  0  0  0  0  0
  140.9010   68.4080  227.5950 C   0  0  0  0  0  0  0  0  0  0  0  0
  140.8430   69.7790  227.3380 C   0  0  0  0  0  0  0  0  0  0  0  0
  140.1670   70.2490  226.2280 C   0  0  0  0  0  0  0  0  0  0  0  0
  138.7360   71.1930  223.8580 C   0  0  0  0  0  0  0  0  0  0  0  0
  137.5080   71.4510  223.0720 C   0  0  0  0  0  0  0  0  0  0  0  0
  137.6650   72.1220  221.7560 C   0  0  0  0  0  0  0  0  0  0  0  0
  138.6150   73.2010  221.9410 N   0  0  0  0  0  0  0  0  0  0  0  0
  138.2740   74.5230  221.5710 C   0  0  0  0  0  0  0  0  0  0  0  0
  137.1490   74.7750  221.0800 O   0  0  0  0  0  0  0  0  0  0  0  0
  139.2170   75.6540  221.7420 C   0  0  0  0  0  0  0  0  0  0  0  0
  138.5150   76.8310  222.4270 C   0  0  2  0  0  0  0  0  0  0  0  0
  137.2770   77.1210  221.7080 N   0  0  0  0  0  0  0  0  0  0  0  0
  139.4660   77.9990  222.3620 C   0  0  0  0  0  0  0  0  0  0  0  0
  140.8510   77.5060  222.7260 C   0  0  0  0  0  0  0  0  0  0  0  0
  141.5200   78.8240  223.0130 C   0  0  0  0  0  0  0  0  0  0  0  0
  142.8460   79.2460  222.9190 C   0  0  0  0  0  0  0  0  0  0  0  0
  143.1660   80.5450  223.2570 C   0  0  0  0  0  0  0  0  0  0  0  0
  142.1950   81.4330  223.6850 C   0  0  0  0  0  0  0  0  0  0  0  0
  140.8840   81.0280  223.7810 C   0  0  0  0  0  0  0  0  0  0  0  0
  140.5460   79.7300  223.4460 C   0  0  0  0  0  0  0  0  0  0  0  0
  139.2240   79.0090  223.4490 C   0  0  0  0  0  0  0  0  0  0  0  0
  139.9280   72.9590  222.5020 C   0  0  0  0  0  0  0  0  0  0  0  0
  140.0150   71.6750  223.2660 C   0  0  0  0  0  0  0  0  0  0  0  0
  138.7575   66.3565  223.4284 H   0  0  0  0  0  0  0  0  0  0  0  0
  137.8547   66.3799  221.8757 H   0  0  0  0  0  0  0  0  0  0  0  0
  139.6357   66.1460  221.8757 H   0  0  0  0  0  0  0  0  0  0  0  0
  140.0627   68.3945  222.3862 H   0  0  0  0  0  0  0  0  0  0  0  0
  138.6367   68.5163  221.3027 H   0  0  0  0  0  0  0  0  0  0  0  0
  139.1116   67.2697  224.9444 H   0  0  0  0  0  0  0  0  0  0  0  0
  140.3295   66.4336  226.9496 H   0  0  0  0  0  0  0  0  0  0  0  0
  141.4409   68.0388  228.4794 H   0  0  0  0  0  0  0  0  0  0  0  0
  141.3364   70.4867  228.0205 H   0  0  0  0  0  0  0  0  0  0  0  0
  140.1186   71.3283  226.0213 H   0  0  0  0  0  0  0  0  0  0  0  0
  138.6059   71.8106  224.7589 H   0  0  0  0  0  0  0  0  0  0  0  0
  137.0223   70.4807  222.8914 H   0  0  0  0  0  0  0  0  0  0  0  0
  136.9289   72.1605  223.6813 H   0  0  0  0  0  0  0  0  0  0  0  0
  138.0450   71.4077  221.0107 H   0  0  0  0  0  0  0  0  0  0  0  0
  136.7001   72.5064  221.3938 H   0  0  0  0  0  0  0  0  0  0  0  0
  140.0665   75.3282  222.3602 H   0  0  0  0  0  0  0  0  0  0  0  0
  139.5735   75.9761  220.7525 H   0  0  0  0  0  0  0  0  0  0  0  0
  138.2577   76.6125  223.4739 H   0  0  0  0  0  0  0  0  0  0  0  0
  137.3760   76.9280  220.6990 H   0  0  0  0  0  0  0  0  0  0  0  0
  136.4900   76.5720  222.1430 H   0  0  0  0  0  0  0  0  0  0  0  0
  139.3434   78.4272  221.3562 H   0  0  0  0  0  0  0  0  0  0  0  0
  140.8342   76.8535  223.6114 H   0  0  0  0  0  0  0  0  0  0  0  0
  141.3435   76.8894  221.9597 H   0  0  0  0  0  0  0  0  0  0  0  0
  143.6280   78.5510  222.5792 H   0  0  0  0  0  0  0  0  0  0  0  0
  144.2111   80.8804  223.1850 H   0  0  0  0  0  0  0  0  0  0  0  0
  142.4719   82.4644  223.9489 H   0  0  0  0  0  0  0  0  0  0  0  0
  140.1102   81.7317  224.1218 H   0  0  0  0  0  0  0  0  0  0  0  0
  139.0264   78.5255  224.4171 H   0  0  0  0  0  0  0  0  0  0  0  0
  138.3474   79.6544  223.2908 H   0  0  0  0  0  0  0  0  0  0  0  0
  140.6588   72.9272  221.6805 H   0  0  0  0  0  0  0  0  0  0  0  0
  140.1368   73.7751  223.2093 H   0  0  0  0  0  0  0  0  0  0  0  0
  140.3857   70.8978  222.5815 H   0  0  0  0  0  0  0  0  0  0  0  0
  140.6849   71.8739  224.1155 H   0  0  0  0  0  0  0  0  0  0  0  0
  1  2  1  0
  2  3  1  0
  3  4  2  0
  3  5  1  0
  5  6  1  0
  6  7  2  0
  7  8  1  0
  8  9  2  0
  9 10  1  0
 10 11  2  0
  5 12  1  0
 12 13  1  0
 13 14  1  0
 14 15  1  0
 15 16  1  0
 16 17  2  0
 16 18  1  0
 18 19  1  0
 19 20  1  0
 19 21  1  0
 21 22  1  0
 22 23  1  0
 23 24  2  0
 24 25  1  0
 25 26  2  0
 26 27  1  0
 27 28  2  0
 28 29  1  0
 15 30  1  0
 30 31  1  0
 11  6  1  0
 31 12  1  0
 29 21  1  0
 28 23  1  0
  1 32  1  0
  1 33  1  0
  1 34  1  0
  2 35  1  0
  2 36  1  0
  7 37  1  0
  8 38  1  0
  9 39  1  0
 10 40  1  0
 11 41  1  0
 12 42  1  0
 13 43  1  0
 13 44  1  0
 14 45  1  0
 14 46  1  0
 18 47  1  0
 18 48  1  0
 19 49  1  1
 20 50  1  0
 20 51  1  0
 21 52  1  0
 22 53  1  0
 22 54  1  0
 24 55  1  0
 25 56  1  0
 26 57  1  0
 27 58  1  0
 29 59  1  0
 29 60  1  0
 30 61  1  0
 30 62  1  0
 31 63  1  0
 31 64  1  0
M  END
>  <smiles>  (25) 
CCC(=O)N(c1ccccc1)C1CCN(C(=O)CC(N)C2Cc3ccccc3C2)CC1

>  <score_type>  (25) 
oracle

>  <origin>  (25) 
autodockgpu

>  <m_score__min__energy>  (25) 
-8.4100000000000001

>  <m_primary>  (25) 
energy

>  <rmsd>  (25) 
7.536913463654165

>  <m_score__min__rmsd>  (25) 
7.536913463654165

>  <meeko>  (25) 
{"free_energy": -7.85, "intermolecular_energy": -10.23, "internal_energy": -2.19, "cluster_size": 18, "cluster_id": 2, "rank_in_cluster": 13}

>  <energy>  (25) 
-8.33

>  <cluster_rmsd>  (25) 
0.0

>  <cluster>  (25) 
2

$$$$

     RDKit          3D

 64 67  0  0  0  0  0  0  0  0999 V2000
  142.6170   78.7120  218.0680 C   0  0  0  0  0  0  0  0  0  0  0  0
  142.1480   79.7110  219.1060 C   0  0  0  0  0  0  0  0  0  0  0  0
  141.0110   79.1160  219.8930 C   0  0  0  0  0  0  0  0  0  0  0  0
  139.9010   79.0960  219.3020 O   0  0  0  0  0  0  0  0  0  0  0  0
  141.2250   78.6290  221.2020 N   0  0  0  0  0  0  0  0  0  0  0  0
  141.6380   79.5480  222.2270 C   0  0  0  0  0  0  0  0  0  0  0  0
  140.6740   80.3580  222.8080 C   0  0  0  0  0  0  0  0  0  0  0  0
  141.0400   81.2560  223.7990 C   0  0  0  0  0  0  0  0  0  0  0  0
  142.3590   81.3380  224.2020 C   0  0  0  0  0  0  0  0  0  0  0  0
  143.3250   80.5210  223.6140 C   0  0  0  0  0  0  0  0  0  0  0  0
  142.9680   79.6230  222.6240 C   0  0  0  0  0  0  0  0  0  0  0  0
  141.0200   77.2170  221.4670 C   0  0  0  0  0  0  0  0  0  0  0  0
  141.1030   76.4290  220.2160 C   0  0  0  0  0  0  0  0  0  0  0  0
  139.9530   75.5490  219.8830 C   0  0  0  0  0  0  0  0  0  0  0  0
  139.5650   74.8760  221.1070 N   0  0  0  0  0  0  0  0  0  0  0  0
  139.4840   73.4650  221.1510 C   0  0  0  0  0  0  0  0  0  0  0  0
  139.7460   72.7820  220.1340 O   0  0  0  0  0  0  0  0  0  0  0  0
  139.0910   72.7390  222.3820 C   0  0  0  0  0  0  0  0  0  0  0  0
  140.1440   71.6840  222.7350 C   0  0  2  0  0  0  0  0  0  0  0  0
  140.1150   70.6340  221.7220 N   0  0  0  0  0  0  0  0  0  0  0  0
  139.7720   71.1400  224.0920 C   0  0  0  0  0  0  0  0  0  0  0  0
  140.8220   71.5860  225.0870 C   0  0  0  0  0  0  0  0  0  0  0  0
  140.5220   70.6320  226.2140 C   0  0  0  0  0  0  0  0  0  0  0  0
  140.6900   70.7240  227.5950 C   0  0  0  0  0  0  0  0  0  0  0  0
  140.3120   69.6640  228.3920 C   0  0  0  0  0  0  0  0  0  0  0  0
  139.7700   68.5130  227.8460 C   0  0  0  0  0  0  0  0  0  0  0  0
  139.5990   68.4120  226.4850 C   0  0  0  0  0  0  0  0  0  0  0  0
  139.9720   69.4650  225.6700 C   0  0  0  0  0  0  0  0  0  0  0  0
  139.9090   69.6450  224.1770 C   0  0  0  0  0  0  0  0  0  0  0  0
  139.2500   75.6230  222.3080 C   0  0  0  0  0  0  0  0  0  0  0  0
  139.8000   77.0140  222.2980 C   0  0  0  0  0  0  0  0  0  0  0  0
  143.0325   77.8270  218.5722 H   0  0  0  0  0  0  0  0  0  0  0  0
  141.7665   78.4101  217.4391 H   0  0  0  0  0  0  0  0  0  0  0  0
  143.3925   79.1735  217.4391 H   0  0  0  0  0  0  0  0  0  0  0  0
  142.9787   79.9517  219.7857 H   0  0  0  0  0  0  0  0  0  0  0  0
  141.8079   80.6295  218.6054 H   0  0  0  0  0  0  0  0  0  0  0  0
  139.6249   80.2885  222.4845 H   0  0  0  0  0  0  0  0  0  0  0  0
  140.2810   81.9024  224.2639 H   0  0  0  0  0  0  0  0  0  0  0  0
  142.6484   82.0498  224.9891 H   0  0  0  0  0  0  0  0  0  0  0  0
  144.3737   80.5911  223.9385 H   0  0  0  0  0  0  0  0  0  0  0  0
  143.7263   78.9771  222.1573 H   0  0  0  0  0  0  0  0  0  0  0  0
  141.8373   76.8164  222.0847 H   0  0  0  0  0  0  0  0  0  0  0  0
  141.2250   77.1403  219.3858 H   0  0  0  0  0  0  0  0  0  0  0  0
  141.9466   75.7409  220.3732 H   0  0  0  0  0  0  0  0  0  0  0  0
  139.1152   76.1508  219.5010 H   0  0  0  0  0  0  0  0  0  0  0  0
  140.2283   74.8212  219.1055 H   0  0  0  0  0  0  0  0  0  0  0  0
  139.0015   73.4546  223.2126 H   0  0  0  0  0  0  0  0  0  0  0  0
  138.1264   72.2389  222.2104 H   0  0  0  0  0  0  0  0  0  0  0  0
  141.1614   72.1015  222.7618 H   0  0  0  0  0  0  0  0  0  0  0  0
  139.1460   70.3680  221.4860 H   0  0  0  0  0  0  0  0  0  0  0  0
  140.6550   70.9560  220.8770 H   0  0  0  0  0  0  0  0  0  0  0  0
  138.7420   71.4786  224.2774 H   0  0  0  0  0  0  0  0  0  0  0  0
  141.8411   71.4507  224.6958 H   0  0  0  0  0  0  0  0  0  0  0  0
  140.7878   72.6521  225.3559 H   0  0  0  0  0  0  0  0  0  0  0  0
  141.1193   71.6319  228.0438 H   0  0  0  0  0  0  0  0  0  0  0  0
  140.4436   69.7343  229.4818 H   0  0  0  0  0  0  0  0  0  0  0  0
  139.4761   67.6793  228.5006 H   0  0  0  0  0  0  0  0  0  0  0  0
  139.1682   67.4993  226.0476 H   0  0  0  0  0  0  0  0  0  0  0  0
  140.8275   69.2919  223.6854 H   0  0  0  0  0  0  0  0  0  0  0  0
  139.1074   69.0802  223.6786 H   0  0  0  0  0  0  0  0  0  0  0  0
  138.1560   75.6803  222.4072 H   0  0  0  0  0  0  0  0  0  0  0  0
  139.7144   75.0939  223.1533 H   0  0  0  0  0  0  0  0  0  0  0  0
  139.0159   77.6854  221.9180 H   0  0  0  0  0  0  0  0  0  0  0  0
  140.1025   77.2259  223.3342 H   0  0  0  0  0  0  0  0  0  0  0  0
  1  2  1  0
  2  3  1  0
  3  4  2  0
  3  5  1  0
  5  6  1  0
  6  7  2  0
  7  8  1  0
  8  9  2  0
  9 10  1  0
 10 11  2  0
  5 12  1  0
 12 13  1  0
 13 14  1  0
 14 15  1  0
 15 16  1  0
 16 17  2  0
 16 18  1  0
 18 19  1  0
 19 20  1  0
 19 21  1  0
 21 22  1  0
 22 23  1  0
 23 24  2  0
 24 25  1  0
 25 26  2  0
 26 27  1  0
 27 28  2  0
 28 29  1  0
 15 30  1  0
 30 31  1  0
 11  6  1  0
 31 12  1  0
 29 21  1  0
 28 23  1  0
  1 32  1  0
  1 33  1  0
  1 34  1  0
  2 35  1  0
  2 36  1  0
  7 37  1  0
  8 38  1  0
  9 39  1  0
 10 40  1  0
 11 41  1  0
 12 42  1  0
 13 43  1  0
 13 44  1  0
 14 45  1  0
 14 46  1  0
 18 47  1  0
 18 48  1  0
 19 49  1  1
 20 50  1  0
 20 51  1  0
 21 52  1  0
 22 53  1  0
 22 54  1  0
 24 55  1  0
 25 56  1  0
 26 57  1  0
 27 58  1  0
 29 59  1  0
 29 60  1  0
 30 61  1  0
 30 62  1  0
 31 63  1  0
 31 64  1  0
M  END
>  <smiles>  (26) 
CCC(=O)N(c1ccccc1)C1CCN(C(=O)CC(N)C2Cc3ccccc3C2)CC1

>  <score_type>  (26) 
oracle

>  <origin>  (26) 
autodockgpu

>  <m_score__min__energy>  (26) 
-8.4100000000000001

>  <m_primary>  (26) 
energy

>  <rmsd>  (26) 
6.236229854891577

>  <m_score__min__rmsd>  (26) 
6.236229854891577

>  <meeko>  (26) 
{"free_energy": -7.92, "intermolecular_energy": -10.3, "internal_energy": -1.95, "cluster_size": 24, "cluster_id": 1, "rank_in_cluster": 11}

>  <energy>  (26) 
-8.27

>  <cluster_rmsd>  (26) 
0.17

>  <cluster>  (26) 
2

$$$$

     RDKit          3D

 64 67  0  0  0  0  0  0  0  0999 V2000
  143.4460   74.9180  218.8940 C   0  0  0  0  0  0  0  0  0  0  0  0
  143.6990   76.1960  219.6670 C   0  0  0  0  0  0  0  0  0  0  0  0
  142.4870   77.0850  219.5700 C   0  0  0  0  0  0  0  0  0  0  0  0
  142.4430   77.8250  218.5540 O   0  0  0  0  0  0  0  0  0  0  0  0
  141.4970   77.0550  220.5780 N   0  0  0  0  0  0  0  0  0  0  0  0
  141.4650   78.1110  221.5520 C   0  0  0  0  0  0  0  0  0  0  0  0
  141.4330   77.7650  222.8940 C   0  0  0  0  0  0  0  0  0  0  0  0
  141.4010   78.7600  223.8590 C   0  0  0  0  0  0  0  0  0  0  0  0
  141.4030   80.0890  223.4780 C   0  0  0  0  0  0  0  0  0  0  0  0
  141.4360   80.4320  222.1260 C   0  0  0  0  0  0  0  0  0  0  0  0
  141.4660   79.4450  221.1580 C   0  0  0  0  0  0  0  0  0  0  0  0
  140.5460   75.9590  220.5930 C   0  0  0  0  0  0  0  0  0  0  0  0
  139.2130   76.4250  221.0380 C   0  0  0  0  0  0  0  0  0  0  0  0
  138.5860   75.7170  222.1840 C   0  0  0  0  0  0  0  0  0  0  0  0
  138.7940   74.2970  221.9710 N   0  0  0  0  0  0  0  0  0  0  0  0
  137.6950   73.4070  221.9720 C   0  0  0  0  0  0  0  0  0  0  0  0
  136.5320   73.8340  222.1560 O   0  0  0  0  0  0  0  0  0  0  0  0
  137.8660   71.9500  221.7580 C   0  0  0  0  0  0  0  0  0  0  0  0
  137.2090   71.1670  222.8990 C   0  0  2  0  0  0  0  0  0  0  0  0
  136.6460   72.1140  223.8570 N   0  0  0  0  0  0  0  0  0  0  0  0
  138.2950   70.3350  223.5340 C   0  0  0  0  0  0  0  0  0  0  0  0
  137.6550   69.4130  224.5500 C   0  0  0  0  0  0  0  0  0  0  0  0
  138.8790   69.0110  225.3310 C   0  0  0  0  0  0  0  0  0  0  0  0
  139.1970   67.8640  226.0580 C   0  0  0  0  0  0  0  0  0  0  0  0
  140.4250   67.7790  226.6800 C   0  0  0  0  0  0  0  0  0  0  0  0
  141.3450   68.8100  226.5940 C   0  0  0  0  0  0  0  0  0  0  0  0
  141.0420   69.9450  225.8780 C   0  0  0  0  0  0  0  0  0  0  0  0
  139.8160   70.0470  225.2490 C   0  0  0  0  0  0  0  0  0  0  0  0
  139.2100   71.1430  224.4110 C   0  0  0  0  0  0  0  0  0  0  0  0
  140.1210   73.7560  221.7550 C   0  0  0  0  0  0  0  0  0  0  0  0
  141.1130   74.7870  221.3170 C   0  0  0  0  0  0  0  0  0  0  0  0
  143.2820   74.0895  219.5988 H   0  0  0  0  0  0  0  0  0  0  0  0
  142.5551   75.0427  218.2609 H   0  0  0  0  0  0  0  0  0  0  0  0
  144.3172   74.6938  218.2609 H   0  0  0  0  0  0  0  0  0  0  0  0
  143.8940   75.9546  220.7223 H   0  0  0  0  0  0  0  0  0  0  0  0
  144.5717   76.7155  219.2444 H   0  0  0  0  0  0  0  0  0  0  0  0
  141.4330   76.7061  223.1918 H   0  0  0  0  0  0  0  0  0  0  0  0
  141.3741   78.4925  224.9256 H   0  0  0  0  0  0  0  0  0  0  0  0
  141.3785   80.8787  224.2434 H   0  0  0  0  0  0  0  0  0  0  0  0
  141.4382   81.4912  221.8291 H   0  0  0  0  0  0  0  0  0  0  0  0
  141.4903   79.7112  220.0910 H   0  0  0  0  0  0  0  0  0  0  0  0
  140.3679   75.5869  219.5733 H   0  0  0  0  0  0  0  0  0  0  0  0
  139.3110   77.4840  221.3187 H   0  0  0  0  0  0  0  0  0  0  0  0
  138.5470   76.2237  220.1860 H   0  0  0  0  0  0  0  0  0  0  0  0
  139.0589   76.0308  223.1263 H   0  0  0  0  0  0  0  0  0  0  0  0
  137.5132   75.9508  222.2503 H   0  0  0  0  0  0  0  0  0  0  0  0
  137.3969   71.6653  220.8047 H   0  0  0  0  0  0  0  0  0  0  0  0
  138.9402   71.7145  221.7331 H   0  0  0  0  0  0  0  0  0  0  0  0
  136.3946   70.5181  222.5444 H   0  0  0  0  0  0  0  0  0  0  0  0
  137.2700   72.9270  223.9900 H   0  0  0  0  0  0  0  0  0  0  0  0
  135.6860   72.4000  223.5330 H   0  0  0  0  0  0  0  0  0  0  0  0
  138.8289   69.8549  222.7006 H   0  0  0  0  0  0  0  0  0  0  0  0
  136.9228   69.9409  225.1786 H   0  0  0  0  0  0  0  0  0  0  0  0
  137.0772   68.5789  224.1252 H   0  0  0  0  0  0  0  0  0  0  0  0
  138.4764   67.0364  226.1344 H   0  0  0  0  0  0  0  0  0  0  0  0
  140.6780   66.8759  227.2547 H   0  0  0  0  0  0  0  0  0  0  0  0
  142.3186   68.7216  227.0983 H   0  0  0  0  0  0  0  0  0  0  0  0
  141.7709   70.7658  225.8068 H   0  0  0  0  0  0  0  0  0  0  0  0
  138.6521   71.8645  225.0260 H   0  0  0  0  0  0  0  0  0  0  0  0
  139.9380   71.7642  223.8686 H   0  0  0  0  0  0  0  0  0  0  0  0
  140.4738   73.3088  222.6960 H   0  0  0  0  0  0  0  0  0  0  0  0
  140.0439   73.0125  220.9480 H   0  0  0  0  0  0  0  0  0  0  0  0
  141.6307   75.1606  222.2128 H   0  0  0  0  0  0  0  0  0  0  0  0
  141.7754   74.2814  220.5990 H   0  0  0  0  0  0  0  0  0  0  0  0
  1  2  1  0
  2  3  1  0
  3  4  2  0
  3  5  1  0
  5  6  1  0
  6  7  2  0
  7  8  1  0
  8  9  2  0
  9 10  1  0
 10 11  2  0
  5 12  1  0
 12 13  1  0
 13 14  1  0
 14 15  1  0
 15 16  1  0
 16 17  2  0
 16 18  1  0
 18 19  1  0
 19 20  1  0
 19 21  1  0
 21 22  1  0
 22 23  1  0
 23 24  2  0
 24 25  1  0
 25 26  2  0
 26 27  1  0
 27 28  2  0
 28 29  1  0
 15 30  1  0
 30 31  1  0
 11  6  1  0
 31 12  1  0
 29 21  1  0
 28 23  1  0
  1 32  1  0
  1 33  1  0
  1 34  1  0
  2 35  1  0
  2 36  1  0
  7 37  1  0
  8 38  1  0
  9 39  1  0
 10 40  1  0
 11 41  1  0
 12 42  1  0
 13 43  1  0
 13 44  1  0
 14 45  1  0
 14 46  1  0
 18 47  1  0
 18 48  1  0
 19 49  1  6
 20 50  1  0
 20 51  1  0
 21 52  1  0
 22 53  1  0
 22 54  1  0
 24 55  1  0
 25 56  1  0
 26 57  1  0
 27 58  1  0
 29 59  1  0
 29 60  1  0
 30 61  1  0
 30 62  1  0
 31 63  1  0
 31 64  1  0
M  END
>  <smiles>  (27) 
CCC(=O)N(c1ccccc1)C1CCN(C(=O)CC(N)C2Cc3ccccc3C2)CC1

>  <score_type>  (27) 
oracle

>  <origin>  (27) 
autodockgpu

>  <m_score__min__energy>  (27) 
-8.4100000000000001

>  <m_primary>  (27) 
energy

>  <rmsd>  (27) 
6.807788826687211

>  <m_score__min__rmsd>  (27) 
6.807788826687211

>  <meeko>  (27) 
{"free_energy": -7.67, "intermolecular_energy": -10.06, "internal_energy": -2.33, "cluster_size": 5, "cluster_id": 5, "rank_in_cluster": 4}

>  <energy>  (27) 
-8.26

>  <cluster_rmsd>  (27) 
0.1

>  <cluster>  (27) 
2

$$$$

     RDKit          3D

 64 67  0  0  0  0  0  0  0  0999 V2000
  139.2040   68.5400  221.6020 C   0  0  0  0  0  0  0  0  0  0  0  0
  138.7710   67.7580  222.8260 C   0  0  0  0  0  0  0  0  0  0  0  0
  138.0620   68.6810  223.7820 C   0  0  0  0  0  0  0  0  0  0  0  0
  136.8200   68.5020  223.8790 O   0  0  0  0  0  0  0  0  0  0  0  0
  138.7830   69.6640  224.4950 N   0  0  0  0  0  0  0  0  0  0  0  0
  139.5540   69.2650  225.6400 C   0  0  0  0  0  0  0  0  0  0  0  0
  139.8530   67.9200  225.7930 C   0  0  0  0  0  0  0  0  0  0  0  0
  140.5950   67.5020  226.8870 C   0  0  0  0  0  0  0  0  0  0  0  0
  141.0330   68.4270  227.8160 C   0  0  0  0  0  0  0  0  0  0  0  0
  140.7300   69.7800  227.6570 C   0  0  0  0  0  0  0  0  0  0  0  0
  139.9900   70.2030  226.5690 C   0  0  0  0  0  0  0  0  0  0  0  0
  138.7220   71.0430  224.0450 C   0  0  0  0  0  0  0  0  0  0  0  0
  137.5430   71.2610  223.1760 C   0  0  0  0  0  0  0  0  0  0  0  0
  137.7820   71.8410  221.8290 C   0  0  0  0  0  0  0  0  0  0  0  0
  138.7370   72.9200  221.9960 N   0  0  0  0  0  0  0  0  0  0  0  0
  138.4360   74.2180  221.5210 C   0  0  0  0  0  0  0  0  0  0  0  0
  137.3440   74.4490  220.9530 O   0  0  0  0  0  0  0  0  0  0  0  0
  139.3840   75.3470  221.6710 C   0  0  0  0  0  0  0  0  0  0  0  0
  138.7580   76.4560  222.5220 C   0  0  2  0  0  0  0  0  0  0  0  0
  137.3780   76.6590  222.0890 N   0  0  0  0  0  0  0  0  0  0  0  0
  139.5860   77.6960  222.2950 C   0  0  0  0  0  0  0  0  0  0  0  0
  140.9850   77.4340  222.8110 C   0  0  0  0  0  0  0  0  0  0  0  0
  141.4940   78.8500  222.8870 C   0  0  0  0  0  0  0  0  0  0  0  0
  142.7730   79.3970  222.7850 C   0  0  0  0  0  0  0  0  0  0  0  0
  142.9320   80.7630  222.8980 C   0  0  0  0  0  0  0  0  0  0  0  0
  141.8470   81.5970  223.1090 C   0  0  0  0  0  0  0  0  0  0  0  0
  140.5820   81.0670  223.2110 C   0  0  0  0  0  0  0  0  0  0  0  0
  140.4030   79.7010  223.1000 C   0  0  0  0  0  0  0  0  0  0  0  0
  139.1650   78.8460  223.1680 C   0  0  0  0  0  0  0  0  0  0  0  0
  140.0130   72.7010  222.6450 C   0  0  0  0  0  0  0  0  0  0  0  0
  140.0390   71.4710  223.4950 C   0  0  0  0  0  0  0  0  0  0  0  0
  139.7145   69.4619  221.9175 H   0  0  0  0  0  0  0  0  0  0  0  0
  139.8916   67.9278  221.0001 H   0  0  0  0  0  0  0  0  0  0  0  0
  138.3202   68.7979  221.0001 H   0  0  0  0  0  0  0  0  0  0  0  0
  138.0899   66.9491  222.5231 H   0  0  0  0  0  0  0  0  0  0  0  0
  139.6546   67.3258  223.3184 H   0  0  0  0  0  0  0  0  0  0  0  0
  139.5033   67.1880  225.0501 H   0  0  0  0  0  0  0  0  0  0  0  0
  140.8347   66.4361  227.0154 H   0  0  0  0  0  0  0  0  0  0  0  0
  141.6224   68.0956  228.6836 H   0  0  0  0  0  0  0  0  0  0  0  0
  141.0810   70.5117  228.3996 H   0  0  0  0  0  0  0  0  0  0  0  0
  139.7490   71.2685  226.4397 H   0  0  0  0  0  0  0  0  0  0  0  0
  138.5515   71.7207  224.8945 H   0  0  0  0  0  0  0  0  0  0  0  0
  137.0542   70.2860  223.0330 H   0  0  0  0  0  0  0  0  0  0  0  0
  136.9414   72.0158  223.7036 H   0  0  0  0  0  0  0  0  0  0  0  0
  138.1919   71.0745  221.1548 H   0  0  0  0  0  0  0  0  0  0  0  0
  136.8444   72.2109  221.3885 H   0  0  0  0  0  0  0  0  0  0  0  0
  140.3015   74.9881  222.1602 H   0  0  0  0  0  0  0  0  0  0  0  0
  139.6213   75.7502  220.6755 H   0  0  0  0  0  0  0  0  0  0  0  0
  138.7443   76.2029  223.5924 H   0  0  0  0  0  0  0  0  0  0  0  0
  137.3070   76.6700  221.0590 H   0  0  0  0  0  0  0  0  0  0  0  0
  136.7690   75.9170  222.5210 H   0  0  0  0  0  0  0  0  0  0  0  0
  139.4909   77.9265  221.2236 H   0  0  0  0  0  0  0  0  0  0  0  0
  140.9737   76.9489  223.7982 H   0  0  0  0  0  0  0  0  0  0  0  0
  141.5901   76.7524  222.1952 H   0  0  0  0  0  0  0  0  0  0  0  0
  143.6444   78.7472  222.6165 H   0  0  0  0  0  0  0  0  0  0  0  0
  143.9395   81.1975  222.8190 H   0  0  0  0  0  0  0  0  0  0  0  0
  141.9968   82.6834  223.1950 H   0  0  0  0  0  0  0  0  0  0  0  0
  139.7179   81.7263  223.3799 H   0  0  0  0  0  0  0  0  0  0  0  0
  138.9515   78.5196  224.1965 H   0  0  0  0  0  0  0  0  0  0  0  0
  138.2392   79.3494  222.8525 H   0  0  0  0  0  0  0  0  0  0  0  0
  140.7877   72.6065  221.8698 H   0  0  0  0  0  0  0  0  0  0  0  0
  140.1938   73.5599  223.3080 H   0  0  0  0  0  0  0  0  0  0  0  0
  140.4358   70.6460  222.8851 H   0  0  0  0  0  0  0  0  0  0  0  0
  140.6636   71.7191  224.3658 H   0  0  0  0  0  0  0  0  0  0  0  0
  1  2  1  0
  2  3  1  0
  3  4  2  0
  3  5  1  0
  5  6  1  0
  6  7  2  0
  7  8  1  0
  8  9  2  0
  9 10  1  0
 10 11  2  0
  5 12  1  0
 12 13  1  0
 13 14  1  0
 14 15  1  0
 15 16  1  0
 16 17  2  0
 16 18  1  0
 18 19  1  0
 19 20  1  0
 19 21  1  0
 21 22  1  0
 22 23  1  0
 23 24  2  0
 24 25  1  0
 25 26  2  0
 26 27  1  0
 27 28  2  0
 28 29  1  0
 15 30  1  0
 30 31  1  0
 11  6  1  0
 31 12  1  0
 29 21  1  0
 28 23  1  0
  1 32  1  0
  1 33  1  0
  1 34  1  0
  2 35  1  0
  2 36  1  0
  7 37  1  0
  8 38  1  0
  9 39  1  0
 10 40  1  0
 11 41  1  0
 12 42  1  0
 13 43  1  0
 13 44  1  0
 14 45  1  0
 14 46  1  0
 18 47  1  0
 18 48  1  0
 19 49  1  1
 20 50  1  0
 20 51  1  0
 21 52  1  0
 22 53  1  0
 22 54  1  0
 24 55  1  0
 25 56  1  0
 26 57  1  0
 27 58  1  0
 29 59  1  0
 29 60  1  0
 30 61  1  0
 30 62  1  0
 31 63  1  0
 31 64  1  0
M  END
>  <smiles>  (28) 
CCC(=O)N(c1ccccc1)C1CCN(C(=O)CC(N)C2Cc3ccccc3C2)CC1

>  <score_type>  (28) 
oracle

>  <origin>  (28) 
autodockgpu

>  <m_score__min__energy>  (28) 
-8.4100000000000001

>  <m_primary>  (28) 
energy

>  <rmsd>  (28) 
7.6062419881846175

>  <m_score__min__rmsd>  (28) 
7.6062419881846175

>  <meeko>  (28) 
{"free_energy": -7.79, "intermolecular_energy": -10.17, "internal_energy": -2.25, "cluster_size": 18, "cluster_id": 2, "rank_in_cluster": 16}

>  <energy>  (28) 
-8.18

>  <cluster_rmsd>  (28) 
0.4

>  <cluster>  (28) 
2

$$$$

     RDKit          3D

 64 67  0  0  0  0  0  0  0  0999 V2000
  142.4130   80.0700  223.4160 C   0  0  0  0  0  0  0  0  0  0  0  0
  141.8140   78.6780  223.4230 C   0  0  0  0  0  0  0  0  0  0  0  0
  140.6640   78.6260  222.4530 C   0  0  0  0  0  0  0  0  0  0  0  0
  139.5930   79.1470  222.8590 O   0  0  0  0  0  0  0  0  0  0  0  0
  140.8240   78.0210  221.1860 N   0  0  0  0  0  0  0  0  0  0  0  0
  141.4330   78.7790  220.1270 C   0  0  0  0  0  0  0  0  0  0  0  0
  141.3330   80.1610  220.1680 C   0  0  0  0  0  0  0  0  0  0  0  0
  141.9100   80.9210  219.1620 C   0  0  0  0  0  0  0  0  0  0  0  0
  142.5810   80.2980  218.1280 C   0  0  0  0  0  0  0  0  0  0  0  0
  142.6800   78.9060  218.0910 C   0  0  0  0  0  0  0  0  0  0  0  0
  142.1070   78.1420  219.0910 C   0  0  0  0  0  0  0  0  0  0  0  0
  140.3690   76.6560  220.9980 C   0  0  0  0  0  0  0  0  0  0  0  0
  138.9260   76.5350  221.3060 C   0  0  0  0  0  0  0  0  0  0  0  0
  138.5220   75.5140  222.3070 C   0  0  0  0  0  0  0  0  0  0  0  0
  139.2770   74.3100  222.0130 N   0  0  0  0  0  0  0  0  0  0  0  0
  138.6080   73.0820  221.8070 C   0  0  0  0  0  0  0  0  0  0  0  0
  137.3590   73.0180  221.8770 O   0  0  0  0  0  0  0  0  0  0  0  0
  139.3430   71.8300  221.5060 C   0  0  0  0  0  0  0  0  0  0  0  0
  138.7090   70.6500  222.2500 C   0  0  2  0  0  0  0  0  0  0  0  0
  137.2900   70.5900  221.9130 N   0  0  0  0  0  0  0  0  0  0  0  0
  138.9060   70.9120  223.7220 C   0  0  0  0  0  0  0  0  0  0  0  0
  140.3060   71.4520  223.9260 C   0  0  0  0  0  0  0  0  0  0  0  0
  140.4430   71.2430  225.4120 C   0  0  0  0  0  0  0  0  0  0  0  0
  141.1830   71.9050  226.3910 C   0  0  0  0  0  0  0  0  0  0  0  0
  141.1030   71.4770  227.7000 C   0  0  0  0  0  0  0  0  0  0  0  0
  140.3030   70.4050  228.0570 C   0  0  0  0  0  0  0  0  0  0  0  0
  139.5680   69.7470  227.0990 C   0  0  0  0  0  0  0  0  0  0  0  0
  139.6360   70.1610  225.7820 C   0  0  0  0  0  0  0  0  0  0  0  0
  138.9620   69.6490  224.5360 C   0  0  0  0  0  0  0  0  0  0  0  0
  140.7230   74.3330  221.9240 C   0  0  0  0  0  0  0  0  0  0  0  0
  141.2780   75.7030  221.6950 C   0  0  0  0  0  0  0  0  0  0  0  0
  142.5598   80.4112  224.4514 H   0  0  0  0  0  0  0  0  0  0  0  0
  143.3820   80.0496  222.8958 H   0  0  0  0  0  0  0  0  0  0  0  0
  141.7320   80.7596  222.8958 H   0  0  0  0  0  0  0  0  0  0  0  0
  142.5798   77.9470  223.1244 H   0  0  0  0  0  0  0  0  0  0  0  0
  141.4542   78.4369  224.4341 H   0  0  0  0  0  0  0  0  0  0  0  0
  140.7986   80.6523  220.9945 H   0  0  0  0  0  0  0  0  0  0  0  0
  141.8335   82.0180  219.1874 H   0  0  0  0  0  0  0  0  0  0  0  0
  143.0393   80.9011  217.3304 H   0  0  0  0  0  0  0  0  0  0  0  0
  143.2151   78.4158  217.2644 H   0  0  0  0  0  0  0  0  0  0  0  0
  142.1834   77.0449  219.0672 H   0  0  0  0  0  0  0  0  0  0  0  0
  140.4362   76.3674  219.9387 H   0  0  0  0  0  0  0  0  0  0  0  0
  138.5850   77.5129  221.6766 H   0  0  0  0  0  0  0  0  0  0  0  0
  138.4651   76.2022  220.3643 H   0  0  0  0  0  0  0  0  0  0  0  0
  138.7548   75.8675  223.3223 H   0  0  0  0  0  0  0  0  0  0  0  0
  137.4402   75.3212  222.2567 H   0  0  0  0  0  0  0  0  0  0  0  0
  139.3060   71.6387  220.4234 H   0  0  0  0  0  0  0  0  0  0  0  0
  140.3874   71.9403  221.8333 H   0  0  0  0  0  0  0  0  0  0  0  0
  139.1648   69.6879  221.9733 H   0  0  0  0  0  0  0  0  0  0  0  0
  136.7130   71.0480  222.6380 H   0  0  0  0  0  0  0  0  0  0  0  0
  137.1440   71.0170  220.9610 H   0  0  0  0  0  0  0  0  0  0  0  0
  138.0758   71.5684  224.0217 H   0  0  0  0  0  0  0  0  0  0  0  0
  141.0536   70.8764  223.3606 H   0  0  0  0  0  0  0  0  0  0  0  0
  140.4622   72.4856  223.5836 H   0  0  0  0  0  0  0  0  0  0  0  0
  141.8230   72.7585  226.1227 H   0  0  0  0  0  0  0  0  0  0  0  0
  141.6857   71.9972  228.4745 H   0  0  0  0  0  0  0  0  0  0  0  0
  140.2553   70.0797  229.1067 H   0  0  0  0  0  0  0  0  0  0  0  0
  138.9296   68.8961  227.3791 H   0  0  0  0  0  0  0  0  0  0  0  0
  139.5610   68.8712  224.0397 H   0  0  0  0  0  0  0  0  0  0  0  0
  137.9879   69.1666  224.7047 H   0  0  0  0  0  0  0  0  0  0  0  0
  141.1374   73.9407  222.8644 H   0  0  0  0  0  0  0  0  0  0  0  0
  141.0069   73.7166  221.0583 H   0  0  0  0  0  0  0  0  0  0  0  0
  141.5331   76.1332  222.6747 H   0  0  0  0  0  0  0  0  0  0  0  0
  142.1437   75.5704  221.0295 H   0  0  0  0  0  0  0  0  0  0  0  0
  1  2  1  0
  2  3  1  0
  3  4  2  0
  3  5  1  0
  5  6  1  0
  6  7  2  0
  7  8  1  0
  8  9  2  0
  9 10  1  0
 10 11  2  0
  5 12  1  0
 12 13  1  0
 13 14  1  0
 14 15  1  0
 15 16  1  0
 16 17  2  0
 16 18  1  0
 18 19  1  0
 19 20  1  0
 19 21  1  0
 21 22  1  0
 22 23  1  0
 23 24  2  0
 24 25  1  0
 25 26  2  0
 26 27  1  0
 27 28  2  0
 28 29  1  0
 15 30  1  0
 30 31  1  0
 11  6  1  0
 31 12  1  0
 29 21  1  0
 28 23  1  0
  1 32  1  0
  1 33  1  0
  1 34  1  0
  2 35  1  0
  2 36  1  0
  7 37  1  0
  8 38  1  0
  9 39  1  0
 10 40  1  0
 11 41  1  0
 12 42  1  0
 13 43  1  0
 13 44  1  0
 14 45  1  0
 14 46  1  0
 18 47  1  0
 18 48  1  0
 19 49  1  6
 20 50  1  0
 20 51  1  0
 21 52  1  0
 22 53  1  0
 22 54  1  0
 24 55  1  0
 25 56  1  0
 26 57  1  0
 27 58  1  0
 29 59  1  0
 29 60  1  0
 30 61  1  0
 30 62  1  0
 31 63  1  0
 31 64  1  0
M  END
>  <smiles>  (29) 
CCC(=O)N(c1ccccc1)C1CCN(C(=O)CC(N)C2Cc3ccccc3C2)CC1

>  <score_type>  (29) 
oracle

>  <origin>  (29) 
autodockgpu

>  <m_score__min__energy>  (29) 
-8.4100000000000001

>  <m_primary>  (29) 
energy

>  <rmsd>  (29) 
6.616279780264827

>  <m_score__min__rmsd>  (29) 
6.616279780264827

>  <meeko>  (29) 
{"free_energy": -7.37, "intermolecular_energy": -9.75, "internal_energy": -2.47, "cluster_size": 24, "cluster_id": 1, "rank_in_cluster": 24}

>  <energy>  (29) 
-8.11

>  <cluster_rmsd>  (29) 
1.18

>  <cluster>  (29) 
2

$$$$

     RDKit          3D

 64 67  0  0  0  0  0  0  0  0999 V2000
  141.7150   81.0560  218.8550 C   0  0  0  0  0  0  0  0  0  0  0  0
  140.9240   79.7780  219.0460 C   0  0  0  0  0  0  0  0  0  0  0  0
  141.8070   78.7350  219.6810 C   0  0  0  0  0  0  0  0  0  0  0  0
  142.6780   78.2360  218.9240 O   0  0  0  0  0  0  0  0  0  0  0  0
  141.6280   78.3770  221.0360 N   0  0  0  0  0  0  0  0  0  0  0  0
  141.7680   79.3890  222.0460 C   0  0  0  0  0  0  0  0  0  0  0  0
  140.6770   80.2000  222.3180 C   0  0  0  0  0  0  0  0  0  0  0  0
  140.7800   81.1860  223.2880 C   0  0  0  0  0  0  0  0  0  0  0  0
  141.9660   81.3540  223.9760 C   0  0  0  0  0  0  0  0  0  0  0  0
  143.0610   80.5350  223.6990 C   0  0  0  0  0  0  0  0  0  0  0  0
  142.9660   79.5500  222.7330 C   0  0  0  0  0  0  0  0  0  0  0  0
  141.3070   76.9990  221.3600 C   0  0  0  0  0  0  0  0  0  0  0  0
  141.4690   76.1280  220.1740 C   0  0  0  0  0  0  0  0  0  0  0  0
  140.3060   75.2950  219.7710 C   0  0  0  0  0  0  0  0  0  0  0  0
  139.7510   74.7270  220.9850 N   0  0  0  0  0  0  0  0  0  0  0  0
  139.5770   73.3280  221.1020 C   0  0  0  0  0  0  0  0  0  0  0  0
  139.9000   72.5660  220.1620 O   0  0  0  0  0  0  0  0  0  0  0  0
  139.0130   72.7080  222.3240 C   0  0  0  0  0  0  0  0  0  0  0  0
  139.5780   71.2970  222.5130 C   0  0  2  0  0  0  0  0  0  0  0  0
  138.8170   70.3700  221.6790 N   0  0  0  0  0  0  0  0  0  0  0  0
  139.4250   70.9610  223.9750 C   0  0  0  0  0  0  0  0  0  0  0  0
  140.6190   71.5210  224.7190 C   0  0  0  0  0  0  0  0  0  0  0  0
  140.5010   70.7460  226.0050 C   0  0  0  0  0  0  0  0  0  0  0  0
  140.8850   71.0320  227.3150 C   0  0  0  0  0  0  0  0  0  0  0  0
  140.6380   70.1060  228.3070 C   0  0  0  0  0  0  0  0  0  0  0  0
  140.0160   68.9020  228.0250 C   0  0  0  0  0  0  0  0  0  0  0  0
  139.6320   68.6110  226.7380 C   0  0  0  0  0  0  0  0  0  0  0  0
  139.8720   69.5270  225.7300 C   0  0  0  0  0  0  0  0  0  0  0  0
  139.5740   69.4910  224.2540 C   0  0  0  0  0  0  0  0  0  0  0  0
  139.3620   75.5670  222.0980 C   0  0  0  0  0  0  0  0  0  0  0  0
  139.9970   76.9210  222.0650 C   0  0  0  0  0  0  0  0  0  0  0  0
  141.9752   81.4765  219.8376 H   0  0  0  0  0  0  0  0  0  0  0  0
  142.6357   80.8370  218.2944 H   0  0  0  0  0  0  0  0  0  0  0  0
  141.1083   81.7824  218.2944 H   0  0  0  0  0  0  0  0  0  0  0  0
  140.0603   79.9746  219.6983 H   0  0  0  0  0  0  0  0  0  0  0  0
  140.5692   79.4153  218.0700 H   0  0  0  0  0  0  0  0  0  0  0  0
  139.7347   80.0622  221.7674 H   0  0  0  0  0  0  0  0  0  0  0  0
  139.9185   81.8333  223.5091 H   0  0  0  0  0  0  0  0  0  0  0  0
  142.0474   82.1363  224.7450 H   0  0  0  0  0  0  0  0  0  0  0  0
  144.0026   80.6732  224.2506 H   0  0  0  0  0  0  0  0  0  0  0  0
  143.8270   78.9024  222.5110 H   0  0  0  0  0  0  0  0  0  0  0  0
  142.0285   76.5933  222.0845 H   0  0  0  0  0  0  0  0  0  0  0  0
  141.7217   76.7756  219.3215 H   0  0  0  0  0  0  0  0  0  0  0  0
  142.2460   75.4044  220.4615 H   0  0  0  0  0  0  0  0  0  0  0  0
  139.5524   75.9172  219.2660 H   0  0  0  0  0  0  0  0  0  0  0  0
  140.6133   74.5034  219.0717 H   0  0  0  0  0  0  0  0  0  0  0  0
  139.2746   73.3237  223.1972 H   0  0  0  0  0  0  0  0  0  0  0  0
  137.9196   72.6450  222.2215 H   0  0  0  0  0  0  0  0  0  0  0  0
  140.6359   71.2289  222.2193 H   0  0  0  0  0  0  0  0  0  0  0  0
  137.8390   70.2940  222.0020 H   0  0  0  0  0  0  0  0  0  0  0  0
  138.8810   70.6800  220.6750 H   0  0  0  0  0  0  0  0  0  0  0  0
  138.4368   71.3456  224.2674 H   0  0  0  0  0  0  0  0  0  0  0  0
  141.5637   71.3078  224.1973 H   0  0  0  0  0  0  0  0  0  0  0  0
  140.6272   72.6151  224.8324 H   0  0  0  0  0  0  0  0  0  0  0  0
  141.3792   71.9852  227.5543 H   0  0  0  0  0  0  0  0  0  0  0  0
  140.9408   70.3283  229.3409 H   0  0  0  0  0  0  0  0  0  0  0  0
  139.8290   68.1777  228.8315 H   0  0  0  0  0  0  0  0  0  0  0  0
  139.1368   67.6554  226.5110 H   0  0  0  0  0  0  0  0  0  0  0  0
  140.4036   69.0500  223.6818 H   0  0  0  0  0  0  0  0  0  0  0  0
  138.7042   68.8784  223.9743 H   0  0  0  0  0  0  0  0  0  0  0  0
  138.2694   75.6927  222.0759 H   0  0  0  0  0  0  0  0  0  0  0  0
  139.7023   75.0689  223.0178 H   0  0  0  0  0  0  0  0  0  0  0  0
  139.3009   77.6094  221.5634 H   0  0  0  0  0  0  0  0  0  0  0  0
  140.2026   77.1833  223.1133 H   0  0  0  0  0  0  0  0  0  0  0  0
  1  2  1  0
  2  3  1  0
  3  4  2  0
  3  5  1  0
  5  6  1  0
  6  7  2  0
  7  8  1  0
  8  9  2  0
  9 10  1  0
 10 11  2  0
  5 12  1  0
 12 13  1  0
 13 14  1  0
 14 15  1  0
 15 16  1  0
 16 17  2  0
 16 18  1  0
 18 19  1  0
 19 20  1  0
 19 21  1  0
 21 22  1  0
 22 23  1  0
 23 24  2  0
 24 25  1  0
 25 26  2  0
 26 27  1  0
 27 28  2  0
 28 29  1  0
 15 30  1  0
 30 31  1  0
 11  6  1  0
 31 12  1  0
 29 21  1  0
 28 23  1  0
  1 32  1  0
  1 33  1  0
  1 34  1  0
  2 35  1  0
  2 36  1  0
  7 37  1  0
  8 38  1  0
  9 39  1  0
 10 40  1  0
 11 41  1  0
 12 42  1  0
 13 43  1  0
 13 44  1  0
 14 45  1  0
 14 46  1  0
 18 47  1  0
 18 48  1  0
 19 49  1  6
 20 50  1  0
 20 51  1  0
 21 52  1  0
 22 53  1  0
 22 54  1  0
 24 55  1  0
 25 56  1  0
 26 57  1  0
 27 58  1  0
 29 59  1  0
 29 60  1  0
 30 61  1  0
 30 62  1  0
 31 63  1  0
 31 64  1  0
M  END
>  <smiles>  (30) 
CCC(=O)N(c1ccccc1)C1CCN(C(=O)CC(N)C2Cc3ccccc3C2)CC1

>  <score_type>  (30) 
oracle

>  <origin>  (30) 
autodockgpu

>  <m_score__min__energy>  (30) 
-8.4100000000000001

>  <m_primary>  (30) 
energy

>  <rmsd>  (30) 
6.374396601396544

>  <m_score__min__rmsd>  (30) 
6.374396601396544

>  <meeko>  (30) 
{"free_energy": -7.95, "intermolecular_energy": -10.34, "internal_energy": -1.77, "cluster_size": 24, "cluster_id": 1, "rank_in_cluster": 10}

>  <energy>  (30) 
-8.06

>  <cluster_rmsd>  (30) 
1.28

>  <cluster>  (30) 
2

$$$$

     RDKit          3D

 64 67  0  0  0  0  0  0  0  0999 V2000
  142.2130   80.7900  218.6720 C   0  0  0  0  0  0  0  0  0  0  0  0
  142.1710   79.3160  219.0210 C   0  0  0  0  0  0  0  0  0  0  0  0
  141.0020   79.0530  219.9340 C   0  0  0  0  0  0  0  0  0  0  0  0
  139.8700   79.2830  219.4360 O   0  0  0  0  0  0  0  0  0  0  0  0
  141.2140   78.5840  221.2500 N   0  0  0  0  0  0  0  0  0  0  0  0
  141.6250   79.5170  222.2620 C   0  0  0  0  0  0  0  0  0  0  0  0
  140.6600   80.3350  222.8300 C   0  0  0  0  0  0  0  0  0  0  0  0
  141.0240   81.2470  223.8100 C   0  0  0  0  0  0  0  0  0  0  0  0
  142.3420   81.3330  224.2150 C   0  0  0  0  0  0  0  0  0  0  0  0
  143.3090   80.5080  223.6400 C   0  0  0  0  0  0  0  0  0  0  0  0
  142.9540   79.5970  222.6620 C   0  0  0  0  0  0  0  0  0  0  0  0
  141.0080   77.1760  221.5330 C   0  0  0  0  0  0  0  0  0  0  0  0
  141.2560   76.3540  220.3270 C   0  0  0  0  0  0  0  0  0  0  0  0
  140.1730   75.4370  219.8870 C   0  0  0  0  0  0  0  0  0  0  0  0
  139.6550   74.7910  221.0770 N   0  0  0  0  0  0  0  0  0  0  0  0
  139.6000   73.3800  221.1560 C   0  0  0  0  0  0  0  0  0  0  0  0
  139.9960   72.6740  220.2000 O   0  0  0  0  0  0  0  0  0  0  0  0
  139.0770   72.6810  222.3540 C   0  0  0  0  0  0  0  0  0  0  0  0
  139.8490   71.3790  222.5880 C   0  0  2  0  0  0  0  0  0  0  0  0
  139.3340   70.3580  221.6790 N   0  0  0  0  0  0  0  0  0  0  0  0
  139.6170   70.9910  224.0270 C   0  0  0  0  0  0  0  0  0  0  0  0
  140.7930   71.4790  224.8460 C   0  0  0  0  0  0  0  0  0  0  0  0
  140.5900   70.6580  226.0920 C   0  0  0  0  0  0  0  0  0  0  0  0
  140.9220   70.8790  227.4290 C   0  0  0  0  0  0  0  0  0  0  0  0
  140.6000   69.9230  228.3700 C   0  0  0  0  0  0  0  0  0  0  0  0
  139.9520   68.7530  228.0100 C   0  0  0  0  0  0  0  0  0  0  0  0
  139.6190   68.5260  226.6960 C   0  0  0  0  0  0  0  0  0  0  0  0
  139.9350   69.4730  225.7390 C   0  0  0  0  0  0  0  0  0  0  0  0
  139.7050   69.5070  224.2510 C   0  0  0  0  0  0  0  0  0  0  0  0
  139.1840   75.5640  222.2080 C   0  0  0  0  0  0  0  0  0  0  0  0
  139.7010   76.9680  222.2190 C   0  0  0  0  0  0  0  0  0  0  0  0
  142.2300   81.3854  219.5968 H   0  0  0  0  0  0  0  0  0  0  0  0
  143.1175   81.0017  218.0829 H   0  0  0  0  0  0  0  0  0  0  0  0
  141.3220   81.0529  218.0829 H   0  0  0  0  0  0  0  0  0  0  0  0
  142.0590   78.7237  218.1009 H   0  0  0  0  0  0  0  0  0  0  0  0
  143.1050   79.0307  219.5272 H   0  0  0  0  0  0  0  0  0  0  0  0
  139.6116   80.2611  222.5053 H   0  0  0  0  0  0  0  0  0  0  0  0
  140.2644   81.9006  224.2638 H   0  0  0  0  0  0  0  0  0  0  0  0
  142.6300   82.0546  224.9937 H   0  0  0  0  0  0  0  0  0  0  0  0
  144.3571   80.5824  223.9656 H   0  0  0  0  0  0  0  0  0  0  0  0
  143.7132   78.9442  222.2066 H   0  0  0  0  0  0  0  0  0  0  0  0
  141.7540   76.8135  222.2556 H   0  0  0  0  0  0  0  0  0  0  0  0
  141.4621   77.0435  219.4951 H   0  0  0  0  0  0  0  0  0  0  0  0
  142.0882   75.6910  220.6061 H   0  0  0  0  0  0  0  0  0  0  0  0
  139.3749   76.0067  219.3886 H   0  0  0  0  0  0  0  0  0  0  0  0
  140.5545   74.6938  219.1714 H   0  0  0  0  0  0  0  0  0  0  0  0
  139.1898   73.3329  223.2328 H   0  0  0  0  0  0  0  0  0  0  0  0
  138.0147   72.4439  222.1951 H   0  0  0  0  0  0  0  0  0  0  0  0
  140.9264   71.4921  222.3971 H   0  0  0  0  0  0  0  0  0  0  0  0
  139.1900   70.7390  220.7310 H   0  0  0  0  0  0  0  0  0  0  0  0
  139.9910   69.5340  221.6800 H   0  0  0  0  0  0  0  0  0  0  0  0
  138.6296   71.3978  224.2906 H   0  0  0  0  0  0  0  0  0  0  0  0
  141.7532   71.2540  224.3588 H   0  0  0  0  0  0  0  0  0  0  0  0
  140.8322   72.5668  225.0047 H   0  0  0  0  0  0  0  0  0  0  0  0
  141.4346   71.8048  227.7293 H   0  0  0  0  0  0  0  0  0  0  0  0
  140.8625   70.0929  229.4246 H   0  0  0  0  0  0  0  0  0  0  0  0
  139.7035   68.0045  228.7768 H   0  0  0  0  0  0  0  0  0  0  0  0
  139.1047   67.5974  226.4075 H   0  0  0  0  0  0  0  0  0  0  0  0
  140.5455   69.0611  223.6989 H   0  0  0  0  0  0  0  0  0  0  0  0
  138.8296   68.9366  223.9071 H   0  0  0  0  0  0  0  0  0  0  0  0
  138.0850   75.5965  222.1758 H   0  0  0  0  0  0  0  0  0  0  0  0
  139.5565   75.0715  223.1183 H   0  0  0  0  0  0  0  0  0  0  0  0
  138.9541   77.6080  221.7265 H   0  0  0  0  0  0  0  0  0  0  0  0
  139.8717   77.2187  223.2764 H   0  0  0  0  0  0  0  0  0  0  0  0
  1  2  1  0
  2  3  1  0
  3  4  2  0
  3  5  1  0
  5  6  1  0
  6  7  2  0
  7  8  1  0
  8  9  2  0
  9 10  1  0
 10 11  2  0
  5 12  1  0
 12 13  1  0
 13 14  1  0
 14 15  1  0
 15 16  1  0
 16 17  2  0
 16 18  1  0
 18 19  1  0
 19 20  1  0
 19 21  1  0
 21 22  1  0
 22 23  1  0
 23 24  2  0
 24 25  1  0
 25 26  2  0
 26 27  1  0
 27 28  2  0
 28 29  1  0
 15 30  1  0
 30 31  1  0
 11  6  1  0
 31 12  1  0
 29 21  1  0
 28 23  1  0
  1 32  1  0
  1 33  1  0
  1 34  1  0
  2 35  1  0
  2 36  1  0
  7 37  1  0
  8 38  1  0
  9 39  1  0
 10 40  1  0
 11 41  1  0
 12 42  1  0
 13 43  1  0
 13 44  1  0
 14 45  1  0
 14 46  1  0
 18 47  1  0
 18 48  1  0
 19 49  1  1
 20 50  1  0
 20 51  1  0
 21 52  1  0
 22 53  1  0
 22 54  1  0
 24 55  1  0
 25 56  1  0
 26 57  1  0
 27 58  1  0
 29 59  1  0
 29 60  1  0
 30 61  1  0
 30 62  1  0
 31 63  1  0
 31 64  1  0
M  END
>  <smiles>  (31) 
CCC(=O)N(c1ccccc1)C1CCN(C(=O)CC(N)C2Cc3ccccc3C2)CC1

>  <score_type>  (31) 
oracle

>  <origin>  (31) 
autodockgpu

>  <m_score__min__energy>  (31) 
-8.4100000000000001

>  <m_primary>  (31) 
energy

>  <rmsd>  (31) 
6.326096986170863

>  <m_score__min__rmsd>  (31) 
6.326096986170863

>  <meeko>  (31) 
{"free_energy": -8.05, "intermolecular_energy": -10.44, "internal_energy": -1.9, "cluster_size": 24, "cluster_id": 1, "rank_in_cluster": 6}

>  <energy>  (31) 
-8.05

>  <cluster_rmsd>  (31) 
1.12

>  <cluster>  (31) 
2

$$$$

     RDKit          3D

 64 67  0  0  0  0  0  0  0  0999 V2000
  142.9230   77.3360  217.0780 C   0  0  0  0  0  0  0  0  0  0  0  0
  143.0430   77.1230  218.5730 C   0  0  0  0  0  0  0  0  0  0  0  0
  142.1210   78.0760  219.2880 C   0  0  0  0  0  0  0  0  0  0  0  0
  142.0000   79.2080  218.7530 O   0  0  0  0  0  0  0  0  0  0  0  0
  141.4630   77.6800  220.4730 N   0  0  0  0  0  0  0  0  0  0  0  0
  141.4530   78.5790  221.5950 C   0  0  0  0  0  0  0  0  0  0  0  0
  141.3920   79.9410  221.3430 C   0  0  0  0  0  0  0  0  0  0  0  0
  141.3800   80.8350  222.4030 C   0  0  0  0  0  0  0  0  0  0  0  0
  141.4270   80.3640  223.7010 C   0  0  0  0  0  0  0  0  0  0  0  0
  141.4870   78.9930  223.9490 C   0  0  0  0  0  0  0  0  0  0  0  0
  141.5000   78.0960  222.8970 C   0  0  0  0  0  0  0  0  0  0  0  0
  140.8200   76.3800  220.5180 C   0  0  0  0  0  0  0  0  0  0  0  0
  139.4600   76.4850  221.0920 C   0  0  0  0  0  0  0  0  0  0  0  0
  139.1360   75.6160  222.2520 C   0  0  0  0  0  0  0  0  0  0  0  0
  139.6700   74.3000  221.9580 N   0  0  0  0  0  0  0  0  0  0  0  0
  138.8320   73.1620  222.0090 C   0  0  0  0  0  0  0  0  0  0  0  0
  137.6210   73.2780  222.3080 O   0  0  0  0  0  0  0  0  0  0  0  0
  139.3390   71.8000  221.7160 C   0  0  0  0  0  0  0  0  0  0  0  0
  138.5810   70.7620  222.5490 C   0  0  2  0  0  0  0  0  0  0  0  0
  137.1510   70.9020  222.2870 N   0  0  0  0  0  0  0  0  0  0  0  0
  138.8990   71.0510  223.9940 C   0  0  0  0  0  0  0  0  0  0  0  0
  140.3580   71.4430  224.0910 C   0  0  0  0  0  0  0  0  0  0  0  0
  140.5670   71.2720  225.5730 C   0  0  0  0  0  0  0  0  0  0  0  0
  141.4340   71.8830  226.4780 C   0  0  0  0  0  0  0  0  0  0  0  0
  141.3940   71.5110  227.8060 C   0  0  0  0  0  0  0  0  0  0  0  0
  140.5090   70.5450  228.2540 C   0  0  0  0  0  0  0  0  0  0  0  0
  139.6490   69.9370  227.3700 C   0  0  0  0  0  0  0  0  0  0  0  0
  139.6750   70.2970  226.0350 C   0  0  0  0  0  0  0  0  0  0  0  0
  138.8730   69.8180  224.8540 C   0  0  0  0  0  0  0  0  0  0  0  0
  141.0640   74.1150  221.6090 C   0  0  0  0  0  0  0  0  0  0  0  0
  141.7250   75.3720  221.1380 C   0  0  0  0  0  0  0  0  0  0  0  0
  142.3916   78.2793  216.8835 H   0  0  0  0  0  0  0  0  0  0  0  0
  143.9277   77.3825  216.6325 H   0  0  0  0  0  0  0  0  0  0  0  0
  142.3626   76.5009  216.6325 H   0  0  0  0  0  0  0  0  0  0  0  0
  142.7648   76.0878  218.8200 H   0  0  0  0  0  0  0  0  0  0  0  0
  144.0803   77.3074  218.8891 H   0  0  0  0  0  0  0  0  0  0  0  0
  141.3533   80.3105  220.3076 H   0  0  0  0  0  0  0  0  0  0  0  0
  141.3332   81.9171  222.2108 H   0  0  0  0  0  0  0  0  0  0  0  0
  141.4171   81.0731  224.5419 H   0  0  0  0  0  0  0  0  0  0  0  0
  141.5241   78.6242  224.9847 H   0  0  0  0  0  0  0  0  0  0  0  0
  141.5469   77.0138  223.0883 H   0  0  0  0  0  0  0  0  0  0  0  0
  140.6469   75.9981  219.5011 H   0  0  0  0  0  0  0  0  0  0  0  0
  139.3169   77.5278  221.4115 H   0  0  0  0  0  0  0  0  0  0  0  0
  138.7901   76.1423  220.2896 H   0  0  0  0  0  0  0  0  0  0  0  0
  139.6000   76.0166  223.1654 H   0  0  0  0  0  0  0  0  0  0  0  0
  138.0494   75.5708  222.4174 H   0  0  0  0  0  0  0  0  0  0  0  0
  139.1972   71.5818  220.6472 H   0  0  0  0  0  0  0  0  0  0  0  0
  140.4081   71.7528  221.9707 H   0  0  0  0  0  0  0  0  0  0  0  0
  138.8727   69.7316  222.2978 H   0  0  0  0  0  0  0  0  0  0  0  0
  136.6790   71.4110  223.0520 H   0  0  0  0  0  0  0  0  0  0  0  0
  137.0170   71.3730  221.3550 H   0  0  0  0  0  0  0  0  0  0  0  0
  138.1640   71.8033  224.3162 H   0  0  0  0  0  0  0  0  0  0  0  0
  141.0027   70.7706  223.5060 H   0  0  0  0  0  0  0  0  0  0  0  0
  140.6004   72.4412  223.6974 H   0  0  0  0  0  0  0  0  0  0  0  0
  142.1419   72.6529  226.1371 H   0  0  0  0  0  0  0  0  0  0  0  0
  142.0777   71.9906  228.5219 H   0  0  0  0  0  0  0  0  0  0  0  0
  140.4939   70.2639  229.3174 H   0  0  0  0  0  0  0  0  0  0  0  0
  138.9447   69.1690  227.7225 H   0  0  0  0  0  0  0  0  0  0  0  0
  139.3537   68.9636  224.3551 H   0  0  0  0  0  0  0  0  0  0  0  0
  137.8663   69.4493  225.1001 H   0  0  0  0  0  0  0  0  0  0  0  0
  141.6010   73.7488  222.4964 H   0  0  0  0  0  0  0  0  0  0  0  0
  141.1004   73.3951  220.7781 H   0  0  0  0  0  0  0  0  0  0  0  0
  142.2137   75.8427  222.0038 H   0  0  0  0  0  0  0  0  0  0  0  0
  142.4241   75.0665  220.3456 H   0  0  0  0  0  0  0  0  0  0  0  0
  1  2  1  0
  2  3  1  0
  3  4  2  0
  3  5  1  0
  5  6  1  0
  6  7  2  0
  7  8  1  0
  8  9  2  0
  9 10  1  0
 10 11  2  0
  5 12  1  0
 12 13  1  0
 13 14  1  0
 14 15  1  0
 15 16  1  0
 16 17  2  0
 16 18  1  0
 18 19  1  0
 19 20  1  0
 19 21  1  0
 21 22  1  0
 22 23  1  0
 23 24  2  0
 24 25  1  0
 25 26  2  0
 26 27  1  0
 27 28  2  0
 28 29  1  0
 15 30  1  0
 30 31  1  0
 11  6  1  0
 31 12  1  0
 29 21  1  0
 28 23  1  0
  1 32  1  0
  1 33  1  0
  1 34  1  0
  2 35  1  0
  2 36  1  0
  7 37  1  0
  8 38  1  0
  9 39  1  0
 10 40  1  0
 11 41  1  0
 12 42  1  0
 13 43  1  0
 13 44  1  0
 14 45  1  0
 14 46  1  0
 18 47  1  0
 18 48  1  0
 19 49  1  6
 20 50  1  0
 20 51  1  0
 21 52  1  0
 22 53  1  0
 22 54  1  0
 24 55  1  0
 25 56  1  0
 26 57  1  0
 27 58  1  0
 29 59  1  0
 29 60  1  0
 30 61  1  0
 30 62  1  0
 31 63  1  0
 31 64  1  0
M  END
>  <smiles>  (32) 
CCC(=O)N(c1ccccc1)C1CCN(C(=O)CC(N)C2Cc3ccccc3C2)CC1

>  <score_type>  (32) 
oracle

>  <origin>  (32) 
autodockgpu

>  <m_score__min__energy>  (32) 
-8.4100000000000001

>  <m_primary>  (32) 
energy

>  <rmsd>  (32) 
6.699481754281461

>  <m_score__min__rmsd>  (32) 
6.699481754281461

>  <meeko>  (32) 
{"free_energy": -7.81, "intermolecular_energy": -10.19, "internal_energy": -2.21, "cluster_size": 5, "cluster_id": 5, "rank_in_cluster": 1}

>  <energy>  (32) 
-8.01

>  <cluster_rmsd>  (32) 
0.41

>  <cluster>  (32) 
2

$$$$

     RDKit          3D

 64 67  0  0  0  0  0  0  0  0999 V2000
  142.5660   80.2170  218.2560 C   0  0  0  0  0  0  0  0  0  0  0  0
  141.3820   79.3510  218.6360 C   0  0  0  0  0  0  0  0  0  0  0  0
  141.8790   78.0730  219.2580 C   0  0  0  0  0  0  0  0  0  0  0  0
  142.8150   77.5030  218.6410 O   0  0  0  0  0  0  0  0  0  0  0  0
  141.2990   77.5860  220.4510 N   0  0  0  0  0  0  0  0  0  0  0  0
  141.2700   78.4400  221.6070 C   0  0  0  0  0  0  0  0  0  0  0  0
  140.0700   78.5820  222.2870 C   0  0  0  0  0  0  0  0  0  0  0  0
  140.0090   79.3990  223.4060 C   0  0  0  0  0  0  0  0  0  0  0  0
  141.1410   80.0630  223.8380 C   0  0  0  0  0  0  0  0  0  0  0  0
  142.3470   79.9160  223.1500 C   0  0  0  0  0  0  0  0  0  0  0  0
  142.4150   79.1040  222.0330 C   0  0  0  0  0  0  0  0  0  0  0  0
  140.7520   76.2420  220.4680 C   0  0  0  0  0  0  0  0  0  0  0  0
  139.2730   76.2750  220.4210 C   0  0  0  0  0  0  0  0  0  0  0  0
  138.5360   75.5540  221.4900 C   0  0  0  0  0  0  0  0  0  0  0  0
  139.2010   74.2780  221.6770 N   0  0  0  0  0  0  0  0  0  0  0  0
  138.4660   73.0730  221.5930 C   0  0  0  0  0  0  0  0  0  0  0  0
  137.2360   73.0930  221.3560 O   0  0  0  0  0  0  0  0  0  0  0  0
  139.1070   71.7490  221.7780 C   0  0  0  0  0  0  0  0  0  0  0  0
  138.2470   70.8660  222.6870 C   0  0  2  0  0  0  0  0  0  0  0  0
  137.2250   71.6960  223.3190 N   0  0  0  0  0  0  0  0  0  0  0  0
  139.1750   70.2700  223.7160 C   0  0  0  0  0  0  0  0  0  0  0  0
  138.4300   69.1750  224.4500 C   0  0  0  0  0  0  0  0  0  0  0  0
  139.3280   69.0220  225.6500 C   0  0  0  0  0  0  0  0  0  0  0  0
  139.6040   67.9410  226.4870 C   0  0  0  0  0  0  0  0  0  0  0  0
  140.4920   68.1050  227.5290 C   0  0  0  0  0  0  0  0  0  0  0  0
  141.1140   69.3210  227.7570 C   0  0  0  0  0  0  0  0  0  0  0  0
  140.8500   70.3930  226.9370 C   0  0  0  0  0  0  0  0  0  0  0  0
  139.9620   70.2470  225.8870 C   0  0  0  0  0  0  0  0  0  0  0  0
  139.4810   71.2180  224.8420 C   0  0  0  0  0  0  0  0  0  0  0  0
  140.6210   74.2040  221.9550 C   0  0  0  0  0  0  0  0  0  0  0  0
  141.3620   75.4450  221.5700 C   0  0  0  0  0  0  0  0  0  0  0  0
  143.0624   80.5801  219.1680 H   0  0  0  0  0  0  0  0  0  0  0  0
  143.2778   79.6249  217.6621 H   0  0  0  0  0  0  0  0  0  0  0  0
  142.2173   81.0747  217.6621 H   0  0  0  0  0  0  0  0  0  0  0  0
  140.7498   79.8892  219.3576 H   0  0  0  0  0  0  0  0  0  0  0  0
  140.7924   79.1181  217.7370 H   0  0  0  0  0  0  0  0  0  0  0  0
  139.1717   78.0498  221.9410 H   0  0  0  0  0  0  0  0  0  0  0  0
  139.0600   79.5183  223.9493 H   0  0  0  0  0  0  0  0  0  0  0  0
  141.0920   80.7094  224.7267 H   0  0  0  0  0  0  0  0  0  0  0  0
  143.2452   80.4475  223.4975 H   0  0  0  0  0  0  0  0  0  0  0  0
  143.3631   78.9847  221.4881 H   0  0  0  0  0  0  0  0  0  0  0  0
  141.0320   75.6983  219.5536 H   0  0  0  0  0  0  0  0  0  0  0  0
  138.9656   77.3303  220.4633 H   0  0  0  0  0  0  0  0  0  0  0  0
  139.0105   75.7448  219.4936 H   0  0  0  0  0  0  0  0  0  0  0  0
  138.5622   76.1342  222.4242 H   0  0  0  0  0  0  0  0  0  0  0  0
  137.4816   75.4101  221.2115 H   0  0  0  0  0  0  0  0  0  0  0  0
  139.2204   71.2605  220.7990 H   0  0  0  0  0  0  0  0  0  0  0  0
  140.0932   71.8903  222.2444 H   0  0  0  0  0  0  0  0  0  0  0  0
  137.7378   70.0655  222.1303 H   0  0  0  0  0  0  0  0  0  0  0  0
  137.5720   72.6550  223.4830 H   0  0  0  0  0  0  0  0  0  0  0  0
  136.3570   71.6840  222.7230 H   0  0  0  0  0  0  0  0  0  0  0  0
  140.0778   69.9677  223.1650 H   0  0  0  0  0  0  0  0  0  0  0  0
  137.4151   69.4894  224.7348 H   0  0  0  0  0  0  0  0  0  0  0  0
  138.2622   68.2547  223.8713 H   0  0  0  0  0  0  0  0  0  0  0  0
  139.1187   66.9685  226.3177 H   0  0  0  0  0  0  0  0  0  0  0  0
  140.7103   67.2543  228.1913 H   0  0  0  0  0  0  0  0  0  0  0  0
  141.8193   69.4295  228.5941 H   0  0  0  0  0  0  0  0  0  0  0  0
  141.3421   71.3605  227.1152 H   0  0  0  0  0  0  0  0  0  0  0  0
  138.5831   71.7604  225.1729 H   0  0  0  0  0  0  0  0  0  0  0  0
  140.1953   72.0160  224.5911 H   0  0  0  0  0  0  0  0  0  0  0  0
  140.7579   74.0354  223.0334 H   0  0  0  0  0  0  0  0  0  0  0  0
  141.0296   73.3791  221.3528 H   0  0  0  0  0  0  0  0  0  0  0  0
  141.4271   76.0901  222.4586 H   0  0  0  0  0  0  0  0  0  0  0  0
  142.3391   75.1082  221.1934 H   0  0  0  0  0  0  0  0  0  0  0  0
  1  2  1  0
  2  3  1  0
  3  4  2  0
  3  5  1  0
  5  6  1  0
  6  7  2  0
  7  8  1  0
  8  9  2  0
  9 10  1  0
 10 11  2  0
  5 12  1  0
 12 13  1  0
 13 14  1  0
 14 15  1  0
 15 16  1  0
 16 17  2  0
 16 18  1  0
 18 19  1  0
 19 20  1  0
 19 21  1  0
 21 22  1  0
 22 23  1  0
 23 24  2  0
 24 25  1  0
 25 26  2  0
 26 27  1  0
 27 28  2  0
 28 29  1  0
 15 30  1  0
 30 31  1  0
 11  6  1  0
 31 12  1  0
 29 21  1  0
 28 23  1  0
  1 32  1  0
  1 33  1  0
  1 34  1  0
  2 35  1  0
  2 36  1  0
  7 37  1  0
  8 38  1  0
  9 39  1  0
 10 40  1  0
 11 41  1  0
 12 42  1  0
 13 43  1  0
 13 44  1  0
 14 45  1  0
 14 46  1  0
 18 47  1  0
 18 48  1  0
 19 49  1  6
 20 50  1  0
 20 51  1  0
 21 52  1  0
 22 53  1  0
 22 54  1  0
 24 55  1  0
 25 56  1  0
 26 57  1  0
 27 58  1  0
 29 59  1  0
 29 60  1  0
 30 61  1  0
 30 62  1  0
 31 63  1  0
 31 64  1  0
M  END
>  <smiles>  (33) 
CCC(=O)N(c1ccccc1)C1CCN(C(=O)CC(N)C2Cc3ccccc3C2)CC1

>  <score_type>  (33) 
oracle

>  <origin>  (33) 
autodockgpu

>  <m_score__min__energy>  (33) 
-8.4100000000000001

>  <m_primary>  (33) 
energy

>  <rmsd>  (33) 
6.687578520408422

>  <m_score__min__rmsd>  (33) 
6.687578520408422

>  <meeko>  (33) 
{"free_energy": -7.63, "intermolecular_energy": -10.01, "internal_energy": -2.18, "cluster_size": 5, "cluster_id": 5, "rank_in_cluster": 5}

>  <energy>  (33) 
-7.98

>  <cluster_rmsd>  (33) 
1.13

>  <cluster>  (33) 
2

$$$$

     RDKit          3D

 64 67  0  0  0  0  0  0  0  0999 V2000
  138.7700   66.6700  222.4210 C   0  0  0  0  0  0  0  0  0  0  0  0
  138.8450   68.1720  222.2350 C   0  0  0  0  0  0  0  0  0  0  0  0
  138.0970   68.8510  223.3520 C   0  0  0  0  0  0  0  0  0  0  0  0
  136.8900   68.5160  223.4710 O   0  0  0  0  0  0  0  0  0  0  0  0
  138.7480   69.7910  224.1810 N   0  0  0  0  0  0  0  0  0  0  0  0
  139.4470   69.3230  225.3460 C   0  0  0  0  0  0  0  0  0  0  0  0
  139.5680   67.9540  225.5330 C   0  0  0  0  0  0  0  0  0  0  0  0
  140.2360   67.4700  226.6470 C   0  0  0  0  0  0  0  0  0  0  0  0
  140.7790   68.3520  227.5620 C   0  0  0  0  0  0  0  0  0  0  0  0
  140.6550   69.7280  227.3700 C   0  0  0  0  0  0  0  0  0  0  0  0
  139.9890   70.2180  226.2610 C   0  0  0  0  0  0  0  0  0  0  0  0
  138.6900   71.1970  223.8270 C   0  0  0  0  0  0  0  0  0  0  0  0
  137.4640   71.4940  223.0510 C   0  0  0  0  0  0  0  0  0  0  0  0
  137.6310   72.1570  221.7320 C   0  0  0  0  0  0  0  0  0  0  0  0
  138.6190   73.2050  221.9070 N   0  0  0  0  0  0  0  0  0  0  0  0
  138.3180   74.5370  221.5370 C   0  0  0  0  0  0  0  0  0  0  0  0
  137.1980   74.8250  221.0560 O   0  0  0  0  0  0  0  0  0  0  0  0
  139.2990   75.6360  221.6980 C   0  0  0  0  0  0  0  0  0  0  0  0
  138.7200   76.7370  222.5920 C   0  0  2  0  0  0  0  0  0  0  0  0
  137.3590   77.0320  222.1520 N   0  0  0  0  0  0  0  0  0  0  0  0
  139.6150   77.9410  222.4310 C   0  0  0  0  0  0  0  0  0  0  0  0
  141.0230   77.5420  222.8180 C   0  0  0  0  0  0  0  0  0  0  0  0
  141.6310   78.9080  222.9980 C   0  0  0  0  0  0  0  0  0  0  0  0
  142.9350   79.3830  222.8600 C   0  0  0  0  0  0  0  0  0  0  0  0
  143.1950   80.7170  223.0960 C   0  0  0  0  0  0  0  0  0  0  0  0
  142.1850   81.5900  223.4660 C   0  0  0  0  0  0  0  0  0  0  0  0
  140.8960   81.1310  223.6030 C   0  0  0  0  0  0  0  0  0  0  0  0
  140.6170   79.7970  223.3710 C   0  0  0  0  0  0  0  0  0  0  0  0
  139.3310   79.0170  223.4410 C   0  0  0  0  0  0  0  0  0  0  0  0
  139.9280   72.9200  222.4570 C   0  0  0  0  0  0  0  0  0  0  0  0
  139.9790   71.6360  223.2220 C   0  0  0  0  0  0  0  0  0  0  0  0
  138.7582   66.4337  223.4953 H   0  0  0  0  0  0  0  0  0  0  0  0
  137.8517   66.2878  221.9514 H   0  0  0  0  0  0  0  0  0  0  0  0
  139.6457   66.1982  221.9514 H   0  0  0  0  0  0  0  0  0  0  0  0
  139.8974   68.4918  222.2502 H   0  0  0  0  0  0  0  0  0  0  0  0
  138.3939   68.4463  221.2700 H   0  0  0  0  0  0  0  0  0  0  0  0
  139.1360   67.2558  224.8009 H   0  0  0  0  0  0  0  0  0  0  0  0
  140.3337   66.3854  226.8025 H   0  0  0  0  0  0  0  0  0  0  0  0
  141.3109   67.9675  228.4448 H   0  0  0  0  0  0  0  0  0  0  0  0
  141.0879   70.4253  228.1024 H   0  0  0  0  0  0  0  0  0  0  0  0
  139.8896   71.3024  226.1052 H   0  0  0  0  0  0  0  0  0  0  0  0
  138.5885   71.8195  224.7282 H   0  0  0  0  0  0  0  0  0  0  0  0
  136.9450   70.5399  222.8768 H   0  0  0  0  0  0  0  0  0  0  0  0
  136.9143   72.2236  223.6638 H   0  0  0  0  0  0  0  0  0  0  0  0
  137.9803   71.4293  220.9848 H   0  0  0  0  0  0  0  0  0  0  0  0
  136.6762   72.5724  221.3774 H   0  0  0  0  0  0  0  0  0  0  0  0
  140.2162   75.2395  222.1580 H   0  0  0  0  0  0  0  0  0  0  0  0
  139.5272   76.0604  220.7091 H   0  0  0  0  0  0  0  0  0  0  0  0
  138.6782   76.4371  223.6495 H   0  0  0  0  0  0  0  0  0  0  0  0
  137.2920   77.0370  221.1220 H   0  0  0  0  0  0  0  0  0  0  0  0
  136.6990   76.3380  222.5900 H   0  0  0  0  0  0  0  0  0  0  0  0
  139.4671   78.2864  221.3972 H   0  0  0  0  0  0  0  0  0  0  0  0
  141.0421   76.9588  223.7504 H   0  0  0  0  0  0  0  0  0  0  0  0
  141.5395   76.8923  222.0961 H   0  0  0  0  0  0  0  0  0  0  0  0
  143.7470   78.7016  222.5663 H   0  0  0  0  0  0  0  0  0  0  0  0
  144.2227   81.0943  222.9885 H   0  0  0  0  0  0  0  0  0  0  0  0
  142.4140   82.6500  223.6502 H   0  0  0  0  0  0  0  0  0  0  0  0
  140.0913   81.8215  223.8956 H   0  0  0  0  0  0  0  0  0  0  0  0
  139.1624   78.5991  224.4445 H   0  0  0  0  0  0  0  0  0  0  0  0
  138.4234   79.6063  223.2434 H   0  0  0  0  0  0  0  0  0  0  0  0
  140.6501   72.8626  221.6292 H   0  0  0  0  0  0  0  0  0  0  0  0
  140.1700   73.7297  223.1611 H   0  0  0  0  0  0  0  0  0  0  0  0
  140.3174   70.8459  222.5355 H   0  0  0  0  0  0  0  0  0  0  0  0
  140.6626   71.8143  224.0652 H   0  0  0  0  0  0  0  0  0  0  0  0
  1  2  1  0
  2  3  1  0
  3  4  2  0
  3  5  1  0
  5  6  1  0
  6  7  2  0
  7  8  1  0
  8  9  2  0
  9 10  1  0
 10 11  2  0
  5 12  1  0
 12 13  1  0
 13 14  1  0
 14 15  1  0
 15 16  1  0
 16 17  2  0
 16 18  1  0
 18 19  1  0
 19 20  1  0
 19 21  1  0
 21 22  1  0
 22 23  1  0
 23 24  2  0
 24 25  1  0
 25 26  2  0
 26 27  1  0
 27 28  2  0
 28 29  1  0
 15 30  1  0
 30 31  1  0
 11  6  1  0
 31 12  1  0
 29 21  1  0
 28 23  1  0
  1 32  1  0
  1 33  1  0
  1 34  1  0
  2 35  1  0
  2 36  1  0
  7 37  1  0
  8 38  1  0
  9 39  1  0
 10 40  1  0
 11 41  1  0
 12 42  1  0
 13 43  1  0
 13 44  1  0
 14 45  1  0
 14 46  1  0
 18 47  1  0
 18 48  1  0
 19 49  1  1
 20 50  1  0
 20 51  1  0
 21 52  1  0
 22 53  1  0
 22 54  1  0
 24 55  1  0
 25 56  1  0
 26 57  1  0
 27 58  1  0
 29 59  1  0
 29 60  1  0
 30 61  1  0
 30 62  1  0
 31 63  1  0
 31 64  1  0
M  END
>  <smiles>  (34) 
CCC(=O)N(c1ccccc1)C1CCN(C(=O)CC(N)C2Cc3ccccc3C2)CC1

>  <score_type>  (34) 
oracle

>  <origin>  (34) 
autodockgpu

>  <m_score__min__energy>  (34) 
-8.4100000000000001

>  <m_primary>  (34) 
energy

>  <rmsd>  (34) 
7.533507831567927

>  <m_score__min__rmsd>  (34) 
7.533507831567927

>  <meeko>  (34) 
{"free_energy": -7.82, "intermolecular_energy": -10.21, "internal_energy": -2.23, "cluster_size": 18, "cluster_id": 2, "rank_in_cluster": 15}

>  <energy>  (34) 
-7.94

>  <cluster_rmsd>  (34) 
0.95

>  <cluster>  (34) 
2

$$$$

     RDKit          3D

 64 67  0  0  0  0  0  0  0  0999 V2000
  142.5610   77.8160  217.0580 C   0  0  0  0  0  0  0  0  0  0  0  0
  142.6870   77.4930  218.5330 C   0  0  0  0  0  0  0  0  0  0  0  0
  141.7470   78.3710  219.3180 C   0  0  0  0  0  0  0  0  0  0  0  0
  141.5560   79.5180  218.8380 O   0  0  0  0  0  0  0  0  0  0  0  0
  141.1460   77.8940  220.5040 N   0  0  0  0  0  0  0  0  0  0  0  0
  141.0660   78.7690  221.6420 C   0  0  0  0  0  0  0  0  0  0  0  0
  142.2270   79.0210  222.3580 C   0  0  0  0  0  0  0  0  0  0  0  0
  142.1830   79.8610  223.4610 C   0  0  0  0  0  0  0  0  0  0  0  0
  140.9870   80.4410  223.8380 C   0  0  0  0  0  0  0  0  0  0  0  0
  139.8220   80.1840  223.1140 C   0  0  0  0  0  0  0  0  0  0  0  0
  139.8580   79.3470  222.0130 C   0  0  0  0  0  0  0  0  0  0  0  0
  140.6310   76.5380  220.5340 C   0  0  0  0  0  0  0  0  0  0  0  0
  139.2450   76.5130  221.0530 C   0  0  0  0  0  0  0  0  0  0  0  0
  138.9610   75.6200  222.2060 C   0  0  0  0  0  0  0  0  0  0  0  0
  139.6310   74.3610  221.9440 N   0  0  0  0  0  0  0  0  0  0  0  0
  138.9050   73.1480  221.9710 C   0  0  0  0  0  0  0  0  0  0  0  0
  137.6780   73.1470  222.2210 O   0  0  0  0  0  0  0  0  0  0  0  0
  139.5530   71.8410  221.7080 C   0  0  0  0  0  0  0  0  0  0  0  0
  138.8450   70.7310  222.4930 C   0  0  2  0  0  0  0  0  0  0  0  0
  137.4240   70.7520  222.1590 N   0  0  0  0  0  0  0  0  0  0  0  0
  139.0630   71.0290  223.9550 C   0  0  0  0  0  0  0  0  0  0  0  0
  140.4970   71.4760  224.1410 C   0  0  0  0  0  0  0  0  0  0  0  0
  140.6210   71.3100  225.6330 C   0  0  0  0  0  0  0  0  0  0  0  0
  141.4080   71.9520  226.5890 C   0  0  0  0  0  0  0  0  0  0  0  0
  141.3010   71.5760  227.9120 C   0  0  0  0  0  0  0  0  0  0  0  0
  140.4270   70.5770  228.3060 C   0  0  0  0  0  0  0  0  0  0  0  0
  139.6460   69.9390  227.3710 C   0  0  0  0  0  0  0  0  0  0  0  0
  139.7400   70.3020  226.0400 C   0  0  0  0  0  0  0  0  0  0  0  0
  139.0300   69.7950  224.8130 C   0  0  0  0  0  0  0  0  0  0  0  0
  141.0490   74.3110  221.6510 C   0  0  0  0  0  0  0  0  0  0  0  0
  141.6040   75.6240  221.1970 C   0  0  0  0  0  0  0  0  0  0  0  0
  142.1636   78.8347  216.9384 H   0  0  0  0  0  0  0  0  0  0  0  0
  143.5507   77.7503  216.5824 H   0  0  0  0  0  0  0  0  0  0  0  0
  141.8772   77.0975  216.5824 H   0  0  0  0  0  0  0  0  0  0  0  0
  142.4296   76.4368  218.7010 H   0  0  0  0  0  0  0  0  0  0  0  0
  143.7209   77.6735  218.8624 H   0  0  0  0  0  0  0  0  0  0  0  0
  143.1768   78.5575  222.0530 H   0  0  0  0  0  0  0  0  0  0  0  0
  143.0991   80.0651  224.0348 H   0  0  0  0  0  0  0  0  0  0  0  0
  140.9530   81.1079  224.7121 H   0  0  0  0  0  0  0  0  0  0  0  0
  138.8726   80.6481  223.4195 H   0  0  0  0  0  0  0  0  0  0  0  0
  138.9424   79.1418  221.4389 H   0  0  0  0  0  0  0  0  0  0  0  0
  140.5370   76.1370  219.5140 H   0  0  0  0  0  0  0  0  0  0  0  0
  138.9891   77.5381  221.3591 H   0  0  0  0  0  0  0  0  0  0  0  0
  138.6435   76.1050  220.2273 H   0  0  0  0  0  0  0  0  0  0  0  0
  139.3471   76.0672  223.1339 H   0  0  0  0  0  0  0  0  0  0  0  0
  137.8782   75.4698  222.3280 H   0  0  0  0  0  0  0  0  0  0  0  0
  139.4969   71.6177  220.6324 H   0  0  0  0  0  0  0  0  0  0  0  0
  140.6045   71.8913  222.0271 H   0  0  0  0  0  0  0  0  0  0  0  0
  139.2364   69.7324  222.2491 H   0  0  0  0  0  0  0  0  0  0  0  0
  136.8720   71.2110  222.9010 H   0  0  0  0  0  0  0  0  0  0  0  0
  137.2980   71.2200  221.2230 H   0  0  0  0  0  0  0  0  0  0  0  0
  138.2817   71.7525  224.2311 H   0  0  0  0  0  0  0  0  0  0  0  0
  141.2015   70.8299  223.5968 H   0  0  0  0  0  0  0  0  0  0  0  0
  140.7249   72.4834  223.7627 H   0  0  0  0  0  0  0  0  0  0  0  0
  142.1057   72.7487  226.2916 H   0  0  0  0  0  0  0  0  0  0  0  0
  141.9216   72.0792  228.6680 H   0  0  0  0  0  0  0  0  0  0  0  0
  140.3574   70.2937  229.3666 H   0  0  0  0  0  0  0  0  0  0  0  0
  138.9507   69.1447  227.6801 H   0  0  0  0  0  0  0  0  0  0  0  0
  139.5715   68.9595  224.3454 H   0  0  0  0  0  0  0  0  0  0  0  0
  138.0244   69.3890  224.9975 H   0  0  0  0  0  0  0  0  0  0  0  0
  141.5833   74.0017  222.5614 H   0  0  0  0  0  0  0  0  0  0  0  0
  141.1874   73.5954  220.8271 H   0  0  0  0  0  0  0  0  0  0  0  0
  142.0101   76.1429  222.0778 H   0  0  0  0  0  0  0  0  0  0  0  0
  142.3604   75.3845  220.4351 H   0  0  0  0  0  0  0  0  0  0  0  0
  1  2  1  0
  2  3  1  0
  3  4  2  0
  3  5  1  0
  5  6  1  0
  6  7  2  0
  7  8  1  0
  8  9  2  0
  9 10  1  0
 10 11  2  0
  5 12  1  0
 12 13  1  0
 13 14  1  0
 14 15  1  0
 15 16  1  0
 16 17  2  0
 16 18  1  0
 18 19  1  0
 19 20  1  0
 19 21  1  0
 21 22  1  0
 22 23  1  0
 23 24  2  0
 24 25  1  0
 25 26  2  0
 26 27  1  0
 27 28  2  0
 28 29  1  0
 15 30  1  0
 30 31  1  0
 11  6  1  0
 31 12  1  0
 29 21  1  0
 28 23  1  0
  1 32  1  0
  1 33  1  0
  1 34  1  0
  2 35  1  0
  2 36  1  0
  7 37  1  0
  8 38  1  0
  9 39  1  0
 10 40  1  0
 11 41  1  0
 12 42  1  0
 13 43  1  0
 13 44  1  0
 14 45  1  0
 14 46  1  0
 18 47  1  0
 18 48  1  0
 19 49  1  6
 20 50  1  0
 20 51  1  0
 21 52  1  0
 22 53  1  0
 22 54  1  0
 24 55  1  0
 25 56  1  0
 26 57  1  0
 27 58  1  0
 29 59  1  0
 29 60  1  0
 30 61  1  0
 30 62  1  0
 31 63  1  0
 31 64  1  0
M  END
>  <smiles>  (35) 
CCC(=O)N(c1ccccc1)C1CCN(C(=O)CC(N)C2Cc3ccccc3C2)CC1

>  <score_type>  (35) 
oracle

>  <origin>  (35) 
autodockgpu

>  <m_score__min__energy>  (35) 
-8.4100000000000001

>  <m_primary>  (35) 
energy

>  <rmsd>  (35) 
6.635521232983767

>  <m_score__min__rmsd>  (35) 
6.635521232983767

>  <meeko>  (35) 
{"free_energy": -7.62, "intermolecular_energy": -10.0, "internal_energy": -2.3, "cluster_size": 24, "cluster_id": 1, "rank_in_cluster": 18}

>  <energy>  (35) 
-7.92

>  <cluster_rmsd>  (35) 
1.13

>  <cluster>  (35) 
2

$$$$

     RDKit          3D

 64 67  0  0  0  0  0  0  0  0999 V2000
  138.8280   66.7310  222.7160 C   0  0  0  0  0  0  0  0  0  0  0  0
  138.8670   68.2240  222.4620 C   0  0  0  0  0  0  0  0  0  0  0  0
  138.2780   68.9470  223.6450 C   0  0  0  0  0  0  0  0  0  0  0  0
  137.1060   68.6090  223.9520 O   0  0  0  0  0  0  0  0  0  0  0  0
  139.0290   69.9290  224.3290 N   0  0  0  0  0  0  0  0  0  0  0  0
  139.6700   69.5760  225.5660 C   0  0  0  0  0  0  0  0  0  0  0  0
  140.1330   70.5990  226.3800 C   0  0  0  0  0  0  0  0  0  0  0  0
  140.7560   70.2920  227.5800 C   0  0  0  0  0  0  0  0  0  0  0  0
  140.9100   68.9720  227.9580 C   0  0  0  0  0  0  0  0  0  0  0  0
  140.4430   67.9460  227.1360 C   0  0  0  0  0  0  0  0  0  0  0  0
  139.8210   68.2450  225.9370 C   0  0  0  0  0  0  0  0  0  0  0  0
  139.1290   71.2590  223.7580 C   0  0  0  0  0  0  0  0  0  0  0  0
  138.0460   71.4930  222.7760 C   0  0  0  0  0  0  0  0  0  0  0  0
  138.4390   71.9220  221.4100 C   0  0  0  0  0  0  0  0  0  0  0  0
  139.4730   72.9280  221.5620 N   0  0  0  0  0  0  0  0  0  0  0  0
  139.3290   74.1960  220.9530 C   0  0  0  0  0  0  0  0  0  0  0  0
  138.3100   74.4630  220.2760 O   0  0  0  0  0  0  0  0  0  0  0  0
  140.3620   75.2510  221.0840 C   0  0  0  0  0  0  0  0  0  0  0  0
  140.1650   76.0270  222.3890 C   0  0  2  0  0  0  0  0  0  0  0  0
  138.7430   76.0370  222.7200 N   0  0  0  0  0  0  0  0  0  0  0  0
  140.6740   77.4250  222.1420 C   0  0  0  0  0  0  0  0  0  0  0  0
  141.4550   77.8690  223.3610 C   0  0  0  0  0  0  0  0  0  0  0  0
  141.4970   79.3530  223.1060 C   0  0  0  0  0  0  0  0  0  0  0  0
  142.4090   80.3450  223.4680 C   0  0  0  0  0  0  0  0  0  0  0  0
  142.1760   81.6480  223.0810 C   0  0  0  0  0  0  0  0  0  0  0  0
  141.0560   81.9870  222.3400 C   0  0  0  0  0  0  0  0  0  0  0  0
  140.1520   81.0170  221.9770 C   0  0  0  0  0  0  0  0  0  0  0  0
  140.3690   79.7050  222.3570 C   0  0  0  0  0  0  0  0  0  0  0  0
  139.5730   78.4490  222.1150 C   0  0  0  0  0  0  0  0  0  0  0  0
  140.6700   72.6640  222.3340 C   0  0  0  0  0  0  0  0  0  0  0  0
  140.5180   71.5210  223.2870 C   0  0  0  0  0  0  0  0  0  0  0  0
  138.8231   66.5435  223.7999 H   0  0  0  0  0  0  0  0  0  0  0  0
  137.9185   66.3062  222.2663 H   0  0  0  0  0  0  0  0  0  0  0  0
  139.7141   66.2593  222.2663 H   0  0  0  0  0  0  0  0  0  0  0  0
  139.9092   68.5448  222.3172 H   0  0  0  0  0  0  0  0  0  0  0  0
  138.2839   68.4591  221.5594 H   0  0  0  0  0  0  0  0  0  0  0  0
  140.0066   71.6483  226.0752 H   0  0  0  0  0  0  0  0  0  0  0  0
  141.1271   71.0981  228.2301 H   0  0  0  0  0  0  0  0  0  0  0  0
  141.4028   68.7290  228.9109 H   0  0  0  0  0  0  0  0  0  0  0  0
  140.5696   66.8970  227.4419 H   0  0  0  0  0  0  0  0  0  0  0  0
  139.4507   67.4397  225.2856 H   0  0  0  0  0  0  0  0  0  0  0  0
  138.9557   72.0251  224.5281 H   0  0  0  0  0  0  0  0  0  0  0  0
  137.4828   70.5534  222.6768 H   0  0  0  0  0  0  0  0  0  0  0  0
  137.4776   72.3421  223.1833 H   0  0  0  0  0  0  0  0  0  0  0  0
  138.8274   71.0640  220.8418 H   0  0  0  0  0  0  0  0  0  0  0  0
  137.5753   72.3267  220.8621 H   0  0  0  0  0  0  0  0  0  0  0  0
  141.3585   74.7852  221.0855 H   0  0  0  0  0  0  0  0  0  0  0  0
  140.2730   75.9467  220.2366 H   0  0  0  0  0  0  0  0  0  0  0  0
  140.7066   75.5715  223.2311 H   0  0  0  0  0  0  0  0  0  0  0  0
  138.1610   75.9490  221.8720 H   0  0  0  0  0  0  0  0  0  0  0  0
  138.5470   75.2720  223.4170 H   0  0  0  0  0  0  0  0  0  0  0  0
  141.2272   77.3779  221.1924 H   0  0  0  0  0  0  0  0  0  0  0  0
  140.9274   77.6285  224.2958 H   0  0  0  0  0  0  0  0  0  0  0  0
  142.4366   77.3888  223.4873 H   0  0  0  0  0  0  0  0  0  0  0  0
  143.3036   80.0907  224.0554 H   0  0  0  0  0  0  0  0  0  0  0  0
  142.8927   82.4323  223.3660 H   0  0  0  0  0  0  0  0  0  0  0  0
  140.8898   83.0327  222.0419 H   0  0  0  0  0  0  0  0  0  0  0  0
  139.2617   81.2826  221.3881 H   0  0  0  0  0  0  0  0  0  0  0  0
  138.8352   78.2747  222.9120 H   0  0  0  0  0  0  0  0  0  0  0  0
  138.9716   78.4548  221.1940 H   0  0  0  0  0  0  0  0  0  0  0  0
  141.4902   72.4323  221.6386 H   0  0  0  0  0  0  0  0  0  0  0  0
  140.8768   73.5631  222.9331 H   0  0  0  0  0  0  0  0  0  0  0  0
  140.8834   70.6119  222.7869 H   0  0  0  0  0  0  0  0  0  0  0  0
  141.0938   71.7962  224.1829 H   0  0  0  0  0  0  0  0  0  0  0  0
  1  2  1  0
  2  3  1  0
  3  4  2  0
  3  5  1  0
  5  6  1  0
  6  7  2  0
  7  8  1  0
  8  9  2  0
  9 10  1  0
 10 11  2  0
  5 12  1  0
 12 13  1  0
 13 14  1  0
 14 15  1  0
 15 16  1  0
 16 17  2  0
 16 18  1  0
 18 19  1  0
 19 20  1  0
 19 21  1  0
 21 22  1  0
 22 23  1  0
 23 24  2  0
 24 25  1  0
 25 26  2  0
 26 27  1  0
 27 28  2  0
 28 29  1  0
 15 30  1  0
 30 31  1  0
 11  6  1  0
 31 12  1  0
 29 21  1  0
 28 23  1  0
  1 32  1  0
  1 33  1  0
  1 34  1  0
  2 35  1  0
  2 36  1  0
  7 37  1  0
  8 38  1  0
  9 39  1  0
 10 40  1  0
 11 41  1  0
 12 42  1  0
 13 43  1  0
 13 44  1  0
 14 45  1  0
 14 46  1  0
 18 47  1  0
 18 48  1  0
 19 49  1  1
 20 50  1  0
 20 51  1  0
 21 52  1  0
 22 53  1  0
 22 54  1  0
 24 55  1  0
 25 56  1  0
 26 57  1  0
 27 58  1  0
 29 59  1  0
 29 60  1  0
 30 61  1  0
 30 62  1  0
 31 63  1  0
 31 64  1  0
M  END
>  <smiles>  (36) 
CCC(=O)N(c1ccccc1)C1CCN(C(=O)CC(N)C2Cc3ccccc3C2)CC1

>  <score_type>  (36) 
oracle

>  <origin>  (36) 
autodockgpu

>  <m_score__min__energy>  (36) 
-8.4100000000000001

>  <m_primary>  (36) 
energy

>  <rmsd>  (36) 
7.267715044935383

>  <m_score__min__rmsd>  (36) 
7.267715044935383

>  <meeko>  (36) 
{"free_energy": -8.11, "intermolecular_energy": -10.5, "internal_energy": -1.93, "cluster_size": 18, "cluster_id": 2, "rank_in_cluster": 5}

>  <energy>  (36) 
-7.91

>  <cluster_rmsd>  (36) 
1.43

>  <cluster>  (36) 
2

$$$$

     RDKit          3D

 64 67  0  0  0  0  0  0  0  0999 V2000
  138.8210   67.5060  221.6230 C   0  0  0  0  0  0  0  0  0  0  0  0
  139.2700   68.7780  222.3130 C   0  0  0  0  0  0  0  0  0  0  0  0
  139.2000   68.5870  223.8050 C   0  0  0  0  0  0  0  0  0  0  0  0
  138.8540   67.4380  224.1840 O   0  0  0  0  0  0  0  0  0  0  0  0
  139.5080   69.6540  224.6780 N   0  0  0  0  0  0  0  0  0  0  0  0
  140.0640   69.3570  225.9700 C   0  0  0  0  0  0  0  0  0  0  0  0
  140.5620   68.0820  226.1910 C   0  0  0  0  0  0  0  0  0  0  0  0
  141.1040   67.7630  227.4270 C   0  0  0  0  0  0  0  0  0  0  0  0
  141.1470   68.7150  228.4270 C   0  0  0  0  0  0  0  0  0  0  0  0
  140.6440   69.9970  228.1990 C   0  0  0  0  0  0  0  0  0  0  0  0
  140.1010   70.3220  226.9700 C   0  0  0  0  0  0  0  0  0  0  0  0
  139.2550   71.0140  224.2390 C   0  0  0  0  0  0  0  0  0  0  0  0
  137.9100   71.1290  223.6310 C   0  0  0  0  0  0  0  0  0  0  0  0
  137.8240   71.6920  222.2590 C   0  0  0  0  0  0  0  0  0  0  0  0
  138.7100   72.8390  222.2150 N   0  0  0  0  0  0  0  0  0  0  0  0
  138.2230   74.1010  221.8020 C   0  0  0  0  0  0  0  0  0  0  0  0
  137.0240   74.2420  221.4690 O   0  0  0  0  0  0  0  0  0  0  0  0
  139.0970   75.2970  221.7420 C   0  0  0  0  0  0  0  0  0  0  0  0
  138.4320   76.4760  222.4610 C   0  0  2  0  0  0  0  0  0  0  0  0
  137.1120   76.6990  221.8760 N   0  0  0  0  0  0  0  0  0  0  0  0
  139.3270   77.6710  222.2510 C   0  0  0  0  0  0  0  0  0  0  0  0
  140.7220   77.3080  222.7160 C   0  0  0  0  0  0  0  0  0  0  0  0
  141.3170   78.6870  222.8250 C   0  0  0  0  0  0  0  0  0  0  0  0
  142.6240   79.1600  222.7030 C   0  0  0  0  0  0  0  0  0  0  0  0
  142.8690   80.5090  222.8580 C   0  0  0  0  0  0  0  0  0  0  0  0
  141.8430   81.3980  223.1310 C   0  0  0  0  0  0  0  0  0  0  0  0
  140.5510   80.9420  223.2520 C   0  0  0  0  0  0  0  0  0  0  0  0
  140.2870   79.5930  223.1000 C   0  0  0  0  0  0  0  0  0  0  0  0
  139.0020   78.8120  223.1750 C   0  0  0  0  0  0  0  0  0  0  0  0
  140.1050   72.7250  222.5880 C   0  0  0  0  0  0  0  0  0  0  0  0
  140.3950   71.5200  223.4250 C   0  0  0  0  0  0  0  0  0  0  0  0
  138.5551   66.7528  222.3793 H   0  0  0  0  0  0  0  0  0  0  0  0
  137.9440   67.7198  220.9944 H   0  0  0  0  0  0  0  0  0  0  0  0
  139.6379   67.1219  220.9944 H   0  0  0  0  0  0  0  0  0  0  0  0
  140.3049   69.0089  222.0204 H   0  0  0  0  0  0  0  0  0  0  0  0
  138.6130   69.6091  222.0170 H   0  0  0  0  0  0  0  0  0  0  0  0
  140.5274   67.3281  225.3908 H   0  0  0  0  0  0  0  0  0  0  0  0
  141.4992   66.7530  227.6109 H   0  0  0  0  0  0  0  0  0  0  0  0
  141.5791   68.4620  229.4064 H   0  0  0  0  0  0  0  0  0  0  0  0
  140.6798   70.7507  228.9995 H   0  0  0  0  0  0  0  0  0  0  0  0
  139.7034   71.3309  226.7857 H   0  0  0  0  0  0  0  0  0  0  0  0
  139.2139   71.6974  225.1000 H   0  0  0  0  0  0  0  0  0  0  0  0
  137.4745   70.1193  223.6008 H   0  0  0  0  0  0  0  0  0  0  0  0
  137.3765   71.8525  224.2650 H   0  0  0  0  0  0  0  0  0  0  0  0
  138.1422   70.9403  221.5216 H   0  0  0  0  0  0  0  0  0  0  0  0
  136.7912   71.9844  222.0188 H   0  0  0  0  0  0  0  0  0  0  0  0
  140.0572   75.0699  222.2282 H   0  0  0  0  0  0  0  0  0  0  0  0
  139.2635   75.5670  220.6887 H   0  0  0  0  0  0  0  0  0  0  0  0
  138.2998   76.2883  223.5368 H   0  0  0  0  0  0  0  0  0  0  0  0
  137.0960   76.4350  220.8780 H   0  0  0  0  0  0  0  0  0  0  0  0
  136.3940   76.1720  222.4380 H   0  0  0  0  0  0  0  0  0  0  0  0
  139.2158   77.9442  221.1913 H   0  0  0  0  0  0  0  0  0  0  0  0
  140.7088   76.7894  223.6860 H   0  0  0  0  0  0  0  0  0  0  0  0
  141.2676   76.6142  222.0595 H   0  0  0  0  0  0  0  0  0  0  0  0
  143.4492   78.4658  222.4859 H   0  0  0  0  0  0  0  0  0  0  0  0
  143.8983   80.8852  222.7630 H   0  0  0  0  0  0  0  0  0  0  0  0
  142.0614   82.4694  223.2511 H   0  0  0  0  0  0  0  0  0  0  0  0
  139.7334   81.6454  223.4682 H   0  0  0  0  0  0  0  0  0  0  0  0
  138.7975   78.4620  224.1976 H   0  0  0  0  0  0  0  0  0  0  0  0
  138.1006   79.3814  222.9043 H   0  0  0  0  0  0  0  0  0  0  0  0
  140.7085   72.6665  221.6702 H   0  0  0  0  0  0  0  0  0  0  0  0
  140.3551   73.6099  223.1916 H   0  0  0  0  0  0  0  0  0  0  0  0
  140.7171   70.7106  222.7533 H   0  0  0  0  0  0  0  0  0  0  0  0
  141.1652   71.8318  224.1458 H   0  0  0  0  0  0  0  0  0  0  0  0
  1  2  1  0
  2  3  1  0
  3  4  2  0
  3  5  1  0
  5  6  1  0
  6  7  2  0
  7  8  1  0
  8  9  2  0
  9 10  1  0
 10 11  2  0
  5 12  1  0
 12 13  1  0
 13 14  1  0
 14 15  1  0
 15 16  1  0
 16 17  2  0
 16 18  1  0
 18 19  1  0
 19 20  1  0
 19 21  1  0
 21 22  1  0
 22 23  1  0
 23 24  2  0
 24 25  1  0
 25 26  2  0
 26 27  1  0
 27 28  2  0
 28 29  1  0
 15 30  1  0
 30 31  1  0
 11  6  1  0
 31 12  1  0
 29 21  1  0
 28 23  1  0
  1 32  1  0
  1 33  1  0
  1 34  1  0
  2 35  1  0
  2 36  1  0
  7 37  1  0
  8 38  1  0
  9 39  1  0
 10 40  1  0
 11 41  1  0
 12 42  1  0
 13 43  1  0
 13 44  1  0
 14 45  1  0
 14 46  1  0
 18 47  1  0
 18 48  1  0
 19 49  1  1
 20 50  1  0
 20 51  1  0
 21 52  1  0
 22 53  1  0
 22 54  1  0
 24 55  1  0
 25 56  1  0
 26 57  1  0
 27 58  1  0
 29 59  1  0
 29 60  1  0
 30 61  1  0
 30 62  1  0
 31 63  1  0
 31 64  1  0
M  END
>  <smiles>  (37) 
CCC(=O)N(c1ccccc1)C1CCN(C(=O)CC(N)C2Cc3ccccc3C2)CC1

>  <score_type>  (37) 
oracle

>  <origin>  (37) 
autodockgpu

>  <m_score__min__energy>  (37) 
-8.4100000000000001

>  <m_primary>  (37) 
energy

>  <rmsd>  (37) 
7.669903263397635

>  <m_score__min__rmsd>  (37) 
7.669903263397635

>  <meeko>  (37) 
{"free_energy": -8.26, "intermolecular_energy": -10.65, "internal_energy": -1.83, "cluster_size": 18, "cluster_id": 2, "rank_in_cluster": 3}

>  <energy>  (37) 
-7.85

>  <cluster_rmsd>  (37) 
0.77

>  <cluster>  (37) 
2

$$$$

     RDKit          3D

 64 67  0  0  0  0  0  0  0  0999 V2000
  142.5490   80.3080  218.4040 C   0  0  0  0  0  0  0  0  0  0  0  0
  142.0480   78.8780  218.3790 C   0  0  0  0  0  0  0  0  0  0  0  0
  140.7510   78.7920  219.1400 C   0  0  0  0  0  0  0  0  0  0  0  0
  139.7600   79.3200  218.5740 O   0  0  0  0  0  0  0  0  0  0  0  0
  140.7020   78.1530  220.4000 N   0  0  0  0  0  0  0  0  0  0  0  0
  140.9850   78.9230  221.5800 C   0  0  0  0  0  0  0  0  0  0  0  0
  142.3110   79.1030  221.9430 C   0  0  0  0  0  0  0  0  0  0  0  0
  142.6180   79.8400  223.0760 C   0  0  0  0  0  0  0  0  0  0  0  0
  141.6030   80.3910  223.8350 C   0  0  0  0  0  0  0  0  0  0  0  0
  140.2700   80.2070  223.4650 C   0  0  0  0  0  0  0  0  0  0  0  0
  139.9570   79.4730  222.3370 C   0  0  0  0  0  0  0  0  0  0  0  0
  140.3670   76.7420  220.4580 C   0  0  0  0  0  0  0  0  0  0  0  0
  139.0060   76.5470  221.0060 C   0  0  0  0  0  0  0  0  0  0  0  0
  138.8620   75.6440  222.1770 C   0  0  0  0  0  0  0  0  0  0  0  0
  139.6850   74.4780  221.9180 N   0  0  0  0  0  0  0  0  0  0  0  0
  139.1230   73.1810  221.9760 C   0  0  0  0  0  0  0  0  0  0  0  0
  137.9110   73.0260  222.2520 O   0  0  0  0  0  0  0  0  0  0  0  0
  139.9290   71.9650  221.7180 C   0  0  0  0  0  0  0  0  0  0  0  0
  139.2640   70.7420  222.3580 C   0  0  2  0  0  0  0  0  0  0  0  0
  137.8840   70.6580  221.8880 N   0  0  0  0  0  0  0  0  0  0  0  0
  139.3160   70.9530  223.8510 C   0  0  0  0  0  0  0  0  0  0  0  0
  140.6800   71.5080  224.2050 C   0  0  0  0  0  0  0  0  0  0  0  0
  140.6790   71.2470  225.6890 C   0  0  0  0  0  0  0  0  0  0  0  0
  141.3110   71.8840  226.7560 C   0  0  0  0  0  0  0  0  0  0  0  0
  141.1170   71.4070  228.0360 C   0  0  0  0  0  0  0  0  0  0  0  0
  140.3070   70.3110  228.2770 C   0  0  0  0  0  0  0  0  0  0  0  0
  139.6790   69.6750  227.2320 C   0  0  0  0  0  0  0  0  0  0  0  0
  139.8630   70.1390  225.9420 C   0  0  0  0  0  0  0  0  0  0  0  0
  139.3200   69.6620  224.6210 C   0  0  0  0  0  0  0  0  0  0  0  0
  141.0910   74.6070  221.5960 C   0  0  0  0  0  0  0  0  0  0  0  0
  141.4630   75.9730  221.1130 C   0  0  0  0  0  0  0  0  0  0  0  0
  142.6646   80.6378  219.4470 H   0  0  0  0  0  0  0  0  0  0  0  0
  143.5207   80.3651  217.8916 H   0  0  0  0  0  0  0  0  0  0  0  0
  141.8254   80.9590  217.8916 H   0  0  0  0  0  0  0  0  0  0  0  0
  141.8846   78.5640  217.3375 H   0  0  0  0  0  0  0  0  0  0  0  0
  142.7938   78.2178  218.8458 H   0  0  0  0  0  0  0  0  0  0  0  0
  143.1152   78.6632  221.3349 H   0  0  0  0  0  0  0  0  0  0  0  0
  143.6677   79.9861  223.3706 H   0  0  0  0  0  0  0  0  0  0  0  0
  141.8466   80.9766  224.7338 H   0  0  0  0  0  0  0  0  0  0  0  0
  139.4662   80.6476  224.0731 H   0  0  0  0  0  0  0  0  0  0  0  0
  138.9076   79.3257  222.0418 H   0  0  0  0  0  0  0  0  0  0  0  0
  140.3058   76.3154  219.4460 H   0  0  0  0  0  0  0  0  0  0  0  0
  138.6255   77.5354  221.3031 H   0  0  0  0  0  0  0  0  0  0  0  0
  138.4467   76.0513  220.1988 H   0  0  0  0  0  0  0  0  0  0  0  0
  139.2043   76.1525  223.0904 H   0  0  0  0  0  0  0  0  0  0  0  0
  137.8103   75.3570  222.3241 H   0  0  0  0  0  0  0  0  0  0  0  0
  140.0109   71.8073  220.6325 H   0  0  0  0  0  0  0  0  0  0  0  0
  140.9294   72.0988  222.1553 H   0  0  0  0  0  0  0  0  0  0  0  0
  139.7720   69.8034  222.0915 H   0  0  0  0  0  0  0  0  0  0  0  0
  137.2210   70.9630  222.6180 H   0  0  0  0  0  0  0  0  0  0  0  0
  137.7880   71.2210  221.0030 H   0  0  0  0  0  0  0  0  0  0  0  0
  138.4486   71.5842  224.0942 H   0  0  0  0  0  0  0  0  0  0  0  0
  141.4888   70.9654  223.6937 H   0  0  0  0  0  0  0  0  0  0  0  0
  140.8483   72.5555  223.9146 H   0  0  0  0  0  0  0  0  0  0  0  0
  141.9568   72.7568  226.5794 H   0  0  0  0  0  0  0  0  0  0  0  0
  141.6150   71.9067  228.8800 H   0  0  0  0  0  0  0  0  0  0  0  0
  140.1654   69.9482  229.3057 H   0  0  0  0  0  0  0  0  0  0  0  0
  139.0349   68.8035  227.4206 H   0  0  0  0  0  0  0  0  0  0  0  0
  139.9785   68.9131  224.1567 H   0  0  0  0  0  0  0  0  0  0  0  0
  138.3444   69.1573  224.6792 H   0  0  0  0  0  0  0  0  0  0  0  0
  141.6782   74.3837  222.4990 H   0  0  0  0  0  0  0  0  0  0  0  0
  141.3047   73.9024  220.7788 H   0  0  0  0  0  0  0  0  0  0  0  0
  141.8149   76.5543  221.9781 H   0  0  0  0  0  0  0  0  0  0  0  0
  142.2301   75.8215  220.3393 H   0  0  0  0  0  0  0  0  0  0  0  0
  1  2  1  0
  2  3  1  0
  3  4  2  0
  3  5  1  0
  5  6  1  0
  6  7  2  0
  7  8  1  0
  8  9  2  0
  9 10  1  0
 10 11  2  0
  5 12  1  0
 12 13  1  0
 13 14  1  0
 14 15  1  0
 15 16  1  0
 16 17  2  0
 16 18  1  0
 18 19  1  0
 19 20  1  0
 19 21  1  0
 21 22  1  0
 22 23  1  0
 23 24  2  0
 24 25  1  0
 25 26  2  0
 26 27  1  0
 27 28  2  0
 28 29  1  0
 15 30  1  0
 30 31  1  0
 11  6  1  0
 31 12  1  0
 29 21  1  0
 28 23  1  0
  1 32  1  0
  1 33  1  0
  1 34  1  0
  2 35  1  0
  2 36  1  0
  7 37  1  0
  8 38  1  0
  9 39  1  0
 10 40  1  0
 11 41  1  0
 12 42  1  0
 13 43  1  0
 13 44  1  0
 14 45  1  0
 14 46  1  0
 18 47  1  0
 18 48  1  0
 19 49  1  1
 20 50  1  0
 20 51  1  0
 21 52  1  0
 22 53  1  0
 22 54  1  0
 24 55  1  0
 25 56  1  0
 26 57  1  0
 27 58  1  0
 29 59  1  0
 29 60  1  0
 30 61  1  0
 30 62  1  0
 31 63  1  0
 31 64  1  0
M  END
>  <smiles>  (38) 
CCC(=O)N(c1ccccc1)C1CCN(C(=O)CC(N)C2Cc3ccccc3C2)CC1

>  <score_type>  (38) 
oracle

>  <origin>  (38) 
autodockgpu

>  <m_score__min__energy>  (38) 
-8.4100000000000001

>  <m_primary>  (38) 
energy

>  <rmsd>  (38) 
6.525118799151304

>  <m_score__min__rmsd>  (38) 
6.525118799151304

>  <meeko>  (38) 
{"free_energy": -7.7, "intermolecular_energy": -10.09, "internal_energy": -2.36, "cluster_size": 24, "cluster_id": 1, "rank_in_cluster": 16}

>  <energy>  (38) 
-7.84

>  <cluster_rmsd>  (38) 
0.78

>  <cluster>  (38) 
2

$$$$

     RDKit          3D

 64 67  0  0  0  0  0  0  0  0999 V2000
  138.8250   67.5550  221.6760 C   0  0  0  0  0  0  0  0  0  0  0  0
  139.2860   68.8630  222.2880 C   0  0  0  0  0  0  0  0  0  0  0  0
  139.0420   68.8320  223.7740 C   0  0  0  0  0  0  0  0  0  0  0  0
  138.5180   67.7740  224.2100 O   0  0  0  0  0  0  0  0  0  0  0  0
  139.3920   69.9380  224.5790 N   0  0  0  0  0  0  0  0  0  0  0  0
  139.9730   69.7000  225.8720 C   0  0  0  0  0  0  0  0  0  0  0  0
  140.2230   68.3890  226.2470 C   0  0  0  0  0  0  0  0  0  0  0  0
  140.7820   68.1250  227.4880 C   0  0  0  0  0  0  0  0  0  0  0  0
  141.0880   69.1680  228.3410 C   0  0  0  0  0  0  0  0  0  0  0  0
  140.8350   70.4860  227.9590 C   0  0  0  0  0  0  0  0  0  0  0  0
  140.2760   70.7560  226.7230 C   0  0  0  0  0  0  0  0  0  0  0  0
  139.1540   71.2770  224.0720 C   0  0  0  0  0  0  0  0  0  0  0  0
  137.8490   71.3540  223.3790 C   0  0  0  0  0  0  0  0  0  0  0  0
  137.8420   71.8620  221.9830 C   0  0  0  0  0  0  0  0  0  0  0  0
  138.7200   73.0160  221.9480 N   0  0  0  0  0  0  0  0  0  0  0  0
  138.2490   74.2560  221.4560 C   0  0  0  0  0  0  0  0  0  0  0  0
  137.0710   74.3710  221.0460 O   0  0  0  0  0  0  0  0  0  0  0  0
  139.1140   75.4580  221.4030 C   0  0  0  0  0  0  0  0  0  0  0  0
  138.6330   76.5030  222.4150 C   0  0  2  0  0  0  0  0  0  0  0  0
  137.2270   76.7990  222.1530 N   0  0  0  0  0  0  0  0  0  0  0  0
  139.4910   77.7270  222.2140 C   0  0  0  0  0  0  0  0  0  0  0  0
  140.8850   77.4190  222.7210 C   0  0  0  0  0  0  0  0  0  0  0  0
  141.4280   78.8200  222.8280 C   0  0  0  0  0  0  0  0  0  0  0  0
  142.7200   79.3380  222.7360 C   0  0  0  0  0  0  0  0  0  0  0  0
  142.9130   80.6960  222.8790 C   0  0  0  0  0  0  0  0  0  0  0  0
  141.8500   81.5510  223.1120 C   0  0  0  0  0  0  0  0  0  0  0  0
  140.5720   81.0510  223.2040 C   0  0  0  0  0  0  0  0  0  0  0  0
  140.3590   79.6920  223.0630 C   0  0  0  0  0  0  0  0  0  0  0  0
  139.1010   78.8670  223.1130 C   0  0  0  0  0  0  0  0  0  0  0  0
  140.0900   72.9320  222.4090 C   0  0  0  0  0  0  0  0  0  0  0  0
  140.3390   71.7640  223.3100 C   0  0  0  0  0  0  0  0  0  0  0  0
  138.5743   66.8437  222.4768 H   0  0  0  0  0  0  0  0  0  0  0  0
  137.9360   67.7346  221.0536 H   0  0  0  0  0  0  0  0  0  0  0  0
  139.6302   67.1375  221.0536 H   0  0  0  0  0  0  0  0  0  0  0  0
  140.3602   69.0003  222.0950 H   0  0  0  0  0  0  0  0  0  0  0  0
  138.7251   69.6966  221.8403 H   0  0  0  0  0  0  0  0  0  0  0  0
  139.9791   67.5624  225.5634 H   0  0  0  0  0  0  0  0  0  0  0  0
  140.9815   67.0871  227.7930 H   0  0  0  0  0  0  0  0  0  0  0  0
  141.5328   68.9585  229.3250 H   0  0  0  0  0  0  0  0  0  0  0  0
  141.0807   71.3122  228.6424 H   0  0  0  0  0  0  0  0  0  0  0  0
  140.0739   71.7932  226.4176 H   0  0  0  0  0  0  0  0  0  0  0  0
  139.0528   71.9926  224.9013 H   0  0  0  0  0  0  0  0  0  0  0  0
  137.4245   70.3393  223.3624 H   0  0  0  0  0  0  0  0  0  0  0  0
  137.2722   72.0965  223.9500 H   0  0  0  0  0  0  0  0  0  0  0  0
  138.2107   71.0856  221.2965 H   0  0  0  0  0  0  0  0  0  0  0  0
  136.8234   72.1337  221.6689 H   0  0  0  0  0  0  0  0  0  0  0  0
  140.1489   75.1713  221.6412 H   0  0  0  0  0  0  0  0  0  0  0  0
  139.0662   75.8895  220.3923 H   0  0  0  0  0  0  0  0  0  0  0  0
  138.7182   76.1487  223.4529 H   0  0  0  0  0  0  0  0  0  0  0  0
  137.0750   77.0410  221.1600 H   0  0  0  0  0  0  0  0  0  0  0  0
  136.6410   75.9780  222.4560 H   0  0  0  0  0  0  0  0  0  0  0  0
  139.3992   77.9835  221.1483 H   0  0  0  0  0  0  0  0  0  0  0  0
  140.8636   76.9119  223.6969 H   0  0  0  0  0  0  0  0  0  0  0  0
  141.4723   76.7371  222.0885 H   0  0  0  0  0  0  0  0  0  0  0  0
  143.5750   78.6709  222.5515 H   0  0  0  0  0  0  0  0  0  0  0  0
  143.9307   81.1072  222.8065 H   0  0  0  0  0  0  0  0  0  0  0  0
  142.0273   82.6309  223.2237 H   0  0  0  0  0  0  0  0  0  0  0  0
  139.7248   81.7279  223.3885 H   0  0  0  0  0  0  0  0  0  0  0  0
  138.8804   78.5228  224.1342 H   0  0  0  0  0  0  0  0  0  0  0  0
  138.1882   79.4007  222.8098 H   0  0  0  0  0  0  0  0  0  0  0  0
  140.7488   72.8439  221.5325 H   0  0  0  0  0  0  0  0  0  0  0  0
  140.2951   73.8427  222.9908 H   0  0  0  0  0  0  0  0  0  0  0  0
  140.7098   70.9327  222.6924 H   0  0  0  0  0  0  0  0  0  0  0  0
  141.0603   72.1126  224.0638 H   0  0  0  0  0  0  0  0  0  0  0  0
  1  2  1  0
  2  3  1  0
  3  4  2  0
  3  5  1  0
  5  6  1  0
  6  7  2  0
  7  8  1  0
  8  9  2  0
  9 10  1  0
 10 11  2  0
  5 12  1  0
 12 13  1  0
 13 14  1  0
 14 15  1  0
 15 16  1  0
 16 17  2  0
 16 18  1  0
 18 19  1  0
 19 20  1  0
 19 21  1  0
 21 22  1  0
 22 23  1  0
 23 24  2  0
 24 25  1  0
 25 26  2  0
 26 27  1  0
 27 28  2  0
 28 29  1  0
 15 30  1  0
 30 31  1  0
 11  6  1  0
 31 12  1  0
 29 21  1  0
 28 23  1  0
  1 32  1  0
  1 33  1  0
  1 34  1  0
  2 35  1  0
  2 36  1  0
  7 37  1  0
  8 38  1  0
  9 39  1  0
 10 40  1  0
 11 41  1  0
 12 42  1  0
 13 43  1  0
 13 44  1  0
 14 45  1  0
 14 46  1  0
 18 47  1  0
 18 48  1  0
 19 49  1  1
 20 50  1  0
 20 51  1  0
 21 52  1  0
 22 53  1  0
 22 54  1  0
 24 55  1  0
 25 56  1  0
 26 57  1  0
 27 58  1  0
 29 59  1  0
 29 60  1  0
 30 61  1  0
 30 62  1  0
 31 63  1  0
 31 64  1  0
M  END
>  <smiles>  (39) 
CCC(=O)N(c1ccccc1)C1CCN(C(=O)CC(N)C2Cc3ccccc3C2)CC1

>  <score_type>  (39) 
oracle

>  <origin>  (39) 
autodockgpu

>  <m_score__min__energy>  (39) 
-8.4100000000000001

>  <m_primary>  (39) 
energy

>  <rmsd>  (39) 
7.4983446871123425

>  <m_score__min__rmsd>  (39) 
7.4983446871123425

>  <meeko>  (39) 
{"free_energy": -8.18, "intermolecular_energy": -10.57, "internal_energy": -1.77, "cluster_size": 18, "cluster_id": 2, "rank_in_cluster": 4}

>  <energy>  (39) 
-7.82

>  <cluster_rmsd>  (39) 
0.81

>  <cluster>  (39) 
2

$$$$

     RDKit          3D

 64 67  0  0  0  0  0  0  0  0999 V2000
  136.4790   69.5880  224.9460 C   0  0  0  0  0  0  0  0  0  0  0  0
  136.9420   68.9280  223.6630 C   0  0  0  0  0  0  0  0  0  0  0  0
  138.4420   69.0190  223.5690 C   0  0  0  0  0  0  0  0  0  0  0  0
  138.9860   68.1690  222.8180 O   0  0  0  0  0  0  0  0  0  0  0  0
  139.1450   70.0060  224.2950 N   0  0  0  0  0  0  0  0  0  0  0  0
  139.6880   69.6670  225.5820 C   0  0  0  0  0  0  0  0  0  0  0  0
  139.6980   68.3330  225.9590 C   0  0  0  0  0  0  0  0  0  0  0  0
  140.2150   67.9730  227.1940 C   0  0  0  0  0  0  0  0  0  0  0  0
  140.7170   68.9430  228.0400 C   0  0  0  0  0  0  0  0  0  0  0  0
  140.7050   70.2850  227.6560 C   0  0  0  0  0  0  0  0  0  0  0  0
  140.1900   70.6510  226.4260 C   0  0  0  0  0  0  0  0  0  0  0  0
  139.2960   71.3280  223.7160 C   0  0  0  0  0  0  0  0  0  0  0  0
  138.1960   71.6150  222.7660 C   0  0  0  0  0  0  0  0  0  0  0  0
  138.5700   72.0190  221.3860 C   0  0  0  0  0  0  0  0  0  0  0  0
  139.6580   72.9710  221.5030 N   0  0  0  0  0  0  0  0  0  0  0  0
  139.5610   74.2420  220.8930 C   0  0  0  0  0  0  0  0  0  0  0  0
  138.5370   74.5610  220.2460 O   0  0  0  0  0  0  0  0  0  0  0  0
  140.6510   75.2430  220.9870 C   0  0  0  0  0  0  0  0  0  0  0  0
  140.5190   76.0500  222.2830 C   0  0  2  0  0  0  0  0  0  0  0  0
  139.1310   75.9930  222.7330 N   0  0  0  0  0  0  0  0  0  0  0  0
  140.9250   77.4650  221.9540 C   0  0  0  0  0  0  0  0  0  0  0  0
  141.4410   78.1180  223.2190 C   0  0  0  0  0  0  0  0  0  0  0  0
  141.3820   79.5630  222.7990 C   0  0  0  0  0  0  0  0  0  0  0  0
  142.1180   80.6840  223.1800 C   0  0  0  0  0  0  0  0  0  0  0  0
  141.8300   81.9060  222.6070 C   0  0  0  0  0  0  0  0  0  0  0  0
  140.8250   82.0360  221.6640 C   0  0  0  0  0  0  0  0  0  0  0  0
  140.0940   80.9370  221.2810 C   0  0  0  0  0  0  0  0  0  0  0  0
  140.3690   79.7040  221.8440 C   0  0  0  0  0  0  0  0  0  0  0  0
  139.7510   78.3470  221.6310 C   0  0  0  0  0  0  0  0  0  0  0  0
  140.8630   72.6480  222.2390 C   0  0  0  0  0  0  0  0  0  0  0  0
  140.6810   71.5170  223.2010 C   0  0  0  0  0  0  0  0  0  0  0  0
  136.8713   69.0288  225.8082 H   0  0  0  0  0  0  0  0  0  0  0  0
  136.8501   70.6229  224.9806 H   0  0  0  0  0  0  0  0  0  0  0  0
  135.3796   69.5913  224.9806 H   0  0  0  0  0  0  0  0  0  0  0  0
  136.6374   67.8710  223.6630 H   0  0  0  0  0  0  0  0  0  0  0  0
  136.4874   69.4388  222.8013 H   0  0  0  0  0  0  0  0  0  0  0  0
  139.2978   67.5641  225.2818 H   0  0  0  0  0  0  0  0  0  0  0  0
  140.2255   66.9164  227.4999 H   0  0  0  0  0  0  0  0  0  0  0  0
  141.1276   68.6568  229.0196 H   0  0  0  0  0  0  0  0  0  0  0  0
  141.1062   71.0532  228.3335 H   0  0  0  0  0  0  0  0  0  0  0  0
  140.1777   71.7073  226.1193 H   0  0  0  0  0  0  0  0  0  0  0  0
  139.1867   72.1036  224.4883 H   0  0  0  0  0  0  0  0  0  0  0  0
  137.5820   70.7056  222.6882 H   0  0  0  0  0  0  0  0  0  0  0  0
  137.6843   72.4933  223.1864 H   0  0  0  0  0  0  0  0  0  0  0  0
  138.8971   71.1403  220.8107 H   0  0  0  0  0  0  0  0  0  0  0  0
  137.7123   72.4656  220.8617 H   0  0  0  0  0  0  0  0  0  0  0  0
  141.6214   74.7251  220.9788 H   0  0  0  0  0  0  0  0  0  0  0  0
  140.5835   75.9284  220.1293 H   0  0  0  0  0  0  0  0  0  0  0  0
  141.1537   75.6529  223.0888 H   0  0  0  0  0  0  0  0  0  0  0  0
  138.4810   75.9390  221.9330 H   0  0  0  0  0  0  0  0  0  0  0  0
  139.0170   75.1800  223.3930 H   0  0  0  0  0  0  0  0  0  0  0  0
  141.6334   77.3853  221.1163 H   0  0  0  0  0  0  0  0  0  0  0  0
  140.7882   77.9148  224.0807 H   0  0  0  0  0  0  0  0  0  0  0  0
  142.4288   77.7694  223.5548 H   0  0  0  0  0  0  0  0  0  0  0  0
  142.9190   80.5955  223.9287 H   0  0  0  0  0  0  0  0  0  0  0  0
  142.4093   82.7924  222.9049 H   0  0  0  0  0  0  0  0  0  0  0  0
  140.6113   83.0198  221.2208 H   0  0  0  0  0  0  0  0  0  0  0  0
  139.2952   81.0374  220.5314 H   0  0  0  0  0  0  0  0  0  0  0  0
  138.9087   78.1710  222.3163 H   0  0  0  0  0  0  0  0  0  0  0  0
  139.3172   78.1897  220.6325 H   0  0  0  0  0  0  0  0  0  0  0  0
  141.6485   72.3723  221.5199 H   0  0  0  0  0  0  0  0  0  0  0  0
  141.1347   73.5369  222.8273 H   0  0  0  0  0  0  0  0  0  0  0  0
  140.9832   70.5889  222.6937 H   0  0  0  0  0  0  0  0  0  0  0  0
  141.2974   71.7649  224.0777 H   0  0  0  0  0  0  0  0  0  0  0  0
  1  2  1  0
  2  3  1  0
  3  4  2  0
  3  5  1  0
  5  6  1  0
  6  7  2  0
  7  8  1  0
  8  9  2  0
  9 10  1  0
 10 11  2  0
  5 12  1  0
 12 13  1  0
 13 14  1  0
 14 15  1  0
 15 16  1  0
 16 17  2  0
 16 18  1  0
 18 19  1  0
 19 20  1  0
 19 21  1  0
 21 22  1  0
 22 23  1  0
 23 24  2  0
 24 25  1  0
 25 26  2  0
 26 27  1  0
 27 28  2  0
 28 29  1  0
 15 30  1  0
 30 31  1  0
 11  6  1  0
 31 12  1  0
 29 21  1  0
 28 23  1  0
  1 32  1  0
  1 33  1  0
  1 34  1  0
  2 35  1  0
  2 36  1  0
  7 37  1  0
  8 38  1  0
  9 39  1  0
 10 40  1  0
 11 41  1  0
 12 42  1  0
 13 43  1  0
 13 44  1  0
 14 45  1  0
 14 46  1  0
 18 47  1  0
 18 48  1  0
 19 49  1  1
 20 50  1  0
 20 51  1  0
 21 52  1  0
 22 53  1  0
 22 54  1  0
 24 55  1  0
 25 56  1  0
 26 57  1  0
 27 58  1  0
 29 59  1  0
 29 60  1  0
 30 61  1  0
 30 62  1  0
 31 63  1  0
 31 64  1  0
M  END
>  <smiles>  (40) 
CCC(=O)N(c1ccccc1)C1CCN(C(=O)CC(N)C2Cc3ccccc3C2)CC1

>  <score_type>  (40) 
oracle

>  <origin>  (40) 
autodockgpu

>  <m_score__min__energy>  (40) 
-8.4100000000000001

>  <m_primary>  (40) 
energy

>  <rmsd>  (40) 
7.156736924025713

>  <m_score__min__rmsd>  (40) 
7.156736924025713

>  <meeko>  (40) 
{"free_energy": -7.91, "intermolecular_energy": -10.29, "internal_energy": -1.92, "cluster_size": 18, "cluster_id": 2, "rank_in_cluster": 12}

>  <energy>  (40) 
-7.79

>  <cluster_rmsd>  (40) 
0.69

>  <cluster>  (40) 
2

$$$$

     RDKit          3D

 64 67  0  0  0  0  0  0  0  0999 V2000
  138.5800   67.5530  221.7690 C   0  0  0  0  0  0  0  0  0  0  0  0
  139.2130   68.8170  222.3140 C   0  0  0  0  0  0  0  0  0  0  0  0
  139.0600   68.8460  223.8120 C   0  0  0  0  0  0  0  0  0  0  0  0
  138.4800   67.8470  224.3120 O   0  0  0  0  0  0  0  0  0  0  0  0
  139.5490   69.9400  224.5600 N   0  0  0  0  0  0  0  0  0  0  0  0
  140.0790   69.7020  225.8740 C   0  0  0  0  0  0  0  0  0  0  0  0
  140.3610   68.3950  226.2400 C   0  0  0  0  0  0  0  0  0  0  0  0
  140.8740   68.1310  227.5010 C   0  0  0  0  0  0  0  0  0  0  0  0
  141.1010   69.1700  228.3830 C   0  0  0  0  0  0  0  0  0  0  0  0
  140.8160   70.4840  228.0100 C   0  0  0  0  0  0  0  0  0  0  0  0
  140.3040   70.7540  226.7540 C   0  0  0  0  0  0  0  0  0  0  0  0
  139.4990   71.2670  223.9740 C   0  0  0  0  0  0  0  0  0  0  0  0
  138.1990   71.4990  223.3050 C   0  0  0  0  0  0  0  0  0  0  0  0
  138.2260   71.9190  221.8800 C   0  0  0  0  0  0  0  0  0  0  0  0
  139.2650   72.9220  221.7530 N   0  0  0  0  0  0  0  0  0  0  0  0
  138.9710   74.1870  221.1940 C   0  0  0  0  0  0  0  0  0  0  0  0
  137.8110   74.4550  220.8030 O   0  0  0  0  0  0  0  0  0  0  0  0
  140.0050   75.2390  221.0460 C   0  0  0  0  0  0  0  0  0  0  0  0
  140.0580   76.1120  222.3040 C   0  0  2  0  0  0  0  0  0  0  0  0
  138.7110   76.2220  222.8570 N   0  0  0  0  0  0  0  0  0  0  0  0
  140.5790   77.4600  221.8740 C   0  0  0  0  0  0  0  0  0  0  0  0
  141.1760   78.1470  223.0840 C   0  0  0  0  0  0  0  0  0  0  0  0
  141.2350   79.5610  222.5670 C   0  0  0  0  0  0  0  0  0  0  0  0
  142.0750   80.6350  222.8590 C   0  0  0  0  0  0  0  0  0  0  0  0
  141.8830   81.8370  222.2090 C   0  0  0  0  0  0  0  0  0  0  0  0
  140.8740   81.9920  221.2730 C   0  0  0  0  0  0  0  0  0  0  0  0
  140.0420   80.9390  220.9770 C   0  0  0  0  0  0  0  0  0  0  0  0
  140.2190   79.7270  221.6190 C   0  0  0  0  0  0  0  0  0  0  0  0
  139.4810   78.4200  221.5080 C   0  0  0  0  0  0  0  0  0  0  0  0
  140.6210   72.6590  222.1900 C   0  0  0  0  0  0  0  0  0  0  0  0
  140.7190   71.5220  223.1570 C   0  0  0  0  0  0  0  0  0  0  0  0
  138.2598   66.9135  222.6048 H   0  0  0  0  0  0  0  0  0  0  0  0
  137.7073   67.8160  221.1533 H   0  0  0  0  0  0  0  0  0  0  0  0
  139.3134   67.0117  221.1533 H   0  0  0  0  0  0  0  0  0  0  0  0
  140.2816   68.8342  222.0536 H   0  0  0  0  0  0  0  0  0  0  0  0
  138.7162   69.6955  221.8764 H   0  0  0  0  0  0  0  0  0  0  0  0
  140.1788   67.5716  225.5338 H   0  0  0  0  0  0  0  0  0  0  0  0
  141.0998   67.0963  227.7985 H   0  0  0  0  0  0  0  0  0  0  0  0
  141.5080   68.9605  229.3832 H   0  0  0  0  0  0  0  0  0  0  0  0
  140.9990   71.3070  228.7166 H   0  0  0  0  0  0  0  0  0  0  0  0
  140.0777   71.7882  226.4553 H   0  0  0  0  0  0  0  0  0  0  0  0
  139.5320   72.0378  224.7580 H   0  0  0  0  0  0  0  0  0  0  0  0
  137.6275   70.5608  223.3612 H   0  0  0  0  0  0  0  0  0  0  0  0
  137.7568   72.3522  223.8402 H   0  0  0  0  0  0  0  0  0  0  0  0
  138.4530   71.0564  221.2362 H   0  0  0  0  0  0  0  0  0  0  0  0
  137.2506   72.3232  221.5715 H   0  0  0  0  0  0  0  0  0  0  0  0
  140.9856   74.7651  220.8914 H   0  0  0  0  0  0  0  0  0  0  0  0
  139.7520   75.8709  220.1819 H   0  0  0  0  0  0  0  0  0  0  0  0
  140.7104   75.6857  223.0803 H   0  0  0  0  0  0  0  0  0  0  0  0
  137.9970   76.2010  222.1110 H   0  0  0  0  0  0  0  0  0  0  0  0
  138.5670   75.4560  223.5660 H   0  0  0  0  0  0  0  0  0  0  0  0
  141.2602   77.2619  221.0333 H   0  0  0  0  0  0  0  0  0  0  0  0
  140.5257   78.0602  223.9670 H   0  0  0  0  0  0  0  0  0  0  0  0
  142.1361   77.7352  223.4285 H   0  0  0  0  0  0  0  0  0  0  0  0
  142.8815   80.5253  223.5990 H   0  0  0  0  0  0  0  0  0  0  0  0
  142.5428   82.6868  222.4382 H   0  0  0  0  0  0  0  0  0  0  0  0
  140.7384   82.9588  220.7661 H   0  0  0  0  0  0  0  0  0  0  0  0
  139.2400   81.0595  220.2338 H   0  0  0  0  0  0  0  0  0  0  0  0
  138.6404   78.3658  222.2154 H   0  0  0  0  0  0  0  0  0  0  0  0
  139.0155   78.2356  220.5285 H   0  0  0  0  0  0  0  0  0  0  0  0
  141.2327   72.4208  221.3073 H   0  0  0  0  0  0  0  0  0  0  0  0
  140.9776   73.5609  222.7090 H   0  0  0  0  0  0  0  0  0  0  0  0
  140.9406   70.6089  222.5850 H   0  0  0  0  0  0  0  0  0  0  0  0
  141.5078   71.8005  223.8713 H   0  0  0  0  0  0  0  0  0  0  0  0
  1  2  1  0
  2  3  1  0
  3  4  2  0
  3  5  1  0
  5  6  1  0
  6  7  2  0
  7  8  1  0
  8  9  2  0
  9 10  1  0
 10 11  2  0
  5 12  1  0
 12 13  1  0
 13 14  1  0
 14 15  1  0
 15 16  1  0
 16 17  2  0
 16 18  1  0
 18 19  1  0
 19 20  1  0
 19 21  1  0
 21 22  1  0
 22 23  1  0
 23 24  2  0
 24 25  1  0
 25 26  2  0
 26 27  1  0
 27 28  2  0
 28 29  1  0
 15 30  1  0
 30 31  1  0
 11  6  1  0
 31 12  1  0
 29 21  1  0
 28 23  1  0
  1 32  1  0
  1 33  1  0
  1 34  1  0
  2 35  1  0
  2 36  1  0
  7 37  1  0
  8 38  1  0
  9 39  1  0
 10 40  1  0
 11 41  1  0
 12 42  1  0
 13 43  1  0
 13 44  1  0
 14 45  1  0
 14 46  1  0
 18 47  1  0
 18 48  1  0
 19 49  1  1
 20 50  1  0
 20 51  1  0
 21 52  1  0
 22 53  1  0
 22 54  1  0
 24 55  1  0
 25 56  1  0
 26 57  1  0
 27 58  1  0
 29 59  1  0
 29 60  1  0
 30 61  1  0
 30 62  1  0
 31 63  1  0
 31 64  1  0
M  END
>  <smiles>  (41) 
CCC(=O)N(c1ccccc1)C1CCN(C(=O)CC(N)C2Cc3ccccc3C2)CC1

>  <score_type>  (41) 
oracle

>  <origin>  (41) 
autodockgpu

>  <m_score__min__energy>  (41) 
-8.4100000000000001

>  <m_primary>  (41) 
energy

>  <rmsd>  (41) 
7.234342387911848

>  <m_score__min__rmsd>  (41) 
7.234342387911848

>  <meeko>  (41) 
{"free_energy": -7.98, "intermolecular_energy": -10.37, "internal_energy": -1.69, "cluster_size": 18, "cluster_id": 2, "rank_in_cluster": 9}

>  <energy>  (41) 
-7.78

>  <cluster_rmsd>  (41) 
0.72

>  <cluster>  (41) 
2

$$$$

     RDKit          3D

 64 67  0  0  0  0  0  0  0  0999 V2000
  138.8330   67.4830  221.6930 C   0  0  0  0  0  0  0  0  0  0  0  0
  139.2060   68.7720  222.3960 C   0  0  0  0  0  0  0  0  0  0  0  0
  139.1680   68.5570  223.8860 C   0  0  0  0  0  0  0  0  0  0  0  0
  138.8550   67.3950  224.2530 O   0  0  0  0  0  0  0  0  0  0  0  0
  139.4700   69.6170  224.7700 N   0  0  0  0  0  0  0  0  0  0  0  0
  140.0110   69.3090  226.0650 C   0  0  0  0  0  0  0  0  0  0  0  0
  139.9690   70.2910  227.0430 C   0  0  0  0  0  0  0  0  0  0  0  0
  140.4820   70.0260  228.3040 C   0  0  0  0  0  0  0  0  0  0  0  0
  141.0310   68.7870  228.5770 C   0  0  0  0  0  0  0  0  0  0  0  0
  141.0710   67.8030  227.5890 C   0  0  0  0  0  0  0  0  0  0  0  0
  140.5610   68.0610  226.3300 C   0  0  0  0  0  0  0  0  0  0  0  0
  139.2240   70.9810  224.3380 C   0  0  0  0  0  0  0  0  0  0  0  0
  137.8840   71.1040  223.7190 C   0  0  0  0  0  0  0  0  0  0  0  0
  137.8110   71.6760  222.3510 C   0  0  0  0  0  0  0  0  0  0  0  0
  138.7010   72.8210  222.3220 N   0  0  0  0  0  0  0  0  0  0  0  0
  138.2210   74.0870  221.9130 C   0  0  0  0  0  0  0  0  0  0  0  0
  137.0250   74.2340  221.5720 O   0  0  0  0  0  0  0  0  0  0  0  0
  139.0990   75.2810  221.8680 C   0  0  0  0  0  0  0  0  0  0  0  0
  138.3950   76.4810  222.5110 C   0  0  2  0  0  0  0  0  0  0  0  0
  137.1030   76.6730  221.8580 N   0  0  0  0  0  0  0  0  0  0  0  0
  139.2930   77.6740  222.2990 C   0  0  0  0  0  0  0  0  0  0  0  0
  140.6930   77.2990  222.7380 C   0  0  0  0  0  0  0  0  0  0  0  0
  141.2970   78.6740  222.8520 C   0  0  0  0  0  0  0  0  0  0  0  0
  142.6040   79.1420  222.7140 C   0  0  0  0  0  0  0  0  0  0  0  0
  142.8580   80.4880  222.8780 C   0  0  0  0  0  0  0  0  0  0  0  0
  141.8410   81.3790  223.1740 C   0  0  0  0  0  0  0  0  0  0  0  0
  140.5490   80.9290  223.3110 C   0  0  0  0  0  0  0  0  0  0  0  0
  140.2750   79.5830  223.1510 C   0  0  0  0  0  0  0  0  0  0  0  0
  138.9880   78.8070  223.2390 C   0  0  0  0  0  0  0  0  0  0  0  0
  140.0930   72.7010  222.7050 C   0  0  0  0  0  0  0  0  0  0  0  0
  140.3720   71.4890  223.5360 C   0  0  0  0  0  0  0  0  0  0  0  0
  138.6089   66.7087  222.4415 H   0  0  0  0  0  0  0  0  0  0  0  0
  137.9469   67.6518  221.0635 H   0  0  0  0  0  0  0  0  0  0  0  0
  139.6723   67.1525  221.0635 H   0  0  0  0  0  0  0  0  0  0  0  0
  140.2196   69.0747  222.0944 H   0  0  0  0  0  0  0  0  0  0  0  0
  138.4916   69.5616  222.1199 H   0  0  0  0  0  0  0  0  0  0  0  0
  139.5311   71.2751  226.8199 H   0  0  0  0  0  0  0  0  0  0  0  0
  140.4521   70.7999  229.0851 H   0  0  0  0  0  0  0  0  0  0  0  0
  141.4378   68.5763  229.5770 H   0  0  0  0  0  0  0  0  0  0  0  0
  141.5095   66.8192  227.8122 H   0  0  0  0  0  0  0  0  0  0  0  0
  140.5904   67.2879  225.5480 H   0  0  0  0  0  0  0  0  0  0  0  0
  139.1775   71.6583  225.2035 H   0  0  0  0  0  0  0  0  0  0  0  0
  137.4460   70.0958  223.6784 H   0  0  0  0  0  0  0  0  0  0  0  0
  137.3473   71.8249  224.3533 H   0  0  0  0  0  0  0  0  0  0  0  0
  138.1331   70.9283  221.6112 H   0  0  0  0  0  0  0  0  0  0  0  0
  136.7810   71.9731  222.1042 H   0  0  0  0  0  0  0  0  0  0  0  0
  140.0289   75.0689  222.4160 H   0  0  0  0  0  0  0  0  0  0  0  0
  139.3271   75.5191  220.8186 H   0  0  0  0  0  0  0  0  0  0  0  0
  138.2136   76.3321  223.5857 H   0  0  0  0  0  0  0  0  0  0  0  0
  137.1300   76.3570  220.8750 H   0  0  0  0  0  0  0  0  0  0  0  0
  136.3590   76.1760  222.4140 H   0  0  0  0  0  0  0  0  0  0  0  0
  139.1669   77.9588  221.2440 H   0  0  0  0  0  0  0  0  0  0  0  0
  140.6923   76.7703  223.7026 H   0  0  0  0  0  0  0  0  0  0  0  0
  141.2245   76.6094  222.0658 H   0  0  0  0  0  0  0  0  0  0  0  0
  143.4223   78.4460  222.4772 H   0  0  0  0  0  0  0  0  0  0  0  0
  143.8877   80.8600  222.7716 H   0  0  0  0  0  0  0  0  0  0  0  0
  142.0666   82.4482  223.2998 H   0  0  0  0  0  0  0  0  0  0  0  0
  139.7388   81.6349  223.5463 H   0  0  0  0  0  0  0  0  0  0  0  0
  138.7983   78.4479  224.2613 H   0  0  0  0  0  0  0  0  0  0  0  0
  138.0849   79.3829  222.9884 H   0  0  0  0  0  0  0  0  0  0  0  0
  140.7037   72.6471  221.7917 H   0  0  0  0  0  0  0  0  0  0  0  0
  140.3414   73.5812  223.3161 H   0  0  0  0  0  0  0  0  0  0  0  0
  140.6964   70.6832  222.8612 H   0  0  0  0  0  0  0  0  0  0  0  0
  141.1374   71.7933  224.2650 H   0  0  0  0  0  0  0  0  0  0  0  0
  1  2  1  0
  2  3  1  0
  3  4  2  0
  3  5  1  0
  5  6  1  0
  6  7  2  0
  7  8  1  0
  8  9  2  0
  9 10  1  0
 10 11  2  0
  5 12  1  0
 12 13  1  0
 13 14  1  0
 14 15  1  0
 15 16  1  0
 16 17  2  0
 16 18  1  0
 18 19  1  0
 19 20  1  0
 19 21  1  0
 21 22  1  0
 22 23  1  0
 23 24  2  0
 24 25  1  0
 25 26  2  0
 26 27  1  0
 27 28  2  0
 28 29  1  0
 15 30  1  0
 30 31  1  0
 11  6  1  0
 31 12  1  0
 29 21  1  0
 28 23  1  0
  1 32  1  0
  1 33  1  0
  1 34  1  0
  2 35  1  0
  2 36  1  0
  7 37  1  0
  8 38  1  0
  9 39  1  0
 10 40  1  0
 11 41  1  0
 12 42  1  0
 13 43  1  0
 13 44  1  0
 14 45  1  0
 14 46  1  0
 18 47  1  0
 18 48  1  0
 19 49  1  1
 20 50  1  0
 20 51  1  0
 21 52  1  0
 22 53  1  0
 22 54  1  0
 24 55  1  0
 25 56  1  0
 26 57  1  0
 27 58  1  0
 29 59  1  0
 29 60  1  0
 30 61  1  0
 30 62  1  0
 31 63  1  0
 31 64  1  0
M  END
>  <smiles>  (42) 
CCC(=O)N(c1ccccc1)C1CCN(C(=O)CC(N)C2Cc3ccccc3C2)CC1

>  <score_type>  (42) 
oracle

>  <origin>  (42) 
autodockgpu

>  <m_score__min__energy>  (42) 
-8.4100000000000001

>  <m_primary>  (42) 
energy

>  <rmsd>  (42) 
7.716959964628678

>  <m_score__min__rmsd>  (42) 
7.716959964628678

>  <meeko>  (42) 
{"free_energy": -8.33, "intermolecular_energy": -10.71, "internal_energy": -1.87, "cluster_size": 18, "cluster_id": 2, "rank_in_cluster": 1}

>  <energy>  (42) 
-7.64

>  <cluster_rmsd>  (42) 
0.75

>  <cluster>  (42) 
2

$$$$

     RDKit          3D

 64 67  0  0  0  0  0  0  0  0999 V2000
  139.1990   68.5350  221.9990 C   0  0  0  0  0  0  0  0  0  0  0  0
  138.1520   67.9120  222.8990 C   0  0  0  0  0  0  0  0  0  0  0  0
  137.7220   68.9170  223.9340 C   0  0  0  0  0  0  0  0  0  0  0  0
  136.4990   68.8990  224.2260 O   0  0  0  0  0  0  0  0  0  0  0  0
  138.6650   69.8000  224.5070 N   0  0  0  0  0  0  0  0  0  0  0  0
  139.4540   69.3460  225.6190 C   0  0  0  0  0  0  0  0  0  0  0  0
  139.6970   67.9860  225.7390 C   0  0  0  0  0  0  0  0  0  0  0  0
  140.4550   67.5160  226.8010 C   0  0  0  0  0  0  0  0  0  0  0  0
  140.9640   68.4030  227.7300 C   0  0  0  0  0  0  0  0  0  0  0  0
  140.7170   69.7710  227.6050 C   0  0  0  0  0  0  0  0  0  0  0  0
  139.9610   70.2470  226.5490 C   0  0  0  0  0  0  0  0  0  0  0  0
  138.8040   71.1340  223.9530 C   0  0  0  0  0  0  0  0  0  0  0  0
  137.7700   71.3870  222.9240 C   0  0  0  0  0  0  0  0  0  0  0  0
  138.2310   71.8220  221.5800 C   0  0  0  0  0  0  0  0  0  0  0  0
  139.2670   72.8160  221.7890 N   0  0  0  0  0  0  0  0  0  0  0  0
  139.1650   74.0900  221.1840 C   0  0  0  0  0  0  0  0  0  0  0  0
  138.1810   74.3740  220.4630 O   0  0  0  0  0  0  0  0  0  0  0  0
  140.2010   75.1330  221.3710 C   0  0  0  0  0  0  0  0  0  0  0  0
  139.8310   76.0430  222.5460 C   0  0  2  0  0  0  0  0  0  0  0  0
  138.3820   76.0160  222.7240 N   0  0  0  0  0  0  0  0  0  0  0  0
  140.3070   77.4290  222.1860 C   0  0  0  0  0  0  0  0  0  0  0  0
  141.4130   77.8160  223.1460 C   0  0  0  0  0  0  0  0  0  0  0  0
  141.4410   79.3030  222.9090 C   0  0  0  0  0  0  0  0  0  0  0  0
  142.4570   80.2540  223.0160 C   0  0  0  0  0  0  0  0  0  0  0  0
  142.1780   81.5730  222.7260 C   0  0  0  0  0  0  0  0  0  0  0  0
  140.9110   81.9680  222.3300 C   0  0  0  0  0  0  0  0  0  0  0  0
  139.9040   81.0390  222.2200 C   0  0  0  0  0  0  0  0  0  0  0  0
  140.1650   79.7120  222.5080 C   0  0  0  0  0  0  0  0  0  0  0  0
  139.2840   78.4900  222.4800 C   0  0  0  0  0  0  0  0  0  0  0  0
  140.4250   72.5340  222.6130 C   0  0  0  0  0  0  0  0  0  0  0  0
  140.2160   71.3850  223.5480 C   0  0  0  0  0  0  0  0  0  0  0  0
  139.9820   69.0009  222.6153 H   0  0  0  0  0  0  0  0  0  0  0  0
  139.6469   67.7564  221.3640 H   0  0  0  0  0  0  0  0  0  0  0  0
  138.7284   69.3001  221.3640 H   0  0  0  0  0  0  0  0  0  0  0  0
  137.2825   67.6103  222.2966 H   0  0  0  0  0  0  0  0  0  0  0  0
  138.5750   67.0278  223.3982 H   0  0  0  0  0  0  0  0  0  0  0  0
  139.2908   67.2839  224.9960 H   0  0  0  0  0  0  0  0  0  0  0  0
  140.6507   66.4384  226.9036 H   0  0  0  0  0  0  0  0  0  0  0  0
  141.5662   68.0296  228.5714 H   0  0  0  0  0  0  0  0  0  0  0  0
  141.1245   70.4723  228.3481 H   0  0  0  0  0  0  0  0  0  0  0  0
  139.7634   71.3242  226.4462 H   0  0  0  0  0  0  0  0  0  0  0  0
  138.6027   71.8954  224.7210 H   0  0  0  0  0  0  0  0  0  0  0  0
  137.2020   70.4544  222.7915 H   0  0  0  0  0  0  0  0  0  0  0  0
  137.1922   72.2392  223.3112 H   0  0  0  0  0  0  0  0  0  0  0  0
  138.6370   70.9642  221.0238 H   0  0  0  0  0  0  0  0  0  0  0  0
  137.3982   72.2395  220.9951 H   0  0  0  0  0  0  0  0  0  0  0  0
  141.1685   74.6513  221.5754 H   0  0  0  0  0  0  0  0  0  0  0  0
  140.2686   75.7392  220.4556 H   0  0  0  0  0  0  0  0  0  0  0  0
  140.2952   75.7169  223.4884 H   0  0  0  0  0  0  0  0  0  0  0  0
  137.8930   76.0640  221.8160 H   0  0  0  0  0  0  0  0  0  0  0  0
  138.1200   75.1550  223.2710 H   0  0  0  0  0  0  0  0  0  0  0  0
  140.5727   77.3861  221.1194 H   0  0  0  0  0  0  0  0  0  0  0  0
  141.1564   77.5715  224.1873 H   0  0  0  0  0  0  0  0  0  0  0  0
  142.3712   77.2992  222.9883 H   0  0  0  0  0  0  0  0  0  0  0  0
  143.4685   79.9548  223.3280 H   0  0  0  0  0  0  0  0  0  0  0  0
  142.9763   82.3251  222.8107 H   0  0  0  0  0  0  0  0  0  0  0  0
  140.7105   83.0256  222.1034 H   0  0  0  0  0  0  0  0  0  0  0  0
  138.8968   81.3492  221.9048 H   0  0  0  0  0  0  0  0  0  0  0  0
  138.7900   78.3220  223.4484 H   0  0  0  0  0  0  0  0  0  0  0  0
  138.4515   78.5386  221.7627 H   0  0  0  0  0  0  0  0  0  0  0  0
  141.2741   72.2990  221.9544 H   0  0  0  0  0  0  0  0  0  0  0  0
  140.6143   73.4262  223.2280 H   0  0  0  0  0  0  0  0  0  0  0  0
  140.5942   70.4761  223.0573 H   0  0  0  0  0  0  0  0  0  0  0  0
  140.7524   71.6471  224.4719 H   0  0  0  0  0  0  0  0  0  0  0  0
  1  2  1  0
  2  3  1  0
  3  4  2  0
  3  5  1  0
  5  6  1  0
  6  7  2  0
  7  8  1  0
  8  9  2  0
  9 10  1  0
 10 11  2  0
  5 12  1  0
 12 13  1  0
 13 14  1  0
 14 15  1  0
 15 16  1  0
 16 17  2  0
 16 18  1  0
 18 19  1  0
 19 20  1  0
 19 21  1  0
 21 22  1  0
 22 23  1  0
 23 24  2  0
 24 25  1  0
 25 26  2  0
 26 27  1  0
 27 28  2  0
 28 29  1  0
 15 30  1  0
 30 31  1  0
 11  6  1  0
 31 12  1  0
 29 21  1  0
 28 23  1  0
  1 32  1  0
  1 33  1  0
  1 34  1  0
  2 35  1  0
  2 36  1  0
  7 37  1  0
  8 38  1  0
  9 39  1  0
 10 40  1  0
 11 41  1  0
 12 42  1  0
 13 43  1  0
 13 44  1  0
 14 45  1  0
 14 46  1  0
 18 47  1  0
 18 48  1  0
 19 49  1  1
 20 50  1  0
 20 51  1  0
 21 52  1  0
 22 53  1  0
 22 54  1  0
 24 55  1  0
 25 56  1  0
 26 57  1  0
 27 58  1  0
 29 59  1  0
 29 60  1  0
 30 61  1  0
 30 62  1  0
 31 63  1  0
 31 64  1  0
M  END
>  <smiles>  (43) 
CCC(=O)N(c1ccccc1)C1CCN(C(=O)CC(N)C2Cc3ccccc3C2)CC1

>  <score_type>  (43) 
oracle

>  <origin>  (43) 
autodockgpu

>  <m_score__min__energy>  (43) 
-8.4100000000000001

>  <m_primary>  (43) 
energy

>  <rmsd>  (43) 
7.421100678614111

>  <m_score__min__rmsd>  (43) 
7.421100678614111

>  <meeko>  (43) 
{"free_energy": -7.92, "intermolecular_energy": -10.31, "internal_energy": -1.95, "cluster_size": 18, "cluster_id": 2, "rank_in_cluster": 11}

>  <energy>  (43) 
-7.99

>  <cluster_rmsd>  (43) 
0.0

>  <cluster>  (43) 
3

$$$$

     RDKit          3D

 64 67  0  0  0  0  0  0  0  0999 V2000
  141.5370   81.2480  219.1200 C   0  0  0  0  0  0  0  0  0  0  0  0
  140.8330   79.9070  219.0870 C   0  0  0  0  0  0  0  0  0  0  0  0
  141.7350   78.8560  219.6780 C   0  0  0  0  0  0  0  0  0  0  0  0
  142.6100   78.3980  218.8990 O   0  0  0  0  0  0  0  0  0  0  0  0
  141.5690   78.4440  221.0200 N   0  0  0  0  0  0  0  0  0  0  0  0
  141.7070   79.4190  222.0670 C   0  0  0  0  0  0  0  0  0  0  0  0
  142.9420   79.5500  222.6830 C   0  0  0  0  0  0  0  0  0  0  0  0
  143.1080   80.4810  223.6970 C   0  0  0  0  0  0  0  0  0  0  0  0
  142.0440   81.2720  224.0860 C   0  0  0  0  0  0  0  0  0  0  0  0
  140.8030   81.1360  223.4630 C   0  0  0  0  0  0  0  0  0  0  0  0
  140.6300   80.2100  222.4510 C   0  0  0  0  0  0  0  0  0  0  0  0
  141.2650   77.0520  221.2930 C   0  0  0  0  0  0  0  0  0  0  0  0
  141.1570   76.2800  220.0350 C   0  0  0  0  0  0  0  0  0  0  0  0
  139.9070   75.5100  219.8070 C   0  0  0  0  0  0  0  0  0  0  0  0
  139.5780   74.8550  221.0590 N   0  0  0  0  0  0  0  0  0  0  0  0
  139.3770   73.4560  221.1000 C   0  0  0  0  0  0  0  0  0  0  0  0
  139.4790   72.7680  220.0580 O   0  0  0  0  0  0  0  0  0  0  0  0
  139.0390   72.7490  222.3580 C   0  0  0  0  0  0  0  0  0  0  0  0
  140.3160   72.2990  223.0740 C   0  0  2  0  0  0  0  0  0  0  0  0
  141.1240   71.5150  222.1440 N   0  0  0  0  0  0  0  0  0  0  0  0
  139.8810   71.4630  224.2510 C   0  0  0  0  0  0  0  0  0  0  0  0
  140.9620   71.5330  225.3090 C   0  0  0  0  0  0  0  0  0  0  0  0
  140.5590   70.3550  226.1580 C   0  0  0  0  0  0  0  0  0  0  0  0
  140.7250   70.0730  227.5140 C   0  0  0  0  0  0  0  0  0  0  0  0
  140.2370   68.8850  228.0190 C   0  0  0  0  0  0  0  0  0  0  0  0
  139.5880   67.9730  227.2050 C   0  0  0  0  0  0  0  0  0  0  0  0
  139.4180   68.2420  225.8670 C   0  0  0  0  0  0  0  0  0  0  0  0
  139.9010   69.4280  225.3440 C   0  0  0  0  0  0  0  0  0  0  0  0
  139.8680   69.9910  223.9470 C   0  0  0  0  0  0  0  0  0  0  0  0
  139.4470   75.6080  222.2890 C   0  0  0  0  0  0  0  0  0  0  0  0
  140.1160   76.9460  222.2360 C   0  0  0  0  0  0  0  0  0  0  0  0
  141.6969   81.5526  220.1648 H   0  0  0  0  0  0  0  0  0  0  0  0
  142.5079   81.1651  218.6096 H   0  0  0  0  0  0  0  0  0  0  0  0
  140.9174   82.0001  218.6096 H   0  0  0  0  0  0  0  0  0  0  0  0
  139.9039   79.9654  219.6730 H   0  0  0  0  0  0  0  0  0  0  0  0
  140.5923   79.6430  218.0466 H   0  0  0  0  0  0  0  0  0  0  0  0
  143.7861   78.9185  222.3689 H   0  0  0  0  0  0  0  0  0  0  0  0
  144.0849   80.5897  224.1908 H   0  0  0  0  0  0  0  0  0  0  0  0
  142.1758   82.0115  224.8896 H   0  0  0  0  0  0  0  0  0  0  0  0
  139.9594   81.7677  223.7781 H   0  0  0  0  0  0  0  0  0  0  0  0
  139.6536   80.1006  221.9564 H   0  0  0  0  0  0  0  0  0  0  0  0
  142.0983   76.5703  221.8255 H   0  0  0  0  0  0  0  0  0  0  0  0
  141.2624   76.9909  219.2022 H   0  0  0  0  0  0  0  0  0  0  0  0
  141.9465   75.5173  220.1060 H   0  0  0  0  0  0  0  0  0  0  0  0
  139.0938   76.1889  219.5108 H   0  0  0  0  0  0  0  0  0  0  0  0
  140.0414   74.7728  219.0017 H   0  0  0  0  0  0  0  0  0  0  0  0
  138.4743   73.4269  223.0149 H   0  0  0  0  0  0  0  0  0  0  0  0
  138.4317   71.8636  222.1190 H   0  0  0  0  0  0  0  0  0  0  0  0
  140.9226   73.1493  223.4192 H   0  0  0  0  0  0  0  0  0  0  0  0
  140.6260   71.3630  221.2520 H   0  0  0  0  0  0  0  0  0  0  0  0
  142.0510   71.9960  222.0040 H   0  0  0  0  0  0  0  0  0  0  0  0
  138.8879   71.8414  224.5350 H   0  0  0  0  0  0  0  0  0  0  0  0
  141.9660   71.4037  224.8785 H   0  0  0  0  0  0  0  0  0  0  0  0
  141.0316   72.4920  225.8432 H   0  0  0  0  0  0  0  0  0  0  0  0
  141.2386   70.7888  228.1727 H   0  0  0  0  0  0  0  0  0  0  0  0
  140.3662   68.6588  229.0877 H   0  0  0  0  0  0  0  0  0  0  0  0
  139.2077   67.0318  227.6287 H   0  0  0  0  0  0  0  0  0  0  0  0
  138.9019   67.5195  225.2177 H   0  0  0  0  0  0  0  0  0  0  0  0
  140.7507   69.6877  223.3649 H   0  0  0  0  0  0  0  0  0  0  0  0
  139.0184   69.6545  223.3347 H   0  0  0  0  0  0  0  0  0  0  0  0
  138.3769   75.7601  222.4934 H   0  0  0  0  0  0  0  0  0  0  0  0
  139.9409   75.0270  223.0818 H   0  0  0  0  0  0  0  0  0  0  0  0
  139.3627   77.6899  221.9373 H   0  0  0  0  0  0  0  0  0  0  0  0
  140.5327   77.1152  223.2399 H   0  0  0  0  0  0  0  0  0  0  0  0
  1  2  1  0
  2  3  1  0
  3  4  2  0
  3  5  1  0
  5  6  1  0
  6  7  2  0
  7  8  1  0
  8  9  2  0
  9 10  1  0
 10 11  2  0
  5 12  1  0
 12 13  1  0
 13 14  1  0
 14 15  1  0
 15 16  1  0
 16 17  2  0
 16 18  1  0
 18 19  1  0
 19 20  1  0
 19 21  1  0
 21 22  1  0
 22 23  1  0
 23 24  2  0
 24 25  1  0
 25 26  2  0
 26 27  1  0
 27 28  2  0
 28 29  1  0
 15 30  1  0
 30 31  1  0
 11  6  1  0
 31 12  1  0
 29 21  1  0
 28 23  1  0
  1 32  1  0
  1 33  1  0
  1 34  1  0
  2 35  1  0
  2 36  1  0
  7 37  1  0
  8 38  1  0
  9 39  1  0
 10 40  1  0
 11 41  1  0
 12 42  1  0
 13 43  1  0
 13 44  1  0
 14 45  1  0
 14 46  1  0
 18 47  1  0
 18 48  1  0
 19 49  1  1
 20 50  1  0
 20 51  1  0
 21 52  1  0
 22 53  1  0
 22 54  1  0
 24 55  1  0
 25 56  1  0
 26 57  1  0
 27 58  1  0
 29 59  1  0
 29 60  1  0
 30 61  1  0
 30 62  1  0
 31 63  1  0
 31 64  1  0
M  END
>  <smiles>  (44) 
CCC(=O)N(c1ccccc1)C1CCN(C(=O)CC(N)C2Cc3ccccc3C2)CC1

>  <score_type>  (44) 
oracle

>  <origin>  (44) 
autodockgpu

>  <m_score__min__energy>  (44) 
-8.4100000000000001

>  <m_primary>  (44) 
energy

>  <rmsd>  (44) 
6.154193872794752

>  <m_score__min__rmsd>  (44) 
6.154193872794752

>  <meeko>  (44) 
{"free_energy": -7.75, "intermolecular_energy": -10.14, "internal_energy": -1.9, "cluster_size": 5, "cluster_id": 5, "rank_in_cluster": 3}

>  <energy>  (44) 
-7.82

>  <cluster_rmsd>  (44) 
0.0

>  <cluster>  (44) 
4

$$$$

     RDKit          3D

 64 67  0  0  0  0  0  0  0  0999 V2000
  139.1600   68.5090  221.5670 C   0  0  0  0  0  0  0  0  0  0  0  0
  138.7040   67.7300  222.7830 C   0  0  0  0  0  0  0  0  0  0  0  0
  138.0350   68.6670  223.7540 C   0  0  0  0  0  0  0  0  0  0  0  0
  136.7890   68.5270  223.8640 O   0  0  0  0  0  0  0  0  0  0  0  0
  138.7950   69.6200  224.4670 N   0  0  0  0  0  0  0  0  0  0  0  0
  139.5620   69.1880  225.6030 C   0  0  0  0  0  0  0  0  0  0  0  0
  139.9520   70.1410  226.5320 C   0  0  0  0  0  0  0  0  0  0  0  0
  140.6920   69.7560  227.6390 C   0  0  0  0  0  0  0  0  0  0  0  0
  141.0360   68.4290  227.8110 C   0  0  0  0  0  0  0  0  0  0  0  0
  140.6410   67.4740  226.8730 C   0  0  0  0  0  0  0  0  0  0  0  0
  139.9030   67.8500  225.7660 C   0  0  0  0  0  0  0  0  0  0  0  0
  138.7770   71.0030  224.0270 C   0  0  0  0  0  0  0  0  0  0  0  0
  137.6140   71.2600  223.1470 C   0  0  0  0  0  0  0  0  0  0  0  0
  137.8830   71.8420  221.8070 C   0  0  0  0  0  0  0  0  0  0  0  0
  138.8660   72.8930  221.9910 N   0  0  0  0  0  0  0  0  0  0  0  0
  138.6060   74.2020  221.5220 C   0  0  0  0  0  0  0  0  0  0  0  0
  137.5270   74.4670  220.9440 O   0  0  0  0  0  0  0  0  0  0  0  0
  139.5840   75.3030  221.6890 C   0  0  0  0  0  0  0  0  0  0  0  0
  138.8590   76.6100  222.0240 C   0  0  2  0  0  0  0  0  0  0  0  0
  138.3960   77.2220  220.7810 N   0  0  0  0  0  0  0  0  0  0  0  0
  139.8610   77.4940  222.7240 C   0  0  0  0  0  0  0  0  0  0  0  0
  139.3100   78.9040  222.7550 C   0  0  0  0  0  0  0  0  0  0  0  0
  140.5720   79.6600  223.0800 C   0  0  0  0  0  0  0  0  0  0  0  0
  140.8030   80.8650  223.7420 C   0  0  0  0  0  0  0  0  0  0  0  0
  142.0990   81.3140  223.8920 C   0  0  0  0  0  0  0  0  0  0  0  0
  143.1710   80.5890  223.3980 C   0  0  0  0  0  0  0  0  0  0  0  0
  142.9540   79.3990  222.7440 C   0  0  0  0  0  0  0  0  0  0  0  0
  141.6610   78.9340  222.5840 C   0  0  0  0  0  0  0  0  0  0  0  0
  141.1200   77.6920  221.9260 C   0  0  0  0  0  0  0  0  0  0  0  0
  140.1290   72.6340  222.6510 C   0  0  0  0  0  0  0  0  0  0  0  0
  140.1110   71.3970  223.4930 C   0  0  0  0  0  0  0  0  0  0  0  0
  139.6911   69.4163  221.8907 H   0  0  0  0  0  0  0  0  0  0  0  0
  139.8352   67.8846  220.9635 H   0  0  0  0  0  0  0  0  0  0  0  0
  138.2850   68.7920  220.9635 H   0  0  0  0  0  0  0  0  0  0  0  0
  137.9913   66.9511  222.4741 H   0  0  0  0  0  0  0  0  0  0  0  0
  139.5732   67.2592  223.2655 H   0  0  0  0  0  0  0  0  0  0  0  0
  139.6757   71.1964  226.3911 H   0  0  0  0  0  0  0  0  0  0  0  0
  141.0051   70.5063  228.3799 H   0  0  0  0  0  0  0  0  0  0  0  0
  141.6230   68.1242  228.6899 H   0  0  0  0  0  0  0  0  0  0  0  0
  140.9177   66.4189  227.0149 H   0  0  0  0  0  0  0  0  0  0  0  0
  139.5898   67.1006  225.0242 H   0  0  0  0  0  0  0  0  0  0  0  0
  138.6163   71.6790  224.8797 H   0  0  0  0  0  0  0  0  0  0  0  0
  137.0996   70.3001  222.9920 H   0  0  0  0  0  0  0  0  0  0  0  0
  137.0285   72.0281  223.6736 H   0  0  0  0  0  0  0  0  0  0  0  0
  138.2784   71.0689  221.1317 H   0  0  0  0  0  0  0  0  0  0  0  0
  136.9606   72.2409  221.3598 H   0  0  0  0  0  0  0  0  0  0  0  0
  140.2769   75.0524  222.5058 H   0  0  0  0  0  0  0  0  0  0  0  0
  140.1412   75.4329  220.7495 H   0  0  0  0  0  0  0  0  0  0  0  0
  137.9835   76.4482  222.6700 H   0  0  0  0  0  0  0  0  0  0  0  0
  139.1880   77.5850  220.2260 H   0  0  0  0  0  0  0  0  0  0  0  0
  137.8230   76.5210  220.2450 H   0  0  0  0  0  0  0  0  0  0  0  0
  140.0516   77.0177  223.6970 H   0  0  0  0  0  0  0  0  0  0  0  0
  138.8925   79.2024  221.7821 H   0  0  0  0  0  0  0  0  0  0  0  0
  138.4761   79.0644  223.4542 H   0  0  0  0  0  0  0  0  0  0  0  0
  139.9616   81.4511  224.1402 H   0  0  0  0  0  0  0  0  0  0  0  0
  142.2843   82.2648  224.4132 H   0  0  0  0  0  0  0  0  0  0  0  0
  144.1963   80.9654  223.5289 H   0  0  0  0  0  0  0  0  0  0  0  0
  143.8030   78.8206  222.3507 H   0  0  0  0  0  0  0  0  0  0  0  0
  140.9048   77.8567  220.8599 H   0  0  0  0  0  0  0  0  0  0  0  0
  141.8069   76.8328  221.9276 H   0  0  0  0  0  0  0  0  0  0  0  0
  140.9086   72.5229  221.8829 H   0  0  0  0  0  0  0  0  0  0  0  0
  140.3278   73.4831  223.3214 H   0  0  0  0  0  0  0  0  0  0  0  0
  140.4901   70.5652  222.8811 H   0  0  0  0  0  0  0  0  0  0  0  0
  140.7335   71.6212  224.3718 H   0  0  0  0  0  0  0  0  0  0  0  0
  1  2  1  0
  2  3  1  0
  3  4  2  0
  3  5  1  0
  5  6  1  0
  6  7  2  0
  7  8  1  0
  8  9  2  0
  9 10  1  0
 10 11  2  0
  5 12  1  0
 12 13  1  0
 13 14  1  0
 14 15  1  0
 15 16  1  0
 16 17  2  0
 16 18  1  0
 18 19  1  0
 19 20  1  0
 19 21  1  0
 21 22  1  0
 22 23  1  0
 23 24  2  0
 24 25  1  0
 25 26  2  0
 26 27  1  0
 27 28  2  0
 28 29  1  0
 15 30  1  0
 30 31  1  0
 11  6  1  0
 31 12  1  0
 29 21  1  0
 28 23  1  0
  1 32  1  0
  1 33  1  0
  1 34  1  0
  2 35  1  0
  2 36  1  0
  7 37  1  0
  8 38  1  0
  9 39  1  0
 10 40  1  0
 11 41  1  0
 12 42  1  0
 13 43  1  0
 13 44  1  0
 14 45  1  0
 14 46  1  0
 18 47  1  0
 18 48  1  0
 19 49  1  1
 20 50  1  0
 20 51  1  0
 21 52  1  0
 22 53  1  0
 22 54  1  0
 24 55  1  0
 25 56  1  0
 26 57  1  0
 27 58  1  0
 29 59  1  0
 29 60  1  0
 30 61  1  0
 30 62  1  0
 31 63  1  0
 31 64  1  0
M  END
>  <smiles>  (45) 
CCC(=O)N(c1ccccc1)C1CCN(C(=O)CC(N)C2Cc3ccccc3C2)CC1

>  <score_type>  (45) 
oracle

>  <origin>  (45) 
autodockgpu

>  <m_score__min__energy>  (45) 
-8.4100000000000001

>  <m_primary>  (45) 
energy

>  <rmsd>  (45) 
7.527930407351437

>  <m_score__min__rmsd>  (45) 
7.527930407351437

>  <meeko>  (45) 
{"free_energy": -7.94, "intermolecular_energy": -10.32, "internal_energy": -1.89, "cluster_size": 18, "cluster_id": 2, "rank_in_cluster": 10}

>  <energy>  (45) 
-7.75

>  <cluster_rmsd>  (45) 
0.14

>  <cluster>  (45) 
4

$$$$

     RDKit          3D

 64 67  0  0  0  0  0  0  0  0999 V2000
  138.6410   69.0660  220.6310 C   0  0  0  0  0  0  0  0  0  0  0  0
  139.5420   68.6980  221.7920 C   0  0  0  0  0  0  0  0  0  0  0  0
  138.7650   68.8020  223.0790 C   0  0  0  0  0  0  0  0  0  0  0  0
  137.7990   68.0030  223.1890 O   0  0  0  0  0  0  0  0  0  0  0  0
  139.1330   69.7470  224.0620 N   0  0  0  0  0  0  0  0  0  0  0  0
  139.6630   69.2780  225.3120 C   0  0  0  0  0  0  0  0  0  0  0  0
  140.1980   70.2100  226.1890 C   0  0  0  0  0  0  0  0  0  0  0  0
  140.7180   69.7890  227.4040 C   0  0  0  0  0  0  0  0  0  0  0  0
  140.6980   68.4480  227.7340 C   0  0  0  0  0  0  0  0  0  0  0  0
  140.1590   67.5140  226.8480 C   0  0  0  0  0  0  0  0  0  0  0  0
  139.6390   67.9260  225.6350 C   0  0  0  0  0  0  0  0  0  0  0  0
  138.9640   71.1600  223.7740 C   0  0  0  0  0  0  0  0  0  0  0  0
  137.6380   71.4190  223.1700 C   0  0  0  0  0  0  0  0  0  0  0  0
  137.6050   72.1340  221.8680 C   0  0  0  0  0  0  0  0  0  0  0  0
  138.5560   73.2250  221.9600 N   0  0  0  0  0  0  0  0  0  0  0  0
  138.1490   74.5510  221.6850 C   0  0  0  0  0  0  0  0  0  0  0  0
  136.9650   74.7980  221.3590 O   0  0  0  0  0  0  0  0  0  0  0  0
  139.0890   75.6940  221.7670 C   0  0  0  0  0  0  0  0  0  0  0  0
  138.4180   76.8860  222.4560 C   0  0  2  0  0  0  0  0  0  0  0  0
  137.1760   77.1960  221.7520 N   0  0  0  0  0  0  0  0  0  0  0  0
  139.3890   78.0370  222.3740 C   0  0  0  0  0  0  0  0  0  0  0  0
  140.7710   77.5170  222.7100 C   0  0  0  0  0  0  0  0  0  0  0  0
  141.4700   78.8220  222.9850 C   0  0  0  0  0  0  0  0  0  0  0  0
  142.8020   79.2200  222.8660 C   0  0  0  0  0  0  0  0  0  0  0  0
  143.1520   80.5120  223.1990 C   0  0  0  0  0  0  0  0  0  0  0  0
  142.2060   81.4180  223.6480 C   0  0  0  0  0  0  0  0  0  0  0  0
  140.8910   81.0360  223.7690 C   0  0  0  0  0  0  0  0  0  0  0  0
  140.5210   79.7450  223.4390 C   0  0  0  0  0  0  0  0  0  0  0  0
  139.1870   79.0490  223.4670 C   0  0  0  0  0  0  0  0  0  0  0  0
  139.9370   72.9900  222.3310 C   0  0  0  0  0  0  0  0  0  0  0  0
  140.1450   71.6850  223.0320 C   0  0  0  0  0  0  0  0  0  0  0  0
  137.6872   69.4556  221.0163 H   0  0  0  0  0  0  0  0  0  0  0  0
  139.1304   69.8363  220.0169 H   0  0  0  0  0  0  0  0  0  0  0  0
  138.4512   68.1733  220.0169 H   0  0  0  0  0  0  0  0  0  0  0  0
  139.9039   67.6672  221.6637 H   0  0  0  0  0  0  0  0  0  0  0  0
  140.4006   69.3849  221.8238 H   0  0  0  0  0  0  0  0  0  0  0  0
  140.2098   71.2771  225.9224 H   0  0  0  0  0  0  0  0  0  0  0  0
  141.1457   70.5221  228.1038 H   0  0  0  0  0  0  0  0  0  0  0  0
  141.1084   68.1149  228.6987 H   0  0  0  0  0  0  0  0  0  0  0  0
  140.1479   66.4471  227.1155 H   0  0  0  0  0  0  0  0  0  0  0  0
  139.2118   67.1934  224.9344 H   0  0  0  0  0  0  0  0  0  0  0  0
  138.9471   71.7464  224.7045 H   0  0  0  0  0  0  0  0  0  0  0  0
  137.1467   70.4457  223.0239 H   0  0  0  0  0  0  0  0  0  0  0  0
  137.1366   72.0981  223.8753 H   0  0  0  0  0  0  0  0  0  0  0  0
  137.8909   71.4511  221.0545 H   0  0  0  0  0  0  0  0  0  0  0  0
  136.5944   72.5109  221.6523 H   0  0  0  0  0  0  0  0  0  0  0  0
  139.9760   75.3936  222.3440 H   0  0  0  0  0  0  0  0  0  0  0  0
  139.3836   75.9886  220.7490 H   0  0  0  0  0  0  0  0  0  0  0  0
  138.1709   76.6759  223.5071 H   0  0  0  0  0  0  0  0  0  0  0  0
  137.2290   76.9180  220.7590 H   0  0  0  0  0  0  0  0  0  0  0  0
  136.3730   76.7330  222.2520 H   0  0  0  0  0  0  0  0  0  0  0  0
  139.2548   78.4699  221.3717 H   0  0  0  0  0  0  0  0  0  0  0  0
  140.7593   76.8638  223.5950 H   0  0  0  0  0  0  0  0  0  0  0  0
  141.2366   76.8919  221.9338 H   0  0  0  0  0  0  0  0  0  0  0  0
  143.5645   78.5113  222.5106 H   0  0  0  0  0  0  0  0  0  0  0  0
  144.2015   80.8283  223.1062 H   0  0  0  0  0  0  0  0  0  0  0  0
  142.5068   82.4437  223.9079 H   0  0  0  0  0  0  0  0  0  0  0  0
  140.1373   81.7532  224.1263 H   0  0  0  0  0  0  0  0  0  0  0  0
  138.9996   78.5674  224.4380 H   0  0  0  0  0  0  0  0  0  0  0  0
  138.3194   79.7107  223.3272 H   0  0  0  0  0  0  0  0  0  0  0  0
  140.5505   72.9981  221.4180 H   0  0  0  0  0  0  0  0  0  0  0  0
  140.2275   73.7871  223.0311 H   0  0  0  0  0  0  0  0  0  0  0  0
  140.4314   70.9371  222.2779 H   0  0  0  0  0  0  0  0  0  0  0  0
  140.9204   71.8696  223.7901 H   0  0  0  0  0  0  0  0  0  0  0  0
  1  2  1  0
  2  3  1  0
  3  4  2  0
  3  5  1  0
  5  6  1  0
  6  7  2  0
  7  8  1  0
  8  9  2  0
  9 10  1  0
 10 11  2  0
  5 12  1  0
 12 13  1  0
 13 14  1  0
 14 15  1  0
 15 16  1  0
 16 17  2  0
 16 18  1  0
 18 19  1  0
 19 20  1  0
 19 21  1  0
 21 22  1  0
 22 23  1  0
 23 24  2  0
 24 25  1  0
 25 26  2  0
 26 27  1  0
 27 28  2  0
 28 29  1  0
 15 30  1  0
 30 31  1  0
 11  6  1  0
 31 12  1  0
 29 21  1  0
 28 23  1  0
  1 32  1  0
  1 33  1  0
  1 34  1  0
  2 35  1  0
  2 36  1  0
  7 37  1  0
  8 38  1  0
  9 39  1  0
 10 40  1  0
 11 41  1  0
 12 42  1  0
 13 43  1  0
 13 44  1  0
 14 45  1  0
 14 46  1  0
 18 47  1  0
 18 48  1  0
 19 49  1  1
 20 50  1  0
 20 51  1  0
 21 52  1  0
 22 53  1  0
 22 54  1  0
 24 55  1  0
 25 56  1  0
 26 57  1  0
 27 58  1  0
 29 59  1  0
 29 60  1  0
 30 61  1  0
 30 62  1  0
 31 63  1  0
 31 64  1  0
M  END
>  <smiles>  (46) 
CCC(=O)N(c1ccccc1)C1CCN(C(=O)CC(N)C2Cc3ccccc3C2)CC1

>  <score_type>  (46) 
oracle

>  <origin>  (46) 
autodockgpu

>  <m_score__min__energy>  (46) 
-8.4100000000000001

>  <m_primary>  (46) 
energy

>  <rmsd>  (46) 
7.550457076128118

>  <m_score__min__rmsd>  (46) 
7.550457076128118

>  <meeko>  (46) 
{"free_energy": -7.64, "intermolecular_energy": -10.02, "internal_energy": -2.22, "cluster_size": 18, "cluster_id": 2, "rank_in_cluster": 18}

>  <energy>  (46) 
-7.81

>  <cluster_rmsd>  (46) 
0.0

>  <cluster>  (46) 
5

$$$$

     RDKit          3D

 64 67  0  0  0  0  0  0  0  0999 V2000
  139.1960   80.8540  219.8130 C   0  0  0  0  0  0  0  0  0  0  0  0
  139.2490   79.5740  219.0040 C   0  0  0  0  0  0  0  0  0  0  0  0
  140.5500   78.8650  219.2780 C   0  0  0  0  0  0  0  0  0  0  0  0
  141.4220   78.9750  218.3790 O   0  0  0  0  0  0  0  0  0  0  0  0
  140.7290   78.1380  220.4770 N   0  0  0  0  0  0  0  0  0  0  0  0
  141.2750   78.8120  221.6220 C   0  0  0  0  0  0  0  0  0  0  0  0
  140.9120   78.3620  222.8830 C   0  0  0  0  0  0  0  0  0  0  0  0
  141.4220   78.9910  224.0090 C   0  0  0  0  0  0  0  0  0  0  0  0
  142.2880   80.0580  223.8680 C   0  0  0  0  0  0  0  0  0  0  0  0
  142.6510   80.5060  222.5980 C   0  0  0  0  0  0  0  0  0  0  0  0
  142.1460   79.8850  221.4710 C   0  0  0  0  0  0  0  0  0  0  0  0
  140.3530   76.7360  220.5090 C   0  0  0  0  0  0  0  0  0  0  0  0
  138.9920   76.5690  221.0680 C   0  0  0  0  0  0  0  0  0  0  0  0
  138.8330   75.6470  222.2210 C   0  0  0  0  0  0  0  0  0  0  0  0
  139.6190   74.4630  221.9300 N   0  0  0  0  0  0  0  0  0  0  0  0
  139.0200   73.1830  221.9670 C   0  0  0  0  0  0  0  0  0  0  0  0
  137.8070   73.0570  222.2530 O   0  0  0  0  0  0  0  0  0  0  0  0
  139.7880   71.9490  221.6770 C   0  0  0  0  0  0  0  0  0  0  0  0
  139.1230   70.7400  222.3440 C   0  0  2  0  0  0  0  0  0  0  0  0
  137.7310   70.6700  221.9100 N   0  0  0  0  0  0  0  0  0  0  0  0
  139.2160   70.9640  223.8330 C   0  0  0  0  0  0  0  0  0  0  0  0
  140.5980   71.4960  224.1480 C   0  0  0  0  0  0  0  0  0  0  0  0
  140.6300   71.2480  225.6340 C   0  0  0  0  0  0  0  0  0  0  0  0
  141.3000   71.8830  226.6790 C   0  0  0  0  0  0  0  0  0  0  0  0
  141.1290   71.4220  227.9680 C   0  0  0  0  0  0  0  0  0  0  0  0
  140.3050   70.3430  228.2400 C   0  0  0  0  0  0  0  0  0  0  0  0
  139.6390   69.7100  227.2160 C   0  0  0  0  0  0  0  0  0  0  0  0
  139.7990   70.1590  225.9180 C   0  0  0  0  0  0  0  0  0  0  0  0
  139.2150   69.6800  224.6160 C   0  0  0  0  0  0  0  0  0  0  0  0
  141.0250   74.5580  221.5960 C   0  0  0  0  0  0  0  0  0  0  0  0
  141.4320   75.9230  221.1370 C   0  0  0  0  0  0  0  0  0  0  0  0
  139.2061   80.6105  220.8857 H   0  0  0  0  0  0  0  0  0  0  0  0
  140.0691   81.4775  219.5703 H   0  0  0  0  0  0  0  0  0  0  0  0
  138.2743   81.4032  219.5703 H   0  0  0  0  0  0  0  0  0  0  0  0
  138.4090   78.9238  219.2896 H   0  0  0  0  0  0  0  0  0  0  0  0
  139.1778   79.8122  217.9325 H   0  0  0  0  0  0  0  0  0  0  0  0
  140.2234   77.5108  222.9893 H   0  0  0  0  0  0  0  0  0  0  0  0
  141.1375   78.6410  225.0123 H   0  0  0  0  0  0  0  0  0  0  0  0
  142.6930   80.5564  224.7611 H   0  0  0  0  0  0  0  0  0  0  0  0
  143.3412   81.3560  222.4929 H   0  0  0  0  0  0  0  0  0  0  0  0
  142.4296   80.2353  220.4676 H   0  0  0  0  0  0  0  0  0  0  0  0
  140.2688   76.3328  219.4890 H   0  0  0  0  0  0  0  0  0  0  0  0
  138.6437   77.5617  221.3894 H   0  0  0  0  0  0  0  0  0  0  0  0
  138.4107   76.1063  220.2569 H   0  0  0  0  0  0  0  0  0  0  0  0
  139.1988   76.1263  223.1410 H   0  0  0  0  0  0  0  0  0  0  0  0
  137.7748   75.3877  222.3727 H   0  0  0  0  0  0  0  0  0  0  0  0
  139.8222   71.7901  220.5891 H   0  0  0  0  0  0  0  0  0  0  0  0
  140.8079   72.0606  222.0736 H   0  0  0  0  0  0  0  0  0  0  0  0
  139.6111   69.7922  222.0728 H   0  0  0  0  0  0  0  0  0  0  0  0
  137.0900   70.9910  222.6540 H   0  0  0  0  0  0  0  0  0  0  0  0
  137.6190   71.2270  221.0230 H   0  0  0  0  0  0  0  0  0  0  0  0
  138.3668   71.6139  224.0909 H   0  0  0  0  0  0  0  0  0  0  0  0
  141.3835   70.9339  223.6216 H   0  0  0  0  0  0  0  0  0  0  0  0
  140.7781   72.5378  223.8442 H   0  0  0  0  0  0  0  0  0  0  0  0
  141.9574   72.7417  226.4779 H   0  0  0  0  0  0  0  0  0  0  0  0
  141.6567   71.9205  228.7944 H   0  0  0  0  0  0  0  0  0  0  0  0
  140.1828   69.9918  229.2752 H   0  0  0  0  0  0  0  0  0  0  0  0
  138.9836   68.8525  227.4284 H   0  0  0  0  0  0  0  0  0  0  0  0
  139.8478   68.9144  224.1432 H   0  0  0  0  0  0  0  0  0  0  0  0
  138.2318   69.1945  224.7032 H   0  0  0  0  0  0  0  0  0  0  0  0
  141.6143   74.2992  222.4880 H   0  0  0  0  0  0  0  0  0  0  0  0
  141.2100   73.8646  220.7623 H   0  0  0  0  0  0  0  0  0  0  0  0
  141.8086   76.4760  222.0101 H   0  0  0  0  0  0  0  0  0  0  0  0
  142.1872   75.7656  220.3528 H   0  0  0  0  0  0  0  0  0  0  0  0
  1  2  1  0
  2  3  1  0
  3  4  2  0
  3  5  1  0
  5  6  1  0
  6  7  2  0
  7  8  1  0
  8  9  2  0
  9 10  1  0
 10 11  2  0
  5 12  1  0
 12 13  1  0
 13 14  1  0
 14 15  1  0
 15 16  1  0
 16 17  2  0
 16 18  1  0
 18 19  1  0
 19 20  1  0
 19 21  1  0
 21 22  1  0
 22 23  1  0
 23 24  2  0
 24 25  1  0
 25 26  2  0
 26 27  1  0
 27 28  2  0
 28 29  1  0
 15 30  1  0
 30 31  1  0
 11  6  1  0
 31 12  1  0
 29 21  1  0
 28 23  1  0
  1 32  1  0
  1 33  1  0
  1 34  1  0
  2 35  1  0
  2 36  1  0
  7 37  1  0
  8 38  1  0
  9 39  1  0
 10 40  1  0
 11 41  1  0
 12 42  1  0
 13 43  1  0
 13 44  1  0
 14 45  1  0
 14 46  1  0
 18 47  1  0
 18 48  1  0
 19 49  1  1
 20 50  1  0
 20 51  1  0
 21 52  1  0
 22 53  1  0
 22 54  1  0
 24 55  1  0
 25 56  1  0
 26 57  1  0
 27 58  1  0
 29 59  1  0
 29 60  1  0
 30 61  1  0
 30 62  1  0
 31 63  1  0
 31 64  1  0
M  END
>  <smiles>  (47) 
CCC(=O)N(c1ccccc1)C1CCN(C(=O)CC(N)C2Cc3ccccc3C2)CC1

>  <score_type>  (47) 
oracle

>  <origin>  (47) 
autodockgpu

>  <m_score__min__energy>  (47) 
-8.4100000000000001

>  <m_primary>  (47) 
energy

>  <rmsd>  (47) 
6.533557721293518

>  <m_score__min__rmsd>  (47) 
6.533557721293518

>  <meeko>  (47) 
{"free_energy": -7.56, "intermolecular_energy": -9.95, "internal_energy": -2.29, "cluster_size": 24, "cluster_id": 1, "rank_in_cluster": 19}

>  <energy>  (47) 
-7.8

>  <cluster_rmsd>  (47) 
1.34

>  <cluster>  (47) 
5

$$$$

     RDKit          3D

 64 67  0  0  0  0  0  0  0  0999 V2000
  142.2270   80.7120  218.6290 C   0  0  0  0  0  0  0  0  0  0  0  0
  142.1670   79.2420  218.9930 C   0  0  0  0  0  0  0  0  0  0  0  0
  141.0100   79.0080  219.9290 C   0  0  0  0  0  0  0  0  0  0  0  0
  139.8730   79.2470  219.4480 O   0  0  0  0  0  0  0  0  0  0  0  0
  141.2390   78.5520  221.2470 N   0  0  0  0  0  0  0  0  0  0  0  0
  141.6350   79.5010  222.2510 C   0  0  0  0  0  0  0  0  0  0  0  0
  140.6580   80.3110  222.8100 C   0  0  0  0  0  0  0  0  0  0  0  0
  141.0080   81.2370  223.7810 C   0  0  0  0  0  0  0  0  0  0  0  0
  142.3240   81.3460  224.1860 C   0  0  0  0  0  0  0  0  0  0  0  0
  143.3040   80.5290  223.6200 C   0  0  0  0  0  0  0  0  0  0  0  0
  142.9620   79.6040  222.6510 C   0  0  0  0  0  0  0  0  0  0  0  0
  141.0640   77.1420  221.5410 C   0  0  0  0  0  0  0  0  0  0  0  0
  141.3820   76.3140  220.3560 C   0  0  0  0  0  0  0  0  0  0  0  0
  140.3450   75.3590  219.8880 C   0  0  0  0  0  0  0  0  0  0  0  0
  139.8010   74.7120  221.0670 N   0  0  0  0  0  0  0  0  0  0  0  0
  139.7840   73.3010  221.1620 C   0  0  0  0  0  0  0  0  0  0  0  0
  140.2380   72.5960  220.2310 O   0  0  0  0  0  0  0  0  0  0  0  0
  139.2370   72.6010  222.3490 C   0  0  0  0  0  0  0  0  0  0  0  0
  140.0060   71.3000  222.5990 C   0  0  2  0  0  0  0  0  0  0  0  0
  139.5130   70.2790  221.6790 N   0  0  0  0  0  0  0  0  0  0  0  0
  139.7430   70.9110  224.0320 C   0  0  0  0  0  0  0  0  0  0  0  0
  140.9690   71.2540  224.8510 C   0  0  0  0  0  0  0  0  0  0  0  0
  140.6860   70.4360  226.0830 C   0  0  0  0  0  0  0  0  0  0  0  0
  141.0490   70.5930  227.4210 C   0  0  0  0  0  0  0  0  0  0  0  0
  140.6310   69.6590  228.3460 C   0  0  0  0  0  0  0  0  0  0  0  0
  139.8590   68.5730  227.9700 C   0  0  0  0  0  0  0  0  0  0  0  0
  139.4950   68.4090  226.6550 C   0  0  0  0  0  0  0  0  0  0  0  0
  139.9050   69.3350  225.7130 C   0  0  0  0  0  0  0  0  0  0  0  0
  139.6710   69.4220  224.2280 C   0  0  0  0  0  0  0  0  0  0  0  0
  139.2640   75.4850  222.1680 C   0  0  0  0  0  0  0  0  0  0  0  0
  139.7390   76.9030  222.1800 C   0  0  0  0  0  0  0  0  0  0  0  0
  142.2517   81.3165  219.5477 H   0  0  0  0  0  0  0  0  0  0  0  0
  143.1338   80.9066  218.0376 H   0  0  0  0  0  0  0  0  0  0  0  0
  141.3390   80.9798  218.0376 H   0  0  0  0  0  0  0  0  0  0  0  0
  142.0288   78.6429  218.0809 H   0  0  0  0  0  0  0  0  0  0  0  0
  143.1050   78.9455  219.4851 H   0  0  0  0  0  0  0  0  0  0  0  0
  139.6111   80.2194  222.4849 H   0  0  0  0  0  0  0  0  0  0  0  0
  140.2387   81.8838  224.2281 H   0  0  0  0  0  0  0  0  0  0  0  0
  142.6008   82.0795  224.9576 H   0  0  0  0  0  0  0  0  0  0  0  0
  144.3507   80.6213  223.9456 H   0  0  0  0  0  0  0  0  0  0  0  0
  143.7306   78.9576  222.2022 H   0  0  0  0  0  0  0  0  0  0  0  0
  141.7919   76.8106  222.2963 H   0  0  0  0  0  0  0  0  0  0  0  0
  141.5982   76.9997  219.5234 H   0  0  0  0  0  0  0  0  0  0  0  0
  142.2229   75.6804  220.6745 H   0  0  0  0  0  0  0  0  0  0  0  0
  139.5498   75.8977  219.3519 H   0  0  0  0  0  0  0  0  0  0  0  0
  140.7759   74.6189  219.1977 H   0  0  0  0  0  0  0  0  0  0  0  0
  139.3304   73.2530  223.2300 H   0  0  0  0  0  0  0  0  0  0  0  0
  138.1786   72.3624  222.1679 H   0  0  0  0  0  0  0  0  0  0  0  0
  141.0871   71.4150  222.4316 H   0  0  0  0  0  0  0  0  0  0  0  0
  138.4920   70.1530  221.7720 H   0  0  0  0  0  0  0  0  0  0  0  0
  139.7930   70.5370  220.6970 H   0  0  0  0  0  0  0  0  0  0  0  0
  138.8068   71.4167  224.3108 H   0  0  0  0  0  0  0  0  0  0  0  0
  141.8968   70.9365  224.3525 H   0  0  0  0  0  0  0  0  0  0  0  0
  141.1257   72.3280  225.0295 H   0  0  0  0  0  0  0  0  0  0  0  0
  141.6612   71.4514  227.7345 H   0  0  0  0  0  0  0  0  0  0  0  0
  140.9162   69.7792  229.4015 H   0  0  0  0  0  0  0  0  0  0  0  0
  139.5366   67.8406  228.7247 H   0  0  0  0  0  0  0  0  0  0  0  0
  138.8817   67.5470  226.3536 H   0  0  0  0  0  0  0  0  0  0  0  0
  140.4549   68.8984  223.6610 H   0  0  0  0  0  0  0  0  0  0  0  0
  138.7369   68.9563  223.8808 H   0  0  0  0  0  0  0  0  0  0  0  0
  138.1666   75.4847  222.0928 H   0  0  0  0  0  0  0  0  0  0  0  0
  139.6149   75.0152  223.0987 H   0  0  0  0  0  0  0  0  0  0  0  0
  138.9929   77.5147  221.6516 H   0  0  0  0  0  0  0  0  0  0  0  0
  139.8625   77.1708  223.2397 H   0  0  0  0  0  0  0  0  0  0  0  0
  1  2  1  0
  2  3  1  0
  3  4  2  0
  3  5  1  0
  5  6  1  0
  6  7  2  0
  7  8  1  0
  8  9  2  0
  9 10  1  0
 10 11  2  0
  5 12  1  0
 12 13  1  0
 13 14  1  0
 14 15  1  0
 15 16  1  0
 16 17  2  0
 16 18  1  0
 18 19  1  0
 19 20  1  0
 19 21  1  0
 21 22  1  0
 22 23  1  0
 23 24  2  0
 24 25  1  0
 25 26  2  0
 26 27  1  0
 27 28  2  0
 28 29  1  0
 15 30  1  0
 30 31  1  0
 11  6  1  0
 31 12  1  0
 29 21  1  0
 28 23  1  0
  1 32  1  0
  1 33  1  0
  1 34  1  0
  2 35  1  0
  2 36  1  0
  7 37  1  0
  8 38  1  0
  9 39  1  0
 10 40  1  0
 11 41  1  0
 12 42  1  0
 13 43  1  0
 13 44  1  0
 14 45  1  0
 14 46  1  0
 18 47  1  0
 18 48  1  0
 19 49  1  1
 20 50  1  0
 20 51  1  0
 21 52  1  0
 22 53  1  0
 22 54  1  0
 24 55  1  0
 25 56  1  0
 26 57  1  0
 27 58  1  0
 29 59  1  0
 29 60  1  0
 30 61  1  0
 30 62  1  0
 31 63  1  0
 31 64  1  0
M  END
>  <smiles>  (48) 
CCC(=O)N(c1ccccc1)C1CCN(C(=O)CC(N)C2Cc3ccccc3C2)CC1

>  <score_type>  (48) 
oracle

>  <origin>  (48) 
autodockgpu

>  <m_score__min__energy>  (48) 
-8.4100000000000001

>  <m_primary>  (48) 
energy

>  <rmsd>  (48) 
6.370506748450216

>  <m_score__min__rmsd>  (48) 
6.370506748450216

>  <meeko>  (48) 
{"free_energy": -8.02, "intermolecular_energy": -10.4, "internal_energy": -1.89, "cluster_size": 24, "cluster_id": 1, "rank_in_cluster": 8}

>  <energy>  (48) 
-7.75

>  <cluster_rmsd>  (48) 
1.91

>  <cluster>  (48) 
5

$$$$

     RDKit          3D

 64 67  0  0  0  0  0  0  0  0999 V2000
  142.5640   79.7990  218.1360 C   0  0  0  0  0  0  0  0  0  0  0  0
  141.5400   78.6820  218.1300 C   0  0  0  0  0  0  0  0  0  0  0  0
  140.5900   78.8710  219.2830 C   0  0  0  0  0  0  0  0  0  0  0  0
  139.6670   79.7040  219.0890 O   0  0  0  0  0  0  0  0  0  0  0  0
  140.7650   78.1410  220.4800 N   0  0  0  0  0  0  0  0  0  0  0  0
  141.3120   78.8120  221.6280 C   0  0  0  0  0  0  0  0  0  0  0  0
  140.9360   78.3680  222.8870 C   0  0  0  0  0  0  0  0  0  0  0  0
  141.4460   78.9930  224.0150 C   0  0  0  0  0  0  0  0  0  0  0  0
  142.3240   80.0510  223.8780 C   0  0  0  0  0  0  0  0  0  0  0  0
  142.6990   80.4940  222.6090 C   0  0  0  0  0  0  0  0  0  0  0  0
  142.1940   79.8760  221.4800 C   0  0  0  0  0  0  0  0  0  0  0  0
  140.3860   76.7410  220.5100 C   0  0  0  0  0  0  0  0  0  0  0  0
  139.0190   76.5770  221.0540 C   0  0  0  0  0  0  0  0  0  0  0  0
  138.8460   75.6550  222.2070 C   0  0  0  0  0  0  0  0  0  0  0  0
  139.6320   74.4700  221.9230 N   0  0  0  0  0  0  0  0  0  0  0  0
  139.0290   73.1910  221.9550 C   0  0  0  0  0  0  0  0  0  0  0  0
  137.8130   73.0680  222.2290 O   0  0  0  0  0  0  0  0  0  0  0  0
  139.7970   71.9550  221.6730 C   0  0  0  0  0  0  0  0  0  0  0  0
  139.1270   70.7500  222.3410 C   0  0  2  0  0  0  0  0  0  0  0  0
  137.7380   70.6790  221.8980 N   0  0  0  0  0  0  0  0  0  0  0  0
  139.2110   70.9780  223.8290 C   0  0  0  0  0  0  0  0  0  0  0  0
  140.5980   71.4920  224.1540 C   0  0  0  0  0  0  0  0  0  0  0  0
  140.6130   71.2510  225.6410 C   0  0  0  0  0  0  0  0  0  0  0  0
  141.2830   71.8810  226.6890 C   0  0  0  0  0  0  0  0  0  0  0  0
  141.0940   71.4280  227.9780 C   0  0  0  0  0  0  0  0  0  0  0  0
  140.2530   70.3620  228.2480 C   0  0  0  0  0  0  0  0  0  0  0  0
  139.5870   69.7340  227.2210 C   0  0  0  0  0  0  0  0  0  0  0  0
  139.7650   70.1750  225.9230 C   0  0  0  0  0  0  0  0  0  0  0  0
  139.1840   69.6980  224.6170 C   0  0  0  0  0  0  0  0  0  0  0  0
  141.0420   74.5610  221.6040 C   0  0  0  0  0  0  0  0  0  0  0  0
  141.4560   75.9250  221.1490 C   0  0  0  0  0  0  0  0  0  0  0  0
  142.8090   80.0663  219.1745 H   0  0  0  0  0  0  0  0  0  0  0  0
  143.4752   79.4639  217.6189 H   0  0  0  0  0  0  0  0  0  0  0  0
  142.1511   80.6777  217.6189 H   0  0  0  0  0  0  0  0  0  0  0  0
  140.9787   78.7033  217.1842 H   0  0  0  0  0  0  0  0  0  0  0  0
  142.0513   77.7131  218.2291 H   0  0  0  0  0  0  0  0  0  0  0  0
  140.2372   77.5248  222.9902 H   0  0  0  0  0  0  0  0  0  0  0  0
  141.1521   78.6471  225.0170 H   0  0  0  0  0  0  0  0  0  0  0  0
  142.7290   80.5461  224.7729 H   0  0  0  0  0  0  0  0  0  0  0  0
  143.3982   81.3370  222.5066 H   0  0  0  0  0  0  0  0  0  0  0  0
  142.4865   80.2219  220.4776 H   0  0  0  0  0  0  0  0  0  0  0  0
  140.3122   76.3377  219.4893 H   0  0  0  0  0  0  0  0  0  0  0  0
  138.6690   77.5705  221.3710 H   0  0  0  0  0  0  0  0  0  0  0  0
  138.4454   76.1151  220.2369 H   0  0  0  0  0  0  0  0  0  0  0  0
  139.2039   76.1335  223.1305 H   0  0  0  0  0  0  0  0  0  0  0  0
  137.7858   75.3984  222.3492 H   0  0  0  0  0  0  0  0  0  0  0  0
  139.8363   71.7921  220.5858 H   0  0  0  0  0  0  0  0  0  0  0  0
  140.8153   72.0666  222.0739 H   0  0  0  0  0  0  0  0  0  0  0  0
  139.6165   69.8010  222.0769 H   0  0  0  0  0  0  0  0  0  0  0  0
  137.0930   71.0080  222.6340 H   0  0  0  0  0  0  0  0  0  0  0  0
  137.6330   71.2280  221.0050 H   0  0  0  0  0  0  0  0  0  0  0  0
  138.3691   71.6411  224.0771 H   0  0  0  0  0  0  0  0  0  0  0  0
  141.3801   70.9162  223.6375 H   0  0  0  0  0  0  0  0  0  0  0  0
  140.7957   72.5295  223.8468 H   0  0  0  0  0  0  0  0  0  0  0  0
  141.9544   72.7293  226.4901 H   0  0  0  0  0  0  0  0  0  0  0  0
  141.6213   71.9229  228.8068 H   0  0  0  0  0  0  0  0  0  0  0  0
  140.1173   70.0171  229.2837 H   0  0  0  0  0  0  0  0  0  0  0  0
  138.9175   68.8869  227.4312 H   0  0  0  0  0  0  0  0  0  0  0  0
  139.8091   68.9209  224.1529 H   0  0  0  0  0  0  0  0  0  0  0  0
  138.1931   69.2274  224.6979 H   0  0  0  0  0  0  0  0  0  0  0  0
  141.6213   74.3012  222.5023 H   0  0  0  0  0  0  0  0  0  0  0  0
  141.2349   73.8664  220.7731 H   0  0  0  0  0  0  0  0  0  0  0  0
  141.8249   76.4771  222.0259 H   0  0  0  0  0  0  0  0  0  0  0  0
  142.2182   75.7654  220.3721 H   0  0  0  0  0  0  0  0  0  0  0  0
  1  2  1  0
  2  3  1  0
  3  4  2  0
  3  5  1  0
  5  6  1  0
  6  7  2  0
  7  8  1  0
  8  9  2  0
  9 10  1  0
 10 11  2  0
  5 12  1  0
 12 13  1  0
 13 14  1  0
 14 15  1  0
 15 16  1  0
 16 17  2  0
 16 18  1  0
 18 19  1  0
 19 20  1  0
 19 21  1  0
 21 22  1  0
 22 23  1  0
 23 24  2  0
 24 25  1  0
 25 26  2  0
 26 27  1  0
 27 28  2  0
 28 29  1  0
 15 30  1  0
 30 31  1  0
 11  6  1  0
 31 12  1  0
 29 21  1  0
 28 23  1  0
  1 32  1  0
  1 33  1  0
  1 34  1  0
  2 35  1  0
  2 36  1  0
  7 37  1  0
  8 38  1  0
  9 39  1  0
 10 40  1  0
 11 41  1  0
 12 42  1  0
 13 43  1  0
 13 44  1  0
 14 45  1  0
 14 46  1  0
 18 47  1  0
 18 48  1  0
 19 49  1  1
 20 50  1  0
 20 51  1  0
 21 52  1  0
 22 53  1  0
 22 54  1  0
 24 55  1  0
 25 56  1  0
 26 57  1  0
 27 58  1  0
 29 59  1  0
 29 60  1  0
 30 61  1  0
 30 62  1  0
 31 63  1  0
 31 64  1  0
M  END
>  <smiles>  (49) 
CCC(=O)N(c1ccccc1)C1CCN(C(=O)CC(N)C2Cc3ccccc3C2)CC1

>  <score_type>  (49) 
oracle

>  <origin>  (49) 
autodockgpu

>  <m_score__min__energy>  (49) 
-8.4100000000000001

>  <m_primary>  (49) 
energy

>  <rmsd>  (49) 
6.523084197639284

>  <m_score__min__rmsd>  (49) 
6.523084197639284

>  <meeko>  (49) 
{"free_energy": -7.99, "intermolecular_energy": -10.37, "internal_energy": -2.23, "cluster_size": 24, "cluster_id": 1, "rank_in_cluster": 9}

>  <energy>  (49) 
-7.67

>  <cluster_rmsd>  (49) 
1.32

>  <cluster>  (49) 
5

$$$$

     RDKit          3D

 64 67  0  0  0  0  0  0  0  0999 V2000
  138.4210   79.9730  220.2590 C   0  0  0  0  0  0  0  0  0  0  0  0
  139.6450   80.1930  219.3930 C   0  0  0  0  0  0  0  0  0  0  0  0
  140.4520   78.9220  219.3380 C   0  0  0  0  0  0  0  0  0  0  0  0
  140.8720   78.6020  218.1970 O   0  0  0  0  0  0  0  0  0  0  0  0
  140.6910   78.1770  220.5140 N   0  0  0  0  0  0  0  0  0  0  0  0
  141.2800   78.8370  221.6470 C   0  0  0  0  0  0  0  0  0  0  0  0
  140.9070   78.4190  222.9150 C   0  0  0  0  0  0  0  0  0  0  0  0
  141.4570   79.0350  224.0290 C   0  0  0  0  0  0  0  0  0  0  0  0
  142.3710   80.0590  223.8690 C   0  0  0  0  0  0  0  0  0  0  0  0
  142.7430   80.4760  222.5910 C   0  0  0  0  0  0  0  0  0  0  0  0
  142.1980   79.8660  221.4750 C   0  0  0  0  0  0  0  0  0  0  0  0
  140.3330   76.7700  220.5370 C   0  0  0  0  0  0  0  0  0  0  0  0
  138.9660   76.5840  221.0750 C   0  0  0  0  0  0  0  0  0  0  0  0
  138.8020   75.6560  222.2240 C   0  0  0  0  0  0  0  0  0  0  0  0
  139.6070   74.4840  221.9410 N   0  0  0  0  0  0  0  0  0  0  0  0
  139.0240   73.1960  221.9660 C   0  0  0  0  0  0  0  0  0  0  0  0
  137.8090   73.0530  222.2330 O   0  0  0  0  0  0  0  0  0  0  0  0
  139.8130   71.9720  221.6840 C   0  0  0  0  0  0  0  0  0  0  0  0
  139.1710   70.7590  222.3650 C   0  0  2  0  0  0  0  0  0  0  0  0
  137.7830   70.6520  221.9240 N   0  0  0  0  0  0  0  0  0  0  0  0
  139.2510   71.0050  223.8510 C   0  0  0  0  0  0  0  0  0  0  0  0
  140.6340   71.5290  224.1720 C   0  0  0  0  0  0  0  0  0  0  0  0
  140.6480   71.3050  225.6620 C   0  0  0  0  0  0  0  0  0  0  0  0
  141.3130   71.9500  226.7040 C   0  0  0  0  0  0  0  0  0  0  0  0
  141.1240   71.5100  227.9980 C   0  0  0  0  0  0  0  0  0  0  0  0
  140.2870   70.4430  228.2780 C   0  0  0  0  0  0  0  0  0  0  0  0
  139.6260   69.8010  227.2570 C   0  0  0  0  0  0  0  0  0  0  0  0
  139.8040   70.2280  225.9540 C   0  0  0  0  0  0  0  0  0  0  0  0
  139.2290   69.7340  224.6530 C   0  0  0  0  0  0  0  0  0  0  0  0
  141.0170   74.5980  221.6290 C   0  0  0  0  0  0  0  0  0  0  0  0
  141.4130   75.9690  221.1800 C   0  0  0  0  0  0  0  0  0  0  0  0
  138.7082   80.0246  221.3196 H   0  0  0  0  0  0  0  0  0  0  0  0
  137.6743   80.7513  220.0430 H   0  0  0  0  0  0  0  0  0  0  0  0
  137.9921   78.9834  220.0430 H   0  0  0  0  0  0  0  0  0  0  0  0
  139.3305   80.4726  218.3767 H   0  0  0  0  0  0  0  0  0  0  0  0
  140.2581   81.0001  219.8204 H   0  0  0  0  0  0  0  0  0  0  0  0
  140.1790   77.6034  223.0368 H   0  0  0  0  0  0  0  0  0  0  0  0
  141.1662   78.7090  225.0385 H   0  0  0  0  0  0  0  0  0  0  0  0
  142.8070   80.5472  224.7531 H   0  0  0  0  0  0  0  0  0  0  0  0
  143.4712   81.2915  222.4701 H   0  0  0  0  0  0  0  0  0  0  0  0
  142.4876   80.1913  220.4649 H   0  0  0  0  0  0  0  0  0  0  0  0
  140.2700   76.3685  219.5148 H   0  0  0  0  0  0  0  0  0  0  0  0
  138.6001   77.5712  221.3938 H   0  0  0  0  0  0  0  0  0  0  0  0
  138.4026   76.1164  220.2541 H   0  0  0  0  0  0  0  0  0  0  0  0
  139.1482   76.1372  223.1506 H   0  0  0  0  0  0  0  0  0  0  0  0
  137.7452   75.3827  222.3599 H   0  0  0  0  0  0  0  0  0  0  0  0
  139.8459   71.8034  220.5975 H   0  0  0  0  0  0  0  0  0  0  0  0
  140.8326   72.1047  222.0749 H   0  0  0  0  0  0  0  0  0  0  0  0
  139.6814   69.8185  222.1103 H   0  0  0  0  0  0  0  0  0  0  0  0
  137.1320   70.9780  222.6560 H   0  0  0  0  0  0  0  0  0  0  0  0
  137.6670   71.1850  221.0230 H   0  0  0  0  0  0  0  0  0  0  0  0
  138.4056   71.6669  224.0903 H   0  0  0  0  0  0  0  0  0  0  0  0
  141.4196   70.9511  223.6632 H   0  0  0  0  0  0  0  0  0  0  0  0
  140.8271   72.5640  223.8533 H   0  0  0  0  0  0  0  0  0  0  0  0
  141.9804   72.7995  226.4969 H   0  0  0  0  0  0  0  0  0  0  0  0
  141.6478   72.0161  228.8223 H   0  0  0  0  0  0  0  0  0  0  0  0
  140.1508   70.1088  229.3171 H   0  0  0  0  0  0  0  0  0  0  0  0
  138.9600   68.9533  227.4756 H   0  0  0  0  0  0  0  0  0  0  0  0
  139.8593   68.9551  224.1990 H   0  0  0  0  0  0  0  0  0  0  0  0
  138.2403   69.2592  224.7369 H   0  0  0  0  0  0  0  0  0  0  0  0
  141.5958   74.3444  222.5294 H   0  0  0  0  0  0  0  0  0  0  0  0
  141.2240   73.9093  220.7967 H   0  0  0  0  0  0  0  0  0  0  0  0
  141.7687   76.5245  222.0603 H   0  0  0  0  0  0  0  0  0  0  0  0
  142.1822   75.8235  220.4073 H   0  0  0  0  0  0  0  0  0  0  0  0
  1  2  1  0
  2  3  1  0
  3  4  2  0
  3  5  1  0
  5  6  1  0
  6  7  2  0
  7  8  1  0
  8  9  2  0
  9 10  1  0
 10 11  2  0
  5 12  1  0
 12 13  1  0
 13 14  1  0
 14 15  1  0
 15 16  1  0
 16 17  2  0
 16 18  1  0
 18 19  1  0
 19 20  1  0
 19 21  1  0
 21 22  1  0
 22 23  1  0
 23 24  2  0
 24 25  1  0
 25 26  2  0
 26 27  1  0
 27 28  2  0
 28 29  1  0
 15 30  1  0
 30 31  1  0
 11  6  1  0
 31 12  1  0
 29 21  1  0
 28 23  1  0
  1 32  1  0
  1 33  1  0
  1 34  1  0
  2 35  1  0
  2 36  1  0
  7 37  1  0
  8 38  1  0
  9 39  1  0
 10 40  1  0
 11 41  1  0
 12 42  1  0
 13 43  1  0
 13 44  1  0
 14 45  1  0
 14 46  1  0
 18 47  1  0
 18 48  1  0
 19 49  1  1
 20 50  1  0
 20 51  1  0
 21 52  1  0
 22 53  1  0
 22 54  1  0
 24 55  1  0
 25 56  1  0
 26 57  1  0
 27 58  1  0
 29 59  1  0
 29 60  1  0
 30 61  1  0
 30 62  1  0
 31 63  1  0
 31 64  1  0
M  END
>  <smiles>  (50) 
CCC(=O)N(c1ccccc1)C1CCN(C(=O)CC(N)C2Cc3ccccc3C2)CC1

>  <score_type>  (50) 
oracle

>  <origin>  (50) 
autodockgpu

>  <m_score__min__energy>  (50) 
-8.4100000000000001

>  <m_primary>  (50) 
energy

>  <rmsd>  (50) 
6.5176839769963415

>  <m_score__min__rmsd>  (50) 
6.5176839769963415

>  <meeko>  (50) 
{"free_energy": -7.53, "intermolecular_energy": -9.91, "internal_energy": -2.31, "cluster_size": 24, "cluster_id": 1, "rank_in_cluster": 21}

>  <energy>  (50) 
-7.63

>  <cluster_rmsd>  (50) 
1.18

>  <cluster>  (50) 
5

$$$$

     RDKit          3D

 64 67  0  0  0  0  0  0  0  0999 V2000
  138.8780   68.3840  221.9700 C   0  0  0  0  0  0  0  0  0  0  0  0
  138.8210   67.7590  223.3700 C   0  0  0  0  0  0  0  0  0  0  0  0
  138.3200   68.7330  224.3550 C   0  0  0  0  0  0  0  0  0  0  0  0
  137.0960   68.6290  224.6860 O   0  0  0  0  0  0  0  0  0  0  0  0
  139.0520   69.7680  224.9660 N   0  0  0  0  0  0  0  0  0  0  0  0
  139.7820   69.3890  226.1610 C   0  0  0  0  0  0  0  0  0  0  0  0
  139.9240   70.2740  227.2100 C   0  0  0  0  0  0  0  0  0  0  0  0
  140.6190   69.8980  228.3390 C   0  0  0  0  0  0  0  0  0  0  0  0
  141.1780   68.6420  228.4370 C   0  0  0  0  0  0  0  0  0  0  0  0
  141.0380   67.7500  227.3910 C   0  0  0  0  0  0  0  0  0  0  0  0
  140.3420   68.1280  226.2600 C   0  0  0  0  0  0  0  0  0  0  0  0
  139.1280   71.1410  224.4560 C   0  0  0  0  0  0  0  0  0  0  0  0
  138.0590   71.4660  223.5160 C   0  0  0  0  0  0  0  0  0  0  0  0
  138.3950   71.8880  222.1310 C   0  0  0  0  0  0  0  0  0  0  0  0
  139.5940   72.7360  222.2210 N   0  0  0  0  0  0  0  0  0  0  0  0
  139.5970   74.0930  221.8130 C   0  0  0  0  0  0  0  0  0  0  0  0
  140.6840   74.7200  221.9450 O   0  0  0  0  0  0  0  0  0  0  0  0
  138.3610   74.7030  221.2630 C   0  0  0  0  0  0  0  0  0  0  0  0
  137.5140   75.3040  222.3440 C   0  0  1  0  0  0  0  0  0  0  0  0
  138.3030   76.2680  223.1140 N   0  0  0  0  0  0  0  0  0  0  0  0
  136.2840   75.9450  221.8030 C   0  0  0  0  0  0  0  0  0  0  0  0
  135.2040   74.9050  221.6210 C   0  0  0  0  0  0  0  0  0  0  0  0
  134.9450   74.5510  223.0640 C   0  0  0  0  0  0  0  0  0  0  0  0
  134.5410   73.3700  223.6640 C   0  0  0  0  0  0  0  0  0  0  0  0
  134.3620   73.2930  225.0450 C   0  0  0  0  0  0  0  0  0  0  0  0
  134.6040   74.4420  225.7990 C   0  0  0  0  0  0  0  0  0  0  0  0
  135.0080   75.6220  225.2090 C   0  0  0  0  0  0  0  0  0  0  0  0
  135.1850   75.6970  223.8350 C   0  0  0  0  0  0  0  0  0  0  0  0
  135.6080   76.7920  222.9090 C   0  0  0  0  0  0  0  0  0  0  0  0
  140.7590   72.0620  222.7490 C   0  0  0  0  0  0  0  0  0  0  0  0
  140.5220   71.3840  224.0460 C   0  0  0  0  0  0  0  0  0  0  0  0
  138.9776   69.4758  222.0597 H   0  0  0  0  0  0  0  0  0  0  0  0
  139.7431   67.9806  221.4233 H   0  0  0  0  0  0  0  0  0  0  0  0
  137.9542   68.1437  221.4233 H   0  0  0  0  0  0  0  0  0  0  0  0
  138.1494   66.8881  223.3496 H   0  0  0  0  0  0  0  0  0  0  0  0
  139.8361   67.4514  223.6616 H   0  0  0  0  0  0  0  0  0  0  0  0
  139.4825   71.2794  227.1451 H   0  0  0  0  0  0  0  0  0  0  0  0
  140.7289   70.6085  229.1716 H   0  0  0  0  0  0  0  0  0  0  0  0
  141.7319   68.3516  229.3419 H   0  0  0  0  0  0  0  0  0  0  0  0
  141.4786   66.7444  227.4590 H   0  0  0  0  0  0  0  0  0  0  0  0
  140.2315   67.4176  225.4274 H   0  0  0  0  0  0  0  0  0  0  0  0
  138.9078   71.8854  225.2353 H   0  0  0  0  0  0  0  0  0  0  0  0
  137.4264   70.5701  223.4312 H   0  0  0  0  0  0  0  0  0  0  0  0
  137.6012   72.3660  223.9524 H   0  0  0  0  0  0  0  0  0  0  0  0
  138.6014   71.0062  221.5066 H   0  0  0  0  0  0  0  0  0  0  0  0
  137.5587   72.4364  221.6729 H   0  0  0  0  0  0  0  0  0  0  0  0
  138.6395   75.4912  220.5480 H   0  0  0  0  0  0  0  0  0  0  0  0
  137.7777   73.9123  220.7685 H   0  0  0  0  0  0  0  0  0  0  0  0
  137.1852   74.4892  223.0058 H   0  0  0  0  0  0  0  0  0  0  0  0
  138.2350   76.1060  224.1310 H   0  0  0  0  0  0  0  0  0  0  0  0
  139.2990   76.1740  222.8570 H   0  0  0  0  0  0  0  0  0  0  0  0
  136.5922   76.4868  220.8966 H   0  0  0  0  0  0  0  0  0  0  0  0
  134.3102   75.3237  221.1355 H   0  0  0  0  0  0  0  0  0  0  0  0
  135.4774   74.0575  220.9752 H   0  0  0  0  0  0  0  0  0  0  0  0
  134.3588   72.4806  223.0429 H   0  0  0  0  0  0  0  0  0  0  0  0
  134.0404   72.3567  225.5244 H   0  0  0  0  0  0  0  0  0  0  0  0
  134.4694   74.4061  226.8901 H   0  0  0  0  0  0  0  0  0  0  0  0
  135.1910   76.5096  225.8324 H   0  0  0  0  0  0  0  0  0  0  0  0
  134.7476   77.3586  222.5236 H   0  0  0  0  0  0  0  0  0  0  0  0
  136.2452   77.5667  223.3604 H   0  0  0  0  0  0  0  0  0  0  0  0
  141.0842   71.3074  222.0176 H   0  0  0  0  0  0  0  0  0  0  0  0
  141.5226   72.8337  222.9259 H   0  0  0  0  0  0  0  0  0  0  0  0
  141.0245   70.4065  224.0005 H   0  0  0  0  0  0  0  0  0  0  0  0
  140.9104   72.0868  224.7978 H   0  0  0  0  0  0  0  0  0  0  0  0
  1  2  1  0
  2  3  1  0
  3  4  2  0
  3  5  1  0
  5  6  1  0
  6  7  2  0
  7  8  1  0
  8  9  2  0
  9 10  1  0
 10 11  2  0
  5 12  1  0
 12 13  1  0
 13 14  1  0
 14 15  1  0
 15 16  1  0
 16 17  2  0
 16 18  1  0
 18 19  1  0
 19 20  1  0
 19 21  1  0
 21 22  1  0
 22 23  1  0
 23 24  2  0
 24 25  1  0
 25 26  2  0
 26 27  1  0
 27 28  2  0
 28 29  1  0
 15 30  1  0
 30 31  1  0
 11  6  1  0
 31 12  1  0
 29 21  1  0
 28 23  1  0
  1 32  1  0
  1 33  1  0
  1 34  1  0
  2 35  1  0
  2 36  1  0
  7 37  1  0
  8 38  1  0
  9 39  1  0
 10 40  1  0
 11 41  1  0
 12 42  1  0
 13 43  1  0
 13 44  1  0
 14 45  1  0
 14 46  1  0
 18 47  1  0
 18 48  1  0
 19 49  1  1
 20 50  1  0
 20 51  1  0
 21 52  1  0
 22 53  1  0
 22 54  1  0
 24 55  1  0
 25 56  1  0
 26 57  1  0
 27 58  1  0
 29 59  1  0
 29 60  1  0
 30 61  1  0
 30 62  1  0
 31 63  1  0
 31 64  1  0
M  END
>  <smiles>  (51) 
CCC(=O)N(c1ccccc1)C1CCN(C(=O)CC(N)C2Cc3ccccc3C2)CC1

>  <score_type>  (51) 
oracle

>  <origin>  (51) 
autodockgpu

>  <m_score__min__energy>  (51) 
-8.0099999999999998

>  <m_primary>  (51) 
energy

>  <rmsd>  (51) 
7.797632834820273

>  <m_score__min__rmsd>  (51) 
7.797632834820273

>  <meeko>  (51) 
{"free_energy": -6.67, "intermolecular_energy": -9.06, "internal_energy": -2.58, "cluster_size": 2, "cluster_id": 5, "rank_in_cluster": 2}

>  <energy>  (51) 
-8.01

>  <cluster_rmsd>  (51) 
0.0

>  <cluster>  (51) 
1

$$$$

     RDKit          3D

 64 67  0  0  0  0  0  0  0  0999 V2000
  136.9520   71.2630  223.5220 C   0  0  0  0  0  0  0  0  0  0  0  0
  137.5390   70.5020  222.3260 C   0  0  0  0  0  0  0  0  0  0  0  0
  139.0020   70.3890  222.4490 C   0  0  0  0  0  0  0  0  0  0  0  0
  139.5580   69.4540  221.7890 O   0  0  0  0  0  0  0  0  0  0  0  0
  139.8490   71.2040  223.2220 N   0  0  0  0  0  0  0  0  0  0  0  0
  140.0700   70.7540  224.5840 C   0  0  0  0  0  0  0  0  0  0  0  0
  139.6460   69.5050  224.9910 C   0  0  0  0  0  0  0  0  0  0  0  0
  139.8640   69.0930  226.2880 C   0  0  0  0  0  0  0  0  0  0  0  0
  140.5040   69.9150  227.1900 C   0  0  0  0  0  0  0  0  0  0  0  0
  140.9330   71.1650  226.7900 C   0  0  0  0  0  0  0  0  0  0  0  0
  140.7130   71.5780  225.4900 C   0  0  0  0  0  0  0  0  0  0  0  0
  140.5110   72.4160  222.7270 C   0  0  0  0  0  0  0  0  0  0  0  0
  139.5760   73.4070  222.2000 C   0  0  0  0  0  0  0  0  0  0  0  0
  139.6880   73.8500  220.7860 C   0  0  0  0  0  0  0  0  0  0  0  0
  141.1230   73.9380  220.4770 N   0  0  0  0  0  0  0  0  0  0  0  0
  141.7450   75.1550  220.1010 C   0  0  0  0  0  0  0  0  0  0  0  0
  142.9840   75.1070  219.8670 O   0  0  0  0  0  0  0  0  0  0  0  0
  140.9400   76.3970  220.0000 C   0  0  0  0  0  0  0  0  0  0  0  0
  141.8080   77.6190  220.0030 C   0  0  1  0  0  0  0  0  0  0  0  0
  142.9350   77.4310  219.0880 N   0  0  0  0  0  0  0  0  0  0  0  0
  141.0470   78.8500  219.6540 C   0  0  0  0  0  0  0  0  0  0  0  0
  139.9020   79.0360  220.6210 C   0  0  0  0  0  0  0  0  0  0  0  0
  140.6790   79.3160  221.8830 C   0  0  0  0  0  0  0  0  0  0  0  0
  140.4000   79.0480  223.2130 C   0  0  0  0  0  0  0  0  0  0  0  0
  141.2930   79.4180  224.2190 C   0  0  0  0  0  0  0  0  0  0  0  0
  142.4710   80.0640  223.8420 C   0  0  0  0  0  0  0  0  0  0  0  0
  142.7560   80.3330  222.5190 C   0  0  0  0  0  0  0  0  0  0  0  0
  141.8670   79.9650  221.5190 C   0  0  0  0  0  0  0  0  0  0  0  0
  141.8770   80.1010  220.0300 C   0  0  0  0  0  0  0  0  0  0  0  0
  141.8310   72.6820  220.5800 C   0  0  0  0  0  0  0  0  0  0  0  0
  141.6350   71.9900  221.8760 C   0  0  0  0  0  0  0  0  0  0  0  0
  137.3055   70.8048  224.4575 H   0  0  0  0  0  0  0  0  0  0  0  0
  137.2760   72.3135  223.4830 H   0  0  0  0  0  0  0  0  0  0  0  0
  135.8537   71.2164  223.4830 H   0  0  0  0  0  0  0  0  0  0  0  0
  137.1007   69.4938  222.2890 H   0  0  0  0  0  0  0  0  0  0  0  0
  137.3029   71.0545  221.4046 H   0  0  0  0  0  0  0  0  0  0  0  0
  139.1344   68.8389  224.2806 H   0  0  0  0  0  0  0  0  0  0  0  0
  139.5233   68.0968  226.6067 H   0  0  0  0  0  0  0  0  0  0  0  0
  140.6722   69.5771  228.2232 H   0  0  0  0  0  0  0  0  0  0  0  0
  141.4467   71.8278  227.5019 H   0  0  0  0  0  0  0  0  0  0  0  0
  141.0534   72.5744  225.1716 H   0  0  0  0  0  0  0  0  0  0  0  0
  140.9552   73.0077  223.5410 H   0  0  0  0  0  0  0  0  0  0  0  0
  138.5660   72.9892  222.3237 H   0  0  0  0  0  0  0  0  0  0  0  0
  139.8183   74.3151  222.7715 H   0  0  0  0  0  0  0  0  0  0  0  0
  139.2023   73.1202  220.1216 H   0  0  0  0  0  0  0  0  0  0  0  0
  139.1936   74.8214  220.6380 H   0  0  0  0  0  0  0  0  0  0  0  0
  140.3615   76.3724  219.0647 H   0  0  0  0  0  0  0  0  0  0  0  0
  140.2730   76.4466  220.8733 H   0  0  0  0  0  0  0  0  0  0  0  0
  142.1883   77.7577  221.0258 H   0  0  0  0  0  0  0  0  0  0  0  0
  143.7960   77.1470  219.5790 H   0  0  0  0  0  0  0  0  0  0  0  0
  142.7050   76.6790  218.4170 H   0  0  0  0  0  0  0  0  0  0  0  0
  140.7725   78.7507  218.5934 H   0  0  0  0  0  0  0  0  0  0  0  0
  139.2607   79.8838  220.3382 H   0  0  0  0  0  0  0  0  0  0  0  0
  139.2013   78.1903  220.6825 H   0  0  0  0  0  0  0  0  0  0  0  0
  139.4629   78.5372  223.4793 H   0  0  0  0  0  0  0  0  0  0  0  0
  141.0753   79.2071  225.2764 H   0  0  0  0  0  0  0  0  0  0  0  0
  143.1896   80.3660  224.6181 H   0  0  0  0  0  0  0  0  0  0  0  0
  143.6944   80.8427  222.2551 H   0  0  0  0  0  0  0  0  0  0  0  0
  141.3907   81.0307  219.6995 H   0  0  0  0  0  0  0  0  0  0  0  0
  142.8753   80.1558  219.5714 H   0  0  0  0  0  0  0  0  0  0  0  0
  141.4796   72.0187  219.7759 H   0  0  0  0  0  0  0  0  0  0  0  0
  142.9038   72.9110  220.4978 H   0  0  0  0  0  0  0  0  0  0  0  0
  141.4924   70.9214  221.6574 H   0  0  0  0  0  0  0  0  0  0  0  0
  142.5319   72.2439  222.4601 H   0  0  0  0  0  0  0  0  0  0  0  0
  1  2  1  0
  2  3  1  0
  3  4  2  0
  3  5  1  0
  5  6  1  0
  6  7  2  0
  7  8  1  0
  8  9  2  0
  9 10  1  0
 10 11  2  0
  5 12  1  0
 12 13  1  0
 13 14  1  0
 14 15  1  0
 15 16  1  0
 16 17  2  0
 16 18  1  0
 18 19  1  0
 19 20  1  0
 19 21  1  0
 21 22  1  0
 22 23  1  0
 23 24  2  0
 24 25  1  0
 25 26  2  0
 26 27  1  0
 27 28  2  0
 28 29  1  0
 15 30  1  0
 30 31  1  0
 11  6  1  0
 31 12  1  0
 29 21  1  0
 28 23  1  0
  1 32  1  0
  1 33  1  0
  1 34  1  0
  2 35  1  0
  2 36  1  0
  7 37  1  0
  8 38  1  0
  9 39  1  0
 10 40  1  0
 11 41  1  0
 12 42  1  0
 13 43  1  0
 13 44  1  0
 14 45  1  0
 14 46  1  0
 18 47  1  0
 18 48  1  0
 19 49  1  1
 20 50  1  0
 20 51  1  0
 21 52  1  0
 22 53  1  0
 22 54  1  0
 24 55  1  0
 25 56  1  0
 26 57  1  0
 27 58  1  0
 29 59  1  0
 29 60  1  0
 30 61  1  0
 30 62  1  0
 31 63  1  0
 31 64  1  0
M  END
>  <smiles>  (52) 
CCC(=O)N(c1ccccc1)C1CCN(C(=O)CC(N)C2Cc3ccccc3C2)CC1

>  <score_type>  (52) 
oracle

>  <origin>  (52) 
autodockgpu

>  <m_score__min__energy>  (52) 
-8.0099999999999998

>  <m_primary>  (52) 
energy

>  <rmsd>  (52) 
6.489122480495843

>  <m_score__min__rmsd>  (52) 
6.489122480495843

>  <meeko>  (52) 
{"free_energy": -7.17, "intermolecular_energy": -9.55, "internal_energy": -2.5, "cluster_size": 23, "cluster_id": 3, "rank_in_cluster": 14}

>  <energy>  (52) 
-7.9

>  <cluster_rmsd>  (52) 
0.19

>  <cluster>  (52) 
1

$$$$

     RDKit          3D

 64 67  0  0  0  0  0  0  0  0999 V2000
  142.2520   75.8050  220.1220 C   0  0  0  0  0  0  0  0  0  0  0  0
  141.2880   76.8990  219.6430 C   0  0  0  0  0  0  0  0  0  0  0  0
  139.9940   76.7930  220.3390 C   0  0  0  0  0  0  0  0  0  0  0  0
  138.9570   76.7340  219.6050 O   0  0  0  0  0  0  0  0  0  0  0  0
  139.7850   76.7530  221.7290 N   0  0  0  0  0  0  0  0  0  0  0  0
  140.2130   77.9340  222.4550 C   0  0  0  0  0  0  0  0  0  0  0  0
  141.4330   77.9600  223.1020 C   0  0  0  0  0  0  0  0  0  0  0  0
  141.8260   79.0900  223.7850 C   0  0  0  0  0  0  0  0  0  0  0  0
  141.0140   80.2020  223.8330 C   0  0  0  0  0  0  0  0  0  0  0  0
  139.7930   80.1850  223.1880 C   0  0  0  0  0  0  0  0  0  0  0  0
  139.4000   79.0520  222.5030 C   0  0  0  0  0  0  0  0  0  0  0  0
  139.1560   75.6350  222.4400 C   0  0  0  0  0  0  0  0  0  0  0  0
  139.3700   74.3460  221.7890 C   0  0  0  0  0  0  0  0  0  0  0  0
  138.2040   73.5420  221.3380 C   0  0  0  0  0  0  0  0  0  0  0  0
  137.1560   73.6980  222.3590 N   0  0  0  0  0  0  0  0  0  0  0  0
  136.6490   72.6020  223.1000 C   0  0  0  0  0  0  0  0  0  0  0  0
  135.7560   72.8620  223.9530 O   0  0  0  0  0  0  0  0  0  0  0  0
  137.1700   71.2350  222.8490 C   0  0  0  0  0  0  0  0  0  0  0  0
  137.6070   70.5700  224.1200 C   0  0  1  0  0  0  0  0  0  0  0  0
  136.4350   70.1170  224.8720 N   0  0  0  0  0  0  0  0  0  0  0  0
  138.5400   69.4380  223.8690 C   0  0  0  0  0  0  0  0  0  0  0  0
  139.9450   69.9630  223.6960 C   0  0  0  0  0  0  0  0  0  0  0  0
  140.2010   70.4710  225.0920 C   0  0  0  0  0  0  0  0  0  0  0  0
  140.9740   71.5200  225.5620 C   0  0  0  0  0  0  0  0  0  0  0  0
  141.0560   71.7930  226.9280 C   0  0  0  0  0  0  0  0  0  0  0  0
  140.3340   70.9780  227.8000 C   0  0  0  0  0  0  0  0  0  0  0  0
  139.5600   69.9320  227.3400 C   0  0  0  0  0  0  0  0  0  0  0  0
  139.4810   69.6610  225.9810 C   0  0  0  0  0  0  0  0  0  0  0  0
  138.7490   68.6350  225.1760 C   0  0  0  0  0  0  0  0  0  0  0  0
  136.6900   75.0560  222.5290 C   0  0  0  0  0  0  0  0  0  0  0  0
  137.7770   76.0370  222.7650 C   0  0  0  0  0  0  0  0  0  0  0  0
  142.2683   75.7865  221.2217 H   0  0  0  0  0  0  0  0  0  0  0  0
  141.9154   74.8284  219.7438 H   0  0  0  0  0  0  0  0  0  0  0  0
  143.2632   76.0160  219.7438 H   0  0  0  0  0  0  0  0  0  0  0  0
  141.7295   77.8852  219.8494 H   0  0  0  0  0  0  0  0  0  0  0  0
  141.1202   76.7749  218.5630 H   0  0  0  0  0  0  0  0  0  0  0  0
  142.0906   77.0787  223.0719 H   0  0  0  0  0  0  0  0  0  0  0  0
  142.7990   79.1046  224.2978 H   0  0  0  0  0  0  0  0  0  0  0  0
  141.3366   81.0988  224.3822 H   0  0  0  0  0  0  0  0  0  0  0  0
  139.1378   81.0680  223.2196 H   0  0  0  0  0  0  0  0  0  0  0  0
  138.4277   79.0385  221.9888 H   0  0  0  0  0  0  0  0  0  0  0  0
  139.6456   75.4285  223.4032 H   0  0  0  0  0  0  0  0  0  0  0  0
  139.9877   74.5376  220.8992 H   0  0  0  0  0  0  0  0  0  0  0  0
  139.8116   73.7290  222.5855 H   0  0  0  0  0  0  0  0  0  0  0  0
  137.8434   73.9108  220.3665 H   0  0  0  0  0  0  0  0  0  0  0  0
  138.4793   72.4841  221.2151 H   0  0  0  0  0  0  0  0  0  0  0  0
  136.3774   70.6305  222.3838 H   0  0  0  0  0  0  0  0  0  0  0  0
  138.0429   71.3156  222.1845 H   0  0  0  0  0  0  0  0  0  0  0  0
  138.1580   71.3126  224.7158 H   0  0  0  0  0  0  0  0  0  0  0  0
  136.6570   69.9120  225.8580 H   0  0  0  0  0  0  0  0  0  0  0  0
  135.7210   70.8650  224.8710 H   0  0  0  0  0  0  0  0  0  0  0  0
  138.1242   68.8792  223.0176 H   0  0  0  0  0  0  0  0  0  0  0  0
  140.6484   69.1652  223.4153 H   0  0  0  0  0  0  0  0  0  0  0  0
  140.0682   70.7104  222.8983 H   0  0  0  0  0  0  0  0  0  0  0  0
  141.5305   72.1461  224.8490 H   0  0  0  0  0  0  0  0  0  0  0  0
  141.6702   72.6241  227.3050 H   0  0  0  0  0  0  0  0  0  0  0  0
  140.3828   71.1739  228.8813 H   0  0  0  0  0  0  0  0  0  0  0  0
  139.0022   69.3092  228.0548 H   0  0  0  0  0  0  0  0  0  0  0  0
  139.3565   67.7329  225.0108 H   0  0  0  0  0  0  0  0  0  0  0  0
  137.8301   68.2451  225.6382 H   0  0  0  0  0  0  0  0  0  0  0  0
  136.1467   75.3526  221.6197 H   0  0  0  0  0  0  0  0  0  0  0  0
  136.0503   75.0654  223.4238 H   0  0  0  0  0  0  0  0  0  0  0  0
  137.5470   76.9300  222.1653 H   0  0  0  0  0  0  0  0  0  0  0  0
  137.7836   76.1815  223.8554 H   0  0  0  0  0  0  0  0  0  0  0  0
  1  2  1  0
  2  3  1  0
  3  4  2  0
  3  5  1  0
  5  6  1  0
  6  7  2  0
  7  8  1  0
  8  9  2  0
  9 10  1  0
 10 11  2  0
  5 12  1  0
 12 13  1  0
 13 14  1  0
 14 15  1  0
 15 16  1  0
 16 17  2  0
 16 18  1  0
 18 19  1  0
 19 20  1  0
 19 21  1  0
 21 22  1  0
 22 23  1  0
 23 24  2  0
 24 25  1  0
 25 26  2  0
 26 27  1  0
 27 28  2  0
 28 29  1  0
 15 30  1  0
 30 31  1  0
 11  6  1  0
 31 12  1  0
 29 21  1  0
 28 23  1  0
  1 32  1  0
  1 33  1  0
  1 34  1  0
  2 35  1  0
  2 36  1  0
  7 37  1  0
  8 38  1  0
  9 39  1  0
 10 40  1  0
 11 41  1  0
 12 42  1  0
 13 43  1  0
 13 44  1  0
 14 45  1  0
 14 46  1  0
 18 47  1  0
 18 48  1  0
 19 49  1  1
 20 50  1  0
 20 51  1  0
 21 52  1  0
 22 53  1  0
 22 54  1  0
 24 55  1  0
 25 56  1  0
 26 57  1  0
 27 58  1  0
 29 59  1  0
 29 60  1  0
 30 61  1  0
 30 62  1  0
 31 63  1  0
 31 64  1  0
M  END
>  <smiles>  (53) 
CCC(=O)N(c1ccccc1)C1CCN(C(=O)CC(N)C2Cc3ccccc3C2)CC1

>  <score_type>  (53) 
oracle

>  <origin>  (53) 
autodockgpu

>  <m_score__min__energy>  (53) 
-8.0099999999999998

>  <m_primary>  (53) 
energy

>  <rmsd>  (53) 
8.00763365413327

>  <m_score__min__rmsd>  (53) 
8.00763365413327

>  <meeko>  (53) 
{"free_energy": -6.84, "intermolecular_energy": -9.23, "internal_energy": -2.35, "cluster_size": 9, "cluster_id": 1, "rank_in_cluster": 8}

>  <energy>  (53) 
-7.71

>  <cluster_rmsd>  (53) 
0.53

>  <cluster>  (53) 
1

$$$$

     RDKit          3D

 64 67  0  0  0  0  0  0  0  0999 V2000
  136.7790   71.1450  223.7950 C   0  0  0  0  0  0  0  0  0  0  0  0
  137.3340   70.7160  222.4300 C   0  0  0  0  0  0  0  0  0  0  0  0
  138.7860   70.4850  222.5070 C   0  0  0  0  0  0  0  0  0  0  0  0
  139.2440   69.5110  221.8290 O   0  0  0  0  0  0  0  0  0  0  0  0
  139.7190   71.2270  223.2540 N   0  0  0  0  0  0  0  0  0  0  0  0
  140.0060   70.7100  224.5790 C   0  0  0  0  0  0  0  0  0  0  0  0
  139.6000   69.4420  224.9440 C   0  0  0  0  0  0  0  0  0  0  0  0
  139.8820   68.9640  226.2050 C   0  0  0  0  0  0  0  0  0  0  0  0
  140.5680   69.7400  227.1140 C   0  0  0  0  0  0  0  0  0  0  0  0
  140.9790   71.0090  226.7570 C   0  0  0  0  0  0  0  0  0  0  0  0
  140.6960   71.4870  225.4920 C   0  0  0  0  0  0  0  0  0  0  0  0
  140.4040   72.4290  222.7640 C   0  0  0  0  0  0  0  0  0  0  0  0
  139.4910   73.4280  222.2170 C   0  0  0  0  0  0  0  0  0  0  0  0
  139.6320   73.8630  220.8030 C   0  0  0  0  0  0  0  0  0  0  0  0
  141.0740   73.9330  220.5180 N   0  0  0  0  0  0  0  0  0  0  0  0
  141.7170   75.1400  220.1480 C   0  0  0  0  0  0  0  0  0  0  0  0
  142.9600   75.0750  219.9360 O   0  0  0  0  0  0  0  0  0  0  0  0
  140.9290   76.3910  220.0280 C   0  0  0  0  0  0  0  0  0  0  0  0
  141.8150   77.6010  220.0050 C   0  0  1  0  0  0  0  0  0  0  0  0
  142.9230   77.3880  219.0720 N   0  0  0  0  0  0  0  0  0  0  0  0
  141.0660   78.8400  219.6580 C   0  0  0  0  0  0  0  0  0  0  0  0
  139.9320   79.0420  220.6350 C   0  0  0  0  0  0  0  0  0  0  0  0
  140.7230   79.3170  221.8890 C   0  0  0  0  0  0  0  0  0  0  0  0
  140.4530   79.0560  223.2230 C   0  0  0  0  0  0  0  0  0  0  0  0
  141.3580   79.4180  224.2200 C   0  0  0  0  0  0  0  0  0  0  0  0
  142.5400   80.0490  223.8310 C   0  0  0  0  0  0  0  0  0  0  0  0
  142.8170   80.3100  222.5050 C   0  0  0  0  0  0  0  0  0  0  0  0
  141.9150   79.9500  221.5130 C   0  0  0  0  0  0  0  0  0  0  0  0
  141.9140   80.0820  220.0240 C   0  0  0  0  0  0  0  0  0  0  0  0
  141.7650   72.6680  220.6400 C   0  0  0  0  0  0  0  0  0  0  0  0
  141.5380   71.9840  221.9350 C   0  0  0  0  0  0  0  0  0  0  0  0
  137.3762   70.6834  224.5951 H   0  0  0  0  0  0  0  0  0  0  0  0
  136.8308   72.2402  223.8841 H   0  0  0  0  0  0  0  0  0  0  0  0
  135.7322   70.8189  223.8841 H   0  0  0  0  0  0  0  0  0  0  0  0
  136.8370   69.7869  222.1141 H   0  0  0  0  0  0  0  0  0  0  0  0
  137.1420   71.5184  221.7025 H   0  0  0  0  0  0  0  0  0  0  0  0
  139.0511   68.8130  224.2277 H   0  0  0  0  0  0  0  0  0  0  0  0
  139.5562   67.9525  226.4891 H   0  0  0  0  0  0  0  0  0  0  0  0
  140.7871   69.3504  228.1191 H   0  0  0  0  0  0  0  0  0  0  0  0
  141.5283   71.6354  227.4753 H   0  0  0  0  0  0  0  0  0  0  0  0
  141.0234   72.4978  225.2074 H   0  0  0  0  0  0  0  0  0  0  0  0
  140.8412   73.0207  223.5818 H   0  0  0  0  0  0  0  0  0  0  0  0
  138.4740   73.0231  222.3256 H   0  0  0  0  0  0  0  0  0  0  0  0
  139.7350   74.3358  222.7882 H   0  0  0  0  0  0  0  0  0  0  0  0
  139.1492   73.1357  220.1337 H   0  0  0  0  0  0  0  0  0  0  0  0
  139.1514   74.8393  220.6421 H   0  0  0  0  0  0  0  0  0  0  0  0
  140.3459   76.3577  219.0959 H   0  0  0  0  0  0  0  0  0  0  0  0
  140.2666   76.4659  220.9030 H   0  0  0  0  0  0  0  0  0  0  0  0
  142.2150   77.7434  221.0198 H   0  0  0  0  0  0  0  0  0  0  0  0
  143.7950   77.1210  219.5520 H   0  0  0  0  0  0  0  0  0  0  0  0
  142.6810   76.6160  218.4280 H   0  0  0  0  0  0  0  0  0  0  0  0
  140.7815   78.7415  218.6000 H   0  0  0  0  0  0  0  0  0  0  0  0
  139.2978   79.8961  220.3553 H   0  0  0  0  0  0  0  0  0  0  0  0
  139.2226   78.2043  220.7055 H   0  0  0  0  0  0  0  0  0  0  0  0
  139.5125   78.5567  223.4989 H   0  0  0  0  0  0  0  0  0  0  0  0
  141.1468   79.2126  225.2798 H   0  0  0  0  0  0  0  0  0  0  0  0
  143.2685   80.3455  224.6000 H   0  0  0  0  0  0  0  0  0  0  0  0
  143.7595   80.8070  222.2317 H   0  0  0  0  0  0  0  0  0  0  0  0
  141.4360   81.0166  219.6952 H   0  0  0  0  0  0  0  0  0  0  0  0
  142.9091   80.1237  219.5570 H   0  0  0  0  0  0  0  0  0  0  0  0
  141.4199   72.0052  219.8327 H   0  0  0  0  0  0  0  0  0  0  0  0
  142.8417   72.8841  220.5766 H   0  0  0  0  0  0  0  0  0  0  0  0
  141.3855   70.9164  221.7185 H   0  0  0  0  0  0  0  0  0  0  0  0
  142.4279   72.2280  222.5338 H   0  0  0  0  0  0  0  0  0  0  0  0
  1  2  1  0
  2  3  1  0
  3  4  2  0
  3  5  1  0
  5  6  1  0
  6  7  2  0
  7  8  1  0
  8  9  2  0
  9 10  1  0
 10 11  2  0
  5 12  1  0
 12 13  1  0
 13 14  1  0
 14 15  1  0
 15 16  1  0
 16 17  2  0
 16 18  1  0
 18 19  1  0
 19 20  1  0
 19 21  1  0
 21 22  1  0
 22 23  1  0
 23 24  2  0
 24 25  1  0
 25 26  2  0
 26 27  1  0
 27 28  2  0
 28 29  1  0
 15 30  1  0
 30 31  1  0
 11  6  1  0
 31 12  1  0
 29 21  1  0
 28 23  1  0
  1 32  1  0
  1 33  1  0
  1 34  1  0
  2 35  1  0
  2 36  1  0
  7 37  1  0
  8 38  1  0
  9 39  1  0
 10 40  1  0
 11 41  1  0
 12 42  1  0
 13 43  1  0
 13 44  1  0
 14 45  1  0
 14 46  1  0
 18 47  1  0
 18 48  1  0
 19 49  1  1
 20 50  1  0
 20 51  1  0
 21 52  1  0
 22 53  1  0
 22 54  1  0
 24 55  1  0
 25 56  1  0
 26 57  1  0
 27 58  1  0
 29 59  1  0
 29 60  1  0
 30 61  1  0
 30 62  1  0
 31 63  1  0
 31 64  1  0
M  END
>  <smiles>  (54) 
CCC(=O)N(c1ccccc1)C1CCN(C(=O)CC(N)C2Cc3ccccc3C2)CC1

>  <score_type>  (54) 
oracle

>  <origin>  (54) 
autodockgpu

>  <m_score__min__energy>  (54) 
-8.0099999999999998

>  <m_primary>  (54) 
energy

>  <rmsd>  (54) 
6.48465874051159

>  <m_score__min__rmsd>  (54) 
6.48465874051159

>  <meeko>  (54) 
{"free_energy": -7.18, "intermolecular_energy": -9.57, "internal_energy": -2.48, "cluster_size": 23, "cluster_id": 3, "rank_in_cluster": 8}

>  <energy>  (54) 
-7.49

>  <cluster_rmsd>  (54) 
0.64

>  <cluster>  (54) 
1

$$$$

     RDKit          3D

 64 67  0  0  0  0  0  0  0  0999 V2000
  143.4320   76.3580  219.7040 C   0  0  0  0  0  0  0  0  0  0  0  0
  142.0920   76.5230  218.9750 C   0  0  0  0  0  0  0  0  0  0  0  0
  141.0900   77.1390  219.8600 C   0  0  0  0  0  0  0  0  0  0  0  0
  140.2140   77.8750  219.3030 O   0  0  0  0  0  0  0  0  0  0  0  0
  141.0000   77.0000  221.2570 N   0  0  0  0  0  0  0  0  0  0  0  0
  141.4210   78.1580  222.0240 C   0  0  0  0  0  0  0  0  0  0  0  0
  141.4200   78.1280  223.4040 C   0  0  0  0  0  0  0  0  0  0  0  0
  141.8250   79.2350  224.1170 C   0  0  0  0  0  0  0  0  0  0  0  0
  142.2330   80.3810  223.4680 C   0  0  0  0  0  0  0  0  0  0  0  0
  142.2370   80.4180  222.0870 C   0  0  0  0  0  0  0  0  0  0  0  0
  141.8310   79.3080  221.3730 C   0  0  0  0  0  0  0  0  0  0  0  0
  140.4970   75.8030  221.9400 C   0  0  0  0  0  0  0  0  0  0  0  0
  141.2360   74.5920  221.5960 C   0  0  0  0  0  0  0  0  0  0  0  0
  140.5240   73.4420  220.9780 C   0  0  0  0  0  0  0  0  0  0  0  0
  139.2070   73.3550  221.6270 N   0  0  0  0  0  0  0  0  0  0  0  0
  138.7990   72.2180  222.3680 C   0  0  0  0  0  0  0  0  0  0  0  0
  137.6480   72.2630  222.8840 O   0  0  0  0  0  0  0  0  0  0  0  0
  139.7120   71.0560  222.5020 C   0  0  0  0  0  0  0  0  0  0  0  0
  139.6410   70.4530  223.8720 C   0  0  1  0  0  0  0  0  0  0  0  0
  139.4610   71.5090  224.8710 N   0  0  0  0  0  0  0  0  0  0  0  0
  138.5600   69.4360  223.9830 C   0  0  0  0  0  0  0  0  0  0  0  0
  139.1640   68.0720  224.2170 C   0  0  0  0  0  0  0  0  0  0  0  0
  139.7420   68.2820  225.5930 C   0  0  0  0  0  0  0  0  0  0  0  0
  140.8550   67.7410  226.2160 C   0  0  0  0  0  0  0  0  0  0  0  0
  141.1870   68.0960  227.5230 C   0  0  0  0  0  0  0  0  0  0  0  0
  140.3640   69.0120  228.1790 C   0  0  0  0  0  0  0  0  0  0  0  0
  139.2550   69.5570  227.5660 C   0  0  0  0  0  0  0  0  0  0  0  0
  138.9250   69.2020  226.2650 C   0  0  0  0  0  0  0  0  0  0  0  0
  137.8250   69.6010  225.3350 C   0  0  0  0  0  0  0  0  0  0  0  0
  138.3720   74.5190  221.4340 C   0  0  0  0  0  0  0  0  0  0  0  0
  139.0310   75.7960  221.7980 C   0  0  0  0  0  0  0  0  0  0  0  0
  143.2632   76.3788  220.7908 H   0  0  0  0  0  0  0  0  0  0  0  0
  143.8870   75.3971  219.4219 H   0  0  0  0  0  0  0  0  0  0  0  0
  144.1065   77.1799  219.4219 H   0  0  0  0  0  0  0  0  0  0  0  0
  142.2374   77.1641  218.0930 H   0  0  0  0  0  0  0  0  0  0  0  0
  141.7310   75.5297  218.6699 H   0  0  0  0  0  0  0  0  0  0  0  0
  141.0959   77.2204  223.9343 H   0  0  0  0  0  0  0  0  0  0  0  0
  141.8228   79.2043  225.2166 H   0  0  0  0  0  0  0  0  0  0  0  0
  142.5533   81.2603  224.0462 H   0  0  0  0  0  0  0  0  0  0  0  0
  142.5618   81.3267  221.5591 H   0  0  0  0  0  0  0  0  0  0  0  0
  141.8335   79.3384  220.2734 H   0  0  0  0  0  0  0  0  0  0  0  0
  140.6953   75.8280  223.0217 H   0  0  0  0  0  0  0  0  0  0  0  0
  142.0280   74.8909  220.8936 H   0  0  0  0  0  0  0  0  0  0  0  0
  141.5526   74.2001  222.5738 H   0  0  0  0  0  0  0  0  0  0  0  0
  140.4028   73.6088  219.8975 H   0  0  0  0  0  0  0  0  0  0  0  0
  141.0915   72.5094  221.1131 H   0  0  0  0  0  0  0  0  0  0  0  0
  139.4299   70.2932  221.7613 H   0  0  0  0  0  0  0  0  0  0  0  0
  140.7411   71.4061  222.3334 H   0  0  0  0  0  0  0  0  0  0  0  0
  140.5913   69.9315  224.0588 H   0  0  0  0  0  0  0  0  0  0  0  0
  140.0810   72.3160  224.7040 H   0  0  0  0  0  0  0  0  0  0  0  0
  138.4890   71.8580  224.8250 H   0  0  0  0  0  0  0  0  0  0  0  0
  137.9426   69.5435  223.0789 H   0  0  0  0  0  0  0  0  0  0  0  0
  138.4009   67.2797  224.2100 H   0  0  0  0  0  0  0  0  0  0  0  0
  139.8852   67.7446  223.4537 H   0  0  0  0  0  0  0  0  0  0  0  0
  141.4852   67.0218  225.6723 H   0  0  0  0  0  0  0  0  0  0  0  0
  142.0694   67.6676  228.0208 H   0  0  0  0  0  0  0  0  0  0  0  0
  140.6056   69.3069  229.2108 H   0  0  0  0  0  0  0  0  0  0  0  0
  138.6280   70.2776  228.1115 H   0  0  0  0  0  0  0  0  0  0  0  0
  136.9570   68.9301  225.4146 H   0  0  0  0  0  0  0  0  0  0  0  0
  137.3974   70.5981  225.5165 H   0  0  0  0  0  0  0  0  0  0  0  0
  138.0844   74.5673  220.3734 H   0  0  0  0  0  0  0  0  0  0  0  0
  137.5048   74.4049  222.1010 H   0  0  0  0  0  0  0  0  0  0  0  0
  138.7745   76.5297  221.0196 H   0  0  0  0  0  0  0  0  0  0  0  0
  138.6567   76.0196  222.8079 H   0  0  0  0  0  0  0  0  0  0  0  0
  1  2  1  0
  2  3  1  0
  3  4  2  0
  3  5  1  0
  5  6  1  0
  6  7  2  0
  7  8  1  0
  8  9  2  0
  9 10  1  0
 10 11  2  0
  5 12  1  0
 12 13  1  0
 13 14  1  0
 14 15  1  0
 15 16  1  0
 16 17  2  0
 16 18  1  0
 18 19  1  0
 19 20  1  0
 19 21  1  0
 21 22  1  0
 22 23  1  0
 23 24  2  0
 24 25  1  0
 25 26  2  0
 26 27  1  0
 27 28  2  0
 28 29  1  0
 15 30  1  0
 30 31  1  0
 11  6  1  0
 31 12  1  0
 29 21  1  0
 28 23  1  0
  1 32  1  0
  1 33  1  0
  1 34  1  0
  2 35  1  0
  2 36  1  0
  7 37  1  0
  8 38  1  0
  9 39  1  0
 10 40  1  0
 11 41  1  0
 12 42  1  0
 13 43  1  0
 13 44  1  0
 14 45  1  0
 14 46  1  0
 18 47  1  0
 18 48  1  0
 19 49  1  1
 20 50  1  0
 20 51  1  0
 21 52  1  0
 22 53  1  0
 22 54  1  0
 24 55  1  0
 25 56  1  0
 26 57  1  0
 27 58  1  0
 29 59  1  0
 29 60  1  0
 30 61  1  0
 30 62  1  0
 31 63  1  0
 31 64  1  0
M  END
>  <smiles>  (55) 
CCC(=O)N(c1ccccc1)C1CCN(C(=O)CC(N)C2Cc3ccccc3C2)CC1

>  <score_type>  (55) 
oracle

>  <origin>  (55) 
autodockgpu

>  <m_score__min__energy>  (55) 
-8.0099999999999998

>  <m_primary>  (55) 
energy

>  <rmsd>  (55) 
7.679764653912849

>  <m_score__min__rmsd>  (55) 
7.679764653912849

>  <meeko>  (55) 
{"free_energy": -7.9, "intermolecular_energy": -10.29, "internal_energy": -1.93, "cluster_size": 9, "cluster_id": 1, "rank_in_cluster": 2}

>  <energy>  (55) 
-7.4

>  <cluster_rmsd>  (55) 
1.85

>  <cluster>  (55) 
1

$$$$

     RDKit          3D

 64 67  0  0  0  0  0  0  0  0999 V2000
  136.9740   71.4950  223.4730 C   0  0  0  0  0  0  0  0  0  0  0  0
  137.4980   70.3820  222.5560 C   0  0  0  0  0  0  0  0  0  0  0  0
  138.9680   70.4260  222.4720 C   0  0  0  0  0  0  0  0  0  0  0  0
  139.5110   69.6780  221.5980 O   0  0  0  0  0  0  0  0  0  0  0  0
  139.8350   71.2090  223.2560 N   0  0  0  0  0  0  0  0  0  0  0  0
  140.0580   70.7230  224.6050 C   0  0  0  0  0  0  0  0  0  0  0  0
  140.6930   71.5130  225.5430 C   0  0  0  0  0  0  0  0  0  0  0  0
  140.8960   71.0370  226.8200 C   0  0  0  0  0  0  0  0  0  0  0  0
  140.4710   69.7760  227.1780 C   0  0  0  0  0  0  0  0  0  0  0  0
  139.8340   68.9800  226.2460 C   0  0  0  0  0  0  0  0  0  0  0  0
  139.6320   69.4570  224.9660 C   0  0  0  0  0  0  0  0  0  0  0  0
  140.5120   72.4210  222.7850 C   0  0  0  0  0  0  0  0  0  0  0  0
  139.5920   73.4260  222.2580 C   0  0  0  0  0  0  0  0  0  0  0  0
  139.7260   73.8850  220.8510 C   0  0  0  0  0  0  0  0  0  0  0  0
  141.1670   73.9660  220.5620 N   0  0  0  0  0  0  0  0  0  0  0  0
  141.8030   75.1820  220.2100 C   0  0  0  0  0  0  0  0  0  0  0  0
  143.0450   75.1280  219.9920 O   0  0  0  0  0  0  0  0  0  0  0  0
  141.0080   76.4320  220.1130 C   0  0  0  0  0  0  0  0  0  0  0  0
  141.8900   77.6400  220.0110 C   0  0  1  0  0  0  0  0  0  0  0  0
  142.9560   77.3960  219.0370 N   0  0  0  0  0  0  0  0  0  0  0  0
  141.1240   78.8660  219.6550 C   0  0  0  0  0  0  0  0  0  0  0  0
  139.9800   79.0530  220.6230 C   0  0  0  0  0  0  0  0  0  0  0  0
  140.7570   79.3420  221.8830 C   0  0  0  0  0  0  0  0  0  0  0  0
  140.4800   79.0800  223.2140 C   0  0  0  0  0  0  0  0  0  0  0  0
  141.3720   79.4580  224.2180 C   0  0  0  0  0  0  0  0  0  0  0  0
  142.5480   80.1060  223.8370 C   0  0  0  0  0  0  0  0  0  0  0  0
  142.8310   80.3690  222.5120 C   0  0  0  0  0  0  0  0  0  0  0  0
  141.9420   79.9930  221.5140 C   0  0  0  0  0  0  0  0  0  0  0  0
  141.9500   80.1220  220.0250 C   0  0  0  0  0  0  0  0  0  0  0  0
  141.8630   72.7030  220.6600 C   0  0  0  0  0  0  0  0  0  0  0  0
  141.6440   71.9970  221.9450 C   0  0  0  0  0  0  0  0  0  0  0  0
  137.1128   71.2002  224.5236 H   0  0  0  0  0  0  0  0  0  0  0  0
  137.5294   72.4239  223.2764 H   0  0  0  0  0  0  0  0  0  0  0  0
  135.9042   71.6588  223.2764 H   0  0  0  0  0  0  0  0  0  0  0  0
  137.1883   69.4064  222.9589 H   0  0  0  0  0  0  0  0  0  0  0  0
  137.0815   70.5283  221.5485 H   0  0  0  0  0  0  0  0  0  0  0  0
  141.0366   72.5219  225.2708 H   0  0  0  0  0  0  0  0  0  0  0  0
  141.4032   71.6709  227.5623 H   0  0  0  0  0  0  0  0  0  0  0  0
  140.6381   69.4054  228.2001 H   0  0  0  0  0  0  0  0  0  0  0  0
  139.4898   67.9723  226.5218 H   0  0  0  0  0  0  0  0  0  0  0  0
  139.1259   68.8223  224.2237 H   0  0  0  0  0  0  0  0  0  0  0  0
  140.9492   72.9996  223.6121 H   0  0  0  0  0  0  0  0  0  0  0  0
  138.5771   73.0152  222.3636 H   0  0  0  0  0  0  0  0  0  0  0  0
  139.8342   74.3252  222.8435 H   0  0  0  0  0  0  0  0  0  0  0  0
  139.2439   73.1668  220.1715 H   0  0  0  0  0  0  0  0  0  0  0  0
  139.2407   74.8617  220.7080 H   0  0  0  0  0  0  0  0  0  0  0  0
  140.3688   76.3801  219.2193 H   0  0  0  0  0  0  0  0  0  0  0  0
  140.4006   76.5253  221.0253 H   0  0  0  0  0  0  0  0  0  0  0  0
  142.3342   77.8164  221.0017 H   0  0  0  0  0  0  0  0  0  0  0  0
  143.8510   77.1530  219.4880 H   0  0  0  0  0  0  0  0  0  0  0  0
  142.6910   76.5970  218.4370 H   0  0  0  0  0  0  0  0  0  0  0  0
  140.8488   78.7603  218.5952 H   0  0  0  0  0  0  0  0  0  0  0  0
  139.3354   79.8972  220.3368 H   0  0  0  0  0  0  0  0  0  0  0  0
  139.2827   78.2049  220.6897 H   0  0  0  0  0  0  0  0  0  0  0  0
  139.5448   78.5673  223.4833 H   0  0  0  0  0  0  0  0  0  0  0  0
  141.1553   79.2518  225.2765 H   0  0  0  0  0  0  0  0  0  0  0  0
  143.2662   80.4144  224.6110 H   0  0  0  0  0  0  0  0  0  0  0  0
  143.7676   80.8802  222.2447 H   0  0  0  0  0  0  0  0  0  0  0  0
  141.4600   81.0484  219.6908 H   0  0  0  0  0  0  0  0  0  0  0  0
  142.9478   80.1782  219.5654 H   0  0  0  0  0  0  0  0  0  0  0  0
  141.5171   72.0522  219.8434 H   0  0  0  0  0  0  0  0  0  0  0  0
  142.9386   72.9242  220.5954 H   0  0  0  0  0  0  0  0  0  0  0  0
  141.4967   70.9322  221.7117 H   0  0  0  0  0  0  0  0  0  0  0  0
  142.5345   72.2372  222.5444 H   0  0  0  0  0  0  0  0  0  0  0  0
  1  2  1  0
  2  3  1  0
  3  4  2  0
  3  5  1  0
  5  6  1  0
  6  7  2  0
  7  8  1  0
  8  9  2  0
  9 10  1  0
 10 11  2  0
  5 12  1  0
 12 13  1  0
 13 14  1  0
 14 15  1  0
 15 16  1  0
 16 17  2  0
 16 18  1  0
 18 19  1  0
 19 20  1  0
 19 21  1  0
 21 22  1  0
 22 23  1  0
 23 24  2  0
 24 25  1  0
 25 26  2  0
 26 27  1  0
 27 28  2  0
 28 29  1  0
 15 30  1  0
 30 31  1  0
 11  6  1  0
 31 12  1  0
 29 21  1  0
 28 23  1  0
  1 32  1  0
  1 33  1  0
  1 34  1  0
  2 35  1  0
  2 36  1  0
  7 37  1  0
  8 38  1  0
  9 39  1  0
 10 40  1  0
 11 41  1  0
 12 42  1  0
 13 43  1  0
 13 44  1  0
 14 45  1  0
 14 46  1  0
 18 47  1  0
 18 48  1  0
 19 49  1  1
 20 50  1  0
 20 51  1  0
 21 52  1  0
 22 53  1  0
 22 54  1  0
 24 55  1  0
 25 56  1  0
 26 57  1  0
 27 58  1  0
 29 59  1  0
 29 60  1  0
 30 61  1  0
 30 62  1  0
 31 63  1  0
 31 64  1  0
M  END
>  <smiles>  (56) 
CCC(=O)N(c1ccccc1)C1CCN(C(=O)CC(N)C2Cc3ccccc3C2)CC1

>  <score_type>  (56) 
oracle

>  <origin>  (56) 
autodockgpu

>  <m_score__min__energy>  (56) 
-8.0099999999999998

>  <m_primary>  (56) 
energy

>  <rmsd>  (56) 
6.491767459163217

>  <m_score__min__rmsd>  (56) 
6.491767459163217

>  <meeko>  (56) 
{"free_energy": -7.16, "intermolecular_energy": -9.54, "internal_energy": -2.48, "cluster_size": 23, "cluster_id": 3, "rank_in_cluster": 15}

>  <energy>  (56) 
-7.0

>  <cluster_rmsd>  (56) 
1.77

>  <cluster>  (56) 
1

$$$$

     RDKit          3D

 64 67  0  0  0  0  0  0  0  0999 V2000
  136.8380   71.5150  223.6400 C   0  0  0  0  0  0  0  0  0  0  0  0
  137.3250   70.6940  222.4390 C   0  0  0  0  0  0  0  0  0  0  0  0
  138.7830   70.4950  222.5020 C   0  0  0  0  0  0  0  0  0  0  0  0
  139.2580   69.5400  221.8080 O   0  0  0  0  0  0  0  0  0  0  0  0
  139.7060   71.2480  223.2500 N   0  0  0  0  0  0  0  0  0  0  0  0
  139.9820   70.7450  224.5820 C   0  0  0  0  0  0  0  0  0  0  0  0
  139.5340   69.4990  224.9730 C   0  0  0  0  0  0  0  0  0  0  0  0
  139.8070   69.0360  226.2410 C   0  0  0  0  0  0  0  0  0  0  0  0
  140.5250   69.8030  227.1320 C   0  0  0  0  0  0  0  0  0  0  0  0
  140.9780   71.0500  226.7490 C   0  0  0  0  0  0  0  0  0  0  0  0
  140.7040   71.5140  225.4770 C   0  0  0  0  0  0  0  0  0  0  0  0
  140.3900   72.4480  222.7550 C   0  0  0  0  0  0  0  0  0  0  0  0
  139.4790   73.4310  222.1750 C   0  0  0  0  0  0  0  0  0  0  0  0
  139.6440   73.8460  220.7580 C   0  0  0  0  0  0  0  0  0  0  0  0
  141.0900   73.9240  220.4990 N   0  0  0  0  0  0  0  0  0  0  0  0
  141.7300   75.1310  220.1230 C   0  0  0  0  0  0  0  0  0  0  0  0
  142.9770   75.0740  219.9360 O   0  0  0  0  0  0  0  0  0  0  0  0
  140.9340   76.3730  219.9680 C   0  0  0  0  0  0  0  0  0  0  0  0
  141.8020   77.5950  220.0180 C   0  0  1  0  0  0  0  0  0  0  0  0
  142.9590   77.4180  219.1390 N   0  0  0  0  0  0  0  0  0  0  0  0
  141.0530   78.8310  219.6590 C   0  0  0  0  0  0  0  0  0  0  0  0
  139.9180   79.0410  220.6310 C   0  0  0  0  0  0  0  0  0  0  0  0
  140.7060   79.3260  221.8850 C   0  0  0  0  0  0  0  0  0  0  0  0
  140.4320   79.0760  223.2200 C   0  0  0  0  0  0  0  0  0  0  0  0
  141.3350   79.4470  224.2160 C   0  0  0  0  0  0  0  0  0  0  0  0
  142.5190   80.0740  223.8250 C   0  0  0  0  0  0  0  0  0  0  0  0
  142.7990   80.3240  222.4970 C   0  0  0  0  0  0  0  0  0  0  0  0
  141.8990   79.9560  221.5070 C   0  0  0  0  0  0  0  0  0  0  0  0
  141.9010   80.0760  220.0160 C   0  0  0  0  0  0  0  0  0  0  0  0
  141.7890   72.6680  220.6540 C   0  0  0  0  0  0  0  0  0  0  0  0
  141.5430   72.0020  221.9550 C   0  0  0  0  0  0  0  0  0  0  0  0
  137.1358   71.0129  224.5723 H   0  0  0  0  0  0  0  0  0  0  0  0
  137.2870   72.5186  223.6044 H   0  0  0  0  0  0  0  0  0  0  0  0
  135.7420   71.6021  223.6044 H   0  0  0  0  0  0  0  0  0  0  0  0
  136.8260   69.7137  222.4454 H   0  0  0  0  0  0  0  0  0  0  0  0
  137.0819   71.2396  221.5153 H   0  0  0  0  0  0  0  0  0  0  0  0
  138.9591   68.8762  224.2719 H   0  0  0  0  0  0  0  0  0  0  0  0
  139.4475   68.0421  226.5459 H   0  0  0  0  0  0  0  0  0  0  0  0
  140.7363   69.4243  228.1429 H   0  0  0  0  0  0  0  0  0  0  0  0
  141.5534   71.6699  227.4523 H   0  0  0  0  0  0  0  0  0  0  0  0
  141.0645   72.5075  225.1720 H   0  0  0  0  0  0  0  0  0  0  0  0
  140.8062   73.0548  223.5726 H   0  0  0  0  0  0  0  0  0  0  0  0
  138.4636   73.0188  222.2698 H   0  0  0  0  0  0  0  0  0  0  0  0
  139.7039   74.3494  222.7371 H   0  0  0  0  0  0  0  0  0  0  0  0
  139.1800   73.1048  220.0907 H   0  0  0  0  0  0  0  0  0  0  0  0
  139.1590   74.8160  220.5737 H   0  0  0  0  0  0  0  0  0  0  0  0
  140.4131   76.3446  218.9996 H   0  0  0  0  0  0  0  0  0  0  0  0
  140.2156   76.4271  220.7992 H   0  0  0  0  0  0  0  0  0  0  0  0
  142.1472   77.7203  221.0549 H   0  0  0  0  0  0  0  0  0  0  0  0
  143.8080   77.1470  219.6580 H   0  0  0  0  0  0  0  0  0  0  0  0
  142.7610   76.6600  218.4650 H   0  0  0  0  0  0  0  0  0  0  0  0
  140.7700   78.7235  218.6015 H   0  0  0  0  0  0  0  0  0  0  0  0
  139.2847   79.8930  220.3430 H   0  0  0  0  0  0  0  0  0  0  0  0
  139.2084   78.2039  220.7067 H   0  0  0  0  0  0  0  0  0  0  0  0
  139.4909   78.5789  223.4977 H   0  0  0  0  0  0  0  0  0  0  0  0
  141.1207   79.2515  225.2771 H   0  0  0  0  0  0  0  0  0  0  0  0
  143.2460   80.3760  224.5933 H   0  0  0  0  0  0  0  0  0  0  0  0
  143.7422   80.8184  222.2213 H   0  0  0  0  0  0  0  0  0  0  0  0
  141.4240   81.0080  219.6786 H   0  0  0  0  0  0  0  0  0  0  0  0
  142.8969   80.1136  219.5504 H   0  0  0  0  0  0  0  0  0  0  0  0
  141.4654   71.9898  219.8507 H   0  0  0  0  0  0  0  0  0  0  0  0
  142.8648   72.8928  220.6080 H   0  0  0  0  0  0  0  0  0  0  0  0
  141.4047   70.9297  221.7521 H   0  0  0  0  0  0  0  0  0  0  0  0
  142.4187   72.2644  222.5668 H   0  0  0  0  0  0  0  0  0  0  0  0
  1  2  1  0
  2  3  1  0
  3  4  2  0
  3  5  1  0
  5  6  1  0
  6  7  2  0
  7  8  1  0
  8  9  2  0
  9 10  1  0
 10 11  2  0
  5 12  1  0
 12 13  1  0
 13 14  1  0
 14 15  1  0
 15 16  1  0
 16 17  2  0
 16 18  1  0
 18 19  1  0
 19 20  1  0
 19 21  1  0
 21 22  1  0
 22 23  1  0
 23 24  2  0
 24 25  1  0
 25 26  2  0
 26 27  1  0
 27 28  2  0
 28 29  1  0
 15 30  1  0
 30 31  1  0
 11  6  1  0
 31 12  1  0
 29 21  1  0
 28 23  1  0
  1 32  1  0
  1 33  1  0
  1 34  1  0
  2 35  1  0
  2 36  1  0
  7 37  1  0
  8 38  1  0
  9 39  1  0
 10 40  1  0
 11 41  1  0
 12 42  1  0
 13 43  1  0
 13 44  1  0
 14 45  1  0
 14 46  1  0
 18 47  1  0
 18 48  1  0
 19 49  1  1
 20 50  1  0
 20 51  1  0
 21 52  1  0
 22 53  1  0
 22 54  1  0
 24 55  1  0
 25 56  1  0
 26 57  1  0
 27 58  1  0
 29 59  1  0
 29 60  1  0
 30 61  1  0
 30 62  1  0
 31 63  1  0
 31 64  1  0
M  END
>  <smiles>  (57) 
CCC(=O)N(c1ccccc1)C1CCN(C(=O)CC(N)C2Cc3ccccc3C2)CC1

>  <score_type>  (57) 
oracle

>  <origin>  (57) 
autodockgpu

>  <m_score__min__energy>  (57) 
-8.0099999999999998

>  <m_primary>  (57) 
energy

>  <rmsd>  (57) 
6.4784863087024895

>  <m_score__min__rmsd>  (57) 
6.4784863087024895

>  <meeko>  (57) 
{"free_energy": -7.2, "intermolecular_energy": -9.59, "internal_energy": -2.5, "cluster_size": 23, "cluster_id": 3, "rank_in_cluster": 6}

>  <energy>  (57) 
-6.87

>  <cluster_rmsd>  (57) 
1.9

>  <cluster>  (57) 
1

$$$$

     RDKit          3D

 64 67  0  0  0  0  0  0  0  0999 V2000
  143.3440   80.6010  223.8270 C   0  0  0  0  0  0  0  0  0  0  0  0
  142.1910   81.5710  224.1150 C   0  0  0  0  0  0  0  0  0  0  0  0
  141.0480   81.3000  223.2260 C   0  0  0  0  0  0  0  0  0  0  0  0
  140.9650   82.0100  222.1730 O   0  0  0  0  0  0  0  0  0  0  0  0
  140.0380   80.3410  223.4210 N   0  0  0  0  0  0  0  0  0  0  0  0
  138.7160   80.8780  223.6860 C   0  0  0  0  0  0  0  0  0  0  0  0
  137.9830   81.4780  222.6820 C   0  0  0  0  0  0  0  0  0  0  0  0
  136.7290   81.9800  222.9500 C   0  0  0  0  0  0  0  0  0  0  0  0
  136.1910   81.8930  224.2160 C   0  0  0  0  0  0  0  0  0  0  0  0
  136.9170   81.2930  225.2270 C   0  0  0  0  0  0  0  0  0  0  0  0
  138.1750   80.7900  224.9560 C   0  0  0  0  0  0  0  0  0  0  0  0
  140.2460   78.8910  223.3430 C   0  0  0  0  0  0  0  0  0  0  0  0
  141.3890   78.5180  222.5140 C   0  0  0  0  0  0  0  0  0  0  0  0
  141.1880   77.6490  221.3260 C   0  0  0  0  0  0  0  0  0  0  0  0
  140.1730   76.6490  221.6930 N   0  0  0  0  0  0  0  0  0  0  0  0
  140.4460   75.2580  221.7050 C   0  0  0  0  0  0  0  0  0  0  0  0
  139.4970   74.4990  222.0440 O   0  0  0  0  0  0  0  0  0  0  0  0
  141.7950   74.7670  221.3290 C   0  0  0  0  0  0  0  0  0  0  0  0
  141.7470   73.9100  220.1000 C   0  0  1  0  0  0  0  0  0  0  0  0
  140.3700   73.4810  219.8470 N   0  0  0  0  0  0  0  0  0  0  0  0
  142.3090   74.6050  218.9090 C   0  0  0  0  0  0  0  0  0  0  0  0
  143.4480   75.5010  219.3300 C   0  0  0  0  0  0  0  0  0  0  0  0
  144.4450   74.4570  219.7680 C   0  0  0  0  0  0  0  0  0  0  0  0
  145.4340   74.4790  220.7370 C   0  0  0  0  0  0  0  0  0  0  0  0
  146.2470   73.3660  220.9550 C   0  0  0  0  0  0  0  0  0  0  0  0
  146.0300   72.2350  220.1670 C   0  0  0  0  0  0  0  0  0  0  0  0
  145.0450   72.2050  219.2010 C   0  0  0  0  0  0  0  0  0  0  0  0
  144.2370   73.3130  218.9850 C   0  0  0  0  0  0  0  0  0  0  0  0
  143.1080   73.5980  218.0470 C   0  0  0  0  0  0  0  0  0  0  0  0
  138.8820   77.2080  222.0270 C   0  0  0  0  0  0  0  0  0  0  0  0
  138.9400   78.2720  223.0580 C   0  0  0  0  0  0  0  0  0  0  0  0
  143.7686   80.2438  224.7768 H   0  0  0  0  0  0  0  0  0  0  0  0
  142.9669   79.7445  223.2488 H   0  0  0  0  0  0  0  0  0  0  0  0
  144.1233   81.1191  223.2488 H   0  0  0  0  0  0  0  0  0  0  0  0
  141.8713   81.4515  225.1607 H   0  0  0  0  0  0  0  0  0  0  0  0
  142.5409   82.5987  223.9378 H   0  0  0  0  0  0  0  0  0  0  0  0
  138.4008   81.5552  221.6673 H   0  0  0  0  0  0  0  0  0  0  0  0
  136.1502   82.4558  222.1446 H   0  0  0  0  0  0  0  0  0  0  0  0
  135.1893   82.2989  224.4204 H   0  0  0  0  0  0  0  0  0  0  0  0
  136.4964   81.2163  226.2405 H   0  0  0  0  0  0  0  0  0  0  0  0
  138.7539   80.3133  225.7607 H   0  0  0  0  0  0  0  0  0  0  0  0
  140.5788   78.4672  224.3020 H   0  0  0  0  0  0  0  0  0  0  0  0
  141.8382   79.4543  222.1512 H   0  0  0  0  0  0  0  0  0  0  0  0
  141.9979   77.8947  223.1854 H   0  0  0  0  0  0  0  0  0  0  0  0
  140.8366   78.2492  220.4738 H   0  0  0  0  0  0  0  0  0  0  0  0
  142.1296   77.1632  221.0304 H   0  0  0  0  0  0  0  0  0  0  0  0
  142.4486   75.6306  221.1368 H   0  0  0  0  0  0  0  0  0  0  0  0
  142.1832   74.1578  222.1586 H   0  0  0  0  0  0  0  0  0  0  0  0
  142.3764   73.0263  220.2811 H   0  0  0  0  0  0  0  0  0  0  0  0
  140.0010   72.8820  220.6010 H   0  0  0  0  0  0  0  0  0  0  0  0
  139.7600   74.3140  219.7930 H   0  0  0  0  0  0  0  0  0  0  0  0
  141.4615   75.1017  218.4140 H   0  0  0  0  0  0  0  0  0  0  0  0
  143.8272   76.1027  218.4909 H   0  0  0  0  0  0  0  0  0  0  0  0
  143.1932   76.2512  220.0931 H   0  0  0  0  0  0  0  0  0  0  0  0
  145.5806   75.3855  221.3427 H   0  0  0  0  0  0  0  0  0  0  0  0
  147.0339   73.3798  221.7235 H   0  0  0  0  0  0  0  0  0  0  0  0
  146.6594   71.3458  220.3196 H   0  0  0  0  0  0  0  0  0  0  0  0
  144.8990   71.2967  218.5979 H   0  0  0  0  0  0  0  0  0  0  0  0
  143.4590   74.0498  217.1075 H   0  0  0  0  0  0  0  0  0  0  0  0
  142.5427   72.7157  217.7124 H   0  0  0  0  0  0  0  0  0  0  0  0
  138.4414   77.6338  221.1134 H   0  0  0  0  0  0  0  0  0  0  0  0
  138.2765   76.3899  222.4442 H   0  0  0  0  0  0  0  0  0  0  0  0
  138.2608   79.0755  222.7369 H   0  0  0  0  0  0  0  0  0  0  0  0
  138.6689   77.7615  223.9939 H   0  0  0  0  0  0  0  0  0  0  0  0
  1  2  1  0
  2  3  1  0
  3  4  2  0
  3  5  1  0
  5  6  1  0
  6  7  2  0
  7  8  1  0
  8  9  2  0
  9 10  1  0
 10 11  2  0
  5 12  1  0
 12 13  1  0
 13 14  1  0
 14 15  1  0
 15 16  1  0
 16 17  2  0
 16 18  1  0
 18 19  1  0
 19 20  1  0
 19 21  1  0
 21 22  1  0
 22 23  1  0
 23 24  2  0
 24 25  1  0
 25 26  2  0
 26 27  1  0
 27 28  2  0
 28 29  1  0
 15 30  1  0
 30 31  1  0
 11  6  1  0
 31 12  1  0
 29 21  1  0
 28 23  1  0
  1 32  1  0
  1 33  1  0
  1 34  1  0
  2 35  1  0
  2 36  1  0
  7 37  1  0
  8 38  1  0
  9 39  1  0
 10 40  1  0
 11 41  1  0
 12 42  1  0
 13 43  1  0
 13 44  1  0
 14 45  1  0
 14 46  1  0
 18 47  1  0
 18 48  1  0
 19 49  1  1
 20 50  1  0
 20 51  1  0
 21 52  1  0
 22 53  1  0
 22 54  1  0
 24 55  1  0
 25 56  1  0
 26 57  1  0
 27 58  1  0
 29 59  1  0
 29 60  1  0
 30 61  1  0
 30 62  1  0
 31 63  1  0
 31 64  1  0
M  END
>  <smiles>  (58) 
CCC(=O)N(c1ccccc1)C1CCN(C(=O)CC(N)C2Cc3ccccc3C2)CC1

>  <score_type>  (58) 
oracle

>  <origin>  (58) 
autodockgpu

>  <m_score__min__energy>  (58) 
-8.0099999999999998

>  <m_primary>  (58) 
energy

>  <rmsd>  (58) 
3.7924433706576703

>  <m_score__min__rmsd>  (58) 
3.7924433706576703

>  <meeko>  (58) 
{"free_energy": -6.83, "intermolecular_energy": -9.21, "internal_energy": -2.41, "cluster_size": 3, "cluster_id": 6, "rank_in_cluster": 2}

>  <energy>  (58) 
-6.84

>  <cluster_rmsd>  (58) 
1.85

>  <cluster>  (58) 
1

$$$$

     RDKit          3D

 64 67  0  0  0  0  0  0  0  0999 V2000
  136.5990   71.6550  223.8060 C   0  0  0  0  0  0  0  0  0  0  0  0
  137.2040   70.2640  223.5760 C   0  0  0  0  0  0  0  0  0  0  0  0
  138.5920   70.3740  223.0960 C   0  0  0  0  0  0  0  0  0  0  0  0
  138.8900   69.7030  222.0570 O   0  0  0  0  0  0  0  0  0  0  0  0
  139.6240   71.1400  223.6680 N   0  0  0  0  0  0  0  0  0  0  0  0
  140.0290   70.7390  225.0020 C   0  0  0  0  0  0  0  0  0  0  0  0
  139.8160   69.4490  225.4450 C   0  0  0  0  0  0  0  0  0  0  0  0
  140.2080   69.0830  226.7150 C   0  0  0  0  0  0  0  0  0  0  0  0
  140.8140   69.9930  227.5540 C   0  0  0  0  0  0  0  0  0  0  0  0
  141.0320   71.2860  227.1170 C   0  0  0  0  0  0  0  0  0  0  0  0
  140.6380   71.6510  225.8450 C   0  0  0  0  0  0  0  0  0  0  0  0
  140.2960   72.2570  222.9950 C   0  0  0  0  0  0  0  0  0  0  0  0
  139.3690   73.1790  222.3440 C   0  0  0  0  0  0  0  0  0  0  0  0
  139.4640   73.4130  220.8800 C   0  0  0  0  0  0  0  0  0  0  0  0
  140.8960   73.4310  220.5420 N   0  0  0  0  0  0  0  0  0  0  0  0
  141.5310   74.5710  219.9880 C   0  0  0  0  0  0  0  0  0  0  0  0
  142.7650   74.4680  219.7460 O   0  0  0  0  0  0  0  0  0  0  0  0
  140.7430   75.8000  219.7210 C   0  0  0  0  0  0  0  0  0  0  0  0
  141.4070   77.0150  220.2940 C   0  0  1  0  0  0  0  0  0  0  0  0
  142.8470   76.9640  220.0350 N   0  0  0  0  0  0  0  0  0  0  0  0
  140.8220   78.2780  219.7630 C   0  0  0  0  0  0  0  0  0  0  0  0
  139.6970   78.7360  220.6600 C   0  0  0  0  0  0  0  0  0  0  0  0
  140.4840   79.0780  221.9010 C   0  0  0  0  0  0  0  0  0  0  0  0
  140.1510   79.0260  223.2440 C   0  0  0  0  0  0  0  0  0  0  0  0
  141.0680   79.4060  224.2240 C   0  0  0  0  0  0  0  0  0  0  0  0
  142.3280   79.8380  223.8060 C   0  0  0  0  0  0  0  0  0  0  0  0
  142.6670   79.8910  222.4700 C   0  0  0  0  0  0  0  0  0  0  0  0
  141.7530   79.5130  221.4960 C   0  0  0  0  0  0  0  0  0  0  0  0
  141.8050   79.4490  220.0030 C   0  0  0  0  0  0  0  0  0  0  0  0
  141.5860   72.1910  220.8150 C   0  0  0  0  0  0  0  0  0  0  0  0
  141.4000   71.6940  222.1990 C   0  0  0  0  0  0  0  0  0  0  0  0
  136.5164   71.8449  224.8863 H   0  0  0  0  0  0  0  0  0  0  0  0
  137.2470   72.4169  223.3483 H   0  0  0  0  0  0  0  0  0  0  0  0
  135.5998   71.7005  223.3483 H   0  0  0  0  0  0  0  0  0  0  0  0
  137.1924   69.7040  224.5227 H   0  0  0  0  0  0  0  0  0  0  0  0
  136.6069   69.7395  222.8155 H   0  0  0  0  0  0  0  0  0  0  0  0
  139.3336   68.7132  224.7848 H   0  0  0  0  0  0  0  0  0  0  0  0
  140.0352   68.0537  227.0624 H   0  0  0  0  0  0  0  0  0  0  0  0
  141.1225   69.6919  228.5660 H   0  0  0  0  0  0  0  0  0  0  0  0
  141.5163   72.0196  227.7783 H   0  0  0  0  0  0  0  0  0  0  0  0
  140.8106   72.6803  225.4976 H   0  0  0  0  0  0  0  0  0  0  0  0
  140.7613   72.9516  223.7099 H   0  0  0  0  0  0  0  0  0  0  0  0
  138.3545   72.8020  222.5407 H   0  0  0  0  0  0  0  0  0  0  0  0
  139.6363   74.1550  222.7753 H   0  0  0  0  0  0  0  0  0  0  0  0
  138.9566   72.6041  220.3339 H   0  0  0  0  0  0  0  0  0  0  0  0
  138.9816   74.3613  220.6008 H   0  0  0  0  0  0  0  0  0  0  0  0
  140.6397   75.9288  218.6335 H   0  0  0  0  0  0  0  0  0  0  0  0
  139.7582   75.6883  220.1981 H   0  0  0  0  0  0  0  0  0  0  0  0
  141.2317   77.0125  221.3799 H   0  0  0  0  0  0  0  0  0  0  0  0
  143.3470   76.3730  220.7150 H   0  0  0  0  0  0  0  0  0  0  0  0
  143.0090   76.5550  219.0990 H   0  0  0  0  0  0  0  0  0  0  0  0
  140.5540   78.0769  218.7153 H   0  0  0  0  0  0  0  0  0  0  0  0
  139.1777   79.6145  220.2494 H   0  0  0  0  0  0  0  0  0  0  0  0
  138.8902   78.0029  220.8070 H   0  0  0  0  0  0  0  0  0  0  0  0
  139.1501   78.6805  223.5420 H   0  0  0  0  0  0  0  0  0  0  0  0
  140.8067   79.3665  225.2918 H   0  0  0  0  0  0  0  0  0  0  0  0
  143.0682   80.1434  224.5602 H   0  0  0  0  0  0  0  0  0  0  0  0
  143.6690   80.2353  222.1742 H   0  0  0  0  0  0  0  0  0  0  0  0
  141.4523   80.3823  219.5398 H   0  0  0  0  0  0  0  0  0  0  0  0
  142.8091   79.3126  219.5750 H   0  0  0  0  0  0  0  0  0  0  0  0
  141.2123   71.4258  220.1187 H   0  0  0  0  0  0  0  0  0  0  0  0
  142.6607   72.3881  220.6875 H   0  0  0  0  0  0  0  0  0  0  0  0
  141.2374   70.6078  222.1371 H   0  0  0  0  0  0  0  0  0  0  0  0
  142.3099   72.0121  222.7290 H   0  0  0  0  0  0  0  0  0  0  0  0
  1  2  1  0
  2  3  1  0
  3  4  2  0
  3  5  1  0
  5  6  1  0
  6  7  2  0
  7  8  1  0
  8  9  2  0
  9 10  1  0
 10 11  2  0
  5 12  1  0
 12 13  1  0
 13 14  1  0
 14 15  1  0
 15 16  1  0
 16 17  2  0
 16 18  1  0
 18 19  1  0
 19 20  1  0
 19 21  1  0
 21 22  1  0
 22 23  1  0
 23 24  2  0
 24 25  1  0
 25 26  2  0
 26 27  1  0
 27 28  2  0
 28 29  1  0
 15 30  1  0
 30 31  1  0
 11  6  1  0
 31 12  1  0
 29 21  1  0
 28 23  1  0
  1 32  1  0
  1 33  1  0
  1 34  1  0
  2 35  1  0
  2 36  1  0
  7 37  1  0
  8 38  1  0
  9 39  1  0
 10 40  1  0
 11 41  1  0
 12 42  1  0
 13 43  1  0
 13 44  1  0
 14 45  1  0
 14 46  1  0
 18 47  1  0
 18 48  1  0
 19 49  1  1
 20 50  1  0
 20 51  1  0
 21 52  1  0
 22 53  1  0
 22 54  1  0
 24 55  1  0
 25 56  1  0
 26 57  1  0
 27 58  1  0
 29 59  1  0
 29 60  1  0
 30 61  1  0
 30 62  1  0
 31 63  1  0
 31 64  1  0
M  END
>  <smiles>  (59) 
CCC(=O)N(c1ccccc1)C1CCN(C(=O)CC(N)C2Cc3ccccc3C2)CC1

>  <score_type>  (59) 
oracle

>  <origin>  (59) 
autodockgpu

>  <m_score__min__energy>  (59) 
-8.0099999999999998

>  <m_primary>  (59) 
energy

>  <rmsd>  (59) 
6.568665721085616

>  <m_score__min__rmsd>  (59) 
6.568665721085616

>  <meeko>  (59) 
{"free_energy": -6.86, "intermolecular_energy": -9.25, "internal_energy": -2.53, "cluster_size": 23, "cluster_id": 3, "rank_in_cluster": 21}

>  <energy>  (59) 
-6.78

>  <cluster_rmsd>  (59) 
1.76

>  <cluster>  (59) 
1

$$$$

     RDKit          3D

 64 67  0  0  0  0  0  0  0  0999 V2000
  136.8610   71.5370  223.5520 C   0  0  0  0  0  0  0  0  0  0  0  0
  137.3420   70.4450  222.5870 C   0  0  0  0  0  0  0  0  0  0  0  0
  138.8070   70.4850  222.4440 C   0  0  0  0  0  0  0  0  0  0  0  0
  139.3090   69.7630  221.5240 O   0  0  0  0  0  0  0  0  0  0  0  0
  139.7100   71.2350  223.2180 N   0  0  0  0  0  0  0  0  0  0  0  0
  139.9650   70.7170  224.5490 C   0  0  0  0  0  0  0  0  0  0  0  0
  139.5940   69.4310  224.8880 C   0  0  0  0  0  0  0  0  0  0  0  0
  139.8460   68.9540  226.1560 C   0  0  0  0  0  0  0  0  0  0  0  0
  140.4670   69.7460  227.0970 C   0  0  0  0  0  0  0  0  0  0  0  0
  140.8420   71.0330  226.7650 C   0  0  0  0  0  0  0  0  0  0  0  0
  140.5900   71.5110  225.4940 C   0  0  0  0  0  0  0  0  0  0  0  0
  140.3930   72.4470  222.7520 C   0  0  0  0  0  0  0  0  0  0  0  0
  139.4860   73.4300  222.1670 C   0  0  0  0  0  0  0  0  0  0  0  0
  139.6750   73.8640  220.7580 C   0  0  0  0  0  0  0  0  0  0  0  0
  141.1250   73.9560  220.5290 N   0  0  0  0  0  0  0  0  0  0  0  0
  141.7630   75.1730  220.1800 C   0  0  0  0  0  0  0  0  0  0  0  0
  143.0130   75.1290  220.0160 O   0  0  0  0  0  0  0  0  0  0  0  0
  140.9590   76.4110  220.0260 C   0  0  0  0  0  0  0  0  0  0  0  0
  141.8270   77.6340  220.0190 C   0  0  1  0  0  0  0  0  0  0  0  0
  142.9520   77.4400  219.1020 N   0  0  0  0  0  0  0  0  0  0  0  0
  141.0640   78.8620  219.6630 C   0  0  0  0  0  0  0  0  0  0  0  0
  139.9270   79.0580  220.6370 C   0  0  0  0  0  0  0  0  0  0  0  0
  140.7140   79.3500  221.8900 C   0  0  0  0  0  0  0  0  0  0  0  0
  140.4450   79.0960  223.2250 C   0  0  0  0  0  0  0  0  0  0  0  0
  141.3460   79.4750  224.2210 C   0  0  0  0  0  0  0  0  0  0  0  0
  142.5210   80.1160  223.8280 C   0  0  0  0  0  0  0  0  0  0  0  0
  142.7960   80.3710  222.5010 C   0  0  0  0  0  0  0  0  0  0  0  0
  141.8990   79.9940  221.5110 C   0  0  0  0  0  0  0  0  0  0  0  0
  141.8980   80.1160  220.0210 C   0  0  0  0  0  0  0  0  0  0  0  0
  141.8310   72.7040  220.6810 C   0  0  0  0  0  0  0  0  0  0  0  0
  141.5650   72.0190  221.9690 C   0  0  0  0  0  0  0  0  0  0  0  0
  137.0089   71.2011  224.5890 H   0  0  0  0  0  0  0  0  0  0  0  0
  137.4366   72.4584  223.3794 H   0  0  0  0  0  0  0  0  0  0  0  0
  135.7927   71.7343  223.3794 H   0  0  0  0  0  0  0  0  0  0  0  0
  137.0441   69.4609  222.9780 H   0  0  0  0  0  0  0  0  0  0  0  0
  136.8857   70.6182  221.6012 H   0  0  0  0  0  0  0  0  0  0  0  0
  139.0977   68.7877  224.1465 H   0  0  0  0  0  0  0  0  0  0  0  0
  139.5478   67.9287  226.4201 H   0  0  0  0  0  0  0  0  0  0  0  0
  140.6629   69.3556  228.1065 H   0  0  0  0  0  0  0  0  0  0  0  0
  141.3385   71.6737  227.5086 H   0  0  0  0  0  0  0  0  0  0  0  0
  140.8900   72.5358  225.2298 H   0  0  0  0  0  0  0  0  0  0  0  0
  140.7876   73.0476  223.5848 H   0  0  0  0  0  0  0  0  0  0  0  0
  138.4721   73.0091  222.2372 H   0  0  0  0  0  0  0  0  0  0  0  0
  139.6930   74.3430  222.7446 H   0  0  0  0  0  0  0  0  0  0  0  0
  139.2300   73.1276  220.0726 H   0  0  0  0  0  0  0  0  0  0  0  0
  139.1858   74.8322  220.5757 H   0  0  0  0  0  0  0  0  0  0  0  0
  140.4044   76.3611  219.0774 H   0  0  0  0  0  0  0  0  0  0  0  0
  140.2694   76.4826  220.8800 H   0  0  0  0  0  0  0  0  0  0  0  0
  142.2100   77.7801  221.0398 H   0  0  0  0  0  0  0  0  0  0  0  0
  143.8260   77.2100  219.5970 H   0  0  0  0  0  0  0  0  0  0  0  0
  142.7420   76.6490  218.4700 H   0  0  0  0  0  0  0  0  0  0  0  0
  140.7813   78.7528  218.6056 H   0  0  0  0  0  0  0  0  0  0  0  0
  139.2838   79.9033  220.3510 H   0  0  0  0  0  0  0  0  0  0  0  0
  139.2265   78.2132  220.7124 H   0  0  0  0  0  0  0  0  0  0  0  0
  139.5093   78.5891  223.5035 H   0  0  0  0  0  0  0  0  0  0  0  0
  141.1363   79.2747  225.2821 H   0  0  0  0  0  0  0  0  0  0  0  0
  143.2458   80.4256  224.5953 H   0  0  0  0  0  0  0  0  0  0  0  0
  143.7330   80.8768  222.2250 H   0  0  0  0  0  0  0  0  0  0  0  0
  141.4100   81.0430  219.6854 H   0  0  0  0  0  0  0  0  0  0  0  0
  142.8929   80.1656  219.5545 H   0  0  0  0  0  0  0  0  0  0  0  0
  141.5284   72.0338  219.8629 H   0  0  0  0  0  0  0  0  0  0  0  0
  142.9057   72.9376  220.6586 H   0  0  0  0  0  0  0  0  0  0  0  0
  141.4385   70.9485  221.7499 H   0  0  0  0  0  0  0  0  0  0  0  0
  142.4269   72.2791  222.6010 H   0  0  0  0  0  0  0  0  0  0  0  0
  1  2  1  0
  2  3  1  0
  3  4  2  0
  3  5  1  0
  5  6  1  0
  6  7  2  0
  7  8  1  0
  8  9  2  0
  9 10  1  0
 10 11  2  0
  5 12  1  0
 12 13  1  0
 13 14  1  0
 14 15  1  0
 15 16  1  0
 16 17  2  0
 16 18  1  0
 18 19  1  0
 19 20  1  0
 19 21  1  0
 21 22  1  0
 22 23  1  0
 23 24  2  0
 24 25  1  0
 25 26  2  0
 26 27  1  0
 27 28  2  0
 28 29  1  0
 15 30  1  0
 30 31  1  0
 11  6  1  0
 31 12  1  0
 29 21  1  0
 28 23  1  0
  1 32  1  0
  1 33  1  0
  1 34  1  0
  2 35  1  0
  2 36  1  0
  7 37  1  0
  8 38  1  0
  9 39  1  0
 10 40  1  0
 11 41  1  0
 12 42  1  0
 13 43  1  0
 13 44  1  0
 14 45  1  0
 14 46  1  0
 18 47  1  0
 18 48  1  0
 19 49  1  1
 20 50  1  0
 20 51  1  0
 21 52  1  0
 22 53  1  0
 22 54  1  0
 24 55  1  0
 25 56  1  0
 26 57  1  0
 27 58  1  0
 29 59  1  0
 29 60  1  0
 30 61  1  0
 30 62  1  0
 31 63  1  0
 31 64  1  0
M  END
>  <smiles>  (60) 
CCC(=O)N(c1ccccc1)C1CCN(C(=O)CC(N)C2Cc3ccccc3C2)CC1

>  <score_type>  (60) 
oracle

>  <origin>  (60) 
autodockgpu

>  <m_score__min__energy>  (60) 
-8.0099999999999998

>  <m_primary>  (60) 
energy

>  <rmsd>  (60) 
6.477969795106409

>  <m_score__min__rmsd>  (60) 
6.477969795106409

>  <meeko>  (60) 
{"free_energy": -7.18, "intermolecular_energy": -9.56, "internal_energy": -2.48, "cluster_size": 23, "cluster_id": 3, "rank_in_cluster": 9}

>  <energy>  (60) 
-7.39

>  <cluster_rmsd>  (60) 
0.0

>  <cluster>  (60) 
2

$$$$

     RDKit          3D

 64 67  0  0  0  0  0  0  0  0999 V2000
  136.6000   70.6170  223.8800 C   0  0  0  0  0  0  0  0  0  0  0  0
  137.2290   70.8500  222.5010 C   0  0  0  0  0  0  0  0  0  0  0  0
  138.6770   70.5810  222.5380 C   0  0  0  0  0  0  0  0  0  0  0  0
  139.0920   69.6050  221.8340 O   0  0  0  0  0  0  0  0  0  0  0  0
  139.6480   71.2870  223.2700 N   0  0  0  0  0  0  0  0  0  0  0  0
  139.9620   70.7380  224.5750 C   0  0  0  0  0  0  0  0  0  0  0  0
  140.6240   71.4970  225.5190 C   0  0  0  0  0  0  0  0  0  0  0  0
  140.9130   70.9600  226.7550 C   0  0  0  0  0  0  0  0  0  0  0  0
  140.5490   69.6680  227.0650 C   0  0  0  0  0  0  0  0  0  0  0  0
  139.8850   68.9020  226.1260 C   0  0  0  0  0  0  0  0  0  0  0  0
  139.5960   69.4410  224.8870 C   0  0  0  0  0  0  0  0  0  0  0  0
  140.3450   72.4830  222.7830 C   0  0  0  0  0  0  0  0  0  0  0  0
  139.4440   73.4810  222.2120 C   0  0  0  0  0  0  0  0  0  0  0  0
  139.6120   73.9040  220.7970 C   0  0  0  0  0  0  0  0  0  0  0  0
  141.0590   73.9680  220.5380 N   0  0  0  0  0  0  0  0  0  0  0  0
  141.7120   75.1710  220.1700 C   0  0  0  0  0  0  0  0  0  0  0  0
  142.9580   75.1020  219.9810 O   0  0  0  0  0  0  0  0  0  0  0  0
  140.9290   76.4230  220.0250 C   0  0  0  0  0  0  0  0  0  0  0  0
  141.8170   77.6300  220.0100 C   0  0  1  0  0  0  0  0  0  0  0  0
  142.9330   77.4140  219.0870 N   0  0  0  0  0  0  0  0  0  0  0  0
  141.0740   78.8700  219.6550 C   0  0  0  0  0  0  0  0  0  0  0  0
  139.9330   79.0770  220.6210 C   0  0  0  0  0  0  0  0  0  0  0  0
  140.7130   79.3520  221.8820 C   0  0  0  0  0  0  0  0  0  0  0  0
  140.4310   79.0930  223.2130 C   0  0  0  0  0  0  0  0  0  0  0  0
  141.3290   79.4550  224.2180 C   0  0  0  0  0  0  0  0  0  0  0  0
  142.5160   80.0820  223.8380 C   0  0  0  0  0  0  0  0  0  0  0  0
  142.8050   80.3410  222.5140 C   0  0  0  0  0  0  0  0  0  0  0  0
  141.9110   79.9810  221.5150 C   0  0  0  0  0  0  0  0  0  0  0  0
  141.9220   80.1110  220.0260 C   0  0  0  0  0  0  0  0  0  0  0  0
  141.7440   72.7030  220.6820 C   0  0  0  0  0  0  0  0  0  0  0  0
  141.4920   72.0300  221.9790 C   0  0  0  0  0  0  0  0  0  0  0  0
  137.3242   70.8852  224.6634 H   0  0  0  0  0  0  0  0  0  0  0  0
  135.7004   71.2415  223.9829 H   0  0  0  0  0  0  0  0  0  0  0  0
  136.3243   69.5571  223.9829 H   0  0  0  0  0  0  0  0  0  0  0  0
  136.7554   70.1785  221.7698 H   0  0  0  0  0  0  0  0  0  0  0  0
  137.0711   71.8997  222.2126 H   0  0  0  0  0  0  0  0  0  0  0  0
  140.9207   72.5300  225.2849 H   0  0  0  0  0  0  0  0  0  0  0  0
  141.4406   71.5703  227.5028 H   0  0  0  0  0  0  0  0  0  0  0  0
  140.7855   69.2487  228.0541 H   0  0  0  0  0  0  0  0  0  0  0  0
  139.5884   67.8697  226.3634 H   0  0  0  0  0  0  0  0  0  0  0  0
  139.0681   68.8310  224.1392 H   0  0  0  0  0  0  0  0  0  0  0  0
  140.7692   73.0794  223.6042 H   0  0  0  0  0  0  0  0  0  0  0  0
  138.4240   73.0800  222.3056 H   0  0  0  0  0  0  0  0  0  0  0  0
  139.6799   74.3927  222.7805 H   0  0  0  0  0  0  0  0  0  0  0  0
  139.1396   73.1724  220.1250 H   0  0  0  0  0  0  0  0  0  0  0  0
  139.1370   74.8801  220.6192 H   0  0  0  0  0  0  0  0  0  0  0  0
  140.3641   76.3836  219.0820 H   0  0  0  0  0  0  0  0  0  0  0  0
  140.2499   76.5060  220.8864 H   0  0  0  0  0  0  0  0  0  0  0  0
  142.2078   77.7722  221.0284 H   0  0  0  0  0  0  0  0  0  0  0  0
  143.8040   77.1570  219.5770 H   0  0  0  0  0  0  0  0  0  0  0  0
  142.7010   76.6340  218.4500 H   0  0  0  0  0  0  0  0  0  0  0  0
  140.7982   78.7698  218.5949 H   0  0  0  0  0  0  0  0  0  0  0  0
  139.3039   79.9325  220.3341 H   0  0  0  0  0  0  0  0  0  0  0  0
  139.2208   78.2413  220.6867 H   0  0  0  0  0  0  0  0  0  0  0  0
  139.4873   78.5957  223.4813 H   0  0  0  0  0  0  0  0  0  0  0  0
  141.1079   79.2524  225.2763 H   0  0  0  0  0  0  0  0  0  0  0  0
  143.2390   80.3770  224.6128 H   0  0  0  0  0  0  0  0  0  0  0  0
  143.7505   80.8363  222.2482 H   0  0  0  0  0  0  0  0  0  0  0  0
  141.4487   81.0462  219.6922 H   0  0  0  0  0  0  0  0  0  0  0  0
  142.9208   80.1499  219.5668 H   0  0  0  0  0  0  0  0  0  0  0  0
  141.4114   72.0346  219.8741 H   0  0  0  0  0  0  0  0  0  0  0  0
  142.8223   72.9156  220.6357 H   0  0  0  0  0  0  0  0  0  0  0  0
  141.3417   70.9608  221.7686 H   0  0  0  0  0  0  0  0  0  0  0  0
  142.3712   72.2780  222.5918 H   0  0  0  0  0  0  0  0  0  0  0  0
  1  2  1  0
  2  3  1  0
  3  4  2  0
  3  5  1  0
  5  6  1  0
  6  7  2  0
  7  8  1  0
  8  9  2  0
  9 10  1  0
 10 11  2  0
  5 12  1  0
 12 13  1  0
 13 14  1  0
 14 15  1  0
 15 16  1  0
 16 17  2  0
 16 18  1  0
 18 19  1  0
 19 20  1  0
 19 21  1  0
 21 22  1  0
 22 23  1  0
 23 24  2  0
 24 25  1  0
 25 26  2  0
 26 27  1  0
 27 28  2  0
 28 29  1  0
 15 30  1  0
 30 31  1  0
 11  6  1  0
 31 12  1  0
 29 21  1  0
 28 23  1  0
  1 32  1  0
  1 33  1  0
  1 34  1  0
  2 35  1  0
  2 36  1  0
  7 37  1  0
  8 38  1  0
  9 39  1  0
 10 40  1  0
 11 41  1  0
 12 42  1  0
 13 43  1  0
 13 44  1  0
 14 45  1  0
 14 46  1  0
 18 47  1  0
 18 48  1  0
 19 49  1  1
 20 50  1  0
 20 51  1  0
 21 52  1  0
 22 53  1  0
 22 54  1  0
 24 55  1  0
 25 56  1  0
 26 57  1  0
 27 58  1  0
 29 59  1  0
 29 60  1  0
 30 61  1  0
 30 62  1  0
 31 63  1  0
 31 64  1  0
M  END
>  <smiles>  (61) 
CCC(=O)N(c1ccccc1)C1CCN(C(=O)CC(N)C2Cc3ccccc3C2)CC1

>  <score_type>  (61) 
oracle

>  <origin>  (61) 
autodockgpu

>  <m_score__min__energy>  (61) 
-8.0099999999999998

>  <m_primary>  (61) 
energy

>  <rmsd>  (61) 
6.464944834894542

>  <m_score__min__rmsd>  (61) 
6.464944834894542

>  <meeko>  (61) 
{"free_energy": -7.18, "intermolecular_energy": -9.56, "internal_energy": -2.45, "cluster_size": 23, "cluster_id": 3, "rank_in_cluster": 10}

>  <energy>  (61) 
-6.99

>  <cluster_rmsd>  (61) 
0.65

>  <cluster>  (61) 
2

$$$$

     RDKit          3D

 64 67  0  0  0  0  0  0  0  0999 V2000
  142.9050   80.5810  223.5810 C   0  0  0  0  0  0  0  0  0  0  0  0
  142.5600   79.7210  222.3590 C   0  0  0  0  0  0  0  0  0  0  0  0
  141.4710   78.7810  222.6740 C   0  0  0  0  0  0  0  0  0  0  0  0
  140.8750   78.9530  223.7850 O   0  0  0  0  0  0  0  0  0  0  0  0
  141.0220   77.7130  221.8770 N   0  0  0  0  0  0  0  0  0  0  0  0
  141.4730   77.7350  220.4980 C   0  0  0  0  0  0  0  0  0  0  0  0
  142.5190   76.9350  220.0850 C   0  0  0  0  0  0  0  0  0  0  0  0
  142.9330   76.9660  218.7710 C   0  0  0  0  0  0  0  0  0  0  0  0
  142.3150   77.7920  217.8570 C   0  0  0  0  0  0  0  0  0  0  0  0
  141.2660   78.5950  218.2620 C   0  0  0  0  0  0  0  0  0  0  0  0
  140.8520   78.5620  219.5790 C   0  0  0  0  0  0  0  0  0  0  0  0
  140.1800   76.6140  222.3620 C   0  0  0  0  0  0  0  0  0  0  0  0
  140.5820   75.3090  221.8440 C   0  0  0  0  0  0  0  0  0  0  0  0
  139.6210   74.5010  221.0490 C   0  0  0  0  0  0  0  0  0  0  0  0
  138.2960   74.6850  221.6620 N   0  0  0  0  0  0  0  0  0  0  0  0
  137.5590   73.6090  222.2150 C   0  0  0  0  0  0  0  0  0  0  0  0
  136.4380   73.8920  222.7190 O   0  0  0  0  0  0  0  0  0  0  0  0
  138.1170   72.2340  222.1780 C   0  0  0  0  0  0  0  0  0  0  0  0
  137.9550   71.5380  223.4960 C   0  0  1  0  0  0  0  0  0  0  0  0
  136.6270   71.8160  224.0450 N   0  0  0  0  0  0  0  0  0  0  0  0
  138.1830   70.0710  223.3880 C   0  0  0  0  0  0  0  0  0  0  0  0
  139.6450   69.7980  223.1310 C   0  0  0  0  0  0  0  0  0  0  0  0
  140.2260   70.2590  224.4440 C   0  0  0  0  0  0  0  0  0  0  0  0
  141.4500   70.8230  224.7610 C   0  0  0  0  0  0  0  0  0  0  0  0
  141.7610   71.1670  226.0760 C   0  0  0  0  0  0  0  0  0  0  0  0
  140.7990   70.9250  227.0580 C   0  0  0  0  0  0  0  0  0  0  0  0
  139.5770   70.3650  226.7500 C   0  0  0  0  0  0  0  0  0  0  0  0
  139.2690   70.0230  225.4410 C   0  0  0  0  0  0  0  0  0  0  0  0
  138.0660   69.4210  224.7880 C   0  0  0  0  0  0  0  0  0  0  0  0
  137.8170   76.0490  221.6410 C   0  0  0  0  0  0  0  0  0  0  0  0
  138.7760   77.0300  222.2040 C   0  0  0  0  0  0  0  0  0  0  0  0
  142.6798   80.0197  224.4998 H   0  0  0  0  0  0  0  0  0  0  0  0
  143.9749   80.8357  223.5598 H   0  0  0  0  0  0  0  0  0  0  0  0
  142.3078   81.5045  223.5598 H   0  0  0  0  0  0  0  0  0  0  0  0
  142.2439   80.3763  221.5340 H   0  0  0  0  0  0  0  0  0  0  0  0
  143.4512   79.1450  222.0692 H   0  0  0  0  0  0  0  0  0  0  0  0
  143.0222   76.2726  220.8047 H   0  0  0  0  0  0  0  0  0  0  0  0
  143.7660   76.3243  218.4480 H   0  0  0  0  0  0  0  0  0  0  0  0
  142.6549   77.8119  216.8110 H   0  0  0  0  0  0  0  0  0  0  0  0
  140.7641   79.2561  217.5402 H   0  0  0  0  0  0  0  0  0  0  0  0
  140.0174   79.2017  219.9017 H   0  0  0  0  0  0  0  0  0  0  0  0
  140.3211   76.4268  223.4367 H   0  0  0  0  0  0  0  0  0  0  0  0
  141.4614   75.4773  221.2049 H   0  0  0  0  0  0  0  0  0  0  0  0
  140.7284   74.7081  222.7537 H   0  0  0  0  0  0  0  0  0  0  0  0
  139.6065   74.8494  220.0057 H   0  0  0  0  0  0  0  0  0  0  0  0
  139.9086   73.4393  221.0456 H   0  0  0  0  0  0  0  0  0  0  0  0
  137.5927   71.6565  221.4023 H   0  0  0  0  0  0  0  0  0  0  0  0
  139.1920   72.3044  221.9554 H   0  0  0  0  0  0  0  0  0  0  0  0
  138.7215   71.9311  224.1800 H   0  0  0  0  0  0  0  0  0  0  0  0
  136.5890   72.7200  224.5410 H   0  0  0  0  0  0  0  0  0  0  0  0
  135.9430   71.8640  223.2720 H   0  0  0  0  0  0  0  0  0  0  0  0
  137.4815   69.7062  222.6232 H   0  0  0  0  0  0  0  0  0  0  0  0
  139.8364   68.7298  222.9514 H   0  0  0  0  0  0  0  0  0  0  0  0
  140.0608   70.2902  222.2395 H   0  0  0  0  0  0  0  0  0  0  0  0
  142.1873   71.0022  223.9646 H   0  0  0  0  0  0  0  0  0  0  0  0
  142.7329   71.6145  226.3312 H   0  0  0  0  0  0  0  0  0  0  0  0
  141.0210   71.1874  228.1029 H   0  0  0  0  0  0  0  0  0  0  0  0
  138.8409   70.1881  227.5480 H   0  0  0  0  0  0  0  0  0  0  0  0
  138.1320   68.3241  224.7379 H   0  0  0  0  0  0  0  0  0  0  0  0
  137.1131   69.5980  225.3082 H   0  0  0  0  0  0  0  0  0  0  0  0
  137.6091   76.3273  220.5973 H   0  0  0  0  0  0  0  0  0  0  0  0
  136.9175   76.0819  222.2733 H   0  0  0  0  0  0  0  0  0  0  0  0
  138.7682   77.9102  221.5443 H   0  0  0  0  0  0  0  0  0  0  0  0
  138.4230   77.1995  223.2319 H   0  0  0  0  0  0  0  0  0  0  0  0
  1  2  1  0
  2  3  1  0
  3  4  2  0
  3  5  1  0
  5  6  1  0
  6  7  2  0
  7  8  1  0
  8  9  2  0
  9 10  1  0
 10 11  2  0
  5 12  1  0
 12 13  1  0
 13 14  1  0
 14 15  1  0
 15 16  1  0
 16 17  2  0
 16 18  1  0
 18 19  1  0
 19 20  1  0
 19 21  1  0
 21 22  1  0
 22 23  1  0
 23 24  2  0
 24 25  1  0
 25 26  2  0
 26 27  1  0
 27 28  2  0
 28 29  1  0
 15 30  1  0
 30 31  1  0
 11  6  1  0
 31 12  1  0
 29 21  1  0
 28 23  1  0
  1 32  1  0
  1 33  1  0
  1 34  1  0
  2 35  1  0
  2 36  1  0
  7 37  1  0
  8 38  1  0
  9 39  1  0
 10 40  1  0
 11 41  1  0
 12 42  1  0
 13 43  1  0
 13 44  1  0
 14 45  1  0
 14 46  1  0
 18 47  1  0
 18 48  1  0
 19 49  1  1
 20 50  1  0
 20 51  1  0
 21 52  1  0
 22 53  1  0
 22 54  1  0
 24 55  1  0
 25 56  1  0
 26 57  1  0
 27 58  1  0
 29 59  1  0
 29 60  1  0
 30 61  1  0
 30 62  1  0
 31 63  1  0
 31 64  1  0
M  END
>  <smiles>  (62) 
CCC(=O)N(c1ccccc1)C1CCN(C(=O)CC(N)C2Cc3ccccc3C2)CC1

>  <score_type>  (62) 
oracle

>  <origin>  (62) 
autodockgpu

>  <m_score__min__energy>  (62) 
-8.0099999999999998

>  <m_primary>  (62) 
energy

>  <rmsd>  (62) 
6.991063671825093

>  <m_score__min__rmsd>  (62) 
6.991063671825093

>  <meeko>  (62) 
{"free_energy": -6.58, "intermolecular_energy": -8.97, "internal_energy": -2.5, "cluster_size": 1, "cluster_id": 8, "rank_in_cluster": 1}

>  <energy>  (62) 
-7.24

>  <cluster_rmsd>  (62) 
0.0

>  <cluster>  (62) 
3

$$$$

     RDKit          3D

 64 67  0  0  0  0  0  0  0  0999 V2000
  135.9900   69.5650  225.0170 C   0  0  0  0  0  0  0  0  0  0  0  0
  136.7720   68.8570  223.9030 C   0  0  0  0  0  0  0  0  0  0  0  0
  138.2050   68.7900  224.2350 C   0  0  0  0  0  0  0  0  0  0  0  0
  138.8120   67.7150  223.9250 O   0  0  0  0  0  0  0  0  0  0  0  0
  138.9740   69.7880  224.8610 N   0  0  0  0  0  0  0  0  0  0  0  0
  139.6830   69.3680  226.0550 C   0  0  0  0  0  0  0  0  0  0  0  0
  139.7040   70.1670  227.1800 C   0  0  0  0  0  0  0  0  0  0  0  0
  140.3800   69.7520  228.3070 C   0  0  0  0  0  0  0  0  0  0  0  0
  141.0410   68.5430  228.3270 C   0  0  0  0  0  0  0  0  0  0  0  0
  141.0230   67.7370  227.2050 C   0  0  0  0  0  0  0  0  0  0  0  0
  140.3450   68.1530  226.0760 C   0  0  0  0  0  0  0  0  0  0  0  0
  139.1050   71.1630  224.3670 C   0  0  0  0  0  0  0  0  0  0  0  0
  138.0520   71.5410  223.4290 C   0  0  0  0  0  0  0  0  0  0  0  0
  138.4070   71.9660  222.0500 C   0  0  0  0  0  0  0  0  0  0  0  0
  139.6390   72.7640  222.1520 N   0  0  0  0  0  0  0  0  0  0  0  0
  139.6960   74.1250  221.7590 C   0  0  0  0  0  0  0  0  0  0  0  0
  140.8070   74.7070  221.9000 O   0  0  0  0  0  0  0  0  0  0  0  0
  138.4860   74.7890  221.2150 C   0  0  0  0  0  0  0  0  0  0  0  0
  137.6430   75.3780  222.3050 C   0  0  1  0  0  0  0  0  0  0  0  0
  138.4410   76.3110  223.1020 N   0  0  0  0  0  0  0  0  0  0  0  0
  136.4250   76.0500  221.7720 C   0  0  0  0  0  0  0  0  0  0  0  0
  135.3350   75.0290  221.5490 C   0  0  0  0  0  0  0  0  0  0  0  0
  135.0570   74.6360  222.9780 C   0  0  0  0  0  0  0  0  0  0  0  0
  134.6330   73.4410  223.5370 C   0  0  0  0  0  0  0  0  0  0  0  0
  134.4400   73.3250  224.9130 C   0  0  0  0  0  0  0  0  0  0  0  0
  134.6880   74.4470  225.7050 C   0  0  0  0  0  0  0  0  0  0  0  0
  135.1130   75.6390  225.1550 C   0  0  0  0  0  0  0  0  0  0  0  0
  135.3040   75.7540  223.7850 C   0  0  0  0  0  0  0  0  0  0  0  0
  135.7490   76.8710  222.8970 C   0  0  0  0  0  0  0  0  0  0  0  0
  140.7750   72.0390  222.6740 C   0  0  0  0  0  0  0  0  0  0  0  0
  140.5080   71.3550  223.9620 C   0  0  0  0  0  0  0  0  0  0  0  0
  136.3614   69.2288  225.9963 H   0  0  0  0  0  0  0  0  0  0  0  0
  136.1268   70.6527  224.9267 H   0  0  0  0  0  0  0  0  0  0  0  0
  134.9212   69.3211  224.9267 H   0  0  0  0  0  0  0  0  0  0  0  0
  136.3816   67.8359  223.7805 H   0  0  0  0  0  0  0  0  0  0  0  0
  136.6514   69.4262  222.9694 H   0  0  0  0  0  0  0  0  0  0  0  0
  139.1813   71.1349  227.1772 H   0  0  0  0  0  0  0  0  0  0  0  0
  140.3921   70.3931  229.2008 H   0  0  0  0  0  0  0  0  0  0  0  0
  141.5796   68.2216  229.2307 H   0  0  0  0  0  0  0  0  0  0  0  0
  141.5458   66.7692  227.2109 H   0  0  0  0  0  0  0  0  0  0  0  0
  140.3311   67.5109  225.1829 H   0  0  0  0  0  0  0  0  0  0  0  0
  138.9124   71.9064  225.1546 H   0  0  0  0  0  0  0  0  0  0  0  0
  137.3850   70.6717  223.3323 H   0  0  0  0  0  0  0  0  0  0  0  0
  137.6292   72.4532  223.8753 H   0  0  0  0  0  0  0  0  0  0  0  0
  138.5789   71.0844  221.4150 H   0  0  0  0  0  0  0  0  0  0  0  0
  137.5942   72.5531  221.5976 H   0  0  0  0  0  0  0  0  0  0  0  0
  138.7967   75.5921  220.5305 H   0  0  0  0  0  0  0  0  0  0  0  0
  137.8866   74.0328  220.6869 H   0  0  0  0  0  0  0  0  0  0  0  0
  137.2989   74.5531  222.9462 H   0  0  0  0  0  0  0  0  0  0  0  0
  138.3720   76.1210  224.1130 H   0  0  0  0  0  0  0  0  0  0  0  0
  139.4370   76.2140  222.8420 H   0  0  0  0  0  0  0  0  0  0  0  0
  136.7477   76.6151  220.8851 H   0  0  0  0  0  0  0  0  0  0  0  0
  134.4512   75.4725  221.0671 H   0  0  0  0  0  0  0  0  0  0  0  0
  135.6052   74.1975  220.8814 H   0  0  0  0  0  0  0  0  0  0  0  0
  134.4464   72.5733  222.8872 H   0  0  0  0  0  0  0  0  0  0  0  0
  134.1027   72.3784  225.3604 H   0  0  0  0  0  0  0  0  0  0  0  0
  134.5413   74.3795  226.7931 H   0  0  0  0  0  0  0  0  0  0  0  0
  135.3018   76.5045  225.8071 H   0  0  0  0  0  0  0  0  0  0  0  0
  134.8992   77.4598  222.5212 H   0  0  0  0  0  0  0  0  0  0  0  0
  136.3913   77.6236  223.3777 H   0  0  0  0  0  0  0  0  0  0  0  0
  141.0726   71.2813  221.9341 H   0  0  0  0  0  0  0  0  0  0  0  0
  141.5677   72.7780  222.8621 H   0  0  0  0  0  0  0  0  0  0  0  0
  140.9709   70.3588  223.9050 H   0  0  0  0  0  0  0  0  0  0  0  0
  140.9226   72.0325  224.7230 H   0  0  0  0  0  0  0  0  0  0  0  0
  1  2  1  0
  2  3  1  0
  3  4  2  0
  3  5  1  0
  5  6  1  0
  6  7  2  0
  7  8  1  0
  8  9  2  0
  9 10  1  0
 10 11  2  0
  5 12  1  0
 12 13  1  0
 13 14  1  0
 14 15  1  0
 15 16  1  0
 16 17  2  0
 16 18  1  0
 18 19  1  0
 19 20  1  0
 19 21  1  0
 21 22  1  0
 22 23  1  0
 23 24  2  0
 24 25  1  0
 25 26  2  0
 26 27  1  0
 27 28  2  0
 28 29  1  0
 15 30  1  0
 30 31  1  0
 11  6  1  0
 31 12  1  0
 29 21  1  0
 28 23  1  0
  1 32  1  0
  1 33  1  0
  1 34  1  0
  2 35  1  0
  2 36  1  0
  7 37  1  0
  8 38  1  0
  9 39  1  0
 10 40  1  0
 11 41  1  0
 12 42  1  0
 13 43  1  0
 13 44  1  0
 14 45  1  0
 14 46  1  0
 18 47  1  0
 18 48  1  0
 19 49  1  1
 20 50  1  0
 20 51  1  0
 21 52  1  0
 22 53  1  0
 22 54  1  0
 24 55  1  0
 25 56  1  0
 26 57  1  0
 27 58  1  0
 29 59  1  0
 29 60  1  0
 30 61  1  0
 30 62  1  0
 31 63  1  0
 31 64  1  0
M  END
>  <smiles>  (63) 
CCC(=O)N(c1ccccc1)C1CCN(C(=O)CC(N)C2Cc3ccccc3C2)CC1

>  <score_type>  (63) 
oracle

>  <origin>  (63) 
autodockgpu

>  <m_score__min__energy>  (63) 
-8.0099999999999998

>  <m_primary>  (63) 
energy

>  <rmsd>  (63) 
7.734262588161659

>  <m_score__min__rmsd>  (63) 
7.734262588161659

>  <meeko>  (63) 
{"free_energy": -6.88, "intermolecular_energy": -9.27, "internal_energy": -2.37, "cluster_size": 2, "cluster_id": 5, "rank_in_cluster": 1}

>  <energy>  (63) 
-7.21

>  <cluster_rmsd>  (63) 
1.04

>  <cluster>  (63) 
3

$$$$

     RDKit          3D

 64 67  0  0  0  0  0  0  0  0999 V2000
  141.4900   76.7940  220.5620 C   0  0  0  0  0  0  0  0  0  0  0  0
  141.6120   76.5260  219.0560 C   0  0  0  0  0  0  0  0  0  0  0  0
  141.7930   75.0870  218.7960 C   0  0  0  0  0  0  0  0  0  0  0  0
  141.8390   74.7310  217.5760 O   0  0  0  0  0  0  0  0  0  0  0  0
  141.9160   74.0660  219.7560 N   0  0  0  0  0  0  0  0  0  0  0  0
  143.2740   73.6370  220.0340 C   0  0  0  0  0  0  0  0  0  0  0  0
  144.2170   74.5340  220.4940 C   0  0  0  0  0  0  0  0  0  0  0  0
  145.5010   74.1100  220.7550 C   0  0  0  0  0  0  0  0  0  0  0  0
  145.8620   72.7940  220.5620 C   0  0  0  0  0  0  0  0  0  0  0  0
  144.9240   71.8900  220.1020 C   0  0  0  0  0  0  0  0  0  0  0  0
  143.6370   72.3160  219.8410 C   0  0  0  0  0  0  0  0  0  0  0  0
  140.7880   73.4630  220.4740 C   0  0  0  0  0  0  0  0  0  0  0  0
  141.0120   73.3590  221.9130 C   0  0  0  0  0  0  0  0  0  0  0  0
  140.9810   72.0270  222.5720 C   0  0  0  0  0  0  0  0  0  0  0  0
  139.9100   71.2540  221.9250 N   0  0  0  0  0  0  0  0  0  0  0  0
  138.7810   70.7770  222.6370 C   0  0  0  0  0  0  0  0  0  0  0  0
  137.9250   70.1310  221.9710 O   0  0  0  0  0  0  0  0  0  0  0  0
  138.6560   71.0460  224.0910 C   0  0  0  0  0  0  0  0  0  0  0  0
  138.2390   69.8200  224.8450 C   0  0  1  0  0  0  0  0  0  0  0  0
  137.1270   69.1650  224.1530 N   0  0  0  0  0  0  0  0  0  0  0  0
  139.3680   68.8700  225.0420 C   0  0  0  0  0  0  0  0  0  0  0  0
  140.6800   69.6150  224.9800 C   0  0  0  0  0  0  0  0  0  0  0  0
  140.5570   70.4510  226.2290 C   0  0  0  0  0  0  0  0  0  0  0  0
  141.0430   71.7090  226.5450 C   0  0  0  0  0  0  0  0  0  0  0  0
  140.7950   72.2780  227.7940 C   0  0  0  0  0  0  0  0  0  0  0  0
  140.0420   71.5420  228.7090 C   0  0  0  0  0  0  0  0  0  0  0  0
  139.5530   70.2890  228.4010 C   0  0  0  0  0  0  0  0  0  0  0  0
  139.8020   69.7230  227.1580 C   0  0  0  0  0  0  0  0  0  0  0  0
  139.4220   68.4240  226.5230 C   0  0  0  0  0  0  0  0  0  0  0  0
  140.1170   71.0190  220.5130 C   0  0  0  0  0  0  0  0  0  0  0  0
  140.3910   72.2520  219.7360 C   0  0  0  0  0  0  0  0  0  0  0  0
  141.8825   75.9317  221.1209 H   0  0  0  0  0  0  0  0  0  0  0  0
  142.0675   77.6933  220.8223 H   0  0  0  0  0  0  0  0  0  0  0  0
  140.4326   76.9491  220.8223 H   0  0  0  0  0  0  0  0  0  0  0  0
  140.6971   76.8716  218.5525 H   0  0  0  0  0  0  0  0  0  0  0  0
  142.4880   77.0680  218.6702 H   0  0  0  0  0  0  0  0  0  0  0  0
  143.9428   75.5875  220.6521 H   0  0  0  0  0  0  0  0  0  0  0  0
  146.2472   74.8301  221.1218 H   0  0  0  0  0  0  0  0  0  0  0  0
  146.8904   72.4655  220.7729 H   0  0  0  0  0  0  0  0  0  0  0  0
  145.2009   70.8371  219.9447 H   0  0  0  0  0  0  0  0  0  0  0  0
  142.8905   71.5958  219.4749 H   0  0  0  0  0  0  0  0  0  0  0  0
  139.9033   74.1167  220.4808 H   0  0  0  0  0  0  0  0  0  0  0  0
  142.0042   73.7899  222.1126 H   0  0  0  0  0  0  0  0  0  0  0  0
  140.1424   73.8766  222.3441 H   0  0  0  0  0  0  0  0  0  0  0  0
  141.9471   71.5177  222.4408 H   0  0  0  0  0  0  0  0  0  0  0  0
  140.7969   72.1266  223.6519 H   0  0  0  0  0  0  0  0  0  0  0  0
  139.6281   71.3882  224.4756 H   0  0  0  0  0  0  0  0  0  0  0  0
  137.8840   71.8165  224.2332 H   0  0  0  0  0  0  0  0  0  0  0  0
  137.9100   70.1371  225.8456 H   0  0  0  0  0  0  0  0  0  0  0  0
  136.5170   69.8380  223.6660 H   0  0  0  0  0  0  0  0  0  0  0  0
  137.5050   68.5230  223.4360 H   0  0  0  0  0  0  0  0  0  0  0  0
  139.2302   68.0705  224.2992 H   0  0  0  0  0  0  0  0  0  0  0  0
  141.5412   68.9323  225.0274 H   0  0  0  0  0  0  0  0  0  0  0  0
  140.8501   70.1832  224.0536 H   0  0  0  0  0  0  0  0  0  0  0  0
  141.6319   72.2662  225.8016 H   0  0  0  0  0  0  0  0  0  0  0  0
  141.1811   73.2758  228.0495 H   0  0  0  0  0  0  0  0  0  0  0  0
  139.8330   71.9709  229.7001 H   0  0  0  0  0  0  0  0  0  0  0  0
  138.9620   69.7350  229.1452 H   0  0  0  0  0  0  0  0  0  0  0  0
  140.1829   67.6474  226.6902 H   0  0  0  0  0  0  0  0  0  0  0  0
  138.4987   67.9668  226.9083 H   0  0  0  0  0  0  0  0  0  0  0  0
  140.9729   70.3379  220.3964 H   0  0  0  0  0  0  0  0  0  0  0  0
  139.1832   70.5920  220.1185 H   0  0  0  0  0  0  0  0  0  0  0  0
  141.2015   72.0196  219.0296 H   0  0  0  0  0  0  0  0  0  0  0  0
  139.4222   72.5119  219.2845 H   0  0  0  0  0  0  0  0  0  0  0  0
  1  2  1  0
  2  3  1  0
  3  4  2  0
  3  5  1  0
  5  6  1  0
  6  7  2  0
  7  8  1  0
  8  9  2  0
  9 10  1  0
 10 11  2  0
  5 12  1  0
 12 13  1  0
 13 14  1  0
 14 15  1  0
 15 16  1  0
 16 17  2  0
 16 18  1  0
 18 19  1  0
 19 20  1  0
 19 21  1  0
 21 22  1  0
 22 23  1  0
 23 24  2  0
 24 25  1  0
 25 26  2  0
 26 27  1  0
 27 28  2  0
 28 29  1  0
 15 30  1  0
 30 31  1  0
 11  6  1  0
 31 12  1  0
 29 21  1  0
 28 23  1  0
  1 32  1  0
  1 33  1  0
  1 34  1  0
  2 35  1  0
  2 36  1  0
  7 37  1  0
  8 38  1  0
  9 39  1  0
 10 40  1  0
 11 41  1  0
 12 42  1  0
 13 43  1  0
 13 44  1  0
 14 45  1  0
 14 46  1  0
 18 47  1  0
 18 48  1  0
 19 49  1  1
 20 50  1  0
 20 51  1  0
 21 52  1  0
 22 53  1  0
 22 54  1  0
 24 55  1  0
 25 56  1  0
 26 57  1  0
 27 58  1  0
 29 59  1  0
 29 60  1  0
 30 61  1  0
 30 62  1  0
 31 63  1  0
 31 64  1  0
M  END
>  <smiles>  (64) 
CCC(=O)N(c1ccccc1)C1CCN(C(=O)CC(N)C2Cc3ccccc3C2)CC1

>  <score_type>  (64) 
oracle

>  <origin>  (64) 
autodockgpu

>  <m_score__min__energy>  (64) 
-8.0099999999999998

>  <m_primary>  (64) 
energy

>  <rmsd>  (64) 
9.229683893079969

>  <m_score__min__rmsd>  (64) 
9.229683893079969

>  <meeko>  (64) 
{"free_energy": -6.91, "intermolecular_energy": -9.29, "internal_energy": -2.67, "cluster_size": 7, "cluster_id": 4, "rank_in_cluster": 4}

>  <energy>  (64) 
-7.21

>  <cluster_rmsd>  (64) 
1.05

>  <cluster>  (64) 
3

$$$$

     RDKit          3D

 64 67  0  0  0  0  0  0  0  0999 V2000
  143.4390   74.6960  219.8710 C   0  0  0  0  0  0  0  0  0  0  0  0
  142.3280   75.0710  218.8820 C   0  0  0  0  0  0  0  0  0  0  0  0
  141.0140   75.0580  219.5460 C   0  0  0  0  0  0  0  0  0  0  0  0
  140.0180   74.7160  218.8310 O   0  0  0  0  0  0  0  0  0  0  0  0
  140.7430   75.3880  220.8860 N   0  0  0  0  0  0  0  0  0  0  0  0
  140.9830   76.7730  221.2460 C   0  0  0  0  0  0  0  0  0  0  0  0
  141.0760   77.1520  222.5700 C   0  0  0  0  0  0  0  0  0  0  0  0
  141.3060   78.4710  222.8940 C   0  0  0  0  0  0  0  0  0  0  0  0
  141.4450   79.4240  221.9090 C   0  0  0  0  0  0  0  0  0  0  0  0
  141.3550   79.0530  220.5810 C   0  0  0  0  0  0  0  0  0  0  0  0
  141.1240   77.7300  220.2580 C   0  0  0  0  0  0  0  0  0  0  0  0
  140.2270   74.4430  221.8840 C   0  0  0  0  0  0  0  0  0  0  0  0
  141.0560   73.2500  222.0280 C   0  0  0  0  0  0  0  0  0  0  0  0
  140.4720   71.9080  221.7700 C   0  0  0  0  0  0  0  0  0  0  0  0
  139.0980   71.9310  222.2940 N   0  0  0  0  0  0  0  0  0  0  0  0
  138.6670   71.0690  223.3340 C   0  0  0  0  0  0  0  0  0  0  0  0
  137.4660   71.1870  223.7040 O   0  0  0  0  0  0  0  0  0  0  0  0
  139.6150   70.0930  223.9260 C   0  0  0  0  0  0  0  0  0  0  0  0
  138.9630   69.2710  224.9970 C   0  0  1  0  0  0  0  0  0  0  0  0
  137.8530   68.5040  224.4280 N   0  0  0  0  0  0  0  0  0  0  0  0
  139.9310   68.3690  225.6790 C   0  0  0  0  0  0  0  0  0  0  0  0
  141.2760   69.0470  225.7850 C   0  0  0  0  0  0  0  0  0  0  0  0
  140.9250   70.1580  226.7440 C   0  0  0  0  0  0  0  0  0  0  0  0
  141.4230   71.4430  226.8830 C   0  0  0  0  0  0  0  0  0  0  0  0
  140.9290   72.2980  227.8690 C   0  0  0  0  0  0  0  0  0  0  0  0
  139.9220   71.8160  228.7060 C   0  0  0  0  0  0  0  0  0  0  0  0
  139.4200   70.5380  228.5710 C   0  0  0  0  0  0  0  0  0  0  0  0
  139.9120   69.6880  227.5910 C   0  0  0  0  0  0  0  0  0  0  0  0
  139.5910   68.2850  227.1870 C   0  0  0  0  0  0  0  0  0  0  0  0
  138.2330   72.8960  221.6520 C   0  0  0  0  0  0  0  0  0  0  0  0
  138.7870   74.2710  221.6250 C   0  0  0  0  0  0  0  0  0  0  0  0
  143.0710   74.8202  220.9002 H   0  0  0  0  0  0  0  0  0  0  0  0
  143.7341   73.6485  219.7110 H   0  0  0  0  0  0  0  0  0  0  0  0
  144.3086   75.3504  219.7110 H   0  0  0  0  0  0  0  0  0  0  0  0
  142.5223   76.0785  218.4857 H   0  0  0  0  0  0  0  0  0  0  0  0
  142.3186   74.3347  218.0648 H   0  0  0  0  0  0  0  0  0  0  0  0
  140.9665   76.4010  223.3662 H   0  0  0  0  0  0  0  0  0  0  0  0
  141.3795   78.7666  223.9510 H   0  0  0  0  0  0  0  0  0  0  0  0
  141.6267   80.4749  222.1783 H   0  0  0  0  0  0  0  0  0  0  0  0
  141.4665   79.8058  219.7867 H   0  0  0  0  0  0  0  0  0  0  0  0
  141.0513   77.4339  219.2011 H   0  0  0  0  0  0  0  0  0  0  0  0
  140.3057   74.8358  222.9085 H   0  0  0  0  0  0  0  0  0  0  0  0
  141.9039   73.3663  221.3370 H   0  0  0  0  0  0  0  0  0  0  0  0
  141.2830   73.2262  223.1041 H   0  0  0  0  0  0  0  0  0  0  0  0
  140.4612   71.7017  220.6896 H   0  0  0  0  0  0  0  0  0  0  0  0
  141.0656   71.1205  222.2572 H   0  0  0  0  0  0  0  0  0  0  0  0
  139.9789   69.4228  223.1333 H   0  0  0  0  0  0  0  0  0  0  0  0
  140.4465   70.6524  224.3796 H   0  0  0  0  0  0  0  0  0  0  0  0
  138.5752   69.9604  225.7614 H   0  0  0  0  0  0  0  0  0  0  0  0
  137.0740   69.1080  224.1250 H   0  0  0  0  0  0  0  0  0  0  0  0
  138.1860   67.9940  223.5930 H   0  0  0  0  0  0  0  0  0  0  0  0
  139.9112   67.4200  225.1232 H   0  0  0  0  0  0  0  0  0  0  0  0
  142.0420   68.3750  226.1993 H   0  0  0  0  0  0  0  0  0  0  0  0
  141.7094   69.3756  224.8289 H   0  0  0  0  0  0  0  0  0  0  0  0
  142.2175   71.7938  226.2079 H   0  0  0  0  0  0  0  0  0  0  0  0
  141.3210   73.3195  227.9828 H   0  0  0  0  0  0  0  0  0  0  0  0
  139.5186   72.4708  229.4925 H   0  0  0  0  0  0  0  0  0  0  0  0
  138.6236   70.1903  229.2455 H   0  0  0  0  0  0  0  0  0  0  0  0
  140.2234   67.5525  227.7100 H   0  0  0  0  0  0  0  0  0  0  0  0
  138.5680   67.9536  227.4185 H   0  0  0  0  0  0  0  0  0  0  0  0
  138.0602   72.5713  220.6153 H   0  0  0  0  0  0  0  0  0  0  0  0
  137.3047   72.9360  222.2408 H   0  0  0  0  0  0  0  0  0  0  0  0
  138.5825   74.6862  220.6271 H   0  0  0  0  0  0  0  0  0  0  0  0
  138.2944   74.7816  222.4656 H   0  0  0  0  0  0  0  0  0  0  0  0
  1  2  1  0
  2  3  1  0
  3  4  2  0
  3  5  1  0
  5  6  1  0
  6  7  2  0
  7  8  1  0
  8  9  2  0
  9 10  1  0
 10 11  2  0
  5 12  1  0
 12 13  1  0
 13 14  1  0
 14 15  1  0
 15 16  1  0
 16 17  2  0
 16 18  1  0
 18 19  1  0
 19 20  1  0
 19 21  1  0
 21 22  1  0
 22 23  1  0
 23 24  2  0
 24 25  1  0
 25 26  2  0
 26 27  1  0
 27 28  2  0
 28 29  1  0
 15 30  1  0
 30 31  1  0
 11  6  1  0
 31 12  1  0
 29 21  1  0
 28 23  1  0
  1 32  1  0
  1 33  1  0
  1 34  1  0
  2 35  1  0
  2 36  1  0
  7 37  1  0
  8 38  1  0
  9 39  1  0
 10 40  1  0
 11 41  1  0
 12 42  1  0
 13 43  1  0
 13 44  1  0
 14 45  1  0
 14 46  1  0
 18 47  1  0
 18 48  1  0
 19 49  1  1
 20 50  1  0
 20 51  1  0
 21 52  1  0
 22 53  1  0
 22 54  1  0
 24 55  1  0
 25 56  1  0
 26 57  1  0
 27 58  1  0
 29 59  1  0
 29 60  1  0
 30 61  1  0
 30 62  1  0
 31 63  1  0
 31 64  1  0
M  END
>  <smiles>  (65) 
CCC(=O)N(c1ccccc1)C1CCN(C(=O)CC(N)C2Cc3ccccc3C2)CC1

>  <score_type>  (65) 
oracle

>  <origin>  (65) 
autodockgpu

>  <m_score__min__energy>  (65) 
-8.0099999999999998

>  <m_primary>  (65) 
energy

>  <rmsd>  (65) 
9.273497314418838

>  <m_score__min__rmsd>  (65) 
9.273497314418838

>  <meeko>  (65) 
{"free_energy": -7.39, "intermolecular_energy": -9.77, "internal_energy": -2.21, "cluster_size": 2, "cluster_id": 2, "rank_in_cluster": 1}

>  <energy>  (65) 
-7.2

>  <cluster_rmsd>  (65) 
1.05

>  <cluster>  (65) 
3

$$$$

     RDKit          3D

 64 67  0  0  0  0  0  0  0  0999 V2000
  136.9380   71.4670  223.4900 C   0  0  0  0  0  0  0  0  0  0  0  0
  137.4560   70.5220  222.3980 C   0  0  0  0  0  0  0  0  0  0  0  0
  138.9240   70.4090  222.4600 C   0  0  0  0  0  0  0  0  0  0  0  0
  139.4570   69.5140  221.7300 O   0  0  0  0  0  0  0  0  0  0  0  0
  139.7970   71.1840  223.2440 N   0  0  0  0  0  0  0  0  0  0  0  0
  140.0250   70.6920  224.5900 C   0  0  0  0  0  0  0  0  0  0  0  0
  139.5810   69.4410  224.9680 C   0  0  0  0  0  0  0  0  0  0  0  0
  139.8080   68.9880  226.2490 C   0  0  0  0  0  0  0  0  0  0  0  0
  140.4750   69.7720  227.1650 C   0  0  0  0  0  0  0  0  0  0  0  0
  140.9240   71.0240  226.7950 C   0  0  0  0  0  0  0  0  0  0  0  0
  140.6960   71.4780  225.5100 C   0  0  0  0  0  0  0  0  0  0  0  0
  140.4760   72.3970  222.7740 C   0  0  0  0  0  0  0  0  0  0  0  0
  139.5600   73.3960  222.2310 C   0  0  0  0  0  0  0  0  0  0  0  0
  139.7090   73.8480  220.8230 C   0  0  0  0  0  0  0  0  0  0  0  0
  141.1530   73.9310  220.5510 N   0  0  0  0  0  0  0  0  0  0  0  0
  141.7900   75.1480  220.2000 C   0  0  0  0  0  0  0  0  0  0  0  0
  143.0340   75.0950  219.9960 O   0  0  0  0  0  0  0  0  0  0  0  0
  140.9930   76.3950  220.0870 C   0  0  0  0  0  0  0  0  0  0  0  0
  141.8720   77.6070  220.0200 C   0  0  1  0  0  0  0  0  0  0  0  0
  142.9610   77.3790  219.0680 N   0  0  0  0  0  0  0  0  0  0  0  0
  141.1100   78.8350  219.6640 C   0  0  0  0  0  0  0  0  0  0  0  0
  139.9670   79.0260  220.6310 C   0  0  0  0  0  0  0  0  0  0  0  0
  140.7440   79.3150  221.8900 C   0  0  0  0  0  0  0  0  0  0  0  0
  140.4670   79.0550  223.2220 C   0  0  0  0  0  0  0  0  0  0  0  0
  141.3600   79.4310  224.2250 C   0  0  0  0  0  0  0  0  0  0  0  0
  142.5380   80.0760  223.8430 C   0  0  0  0  0  0  0  0  0  0  0  0
  142.8210   80.3360  222.5180 C   0  0  0  0  0  0  0  0  0  0  0  0
  141.9320   79.9620  221.5210 C   0  0  0  0  0  0  0  0  0  0  0  0
  141.9400   80.0890  220.0310 C   0  0  0  0  0  0  0  0  0  0  0  0
  141.8520   72.6710  220.6630 C   0  0  0  0  0  0  0  0  0  0  0  0
  141.6200   71.9710  221.9490 C   0  0  0  0  0  0  0  0  0  0  0  0
  137.1690   71.0455  224.4795 H   0  0  0  0  0  0  0  0  0  0  0  0
  137.4244   72.4482  223.3868 H   0  0  0  0  0  0  0  0  0  0  0  0
  135.8492   71.5848  223.3868 H   0  0  0  0  0  0  0  0  0  0  0  0
  137.0109   69.5263  222.5412 H   0  0  0  0  0  0  0  0  0  0  0  0
  137.1739   70.9286  221.4156 H   0  0  0  0  0  0  0  0  0  0  0  0
  139.0460   68.8059  224.2466 H   0  0  0  0  0  0  0  0  0  0  0  0
  139.4529   67.9895  226.5438 H   0  0  0  0  0  0  0  0  0  0  0  0
  140.6489   69.4021  228.1862 H   0  0  0  0  0  0  0  0  0  0  0  0
  141.4598   71.6561  227.5185 H   0  0  0  0  0  0  0  0  0  0  0  0
  141.0522   72.4761  225.2150 H   0  0  0  0  0  0  0  0  0  0  0  0
  140.9011   72.9820  223.6029 H   0  0  0  0  0  0  0  0  0  0  0  0
  138.5451   72.9828  222.3270 H   0  0  0  0  0  0  0  0  0  0  0  0
  139.7931   74.2990  222.8143 H   0  0  0  0  0  0  0  0  0  0  0  0
  139.2367   73.1250  220.1417 H   0  0  0  0  0  0  0  0  0  0  0  0
  139.2227   74.8226  220.6689 H   0  0  0  0  0  0  0  0  0  0  0  0
  140.3816   76.3464  219.1739 H   0  0  0  0  0  0  0  0  0  0  0  0
  140.3576   76.4796  220.9810 H   0  0  0  0  0  0  0  0  0  0  0  0
  142.2931   77.7724  221.0226 H   0  0  0  0  0  0  0  0  0  0  0  0
  143.8470   77.1340  219.5360 H   0  0  0  0  0  0  0  0  0  0  0  0
  142.7130   76.5860  218.4520 H   0  0  0  0  0  0  0  0  0  0  0  0
  140.8341   78.7291  218.6044 H   0  0  0  0  0  0  0  0  0  0  0  0
  139.3244   79.8712  220.3434 H   0  0  0  0  0  0  0  0  0  0  0  0
  139.2678   78.1796  220.6989 H   0  0  0  0  0  0  0  0  0  0  0  0
  139.5304   78.5453  223.4922 H   0  0  0  0  0  0  0  0  0  0  0  0
  141.1432   79.2259  225.2837 H   0  0  0  0  0  0  0  0  0  0  0  0
  143.2570   80.3839  224.6164 H   0  0  0  0  0  0  0  0  0  0  0  0
  143.7592   80.8440  222.2500 H   0  0  0  0  0  0  0  0  0  0  0  0
  141.4528   81.0164  219.6955 H   0  0  0  0  0  0  0  0  0  0  0  0
  142.9377   80.1417  219.5707 H   0  0  0  0  0  0  0  0  0  0  0  0
  141.5178   72.0150  219.8457 H   0  0  0  0  0  0  0  0  0  0  0  0
  142.9276   72.8951  220.6094 H   0  0  0  0  0  0  0  0  0  0  0  0
  141.4782   70.9046  221.7196 H   0  0  0  0  0  0  0  0  0  0  0  0
  142.5029   72.2164  222.5575 H   0  0  0  0  0  0  0  0  0  0  0  0
  1  2  1  0
  2  3  1  0
  3  4  2  0
  3  5  1  0
  5  6  1  0
  6  7  2  0
  7  8  1  0
  8  9  2  0
  9 10  1  0
 10 11  2  0
  5 12  1  0
 12 13  1  0
 13 14  1  0
 14 15  1  0
 15 16  1  0
 16 17  2  0
 16 18  1  0
 18 19  1  0
 19 20  1  0
 19 21  1  0
 21 22  1  0
 22 23  1  0
 23 24  2  0
 24 25  1  0
 25 26  2  0
 26 27  1  0
 27 28  2  0
 28 29  1  0
 15 30  1  0
 30 31  1  0
 11  6  1  0
 31 12  1  0
 29 21  1  0
 28 23  1  0
  1 32  1  0
  1 33  1  0
  1 34  1  0
  2 35  1  0
  2 36  1  0
  7 37  1  0
  8 38  1  0
  9 39  1  0
 10 40  1  0
 11 41  1  0
 12 42  1  0
 13 43  1  0
 13 44  1  0
 14 45  1  0
 14 46  1  0
 18 47  1  0
 18 48  1  0
 19 49  1  1
 20 50  1  0
 20 51  1  0
 21 52  1  0
 22 53  1  0
 22 54  1  0
 24 55  1  0
 25 56  1  0
 26 57  1  0
 27 58  1  0
 29 59  1  0
 29 60  1  0
 30 61  1  0
 30 62  1  0
 31 63  1  0
 31 64  1  0
M  END
>  <smiles>  (66) 
CCC(=O)N(c1ccccc1)C1CCN(C(=O)CC(N)C2Cc3ccccc3C2)CC1

>  <score_type>  (66) 
oracle

>  <origin>  (66) 
autodockgpu

>  <m_score__min__energy>  (66) 
-8.0099999999999998

>  <m_primary>  (66) 
energy

>  <rmsd>  (66) 
6.500281384852182

>  <m_score__min__rmsd>  (66) 
6.500281384852182

>  <meeko>  (66) 
{"free_energy": -7.17, "intermolecular_energy": -9.55, "internal_energy": -2.5, "cluster_size": 23, "cluster_id": 3, "rank_in_cluster": 13}

>  <energy>  (66) 
-7.2

>  <cluster_rmsd>  (66) 
0.82

>  <cluster>  (66) 
3

$$$$

     RDKit          3D

 64 67  0  0  0  0  0  0  0  0999 V2000
  142.1960   77.0970  220.0090 C   0  0  0  0  0  0  0  0  0  0  0  0
  142.7760   76.7120  218.6420 C   0  0  0  0  0  0  0  0  0  0  0  0
  142.5290   75.2890  218.3530 C   0  0  0  0  0  0  0  0  0  0  0  0
  142.3180   74.9830  217.1370 O   0  0  0  0  0  0  0  0  0  0  0  0
  142.4990   74.2330  219.2820 N   0  0  0  0  0  0  0  0  0  0  0  0
  143.7980   73.7470  219.7100 C   0  0  0  0  0  0  0  0  0  0  0  0
  144.6110   74.5220  220.5120 C   0  0  0  0  0  0  0  0  0  0  0  0
  145.8410   74.0450  220.9110 C   0  0  0  0  0  0  0  0  0  0  0  0
  146.2730   72.7970  220.5190 C   0  0  0  0  0  0  0  0  0  0  0  0
  145.4640   72.0140  219.7180 C   0  0  0  0  0  0  0  0  0  0  0  0
  144.2320   72.4930  219.3180 C   0  0  0  0  0  0  0  0  0  0  0  0
  141.2720   73.6470  219.8320 C   0  0  0  0  0  0  0  0  0  0  0  0
  141.1750   73.7720  221.2840 C   0  0  0  0  0  0  0  0  0  0  0  0
  141.0660   72.5520  222.1250 C   0  0  0  0  0  0  0  0  0  0  0  0
  140.2060   71.6050  221.3980 N   0  0  0  0  0  0  0  0  0  0  0  0
  138.9740   71.1430  221.9220 C   0  0  0  0  0  0  0  0  0  0  0  0
  138.3210   70.3380  221.2020 O   0  0  0  0  0  0  0  0  0  0  0  0
  138.5150   71.6080  223.2540 C   0  0  0  0  0  0  0  0  0  0  0  0
  138.4940   70.4900  224.2520 C   0  0  1  0  0  0  0  0  0  0  0  0
  137.3420   69.6210  224.0000 N   0  0  0  0  0  0  0  0  0  0  0  0
  139.7580   69.7030  224.2410 C   0  0  0  0  0  0  0  0  0  0  0  0
  140.9070   70.5760  224.6850 C   0  0  0  0  0  0  0  0  0  0  0  0
  140.5150   70.7990  226.1240 C   0  0  0  0  0  0  0  0  0  0  0  0
  140.7260   71.8680  226.9790 C   0  0  0  0  0  0  0  0  0  0  0  0
  140.2620   71.8350  228.2940 C   0  0  0  0  0  0  0  0  0  0  0  0
  139.5790   70.6940  228.7160 C   0  0  0  0  0  0  0  0  0  0  0  0
  139.3630   69.6260  227.8700 C   0  0  0  0  0  0  0  0  0  0  0  0
  139.8260   69.6600  226.5620 C   0  0  0  0  0  0  0  0  0  0  0  0
  139.7570   68.6990  225.4190 C   0  0  0  0  0  0  0  0  0  0  0  0
  140.7330   71.1870  220.1180 C   0  0  0  0  0  0  0  0  0  0  0  0
  141.1110   72.3130  219.2300 C   0  0  0  0  0  0  0  0  0  0  0  0
  142.8273   76.6779  220.8064 H   0  0  0  0  0  0  0  0  0  0  0  0
  142.1691   78.1929  220.1004 H   0  0  0  0  0  0  0  0  0  0  0  0
  141.1757   76.6963  220.1004 H   0  0  0  0  0  0  0  0  0  0  0  0
  142.3015   77.3263  217.8626 H   0  0  0  0  0  0  0  0  0  0  0  0
  143.8620   76.8862  218.6572 H   0  0  0  0  0  0  0  0  0  0  0  0
  144.2774   75.5200  220.8326 H   0  0  0  0  0  0  0  0  0  0  0  0
  146.4848   74.6677  221.5495 H   0  0  0  0  0  0  0  0  0  0  0  0
  147.2568   72.4258  220.8420 H   0  0  0  0  0  0  0  0  0  0  0  0
  145.7991   71.0154  219.4009 H   0  0  0  0  0  0  0  0  0  0  0  0
  143.5879   71.8700  218.6800 H   0  0  0  0  0  0  0  0  0  0  0  0
  140.3760   74.2178  219.5469 H   0  0  0  0  0  0  0  0  0  0  0  0
  142.0746   74.3097  221.6181 H   0  0  0  0  0  0  0  0  0  0  0  0
  140.2062   74.2713  221.4326 H   0  0  0  0  0  0  0  0  0  0  0  0
  142.0618   72.1126  222.2844 H   0  0  0  0  0  0  0  0  0  0  0  0
  140.6414   72.7912  223.1111 H   0  0  0  0  0  0  0  0  0  0  0  0
  139.1967   72.3935  223.6122 H   0  0  0  0  0  0  0  0  0  0  0  0
  137.4905   71.9946  223.1491 H   0  0  0  0  0  0  0  0  0  0  0  0
  138.4034   70.9354  225.2537 H   0  0  0  0  0  0  0  0  0  0  0  0
  136.4630   70.0220  224.3600 H   0  0  0  0  0  0  0  0  0  0  0  0
  137.2260   69.4990  222.9800 H   0  0  0  0  0  0  0  0  0  0  0  0
  139.8419   69.2688  223.2338 H   0  0  0  0  0  0  0  0  0  0  0  0
  141.8729   70.0566  224.5994 H   0  0  0  0  0  0  0  0  0  0  0  0
  141.0521   71.4922  224.0938 H   0  0  0  0  0  0  0  0  0  0  0  0
  141.2666   72.7547  226.6163 H   0  0  0  0  0  0  0  0  0  0  0  0
  140.4292   72.6814  228.9764 H   0  0  0  0  0  0  0  0  0  0  0  0
  139.2035   70.6448  229.7487 H   0  0  0  0  0  0  0  0  0  0  0  0
  138.8202   68.7414  228.2345 H   0  0  0  0  0  0  0  0  0  0  0  0
  140.6312   68.0319  225.3904 H   0  0  0  0  0  0  0  0  0  0  0  0
  138.9041   68.0047  225.4418 H   0  0  0  0  0  0  0  0  0  0  0  0
  141.6264   70.5702  220.2954 H   0  0  0  0  0  0  0  0  0  0  0  0
  139.9324   70.6313  219.6078 H   0  0  0  0  0  0  0  0  0  0  0  0
  142.0693   72.0496  218.7584 H   0  0  0  0  0  0  0  0  0  0  0  0
  140.2554   72.4223  218.5473 H   0  0  0  0  0  0  0  0  0  0  0  0
  1  2  1  0
  2  3  1  0
  3  4  2  0
  3  5  1  0
  5  6  1  0
  6  7  2  0
  7  8  1  0
  8  9  2  0
  9 10  1  0
 10 11  2  0
  5 12  1  0
 12 13  1  0
 13 14  1  0
 14 15  1  0
 15 16  1  0
 16 17  2  0
 16 18  1  0
 18 19  1  0
 19 20  1  0
 19 21  1  0
 21 22  1  0
 22 23  1  0
 23 24  2  0
 24 25  1  0
 25 26  2  0
 26 27  1  0
 27 28  2  0
 28 29  1  0
 15 30  1  0
 30 31  1  0
 11  6  1  0
 31 12  1  0
 29 21  1  0
 28 23  1  0
  1 32  1  0
  1 33  1  0
  1 34  1  0
  2 35  1  0
  2 36  1  0
  7 37  1  0
  8 38  1  0
  9 39  1  0
 10 40  1  0
 11 41  1  0
 12 42  1  0
 13 43  1  0
 13 44  1  0
 14 45  1  0
 14 46  1  0
 18 47  1  0
 18 48  1  0
 19 49  1  1
 20 50  1  0
 20 51  1  0
 21 52  1  0
 22 53  1  0
 22 54  1  0
 24 55  1  0
 25 56  1  0
 26 57  1  0
 27 58  1  0
 29 59  1  0
 29 60  1  0
 30 61  1  0
 30 62  1  0
 31 63  1  0
 31 64  1  0
M  END
>  <smiles>  (67) 
CCC(=O)N(c1ccccc1)C1CCN(C(=O)CC(N)C2Cc3ccccc3C2)CC1

>  <score_type>  (67) 
oracle

>  <origin>  (67) 
autodockgpu

>  <m_score__min__energy>  (67) 
-8.0099999999999998

>  <m_primary>  (67) 
energy

>  <rmsd>  (67) 
8.532388697196868

>  <m_score__min__rmsd>  (67) 
8.532388697196868

>  <meeko>  (67) 
{"free_energy": -6.87, "intermolecular_energy": -9.26, "internal_energy": -2.34, "cluster_size": 7, "cluster_id": 4, "rank_in_cluster": 7}

>  <energy>  (67) 
-7.2

>  <cluster_rmsd>  (67) 
1.06

>  <cluster>  (67) 
3

$$$$

     RDKit          3D

 64 67  0  0  0  0  0  0  0  0999 V2000
  136.7930   71.4980  223.5320 C   0  0  0  0  0  0  0  0  0  0  0  0
  137.2880   70.6000  222.3910 C   0  0  0  0  0  0  0  0  0  0  0  0
  138.7530   70.4500  222.4460 C   0  0  0  0  0  0  0  0  0  0  0  0
  139.2580   69.5370  221.7180 O   0  0  0  0  0  0  0  0  0  0  0  0
  139.6500   71.2070  223.2200 N   0  0  0  0  0  0  0  0  0  0  0  0
  139.8960   70.7010  224.5570 C   0  0  0  0  0  0  0  0  0  0  0  0
  139.4310   69.4580  224.9370 C   0  0  0  0  0  0  0  0  0  0  0  0
  139.6750   68.9920  226.2110 C   0  0  0  0  0  0  0  0  0  0  0  0
  140.3800   69.7530  227.1170 C   0  0  0  0  0  0  0  0  0  0  0  0
  140.8500   70.9980  226.7440 C   0  0  0  0  0  0  0  0  0  0  0  0
  140.6050   71.4650  225.4670 C   0  0  0  0  0  0  0  0  0  0  0  0
  140.3370   72.4140  222.7470 C   0  0  0  0  0  0  0  0  0  0  0  0
  139.4330   73.3960  222.1550 C   0  0  0  0  0  0  0  0  0  0  0  0
  139.6240   73.8210  220.7440 C   0  0  0  0  0  0  0  0  0  0  0  0
  141.0750   73.9080  220.5160 N   0  0  0  0  0  0  0  0  0  0  0  0
  141.7160   75.1210  220.1610 C   0  0  0  0  0  0  0  0  0  0  0  0
  142.9670   75.0720  219.9980 O   0  0  0  0  0  0  0  0  0  0  0  0
  140.9170   76.3610  219.9980 C   0  0  0  0  0  0  0  0  0  0  0  0
  141.7830   77.5840  220.0300 C   0  0  1  0  0  0  0  0  0  0  0  0
  142.9320   77.4020  219.1410 N   0  0  0  0  0  0  0  0  0  0  0  0
  141.0290   78.8160  219.6680 C   0  0  0  0  0  0  0  0  0  0  0  0
  139.9090   79.0380  220.6560 C   0  0  0  0  0  0  0  0  0  0  0  0
  140.7170   79.3380  221.8930 C   0  0  0  0  0  0  0  0  0  0  0  0
  140.4650   79.1050  223.2350 C   0  0  0  0  0  0  0  0  0  0  0  0
  141.3840   79.4870  224.2120 C   0  0  0  0  0  0  0  0  0  0  0  0
  142.5610   80.1090  223.7940 C   0  0  0  0  0  0  0  0  0  0  0  0
  142.8190   80.3430  222.4590 C   0  0  0  0  0  0  0  0  0  0  0  0
  141.9040   79.9630  221.4880 C   0  0  0  0  0  0  0  0  0  0  0  0
  141.8820   80.0640  219.9960 C   0  0  0  0  0  0  0  0  0  0  0  0
  141.7770   72.6550  220.6760 C   0  0  0  0  0  0  0  0  0  0  0  0
  141.5090   71.9790  221.9680 C   0  0  0  0  0  0  0  0  0  0  0  0
  137.0471   71.0371  224.4979 H   0  0  0  0  0  0  0  0  0  0  0  0
  137.2751   72.4840  223.4581 H   0  0  0  0  0  0  0  0  0  0  0  0
  135.7019   71.6168  223.4581 H   0  0  0  0  0  0  0  0  0  0  0  0
  136.8196   69.6089  222.4821 H   0  0  0  0  0  0  0  0  0  0  0  0
  137.0152   71.0636  221.4315 H   0  0  0  0  0  0  0  0  0  0  0  0
  138.8662   68.8399  224.2236 H   0  0  0  0  0  0  0  0  0  0  0  0
  139.3022   68.0005  226.5077 H   0  0  0  0  0  0  0  0  0  0  0  0
  140.5679   69.3720  228.1317 H   0  0  0  0  0  0  0  0  0  0  0  0
  141.4156   71.6132  227.4593 H   0  0  0  0  0  0  0  0  0  0  0  0
  140.9781   72.4563  225.1701 H   0  0  0  0  0  0  0  0  0  0  0  0
  140.7326   73.0181  223.5768 H   0  0  0  0  0  0  0  0  0  0  0  0
  138.4180   72.9782  222.2269 H   0  0  0  0  0  0  0  0  0  0  0  0
  139.6422   74.3119  222.7272 H   0  0  0  0  0  0  0  0  0  0  0  0
  139.1778   73.0817  220.0626 H   0  0  0  0  0  0  0  0  0  0  0  0
  139.1372   74.7892  220.5553 H   0  0  0  0  0  0  0  0  0  0  0  0
  140.3902   76.3219  219.0332 H   0  0  0  0  0  0  0  0  0  0  0  0
  140.2037   76.4228  220.8331 H   0  0  0  0  0  0  0  0  0  0  0  0
  142.1376   77.7177  221.0626 H   0  0  0  0  0  0  0  0  0  0  0  0
  143.7890   77.1460  219.6560 H   0  0  0  0  0  0  0  0  0  0  0  0
  142.7320   76.6320  218.4810 H   0  0  0  0  0  0  0  0  0  0  0  0
  140.7295   78.6961  218.6164 H   0  0  0  0  0  0  0  0  0  0  0  0
  139.2710   79.8865  220.3679 H   0  0  0  0  0  0  0  0  0  0  0  0
  139.2006   78.2021  220.7533 H   0  0  0  0  0  0  0  0  0  0  0  0
  139.5280   78.6124  223.5339 H   0  0  0  0  0  0  0  0  0  0  0  0
  141.1872   79.3037  225.2786 H   0  0  0  0  0  0  0  0  0  0  0  0
  143.3006   80.4201  224.5465 H   0  0  0  0  0  0  0  0  0  0  0  0
  143.7573   80.8346  222.1623 H   0  0  0  0  0  0  0  0  0  0  0  0
  141.3998   80.9919  219.6546 H   0  0  0  0  0  0  0  0  0  0  0  0
  142.8704   80.0953  219.5143 H   0  0  0  0  0  0  0  0  0  0  0  0
  141.4724   71.9806  219.8621 H   0  0  0  0  0  0  0  0  0  0  0  0
  142.8524   72.8853  220.6522 H   0  0  0  0  0  0  0  0  0  0  0  0
  141.3811   70.9073  221.7559 H   0  0  0  0  0  0  0  0  0  0  0  0
  142.3708   72.2418  222.5991 H   0  0  0  0  0  0  0  0  0  0  0  0
  1  2  1  0
  2  3  1  0
  3  4  2  0
  3  5  1  0
  5  6  1  0
  6  7  2  0
  7  8  1  0
  8  9  2  0
  9 10  1  0
 10 11  2  0
  5 12  1  0
 12 13  1  0
 13 14  1  0
 14 15  1  0
 15 16  1  0
 16 17  2  0
 16 18  1  0
 18 19  1  0
 19 20  1  0
 19 21  1  0
 21 22  1  0
 22 23  1  0
 23 24  2  0
 24 25  1  0
 25 26  2  0
 26 27  1  0
 27 28  2  0
 28 29  1  0
 15 30  1  0
 30 31  1  0
 11  6  1  0
 31 12  1  0
 29 21  1  0
 28 23  1  0
  1 32  1  0
  1 33  1  0
  1 34  1  0
  2 35  1  0
  2 36  1  0
  7 37  1  0
  8 38  1  0
  9 39  1  0
 10 40  1  0
 11 41  1  0
 12 42  1  0
 13 43  1  0
 13 44  1  0
 14 45  1  0
 14 46  1  0
 18 47  1  0
 18 48  1  0
 19 49  1  1
 20 50  1  0
 20 51  1  0
 21 52  1  0
 22 53  1  0
 22 54  1  0
 24 55  1  0
 25 56  1  0
 26 57  1  0
 27 58  1  0
 29 59  1  0
 29 60  1  0
 30 61  1  0
 30 62  1  0
 31 63  1  0
 31 64  1  0
M  END
>  <smiles>  (68) 
CCC(=O)N(c1ccccc1)C1CCN(C(=O)CC(N)C2Cc3ccccc3C2)CC1

>  <score_type>  (68) 
oracle

>  <origin>  (68) 
autodockgpu

>  <m_score__min__energy>  (68) 
-8.0099999999999998

>  <m_primary>  (68) 
energy

>  <rmsd>  (68) 
6.486680339899185

>  <m_score__min__rmsd>  (68) 
6.486680339899185

>  <meeko>  (68) 
{"free_energy": -7.2, "intermolecular_energy": -9.59, "internal_energy": -2.47, "cluster_size": 23, "cluster_id": 3, "rank_in_cluster": 4}

>  <energy>  (68) 
-7.2

>  <cluster_rmsd>  (68) 
1.04

>  <cluster>  (68) 
3

$$$$

     RDKit          3D

 64 67  0  0  0  0  0  0  0  0999 V2000
  138.9690   68.8940  222.0010 C   0  0  0  0  0  0  0  0  0  0  0  0
  137.7220   69.7750  222.1510 C   0  0  0  0  0  0  0  0  0  0  0  0
  137.8740   70.7040  223.2840 C   0  0  0  0  0  0  0  0  0  0  0  0
  136.8040   71.0810  223.8590 O   0  0  0  0  0  0  0  0  0  0  0  0
  139.0790   71.2210  223.7940 N   0  0  0  0  0  0  0  0  0  0  0  0
  139.5300   70.6290  225.0400 C   0  0  0  0  0  0  0  0  0  0  0  0
  139.1760   69.3370  225.3740 C   0  0  0  0  0  0  0  0  0  0  0  0
  139.6140   68.7890  226.5600 C   0  0  0  0  0  0  0  0  0  0  0  0
  140.4060   69.5160  227.4230 C   0  0  0  0  0  0  0  0  0  0  0  0
  140.7650   70.8090  227.0940 C   0  0  0  0  0  0  0  0  0  0  0  0
  140.3250   71.3580  225.9060 C   0  0  0  0  0  0  0  0  0  0  0  0
  139.8760   72.2650  223.1400 C   0  0  0  0  0  0  0  0  0  0  0  0
  139.0870   73.1280  222.2650 C   0  0  0  0  0  0  0  0  0  0  0  0
  139.4230   73.2210  220.8200 C   0  0  0  0  0  0  0  0  0  0  0  0
  140.8910   73.1970  220.7200 N   0  0  0  0  0  0  0  0  0  0  0  0
  141.6320   74.2740  220.1730 C   0  0  0  0  0  0  0  0  0  0  0  0
  142.8870   74.1400  220.1470 O   0  0  0  0  0  0  0  0  0  0  0  0
  140.9260   75.4780  219.6700 C   0  0  0  0  0  0  0  0  0  0  0  0
  141.4670   76.7330  220.2860 C   0  0  1  0  0  0  0  0  0  0  0  0
  142.9140   76.8050  220.0790 N   0  0  0  0  0  0  0  0  0  0  0  0
  140.7980   77.9530  219.7560 C   0  0  0  0  0  0  0  0  0  0  0  0
  139.6910   78.3760  220.6910 C   0  0  0  0  0  0  0  0  0  0  0  0
  140.5110   78.7830  221.8890 C   0  0  0  0  0  0  0  0  0  0  0  0
  140.2380   78.7450  223.2470 C   0  0  0  0  0  0  0  0  0  0  0  0
  141.1760   79.1920  224.1780 C   0  0  0  0  0  0  0  0  0  0  0  0
  142.3930   79.6750  223.6980 C   0  0  0  0  0  0  0  0  0  0  0  0
  142.6730   79.7140  222.3470 C   0  0  0  0  0  0  0  0  0  0  0  0
  141.7390   79.2700  221.4220 C   0  0  0  0  0  0  0  0  0  0  0  0
  141.7310   79.1760  219.9290 C   0  0  0  0  0  0  0  0  0  0  0  0
  141.4990   71.9820  221.2140 C   0  0  0  0  0  0  0  0  0  0  0  0
  141.0810   71.6210  222.5900 C   0  0  0  0  0  0  0  0  0  0  0  0
  139.3498   68.6249  222.9973 H   0  0  0  0  0  0  0  0  0  0  0  0
  138.7074   67.9791  221.4491 H   0  0  0  0  0  0  0  0  0  0  0  0
  139.7439   69.4462  221.4491 H   0  0  0  0  0  0  0  0  0  0  0  0
  137.5753   70.3534  221.2269 H   0  0  0  0  0  0  0  0  0  0  0  0
  136.8524   69.1280  222.3384 H   0  0  0  0  0  0  0  0  0  0  0  0
  138.5450   68.7457  224.6941 H   0  0  0  0  0  0  0  0  0  0  0  0
  139.3283   67.7594  226.8212 H   0  0  0  0  0  0  0  0  0  0  0  0
  140.7500   69.0695  228.3676 H   0  0  0  0  0  0  0  0  0  0  0  0
  141.3977   71.3976  227.7746 H   0  0  0  0  0  0  0  0  0  0  0  0
  140.6102   72.3878  225.6450 H   0  0  0  0  0  0  0  0  0  0  0  0
  140.2355   73.0208  223.8538 H   0  0  0  0  0  0  0  0  0  0  0  0
  138.0458   72.7788  222.3280 H   0  0  0  0  0  0  0  0  0  0  0  0
  139.3024   74.1386  222.6422 H   0  0  0  0  0  0  0  0  0  0  0  0
  138.9928   72.3673  220.2759 H   0  0  0  0  0  0  0  0  0  0  0  0
  139.0134   74.1417  220.3790 H   0  0  0  0  0  0  0  0  0  0  0  0
  141.0496   75.5342  218.5784 H   0  0  0  0  0  0  0  0  0  0  0  0
  139.8635   75.3921  219.9414 H   0  0  0  0  0  0  0  0  0  0  0  0
  141.2550   76.6957  221.3647 H   0  0  0  0  0  0  0  0  0  0  0  0
  143.3260   77.6620  220.4790 H   0  0  0  0  0  0  0  0  0  0  0  0
  143.3650   76.0020  220.5490 H   0  0  0  0  0  0  0  0  0  0  0  0
  140.4959   77.7151  218.7254 H   0  0  0  0  0  0  0  0  0  0  0  0
  139.1124   79.2190  220.2854 H   0  0  0  0  0  0  0  0  0  0  0  0
  138.9282   77.6082  220.8875 H   0  0  0  0  0  0  0  0  0  0  0  0
  139.2693   78.3574  223.5954 H   0  0  0  0  0  0  0  0  0  0  0  0
  140.9623   79.1643  225.2567 H   0  0  0  0  0  0  0  0  0  0  0  0
  143.1479   80.0335  224.4132 H   0  0  0  0  0  0  0  0  0  0  0  0
  143.6434   80.0998  222.0013 H   0  0  0  0  0  0  0  0  0  0  0  0
  141.3129   80.0804  219.4630 H   0  0  0  0  0  0  0  0  0  0  0  0
  142.7215   79.0798  219.4603 H   0  0  0  0  0  0  0  0  0  0  0  0
  141.2235   71.1574  220.5401 H   0  0  0  0  0  0  0  0  0  0  0  0
  142.5847   72.1560  221.2440 H   0  0  0  0  0  0  0  0  0  0  0  0
  140.9064   70.5350  222.6041 H   0  0  0  0  0  0  0  0  0  0  0  0
  141.9004   71.9824  223.2288 H   0  0  0  0  0  0  0  0  0  0  0  0
  1  2  1  0
  2  3  1  0
  3  4  2  0
  3  5  1  0
  5  6  1  0
  6  7  2  0
  7  8  1  0
  8  9  2  0
  9 10  1  0
 10 11  2  0
  5 12  1  0
 12 13  1  0
 13 14  1  0
 14 15  1  0
 15 16  1  0
 16 17  2  0
 16 18  1  0
 18 19  1  0
 19 20  1  0
 19 21  1  0
 21 22  1  0
 22 23  1  0
 23 24  2  0
 24 25  1  0
 25 26  2  0
 26 27  1  0
 27 28  2  0
 28 29  1  0
 15 30  1  0
 30 31  1  0
 11  6  1  0
 31 12  1  0
 29 21  1  0
 28 23  1  0
  1 32  1  0
  1 33  1  0
  1 34  1  0
  2 35  1  0
  2 36  1  0
  7 37  1  0
  8 38  1  0
  9 39  1  0
 10 40  1  0
 11 41  1  0
 12 42  1  0
 13 43  1  0
 13 44  1  0
 14 45  1  0
 14 46  1  0
 18 47  1  0
 18 48  1  0
 19 49  1  1
 20 50  1  0
 20 51  1  0
 21 52  1  0
 22 53  1  0
 22 54  1  0
 24 55  1  0
 25 56  1  0
 26 57  1  0
 27 58  1  0
 29 59  1  0
 29 60  1  0
 30 61  1  0
 30 62  1  0
 31 63  1  0
 31 64  1  0
M  END
>  <smiles>  (69) 
CCC(=O)N(c1ccccc1)C1CCN(C(=O)CC(N)C2Cc3ccccc3C2)CC1

>  <score_type>  (69) 
oracle

>  <origin>  (69) 
autodockgpu

>  <m_score__min__energy>  (69) 
-8.0099999999999998

>  <m_primary>  (69) 
energy

>  <rmsd>  (69) 
6.585336604203228

>  <m_score__min__rmsd>  (69) 
6.585336604203228

>  <meeko>  (69) 
{"free_energy": -7.24, "intermolecular_energy": -9.63, "internal_energy": -2.1, "cluster_size": 23, "cluster_id": 3, "rank_in_cluster": 1}

>  <energy>  (69) 
-7.18

>  <cluster_rmsd>  (69) 
1.06

>  <cluster>  (69) 
3

$$$$

     RDKit          3D

 64 67  0  0  0  0  0  0  0  0999 V2000
  142.5740   79.0030  218.2020 C   0  0  0  0  0  0  0  0  0  0  0  0
  141.3710   78.6810  219.0980 C   0  0  0  0  0  0  0  0  0  0  0  0
  141.7850   77.8640  220.2520 C   0  0  0  0  0  0  0  0  0  0  0  0
  142.7560   77.0650  220.0640 O   0  0  0  0  0  0  0  0  0  0  0  0
  141.2170   77.8730  221.5390 N   0  0  0  0  0  0  0  0  0  0  0  0
  141.4770   79.0660  222.3230 C   0  0  0  0  0  0  0  0  0  0  0  0
  142.2580   79.0060  223.4600 C   0  0  0  0  0  0  0  0  0  0  0  0
  142.4970   80.1490  224.1920 C   0  0  0  0  0  0  0  0  0  0  0  0
  141.9630   81.3580  223.8040 C   0  0  0  0  0  0  0  0  0  0  0  0
  141.1820   81.4270  222.6670 C   0  0  0  0  0  0  0  0  0  0  0  0
  140.9430   80.2810  221.9330 C   0  0  0  0  0  0  0  0  0  0  0  0
  140.3900   76.7930  222.0870 C   0  0  0  0  0  0  0  0  0  0  0  0
  140.4800   75.5540  221.3200 C   0  0  0  0  0  0  0  0  0  0  0  0
  139.2560   74.9690  220.7120 C   0  0  0  0  0  0  0  0  0  0  0  0
  138.1610   75.1750  221.6740 N   0  0  0  0  0  0  0  0  0  0  0  0
  137.4540   74.0970  222.2610 C   0  0  0  0  0  0  0  0  0  0  0  0
  136.5390   74.3990  223.0760 O   0  0  0  0  0  0  0  0  0  0  0  0
  137.8050   72.7000  221.9040 C   0  0  0  0  0  0  0  0  0  0  0  0
  137.8600   71.8180  223.1150 C   0  0  1  0  0  0  0  0  0  0  0  0
  136.6340   71.9740  223.9000 N   0  0  0  0  0  0  0  0  0  0  0  0
  138.0790   70.3890  222.7600 C   0  0  0  0  0  0  0  0  0  0  0  0
  139.5590   70.1110  222.6460 C   0  0  0  0  0  0  0  0  0  0  0  0
  139.9640   70.2960  224.0870 C   0  0  0  0  0  0  0  0  0  0  0  0
  141.1430   70.7420  224.6610 C   0  0  0  0  0  0  0  0  0  0  0  0
  141.2780   70.8220  226.0470 C   0  0  0  0  0  0  0  0  0  0  0  0
  140.1900   70.4390  226.8320 C   0  0  0  0  0  0  0  0  0  0  0  0
  139.0120   69.9950  226.2680 C   0  0  0  0  0  0  0  0  0  0  0  0
  138.8790   69.9160  224.8890 C   0  0  0  0  0  0  0  0  0  0  0  0
  137.7660   69.4940  223.9830 C   0  0  0  0  0  0  0  0  0  0  0  0
  137.8700   76.5630  221.9530 C   0  0  0  0  0  0  0  0  0  0  0  0
  139.0560   77.3530  222.3610 C   0  0  0  0  0  0  0  0  0  0  0  0
  143.4466   79.2366  218.8297 H   0  0  0  0  0  0  0  0  0  0  0  0
  142.8012   78.1340  217.5669 H   0  0  0  0  0  0  0  0  0  0  0  0
  142.3367   79.8693  217.5669 H   0  0  0  0  0  0  0  0  0  0  0  0
  140.9292   79.6208  219.4609 H   0  0  0  0  0  0  0  0  0  0  0  0
  140.6337   78.1147  218.5101 H   0  0  0  0  0  0  0  0  0  0  0  0
  142.6892   78.0464  223.7814 H   0  0  0  0  0  0  0  0  0  0  0  0
  143.1212   80.0952  225.0962 H   0  0  0  0  0  0  0  0  0  0  0  0
  142.1576   82.2640  224.3967 H   0  0  0  0  0  0  0  0  0  0  0  0
  140.7529   82.3883  222.3478 H   0  0  0  0  0  0  0  0  0  0  0  0
  140.3206   80.3355  221.0277 H   0  0  0  0  0  0  0  0  0  0  0  0
  140.7700   76.4297  223.0532 H   0  0  0  0  0  0  0  0  0  0  0  0
  141.1863   75.7396  220.4974 H   0  0  0  0  0  0  0  0  0  0  0  0
  140.7703   74.8083  222.0747 H   0  0  0  0  0  0  0  0  0  0  0  0
  139.0260   75.4752  219.7628 H   0  0  0  0  0  0  0  0  0  0  0  0
  139.3955   73.8993  220.4971 H   0  0  0  0  0  0  0  0  0  0  0  0
  137.0466   72.3074  221.2107 H   0  0  0  0  0  0  0  0  0  0  0  0
  138.8005   72.7043  221.4360 H   0  0  0  0  0  0  0  0  0  0  0  0
  138.7228   72.1326  223.7205 H   0  0  0  0  0  0  0  0  0  0  0  0
  136.7140   72.7190  224.6080 H   0  0  0  0  0  0  0  0  0  0  0  0
  135.8580   72.2360  223.2690 H   0  0  0  0  0  0  0  0  0  0  0  0
  137.4810   70.2017  221.8560 H   0  0  0  0  0  0  0  0  0  0  0  0
  139.7576   69.0883  222.2929 H   0  0  0  0  0  0  0  0  0  0  0  0
  140.0981   70.7435  221.9253 H   0  0  0  0  0  0  0  0  0  0  0  0
  141.9836   71.0369  224.0156 H   0  0  0  0  0  0  0  0  0  0  0  0
  142.2127   71.1758  226.5066 H   0  0  0  0  0  0  0  0  0  0  0  0
  140.2736   70.4924  227.9275 H   0  0  0  0  0  0  0  0  0  0  0  0
  138.1726   69.7017  226.9156 H   0  0  0  0  0  0  0  0  0  0  0  0
  137.8230   68.4241  223.7338 H   0  0  0  0  0  0  0  0  0  0  0  0
  136.7544   69.6077  224.3997 H   0  0  0  0  0  0  0  0  0  0  0  0
  137.4460   77.0176  221.0455 H   0  0  0  0  0  0  0  0  0  0  0  0
  137.1679   76.5791  222.7996 H   0  0  0  0  0  0  0  0  0  0  0  0
  138.9963   78.3223  221.8444 H   0  0  0  0  0  0  0  0  0  0  0  0
  138.9952   77.3908  223.4587 H   0  0  0  0  0  0  0  0  0  0  0  0
  1  2  1  0
  2  3  1  0
  3  4  2  0
  3  5  1  0
  5  6  1  0
  6  7  2  0
  7  8  1  0
  8  9  2  0
  9 10  1  0
 10 11  2  0
  5 12  1  0
 12 13  1  0
 13 14  1  0
 14 15  1  0
 15 16  1  0
 16 17  2  0
 16 18  1  0
 18 19  1  0
 19 20  1  0
 19 21  1  0
 21 22  1  0
 22 23  1  0
 23 24  2  0
 24 25  1  0
 25 26  2  0
 26 27  1  0
 27 28  2  0
 28 29  1  0
 15 30  1  0
 30 31  1  0
 11  6  1  0
 31 12  1  0
 29 21  1  0
 28 23  1  0
  1 32  1  0
  1 33  1  0
  1 34  1  0
  2 35  1  0
  2 36  1  0
  7 37  1  0
  8 38  1  0
  9 39  1  0
 10 40  1  0
 11 41  1  0
 12 42  1  0
 13 43  1  0
 13 44  1  0
 14 45  1  0
 14 46  1  0
 18 47  1  0
 18 48  1  0
 19 49  1  1
 20 50  1  0
 20 51  1  0
 21 52  1  0
 22 53  1  0
 22 54  1  0
 24 55  1  0
 25 56  1  0
 26 57  1  0
 27 58  1  0
 29 59  1  0
 29 60  1  0
 30 61  1  0
 30 62  1  0
 31 63  1  0
 31 64  1  0
M  END
>  <smiles>  (70) 
CCC(=O)N(c1ccccc1)C1CCN(C(=O)CC(N)C2Cc3ccccc3C2)CC1

>  <score_type>  (70) 
oracle

>  <origin>  (70) 
autodockgpu

>  <m_score__min__energy>  (70) 
-8.0099999999999998

>  <m_primary>  (70) 
energy

>  <rmsd>  (70) 
6.5391811928847465

>  <m_score__min__rmsd>  (70) 
6.5391811928847465

>  <meeko>  (70) 
{"free_energy": -6.78, "intermolecular_energy": -9.17, "internal_energy": -2.34, "cluster_size": 9, "cluster_id": 1, "rank_in_cluster": 9}

>  <energy>  (70) 
-7.18

>  <cluster_rmsd>  (70) 
1.08

>  <cluster>  (70) 
3

$$$$

     RDKit          3D

 64 67  0  0  0  0  0  0  0  0999 V2000
  143.3060   76.4310  217.4560 C   0  0  0  0  0  0  0  0  0  0  0  0
  142.0930   76.1600  218.3550 C   0  0  0  0  0  0  0  0  0  0  0  0
  141.7660   74.7240  218.3690 C   0  0  0  0  0  0  0  0  0  0  0  0
  141.2970   74.2360  217.2920 O   0  0  0  0  0  0  0  0  0  0  0  0
  141.9160   73.8360  219.4500 N   0  0  0  0  0  0  0  0  0  0  0  0
  143.2860   73.5060  219.7960 C   0  0  0  0  0  0  0  0  0  0  0  0
  143.8010   72.2550  219.5230 C   0  0  0  0  0  0  0  0  0  0  0  0
  145.1040   71.9590  219.8570 C   0  0  0  0  0  0  0  0  0  0  0  0
  145.9070   72.9000  220.4640 C   0  0  0  0  0  0  0  0  0  0  0  0
  145.4000   74.1550  220.7390 C   0  0  0  0  0  0  0  0  0  0  0  0
  144.0930   74.4510  220.4040 C   0  0  0  0  0  0  0  0  0  0  0  0
  140.8020   73.2760  220.2230 C   0  0  0  0  0  0  0  0  0  0  0  0
  141.0400   73.2850  221.6630 C   0  0  0  0  0  0  0  0  0  0  0  0
  141.0320   72.0070  222.4220 C   0  0  0  0  0  0  0  0  0  0  0  0
  139.9650   71.1740  221.8460 N   0  0  0  0  0  0  0  0  0  0  0  0
  138.8490   70.7390  222.6040 C   0  0  0  0  0  0  0  0  0  0  0  0
  137.9950   70.0350  221.9980 O   0  0  0  0  0  0  0  0  0  0  0  0
  138.7330   71.1170  224.0340 C   0  0  0  0  0  0  0  0  0  0  0  0
  138.2730   69.9630  224.8740 C   0  0  1  0  0  0  0  0  0  0  0  0
  137.1190   69.3190  224.2440 N   0  0  0  0  0  0  0  0  0  0  0  0
  139.3600   68.9750  225.1140 C   0  0  0  0  0  0  0  0  0  0  0  0
  140.7040   69.6470  224.9660 C   0  0  0  0  0  0  0  0  0  0  0  0
  140.6560   70.5770  226.1520 C   0  0  0  0  0  0  0  0  0  0  0  0
  141.2110   71.8280  226.3630 C   0  0  0  0  0  0  0  0  0  0  0  0
  141.0240   72.4990  227.5720 C   0  0  0  0  0  0  0  0  0  0  0  0
  140.2620   71.8700  228.5560 C   0  0  0  0  0  0  0  0  0  0  0  0
  139.7040   70.6240  228.3530 C   0  0  0  0  0  0  0  0  0  0  0  0
  139.8910   69.9570  227.1500 C   0  0  0  0  0  0  0  0  0  0  0  0
  139.4330   68.6360  226.6220 C   0  0  0  0  0  0  0  0  0  0  0  0
  140.1620   70.8350  220.4550 C   0  0  0  0  0  0  0  0  0  0  0  0
  140.4140   72.0080  219.5830 C   0  0  0  0  0  0  0  0  0  0  0  0
  144.1891   76.6283  218.0814 H   0  0  0  0  0  0  0  0  0  0  0  0
  143.4952   75.5530  216.8209 H   0  0  0  0  0  0  0  0  0  0  0  0
  143.1035   77.3061  216.8209 H   0  0  0  0  0  0  0  0  0  0  0  0
  142.3224   76.4881  219.3796 H   0  0  0  0  0  0  0  0  0  0  0  0
  141.2294   76.7156  217.9607 H   0  0  0  0  0  0  0  0  0  0  0  0
  143.1709   71.4944  219.0387 H   0  0  0  0  0  0  0  0  0  0  0  0
  145.5083   70.9600  219.6367 H   0  0  0  0  0  0  0  0  0  0  0  0
  146.9459   72.6531  220.7281 H   0  0  0  0  0  0  0  0  0  0  0  0
  146.0331   74.9140  221.2218 H   0  0  0  0  0  0  0  0  0  0  0  0
  143.6889   75.4503  220.6233 H   0  0  0  0  0  0  0  0  0  0  0  0
  139.9090   73.9174  220.1891 H   0  0  0  0  0  0  0  0  0  0  0  0
  142.0283   73.7419  221.8194 H   0  0  0  0  0  0  0  0  0  0  0  0
  140.1676   73.8234  222.0618 H   0  0  0  0  0  0  0  0  0  0  0  0
  142.0033   71.5008  222.3206 H   0  0  0  0  0  0  0  0  0  0  0  0
  140.8563   72.1864  223.4930 H   0  0  0  0  0  0  0  0  0  0  0  0
  139.7163   71.4523  224.3956 H   0  0  0  0  0  0  0  0  0  0  0  0
  137.9884   71.9223  224.1179 H   0  0  0  0  0  0  0  0  0  0  0  0
  137.9780   70.3591  225.8569 H   0  0  0  0  0  0  0  0  0  0  0  0
  136.5500   69.9820  223.6950 H   0  0  0  0  0  0  0  0  0  0  0  0
  137.4510   68.5910  223.5900 H   0  0  0  0  0  0  0  0  0  0  0  0
  139.1638   68.1314  224.4359 H   0  0  0  0  0  0  0  0  0  0  0  0
  141.5323   68.9273  225.0434 H   0  0  0  0  0  0  0  0  0  0  0  0
  140.8756   70.1371  223.9963 H   0  0  0  0  0  0  0  0  0  0  0  0
  141.8069   72.2988  225.5673 H   0  0  0  0  0  0  0  0  0  0  0  0
  141.4637   73.4926  227.7435 H   0  0  0  0  0  0  0  0  0  0  0  0
  140.1016   72.3794  229.5177 H   0  0  0  0  0  0  0  0  0  0  0  0
  139.1071   70.1564  229.1499 H   0  0  0  0  0  0  0  0  0  0  0  0
  140.1605   67.8371  226.8282 H   0  0  0  0  0  0  0  0  0  0  0  0
  138.4998   68.2542  227.0617 H   0  0  0  0  0  0  0  0  0  0  0  0
  141.0251   70.1569  220.3822 H   0  0  0  0  0  0  0  0  0  0  0  0
  139.2296   70.3689  220.1036 H   0  0  0  0  0  0  0  0  0  0  0  0
  141.2214   71.7318  218.8888 H   0  0  0  0  0  0  0  0  0  0  0  0
  139.4385   72.2211  219.1215 H   0  0  0  0  0  0  0  0  0  0  0  0
  1  2  1  0
  2  3  1  0
  3  4  2  0
  3  5  1  0
  5  6  1  0
  6  7  2  0
  7  8  1  0
  8  9  2  0
  9 10  1  0
 10 11  2  0
  5 12  1  0
 12 13  1  0
 13 14  1  0
 14 15  1  0
 15 16  1  0
 16 17  2  0
 16 18  1  0
 18 19  1  0
 19 20  1  0
 19 21  1  0
 21 22  1  0
 22 23  1  0
 23 24  2  0
 24 25  1  0
 25 26  2  0
 26 27  1  0
 27 28  2  0
 28 29  1  0
 15 30  1  0
 30 31  1  0
 11  6  1  0
 31 12  1  0
 29 21  1  0
 28 23  1  0
  1 32  1  0
  1 33  1  0
  1 34  1  0
  2 35  1  0
  2 36  1  0
  7 37  1  0
  8 38  1  0
  9 39  1  0
 10 40  1  0
 11 41  1  0
 12 42  1  0
 13 43  1  0
 13 44  1  0
 14 45  1  0
 14 46  1  0
 18 47  1  0
 18 48  1  0
 19 49  1  1
 20 50  1  0
 20 51  1  0
 21 52  1  0
 22 53  1  0
 22 54  1  0
 24 55  1  0
 25 56  1  0
 26 57  1  0
 27 58  1  0
 29 59  1  0
 29 60  1  0
 30 61  1  0
 30 62  1  0
 31 63  1  0
 31 64  1  0
M  END
>  <smiles>  (71) 
CCC(=O)N(c1ccccc1)C1CCN(C(=O)CC(N)C2Cc3ccccc3C2)CC1

>  <score_type>  (71) 
oracle

>  <origin>  (71) 
autodockgpu

>  <m_score__min__energy>  (71) 
-8.0099999999999998

>  <m_primary>  (71) 
energy

>  <rmsd>  (71) 
9.2505748592007

>  <m_score__min__rmsd>  (71) 
9.2505748592007

>  <meeko>  (71) 
{"free_energy": -6.91, "intermolecular_energy": -9.3, "internal_energy": -2.6, "cluster_size": 7, "cluster_id": 4, "rank_in_cluster": 3}

>  <energy>  (71) 
-7.18

>  <cluster_rmsd>  (71) 
1.05

>  <cluster>  (71) 
3

$$$$

     RDKit          3D

 64 67  0  0  0  0  0  0  0  0999 V2000
  143.0350   75.2650  219.7550 C   0  0  0  0  0  0  0  0  0  0  0  0
  141.8010   75.3150  218.8440 C   0  0  0  0  0  0  0  0  0  0  0  0
  140.6070   75.7160  219.6070 C   0  0  0  0  0  0  0  0  0  0  0  0
  139.5440   75.9150  218.9360 O   0  0  0  0  0  0  0  0  0  0  0  0
  140.5180   75.9050  220.9980 N   0  0  0  0  0  0  0  0  0  0  0  0
  140.9580   77.2020  221.4770 C   0  0  0  0  0  0  0  0  0  0  0  0
  141.0160   77.4710  222.8300 C   0  0  0  0  0  0  0  0  0  0  0  0
  141.4380   78.7070  223.2690 C   0  0  0  0  0  0  0  0  0  0  0  0
  141.8050   79.6850  222.3710 C   0  0  0  0  0  0  0  0  0  0  0  0
  141.7510   79.4240  221.0160 C   0  0  0  0  0  0  0  0  0  0  0  0
  141.3280   78.1840  220.5770 C   0  0  0  0  0  0  0  0  0  0  0  0
  140.0000   74.9050  221.9380 C   0  0  0  0  0  0  0  0  0  0  0  0
  140.7880   73.6760  221.9640 C   0  0  0  0  0  0  0  0  0  0  0  0
  140.1470   72.3790  221.6260 C   0  0  0  0  0  0  0  0  0  0  0  0
  138.7910   72.4090  222.1970 N   0  0  0  0  0  0  0  0  0  0  0  0
  138.3630   71.4860  223.1830 C   0  0  0  0  0  0  0  0  0  0  0  0
  137.1790   71.6160  223.6020 O   0  0  0  0  0  0  0  0  0  0  0  0
  139.2920   70.4350  223.6670 C   0  0  0  0  0  0  0  0  0  0  0  0
  138.7060   69.6650  224.8110 C   0  0  1  0  0  0  0  0  0  0  0  0
  137.4700   69.0050  224.3860 N   0  0  0  0  0  0  0  0  0  0  0  0
  139.6650   68.6730  225.3710 C   0  0  0  0  0  0  0  0  0  0  0  0
  141.0580   69.2560  225.3760 C   0  0  0  0  0  0  0  0  0  0  0  0
  140.8740   70.3480  226.4000 C   0  0  0  0  0  0  0  0  0  0  0  0
  141.4700   71.5900  226.5370 C   0  0  0  0  0  0  0  0  0  0  0  0
  141.1280   72.4350  227.5920 C   0  0  0  0  0  0  0  0  0  0  0  0
  140.1680   71.9890  228.5010 C   0  0  0  0  0  0  0  0  0  0  0  0
  139.5680   70.7530  228.3700 C   0  0  0  0  0  0  0  0  0  0  0  0
  139.9100   69.9130  227.3200 C   0  0  0  0  0  0  0  0  0  0  0  0
  139.4570   68.5510  226.9000 C   0  0  0  0  0  0  0  0  0  0  0  0
  137.9440   73.4500  221.6600 C   0  0  0  0  0  0  0  0  0  0  0  0
  138.5470   74.8030  221.7170 C   0  0  0  0  0  0  0  0  0  0  0  0
  142.7147   75.2780  220.8073 H   0  0  0  0  0  0  0  0  0  0  0  0
  143.6010   74.3432  219.5554 H   0  0  0  0  0  0  0  0  0  0  0  0
  143.6738   76.1380  219.5554 H   0  0  0  0  0  0  0  0  0  0  0  0
  141.9761   76.0432  218.0383 H   0  0  0  0  0  0  0  0  0  0  0  0
  141.6316   74.3132  218.4225 H   0  0  0  0  0  0  0  0  0  0  0  0
  140.7254   76.6987  223.5574 H   0  0  0  0  0  0  0  0  0  0  0  0
  141.4823   78.9150  224.3482 H   0  0  0  0  0  0  0  0  0  0  0  0
  142.1394   80.6690  222.7315 H   0  0  0  0  0  0  0  0  0  0  0  0
  142.0428   80.1981  220.2910 H   0  0  0  0  0  0  0  0  0  0  0  0
  141.2851   77.9756  219.4978 H   0  0  0  0  0  0  0  0  0  0  0  0
  140.1267   75.2157  222.9856 H   0  0  0  0  0  0  0  0  0  0  0  0
  141.6178   73.8150  221.2555 H   0  0  0  0  0  0  0  0  0  0  0  0
  141.0470   73.5624  223.0270 H   0  0  0  0  0  0  0  0  0  0  0  0
  140.0947   72.2564  220.5341 H   0  0  0  0  0  0  0  0  0  0  0  0
  140.7261   71.5366  222.0323 H   0  0  0  0  0  0  0  0  0  0  0  0
  139.5062   69.7402  222.8415 H   0  0  0  0  0  0  0  0  0  0  0  0
  140.2127   70.9245  224.0175 H   0  0  0  0  0  0  0  0  0  0  0  0
  138.4794   70.3806  225.6151 H   0  0  0  0  0  0  0  0  0  0  0  0
  136.6690   69.6540  224.3590 H   0  0  0  0  0  0  0  0  0  0  0  0
  137.5950   68.6360  223.4280 H   0  0  0  0  0  0  0  0  0  0  0  0
  139.5284   67.7503  224.7880 H   0  0  0  0  0  0  0  0  0  0  0  0
  141.8093   68.5184  225.6947 H   0  0  0  0  0  0  0  0  0  0  0  0
  141.4251   69.5938  224.3956 H   0  0  0  0  0  0  0  0  0  0  0  0
  142.2232   71.9144  225.8039 H   0  0  0  0  0  0  0  0  0  0  0  0
  141.6002   73.4222  227.7042 H   0  0  0  0  0  0  0  0  0  0  0  0
  139.8826   72.6379  229.3421 H   0  0  0  0  0  0  0  0  0  0  0  0
  138.8134   70.4317  229.1031 H   0  0  0  0  0  0  0  0  0  0  0  0
  140.0814   67.7579  227.3371 H   0  0  0  0  0  0  0  0  0  0  0  0
  138.4384   68.2788  227.2138 H   0  0  0  0  0  0  0  0  0  0  0  0
  137.7264   73.2116  220.6084 H   0  0  0  0  0  0  0  0  0  0  0  0
  137.0376   73.4775  222.2826 H   0  0  0  0  0  0  0  0  0  0  0  0
  138.3261   75.2999  220.7608 H   0  0  0  0  0  0  0  0  0  0  0  0
  138.1007   75.2648  222.6101 H   0  0  0  0  0  0  0  0  0  0  0  0
  1  2  1  0
  2  3  1  0
  3  4  2  0
  3  5  1  0
  5  6  1  0
  6  7  2  0
  7  8  1  0
  8  9  2  0
  9 10  1  0
 10 11  2  0
  5 12  1  0
 12 13  1  0
 13 14  1  0
 14 15  1  0
 15 16  1  0
 16 17  2  0
 16 18  1  0
 18 19  1  0
 19 20  1  0
 19 21  1  0
 21 22  1  0
 22 23  1  0
 23 24  2  0
 24 25  1  0
 25 26  2  0
 26 27  1  0
 27 28  2  0
 28 29  1  0
 15 30  1  0
 30 31  1  0
 11  6  1  0
 31 12  1  0
 29 21  1  0
 28 23  1  0
  1 32  1  0
  1 33  1  0
  1 34  1  0
  2 35  1  0
  2 36  1  0
  7 37  1  0
  8 38  1  0
  9 39  1  0
 10 40  1  0
 11 41  1  0
 12 42  1  0
 13 43  1  0
 13 44  1  0
 14 45  1  0
 14 46  1  0
 18 47  1  0
 18 48  1  0
 19 49  1  1
 20 50  1  0
 20 51  1  0
 21 52  1  0
 22 53  1  0
 22 54  1  0
 24 55  1  0
 25 56  1  0
 26 57  1  0
 27 58  1  0
 29 59  1  0
 29 60  1  0
 30 61  1  0
 30 62  1  0
 31 63  1  0
 31 64  1  0
M  END
>  <smiles>  (72) 
CCC(=O)N(c1ccccc1)C1CCN(C(=O)CC(N)C2Cc3ccccc3C2)CC1

>  <score_type>  (72) 
oracle

>  <origin>  (72) 
autodockgpu

>  <m_score__min__energy>  (72) 
-8.0099999999999998

>  <m_primary>  (72) 
energy

>  <rmsd>  (72) 
8.880522959069339

>  <m_score__min__rmsd>  (72) 
8.880522959069339

>  <meeko>  (72) 
{"free_energy": -7.4, "intermolecular_energy": -9.78, "internal_energy": -2.26, "cluster_size": 9, "cluster_id": 1, "rank_in_cluster": 5}

>  <energy>  (72) 
-7.18

>  <cluster_rmsd>  (72) 
1.08

>  <cluster>  (72) 
3

$$$$

     RDKit          3D

 64 67  0  0  0  0  0  0  0  0999 V2000
  141.4430   81.1780  220.7840 C   0  0  0  0  0  0  0  0  0  0  0  0
  141.3820   82.0740  222.0280 C   0  0  0  0  0  0  0  0  0  0  0  0
  141.1360   81.2700  223.2380 C   0  0  0  0  0  0  0  0  0  0  0  0
  141.9540   81.4240  224.1990 O   0  0  0  0  0  0  0  0  0  0  0  0
  140.0940   80.3470  223.4400 N   0  0  0  0  0  0  0  0  0  0  0  0
  138.7920   80.9310  223.7060 C   0  0  0  0  0  0  0  0  0  0  0  0
  138.1410   81.6720  222.7400 C   0  0  0  0  0  0  0  0  0  0  0  0
  136.9050   82.2180  223.0090 C   0  0  0  0  0  0  0  0  0  0  0  0
  136.3050   82.0340  224.2350 C   0  0  0  0  0  0  0  0  0  0  0  0
  136.9490   81.2930  225.2070 C   0  0  0  0  0  0  0  0  0  0  0  0
  138.1880   80.7460  224.9370 C   0  0  0  0  0  0  0  0  0  0  0  0
  140.2510   78.8910  223.3690 C   0  0  0  0  0  0  0  0  0  0  0  0
  141.4350   78.4750  222.6230 C   0  0  0  0  0  0  0  0  0  0  0  0
  141.2870   77.6170  221.4190 C   0  0  0  0  0  0  0  0  0  0  0  0
  140.2110   76.6570  221.7070 N   0  0  0  0  0  0  0  0  0  0  0  0
  140.4290   75.2570  221.7310 C   0  0  0  0  0  0  0  0  0  0  0  0
  139.4290   74.5340  221.9970 O   0  0  0  0  0  0  0  0  0  0  0  0
  141.7810   74.7140  221.4510 C   0  0  0  0  0  0  0  0  0  0  0  0
  141.7900   73.8690  220.2130 C   0  0  1  0  0  0  0  0  0  0  0  0
  140.4410   73.3690  219.9420 N   0  0  0  0  0  0  0  0  0  0  0  0
  142.3250   74.6040  219.0340 C   0  0  0  0  0  0  0  0  0  0  0  0
  143.4520   75.5110  219.4660 C   0  0  0  0  0  0  0  0  0  0  0  0
  144.4730   74.4760  219.8660 C   0  0  0  0  0  0  0  0  0  0  0  0
  145.4730   74.4930  220.8240 C   0  0  0  0  0  0  0  0  0  0  0  0
  146.3090   73.3910  221.0050 C   0  0  0  0  0  0  0  0  0  0  0  0
  146.1050   72.2760  220.1910 C   0  0  0  0  0  0  0  0  0  0  0  0
  145.1110   72.2520  219.2350 C   0  0  0  0  0  0  0  0  0  0  0  0
  144.2790   73.3490  219.0560 C   0  0  0  0  0  0  0  0  0  0  0  0
  143.1340   73.6350  218.1380 C   0  0  0  0  0  0  0  0  0  0  0  0
  138.9220   77.2650  221.9500 C   0  0  0  0  0  0  0  0  0  0  0  0
  138.9460   78.3230  222.9880 C   0  0  0  0  0  0  0  0  0  0  0  0
  141.5147   80.1250  221.0937 H   0  0  0  0  0  0  0  0  0  0  0  0
  140.5329   81.3223  220.1832 H   0  0  0  0  0  0  0  0  0  0  0  0
  142.3251   81.4443  220.1832 H   0  0  0  0  0  0  0  0  0  0  0  0
  142.3384   82.6064  222.1366 H   0  0  0  0  0  0  0  0  0  0  0  0
  140.5571   82.7915  221.9067 H   0  0  0  0  0  0  0  0  0  0  0  0
  138.6087   81.8263  221.7564 H   0  0  0  0  0  0  0  0  0  0  0  0
  136.3913   82.8078  222.2355 H   0  0  0  0  0  0  0  0  0  0  0  0
  135.3181   82.4748  224.4392 H   0  0  0  0  0  0  0  0  0  0  0  0
  136.4781   81.1397  226.1892 H   0  0  0  0  0  0  0  0  0  0  0  0
  138.7012   80.1557  225.7104 H   0  0  0  0  0  0  0  0  0  0  0  0
  140.4977   78.4532  224.3475 H   0  0  0  0  0  0  0  0  0  0  0  0
  141.9456   79.3936  222.2983 H   0  0  0  0  0  0  0  0  0  0  0  0
  141.9685   77.8265  223.3335 H   0  0  0  0  0  0  0  0  0  0  0  0
  141.0213   78.2322  220.5467 H   0  0  0  0  0  0  0  0  0  0  0  0
  142.2281   77.0958  221.1894 H   0  0  0  0  0  0  0  0  0  0  0  0
  142.4814   75.5515  221.3168 H   0  0  0  0  0  0  0  0  0  0  0  0
  142.0815   74.0832  222.3006 H   0  0  0  0  0  0  0  0  0  0  0  0
  142.4646   73.0189  220.3924 H   0  0  0  0  0  0  0  0  0  0  0  0
  140.0640   72.8140  220.7250 H   0  0  0  0  0  0  0  0  0  0  0  0
  139.8040   74.1710  219.8030 H   0  0  0  0  0  0  0  0  0  0  0  0
  141.4625   75.0960  218.5607 H   0  0  0  0  0  0  0  0  0  0  0  0
  143.8104   76.1412  218.6387 H   0  0  0  0  0  0  0  0  0  0  0  0
  143.1916   76.2363  220.2509 H   0  0  0  0  0  0  0  0  0  0  0  0
  145.6098   75.3869  221.4502 H   0  0  0  0  0  0  0  0  0  0  0  0
  147.1039   73.4006  221.7653 H   0  0  0  0  0  0  0  0  0  0  0  0
  146.7523   71.3953  220.3147 H   0  0  0  0  0  0  0  0  0  0  0  0
  144.9764   71.3570  218.6097 H   0  0  0  0  0  0  0  0  0  0  0  0
  143.4653   74.1172  217.2065 H   0  0  0  0  0  0  0  0  0  0  0  0
  142.5824   72.7503  217.7874 H   0  0  0  0  0  0  0  0  0  0  0  0
  138.5655   77.7100  221.0093 H   0  0  0  0  0  0  0  0  0  0  0  0
  138.2569   76.4699  222.3181 H   0  0  0  0  0  0  0  0  0  0  0  0
  138.3224   79.1526  222.6235 H   0  0  0  0  0  0  0  0  0  0  0  0
  138.5892   77.8208  223.8993 H   0  0  0  0  0  0  0  0  0  0  0  0
  1  2  1  0
  2  3  1  0
  3  4  2  0
  3  5  1  0
  5  6  1  0
  6  7  2  0
  7  8  1  0
  8  9  2  0
  9 10  1  0
 10 11  2  0
  5 12  1  0
 12 13  1  0
 13 14  1  0
 14 15  1  0
 15 16  1  0
 16 17  2  0
 16 18  1  0
 18 19  1  0
 19 20  1  0
 19 21  1  0
 21 22  1  0
 22 23  1  0
 23 24  2  0
 24 25  1  0
 25 26  2  0
 26 27  1  0
 27 28  2  0
 28 29  1  0
 15 30  1  0
 30 31  1  0
 11  6  1  0
 31 12  1  0
 29 21  1  0
 28 23  1  0
  1 32  1  0
  1 33  1  0
  1 34  1  0
  2 35  1  0
  2 36  1  0
  7 37  1  0
  8 38  1  0
  9 39  1  0
 10 40  1  0
 11 41  1  0
 12 42  1  0
 13 43  1  0
 13 44  1  0
 14 45  1  0
 14 46  1  0
 18 47  1  0
 18 48  1  0
 19 49  1  1
 20 50  1  0
 20 51  1  0
 21 52  1  0
 22 53  1  0
 22 54  1  0
 24 55  1  0
 25 56  1  0
 26 57  1  0
 27 58  1  0
 29 59  1  0
 29 60  1  0
 30 61  1  0
 30 62  1  0
 31 63  1  0
 31 64  1  0
M  END
>  <smiles>  (73) 
CCC(=O)N(c1ccccc1)C1CCN(C(=O)CC(N)C2Cc3ccccc3C2)CC1

>  <score_type>  (73) 
oracle

>  <origin>  (73) 
autodockgpu

>  <m_score__min__energy>  (73) 
-8.0099999999999998

>  <m_primary>  (73) 
energy

>  <rmsd>  (73) 
3.8363923210765285

>  <m_score__min__rmsd>  (73) 
3.8363923210765285

>  <meeko>  (73) 
{"free_energy": -6.66, "intermolecular_energy": -9.05, "internal_energy": -2.57, "cluster_size": 3, "cluster_id": 6, "rank_in_cluster": 3}

>  <energy>  (73) 
-7.17

>  <cluster_rmsd>  (73) 
1.09

>  <cluster>  (73) 
3

$$$$

     RDKit          3D

 64 67  0  0  0  0  0  0  0  0999 V2000
  141.8450   76.9330  220.1450 C   0  0  0  0  0  0  0  0  0  0  0  0
  142.0790   76.3870  218.7310 C   0  0  0  0  0  0  0  0  0  0  0  0
  141.7460   74.9540  218.6640 C   0  0  0  0  0  0  0  0  0  0  0  0
  141.3080   74.5230  217.5500 O   0  0  0  0  0  0  0  0  0  0  0  0
  141.8590   74.0130  219.7030 N   0  0  0  0  0  0  0  0  0  0  0  0
  143.2090   73.5640  219.9890 C   0  0  0  0  0  0  0  0  0  0  0  0
  143.5740   72.2490  219.7820 C   0  0  0  0  0  0  0  0  0  0  0  0
  144.8610   71.8400  220.0560 C   0  0  0  0  0  0  0  0  0  0  0  0
  145.7950   72.7300  220.5380 C   0  0  0  0  0  0  0  0  0  0  0  0
  145.4390   74.0480  220.7470 C   0  0  0  0  0  0  0  0  0  0  0  0
  144.1490   74.4580  220.4710 C   0  0  0  0  0  0  0  0  0  0  0  0
  140.7300   73.5090  220.4920 C   0  0  0  0  0  0  0  0  0  0  0  0
  141.0760   73.2380  221.8840 C   0  0  0  0  0  0  0  0  0  0  0  0
  140.9110   71.8680  222.4350 C   0  0  0  0  0  0  0  0  0  0  0  0
  139.6770   71.3170  221.8510 N   0  0  0  0  0  0  0  0  0  0  0  0
  138.5660   70.9380  222.6440 C   0  0  0  0  0  0  0  0  0  0  0  0
  137.5610   70.4850  222.0280 O   0  0  0  0  0  0  0  0  0  0  0  0
  138.6260   71.0830  224.1190 C   0  0  0  0  0  0  0  0  0  0  0  0
  138.2330   69.8150  224.8140 C   0  0  1  0  0  0  0  0  0  0  0  0
  137.1360   69.1690  224.0890 N   0  0  0  0  0  0  0  0  0  0  0  0
  139.3810   68.8800  224.9700 C   0  0  0  0  0  0  0  0  0  0  0  0
  140.6790   69.6500  224.9060 C   0  0  0  0  0  0  0  0  0  0  0  0
  140.5610   70.4530  226.1770 C   0  0  0  0  0  0  0  0  0  0  0  0
  141.0310   71.7110  226.5170 C   0  0  0  0  0  0  0  0  0  0  0  0
  140.7920   72.2460  227.7830 C   0  0  0  0  0  0  0  0  0  0  0  0
  140.0680   71.4730  228.6920 C   0  0  0  0  0  0  0  0  0  0  0  0
  139.5950   70.2200  228.3600 C   0  0  0  0  0  0  0  0  0  0  0  0
  139.8340   69.6890  227.1000 C   0  0  0  0  0  0  0  0  0  0  0  0
  139.4670   68.3990  226.4390 C   0  0  0  0  0  0  0  0  0  0  0  0
  139.7070   71.1910  220.4110 C   0  0  0  0  0  0  0  0  0  0  0  0
  140.0850   72.4410  219.7080 C   0  0  0  0  0  0  0  0  0  0  0  0
  142.1657   76.1847  220.8847 H   0  0  0  0  0  0  0  0  0  0  0  0
  142.4263   77.8567  220.2822 H   0  0  0  0  0  0  0  0  0  0  0  0
  140.7752   77.1492  220.2822 H   0  0  0  0  0  0  0  0  0  0  0  0
  141.4446   76.9386  218.0215 H   0  0  0  0  0  0  0  0  0  0  0  0
  143.1407   76.5155  218.4738 H   0  0  0  0  0  0  0  0  0  0  0  0
  142.8375   71.5276  219.3983 H   0  0  0  0  0  0  0  0  0  0  0  0
  145.1456   70.7908  219.8879 H   0  0  0  0  0  0  0  0  0  0  0  0
  146.8192   72.3929  220.7554 H   0  0  0  0  0  0  0  0  0  0  0  0
  146.1780   74.7667  221.1308 H   0  0  0  0  0  0  0  0  0  0  0  0
  143.8655   75.5079  220.6364 H   0  0  0  0  0  0  0  0  0  0  0  0
  139.9587   74.2772  220.6498 H   0  0  0  0  0  0  0  0  0  0  0  0
  142.1363   73.5042  222.0058 H   0  0  0  0  0  0  0  0  0  0  0  0
  140.3397   73.8291  222.4484 H   0  0  0  0  0  0  0  0  0  0  0  0
  141.7725   71.2427  222.1578 H   0  0  0  0  0  0  0  0  0  0  0  0
  140.8506   71.8903  223.5331 H   0  0  0  0  0  0  0  0  0  0  0  0
  139.6536   71.3462  224.4104 H   0  0  0  0  0  0  0  0  0  0  0  0
  137.9193   71.8718  224.4164 H   0  0  0  0  0  0  0  0  0  0  0  0
  137.8954   70.0793  225.8270 H   0  0  0  0  0  0  0  0  0  0  0  0
  136.4280   69.8460  223.7660 H   0  0  0  0  0  0  0  0  0  0  0  0
  137.5150   68.7000  223.2500 H   0  0  0  0  0  0  0  0  0  0  0  0
  139.2448   68.0962  224.2103 H   0  0  0  0  0  0  0  0  0  0  0  0
  141.5527   68.9819  224.9233 H   0  0  0  0  0  0  0  0  0  0  0  0
  140.8244   70.2435  223.9913 H   0  0  0  0  0  0  0  0  0  0  0  0
  141.6000   72.2956  225.7792 H   0  0  0  0  0  0  0  0  0  0  0  0
  141.1623   73.2451  228.0561 H   0  0  0  0  0  0  0  0  0  0  0  0
  139.8696   71.8724  229.6976 H   0  0  0  0  0  0  0  0  0  0  0  0
  139.0247   69.6380  229.0989 H   0  0  0  0  0  0  0  0  0  0  0  0
  140.2442   67.6326  226.5750 H   0  0  0  0  0  0  0  0  0  0  0  0
  138.5583   67.9158  226.8274 H   0  0  0  0  0  0  0  0  0  0  0  0
  140.4355   70.4105  220.1464 H   0  0  0  0  0  0  0  0  0  0  0  0
  138.6852   70.9398  220.0903 H   0  0  0  0  0  0  0  0  0  0  0  0
  140.7782   72.1647  218.8998 H   0  0  0  0  0  0  0  0  0  0  0  0
  139.1267   72.8762  219.3881 H   0  0  0  0  0  0  0  0  0  0  0  0
  1  2  1  0
  2  3  1  0
  3  4  2  0
  3  5  1  0
  5  6  1  0
  6  7  2  0
  7  8  1  0
  8  9  2  0
  9 10  1  0
 10 11  2  0
  5 12  1  0
 12 13  1  0
 13 14  1  0
 14 15  1  0
 15 16  1  0
 16 17  2  0
 16 18  1  0
 18 19  1  0
 19 20  1  0
 19 21  1  0
 21 22  1  0
 22 23  1  0
 23 24  2  0
 24 25  1  0
 25 26  2  0
 26 27  1  0
 27 28  2  0
 28 29  1  0
 15 30  1  0
 30 31  1  0
 11  6  1  0
 31 12  1  0
 29 21  1  0
 28 23  1  0
  1 32  1  0
  1 33  1  0
  1 34  1  0
  2 35  1  0
  2 36  1  0
  7 37  1  0
  8 38  1  0
  9 39  1  0
 10 40  1  0
 11 41  1  0
 12 42  1  0
 13 43  1  0
 13 44  1  0
 14 45  1  0
 14 46  1  0
 18 47  1  0
 18 48  1  0
 19 49  1  1
 20 50  1  0
 20 51  1  0
 21 52  1  0
 22 53  1  0
 22 54  1  0
 24 55  1  0
 25 56  1  0
 26 57  1  0
 27 58  1  0
 29 59  1  0
 29 60  1  0
 30 61  1  0
 30 62  1  0
 31 63  1  0
 31 64  1  0
M  END
>  <smiles>  (74) 
CCC(=O)N(c1ccccc1)C1CCN(C(=O)CC(N)C2Cc3ccccc3C2)CC1

>  <score_type>  (74) 
oracle

>  <origin>  (74) 
autodockgpu

>  <m_score__min__energy>  (74) 
-8.0099999999999998

>  <m_primary>  (74) 
energy

>  <rmsd>  (74) 
9.201392601550635

>  <m_score__min__rmsd>  (74) 
9.201392601550635

>  <meeko>  (74) 
{"free_energy": -6.87, "intermolecular_energy": -9.26, "internal_energy": -2.65, "cluster_size": 7, "cluster_id": 4, "rank_in_cluster": 6}

>  <energy>  (74) 
-7.17

>  <cluster_rmsd>  (74) 
1.08

>  <cluster>  (74) 
3

$$$$

     RDKit          3D

 64 67  0  0  0  0  0  0  0  0999 V2000
  136.8630   71.4990  223.6020 C   0  0  0  0  0  0  0  0  0  0  0  0
  137.2950   70.4670  222.5520 C   0  0  0  0  0  0  0  0  0  0  0  0
  138.7640   70.4130  222.4490 C   0  0  0  0  0  0  0  0  0  0  0  0
  139.2450   69.5990  221.5980 O   0  0  0  0  0  0  0  0  0  0  0  0
  139.6890   71.1650  223.1950 N   0  0  0  0  0  0  0  0  0  0  0  0
  139.9720   70.6580  224.5250 C   0  0  0  0  0  0  0  0  0  0  0  0
  140.6420   71.4360  225.4480 C   0  0  0  0  0  0  0  0  0  0  0  0
  140.9010   70.9410  226.7070 C   0  0  0  0  0  0  0  0  0  0  0  0
  140.4980   69.6720  227.0610 C   0  0  0  0  0  0  0  0  0  0  0  0
  139.8260   68.8870  226.1440 C   0  0  0  0  0  0  0  0  0  0  0  0
  139.5670   69.3850  224.8820 C   0  0  0  0  0  0  0  0  0  0  0  0
  140.3700   72.3660  222.7000 C   0  0  0  0  0  0  0  0  0  0  0  0
  139.4640   73.3240  222.0720 C   0  0  0  0  0  0  0  0  0  0  0  0
  139.6690   73.7150  220.6530 C   0  0  0  0  0  0  0  0  0  0  0  0
  141.1220   73.8110  220.4410 N   0  0  0  0  0  0  0  0  0  0  0  0
  141.7550   75.0210  220.0630 C   0  0  0  0  0  0  0  0  0  0  0  0
  143.0080   74.9820  219.9180 O   0  0  0  0  0  0  0  0  0  0  0  0
  140.9440   76.2480  219.8590 C   0  0  0  0  0  0  0  0  0  0  0  0
  141.7730   77.4880  220.0090 C   0  0  1  0  0  0  0  0  0  0  0  0
  142.9840   77.3790  219.1930 N   0  0  0  0  0  0  0  0  0  0  0  0
  141.0120   78.7180  219.6580 C   0  0  0  0  0  0  0  0  0  0  0  0
  139.9000   78.9340  220.6570 C   0  0  0  0  0  0  0  0  0  0  0  0
  140.7180   79.2320  221.8880 C   0  0  0  0  0  0  0  0  0  0  0  0
  140.4790   78.9940  223.2320 C   0  0  0  0  0  0  0  0  0  0  0  0
  141.4060   79.3750  224.2020 C   0  0  0  0  0  0  0  0  0  0  0  0
  142.5770   80.0030  223.7750 C   0  0  0  0  0  0  0  0  0  0  0  0
  142.8230   80.2420  222.4390 C   0  0  0  0  0  0  0  0  0  0  0  0
  141.9000   79.8630  221.4740 C   0  0  0  0  0  0  0  0  0  0  0  0
  141.8640   79.9690  219.9830 C   0  0  0  0  0  0  0  0  0  0  0  0
  141.8350   72.5700  220.6420 C   0  0  0  0  0  0  0  0  0  0  0  0
  141.5560   71.9240  221.9470 C   0  0  0  0  0  0  0  0  0  0  0  0
  137.0338   71.0909  224.6091 H   0  0  0  0  0  0  0  0  0  0  0  0
  137.4512   72.4198  223.4748 H   0  0  0  0  0  0  0  0  0  0  0  0
  135.7943   71.7262  223.4748 H   0  0  0  0  0  0  0  0  0  0  0  0
  136.9166   69.4759  222.8427 H   0  0  0  0  0  0  0  0  0  0  0  0
  136.8824   70.7615  221.5758 H   0  0  0  0  0  0  0  0  0  0  0  0
  140.9689   72.4510  225.1780 H   0  0  0  0  0  0  0  0  0  0  0  0
  141.4355   71.5657  227.4378 H   0  0  0  0  0  0  0  0  0  0  0  0
  140.7102   69.2857  228.0688 H   0  0  0  0  0  0  0  0  0  0  0  0
  139.4996   67.8726  226.4170 H   0  0  0  0  0  0  0  0  0  0  0  0
  139.0316   68.7608  224.1514 H   0  0  0  0  0  0  0  0  0  0  0  0
  140.7491   72.9944  223.5194 H   0  0  0  0  0  0  0  0  0  0  0  0
  138.4522   72.8981  222.1418 H   0  0  0  0  0  0  0  0  0  0  0  0
  139.6570   74.2561  222.6233 H   0  0  0  0  0  0  0  0  0  0  0  0
  139.2389   72.9541  219.9852 H   0  0  0  0  0  0  0  0  0  0  0  0
  139.1752   74.6732  220.4336 H   0  0  0  0  0  0  0  0  0  0  0  0
  140.5129   76.2269  218.8472 H   0  0  0  0  0  0  0  0  0  0  0  0
  140.1525   76.2685  220.6226 H   0  0  0  0  0  0  0  0  0  0  0  0
  142.0545   77.5772  221.0686 H   0  0  0  0  0  0  0  0  0  0  0  0
  143.8130   77.1290  219.7530 H   0  0  0  0  0  0  0  0  0  0  0  0
  142.8540   76.6310  218.4920 H   0  0  0  0  0  0  0  0  0  0  0  0
  140.7036   78.5998  218.6088 H   0  0  0  0  0  0  0  0  0  0  0  0
  139.2574   79.7818  220.3773 H   0  0  0  0  0  0  0  0  0  0  0  0
  139.1947   78.0959  220.7577 H   0  0  0  0  0  0  0  0  0  0  0  0
  139.5460   78.4981  223.5379 H   0  0  0  0  0  0  0  0  0  0  0  0
  141.2201   79.1865  225.2697 H   0  0  0  0  0  0  0  0  0  0  0  0
  143.3218   80.3149  224.5220 H   0  0  0  0  0  0  0  0  0  0  0  0
  143.7576   80.7366  222.1360 H   0  0  0  0  0  0  0  0  0  0  0  0
  141.3753   80.8963  219.6493 H   0  0  0  0  0  0  0  0  0  0  0  0
  142.8479   80.0055  219.4925 H   0  0  0  0  0  0  0  0  0  0  0  0
  141.5489   71.8721  219.8414 H   0  0  0  0  0  0  0  0  0  0  0  0
  142.9082   72.8111  220.6269 H   0  0  0  0  0  0  0  0  0  0  0  0
  141.4412   70.8461  221.7600 H   0  0  0  0  0  0  0  0  0  0  0  0
  142.4066   72.2118  222.5824 H   0  0  0  0  0  0  0  0  0  0  0  0
  1  2  1  0
  2  3  1  0
  3  4  2  0
  3  5  1  0
  5  6  1  0
  6  7  2  0
  7  8  1  0
  8  9  2  0
  9 10  1  0
 10 11  2  0
  5 12  1  0
 12 13  1  0
 13 14  1  0
 14 15  1  0
 15 16  1  0
 16 17  2  0
 16 18  1  0
 18 19  1  0
 19 20  1  0
 19 21  1  0
 21 22  1  0
 22 23  1  0
 23 24  2  0
 24 25  1  0
 25 26  2  0
 26 27  1  0
 27 28  2  0
 28 29  1  0
 15 30  1  0
 30 31  1  0
 11  6  1  0
 31 12  1  0
 29 21  1  0
 28 23  1  0
  1 32  1  0
  1 33  1  0
  1 34  1  0
  2 35  1  0
  2 36  1  0
  7 37  1  0
  8 38  1  0
  9 39  1  0
 10 40  1  0
 11 41  1  0
 12 42  1  0
 13 43  1  0
 13 44  1  0
 14 45  1  0
 14 46  1  0
 18 47  1  0
 18 48  1  0
 19 49  1  1
 20 50  1  0
 20 51  1  0
 21 52  1  0
 22 53  1  0
 22 54  1  0
 24 55  1  0
 25 56  1  0
 26 57  1  0
 27 58  1  0
 29 59  1  0
 29 60  1  0
 30 61  1  0
 30 62  1  0
 31 63  1  0
 31 64  1  0
M  END
>  <smiles>  (75) 
CCC(=O)N(c1ccccc1)C1CCN(C(=O)CC(N)C2Cc3ccccc3C2)CC1

>  <score_type>  (75) 
oracle

>  <origin>  (75) 
autodockgpu

>  <m_score__min__energy>  (75) 
-8.0099999999999998

>  <m_primary>  (75) 
energy

>  <rmsd>  (75) 
6.5060515768720295

>  <m_score__min__rmsd>  (75) 
6.5060515768720295

>  <meeko>  (75) 
{"free_energy": -7.2, "intermolecular_energy": -9.58, "internal_energy": -2.46, "cluster_size": 23, "cluster_id": 3, "rank_in_cluster": 7}

>  <energy>  (75) 
-7.17

>  <cluster_rmsd>  (75) 
1.1

>  <cluster>  (75) 
3

$$$$

     RDKit          3D

 64 67  0  0  0  0  0  0  0  0999 V2000
  136.9810   71.4740  223.4680 C   0  0  0  0  0  0  0  0  0  0  0  0
  137.5830   70.2310  222.8010 C   0  0  0  0  0  0  0  0  0  0  0  0
  139.0160   70.4300  222.5250 C   0  0  0  0  0  0  0  0  0  0  0  0
  139.4980   69.7980  221.5320 O   0  0  0  0  0  0  0  0  0  0  0  0
  139.9080   71.2430  223.2470 N   0  0  0  0  0  0  0  0  0  0  0  0
  140.1840   70.8100  224.6040 C   0  0  0  0  0  0  0  0  0  0  0  0
  139.9060   69.5180  225.0020 C   0  0  0  0  0  0  0  0  0  0  0  0
  140.1760   69.1220  226.2940 C   0  0  0  0  0  0  0  0  0  0  0  0
  140.7210   70.0040  227.2010 C   0  0  0  0  0  0  0  0  0  0  0  0
  141.0030   71.2990  226.8110 C   0  0  0  0  0  0  0  0  0  0  0  0
  140.7330   71.6940  225.5150 C   0  0  0  0  0  0  0  0  0  0  0  0
  140.5630   72.4390  222.7040 C   0  0  0  0  0  0  0  0  0  0  0  0
  139.6210   73.4190  222.1720 C   0  0  0  0  0  0  0  0  0  0  0  0
  139.7020   73.8240  220.7440 C   0  0  0  0  0  0  0  0  0  0  0  0
  141.1300   73.8970  220.4000 N   0  0  0  0  0  0  0  0  0  0  0  0
  141.7490   75.1010  219.9780 C   0  0  0  0  0  0  0  0  0  0  0  0
  142.9820   75.0410  219.7180 O   0  0  0  0  0  0  0  0  0  0  0  0
  140.9460   76.3430  219.8620 C   0  0  0  0  0  0  0  0  0  0  0  0
  141.8090   77.5670  219.9430 C   0  0  1  0  0  0  0  0  0  0  0  0
  142.9660   77.4180  219.0580 N   0  0  0  0  0  0  0  0  0  0  0  0
  141.0550   78.8090  219.6190 C   0  0  0  0  0  0  0  0  0  0  0  0
  139.9300   78.9970  220.6090 C   0  0  0  0  0  0  0  0  0  0  0  0
  140.7320   79.2570  221.8590 C   0  0  0  0  0  0  0  0  0  0  0  0
  140.4750   78.9790  223.1910 C   0  0  0  0  0  0  0  0  0  0  0  0
  141.3890   79.3290  224.1850 C   0  0  0  0  0  0  0  0  0  0  0  0
  142.5670   79.9660  223.7930 C   0  0  0  0  0  0  0  0  0  0  0  0
  142.8310   80.2450  222.4680 C   0  0  0  0  0  0  0  0  0  0  0  0
  141.9200   79.8960  221.4800 C   0  0  0  0  0  0  0  0  0  0  0  0
  141.9050   80.0470  219.9920 C   0  0  0  0  0  0  0  0  0  0  0  0
  141.8350   72.6410  220.5220 C   0  0  0  0  0  0  0  0  0  0  0  0
  141.6660   71.9850  221.8400 C   0  0  0  0  0  0  0  0  0  0  0  0
  137.0337   71.3652  224.5613 H   0  0  0  0  0  0  0  0  0  0  0  0
  137.5471   72.3656  223.1605 H   0  0  0  0  0  0  0  0  0  0  0  0
  135.9305   71.5826  223.1605 H   0  0  0  0  0  0  0  0  0  0  0  0
  137.4610   69.3671  223.4708 H   0  0  0  0  0  0  0  0  0  0  0  0
  137.0612   70.0530  221.8491 H   0  0  0  0  0  0  0  0  0  0  0  0
  139.4690   68.8045  224.2879 H   0  0  0  0  0  0  0  0  0  0  0  0
  139.9539   68.0904  226.6045 H   0  0  0  0  0  0  0  0  0  0  0  0
  140.9306   69.6788  228.2307 H   0  0  0  0  0  0  0  0  0  0  0  0
  141.4395   72.0106  227.5274 H   0  0  0  0  0  0  0  0  0  0  0  0
  140.9575   72.7248  225.2036 H   0  0  0  0  0  0  0  0  0  0  0  0
  141.0273   73.0510  223.4913 H   0  0  0  0  0  0  0  0  0  0  0  0
  138.6124   73.0092  222.3298 H   0  0  0  0  0  0  0  0  0  0  0  0
  139.8804   74.3410  222.7130 H   0  0  0  0  0  0  0  0  0  0  0  0
  139.1981   73.0791  220.1106 H   0  0  0  0  0  0  0  0  0  0  0  0
  139.2082   74.7934  220.5815 H   0  0  0  0  0  0  0  0  0  0  0  0
  140.4207   76.3397  218.8955 H   0  0  0  0  0  0  0  0  0  0  0  0
  140.2308   76.3700  220.6973 H   0  0  0  0  0  0  0  0  0  0  0  0
  142.1552   77.6661  220.9824 H   0  0  0  0  0  0  0  0  0  0  0  0
  143.8080   77.1020  219.5620 H   0  0  0  0  0  0  0  0  0  0  0  0
  142.7550   76.7040  218.3410 H   0  0  0  0  0  0  0  0  0  0  0  0
  140.7602   78.7234  218.5627 H   0  0  0  0  0  0  0  0  0  0  0  0
  139.2922   79.8538  220.3461 H   0  0  0  0  0  0  0  0  0  0  0  0
  139.2223   78.1575  220.6754 H   0  0  0  0  0  0  0  0  0  0  0  0
  139.5374   78.4753  223.4690 H   0  0  0  0  0  0  0  0  0  0  0  0
  141.1876   79.1099  225.2440 H   0  0  0  0  0  0  0  0  0  0  0  0
  143.3028   80.2526  224.5588 H   0  0  0  0  0  0  0  0  0  0  0  0
  143.7699   80.7475  222.1923 H   0  0  0  0  0  0  0  0  0  0  0  0
  141.4230   80.9851  219.6795 H   0  0  0  0  0  0  0  0  0  0  0  0
  142.8955   80.0958  219.5161 H   0  0  0  0  0  0  0  0  0  0  0  0
  141.4630   71.9577  219.7444 H   0  0  0  0  0  0  0  0  0  0  0  0
  142.9065   72.8633  220.4102 H   0  0  0  0  0  0  0  0  0  0  0  0
  141.5144   70.9116  221.6536 H   0  0  0  0  0  0  0  0  0  0  0  0
  142.5769   72.2502  222.3967 H   0  0  0  0  0  0  0  0  0  0  0  0
  1  2  1  0
  2  3  1  0
  3  4  2  0
  3  5  1  0
  5  6  1  0
  6  7  2  0
  7  8  1  0
  8  9  2  0
  9 10  1  0
 10 11  2  0
  5 12  1  0
 12 13  1  0
 13 14  1  0
 14 15  1  0
 15 16  1  0
 16 17  2  0
 16 18  1  0
 18 19  1  0
 19 20  1  0
 19 21  1  0
 21 22  1  0
 22 23  1  0
 23 24  2  0
 24 25  1  0
 25 26  2  0
 26 27  1  0
 27 28  2  0
 28 29  1  0
 15 30  1  0
 30 31  1  0
 11  6  1  0
 31 12  1  0
 29 21  1  0
 28 23  1  0
  1 32  1  0
  1 33  1  0
  1 34  1  0
  2 35  1  0
  2 36  1  0
  7 37  1  0
  8 38  1  0
  9 39  1  0
 10 40  1  0
 11 41  1  0
 12 42  1  0
 13 43  1  0
 13 44  1  0
 14 45  1  0
 14 46  1  0
 18 47  1  0
 18 48  1  0
 19 49  1  1
 20 50  1  0
 20 51  1  0
 21 52  1  0
 22 53  1  0
 22 54  1  0
 24 55  1  0
 25 56  1  0
 26 57  1  0
 27 58  1  0
 29 59  1  0
 29 60  1  0
 30 61  1  0
 30 62  1  0
 31 63  1  0
 31 64  1  0
M  END
>  <smiles>  (76) 
CCC(=O)N(c1ccccc1)C1CCN(C(=O)CC(N)C2Cc3ccccc3C2)CC1

>  <score_type>  (76) 
oracle

>  <origin>  (76) 
autodockgpu

>  <m_score__min__energy>  (76) 
-8.0099999999999998

>  <m_primary>  (76) 
energy

>  <rmsd>  (76) 
6.483173379406451

>  <m_score__min__rmsd>  (76) 
6.483173379406451

>  <meeko>  (76) 
{"free_energy": -7.12, "intermolecular_energy": -9.51, "internal_energy": -2.51, "cluster_size": 23, "cluster_id": 3, "rank_in_cluster": 17}

>  <energy>  (76) 
-7.16

>  <cluster_rmsd>  (76) 
1.1

>  <cluster>  (76) 
3

$$$$

     RDKit          3D

 64 67  0  0  0  0  0  0  0  0999 V2000
  142.9150   77.0140  218.5480 C   0  0  0  0  0  0  0  0  0  0  0  0
  142.8120   75.6720  217.8110 C   0  0  0  0  0  0  0  0  0  0  0  0
  141.7680   74.8260  218.4140 C   0  0  0  0  0  0  0  0  0  0  0  0
  140.5910   74.9570  217.9480 O   0  0  0  0  0  0  0  0  0  0  0  0
  141.9350   73.8910  219.4510 N   0  0  0  0  0  0  0  0  0  0  0  0
  143.3100   73.5590  219.7710 C   0  0  0  0  0  0  0  0  0  0  0  0
  143.8470   72.3430  219.3980 C   0  0  0  0  0  0  0  0  0  0  0  0
  145.1560   72.0440  219.7090 C   0  0  0  0  0  0  0  0  0  0  0  0
  145.9420   72.9470  220.3910 C   0  0  0  0  0  0  0  0  0  0  0  0
  145.4130   74.1660  220.7670 C   0  0  0  0  0  0  0  0  0  0  0  0
  144.1000   74.4650  220.4550 C   0  0  0  0  0  0  0  0  0  0  0  0
  140.8320   73.2850  220.2050 C   0  0  0  0  0  0  0  0  0  0  0  0
  141.0300   73.3330  221.6510 C   0  0  0  0  0  0  0  0  0  0  0  0
  141.0710   72.0710  222.4350 C   0  0  0  0  0  0  0  0  0  0  0  0
  140.0660   71.1700  221.8480 N   0  0  0  0  0  0  0  0  0  0  0  0
  138.9550   70.6900  222.5850 C   0  0  0  0  0  0  0  0  0  0  0  0
  138.1570   69.9280  221.9710 O   0  0  0  0  0  0  0  0  0  0  0  0
  138.7800   71.0870  224.0040 C   0  0  0  0  0  0  0  0  0  0  0  0
  138.3190   69.9360  224.8460 C   0  0  1  0  0  0  0  0  0  0  0  0
  137.1680   69.2880  224.2140 N   0  0  0  0  0  0  0  0  0  0  0  0
  139.4060   68.9490  225.0940 C   0  0  0  0  0  0  0  0  0  0  0  0
  140.7500   69.6260  224.9620 C   0  0  0  0  0  0  0  0  0  0  0  0
  140.6870   70.5510  226.1510 C   0  0  0  0  0  0  0  0  0  0  0  0
  141.2360   71.8030  226.3710 C   0  0  0  0  0  0  0  0  0  0  0  0
  141.0350   72.4690  227.5800 C   0  0  0  0  0  0  0  0  0  0  0  0
  140.2650   71.8340  228.5550 C   0  0  0  0  0  0  0  0  0  0  0  0
  139.7130   70.5880  228.3420 C   0  0  0  0  0  0  0  0  0  0  0  0
  139.9140   69.9260  227.1390 C   0  0  0  0  0  0  0  0  0  0  0  0
  139.4640   68.6050  226.6010 C   0  0  0  0  0  0  0  0  0  0  0  0
  140.3190   70.8170  220.4690 C   0  0  0  0  0  0  0  0  0  0  0  0
  140.5300   71.9860  219.5810 C   0  0  0  0  0  0  0  0  0  0  0  0
  142.9015   76.8380  219.6338 H   0  0  0  0  0  0  0  0  0  0  0  0
  143.8542   77.5143  218.2693 H   0  0  0  0  0  0  0  0  0  0  0  0
  142.0632   77.6517  218.2693 H   0  0  0  0  0  0  0  0  0  0  0  0
  142.5617   75.8576  216.7561 H   0  0  0  0  0  0  0  0  0  0  0  0
  143.7777   75.1510  217.8881 H   0  0  0  0  0  0  0  0  0  0  0  0
  143.2304   71.6132  218.8529 H   0  0  0  0  0  0  0  0  0  0  0  0
  145.5780   71.0734  219.4093 H   0  0  0  0  0  0  0  0  0  0  0  0
  146.9854   72.6983  220.6347 H   0  0  0  0  0  0  0  0  0  0  0  0
  146.0324   74.8942  221.3112 H   0  0  0  0  0  0  0  0  0  0  0  0
  143.6782   75.4357  220.7545 H   0  0  0  0  0  0  0  0  0  0  0  0
  139.9072   73.8764  220.1339 H   0  0  0  0  0  0  0  0  0  0  0  0
  141.9874   73.8463  221.8241 H   0  0  0  0  0  0  0  0  0  0  0  0
  140.1188   73.8295  222.0160 H   0  0  0  0  0  0  0  0  0  0  0  0
  142.0707   71.6169  222.3688 H   0  0  0  0  0  0  0  0  0  0  0  0
  140.8573   72.2604  223.4973 H   0  0  0  0  0  0  0  0  0  0  0  0
  139.7417   71.4518  224.3938 H   0  0  0  0  0  0  0  0  0  0  0  0
  138.0136   71.8748  224.0489 H   0  0  0  0  0  0  0  0  0  0  0  0
  138.0208   70.3360  225.8263 H   0  0  0  0  0  0  0  0  0  0  0  0
  136.6250   69.9390  223.6260 H   0  0  0  0  0  0  0  0  0  0  0  0
  137.5010   68.5280  223.5990 H   0  0  0  0  0  0  0  0  0  0  0  0
  139.2192   68.1069  224.4114 H   0  0  0  0  0  0  0  0  0  0  0  0
  141.5797   68.9086  225.0449 H   0  0  0  0  0  0  0  0  0  0  0  0
  140.9299   70.1204  223.9960 H   0  0  0  0  0  0  0  0  0  0  0  0
  141.8381   72.2783  225.5826 H   0  0  0  0  0  0  0  0  0  0  0  0
  141.4698   73.4634  227.7591 H   0  0  0  0  0  0  0  0  0  0  0  0
  140.0940   72.3393  229.5170 H   0  0  0  0  0  0  0  0  0  0  0  0
  139.1093   70.1158  229.1311 H   0  0  0  0  0  0  0  0  0  0  0  0
  140.1910   67.8069  226.8120 H   0  0  0  0  0  0  0  0  0  0  0  0
  138.5270   68.2197  227.0295 H   0  0  0  0  0  0  0  0  0  0  0  0
  141.2195   70.1864  220.4320 H   0  0  0  0  0  0  0  0  0  0  0  0
  139.4234   70.2939  220.1027 H   0  0  0  0  0  0  0  0  0  0  0  0
  141.3690   71.7416  218.9129 H   0  0  0  0  0  0  0  0  0  0  0  0
  139.5566   72.1371  219.0914 H   0  0  0  0  0  0  0  0  0  0  0  0
  1  2  1  0
  2  3  1  0
  3  4  2  0
  3  5  1  0
  5  6  1  0
  6  7  2  0
  7  8  1  0
  8  9  2  0
  9 10  1  0
 10 11  2  0
  5 12  1  0
 12 13  1  0
 13 14  1  0
 14 15  1  0
 15 16  1  0
 16 17  2  0
 16 18  1  0
 18 19  1  0
 19 20  1  0
 19 21  1  0
 21 22  1  0
 22 23  1  0
 23 24  2  0
 24 25  1  0
 25 26  2  0
 26 27  1  0
 27 28  2  0
 28 29  1  0
 15 30  1  0
 30 31  1  0
 11  6  1  0
 31 12  1  0
 29 21  1  0
 28 23  1  0
  1 32  1  0
  1 33  1  0
  1 34  1  0
  2 35  1  0
  2 36  1  0
  7 37  1  0
  8 38  1  0
  9 39  1  0
 10 40  1  0
 11 41  1  0
 12 42  1  0
 13 43  1  0
 13 44  1  0
 14 45  1  0
 14 46  1  0
 18 47  1  0
 18 48  1  0
 19 49  1  1
 20 50  1  0
 20 51  1  0
 21 52  1  0
 22 53  1  0
 22 54  1  0
 24 55  1  0
 25 56  1  0
 26 57  1  0
 27 58  1  0
 29 59  1  0
 29 60  1  0
 30 61  1  0
 30 62  1  0
 31 63  1  0
 31 64  1  0
M  END
>  <smiles>  (77) 
CCC(=O)N(c1ccccc1)C1CCN(C(=O)CC(N)C2Cc3ccccc3C2)CC1

>  <score_type>  (77) 
oracle

>  <origin>  (77) 
autodockgpu

>  <m_score__min__energy>  (77) 
-8.0099999999999998

>  <m_primary>  (77) 
energy

>  <rmsd>  (77) 
9.242711178154348

>  <m_score__min__rmsd>  (77) 
9.242711178154348

>  <meeko>  (77) 
{"free_energy": -6.97, "intermolecular_energy": -9.36, "internal_energy": -2.52, "cluster_size": 7, "cluster_id": 4, "rank_in_cluster": 1}

>  <energy>  (77) 
-7.13

>  <cluster_rmsd>  (77) 
1.47

>  <cluster>  (77) 
3

$$$$

     RDKit          3D

 64 67  0  0  0  0  0  0  0  0999 V2000
  136.9050   71.5040  223.4650 C   0  0  0  0  0  0  0  0  0  0  0  0
  137.4510   70.3050  222.6780 C   0  0  0  0  0  0  0  0  0  0  0  0
  138.9040   70.4360  222.4720 C   0  0  0  0  0  0  0  0  0  0  0  0
  139.4010   69.7880  221.4980 O   0  0  0  0  0  0  0  0  0  0  0  0
  139.7990   71.2020  223.2410 N   0  0  0  0  0  0  0  0  0  0  0  0
  140.0540   70.6990  224.5790 C   0  0  0  0  0  0  0  0  0  0  0  0
  139.6750   69.4210  224.9360 C   0  0  0  0  0  0  0  0  0  0  0  0
  139.9260   68.9590  226.2090 C   0  0  0  0  0  0  0  0  0  0  0  0
  140.5550   69.7590  227.1380 C   0  0  0  0  0  0  0  0  0  0  0  0
  140.9390   71.0390  226.7880 C   0  0  0  0  0  0  0  0  0  0  0  0
  140.6860   71.5020  225.5110 C   0  0  0  0  0  0  0  0  0  0  0  0
  140.4760   72.4130  222.7640 C   0  0  0  0  0  0  0  0  0  0  0  0
  139.5560   73.4130  222.2310 C   0  0  0  0  0  0  0  0  0  0  0  0
  139.6900   73.8660  220.8220 C   0  0  0  0  0  0  0  0  0  0  0  0
  141.1310   73.9470  220.5340 N   0  0  0  0  0  0  0  0  0  0  0  0
  141.7660   75.1620  220.1760 C   0  0  0  0  0  0  0  0  0  0  0  0
  143.0080   75.1070  219.9600 O   0  0  0  0  0  0  0  0  0  0  0  0
  140.9710   76.4100  220.0730 C   0  0  0  0  0  0  0  0  0  0  0  0
  141.8510   77.6210  219.9970 C   0  0  1  0  0  0  0  0  0  0  0  0
  142.9300   77.3910  219.0340 N   0  0  0  0  0  0  0  0  0  0  0  0
  141.0880   78.8500  219.6470 C   0  0  0  0  0  0  0  0  0  0  0  0
  139.9510   79.0400  220.6220 C   0  0  0  0  0  0  0  0  0  0  0  0
  140.7360   79.3260  221.8770 C   0  0  0  0  0  0  0  0  0  0  0  0
  140.4670   79.0630  223.2110 C   0  0  0  0  0  0  0  0  0  0  0  0
  141.3670   79.4370  224.2090 C   0  0  0  0  0  0  0  0  0  0  0  0
  142.5420   80.0810  223.8200 C   0  0  0  0  0  0  0  0  0  0  0  0
  142.8180   80.3450  222.4940 C   0  0  0  0  0  0  0  0  0  0  0  0
  141.9220   79.9720  221.5020 C   0  0  0  0  0  0  0  0  0  0  0  0
  141.9210   80.1030  220.0130 C   0  0  0  0  0  0  0  0  0  0  0  0
  141.8290   72.6850  220.6390 C   0  0  0  0  0  0  0  0  0  0  0  0
  141.6090   71.9850  221.9270 C   0  0  0  0  0  0  0  0  0  0  0  0
  136.9950   71.3064  224.5434 H   0  0  0  0  0  0  0  0  0  0  0  0
  137.4817   72.4047  223.2079 H   0  0  0  0  0  0  0  0  0  0  0  0
  135.8470   71.6603  223.2079 H   0  0  0  0  0  0  0  0  0  0  0  0
  137.2477   69.3814  223.2398 H   0  0  0  0  0  0  0  0  0  0  0  0
  136.9560   70.2711  221.6962 H   0  0  0  0  0  0  0  0  0  0  0  0
  139.1726   68.7715  224.2041 H   0  0  0  0  0  0  0  0  0  0  0  0
  139.6208   67.9395  226.4873 H   0  0  0  0  0  0  0  0  0  0  0  0
  140.7502   69.3807  228.1523 H   0  0  0  0  0  0  0  0  0  0  0  0
  141.4430   71.6856  227.5214 H   0  0  0  0  0  0  0  0  0  0  0  0
  140.9909   72.5215  225.2323 H   0  0  0  0  0  0  0  0  0  0  0  0
  140.9122   72.9967  223.5880 H   0  0  0  0  0  0  0  0  0  0  0  0
  138.5417   73.0009  222.3376 H   0  0  0  0  0  0  0  0  0  0  0  0
  139.7970   74.3154  222.8121 H   0  0  0  0  0  0  0  0  0  0  0  0
  139.2090   73.1444  220.1453 H   0  0  0  0  0  0  0  0  0  0  0  0
  139.2036   74.8415  220.6742 H   0  0  0  0  0  0  0  0  0  0  0  0
  140.3493   76.3633  219.1668 H   0  0  0  0  0  0  0  0  0  0  0  0
  140.3464   76.4950  220.9745 H   0  0  0  0  0  0  0  0  0  0  0  0
  142.2815   77.7861  220.9957 H   0  0  0  0  0  0  0  0  0  0  0  0
  143.8210   77.1470  219.4930 H   0  0  0  0  0  0  0  0  0  0  0  0
  142.6760   76.5970  218.4220 H   0  0  0  0  0  0  0  0  0  0  0  0
  140.8062   78.7465  218.5888 H   0  0  0  0  0  0  0  0  0  0  0  0
  139.3072   79.8862  220.3401 H   0  0  0  0  0  0  0  0  0  0  0  0
  139.2517   78.1938  220.6927 H   0  0  0  0  0  0  0  0  0  0  0  0
  139.5320   78.5530  223.4862 H   0  0  0  0  0  0  0  0  0  0  0  0
  141.1570   79.2308  225.2689 H   0  0  0  0  0  0  0  0  0  0  0  0
  143.2665   80.3859  224.5896 H   0  0  0  0  0  0  0  0  0  0  0  0
  143.7541   80.8543  222.2215 H   0  0  0  0  0  0  0  0  0  0  0  0
  141.4322   81.0315  219.6830 H   0  0  0  0  0  0  0  0  0  0  0  0
  142.9160   80.1564  219.5469 H   0  0  0  0  0  0  0  0  0  0  0  0
  141.4852   72.0298  219.8251 H   0  0  0  0  0  0  0  0  0  0  0  0
  142.9044   72.9074  220.5748 H   0  0  0  0  0  0  0  0  0  0  0  0
  141.4620   70.9191  221.6985 H   0  0  0  0  0  0  0  0  0  0  0  0
  142.4990   72.2280  222.5261 H   0  0  0  0  0  0  0  0  0  0  0  0
  1  2  1  0
  2  3  1  0
  3  4  2  0
  3  5  1  0
  5  6  1  0
  6  7  2  0
  7  8  1  0
  8  9  2  0
  9 10  1  0
 10 11  2  0
  5 12  1  0
 12 13  1  0
 13 14  1  0
 14 15  1  0
 15 16  1  0
 16 17  2  0
 16 18  1  0
 18 19  1  0
 19 20  1  0
 19 21  1  0
 21 22  1  0
 22 23  1  0
 23 24  2  0
 24 25  1  0
 25 26  2  0
 26 27  1  0
 27 28  2  0
 28 29  1  0
 15 30  1  0
 30 31  1  0
 11  6  1  0
 31 12  1  0
 29 21  1  0
 28 23  1  0
  1 32  1  0
  1 33  1  0
  1 34  1  0
  2 35  1  0
  2 36  1  0
  7 37  1  0
  8 38  1  0
  9 39  1  0
 10 40  1  0
 11 41  1  0
 12 42  1  0
 13 43  1  0
 13 44  1  0
 14 45  1  0
 14 46  1  0
 18 47  1  0
 18 48  1  0
 19 49  1  1
 20 50  1  0
 20 51  1  0
 21 52  1  0
 22 53  1  0
 22 54  1  0
 24 55  1  0
 25 56  1  0
 26 57  1  0
 27 58  1  0
 29 59  1  0
 29 60  1  0
 30 61  1  0
 30 62  1  0
 31 63  1  0
 31 64  1  0
M  END
>  <smiles>  (78) 
CCC(=O)N(c1ccccc1)C1CCN(C(=O)CC(N)C2Cc3ccccc3C2)CC1

>  <score_type>  (78) 
oracle

>  <origin>  (78) 
autodockgpu

>  <m_score__min__energy>  (78) 
-8.0099999999999998

>  <m_primary>  (78) 
energy

>  <rmsd>  (78) 
6.490393810014704

>  <m_score__min__rmsd>  (78) 
6.490393810014704

>  <meeko>  (78) 
{"free_energy": -7.17, "intermolecular_energy": -9.56, "internal_energy": -2.47, "cluster_size": 23, "cluster_id": 3, "rank_in_cluster": 12}

>  <energy>  (78) 
-7.12

>  <cluster_rmsd>  (78) 
1.11

>  <cluster>  (78) 
3

$$$$

     RDKit          3D

 64 67  0  0  0  0  0  0  0  0999 V2000
  136.8330   71.4970  223.6660 C   0  0  0  0  0  0  0  0  0  0  0  0
  137.2780   70.5910  222.5100 C   0  0  0  0  0  0  0  0  0  0  0  0
  138.7450   70.4640  222.4830 C   0  0  0  0  0  0  0  0  0  0  0  0
  139.2250   69.5740  221.7120 O   0  0  0  0  0  0  0  0  0  0  0  0
  139.6710   71.2230  223.2220 N   0  0  0  0  0  0  0  0  0  0  0  0
  139.9600   70.7220  224.5530 C   0  0  0  0  0  0  0  0  0  0  0  0
  140.6670   71.4900  225.4570 C   0  0  0  0  0  0  0  0  0  0  0  0
  140.9320   71.0010  226.7180 C   0  0  0  0  0  0  0  0  0  0  0  0
  140.4980   69.7480  227.0920 C   0  0  0  0  0  0  0  0  0  0  0  0
  139.7890   68.9740  226.1950 C   0  0  0  0  0  0  0  0  0  0  0  0
  139.5240   69.4650  224.9310 C   0  0  0  0  0  0  0  0  0  0  0  0
  140.3450   72.4250  222.7210 C   0  0  0  0  0  0  0  0  0  0  0  0
  139.4280   73.3930  222.1260 C   0  0  0  0  0  0  0  0  0  0  0  0
  139.5970   73.7960  220.7060 C   0  0  0  0  0  0  0  0  0  0  0  0
  141.0440   73.8860  220.4560 N   0  0  0  0  0  0  0  0  0  0  0  0
  141.6740   75.0960  220.0720 C   0  0  0  0  0  0  0  0  0  0  0  0
  142.9220   75.0510  219.8920 O   0  0  0  0  0  0  0  0  0  0  0  0
  140.8660   76.3290  219.9010 C   0  0  0  0  0  0  0  0  0  0  0  0
  141.7110   77.5620  220.0150 C   0  0  1  0  0  0  0  0  0  0  0  0
  142.9010   77.4300  219.1720 N   0  0  0  0  0  0  0  0  0  0  0  0
  140.9540   78.7960  219.6660 C   0  0  0  0  0  0  0  0  0  0  0  0
  139.8350   79.0070  220.6570 C   0  0  0  0  0  0  0  0  0  0  0  0
  140.6440   79.2960  221.8970 C   0  0  0  0  0  0  0  0  0  0  0  0
  140.3940   79.0490  223.2360 C   0  0  0  0  0  0  0  0  0  0  0  0
  141.3130   79.4240  224.2160 C   0  0  0  0  0  0  0  0  0  0  0  0
  142.4880   80.0520  223.8030 C   0  0  0  0  0  0  0  0  0  0  0  0
  142.7450   80.3000  222.4700 C   0  0  0  0  0  0  0  0  0  0  0  0
  141.8290   79.9270  221.4960 C   0  0  0  0  0  0  0  0  0  0  0  0
  141.8050   80.0430  220.0050 C   0  0  0  0  0  0  0  0  0  0  0  0
  141.7540   72.6390  220.6250 C   0  0  0  0  0  0  0  0  0  0  0  0
  141.5070   71.9820  221.9320 C   0  0  0  0  0  0  0  0  0  0  0  0
  137.0711   71.0123  224.6243 H   0  0  0  0  0  0  0  0  0  0  0  0
  137.3606   72.4600  223.6011 H   0  0  0  0  0  0  0  0  0  0  0  0
  135.7483   71.6681  223.6011 H   0  0  0  0  0  0  0  0  0  0  0  0
  136.8316   69.5941  222.6401 H   0  0  0  0  0  0  0  0  0  0  0  0
  136.9443   71.0379  221.5619 H   0  0  0  0  0  0  0  0  0  0  0  0
  141.0187   72.4921  225.1706 H   0  0  0  0  0  0  0  0  0  0  0  0
  141.4960   71.6176  227.4334 H   0  0  0  0  0  0  0  0  0  0  0  0
  140.7153   69.3661  228.1004 H   0  0  0  0  0  0  0  0  0  0  0  0
  139.4374   67.9728  226.4849 H   0  0  0  0  0  0  0  0  0  0  0  0
  138.9592   68.8484  224.2163 H   0  0  0  0  0  0  0  0  0  0  0  0
  140.7493   73.0444  223.5352 H   0  0  0  0  0  0  0  0  0  0  0  0
  138.4162   72.9716  222.2189 H   0  0  0  0  0  0  0  0  0  0  0  0
  139.6408   74.3190  222.6803 H   0  0  0  0  0  0  0  0  0  0  0  0
  139.1448   73.0437  220.0430 H   0  0  0  0  0  0  0  0  0  0  0  0
  139.1030   74.7588  220.5088 H   0  0  0  0  0  0  0  0  0  0  0  0
  140.3927   76.3110  218.9082 H   0  0  0  0  0  0  0  0  0  0  0  0
  140.1073   76.3567  220.6970 H   0  0  0  0  0  0  0  0  0  0  0  0
  142.0187   77.6616  221.0664 H   0  0  0  0  0  0  0  0  0  0  0  0
  143.7350   77.1540  219.7110 H   0  0  0  0  0  0  0  0  0  0  0  0
  142.7360   76.6910  218.4670 H   0  0  0  0  0  0  0  0  0  0  0  0
  140.6534   78.6850  218.6137 H   0  0  0  0  0  0  0  0  0  0  0  0
  139.1958   79.8575  220.3778 H   0  0  0  0  0  0  0  0  0  0  0  0
  139.1278   78.1693  220.7467 H   0  0  0  0  0  0  0  0  0  0  0  0
  139.4587   78.5507  223.5309 H   0  0  0  0  0  0  0  0  0  0  0  0
  141.1173   79.2306  225.2810 H   0  0  0  0  0  0  0  0  0  0  0  0
  143.2276   80.3569  224.5580 H   0  0  0  0  0  0  0  0  0  0  0  0
  143.6819   80.7965  222.1774 H   0  0  0  0  0  0  0  0  0  0  0  0
  141.3203   80.9731  219.6735 H   0  0  0  0  0  0  0  0  0  0  0  0
  142.7926   80.0814  219.5222 H   0  0  0  0  0  0  0  0  0  0  0  0
  141.4410   71.9506  219.8261 H   0  0  0  0  0  0  0  0  0  0  0  0
  142.8279   72.8733  220.5819 H   0  0  0  0  0  0  0  0  0  0  0  0
  141.3799   70.9066  221.7385 H   0  0  0  0  0  0  0  0  0  0  0  0
  142.3768   72.2577  222.5463 H   0  0  0  0  0  0  0  0  0  0  0  0
  1  2  1  0
  2  3  1  0
  3  4  2  0
  3  5  1  0
  5  6  1  0
  6  7  2  0
  7  8  1  0
  8  9  2  0
  9 10  1  0
 10 11  2  0
  5 12  1  0
 12 13  1  0
 13 14  1  0
 14 15  1  0
 15 16  1  0
 16 17  2  0
 16 18  1  0
 18 19  1  0
 19 20  1  0
 19 21  1  0
 21 22  1  0
 22 23  1  0
 23 24  2  0
 24 25  1  0
 25 26  2  0
 26 27  1  0
 27 28  2  0
 28 29  1  0
 15 30  1  0
 30 31  1  0
 11  6  1  0
 31 12  1  0
 29 21  1  0
 28 23  1  0
  1 32  1  0
  1 33  1  0
  1 34  1  0
  2 35  1  0
  2 36  1  0
  7 37  1  0
  8 38  1  0
  9 39  1  0
 10 40  1  0
 11 41  1  0
 12 42  1  0
 13 43  1  0
 13 44  1  0
 14 45  1  0
 14 46  1  0
 18 47  1  0
 18 48  1  0
 19 49  1  1
 20 50  1  0
 20 51  1  0
 21 52  1  0
 22 53  1  0
 22 54  1  0
 24 55  1  0
 25 56  1  0
 26 57  1  0
 27 58  1  0
 29 59  1  0
 29 60  1  0
 30 61  1  0
 30 62  1  0
 31 63  1  0
 31 64  1  0
M  END
>  <smiles>  (79) 
CCC(=O)N(c1ccccc1)C1CCN(C(=O)CC(N)C2Cc3ccccc3C2)CC1

>  <score_type>  (79) 
oracle

>  <origin>  (79) 
autodockgpu

>  <m_score__min__energy>  (79) 
-8.0099999999999998

>  <m_primary>  (79) 
energy

>  <rmsd>  (79) 
6.4794654866414225

>  <m_score__min__rmsd>  (79) 
6.4794654866414225

>  <meeko>  (79) 
{"free_energy": -7.21, "intermolecular_energy": -9.59, "internal_energy": -2.5, "cluster_size": 23, "cluster_id": 3, "rank_in_cluster": 3}

>  <energy>  (79) 
-7.06

>  <cluster_rmsd>  (79) 
1.33

>  <cluster>  (79) 
3

$$$$

     RDKit          3D

 64 67  0  0  0  0  0  0  0  0999 V2000
  142.5740   78.3460  218.4410 C   0  0  0  0  0  0  0  0  0  0  0  0
  142.1550   77.0620  219.1690 C   0  0  0  0  0  0  0  0  0  0  0  0
  140.9200   77.2800  219.9400 C   0  0  0  0  0  0  0  0  0  0  0  0
  139.8910   77.6320  219.2790 O   0  0  0  0  0  0  0  0  0  0  0  0
  140.7580   77.1430  221.3300 N   0  0  0  0  0  0  0  0  0  0  0  0
  141.0410   78.3340  222.1080 C   0  0  0  0  0  0  0  0  0  0  0  0
  140.1350   78.7990  223.0410 C   0  0  0  0  0  0  0  0  0  0  0  0
  140.4200   79.9310  223.7730 C   0  0  0  0  0  0  0  0  0  0  0  0
  141.6040   80.6100  223.5870 C   0  0  0  0  0  0  0  0  0  0  0  0
  142.5160   80.1510  222.6570 C   0  0  0  0  0  0  0  0  0  0  0  0
  142.2290   79.0170  221.9230 C   0  0  0  0  0  0  0  0  0  0  0  0
  140.3100   75.9140  221.9950 C   0  0  0  0  0  0  0  0  0  0  0  0
  141.1180   74.7470  221.6500 C   0  0  0  0  0  0  0  0  0  0  0  0
  140.4790   73.5670  221.0110 C   0  0  0  0  0  0  0  0  0  0  0  0
  139.1590   73.4030  221.6400 N   0  0  0  0  0  0  0  0  0  0  0  0
  138.8020   72.2380  222.3640 C   0  0  0  0  0  0  0  0  0  0  0  0
  137.6430   72.2160  222.8630 O   0  0  0  0  0  0  0  0  0  0  0  0
  139.7740   71.1260  222.5000 C   0  0  0  0  0  0  0  0  0  0  0  0
  139.6860   70.4790  223.8500 C   0  0  1  0  0  0  0  0  0  0  0  0
  139.5210   71.5030  224.8820 N   0  0  0  0  0  0  0  0  0  0  0  0
  138.5860   69.4780  223.9220 C   0  0  0  0  0  0  0  0  0  0  0  0
  139.1620   68.0990  224.1380 C   0  0  0  0  0  0  0  0  0  0  0  0
  139.7210   68.2720  225.5280 C   0  0  0  0  0  0  0  0  0  0  0  0
  140.8140   67.6990  226.1580 C   0  0  0  0  0  0  0  0  0  0  0  0
  141.1290   68.0230  227.4780 C   0  0  0  0  0  0  0  0  0  0  0  0
  140.3110   68.9400  228.1380 C   0  0  0  0  0  0  0  0  0  0  0  0
  139.2220   69.5160  227.5170 C   0  0  0  0  0  0  0  0  0  0  0  0
  138.9090   69.1930  226.2040 C   0  0  0  0  0  0  0  0  0  0  0  0
  137.8310   69.6290  225.2640 C   0  0  0  0  0  0  0  0  0  0  0  0
  138.2650   74.5220  221.4440 C   0  0  0  0  0  0  0  0  0  0  0  0
  138.8490   75.8290  221.8300 C   0  0  0  0  0  0  0  0  0  0  0  0
  142.8268   79.1206  219.1799 H   0  0  0  0  0  0  0  0  0  0  0  0
  143.4516   78.1403  217.8106 H   0  0  0  0  0  0  0  0  0  0  0  0
  141.7440   78.6976  217.8106 H   0  0  0  0  0  0  0  0  0  0  0  0
  141.9828   76.2670  218.4286 H   0  0  0  0  0  0  0  0  0  0  0  0
  142.9578   76.7707  219.8623 H   0  0  0  0  0  0  0  0  0  0  0  0
  139.1861   78.2657  223.1997 H   0  0  0  0  0  0  0  0  0  0  0  0
  139.6940   80.2966  224.5141 H   0  0  0  0  0  0  0  0  0  0  0  0
  141.8219   81.5130  224.1761 H   0  0  0  0  0  0  0  0  0  0  0  0
  143.4649   80.6853  222.5019 H   0  0  0  0  0  0  0  0  0  0  0  0
  142.9550   78.6523  221.1814 H   0  0  0  0  0  0  0  0  0  0  0  0
  140.4908   75.9399  223.0797 H   0  0  0  0  0  0  0  0  0  0  0  0
  141.9026   75.0953  220.9622 H   0  0  0  0  0  0  0  0  0  0  0  0
  141.4404   74.3626  222.6289 H   0  0  0  0  0  0  0  0  0  0  0  0
  140.3645   73.7377  219.9304 H   0  0  0  0  0  0  0  0  0  0  0  0
  141.0941   72.6650  221.1456 H   0  0  0  0  0  0  0  0  0  0  0  0
  139.5636   70.3713  221.7279 H   0  0  0  0  0  0  0  0  0  0  0  0
  140.7871   71.5376  222.3807 H   0  0  0  0  0  0  0  0  0  0  0  0
  140.6260   69.9347  224.0238 H   0  0  0  0  0  0  0  0  0  0  0  0
  140.2130   72.2630  224.7950 H   0  0  0  0  0  0  0  0  0  0  0  0
  138.5850   71.9320  224.7890 H   0  0  0  0  0  0  0  0  0  0  0  0
  137.9865   69.6140  223.0098 H   0  0  0  0  0  0  0  0  0  0  0  0
  138.3854   67.3207  224.1029 H   0  0  0  0  0  0  0  0  0  0  0  0
  139.8897   67.7737  223.3800 H   0  0  0  0  0  0  0  0  0  0  0  0
  141.4411   66.9798  225.6107 H   0  0  0  0  0  0  0  0  0  0  0  0
  141.9951   67.5696  227.9823 H   0  0  0  0  0  0  0  0  0  0  0  0
  140.5399   69.2106  229.1793 H   0  0  0  0  0  0  0  0  0  0  0  0
  138.5976   70.2361  228.0662 H   0  0  0  0  0  0  0  0  0  0  0  0
  136.9507   68.9715  225.3158 H   0  0  0  0  0  0  0  0  0  0  0  0
  137.4168   70.6294  225.4582 H   0  0  0  0  0  0  0  0  0  0  0  0
  137.9915   74.5651  220.3794 H   0  0  0  0  0  0  0  0  0  0  0  0
  137.3947   74.3549  222.0957 H   0  0  0  0  0  0  0  0  0  0  0  0
  138.5650   76.5555  221.0544 H   0  0  0  0  0  0  0  0  0  0  0  0
  138.4482   76.0215  222.8361 H   0  0  0  0  0  0  0  0  0  0  0  0
  1  2  1  0
  2  3  1  0
  3  4  2  0
  3  5  1  0
  5  6  1  0
  6  7  2  0
  7  8  1  0
  8  9  2  0
  9 10  1  0
 10 11  2  0
  5 12  1  0
 12 13  1  0
 13 14  1  0
 14 15  1  0
 15 16  1  0
 16 17  2  0
 16 18  1  0
 18 19  1  0
 19 20  1  0
 19 21  1  0
 21 22  1  0
 22 23  1  0
 23 24  2  0
 24 25  1  0
 25 26  2  0
 26 27  1  0
 27 28  2  0
 28 29  1  0
 15 30  1  0
 30 31  1  0
 11  6  1  0
 31 12  1  0
 29 21  1  0
 28 23  1  0
  1 32  1  0
  1 33  1  0
  1 34  1  0
  2 35  1  0
  2 36  1  0
  7 37  1  0
  8 38  1  0
  9 39  1  0
 10 40  1  0
 11 41  1  0
 12 42  1  0
 13 43  1  0
 13 44  1  0
 14 45  1  0
 14 46  1  0
 18 47  1  0
 18 48  1  0
 19 49  1  1
 20 50  1  0
 20 51  1  0
 21 52  1  0
 22 53  1  0
 22 54  1  0
 24 55  1  0
 25 56  1  0
 26 57  1  0
 27 58  1  0
 29 59  1  0
 29 60  1  0
 30 61  1  0
 30 62  1  0
 31 63  1  0
 31 64  1  0
M  END
>  <smiles>  (80) 
CCC(=O)N(c1ccccc1)C1CCN(C(=O)CC(N)C2Cc3ccccc3C2)CC1

>  <score_type>  (80) 
oracle

>  <origin>  (80) 
autodockgpu

>  <m_score__min__energy>  (80) 
-8.0099999999999998

>  <m_primary>  (80) 
energy

>  <rmsd>  (80) 
7.615103671675078

>  <m_score__min__rmsd>  (80) 
7.615103671675078

>  <meeko>  (80) 
{"free_energy": -7.71, "intermolecular_energy": -10.09, "internal_energy": -1.86, "cluster_size": 9, "cluster_id": 1, "rank_in_cluster": 3}

>  <energy>  (80) 
-7.05

>  <cluster_rmsd>  (80) 
1.51

>  <cluster>  (80) 
3

$$$$

     RDKit          3D

 64 67  0  0  0  0  0  0  0  0999 V2000
  138.7570   68.1400  222.0070 C   0  0  0  0  0  0  0  0  0  0  0  0
  138.8970   69.5800  221.4960 C   0  0  0  0  0  0  0  0  0  0  0  0
  138.6660   70.5440  222.5860 C   0  0  0  0  0  0  0  0  0  0  0  0
  137.4570   70.7310  222.9330 O   0  0  0  0  0  0  0  0  0  0  0  0
  139.6420   71.2810  223.2810 N   0  0  0  0  0  0  0  0  0  0  0  0
  139.9800   70.7760  224.5980 C   0  0  0  0  0  0  0  0  0  0  0  0
  140.6840   71.5560  225.4930 C   0  0  0  0  0  0  0  0  0  0  0  0
  140.9950   71.0620  226.7410 C   0  0  0  0  0  0  0  0  0  0  0  0
  140.6100   69.7910  227.1120 C   0  0  0  0  0  0  0  0  0  0  0  0
  139.9040   69.0050  226.2220 C   0  0  0  0  0  0  0  0  0  0  0  0
  139.5930   69.5010  224.9710 C   0  0  0  0  0  0  0  0  0  0  0  0
  140.3220   72.4660  222.7460 C   0  0  0  0  0  0  0  0  0  0  0  0
  139.4070   73.4280  222.1370 C   0  0  0  0  0  0  0  0  0  0  0  0
  139.5670   73.7980  220.7070 C   0  0  0  0  0  0  0  0  0  0  0  0
  141.0130   73.8700  220.4420 N   0  0  0  0  0  0  0  0  0  0  0  0
  141.6490   75.0660  220.0260 C   0  0  0  0  0  0  0  0  0  0  0  0
  142.8950   75.0060  219.8370 O   0  0  0  0  0  0  0  0  0  0  0  0
  140.8490   76.3010  219.8340 C   0  0  0  0  0  0  0  0  0  0  0  0
  141.6870   77.5330  220.0050 C   0  0  1  0  0  0  0  0  0  0  0  0
  142.9050   77.4210  219.2010 N   0  0  0  0  0  0  0  0  0  0  0  0
  140.9400   78.7730  219.6590 C   0  0  0  0  0  0  0  0  0  0  0  0
  139.8210   78.9890  220.6490 C   0  0  0  0  0  0  0  0  0  0  0  0
  140.6300   79.2700  221.8900 C   0  0  0  0  0  0  0  0  0  0  0  0
  140.3780   79.0210  223.2290 C   0  0  0  0  0  0  0  0  0  0  0  0
  141.2990   79.3860  224.2110 C   0  0  0  0  0  0  0  0  0  0  0  0
  142.4790   80.0060  223.8000 C   0  0  0  0  0  0  0  0  0  0  0  0
  142.7390   80.2560  222.4690 C   0  0  0  0  0  0  0  0  0  0  0  0
  141.8210   79.8930  221.4930 C   0  0  0  0  0  0  0  0  0  0  0  0
  141.8000   80.0130  220.0020 C   0  0  0  0  0  0  0  0  0  0  0  0
  141.7150   72.6210  220.6350 C   0  0  0  0  0  0  0  0  0  0  0  0
  141.4740   71.9970  221.9570 C   0  0  0  0  0  0  0  0  0  0  0  0
  138.7570   68.1397  223.1070 H   0  0  0  0  0  0  0  0  0  0  0  0
  137.8129   67.7109  221.6402 H   0  0  0  0  0  0  0  0  0  0  0  0
  139.6008   67.5371  221.6402 H   0  0  0  0  0  0  0  0  0  0  0  0
  139.9113   69.7240  221.0955 H   0  0  0  0  0  0  0  0  0  0  0  0
  138.1480   69.7503  220.7086 H   0  0  0  0  0  0  0  0  0  0  0  0
  140.9967   72.5719  225.2099 H   0  0  0  0  0  0  0  0  0  0  0  0
  141.5567   71.6886  227.4494 H   0  0  0  0  0  0  0  0  0  0  0  0
  140.8635   69.4053  228.1105 H   0  0  0  0  0  0  0  0  0  0  0  0
  139.5913   67.9899  226.5080 H   0  0  0  0  0  0  0  0  0  0  0  0
  139.0308   68.8748  224.2626 H   0  0  0  0  0  0  0  0  0  0  0  0
  140.7391   73.0994  223.5428 H   0  0  0  0  0  0  0  0  0  0  0  0
  138.3928   73.0167  222.2477 H   0  0  0  0  0  0  0  0  0  0  0  0
  139.6315   74.3644  222.6687 H   0  0  0  0  0  0  0  0  0  0  0  0
  139.1025   73.0352  220.0649 H   0  0  0  0  0  0  0  0  0  0  0  0
  139.0796   74.7606  220.4930 H   0  0  0  0  0  0  0  0  0  0  0  0
  140.4233   76.2966  218.8197 H   0  0  0  0  0  0  0  0  0  0  0  0
  140.0535   76.3175  220.5935 H   0  0  0  0  0  0  0  0  0  0  0  0
  141.9582   77.6100  221.0683 H   0  0  0  0  0  0  0  0  0  0  0  0
  143.7210   77.1320  219.7620 H   0  0  0  0  0  0  0  0  0  0  0  0
  142.7660   76.7010  218.4720 H   0  0  0  0  0  0  0  0  0  0  0  0
  140.6399   78.6675  218.6060 H   0  0  0  0  0  0  0  0  0  0  0  0
  139.1876   79.8442  220.3708 H   0  0  0  0  0  0  0  0  0  0  0  0
  139.1083   78.1557  220.7360 H   0  0  0  0  0  0  0  0  0  0  0  0
  139.4389   78.5288  223.5220 H   0  0  0  0  0  0  0  0  0  0  0  0
  141.1011   79.1912  225.2754 H   0  0  0  0  0  0  0  0  0  0  0  0
  143.2205   80.3029  224.5563 H   0  0  0  0  0  0  0  0  0  0  0  0
  143.6800   80.7463  222.1788 H   0  0  0  0  0  0  0  0  0  0  0  0
  141.3228   80.9476  219.6721 H   0  0  0  0  0  0  0  0  0  0  0  0
  142.7885   80.0453  219.5206 H   0  0  0  0  0  0  0  0  0  0  0  0
  141.3904   71.9167  219.8548 H   0  0  0  0  0  0  0  0  0  0  0  0
  142.7902   72.8461  220.5785 H   0  0  0  0  0  0  0  0  0  0  0  0
  141.3375   70.9185  221.7891 H   0  0  0  0  0  0  0  0  0  0  0  0
  142.3508   72.2810  222.5575 H   0  0  0  0  0  0  0  0  0  0  0  0
  1  2  1  0
  2  3  1  0
  3  4  2  0
  3  5  1  0
  5  6  1  0
  6  7  2  0
  7  8  1  0
  8  9  2  0
  9 10  1  0
 10 11  2  0
  5 12  1  0
 12 13  1  0
 13 14  1  0
 14 15  1  0
 15 16  1  0
 16 17  2  0
 16 18  1  0
 18 19  1  0
 19 20  1  0
 19 21  1  0
 21 22  1  0
 22 23  1  0
 23 24  2  0
 24 25  1  0
 25 26  2  0
 26 27  1  0
 27 28  2  0
 28 29  1  0
 15 30  1  0
 30 31  1  0
 11  6  1  0
 31 12  1  0
 29 21  1  0
 28 23  1  0
  1 32  1  0
  1 33  1  0
  1 34  1  0
  2 35  1  0
  2 36  1  0
  7 37  1  0
  8 38  1  0
  9 39  1  0
 10 40  1  0
 11 41  1  0
 12 42  1  0
 13 43  1  0
 13 44  1  0
 14 45  1  0
 14 46  1  0
 18 47  1  0
 18 48  1  0
 19 49  1  1
 20 50  1  0
 20 51  1  0
 21 52  1  0
 22 53  1  0
 22 54  1  0
 24 55  1  0
 25 56  1  0
 26 57  1  0
 27 58  1  0
 29 59  1  0
 29 60  1  0
 30 61  1  0
 30 62  1  0
 31 63  1  0
 31 64  1  0
M  END
>  <smiles>  (81) 
CCC(=O)N(c1ccccc1)C1CCN(C(=O)CC(N)C2Cc3ccccc3C2)CC1

>  <score_type>  (81) 
oracle

>  <origin>  (81) 
autodockgpu

>  <m_score__min__energy>  (81) 
-8.0099999999999998

>  <m_primary>  (81) 
energy

>  <rmsd>  (81) 
6.465735584535185

>  <m_score__min__rmsd>  (81) 
6.465735584535185

>  <meeko>  (81) 
{"free_energy": -7.2, "intermolecular_energy": -9.59, "internal_energy": -2.44, "cluster_size": 23, "cluster_id": 3, "rank_in_cluster": 5}

>  <energy>  (81) 
-7.01

>  <cluster_rmsd>  (81) 
1.12

>  <cluster>  (81) 
3

$$$$

     RDKit          3D

 64 67  0  0  0  0  0  0  0  0999 V2000
  143.3290   80.5190  223.8490 C   0  0  0  0  0  0  0  0  0  0  0  0
  142.2070   81.5560  223.9860 C   0  0  0  0  0  0  0  0  0  0  0  0
  141.0930   81.2420  223.0750 C   0  0  0  0  0  0  0  0  0  0  0  0
  141.0390   81.9070  221.9920 O   0  0  0  0  0  0  0  0  0  0  0  0
  140.0820   80.2860  223.2780 N   0  0  0  0  0  0  0  0  0  0  0  0
  138.7600   80.8260  223.5360 C   0  0  0  0  0  0  0  0  0  0  0  0
  138.0310   81.4190  222.5250 C   0  0  0  0  0  0  0  0  0  0  0  0
  136.7760   81.9250  222.7870 C   0  0  0  0  0  0  0  0  0  0  0  0
  136.2350   81.8470  224.0520 C   0  0  0  0  0  0  0  0  0  0  0  0
  136.9580   81.2540  225.0680 C   0  0  0  0  0  0  0  0  0  0  0  0
  138.2150   80.7470  224.8050 C   0  0  0  0  0  0  0  0  0  0  0  0
  140.2890   78.8350  223.2150 C   0  0  0  0  0  0  0  0  0  0  0  0
  141.4260   78.4510  222.3830 C   0  0  0  0  0  0  0  0  0  0  0  0
  141.2170   77.5690  221.2060 C   0  0  0  0  0  0  0  0  0  0  0  0
  140.2040   76.5730  221.5920 N   0  0  0  0  0  0  0  0  0  0  0  0
  140.4780   75.1830  221.6180 C   0  0  0  0  0  0  0  0  0  0  0  0
  139.5310   74.4280  221.9730 O   0  0  0  0  0  0  0  0  0  0  0  0
  141.8240   74.6870  221.2380 C   0  0  0  0  0  0  0  0  0  0  0  0
  141.7590   73.7680  220.0560 C   0  0  1  0  0  0  0  0  0  0  0  0
  140.3730   73.3590  219.8190 N   0  0  0  0  0  0  0  0  0  0  0  0
  142.3420   74.3840  218.8320 C   0  0  0  0  0  0  0  0  0  0  0  0
  143.4290   75.3580  219.2190 C   0  0  0  0  0  0  0  0  0  0  0  0
  144.4450   74.3960  219.7800 C   0  0  0  0  0  0  0  0  0  0  0  0
  145.3930   74.5380  220.7800 C   0  0  0  0  0  0  0  0  0  0  0  0
  146.2380   73.4810  221.1200 C   0  0  0  0  0  0  0  0  0  0  0  0
  146.0960   72.2810  220.4230 C   0  0  0  0  0  0  0  0  0  0  0  0
  145.1530   72.1310  219.4270 C   0  0  0  0  0  0  0  0  0  0  0  0
  144.3130   73.1840  219.0880 C   0  0  0  0  0  0  0  0  0  0  0  0
  143.2130   73.3440  218.0880 C   0  0  0  0  0  0  0  0  0  0  0  0
  138.9160   77.1370  221.9290 C   0  0  0  0  0  0  0  0  0  0  0  0
  138.9810   78.2130  222.9470 C   0  0  0  0  0  0  0  0  0  0  0  0
  143.6652   80.2083  224.8492 H   0  0  0  0  0  0  0  0  0  0  0  0
  142.9536   79.6430  223.2998 H   0  0  0  0  0  0  0  0  0  0  0  0
  144.1728   80.9621  223.2998 H   0  0  0  0  0  0  0  0  0  0  0  0
  141.8377   81.5535  225.0221 H   0  0  0  0  0  0  0  0  0  0  0  0
  142.6078   82.5468  223.7258 H   0  0  0  0  0  0  0  0  0  0  0  0
  138.4514   81.4877  221.5108 H   0  0  0  0  0  0  0  0  0  0  0  0
  136.1998   82.3964  221.9772 H   0  0  0  0  0  0  0  0  0  0  0  0
  135.2330   82.2548  224.2512 H   0  0  0  0  0  0  0  0  0  0  0  0
  136.5349   81.1859  226.0811 H   0  0  0  0  0  0  0  0  0  0  0  0
  138.7903   80.2743  225.6147 H   0  0  0  0  0  0  0  0  0  0  0  0
  140.6289   78.4228  224.1766 H   0  0  0  0  0  0  0  0  0  0  0  0
  141.8741   79.3826  222.0070 H   0  0  0  0  0  0  0  0  0  0  0  0
  142.0379   77.8341  223.0576 H   0  0  0  0  0  0  0  0  0  0  0  0
  140.8596   78.1596  220.3496 H   0  0  0  0  0  0  0  0  0  0  0  0
  142.1565   77.0800  220.9088 H   0  0  0  0  0  0  0  0  0  0  0  0
  142.4636   75.5462  220.9876 H   0  0  0  0  0  0  0  0  0  0  0  0
  142.2368   74.1251  222.0888 H   0  0  0  0  0  0  0  0  0  0  0  0
  142.3663   72.8806  220.2876 H   0  0  0  0  0  0  0  0  0  0  0  0
  139.9990   72.7780  220.5840 H   0  0  0  0  0  0  0  0  0  0  0  0
  139.7770   74.2020  219.7570 H   0  0  0  0  0  0  0  0  0  0  0  0
  141.4968   74.8020  218.2655 H   0  0  0  0  0  0  0  0  0  0  0  0
  143.8194   75.9034  218.3471 H   0  0  0  0  0  0  0  0  0  0  0  0
  143.1152   76.1576  219.9062 H   0  0  0  0  0  0  0  0  0  0  0  0
  145.4808   75.4963  221.3129 H   0  0  0  0  0  0  0  0  0  0  0  0
  146.9926   73.5905  221.9129 H   0  0  0  0  0  0  0  0  0  0  0  0
  146.7516   71.4340  220.6735 H   0  0  0  0  0  0  0  0  0  0  0  0
  145.0658   71.1707  218.8977 H   0  0  0  0  0  0  0  0  0  0  0  0
  143.5843   73.7313  217.1277 H   0  0  0  0  0  0  0  0  0  0  0  0
  142.6959   72.4145  217.8076 H   0  0  0  0  0  0  0  0  0  0  0  0
  138.4692   77.5523  221.0136 H   0  0  0  0  0  0  0  0  0  0  0  0
  138.3136   76.3240  222.3606 H   0  0  0  0  0  0  0  0  0  0  0  0
  138.2994   79.0126  222.6214 H   0  0  0  0  0  0  0  0  0  0  0  0
  138.7163   77.7138  223.8908 H   0  0  0  0  0  0  0  0  0  0  0  0
  1  2  1  0
  2  3  1  0
  3  4  2  0
  3  5  1  0
  5  6  1  0
  6  7  2  0
  7  8  1  0
  8  9  2  0
  9 10  1  0
 10 11  2  0
  5 12  1  0
 12 13  1  0
 13 14  1  0
 14 15  1  0
 15 16  1  0
 16 17  2  0
 16 18  1  0
 18 19  1  0
 19 20  1  0
 19 21  1  0
 21 22  1  0
 22 23  1  0
 23 24  2  0
 24 25  1  0
 25 26  2  0
 26 27  1  0
 27 28  2  0
 28 29  1  0
 15 30  1  0
 30 31  1  0
 11  6  1  0
 31 12  1  0
 29 21  1  0
 28 23  1  0
  1 32  1  0
  1 33  1  0
  1 34  1  0
  2 35  1  0
  2 36  1  0
  7 37  1  0
  8 38  1  0
  9 39  1  0
 10 40  1  0
 11 41  1  0
 12 42  1  0
 13 43  1  0
 13 44  1  0
 14 45  1  0
 14 46  1  0
 18 47  1  0
 18 48  1  0
 19 49  1  1
 20 50  1  0
 20 51  1  0
 21 52  1  0
 22 53  1  0
 22 54  1  0
 24 55  1  0
 25 56  1  0
 26 57  1  0
 27 58  1  0
 29 59  1  0
 29 60  1  0
 30 61  1  0
 30 62  1  0
 31 63  1  0
 31 64  1  0
M  END
>  <smiles>  (82) 
CCC(=O)N(c1ccccc1)C1CCN(C(=O)CC(N)C2Cc3ccccc3C2)CC1

>  <score_type>  (82) 
oracle

>  <origin>  (82) 
autodockgpu

>  <m_score__min__energy>  (82) 
-8.0099999999999998

>  <m_primary>  (82) 
energy

>  <rmsd>  (82) 
3.8418342261988734

>  <m_score__min__rmsd>  (82) 
3.8418342261988734

>  <meeko>  (82) 
{"free_energy": -6.87, "intermolecular_energy": -9.26, "internal_energy": -2.42, "cluster_size": 3, "cluster_id": 6, "rank_in_cluster": 1}

>  <energy>  (82) 
-6.86

>  <cluster_rmsd>  (82) 
0.8

>  <cluster>  (82) 
3

$$$$

     RDKit          3D

 64 67  0  0  0  0  0  0  0  0999 V2000
  136.0410   69.5880  224.9530 C   0  0  0  0  0  0  0  0  0  0  0  0
  136.4540   69.3540  223.4940 C   0  0  0  0  0  0  0  0  0  0  0  0
  137.9200   69.2820  223.3730 C   0  0  0  0  0  0  0  0  0  0  0  0
  138.3800   68.4890  222.4910 O   0  0  0  0  0  0  0  0  0  0  0  0
  138.8650   69.9970  224.1310 N   0  0  0  0  0  0  0  0  0  0  0  0
  139.3590   69.3130  225.3110 C   0  0  0  0  0  0  0  0  0  0  0  0
  139.4430   67.9350  225.3440 C   0  0  0  0  0  0  0  0  0  0  0  0
  139.9160   67.3010  226.4720 C   0  0  0  0  0  0  0  0  0  0  0  0
  140.3100   68.0260  227.5750 C   0  0  0  0  0  0  0  0  0  0  0  0
  140.2310   69.4050  227.5500 C   0  0  0  0  0  0  0  0  0  0  0  0
  139.7560   70.0400  226.4190 C   0  0  0  0  0  0  0  0  0  0  0  0
  139.3700   71.3300  223.7830 C   0  0  0  0  0  0  0  0  0  0  0  0
  138.3890   72.1500  223.0780 C   0  0  0  0  0  0  0  0  0  0  0  0
  138.6950   72.6630  221.7170 C   0  0  0  0  0  0  0  0  0  0  0  0
  140.1200   73.0290  221.7080 N   0  0  0  0  0  0  0  0  0  0  0  0
  140.5610   74.3540  221.4690 C   0  0  0  0  0  0  0  0  0  0  0  0
  141.8080   74.5470  221.4930 O   0  0  0  0  0  0  0  0  0  0  0  0
  139.5710   75.4280  221.2070 C   0  0  0  0  0  0  0  0  0  0  0  0
  140.1740   76.7890  221.3860 C   0  0  1  0  0  0  0  0  0  0  0  0
  141.4570   76.8610  220.6860 N   0  0  0  0  0  0  0  0  0  0  0  0
  139.2620   77.8720  220.9250 C   0  0  0  0  0  0  0  0  0  0  0  0
  138.7880   78.6800  222.1090 C   0  0  0  0  0  0  0  0  0  0  0  0
  140.0910   79.3180  222.5200 C   0  0  0  0  0  0  0  0  0  0  0  0
  140.5730   79.7110  223.7580 C   0  0  0  0  0  0  0  0  0  0  0  0
  141.8340   80.2940  223.8830 C   0  0  0  0  0  0  0  0  0  0  0  0
  142.5910   80.4660  222.7230 C   0  0  0  0  0  0  0  0  0  0  0  0
  142.1190   80.0750  221.4870 C   0  0  0  0  0  0  0  0  0  0  0  0
  140.8640   79.4950  221.3640 C   0  0  0  0  0  0  0  0  0  0  0  0
  140.0800   78.9700  220.2040 C   0  0  0  0  0  0  0  0  0  0  0  0
  141.0180   71.9230  221.9520 C   0  0  0  0  0  0  0  0  0  0  0  0
  140.7020   71.1550  223.1800 C   0  0  0  0  0  0  0  0  0  0  0  0
  136.8004   69.1578  225.6225 H   0  0  0  0  0  0  0  0  0  0  0  0
  135.9560   70.6684  225.1413 H   0  0  0  0  0  0  0  0  0  0  0  0
  135.0705   69.1056  225.1413 H   0  0  0  0  0  0  0  0  0  0  0  0
  136.0158   68.4085  223.1419 H   0  0  0  0  0  0  0  0  0  0  0  0
  136.0897   70.1940  222.8843 H   0  0  0  0  0  0  0  0  0  0  0  0
  139.1324   67.3438  224.4700 H   0  0  0  0  0  0  0  0  0  0  0  0
  139.9798   66.2030  226.4921 H   0  0  0  0  0  0  0  0  0  0  0  0
  140.6855   67.5097  228.4708 H   0  0  0  0  0  0  0  0  0  0  0  0
  140.5443   69.9934  228.4250 H   0  0  0  0  0  0  0  0  0  0  0  0
  139.6926   71.1380  226.3991 H   0  0  0  0  0  0  0  0  0  0  0  0
  139.5211   71.9612  224.6711 H   0  0  0  0  0  0  0  0  0  0  0  0
  137.4729   71.5472  222.9924 H   0  0  0  0  0  0  0  0  0  0  0  0
  138.3353   73.0636  223.6883 H   0  0  0  0  0  0  0  0  0  0  0  0
  138.5001   71.8830  220.9662 H   0  0  0  0  0  0  0  0  0  0  0  0
  138.0644   73.5305  221.4725 H   0  0  0  0  0  0  0  0  0  0  0  0
  139.2054   75.3324  220.1740 H   0  0  0  0  0  0  0  0  0  0  0  0
  138.7463   75.3193  221.9268 H   0  0  0  0  0  0  0  0  0  0  0  0
  140.3376   76.9447  222.4626 H   0  0  0  0  0  0  0  0  0  0  0  0
  142.2580   76.7090  221.3180 H   0  0  0  0  0  0  0  0  0  0  0  0
  141.4930   76.1190  219.9660 H   0  0  0  0  0  0  0  0  0  0  0  0
  138.4778   77.3815  220.3297 H   0  0  0  0  0  0  0  0  0  0  0  0
  138.0383   79.4307  221.8186 H   0  0  0  0  0  0  0  0  0  0  0  0
  138.2838   78.1008  222.8966 H   0  0  0  0  0  0  0  0  0  0  0  0
  139.9530   79.5613  224.6542 H   0  0  0  0  0  0  0  0  0  0  0  0
  142.2195   80.6081  224.8642 H   0  0  0  0  0  0  0  0  0  0  0  0
  143.5882   80.9245  222.7961 H   0  0  0  0  0  0  0  0  0  0  0  0
  142.7417   80.2240  220.5926 H   0  0  0  0  0  0  0  0  0  0  0  0
  139.4319   79.7420  219.7636 H   0  0  0  0  0  0  0  0  0  0  0  0
  140.6815   78.6220  219.3513 H   0  0  0  0  0  0  0  0  0  0  0  0
  140.9669   71.2387  221.0923 H   0  0  0  0  0  0  0  0  0  0  0  0
  142.0220   72.3504  222.0911 H   0  0  0  0  0  0  0  0  0  0  0  0
  140.8125   70.0882  222.9357 H   0  0  0  0  0  0  0  0  0  0  0  0
  141.3985   71.5475  223.9355 H   0  0  0  0  0  0  0  0  0  0  0  0
  1  2  1  0
  2  3  1  0
  3  4  2  0
  3  5  1  0
  5  6  1  0
  6  7  2  0
  7  8  1  0
  8  9  2  0
  9 10  1  0
 10 11  2  0
  5 12  1  0
 12 13  1  0
 13 14  1  0
 14 15  1  0
 15 16  1  0
 16 17  2  0
 16 18  1  0
 18 19  1  0
 19 20  1  0
 19 21  1  0
 21 22  1  0
 22 23  1  0
 23 24  2  0
 24 25  1  0
 25 26  2  0
 26 27  1  0
 27 28  2  0
 28 29  1  0
 15 30  1  0
 30 31  1  0
 11  6  1  0
 31 12  1  0
 29 21  1  0
 28 23  1  0
  1 32  1  0
  1 33  1  0
  1 34  1  0
  2 35  1  0
  2 36  1  0
  7 37  1  0
  8 38  1  0
  9 39  1  0
 10 40  1  0
 11 41  1  0
 12 42  1  0
 13 43  1  0
 13 44  1  0
 14 45  1  0
 14 46  1  0
 18 47  1  0
 18 48  1  0
 19 49  1  1
 20 50  1  0
 20 51  1  0
 21 52  1  0
 22 53  1  0
 22 54  1  0
 24 55  1  0
 25 56  1  0
 26 57  1  0
 27 58  1  0
 29 59  1  0
 29 60  1  0
 30 61  1  0
 30 62  1  0
 31 63  1  0
 31 64  1  0
M  END
>  <smiles>  (83) 
CCC(=O)N(c1ccccc1)C1CCN(C(=O)CC(N)C2Cc3ccccc3C2)CC1

>  <score_type>  (83) 
oracle

>  <origin>  (83) 
autodockgpu

>  <m_score__min__energy>  (83) 
-8.0099999999999998

>  <m_primary>  (83) 
energy

>  <rmsd>  (83) 
7.077599403592553

>  <m_score__min__rmsd>  (83) 
7.077599403592553

>  <meeko>  (83) 
{"free_energy": -7.13, "intermolecular_energy": -9.51, "internal_energy": -2.24, "cluster_size": 23, "cluster_id": 3, "rank_in_cluster": 16}

>  <energy>  (83) 
-6.86

>  <cluster_rmsd>  (83) 
0.92

>  <cluster>  (83) 
3

$$$$

     RDKit          3D

 64 67  0  0  0  0  0  0  0  0999 V2000
  136.5830   69.7210  223.6510 C   0  0  0  0  0  0  0  0  0  0  0  0
  137.1900   70.7760  222.7180 C   0  0  0  0  0  0  0  0  0  0  0  0
  138.6480   70.5950  222.6050 C   0  0  0  0  0  0  0  0  0  0  0  0
  139.0480   69.6920  221.8030 O   0  0  0  0  0  0  0  0  0  0  0  0
  139.6430   71.3130  223.2920 N   0  0  0  0  0  0  0  0  0  0  0  0
  139.9960   70.7900  224.5980 C   0  0  0  0  0  0  0  0  0  0  0  0
  139.6470   69.5040  224.9600 C   0  0  0  0  0  0  0  0  0  0  0  0
  139.9910   69.0210  226.2040 C   0  0  0  0  0  0  0  0  0  0  0  0
  140.6840   69.8080  227.0980 C   0  0  0  0  0  0  0  0  0  0  0  0
  141.0380   71.0960  226.7430 C   0  0  0  0  0  0  0  0  0  0  0  0
  140.6920   71.5790  225.4960 C   0  0  0  0  0  0  0  0  0  0  0  0
  140.3270   72.4970  222.7600 C   0  0  0  0  0  0  0  0  0  0  0  0
  139.4160   73.4640  222.1550 C   0  0  0  0  0  0  0  0  0  0  0  0
  139.5750   73.8370  220.7250 C   0  0  0  0  0  0  0  0  0  0  0  0
  141.0210   73.9040  220.4590 N   0  0  0  0  0  0  0  0  0  0  0  0
  141.6620   75.0980  220.0450 C   0  0  0  0  0  0  0  0  0  0  0  0
  142.9070   75.0340  219.8540 O   0  0  0  0  0  0  0  0  0  0  0  0
  140.8670   76.3380  219.8570 C   0  0  0  0  0  0  0  0  0  0  0  0
  141.7160   77.5640  220.0040 C   0  0  1  0  0  0  0  0  0  0  0  0
  142.9220   77.4360  219.1840 N   0  0  0  0  0  0  0  0  0  0  0  0
  140.9730   78.8070  219.6560 C   0  0  0  0  0  0  0  0  0  0  0  0
  139.8540   79.0270  220.6450 C   0  0  0  0  0  0  0  0  0  0  0  0
  140.6620   79.3060  221.8860 C   0  0  0  0  0  0  0  0  0  0  0  0
  140.4070   79.0590  223.2250 C   0  0  0  0  0  0  0  0  0  0  0  0
  141.3280   79.4220  224.2080 C   0  0  0  0  0  0  0  0  0  0  0  0
  142.5100   80.0390  223.7980 C   0  0  0  0  0  0  0  0  0  0  0  0
  142.7730   80.2870  222.4670 C   0  0  0  0  0  0  0  0  0  0  0  0
  141.8550   79.9260  221.4900 C   0  0  0  0  0  0  0  0  0  0  0  0
  141.8360   80.0440  219.9990 C   0  0  0  0  0  0  0  0  0  0  0  0
  141.7180   72.6520  220.6470 C   0  0  0  0  0  0  0  0  0  0  0  0
  141.4760   72.0250  221.9680 C   0  0  0  0  0  0  0  0  0  0  0  0
  136.7525   70.0156  224.6972 H   0  0  0  0  0  0  0  0  0  0  0  0
  135.5021   69.6432  223.4625 H   0  0  0  0  0  0  0  0  0  0  0  0
  137.0590   68.7474  223.4625 H   0  0  0  0  0  0  0  0  0  0  0  0
  136.7359   70.6800  221.7207 H   0  0  0  0  0  0  0  0  0  0  0  0
  136.9890   71.7740  223.1347 H   0  0  0  0  0  0  0  0  0  0  0  0
  139.0944   68.8651  224.2554 H   0  0  0  0  0  0  0  0  0  0  0  0
  139.7093   67.9959  226.4864 H   0  0  0  0  0  0  0  0  0  0  0  0
  140.9540   69.4134  228.0887 H   0  0  0  0  0  0  0  0  0  0  0  0
  141.5917   71.7324  227.4490 H   0  0  0  0  0  0  0  0  0  0  0  0
  140.9735   72.6041  225.2135 H   0  0  0  0  0  0  0  0  0  0  0  0
  140.7472   73.1266  223.5582 H   0  0  0  0  0  0  0  0  0  0  0  0
  138.4002   73.0570  222.2666 H   0  0  0  0  0  0  0  0  0  0  0  0
  139.6461   74.3981  222.6884 H   0  0  0  0  0  0  0  0  0  0  0  0
  139.1068   73.0775  220.0816 H   0  0  0  0  0  0  0  0  0  0  0  0
  139.0906   74.8017  220.5135 H   0  0  0  0  0  0  0  0  0  0  0  0
  140.4239   76.3290  218.8502 H   0  0  0  0  0  0  0  0  0  0  0  0
  140.0846   76.3661  220.6297 H   0  0  0  0  0  0  0  0  0  0  0  0
  142.0028   77.6483  221.0626 H   0  0  0  0  0  0  0  0  0  0  0  0
  143.7430   77.1460  219.7360 H   0  0  0  0  0  0  0  0  0  0  0  0
  142.7670   76.7090  218.4650 H   0  0  0  0  0  0  0  0  0  0  0  0
  140.6738   78.7018  218.6027 H   0  0  0  0  0  0  0  0  0  0  0  0
  139.2235   79.8840  220.3658 H   0  0  0  0  0  0  0  0  0  0  0  0
  139.1388   78.1958  220.7318 H   0  0  0  0  0  0  0  0  0  0  0  0
  139.4659   78.5702  223.5171 H   0  0  0  0  0  0  0  0  0  0  0  0
  141.1285   79.2279  225.2722 H   0  0  0  0  0  0  0  0  0  0  0  0
  143.2509   80.3352  224.5552 H   0  0  0  0  0  0  0  0  0  0  0  0
  143.7160   80.7739  222.1777 H   0  0  0  0  0  0  0  0  0  0  0  0
  141.3621   80.9797  219.6674 H   0  0  0  0  0  0  0  0  0  0  0  0
  142.8253   80.0724  219.5189 H   0  0  0  0  0  0  0  0  0  0  0  0
  141.3895   71.9514  219.8652 H   0  0  0  0  0  0  0  0  0  0  0  0
  142.7941   72.8727  220.5895 H   0  0  0  0  0  0  0  0  0  0  0  0
  141.3344   70.9476  221.7972 H   0  0  0  0  0  0  0  0  0  0  0  0
  142.3549   72.3033  222.5681 H   0  0  0  0  0  0  0  0  0  0  0  0
  1  2  1  0
  2  3  1  0
  3  4  2  0
  3  5  1  0
  5  6  1  0
  6  7  2  0
  7  8  1  0
  8  9  2  0
  9 10  1  0
 10 11  2  0
  5 12  1  0
 12 13  1  0
 13 14  1  0
 14 15  1  0
 15 16  1  0
 16 17  2  0
 16 18  1  0
 18 19  1  0
 19 20  1  0
 19 21  1  0
 21 22  1  0
 22 23  1  0
 23 24  2  0
 24 25  1  0
 25 26  2  0
 26 27  1  0
 27 28  2  0
 28 29  1  0
 15 30  1  0
 30 31  1  0
 11  6  1  0
 31 12  1  0
 29 21  1  0
 28 23  1  0
  1 32  1  0
  1 33  1  0
  1 34  1  0
  2 35  1  0
  2 36  1  0
  7 37  1  0
  8 38  1  0
  9 39  1  0
 10 40  1  0
 11 41  1  0
 12 42  1  0
 13 43  1  0
 13 44  1  0
 14 45  1  0
 14 46  1  0
 18 47  1  0
 18 48  1  0
 19 49  1  1
 20 50  1  0
 20 51  1  0
 21 52  1  0
 22 53  1  0
 22 54  1  0
 24 55  1  0
 25 56  1  0
 26 57  1  0
 27 58  1  0
 29 59  1  0
 29 60  1  0
 30 61  1  0
 30 62  1  0
 31 63  1  0
 31 64  1  0
M  END
>  <smiles>  (84) 
CCC(=O)N(c1ccccc1)C1CCN(C(=O)CC(N)C2Cc3ccccc3C2)CC1

>  <score_type>  (84) 
oracle

>  <origin>  (84) 
autodockgpu

>  <m_score__min__energy>  (84) 
-8.0099999999999998

>  <m_primary>  (84) 
energy

>  <rmsd>  (84) 
6.456538159307221

>  <m_score__min__rmsd>  (84) 
6.456538159307221

>  <meeko>  (84) 
{"free_energy": -7.21, "intermolecular_energy": -9.6, "internal_energy": -2.42, "cluster_size": 23, "cluster_id": 3, "rank_in_cluster": 2}

>  <energy>  (84) 
-6.74

>  <cluster_rmsd>  (84) 
1.26

>  <cluster>  (84) 
3

$$$$

     RDKit          3D

 64 67  0  0  0  0  0  0  0  0999 V2000
  141.8470   76.9060  220.2060 C   0  0  0  0  0  0  0  0  0  0  0  0
  142.1590   76.3860  218.7970 C   0  0  0  0  0  0  0  0  0  0  0  0
  141.8290   74.9550  218.6850 C   0  0  0  0  0  0  0  0  0  0  0  0
  141.3840   74.5600  217.5610 O   0  0  0  0  0  0  0  0  0  0  0  0
  141.9540   73.9800  219.6910 N   0  0  0  0  0  0  0  0  0  0  0  0
  143.3120   73.5640  219.9870 C   0  0  0  0  0  0  0  0  0  0  0  0
  143.7140   72.2620  219.7650 C   0  0  0  0  0  0  0  0  0  0  0  0
  145.0080   71.8830  220.0500 C   0  0  0  0  0  0  0  0  0  0  0  0
  145.9130   72.7910  220.5550 C   0  0  0  0  0  0  0  0  0  0  0  0
  145.5190   74.0960  220.7780 C   0  0  0  0  0  0  0  0  0  0  0  0
  144.2210   74.4750  220.4930 C   0  0  0  0  0  0  0  0  0  0  0  0
  140.8260   73.4120  220.4390 C   0  0  0  0  0  0  0  0  0  0  0  0
  141.0870   73.2940  221.8710 C   0  0  0  0  0  0  0  0  0  0  0  0
  141.0290   71.9600  222.5250 C   0  0  0  0  0  0  0  0  0  0  0  0
  139.9140   71.2280  221.9050 N   0  0  0  0  0  0  0  0  0  0  0  0
  138.7910   70.7860  222.6470 C   0  0  0  0  0  0  0  0  0  0  0  0
  137.8940   70.1740  222.0040 O   0  0  0  0  0  0  0  0  0  0  0  0
  138.7160   71.0520  224.1050 C   0  0  0  0  0  0  0  0  0  0  0  0
  138.2920   69.8330  224.8670 C   0  0  1  0  0  0  0  0  0  0  0  0
  137.1700   69.1850  224.1840 N   0  0  0  0  0  0  0  0  0  0  0  0
  139.4130   68.8730  225.0620 C   0  0  0  0  0  0  0  0  0  0  0  0
  140.7320   69.6030  224.9690 C   0  0  0  0  0  0  0  0  0  0  0  0
  140.6370   70.4590  226.2060 C   0  0  0  0  0  0  0  0  0  0  0  0
  141.1420   71.7160  226.4960 C   0  0  0  0  0  0  0  0  0  0  0  0
  140.9190   72.3080  227.7390 C   0  0  0  0  0  0  0  0  0  0  0  0
  140.1720   71.5940  228.6770 C   0  0  0  0  0  0  0  0  0  0  0  0
  139.6650   70.3420  228.3950 C   0  0  0  0  0  0  0  0  0  0  0  0
  139.8880   69.7540  227.1580 C   0  0  0  0  0  0  0  0  0  0  0  0
  139.4850   68.4500  226.5490 C   0  0  0  0  0  0  0  0  0  0  0  0
  140.0730   70.9930  220.4870 C   0  0  0  0  0  0  0  0  0  0  0  0
  140.3670   72.2190  219.7070 C   0  0  0  0  0  0  0  0  0  0  0  0
  142.2625   76.2134  220.9528 H   0  0  0  0  0  0  0  0  0  0  0  0
  142.2975   77.9008  220.3378 H   0  0  0  0  0  0  0  0  0  0  0  0
  140.7572   76.9766  220.3378 H   0  0  0  0  0  0  0  0  0  0  0  0
  141.5656   76.9518  218.0637 H   0  0  0  0  0  0  0  0  0  0  0  0
  143.2335   76.5174  218.6016 H   0  0  0  0  0  0  0  0  0  0  0  0
  143.0018   71.5275  219.3608 H   0  0  0  0  0  0  0  0  0  0  0  0
  145.3219   70.8438  219.8723 H   0  0  0  0  0  0  0  0  0  0  0  0
  146.9435   72.4784  220.7793 H   0  0  0  0  0  0  0  0  0  0  0  0
  146.2340   74.8290  221.1799 H   0  0  0  0  0  0  0  0  0  0  0  0
  143.9070   75.5141  220.6708 H   0  0  0  0  0  0  0  0  0  0  0  0
  139.9644   74.0949  220.4742 H   0  0  0  0  0  0  0  0  0  0  0  0
  142.0986   73.6899  222.0441 H   0  0  0  0  0  0  0  0  0  0  0  0
  140.2486   73.8393  222.3289 H   0  0  0  0  0  0  0  0  0  0  0  0
  141.9729   71.4185  222.3641 H   0  0  0  0  0  0  0  0  0  0  0  0
  140.8793   72.0598  223.6102 H   0  0  0  0  0  0  0  0  0  0  0  0
  139.7072   71.3690  224.4615 H   0  0  0  0  0  0  0  0  0  0  0  0
  137.9675   71.8404  224.2729 H   0  0  0  0  0  0  0  0  0  0  0  0
  137.9719   70.1580  225.8680 H   0  0  0  0  0  0  0  0  0  0  0  0
  136.5450   69.8650  223.7250 H   0  0  0  0  0  0  0  0  0  0  0  0
  137.5370   68.5620  223.4460 H   0  0  0  0  0  0  0  0  0  0  0  0
  139.2550   68.0633  224.3344 H   0  0  0  0  0  0  0  0  0  0  0  0
  141.5865   68.9118  225.0141 H   0  0  0  0  0  0  0  0  0  0  0  0
  140.8939   70.1552  224.0315 H   0  0  0  0  0  0  0  0  0  0  0  0
  141.7268   72.2545  225.7357 H   0  0  0  0  0  0  0  0  0  0  0  0
  141.3191   73.3057  227.9725 H   0  0  0  0  0  0  0  0  0  0  0  0
  139.9829   72.0399  229.6646 H   0  0  0  0  0  0  0  0  0  0  0  0
  139.0796   69.8060  229.1566 H   0  0  0  0  0  0  0  0  0  0  0  0
  140.2402   67.6680  226.7169 H   0  0  0  0  0  0  0  0  0  0  0  0
  138.5627   68.0090  226.9552 H   0  0  0  0  0  0  0  0  0  0  0  0
  140.9014   70.2837  220.3437 H   0  0  0  0  0  0  0  0  0  0  0  0
  139.1142   70.6003  220.1176 H   0  0  0  0  0  0  0  0  0  0  0  0
  141.1489   71.9624  218.9771 H   0  0  0  0  0  0  0  0  0  0  0  0
  139.3957   72.5140  219.2833 H   0  0  0  0  0  0  0  0  0  0  0  0
  1  2  1  0
  2  3  1  0
  3  4  2  0
  3  5  1  0
  5  6  1  0
  6  7  2  0
  7  8  1  0
  8  9  2  0
  9 10  1  0
 10 11  2  0
  5 12  1  0
 12 13  1  0
 13 14  1  0
 14 15  1  0
 15 16  1  0
 16 17  2  0
 16 18  1  0
 18 19  1  0
 19 20  1  0
 19 21  1  0
 21 22  1  0
 22 23  1  0
 23 24  2  0
 24 25  1  0
 25 26  2  0
 26 27  1  0
 27 28  2  0
 28 29  1  0
 15 30  1  0
 30 31  1  0
 11  6  1  0
 31 12  1  0
 29 21  1  0
 28 23  1  0
  1 32  1  0
  1 33  1  0
  1 34  1  0
  2 35  1  0
  2 36  1  0
  7 37  1  0
  8 38  1  0
  9 39  1  0
 10 40  1  0
 11 41  1  0
 12 42  1  0
 13 43  1  0
 13 44  1  0
 14 45  1  0
 14 46  1  0
 18 47  1  0
 18 48  1  0
 19 49  1  1
 20 50  1  0
 20 51  1  0
 21 52  1  0
 22 53  1  0
 22 54  1  0
 24 55  1  0
 25 56  1  0
 26 57  1  0
 27 58  1  0
 29 59  1  0
 29 60  1  0
 30 61  1  0
 30 62  1  0
 31 63  1  0
 31 64  1  0
M  END
>  <smiles>  (85) 
CCC(=O)N(c1ccccc1)C1CCN(C(=O)CC(N)C2Cc3ccccc3C2)CC1

>  <score_type>  (85) 
oracle

>  <origin>  (85) 
autodockgpu

>  <m_score__min__energy>  (85) 
-8.0099999999999998

>  <m_primary>  (85) 
energy

>  <rmsd>  (85) 
9.249318905001518

>  <m_score__min__rmsd>  (85) 
9.249318905001518

>  <meeko>  (85) 
{"free_energy": -6.92, "intermolecular_energy": -9.31, "internal_energy": -2.66, "cluster_size": 7, "cluster_id": 4, "rank_in_cluster": 2}

>  <energy>  (85) 
-6.97

>  <cluster_rmsd>  (85) 
0.0

>  <cluster>  (85) 
4

$$$$

     RDKit          3D

 64 67  0  0  0  0  0  0  0  0999 V2000
  136.9700   71.4630  223.5090 C   0  0  0  0  0  0  0  0  0  0  0  0
  137.4760   70.4090  222.5140 C   0  0  0  0  0  0  0  0  0  0  0  0
  138.9480   70.3890  222.4810 C   0  0  0  0  0  0  0  0  0  0  0  0
  139.4880   69.5730  221.6680 O   0  0  0  0  0  0  0  0  0  0  0  0
  139.8200   71.1750  223.2560 N   0  0  0  0  0  0  0  0  0  0  0  0
  140.0550   70.6940  224.6050 C   0  0  0  0  0  0  0  0  0  0  0  0
  140.7000   71.4870  225.5330 C   0  0  0  0  0  0  0  0  0  0  0  0
  140.9130   71.0170  226.8100 C   0  0  0  0  0  0  0  0  0  0  0  0
  140.4900   69.7580  227.1770 C   0  0  0  0  0  0  0  0  0  0  0  0
  139.8430   68.9590  226.2550 C   0  0  0  0  0  0  0  0  0  0  0  0
  139.6300   69.4310  224.9740 C   0  0  0  0  0  0  0  0  0  0  0  0
  140.4920   72.3860  222.7740 C   0  0  0  0  0  0  0  0  0  0  0  0
  139.5690   73.3790  222.2310 C   0  0  0  0  0  0  0  0  0  0  0  0
  139.7080   73.8230  220.8190 C   0  0  0  0  0  0  0  0  0  0  0  0
  141.1490   73.9100  220.5370 N   0  0  0  0  0  0  0  0  0  0  0  0
  141.7800   75.1260  220.1750 C   0  0  0  0  0  0  0  0  0  0  0  0
  143.0230   75.0770  219.9640 O   0  0  0  0  0  0  0  0  0  0  0  0
  140.9780   76.3700  220.0600 C   0  0  0  0  0  0  0  0  0  0  0  0
  141.8520   77.5870  220.0100 C   0  0  1  0  0  0  0  0  0  0  0  0
  142.9490   77.3730  219.0650 N   0  0  0  0  0  0  0  0  0  0  0  0
  141.0860   78.8140  219.6580 C   0  0  0  0  0  0  0  0  0  0  0  0
  139.9520   79.0070  220.6370 C   0  0  0  0  0  0  0  0  0  0  0  0
  140.7420   79.2990  221.8880 C   0  0  0  0  0  0  0  0  0  0  0  0
  140.4780   79.0410  223.2230 C   0  0  0  0  0  0  0  0  0  0  0  0
  141.3810   79.4200  224.2160 C   0  0  0  0  0  0  0  0  0  0  0  0
  142.5540   80.0630  223.8210 C   0  0  0  0  0  0  0  0  0  0  0  0
  142.8250   80.3220  222.4930 C   0  0  0  0  0  0  0  0  0  0  0  0
  141.9260   79.9450  221.5060 C   0  0  0  0  0  0  0  0  0  0  0  0
  141.9190   80.0690  220.0160 C   0  0  0  0  0  0  0  0  0  0  0  0
  141.8530   72.6530  220.6530 C   0  0  0  0  0  0  0  0  0  0  0  0
  141.6320   71.9590  221.9450 C   0  0  0  0  0  0  0  0  0  0  0  0
  137.1400   71.1088  224.5364 H   0  0  0  0  0  0  0  0  0  0  0  0
  137.5134   72.4064  223.3517 H   0  0  0  0  0  0  0  0  0  0  0  0
  135.8940   71.6290  223.3517 H   0  0  0  0  0  0  0  0  0  0  0  0
  137.1081   69.4183  222.8192 H   0  0  0  0  0  0  0  0  0  0  0  0
  137.1031   70.6620  221.5106 H   0  0  0  0  0  0  0  0  0  0  0  0
  141.0436   72.4936  225.2527 H   0  0  0  0  0  0  0  0  0  0  0  0
  141.4266   71.6539  227.5452 H   0  0  0  0  0  0  0  0  0  0  0  0
  140.6668   69.3913  228.1989 H   0  0  0  0  0  0  0  0  0  0  0  0
  139.4994   67.9533  226.5386 H   0  0  0  0  0  0  0  0  0  0  0  0
  139.1161   68.7943  224.2388 H   0  0  0  0  0  0  0  0  0  0  0  0
  140.9211   72.9774  223.5963 H   0  0  0  0  0  0  0  0  0  0  0  0
  138.5561   72.9631  222.3358 H   0  0  0  0  0  0  0  0  0  0  0  0
  139.8024   74.2862  222.8076 H   0  0  0  0  0  0  0  0  0  0  0  0
  139.2342   73.0940  220.1451 H   0  0  0  0  0  0  0  0  0  0  0  0
  139.2173   74.7949  220.6623 H   0  0  0  0  0  0  0  0  0  0  0  0
  140.3773   76.3238  219.1396 H   0  0  0  0  0  0  0  0  0  0  0  0
  140.3320   76.4463  220.9471 H   0  0  0  0  0  0  0  0  0  0  0  0
  142.2650   77.7457  221.0171 H   0  0  0  0  0  0  0  0  0  0  0  0
  143.8310   77.1250  219.5370 H   0  0  0  0  0  0  0  0  0  0  0  0
  142.7080   76.5870  218.4370 H   0  0  0  0  0  0  0  0  0  0  0  0
  140.8001   78.7059  218.6013 H   0  0  0  0  0  0  0  0  0  0  0  0
  139.3063   79.8514  220.3542 H   0  0  0  0  0  0  0  0  0  0  0  0
  139.2537   78.1605  220.7139 H   0  0  0  0  0  0  0  0  0  0  0  0
  139.5446   78.5309  223.5035 H   0  0  0  0  0  0  0  0  0  0  0  0
  141.1746   79.2181  225.2774 H   0  0  0  0  0  0  0  0  0  0  0  0
  143.2809   80.3712  224.5869 H   0  0  0  0  0  0  0  0  0  0  0  0
  143.7599   80.8307  222.2152 H   0  0  0  0  0  0  0  0  0  0  0  0
  141.4281   80.9956  219.6838 H   0  0  0  0  0  0  0  0  0  0  0  0
  142.9123   80.1208  219.5462 H   0  0  0  0  0  0  0  0  0  0  0  0
  141.5160   71.9909  219.8418 H   0  0  0  0  0  0  0  0  0  0  0  0
  142.9273   72.8812  220.5921 H   0  0  0  0  0  0  0  0  0  0  0  0
  141.4926   70.8908  221.7227 H   0  0  0  0  0  0  0  0  0  0  0  0
  142.5180   72.2104  222.5465 H   0  0  0  0  0  0  0  0  0  0  0  0
  1  2  1  0
  2  3  1  0
  3  4  2  0
  3  5  1  0
  5  6  1  0
  6  7  2  0
  7  8  1  0
  8  9  2  0
  9 10  1  0
 10 11  2  0
  5 12  1  0
 12 13  1  0
 13 14  1  0
 14 15  1  0
 15 16  1  0
 16 17  2  0
 16 18  1  0
 18 19  1  0
 19 20  1  0
 19 21  1  0
 21 22  1  0
 22 23  1  0
 23 24  2  0
 24 25  1  0
 25 26  2  0
 26 27  1  0
 27 28  2  0
 28 29  1  0
 15 30  1  0
 30 31  1  0
 11  6  1  0
 31 12  1  0
 29 21  1  0
 28 23  1  0
  1 32  1  0
  1 33  1  0
  1 34  1  0
  2 35  1  0
  2 36  1  0
  7 37  1  0
  8 38  1  0
  9 39  1  0
 10 40  1  0
 11 41  1  0
 12 42  1  0
 13 43  1  0
 13 44  1  0
 14 45  1  0
 14 46  1  0
 18 47  1  0
 18 48  1  0
 19 49  1  1
 20 50  1  0
 20 51  1  0
 21 52  1  0
 22 53  1  0
 22 54  1  0
 24 55  1  0
 25 56  1  0
 26 57  1  0
 27 58  1  0
 29 59  1  0
 29 60  1  0
 30 61  1  0
 30 62  1  0
 31 63  1  0
 31 64  1  0
M  END
>  <smiles>  (86) 
CCC(=O)N(c1ccccc1)C1CCN(C(=O)CC(N)C2Cc3ccccc3C2)CC1

>  <score_type>  (86) 
oracle

>  <origin>  (86) 
autodockgpu

>  <m_score__min__energy>  (86) 
-8.0099999999999998

>  <m_primary>  (86) 
energy

>  <rmsd>  (86) 
6.5028146359148735

>  <m_score__min__rmsd>  (86) 
6.5028146359148735

>  <meeko>  (86) 
{"free_energy": -7.18, "intermolecular_energy": -9.56, "internal_energy": -2.49, "cluster_size": 23, "cluster_id": 3, "rank_in_cluster": 11}

>  <energy>  (86) 
-6.92

>  <cluster_rmsd>  (86) 
0.47

>  <cluster>  (86) 
4

$$$$

     RDKit          3D

 64 67  0  0  0  0  0  0  0  0999 V2000
  143.4740   76.1440  219.6800 C   0  0  0  0  0  0  0  0  0  0  0  0
  142.4820   77.1480  219.0800 C   0  0  0  0  0  0  0  0  0  0  0  0
  141.2240   77.1580  219.8450 C   0  0  0  0  0  0  0  0  0  0  0  0
  140.1510   77.2850  219.1740 O   0  0  0  0  0  0  0  0  0  0  0  0
  141.0840   77.0440  221.2400 N   0  0  0  0  0  0  0  0  0  0  0  0
  141.4560   78.2230  221.9990 C   0  0  0  0  0  0  0  0  0  0  0  0
  141.8120   79.3920  221.3570 C   0  0  0  0  0  0  0  0  0  0  0  0
  142.1600   80.5040  222.0920 C   0  0  0  0  0  0  0  0  0  0  0  0
  142.1590   80.4650  223.4700 C   0  0  0  0  0  0  0  0  0  0  0  0
  141.8030   79.3000  224.1210 C   0  0  0  0  0  0  0  0  0  0  0  0
  141.4540   78.1860  223.3820 C   0  0  0  0  0  0  0  0  0  0  0  0
  140.5770   75.8510  221.9280 C   0  0  0  0  0  0  0  0  0  0  0  0
  141.3180   74.6370  221.5950 C   0  0  0  0  0  0  0  0  0  0  0  0
  140.6110   73.4840  220.9800 C   0  0  0  0  0  0  0  0  0  0  0  0
  139.2890   73.4010  221.6210 N   0  0  0  0  0  0  0  0  0  0  0  0
  138.8770   72.2680  222.3660 C   0  0  0  0  0  0  0  0  0  0  0  0
  137.7230   72.3160  222.8750 O   0  0  0  0  0  0  0  0  0  0  0  0
  139.7890   71.1070  222.5120 C   0  0  0  0  0  0  0  0  0  0  0  0
  139.6830   70.4900  223.8750 C   0  0  1  0  0  0  0  0  0  0  0  0
  139.4970   71.5370  224.8810 N   0  0  0  0  0  0  0  0  0  0  0  0
  138.5870   69.4860  223.9530 C   0  0  0  0  0  0  0  0  0  0  0  0
  139.1680   68.1110  224.1800 C   0  0  0  0  0  0  0  0  0  0  0  0
  139.7240   68.2970  225.5700 C   0  0  0  0  0  0  0  0  0  0  0  0
  140.8180   67.7330  226.2050 C   0  0  0  0  0  0  0  0  0  0  0  0
  141.1300   68.0680  227.5230 C   0  0  0  0  0  0  0  0  0  0  0  0
  140.3080   68.9870  228.1760 C   0  0  0  0  0  0  0  0  0  0  0  0
  139.2170   69.5530  227.5490 C   0  0  0  0  0  0  0  0  0  0  0  0
  138.9070   69.2190  226.2380 C   0  0  0  0  0  0  0  0  0  0  0  0
  137.8290   69.6440  225.2930 C   0  0  0  0  0  0  0  0  0  0  0  0
  138.4550   74.5640  221.4150 C   0  0  0  0  0  0  0  0  0  0  0  0
  139.1120   75.8430  221.7760 C   0  0  0  0  0  0  0  0  0  0  0  0
  143.4260   76.1926  220.7779 H   0  0  0  0  0  0  0  0  0  0  0  0
  143.2149   75.1284  219.3462 H   0  0  0  0  0  0  0  0  0  0  0  0
  144.4926   76.3909  219.3462 H   0  0  0  0  0  0  0  0  0  0  0  0
  142.9271   78.1536  219.1041 H   0  0  0  0  0  0  0  0  0  0  0  0
  142.2630   76.8520  218.0435 H   0  0  0  0  0  0  0  0  0  0  0  0
  141.8178   79.4357  220.2579 H   0  0  0  0  0  0  0  0  0  0  0  0
  142.4416   81.4326  221.5740 H   0  0  0  0  0  0  0  0  0  0  0  0
  142.4404   81.3574  224.0483 H   0  0  0  0  0  0  0  0  0  0  0  0
  141.7974   79.2594  225.2202 H   0  0  0  0  0  0  0  0  0  0  0  0
  141.1709   77.2577  223.8999 H   0  0  0  0  0  0  0  0  0  0  0  0
  140.7690   75.8829  223.0106 H   0  0  0  0  0  0  0  0  0  0  0  0
  142.1141   74.9319  220.8956 H   0  0  0  0  0  0  0  0  0  0  0  0
  141.6280   74.2508  222.5772 H   0  0  0  0  0  0  0  0  0  0  0  0
  140.4971   73.6439  219.8977 H   0  0  0  0  0  0  0  0  0  0  0  0
  141.1776   72.5524  221.1248 H   0  0  0  0  0  0  0  0  0  0  0  0
  139.5284   70.3510  221.7566 H   0  0  0  0  0  0  0  0  0  0  0  0
  140.8213   71.4607  222.3736 H   0  0  0  0  0  0  0  0  0  0  0  0
  140.6226   69.9542  224.0754 H   0  0  0  0  0  0  0  0  0  0  0  0
  140.1250   72.3420  224.7310 H   0  0  0  0  0  0  0  0  0  0  0  0
  138.5280   71.8930  224.8260 H   0  0  0  0  0  0  0  0  0  0  0  0
  137.9883   69.6131  223.0390 H   0  0  0  0  0  0  0  0  0  0  0  0
  138.3946   67.3294  224.1494 H   0  0  0  0  0  0  0  0  0  0  0  0
  139.8981   67.7827  223.4256 H   0  0  0  0  0  0  0  0  0  0  0  0
  141.4485   67.0123  225.6637 H   0  0  0  0  0  0  0  0  0  0  0  0
  141.9972   67.6214  228.0315 H   0  0  0  0  0  0  0  0  0  0  0  0
  140.5351   69.2669  229.2153 H   0  0  0  0  0  0  0  0  0  0  0  0
  138.5884   70.2741  228.0920 H   0  0  0  0  0  0  0  0  0  0  0  0
  136.9511   68.9835  225.3482 H   0  0  0  0  0  0  0  0  0  0  0  0
  137.4107   70.6442  225.4792 H   0  0  0  0  0  0  0  0  0  0  0  0
  138.1748   74.6060  220.3521 H   0  0  0  0  0  0  0  0  0  0  0  0
  137.5829   74.4540  222.0763 H   0  0  0  0  0  0  0  0  0  0  0  0
  138.8609   76.5721  220.9916 H   0  0  0  0  0  0  0  0  0  0  0  0
  138.7310   76.0723  222.7821 H   0  0  0  0  0  0  0  0  0  0  0  0
  1  2  1  0
  2  3  1  0
  3  4  2  0
  3  5  1  0
  5  6  1  0
  6  7  2  0
  7  8  1  0
  8  9  2  0
  9 10  1  0
 10 11  2  0
  5 12  1  0
 12 13  1  0
 13 14  1  0
 14 15  1  0
 15 16  1  0
 16 17  2  0
 16 18  1  0
 18 19  1  0
 19 20  1  0
 19 21  1  0
 21 22  1  0
 22 23  1  0
 23 24  2  0
 24 25  1  0
 25 26  2  0
 26 27  1  0
 27 28  2  0
 28 29  1  0
 15 30  1  0
 30 31  1  0
 11  6  1  0
 31 12  1  0
 29 21  1  0
 28 23  1  0
  1 32  1  0
  1 33  1  0
  1 34  1  0
  2 35  1  0
  2 36  1  0
  7 37  1  0
  8 38  1  0
  9 39  1  0
 10 40  1  0
 11 41  1  0
 12 42  1  0
 13 43  1  0
 13 44  1  0
 14 45  1  0
 14 46  1  0
 18 47  1  0
 18 48  1  0
 19 49  1  1
 20 50  1  0
 20 51  1  0
 21 52  1  0
 22 53  1  0
 22 54  1  0
 24 55  1  0
 25 56  1  0
 26 57  1  0
 27 58  1  0
 29 59  1  0
 29 60  1  0
 30 61  1  0
 30 62  1  0
 31 63  1  0
 31 64  1  0
M  END
>  <smiles>  (87) 
CCC(=O)N(c1ccccc1)C1CCN(C(=O)CC(N)C2Cc3ccccc3C2)CC1

>  <score_type>  (87) 
oracle

>  <origin>  (87) 
autodockgpu

>  <m_score__min__energy>  (87) 
-8.0099999999999998

>  <m_primary>  (87) 
energy

>  <rmsd>  (87) 
7.62642972322731

>  <m_score__min__rmsd>  (87) 
7.62642972322731

>  <meeko>  (87) 
{"free_energy": -8.01, "intermolecular_energy": -10.39, "internal_energy": -1.91, "cluster_size": 9, "cluster_id": 1, "rank_in_cluster": 1}

>  <energy>  (87) 
-6.91

>  <cluster_rmsd>  (87) 
0.33

>  <cluster>  (87) 
4

$$$$

     RDKit          3D

 64 67  0  0  0  0  0  0  0  0999 V2000
  143.3740   74.3790  220.1970 C   0  0  0  0  0  0  0  0  0  0  0  0
  142.2800   74.1640  219.1420 C   0  0  0  0  0  0  0  0  0  0  0  0
  140.9970   74.7210  219.6030 C   0  0  0  0  0  0  0  0  0  0  0  0
  140.1250   74.9570  218.7070 O   0  0  0  0  0  0  0  0  0  0  0  0
  140.6350   75.0210  220.9280 N   0  0  0  0  0  0  0  0  0  0  0  0
  140.9480   76.3680  221.3680 C   0  0  0  0  0  0  0  0  0  0  0  0
  141.5460   77.2680  220.5090 C   0  0  0  0  0  0  0  0  0  0  0  0
  141.8350   78.5440  220.9410 C   0  0  0  0  0  0  0  0  0  0  0  0
  141.5340   78.9380  222.2270 C   0  0  0  0  0  0  0  0  0  0  0  0
  140.9330   78.0430  223.0920 C   0  0  0  0  0  0  0  0  0  0  0  0
  140.6440   76.7640  222.6580 C   0  0  0  0  0  0  0  0  0  0  0  0
  139.9610   74.0850  221.8350 C   0  0  0  0  0  0  0  0  0  0  0  0
  140.7970   72.9480  222.2130 C   0  0  0  0  0  0  0  0  0  0  0  0
  140.3500   71.5660  221.9000 C   0  0  0  0  0  0  0  0  0  0  0  0
  138.8950   71.5270  222.1140 N   0  0  0  0  0  0  0  0  0  0  0  0
  138.2920   70.6800  223.0770 C   0  0  0  0  0  0  0  0  0  0  0  0
  137.0350   70.7400  223.1730 O   0  0  0  0  0  0  0  0  0  0  0  0
  139.1350   69.7840  223.9060 C   0  0  0  0  0  0  0  0  0  0  0  0
  138.4820   69.4710  225.2180 C   0  0  1  0  0  0  0  0  0  0  0  0
  137.1100   69.0100  224.9940 N   0  0  0  0  0  0  0  0  0  0  0  0
  139.2510   68.4660  226.0030 C   0  0  0  0  0  0  0  0  0  0  0  0
  140.7300   68.6560  225.7650 C   0  0  0  0  0  0  0  0  0  0  0  0
  140.9240   70.0000  226.4200 C   0  0  0  0  0  0  0  0  0  0  0  0
  141.7990   71.0390  226.1470 C   0  0  0  0  0  0  0  0  0  0  0  0
  141.7880   72.2040  226.9140 C   0  0  0  0  0  0  0  0  0  0  0  0
  140.8690   72.2870  227.9610 C   0  0  0  0  0  0  0  0  0  0  0  0
  139.9930   71.2580  228.2370 C   0  0  0  0  0  0  0  0  0  0  0  0
  140.0050   70.0990  227.4740 C   0  0  0  0  0  0  0  0  0  0  0  0
  139.2080   68.8350  227.5060 C   0  0  0  0  0  0  0  0  0  0  0  0
  138.1450   72.4150  221.2550 C   0  0  0  0  0  0  0  0  0  0  0  0
  138.6230   73.8190  221.2810 C   0  0  0  0  0  0  0  0  0  0  0  0
  142.9359   74.2929  221.2023 H   0  0  0  0  0  0  0  0  0  0  0  0
  144.1582   73.6178  220.0724 H   0  0  0  0  0  0  0  0  0  0  0  0
  143.8118   75.3804  220.0724 H   0  0  0  0  0  0  0  0  0  0  0  0
  142.5759   74.6636  218.2077 H   0  0  0  0  0  0  0  0  0  0  0  0
  142.1572   73.0838  218.9743 H   0  0  0  0  0  0  0  0  0  0  0  0
  141.7917   76.9666  219.4800 H   0  0  0  0  0  0  0  0  0  0  0  0
  142.3115   79.2565  220.2516 H   0  0  0  0  0  0  0  0  0  0  0  0
  141.7706   79.9584  222.5629 H   0  0  0  0  0  0  0  0  0  0  0  0
  140.6863   78.3475  224.1198 H   0  0  0  0  0  0  0  0  0  0  0  0
  140.1662   76.0516  223.3466 H   0  0  0  0  0  0  0  0  0  0  0  0
  139.7946   74.5198  222.8316 H   0  0  0  0  0  0  0  0  0  0  0  0
  141.7687   73.0884  221.7170 H   0  0  0  0  0  0  0  0  0  0  0  0
  140.7846   72.9770  223.3125 H   0  0  0  0  0  0  0  0  0  0  0  0
  140.5849   71.3206  220.8538 H   0  0  0  0  0  0  0  0  0  0  0  0
  140.8614   70.8328  222.5410 H   0  0  0  0  0  0  0  0  0  0  0  0
  139.3040   68.8451  223.3583 H   0  0  0  0  0  0  0  0  0  0  0  0
  140.0867   70.2970  224.1088 H   0  0  0  0  0  0  0  0  0  0  0  0
  138.4638   70.3965  225.8122 H   0  0  0  0  0  0  0  0  0  0  0  0
  136.4190   69.7670  225.1080 H   0  0  0  0  0  0  0  0  0  0  0  0
  137.0230   68.6630  224.0240 H   0  0  0  0  0  0  0  0  0  0  0  0
  138.8391   67.4826  225.7323 H   0  0  0  0  0  0  0  0  0  0  0  0
  141.3272   67.8724  226.2542 H   0  0  0  0  0  0  0  0  0  0  0  0
  141.0428   68.6019  224.7118 H   0  0  0  0  0  0  0  0  0  0  0  0
  142.5117   70.9439  225.3145 H   0  0  0  0  0  0  0  0  0  0  0  0
  142.4814   73.0308  226.7005 H   0  0  0  0  0  0  0  0  0  0  0  0
  140.8426   73.1951  228.5812 H   0  0  0  0  0  0  0  0  0  0  0  0
  139.2794   71.3569  229.0683 H   0  0  0  0  0  0  0  0  0  0  0  0
  139.6845   68.0654  228.1310 H   0  0  0  0  0  0  0  0  0  0  0  0
  138.1998   68.9286  227.9359 H   0  0  0  0  0  0  0  0  0  0  0  0
  138.2186   72.0427  220.2225 H   0  0  0  0  0  0  0  0  0  0  0  0
  137.1100   72.4222  221.6274 H   0  0  0  0  0  0  0  0  0  0  0  0
  138.6203   74.1844  220.2435 H   0  0  0  0  0  0  0  0  0  0  0  0
  137.9345   74.3302  221.9700 H   0  0  0  0  0  0  0  0  0  0  0  0
  1  2  1  0
  2  3  1  0
  3  4  2  0
  3  5  1  0
  5  6  1  0
  6  7  2  0
  7  8  1  0
  8  9  2  0
  9 10  1  0
 10 11  2  0
  5 12  1  0
 12 13  1  0
 13 14  1  0
 14 15  1  0
 15 16  1  0
 16 17  2  0
 16 18  1  0
 18 19  1  0
 19 20  1  0
 19 21  1  0
 21 22  1  0
 22 23  1  0
 23 24  2  0
 24 25  1  0
 25 26  2  0
 26 27  1  0
 27 28  2  0
 28 29  1  0
 15 30  1  0
 30 31  1  0
 11  6  1  0
 31 12  1  0
 29 21  1  0
 28 23  1  0
  1 32  1  0
  1 33  1  0
  1 34  1  0
  2 35  1  0
  2 36  1  0
  7 37  1  0
  8 38  1  0
  9 39  1  0
 10 40  1  0
 11 41  1  0
 12 42  1  0
 13 43  1  0
 13 44  1  0
 14 45  1  0
 14 46  1  0
 18 47  1  0
 18 48  1  0
 19 49  1  1
 20 50  1  0
 20 51  1  0
 21 52  1  0
 22 53  1  0
 22 54  1  0
 24 55  1  0
 25 56  1  0
 26 57  1  0
 27 58  1  0
 29 59  1  0
 29 60  1  0
 30 61  1  0
 30 62  1  0
 31 63  1  0
 31 64  1  0
M  END
>  <smiles>  (88) 
CCC(=O)N(c1ccccc1)C1CCN(C(=O)CC(N)C2Cc3ccccc3C2)CC1

>  <score_type>  (88) 
oracle

>  <origin>  (88) 
autodockgpu

>  <m_score__min__energy>  (88) 
-8.0099999999999998

>  <m_primary>  (88) 
energy

>  <rmsd>  (88) 
9.529146125309628

>  <m_score__min__rmsd>  (88) 
9.529146125309628

>  <meeko>  (88) 
{"free_energy": -6.99, "intermolecular_energy": -9.38, "internal_energy": -2.62, "cluster_size": 2, "cluster_id": 2, "rank_in_cluster": 2}

>  <energy>  (88) 
-6.91

>  <cluster_rmsd>  (88) 
0.61

>  <cluster>  (88) 
4

$$$$

     RDKit          3D

 64 67  0  0  0  0  0  0  0  0999 V2000
  137.0000   71.4410  223.8100 C   0  0  0  0  0  0  0  0  0  0  0  0
  137.4910   70.1650  223.1150 C   0  0  0  0  0  0  0  0  0  0  0  0
  138.9560   70.1830  222.9680 C   0  0  0  0  0  0  0  0  0  0  0  0
  139.4670   69.2730  222.2410 O   0  0  0  0  0  0  0  0  0  0  0  0
  139.8510   71.1000  223.5490 N   0  0  0  0  0  0  0  0  0  0  0  0
  140.1810   70.8490  224.9390 C   0  0  0  0  0  0  0  0  0  0  0  0
  139.9800   69.6030  225.4980 C   0  0  0  0  0  0  0  0  0  0  0  0
  140.3000   69.3800  226.8190 C   0  0  0  0  0  0  0  0  0  0  0  0
  140.8220   70.3910  227.5970 C   0  0  0  0  0  0  0  0  0  0  0  0
  141.0270   71.6400  227.0460 C   0  0  0  0  0  0  0  0  0  0  0  0
  140.7060   71.8620  225.7210 C   0  0  0  0  0  0  0  0  0  0  0  0
  140.4570   72.2300  222.8370 C   0  0  0  0  0  0  0  0  0  0  0  0
  139.4750   73.1850  222.3300 C   0  0  0  0  0  0  0  0  0  0  0  0
  139.4010   73.4670  220.8730 C   0  0  0  0  0  0  0  0  0  0  0  0
  140.7840   73.4780  220.3680 N   0  0  0  0  0  0  0  0  0  0  0  0
  141.3670   74.6270  219.7790 C   0  0  0  0  0  0  0  0  0  0  0  0
  142.5630   74.5160  219.3900 O   0  0  0  0  0  0  0  0  0  0  0  0
  140.5740   75.8740  219.6460 C   0  0  0  0  0  0  0  0  0  0  0  0
  141.2740   77.0420  220.2730 C   0  0  1  0  0  0  0  0  0  0  0  0
  142.7190   76.9220  220.0710 N   0  0  0  0  0  0  0  0  0  0  0  0
  140.7760   78.3430  219.7490 C   0  0  0  0  0  0  0  0  0  0  0  0
  139.6730   78.8640  220.6400 C   0  0  0  0  0  0  0  0  0  0  0  0
  140.4680   79.1440  221.8910 C   0  0  0  0  0  0  0  0  0  0  0  0
  140.1190   79.1020  223.2300 C   0  0  0  0  0  0  0  0  0  0  0  0
  141.0490   79.4150  224.2220 C   0  0  0  0  0  0  0  0  0  0  0  0
  142.3370   79.7700  223.8200 C   0  0  0  0  0  0  0  0  0  0  0  0
  142.6920   79.8120  222.4880 C   0  0  0  0  0  0  0  0  0  0  0  0
  141.7660   79.5010  221.5020 C   0  0  0  0  0  0  0  0  0  0  0  0
  141.8290   79.4470  220.0090 C   0  0  0  0  0  0  0  0  0  0  0  0
  141.4800   72.2200  220.5180 C   0  0  0  0  0  0  0  0  0  0  0  0
  141.4500   71.6800  221.8990 C   0  0  0  0  0  0  0  0  0  0  0  0
  137.0514   71.3075  224.9007 H   0  0  0  0  0  0  0  0  0  0  0  0
  137.6365   72.2879  223.5139 H   0  0  0  0  0  0  0  0  0  0  0  0
  135.9600   71.6428  223.5139 H   0  0  0  0  0  0  0  0  0  0  0  0
  137.1992   69.2913  223.7162 H   0  0  0  0  0  0  0  0  0  0  0  0
  137.0360   70.1096  222.1151 H   0  0  0  0  0  0  0  0  0  0  0  0
  139.5640   68.7876  224.8881 H   0  0  0  0  0  0  0  0  0  0  0  0
  140.1373   68.3845  227.2578 H   0  0  0  0  0  0  0  0  0  0  0  0
  141.0739   70.2036  228.6512 H   0  0  0  0  0  0  0  0  0  0  0  0
  141.4434   72.4534  227.6583 H   0  0  0  0  0  0  0  0  0  0  0  0
  140.8700   72.8572  225.2820 H   0  0  0  0  0  0  0  0  0  0  0  0
  141.0146   72.8947  223.5132 H   0  0  0  0  0  0  0  0  0  0  0  0
  138.4847   72.8142  222.6330 H   0  0  0  0  0  0  0  0  0  0  0  0
  139.8070   74.1425  222.7578 H   0  0  0  0  0  0  0  0  0  0  0  0
  138.8193   72.6836  220.3653 H   0  0  0  0  0  0  0  0  0  0  0  0
  138.9053   74.4305  220.6834 H   0  0  0  0  0  0  0  0  0  0  0  0
  140.4154   76.0841  218.5780 H   0  0  0  0  0  0  0  0  0  0  0  0
  139.6146   75.7289  220.1642 H   0  0  0  0  0  0  0  0  0  0  0  0
  141.0539   77.0265  221.3506 H   0  0  0  0  0  0  0  0  0  0  0  0
  143.1410   76.1980  220.6720 H   0  0  0  0  0  0  0  0  0  0  0  0
  142.9030   76.6490  219.0910 H   0  0  0  0  0  0  0  0  0  0  0  0
  140.5060   78.1685  218.6970 H   0  0  0  0  0  0  0  0  0  0  0  0
  139.2148   79.7774  220.2330 H   0  0  0  0  0  0  0  0  0  0  0  0
  138.8196   78.1827  220.7725 H   0  0  0  0  0  0  0  0  0  0  0  0
  139.0953   78.8182  223.5156 H   0  0  0  0  0  0  0  0  0  0  0  0
  140.7754   79.3829  225.2870 H   0  0  0  0  0  0  0  0  0  0  0  0
  143.0873   80.0224  224.5838 H   0  0  0  0  0  0  0  0  0  0  0  0
  143.7168   80.0941  222.2049 H   0  0  0  0  0  0  0  0  0  0  0  0
  141.5410   80.4048  219.5512 H   0  0  0  0  0  0  0  0  0  0  0  0
  142.8266   79.2508  219.5892 H   0  0  0  0  0  0  0  0  0  0  0  0
  141.0133   71.4834  219.8474 H   0  0  0  0  0  0  0  0  0  0  0  0
  142.5353   72.4063  220.2698 H   0  0  0  0  0  0  0  0  0  0  0  0
  141.2636   70.5986  221.8229 H   0  0  0  0  0  0  0  0  0  0  0  0
  142.4210   71.9695  222.3273 H   0  0  0  0  0  0  0  0  0  0  0  0
  1  2  1  0
  2  3  1  0
  3  4  2  0
  3  5  1  0
  5  6  1  0
  6  7  2  0
  7  8  1  0
  8  9  2  0
  9 10  1  0
 10 11  2  0
  5 12  1  0
 12 13  1  0
 13 14  1  0
 14 15  1  0
 15 16  1  0
 16 17  2  0
 16 18  1  0
 18 19  1  0
 19 20  1  0
 19 21  1  0
 21 22  1  0
 22 23  1  0
 23 24  2  0
 24 25  1  0
 25 26  2  0
 26 27  1  0
 27 28  2  0
 28 29  1  0
 15 30  1  0
 30 31  1  0
 11  6  1  0
 31 12  1  0
 29 21  1  0
 28 23  1  0
  1 32  1  0
  1 33  1  0
  1 34  1  0
  2 35  1  0
  2 36  1  0
  7 37  1  0
  8 38  1  0
  9 39  1  0
 10 40  1  0
 11 41  1  0
 12 42  1  0
 13 43  1  0
 13 44  1  0
 14 45  1  0
 14 46  1  0
 18 47  1  0
 18 48  1  0
 19 49  1  1
 20 50  1  0
 20 51  1  0
 21 52  1  0
 22 53  1  0
 22 54  1  0
 24 55  1  0
 25 56  1  0
 26 57  1  0
 27 58  1  0
 29 59  1  0
 29 60  1  0
 30 61  1  0
 30 62  1  0
 31 63  1  0
 31 64  1  0
M  END
>  <smiles>  (89) 
CCC(=O)N(c1ccccc1)C1CCN(C(=O)CC(N)C2Cc3ccccc3C2)CC1

>  <score_type>  (89) 
oracle

>  <origin>  (89) 
autodockgpu

>  <m_score__min__energy>  (89) 
-8.0099999999999998

>  <m_primary>  (89) 
energy

>  <rmsd>  (89) 
6.565235617836368

>  <m_score__min__rmsd>  (89) 
6.565235617836368

>  <meeko>  (89) 
{"free_energy": -6.86, "intermolecular_energy": -9.24, "internal_energy": -2.56, "cluster_size": 23, "cluster_id": 3, "rank_in_cluster": 22}

>  <energy>  (89) 
-6.88

>  <cluster_rmsd>  (89) 
0.49

>  <cluster>  (89) 
4

$$$$

     RDKit          3D

 64 67  0  0  0  0  0  0  0  0999 V2000
  138.5920   68.0220  222.3390 C   0  0  0  0  0  0  0  0  0  0  0  0
  137.2520   68.6050  222.8060 C   0  0  0  0  0  0  0  0  0  0  0  0
  137.3760   69.1730  224.1600 C   0  0  0  0  0  0  0  0  0  0  0  0
  136.3650   69.0500  224.9230 O   0  0  0  0  0  0  0  0  0  0  0  0
  138.4920   69.8380  224.6970 N   0  0  0  0  0  0  0  0  0  0  0  0
  139.2060   69.1160  225.7340 C   0  0  0  0  0  0  0  0  0  0  0  0
  139.5660   67.7950  225.5530 C   0  0  0  0  0  0  0  0  0  0  0  0
  140.2450   67.1240  226.5460 C   0  0  0  0  0  0  0  0  0  0  0  0
  140.5720   67.7560  227.7260 C   0  0  0  0  0  0  0  0  0  0  0  0
  140.2160   69.0780  227.9150 C   0  0  0  0  0  0  0  0  0  0  0  0
  139.5350   69.7500  226.9180 C   0  0  0  0  0  0  0  0  0  0  0  0
  138.9620   71.1570  224.2570 C   0  0  0  0  0  0  0  0  0  0  0  0
  138.0170   71.8400  223.3780 C   0  0  0  0  0  0  0  0  0  0  0  0
  138.4320   72.2280  222.0050 C   0  0  0  0  0  0  0  0  0  0  0  0
  139.8310   72.6770  222.0910 N   0  0  0  0  0  0  0  0  0  0  0  0
  140.2270   73.9950  221.7540 C   0  0  0  0  0  0  0  0  0  0  0  0
  141.4540   74.2640  221.8750 O   0  0  0  0  0  0  0  0  0  0  0  0
  139.2160   74.9750  221.2860 C   0  0  0  0  0  0  0  0  0  0  0  0
  139.7150   76.3830  221.4090 C   0  0  1  0  0  0  0  0  0  0  0  0
  141.0770   76.4760  220.8790 N   0  0  0  0  0  0  0  0  0  0  0  0
  138.8190   77.3580  220.7280 C   0  0  0  0  0  0  0  0  0  0  0  0
  138.1190   78.2130  221.7560 C   0  0  0  0  0  0  0  0  0  0  0  0
  139.3010   78.9750  222.3000 C   0  0  0  0  0  0  0  0  0  0  0  0
  139.5600   79.4940  223.5580 C   0  0  0  0  0  0  0  0  0  0  0  0
  140.7480   80.1780  223.8190 C   0  0  0  0  0  0  0  0  0  0  0  0
  141.6620   80.3190  222.7740 C   0  0  0  0  0  0  0  0  0  0  0  0
  141.4110   79.8040  221.5190 C   0  0  0  0  0  0  0  0  0  0  0  0
  140.2290   79.1240  221.2610 C   0  0  0  0  0  0  0  0  0  0  0  0
  139.6670   78.4580  220.0460 C   0  0  0  0  0  0  0  0  0  0  0  0
  140.7540   71.6580  222.5370 C   0  0  0  0  0  0  0  0  0  0  0  0
  140.3550   71.0010  223.8050 C   0  0  0  0  0  0  0  0  0  0  0  0
  139.2017   67.7567  223.2153 H   0  0  0  0  0  0  0  0  0  0  0  0
  138.4092   67.1221  221.7335 H   0  0  0  0  0  0  0  0  0  0  0  0
  139.1258   68.7692  221.7335 H   0  0  0  0  0  0  0  0  0  0  0  0
  136.9400   69.3969  222.1092 H   0  0  0  0  0  0  0  0  0  0  0  0
  136.5034   67.7993  222.8271 H   0  0  0  0  0  0  0  0  0  0  0  0
  139.3105   67.2787  224.6159 H   0  0  0  0  0  0  0  0  0  0  0  0
  140.5293   66.0721  226.3954 H   0  0  0  0  0  0  0  0  0  0  0  0
  141.1135   67.2112  228.5134 H   0  0  0  0  0  0  0  0  0  0  0  0
  140.4731   69.5919  228.8530 H   0  0  0  0  0  0  0  0  0  0  0  0
  139.2512   70.8021  227.0680 H   0  0  0  0  0  0  0  0  0  0  0  0
  138.9912   71.8841  225.0819 H   0  0  0  0  0  0  0  0  0  0  0  0
  137.1452   71.1776  223.2718 H   0  0  0  0  0  0  0  0  0  0  0  0
  137.8569   72.8065  223.8782 H   0  0  0  0  0  0  0  0  0  0  0  0
  138.3529   71.3647  221.3280 H   0  0  0  0  0  0  0  0  0  0  0  0
  137.7864   73.0261  221.6097 H   0  0  0  0  0  0  0  0  0  0  0  0
  138.9817   74.7701  220.2310 H   0  0  0  0  0  0  0  0  0  0  0  0
  138.3193   74.8714  221.9146 H   0  0  0  0  0  0  0  0  0  0  0  0
  139.7204   76.6451  222.4773 H   0  0  0  0  0  0  0  0  0  0  0  0
  141.7910   76.4220  221.6220 H   0  0  0  0  0  0  0  0  0  0  0  0
  141.2460   75.6840  220.2360 H   0  0  0  0  0  0  0  0  0  0  0  0
  138.1684   76.7675  220.0662 H   0  0  0  0  0  0  0  0  0  0  0  0
  137.3772   78.8821  221.2956 H   0  0  0  0  0  0  0  0  0  0  0  0
  137.5370   77.6576  222.5062 H   0  0  0  0  0  0  0  0  0  0  0  0
  138.8198   79.3653  224.3614 H   0  0  0  0  0  0  0  0  0  0  0  0
  140.9572   80.5926  224.8162 H   0  0  0  0  0  0  0  0  0  0  0  0
  142.6059   80.8540  222.9554 H   0  0  0  0  0  0  0  0  0  0  0  0
  142.1529   79.9332  220.7172 H   0  0  0  0  0  0  0  0  0  0  0  0
  139.0468   79.1448  219.4513 H   0  0  0  0  0  0  0  0  0  0  0  0
  140.4128   78.0943  219.3238 H   0  0  0  0  0  0  0  0  0  0  0  0
  140.8244   70.8878  221.7548 H   0  0  0  0  0  0  0  0  0  0  0  0
  141.7158   72.1577  222.7246 H   0  0  0  0  0  0  0  0  0  0  0  0
  140.5419   69.9234  223.6877 H   0  0  0  0  0  0  0  0  0  0  0  0
  140.9523   71.5086  224.5767 H   0  0  0  0  0  0  0  0  0  0  0  0
  1  2  1  0
  2  3  1  0
  3  4  2  0
  3  5  1  0
  5  6  1  0
  6  7  2  0
  7  8  1  0
  8  9  2  0
  9 10  1  0
 10 11  2  0
  5 12  1  0
 12 13  1  0
 13 14  1  0
 14 15  1  0
 15 16  1  0
 16 17  2  0
 16 18  1  0
 18 19  1  0
 19 20  1  0
 19 21  1  0
 21 22  1  0
 22 23  1  0
 23 24  2  0
 24 25  1  0
 25 26  2  0
 26 27  1  0
 27 28  2  0
 28 29  1  0
 15 30  1  0
 30 31  1  0
 11  6  1  0
 31 12  1  0
 29 21  1  0
 28 23  1  0
  1 32  1  0
  1 33  1  0
  1 34  1  0
  2 35  1  0
  2 36  1  0
  7 37  1  0
  8 38  1  0
  9 39  1  0
 10 40  1  0
 11 41  1  0
 12 42  1  0
 13 43  1  0
 13 44  1  0
 14 45  1  0
 14 46  1  0
 18 47  1  0
 18 48  1  0
 19 49  1  1
 20 50  1  0
 20 51  1  0
 21 52  1  0
 22 53  1  0
 22 54  1  0
 24 55  1  0
 25 56  1  0
 26 57  1  0
 27 58  1  0
 29 59  1  0
 29 60  1  0
 30 61  1  0
 30 62  1  0
 31 63  1  0
 31 64  1  0
M  END
>  <smiles>  (90) 
CCC(=O)N(c1ccccc1)C1CCN(C(=O)CC(N)C2Cc3ccccc3C2)CC1

>  <score_type>  (90) 
oracle

>  <origin>  (90) 
autodockgpu

>  <m_score__min__energy>  (90) 
-8.0099999999999998

>  <m_primary>  (90) 
energy

>  <rmsd>  (90) 
7.25612386549778

>  <m_score__min__rmsd>  (90) 
7.25612386549778

>  <meeko>  (90) 
{"free_energy": -7.05, "intermolecular_energy": -9.44, "internal_energy": -2.32, "cluster_size": 23, "cluster_id": 3, "rank_in_cluster": 19}

>  <energy>  (90) 
-6.87

>  <cluster_rmsd>  (90) 
0.55

>  <cluster>  (90) 
4

$$$$

     RDKit          3D

 64 67  0  0  0  0  0  0  0  0999 V2000
  138.6890   67.3620  222.1290 C   0  0  0  0  0  0  0  0  0  0  0  0
  138.0110   68.7390  222.1360 C   0  0  0  0  0  0  0  0  0  0  0  0
  137.8950   69.2550  223.5100 C   0  0  0  0  0  0  0  0  0  0  0  0
  136.7970   69.0300  224.1110 O   0  0  0  0  0  0  0  0  0  0  0  0
  138.8700   69.9730  224.2270 N   0  0  0  0  0  0  0  0  0  0  0  0
  139.4140   69.2910  225.3860 C   0  0  0  0  0  0  0  0  0  0  0  0
  139.7710   69.9980  226.5170 C   0  0  0  0  0  0  0  0  0  0  0  0
  140.2850   69.3350  227.6100 C   0  0  0  0  0  0  0  0  0  0  0  0
  140.4490   67.9670  227.5910 C   0  0  0  0  0  0  0  0  0  0  0  0
  140.0930   67.2520  226.4640 C   0  0  0  0  0  0  0  0  0  0  0  0
  139.5780   67.9180  225.3690 C   0  0  0  0  0  0  0  0  0  0  0  0
  139.3570   71.3060  223.8560 C   0  0  0  0  0  0  0  0  0  0  0  0
  138.3870   72.0790  223.0850 C   0  0  0  0  0  0  0  0  0  0  0  0
  138.7370   72.5550  221.7210 C   0  0  0  0  0  0  0  0  0  0  0  0
  140.1520   72.9550  221.7570 N   0  0  0  0  0  0  0  0  0  0  0  0
  140.5720   74.2820  221.4930 C   0  0  0  0  0  0  0  0  0  0  0  0
  141.8120   74.5060  221.5600 O   0  0  0  0  0  0  0  0  0  0  0  0
  139.5690   75.3230  221.1560 C   0  0  0  0  0  0  0  0  0  0  0  0
  140.1550   76.7000  221.2380 C   0  0  1  0  0  0  0  0  0  0  0  0
  141.4530   76.7300  220.5620 N   0  0  0  0  0  0  0  0  0  0  0  0
  139.2440   77.7330  220.6710 C   0  0  0  0  0  0  0  0  0  0  0  0
  138.6370   78.5480  221.7880 C   0  0  0  0  0  0  0  0  0  0  0  0
  139.8730   79.2490  222.2920 C   0  0  0  0  0  0  0  0  0  0  0  0
  140.2290   79.6920  223.5550 C   0  0  0  0  0  0  0  0  0  0  0  0
  141.4500   80.3300  223.7710 C   0  0  0  0  0  0  0  0  0  0  0  0
  142.2980   80.5070  222.6770 C   0  0  0  0  0  0  0  0  0  0  0  0
  141.9510   80.0670  221.4160 C   0  0  0  0  0  0  0  0  0  0  0  0
  140.7350   79.4320  221.2020 C   0  0  0  0  0  0  0  0  0  0  0  0
  140.0770   78.8470  219.9940 C   0  0  0  0  0  0  0  0  0  0  0  0
  141.0650   71.8800  222.0740 C   0  0  0  0  0  0  0  0  0  0  0  0
  140.7160   71.1440  223.3120 C   0  0  0  0  0  0  0  0  0  0  0  0
  138.8530   67.0288  223.1644 H   0  0  0  0  0  0  0  0  0  0  0  0
  138.0441   66.6384  221.6088 H   0  0  0  0  0  0  0  0  0  0  0  0
  139.6557   67.4319  221.6088 H   0  0  0  0  0  0  0  0  0  0  0  0
  138.6106   69.4398  221.5365 H   0  0  0  0  0  0  0  0  0  0  0  0
  137.0020   68.6385  221.7096 H   0  0  0  0  0  0  0  0  0  0  0  0
  139.6451   71.0904  226.5454 H   0  0  0  0  0  0  0  0  0  0  0  0
  140.5676   69.9042  228.5079 H   0  0  0  0  0  0  0  0  0  0  0  0
  140.8611   67.4472  228.4685 H   0  0  0  0  0  0  0  0  0  0  0  0
  140.2188   66.1595  226.4388 H   0  0  0  0  0  0  0  0  0  0  0  0
  139.2945   67.3487  224.4715 H   0  0  0  0  0  0  0  0  0  0  0  0
  139.4564   71.9686  224.7284 H   0  0  0  0  0  0  0  0  0  0  0  0
  137.4892   71.4517  222.9826 H   0  0  0  0  0  0  0  0  0  0  0  0
  138.2872   73.0103  223.6619 H   0  0  0  0  0  0  0  0  0  0  0  0
  138.5911   71.7466  220.9894 H   0  0  0  0  0  0  0  0  0  0  0  0
  138.0973   73.3986  221.4226 H   0  0  0  0  0  0  0  0  0  0  0  0
  139.2051   75.1502  220.1324 H   0  0  0  0  0  0  0  0  0  0  0  0
  138.7454   75.2555  221.8821 H   0  0  0  0  0  0  0  0  0  0  0  0
  140.2924   76.9428  222.3020 H   0  0  0  0  0  0  0  0  0  0  0  0
  142.2410   76.6360  221.2220 H   0  0  0  0  0  0  0  0  0  0  0  0
  141.5110   75.9340  219.9040 H   0  0  0  0  0  0  0  0  0  0  0  0
  138.5348   77.1962  220.0238 H   0  0  0  0  0  0  0  0  0  0  0  0
  137.8863   79.2598  221.4142 H   0  0  0  0  0  0  0  0  0  0  0  0
  138.0894   77.9669  222.5446 H   0  0  0  0  0  0  0  0  0  0  0  0
  139.5398   79.5386  224.3985 H   0  0  0  0  0  0  0  0  0  0  0  0
  141.7359   80.6829  224.7729 H   0  0  0  0  0  0  0  0  0  0  0  0
  143.2658   81.0090  222.8233 H   0  0  0  0  0  0  0  0  0  0  0  0
  142.6426   80.2204  220.5745 H   0  0  0  0  0  0  0  0  0  0  0  0
  139.4394   79.5803  219.4785 H   0  0  0  0  0  0  0  0  0  0  0  0
  140.7642   78.5045  219.2063 H   0  0  0  0  0  0  0  0  0  0  0  0
  141.0663   71.1677  221.2358 H   0  0  0  0  0  0  0  0  0  0  0  0
  142.0519   72.3365  222.2403 H   0  0  0  0  0  0  0  0  0  0  0  0
  140.8601   70.0730  223.1067 H   0  0  0  0  0  0  0  0  0  0  0  0
  141.3720   71.5768  224.0816 H   0  0  0  0  0  0  0  0  0  0  0  0
  1  2  1  0
  2  3  1  0
  3  4  2  0
  3  5  1  0
  5  6  1  0
  6  7  2  0
  7  8  1  0
  8  9  2  0
  9 10  1  0
 10 11  2  0
  5 12  1  0
 12 13  1  0
 13 14  1  0
 14 15  1  0
 15 16  1  0
 16 17  2  0
 16 18  1  0
 18 19  1  0
 19 20  1  0
 19 21  1  0
 21 22  1  0
 22 23  1  0
 23 24  2  0
 24 25  1  0
 25 26  2  0
 26 27  1  0
 27 28  2  0
 28 29  1  0
 15 30  1  0
 30 31  1  0
 11  6  1  0
 31 12  1  0
 29 21  1  0
 28 23  1  0
  1 32  1  0
  1 33  1  0
  1 34  1  0
  2 35  1  0
  2 36  1  0
  7 37  1  0
  8 38  1  0
  9 39  1  0
 10 40  1  0
 11 41  1  0
 12 42  1  0
 13 43  1  0
 13 44  1  0
 14 45  1  0
 14 46  1  0
 18 47  1  0
 18 48  1  0
 19 49  1  1
 20 50  1  0
 20 51  1  0
 21 52  1  0
 22 53  1  0
 22 54  1  0
 24 55  1  0
 25 56  1  0
 26 57  1  0
 27 58  1  0
 29 59  1  0
 29 60  1  0
 30 61  1  0
 30 62  1  0
 31 63  1  0
 31 64  1  0
M  END
>  <smiles>  (91) 
CCC(=O)N(c1ccccc1)C1CCN(C(=O)CC(N)C2Cc3ccccc3C2)CC1

>  <score_type>  (91) 
oracle

>  <origin>  (91) 
autodockgpu

>  <m_score__min__energy>  (91) 
-8.0099999999999998

>  <m_primary>  (91) 
energy

>  <rmsd>  (91) 
7.064945630432339

>  <m_score__min__rmsd>  (91) 
7.064945630432339

>  <meeko>  (91) 
{"free_energy": -7.06, "intermolecular_energy": -9.44, "internal_energy": -2.3, "cluster_size": 23, "cluster_id": 3, "rank_in_cluster": 18}

>  <energy>  (91) 
-6.87

>  <cluster_rmsd>  (91) 
0.79

>  <cluster>  (91) 
4

$$$$

     RDKit          3D

 64 67  0  0  0  0  0  0  0  0999 V2000
  139.8970   73.9250  218.8860 C   0  0  0  0  0  0  0  0  0  0  0  0
  140.6950   73.1110  219.9130 C   0  0  0  0  0  0  0  0  0  0  0  0
  141.4830   74.0010  220.7840 C   0  0  0  0  0  0  0  0  0  0  0  0
  141.0680   74.1410  221.9780 O   0  0  0  0  0  0  0  0  0  0  0  0
  142.6440   74.7130  220.4330 N   0  0  0  0  0  0  0  0  0  0  0  0
  143.8640   73.9290  220.3940 C   0  0  0  0  0  0  0  0  0  0  0  0
  143.8570   72.6370  219.9080 C   0  0  0  0  0  0  0  0  0  0  0  0
  145.0250   71.9070  219.8750 C   0  0  0  0  0  0  0  0  0  0  0  0
  146.2080   72.4510  220.3240 C   0  0  0  0  0  0  0  0  0  0  0  0
  146.2240   73.7440  220.8110 C   0  0  0  0  0  0  0  0  0  0  0  0
  145.0530   74.4750  220.8430 C   0  0  0  0  0  0  0  0  0  0  0  0
  142.6690   76.1400  220.0940 C   0  0  0  0  0  0  0  0  0  0  0  0
  141.4180   76.8270  220.4010 C   0  0  0  0  0  0  0  0  0  0  0  0
  140.6590   77.5010  219.3160 C   0  0  0  0  0  0  0  0  0  0  0  0
  141.6500   78.1190  218.4210 N   0  0  0  0  0  0  0  0  0  0  0  0
  141.7070   79.5180  218.2010 C   0  0  0  0  0  0  0  0  0  0  0  0
  142.6060   79.9300  217.4170 O   0  0  0  0  0  0  0  0  0  0  0  0
  140.7380   80.4130  218.8790 C   0  0  0  0  0  0  0  0  0  0  0  0
  141.4310   81.5230  219.6110 C   0  0  1  0  0  0  0  0  0  0  0  0
  142.0450   82.4430  218.6530 N   0  0  0  0  0  0  0  0  0  0  0  0
  140.5110   82.2530  220.5260 C   0  0  0  0  0  0  0  0  0  0  0  0
  139.5500   81.2810  221.1680 C   0  0  0  0  0  0  0  0  0  0  0  0
  140.5150   80.4940  222.0180 C   0  0  0  0  0  0  0  0  0  0  0  0
  140.5100   79.1710  222.4300 C   0  0  0  0  0  0  0  0  0  0  0  0
  141.5340   78.6680  223.2330 C   0  0  0  0  0  0  0  0  0  0  0  0
  142.5600   79.5380  223.6040 C   0  0  0  0  0  0  0  0  0  0  0  0
  142.5730   80.8560  223.1950 C   0  0  0  0  0  0  0  0  0  0  0  0
  141.5530   81.3550  222.3970 C   0  0  0  0  0  0  0  0  0  0  0  0
  141.2790   82.6960  221.7940 C   0  0  0  0  0  0  0  0  0  0  0  0
  142.5440   77.1770  217.7850 C   0  0  0  0  0  0  0  0  0  0  0  0
  143.2220   76.2610  218.7340 C   0  0  0  0  0  0  0  0  0  0  0  0
  139.2203   74.6152  219.4111 H   0  0  0  0  0  0  0  0  0  0  0  0
  140.5906   74.5004  218.2553 H   0  0  0  0  0  0  0  0  0  0  0  0
  139.3079   73.2429  218.2553 H   0  0  0  0  0  0  0  0  0  0  0  0
  139.9977   72.5260  220.5306 H   0  0  0  0  0  0  0  0  0  0  0  0
  141.3831   72.4414  219.3761 H   0  0  0  0  0  0  0  0  0  0  0  0
  142.9188   72.1903  219.5471 H   0  0  0  0  0  0  0  0  0  0  0  0
  145.0126   70.8783  219.4857 H   0  0  0  0  0  0  0  0  0  0  0  0
  147.1349   71.8594  220.2951 H   0  0  0  0  0  0  0  0  0  0  0  0
  147.1637   74.1882  221.1710 H   0  0  0  0  0  0  0  0  0  0  0  0
  145.0658   75.5044  221.2304 H   0  0  0  0  0  0  0  0  0  0  0  0
  143.3455   76.7100  220.7478 H   0  0  0  0  0  0  0  0  0  0  0  0
  140.7441   76.0785  220.8433 H   0  0  0  0  0  0  0  0  0  0  0  0
  141.7365   77.6604  221.0444 H   0  0  0  0  0  0  0  0  0  0  0  0
  140.0564   76.7656  218.7628 H   0  0  0  0  0  0  0  0  0  0  0  0
  139.9735   78.2572  219.7262 H   0  0  0  0  0  0  0  0  0  0  0  0
  140.0656   80.8479  218.1249 H   0  0  0  0  0  0  0  0  0  0  0  0
  140.1736   79.8173  219.6116 H   0  0  0  0  0  0  0  0  0  0  0  0
  142.2150   81.0734  220.2381 H   0  0  0  0  0  0  0  0  0  0  0  0
  142.6710   81.9600  217.9910 H   0  0  0  0  0  0  0  0  0  0  0  0
  141.3030   82.8960  218.0930 H   0  0  0  0  0  0  0  0  0  0  0  0
  140.0575   83.0573  219.9282 H   0  0  0  0  0  0  0  0  0  0  0  0
  138.7930   81.7959  221.7778 H   0  0  0  0  0  0  0  0  0  0  0  0
  138.9528   80.6823  220.4645 H   0  0  0  0  0  0  0  0  0  0  0  0
  139.6881   78.5089  222.1199 H   0  0  0  0  0  0  0  0  0  0  0  0
  141.5326   77.6187  223.5632 H   0  0  0  0  0  0  0  0  0  0  0  0
  143.3779   79.1644  224.2376 H   0  0  0  0  0  0  0  0  0  0  0  0
  143.3975   81.5156  223.5036 H   0  0  0  0  0  0  0  0  0  0  0  0
  140.6587   83.3227  222.4516 H   0  0  0  0  0  0  0  0  0  0  0  0
  142.1679   83.3174  221.6101 H   0  0  0  0  0  0  0  0  0  0  0  0
  141.9618   76.5716  217.0747 H   0  0  0  0  0  0  0  0  0  0  0  0
  143.3307   77.7657  217.2905 H   0  0  0  0  0  0  0  0  0  0  0  0
  143.2088   75.2568  218.2851 H   0  0  0  0  0  0  0  0  0  0  0  0
  144.2173   76.7057  218.8810 H   0  0  0  0  0  0  0  0  0  0  0  0
  1  2  1  0
  2  3  1  0
  3  4  2  0
  3  5  1  0
  5  6  1  0
  6  7  2  0
  7  8  1  0
  8  9  2  0
  9 10  1  0
 10 11  2  0
  5 12  1  0
 12 13  1  0
 13 14  1  0
 14 15  1  0
 15 16  1  0
 16 17  2  0
 16 18  1  0
 18 19  1  0
 19 20  1  0
 19 21  1  0
 21 22  1  0
 22 23  1  0
 23 24  2  0
 24 25  1  0
 25 26  2  0
 26 27  1  0
 27 28  2  0
 28 29  1  0
 15 30  1  0
 30 31  1  0
 11  6  1  0
 31 12  1  0
 29 21  1  0
 28 23  1  0
  1 32  1  0
  1 33  1  0
  1 34  1  0
  2 35  1  0
  2 36  1  0
  7 37  1  0
  8 38  1  0
  9 39  1  0
 10 40  1  0
 11 41  1  0
 12 42  1  0
 13 43  1  0
 13 44  1  0
 14 45  1  0
 14 46  1  0
 18 47  1  0
 18 48  1  0
 19 49  1  1
 20 50  1  0
 20 51  1  0
 21 52  1  0
 22 53  1  0
 22 54  1  0
 24 55  1  0
 25 56  1  0
 26 57  1  0
 27 58  1  0
 29 59  1  0
 29 60  1  0
 30 61  1  0
 30 62  1  0
 31 63  1  0
 31 64  1  0
M  END
>  <smiles>  (92) 
CCC(=O)N(c1ccccc1)C1CCN(C(=O)CC(N)C2Cc3ccccc3C2)CC1

>  <score_type>  (92) 
oracle

>  <origin>  (92) 
autodockgpu

>  <m_score__min__energy>  (92) 
-8.0099999999999998

>  <m_primary>  (92) 
energy

>  <rmsd>  (92) 
6.342873242343575

>  <m_score__min__rmsd>  (92) 
6.342873242343575

>  <meeko>  (92) 
{"free_energy": -6.76, "intermolecular_energy": -9.15, "internal_energy": -2.73, "cluster_size": 2, "cluster_id": 7, "rank_in_cluster": 1}

>  <energy>  (92) 
-6.88

>  <cluster_rmsd>  (92) 
0.0

>  <cluster>  (92) 
5

$$$$

     RDKit          3D

 64 67  0  0  0  0  0  0  0  0999 V2000
  142.2040   75.7160  220.2180 C   0  0  0  0  0  0  0  0  0  0  0  0
  141.2880   76.8140  219.6620 C   0  0  0  0  0  0  0  0  0  0  0  0
  139.9870   76.8070  220.3520 C   0  0  0  0  0  0  0  0  0  0  0  0
  138.9510   76.8340  219.6130 O   0  0  0  0  0  0  0  0  0  0  0  0
  139.7690   76.7740  221.7410 N   0  0  0  0  0  0  0  0  0  0  0  0
  140.1860   77.9620  222.4620 C   0  0  0  0  0  0  0  0  0  0  0  0
  139.3690   79.0730  222.5240 C   0  0  0  0  0  0  0  0  0  0  0  0
  139.7790   80.1920  223.2150 C   0  0  0  0  0  0  0  0  0  0  0  0
  141.0030   80.2190  223.8490 C   0  0  0  0  0  0  0  0  0  0  0  0
  141.8260   79.1110  223.7930 C   0  0  0  0  0  0  0  0  0  0  0  0
  141.4130   77.9900  223.1000 C   0  0  0  0  0  0  0  0  0  0  0  0
  139.1430   75.6560  222.4550 C   0  0  0  0  0  0  0  0  0  0  0  0
  139.3900   74.3610  221.8270 C   0  0  0  0  0  0  0  0  0  0  0  0
  138.2460   73.5340  221.3650 C   0  0  0  0  0  0  0  0  0  0  0  0
  137.1750   73.6880  222.3620 N   0  0  0  0  0  0  0  0  0  0  0  0
  136.6690   72.5950  223.1070 C   0  0  0  0  0  0  0  0  0  0  0  0
  135.7550   72.8530  223.9380 O   0  0  0  0  0  0  0  0  0  0  0  0
  137.2160   71.2330  222.8880 C   0  0  0  0  0  0  0  0  0  0  0  0
  137.6240   70.5880  224.1780 C   0  0  1  0  0  0  0  0  0  0  0  0
  136.4350   70.1710  224.9240 N   0  0  0  0  0  0  0  0  0  0  0  0
  138.5420   69.4350  223.9640 C   0  0  0  0  0  0  0  0  0  0  0  0
  139.9520   69.9350  223.7620 C   0  0  0  0  0  0  0  0  0  0  0  0
  140.2240   70.4920  225.1360 C   0  0  0  0  0  0  0  0  0  0  0  0
  141.0140   71.5480  225.5610 C   0  0  0  0  0  0  0  0  0  0  0  0
  141.1080   71.8710  226.9150 C   0  0  0  0  0  0  0  0  0  0  0  0
  140.3820   71.0990  227.8220 C   0  0  0  0  0  0  0  0  0  0  0  0
  139.5920   70.0470  227.4070 C   0  0  0  0  0  0  0  0  0  0  0  0
  139.5000   69.7260  226.0600 C   0  0  0  0  0  0  0  0  0  0  0  0
  138.7500   68.6800  225.2990 C   0  0  0  0  0  0  0  0  0  0  0  0
  136.6850   75.0410  222.5010 C   0  0  0  0  0  0  0  0  0  0  0  0
  137.7510   76.0410  222.7460 C   0  0  0  0  0  0  0  0  0  0  0  0
  142.1821   75.7422  221.3175 H   0  0  0  0  0  0  0  0  0  0  0  0
  141.8536   74.7339  219.8676 H   0  0  0  0  0  0  0  0  0  0  0  0
  143.2330   75.8846  219.8676 H   0  0  0  0  0  0  0  0  0  0  0  0
  141.7684   77.7928  219.8076 H   0  0  0  0  0  0  0  0  0  0  0  0
  141.1208   76.6258  218.5912 H   0  0  0  0  0  0  0  0  0  0  0  0
  138.3905   79.0648  222.0216 H   0  0  0  0  0  0  0  0  0  0  0  0
  139.1227   81.0735  223.2614 H   0  0  0  0  0  0  0  0  0  0  0  0
  141.3225   81.1180  224.3965 H   0  0  0  0  0  0  0  0  0  0  0  0
  142.8037   79.1214  224.2969 H   0  0  0  0  0  0  0  0  0  0  0  0
  142.0685   77.1078  223.0548 H   0  0  0  0  0  0  0  0  0  0  0  0
  139.6162   75.4706  223.4305 H   0  0  0  0  0  0  0  0  0  0  0  0
  140.0226   74.5493  220.9470 H   0  0  0  0  0  0  0  0  0  0  0  0
  139.8252   73.7621  222.6406 H   0  0  0  0  0  0  0  0  0  0  0  0
  137.8997   73.8837  220.3812 H   0  0  0  0  0  0  0  0  0  0  0  0
  138.5396   72.4788  221.2634 H   0  0  0  0  0  0  0  0  0  0  0  0
  136.4460   70.6123  222.4065 H   0  0  0  0  0  0  0  0  0  0  0  0
  138.1075   71.3190  222.2494 H   0  0  0  0  0  0  0  0  0  0  0  0
  138.1792   71.3341  224.7654 H   0  0  0  0  0  0  0  0  0  0  0  0
  135.7070   70.9010  224.9400 H   0  0  0  0  0  0  0  0  0  0  0  0
  136.0230   69.3400  224.4680 H   0  0  0  0  0  0  0  0  0  0  0  0
  138.1136   68.8496  223.1371 H   0  0  0  0  0  0  0  0  0  0  0  0
  140.6434   69.1183  223.5071 H   0  0  0  0  0  0  0  0  0  0  0  0
  140.0790   70.6500  222.9358 H   0  0  0  0  0  0  0  0  0  0  0  0
  141.5741   72.1391  224.8215 H   0  0  0  0  0  0  0  0  0  0  0  0
  141.7348   72.7080  227.2565 H   0  0  0  0  0  0  0  0  0  0  0  0
  140.4409   71.3349  228.8948 H   0  0  0  0  0  0  0  0  0  0  0  0
  139.0314   69.4588  228.1485 H   0  0  0  0  0  0  0  0  0  0  0  0
  139.3451   67.7647  225.1644 H   0  0  0  0  0  0  0  0  0  0  0  0
  137.8294   68.3199  225.7815 H   0  0  0  0  0  0  0  0  0  0  0  0
  136.1578   75.3157  221.5755 H   0  0  0  0  0  0  0  0  0  0  0  0
  136.0252   75.0540  223.3810 H   0  0  0  0  0  0  0  0  0  0  0  0
  137.5201   76.9224  222.1297 H   0  0  0  0  0  0  0  0  0  0  0  0
  137.7326   76.2000  223.8343 H   0  0  0  0  0  0  0  0  0  0  0  0
  1  2  1  0
  2  3  1  0
  3  4  2  0
  3  5  1  0
  5  6  1  0
  6  7  2  0
  7  8  1  0
  8  9  2  0
  9 10  1  0
 10 11  2  0
  5 12  1  0
 12 13  1  0
 13 14  1  0
 14 15  1  0
 15 16  1  0
 16 17  2  0
 16 18  1  0
 18 19  1  0
 19 20  1  0
 19 21  1  0
 21 22  1  0
 22 23  1  0
 23 24  2  0
 24 25  1  0
 25 26  2  0
 26 27  1  0
 27 28  2  0
 28 29  1  0
 15 30  1  0
 30 31  1  0
 11  6  1  0
 31 12  1  0
 29 21  1  0
 28 23  1  0
  1 32  1  0
  1 33  1  0
  1 34  1  0
  2 35  1  0
  2 36  1  0
  7 37  1  0
  8 38  1  0
  9 39  1  0
 10 40  1  0
 11 41  1  0
 12 42  1  0
 13 43  1  0
 13 44  1  0
 14 45  1  0
 14 46  1  0
 18 47  1  0
 18 48  1  0
 19 49  1  1
 20 50  1  0
 20 51  1  0
 21 52  1  0
 22 53  1  0
 22 54  1  0
 24 55  1  0
 25 56  1  0
 26 57  1  0
 27 58  1  0
 29 59  1  0
 29 60  1  0
 30 61  1  0
 30 62  1  0
 31 63  1  0
 31 64  1  0
M  END
>  <smiles>  (93) 
CCC(=O)N(c1ccccc1)C1CCN(C(=O)CC(N)C2Cc3ccccc3C2)CC1

>  <score_type>  (93) 
oracle

>  <origin>  (93) 
autodockgpu

>  <m_score__min__energy>  (93) 
-8.0099999999999998

>  <m_primary>  (93) 
energy

>  <rmsd>  (93) 
8.032290949914008

>  <m_score__min__rmsd>  (93) 
8.032290949914008

>  <meeko>  (93) 
{"free_energy": -6.87, "intermolecular_energy": -9.26, "internal_energy": -2.34, "cluster_size": 9, "cluster_id": 1, "rank_in_cluster": 7}

>  <energy>  (93) 
-6.67

>  <cluster_rmsd>  (93) 
0.63

>  <cluster>  (93) 
5

$$$$

     RDKit          3D

 64 67  0  0  0  0  0  0  0  0999 V2000
  137.0190   71.2750  222.5800 C   0  0  0  0  0  0  0  0  0  0  0  0
  137.7870   70.5700  221.4550 C   0  0  0  0  0  0  0  0  0  0  0  0
  139.1740   70.2930  221.8660 C   0  0  0  0  0  0  0  0  0  0  0  0
  139.7560   69.3220  221.2860 O   0  0  0  0  0  0  0  0  0  0  0  0
  139.9220   70.9880  222.8330 N   0  0  0  0  0  0  0  0  0  0  0  0
  139.9190   70.3990  224.1600 C   0  0  0  0  0  0  0  0  0  0  0  0
  139.1900   69.2570  224.4230 C   0  0  0  0  0  0  0  0  0  0  0  0
  139.2000   68.7100  225.6870 C   0  0  0  0  0  0  0  0  0  0  0  0
  139.9320   69.2900  226.7000 C   0  0  0  0  0  0  0  0  0  0  0  0
  140.6660   70.4320  226.4440 C   0  0  0  0  0  0  0  0  0  0  0  0
  140.6550   70.9800  225.1770 C   0  0  0  0  0  0  0  0  0  0  0  0
  140.6910   72.2090  222.5670 C   0  0  0  0  0  0  0  0  0  0  0  0
  139.8490   73.3790  222.3360 C   0  0  0  0  0  0  0  0  0  0  0  0
  139.9410   74.1140  221.0480 C   0  0  0  0  0  0  0  0  0  0  0  0
  141.3610   74.1270  220.6630 N   0  0  0  0  0  0  0  0  0  0  0  0
  142.0970   75.3300  220.5170 C   0  0  0  0  0  0  0  0  0  0  0  0
  143.3100   75.2130  220.1900 O   0  0  0  0  0  0  0  0  0  0  0  0
  141.4320   76.6360  220.7460 C   0  0  0  0  0  0  0  0  0  0  0  0
  142.1470   77.7500  220.0420 C   0  0  1  0  0  0  0  0  0  0  0  0
  142.8570   77.2250  218.8740 N   0  0  0  0  0  0  0  0  0  0  0  0
  141.2230   78.8490  219.6460 C   0  0  0  0  0  0  0  0  0  0  0  0
  140.0580   78.9080  220.6040 C   0  0  0  0  0  0  0  0  0  0  0  0
  140.7790   79.3400  221.8560 C   0  0  0  0  0  0  0  0  0  0  0  0
  140.5320   79.0840  223.1950 C   0  0  0  0  0  0  0  0  0  0  0  0
  141.3570   79.6120  224.1880 C   0  0  0  0  0  0  0  0  0  0  0  0
  142.4360   80.4020  223.7890 C   0  0  0  0  0  0  0  0  0  0  0  0
  142.6890   80.6600  222.4570 C   0  0  0  0  0  0  0  0  0  0  0  0
  141.8670   80.1350  221.4700 C   0  0  0  0  0  0  0  0  0  0  0  0
  141.8680   80.2170  219.9770 C   0  0  0  0  0  0  0  0  0  0  0  0
  141.9280   72.8160  220.4400 C   0  0  0  0  0  0  0  0  0  0  0  0
  141.7180   71.8740  221.5660 C   0  0  0  0  0  0  0  0  0  0  0  0
  137.3958   70.9291  223.5539 H   0  0  0  0  0  0  0  0  0  0  0  0
  137.1626   72.3624  222.4965 H   0  0  0  0  0  0  0  0  0  0  0  0
  135.9478   71.0391  222.4965 H   0  0  0  0  0  0  0  0  0  0  0  0
  137.2852   69.6211  221.2147 H   0  0  0  0  0  0  0  0  0  0  0  0
  137.8039   71.2267  220.5727 H   0  0  0  0  0  0  0  0  0  0  0  0
  138.6012   68.7838  223.6234 H   0  0  0  0  0  0  0  0  0  0  0  0
  138.6169   67.7996  225.8901 H   0  0  0  0  0  0  0  0  0  0  0  0
  139.9320   68.8464  227.7066 H   0  0  0  0  0  0  0  0  0  0  0  0
  141.2557   70.9018  227.2449 H   0  0  0  0  0  0  0  0  0  0  0  0
  141.2387   71.8899  224.9736 H   0  0  0  0  0  0  0  0  0  0  0  0
  141.2371   72.5584  223.4557 H   0  0  0  0  0  0  0  0  0  0  0  0
  138.8058   73.0455  222.4382 H   0  0  0  0  0  0  0  0  0  0  0  0
  140.2192   74.1080  223.0719 H   0  0  0  0  0  0  0  0  0  0  0  0
  139.3450   73.6029  220.2776 H   0  0  0  0  0  0  0  0  0  0  0  0
  139.5518   75.1377  221.1505 H   0  0  0  0  0  0  0  0  0  0  0  0
  140.3993   76.5814  220.3711 H   0  0  0  0  0  0  0  0  0  0  0  0
  141.4473   76.8454  221.8258 H   0  0  0  0  0  0  0  0  0  0  0  0
  142.8733   78.1814  220.7466 H   0  0  0  0  0  0  0  0  0  0  0  0
  143.8440   77.0090  219.0800 H   0  0  0  0  0  0  0  0  0  0  0  0
  142.4080   76.3440  218.5720 H   0  0  0  0  0  0  0  0  0  0  0  0
  140.9716   78.6738  218.5895 H   0  0  0  0  0  0  0  0  0  0  0  0
  139.3061   79.6466  220.2891 H   0  0  0  0  0  0  0  0  0  0  0  0
  139.4828   77.9749  220.6961 H   0  0  0  0  0  0  0  0  0  0  0  0
  139.6743   78.4563  223.4786 H   0  0  0  0  0  0  0  0  0  0  0  0
  141.1632   79.4120  225.2522 H   0  0  0  0  0  0  0  0  0  0  0  0
  143.1007   80.8292  224.5543 H   0  0  0  0  0  0  0  0  0  0  0  0
  143.5484   81.2863  222.1758 H   0  0  0  0  0  0  0  0  0  0  0  0
  141.2590   81.0570  219.6117 H   0  0  0  0  0  0  0  0  0  0  0  0
  142.8520   80.3941  219.5183 H   0  0  0  0  0  0  0  0  0  0  0  0
  141.4663   72.3872  219.5383 H   0  0  0  0  0  0  0  0  0  0  0  0
  143.0145   72.9506  220.3331 H   0  0  0  0  0  0  0  0  0  0  0  0
  141.4458   70.9008  221.1315 H   0  0  0  0  0  0  0  0  0  0  0  0
  142.6648   71.9000  222.1254 H   0  0  0  0  0  0  0  0  0  0  0  0
  1  2  1  0
  2  3  1  0
  3  4  2  0
  3  5  1  0
  5  6  1  0
  6  7  2  0
  7  8  1  0
  8  9  2  0
  9 10  1  0
 10 11  2  0
  5 12  1  0
 12 13  1  0
 13 14  1  0
 14 15  1  0
 15 16  1  0
 16 17  2  0
 16 18  1  0
 18 19  1  0
 19 20  1  0
 19 21  1  0
 21 22  1  0
 22 23  1  0
 23 24  2  0
 24 25  1  0
 25 26  2  0
 26 27  1  0
 27 28  2  0
 28 29  1  0
 15 30  1  0
 30 31  1  0
 11  6  1  0
 31 12  1  0
 29 21  1  0
 28 23  1  0
  1 32  1  0
  1 33  1  0
  1 34  1  0
  2 35  1  0
  2 36  1  0
  7 37  1  0
  8 38  1  0
  9 39  1  0
 10 40  1  0
 11 41  1  0
 12 42  1  0
 13 43  1  0
 13 44  1  0
 14 45  1  0
 14 46  1  0
 18 47  1  0
 18 48  1  0
 19 49  1  1
 20 50  1  0
 20 51  1  0
 21 52  1  0
 22 53  1  0
 22 54  1  0
 24 55  1  0
 25 56  1  0
 26 57  1  0
 27 58  1  0
 29 59  1  0
 29 60  1  0
 30 61  1  0
 30 62  1  0
 31 63  1  0
 31 64  1  0
M  END
>  <smiles>  (94) 
CCC(=O)N(c1ccccc1)C1CCN(C(=O)CC(N)C2Cc3ccccc3C2)CC1

>  <score_type>  (94) 
oracle

>  <origin>  (94) 
autodockgpu

>  <m_score__min__energy>  (94) 
-8.0099999999999998

>  <m_primary>  (94) 
energy

>  <rmsd>  (94) 
6.512762879276463

>  <m_score__min__rmsd>  (94) 
6.512762879276463

>  <meeko>  (94) 
{"free_energy": -6.74, "intermolecular_energy": -9.13, "internal_energy": -2.37, "cluster_size": 23, "cluster_id": 3, "rank_in_cluster": 23}

>  <energy>  (94) 
-6.87

>  <cluster_rmsd>  (94) 
0.0

>  <cluster>  (94) 
6

$$$$

     RDKit          3D

 64 67  0  0  0  0  0  0  0  0999 V2000
  141.7940   80.2450  219.3810 C   0  0  0  0  0  0  0  0  0  0  0  0
  141.1510   78.8560  219.2680 C   0  0  0  0  0  0  0  0  0  0  0  0
  141.6170   77.9770  220.3540 C   0  0  0  0  0  0  0  0  0  0  0  0
  142.5850   77.1990  220.0800 O   0  0  0  0  0  0  0  0  0  0  0  0
  141.1020   77.9060  221.6610 N   0  0  0  0  0  0  0  0  0  0  0  0
  141.3770   79.0580  222.4990 C   0  0  0  0  0  0  0  0  0  0  0  0
  142.6760   79.4320  222.7790 C   0  0  0  0  0  0  0  0  0  0  0  0
  142.9190   80.5300  223.5750 C   0  0  0  0  0  0  0  0  0  0  0  0
  141.8780   81.2640  224.1010 C   0  0  0  0  0  0  0  0  0  0  0  0
  140.5760   80.8970  223.8240 C   0  0  0  0  0  0  0  0  0  0  0  0
  140.3320   79.7960  223.0260 C   0  0  0  0  0  0  0  0  0  0  0  0
  140.3130   76.7830  222.1810 C   0  0  0  0  0  0  0  0  0  0  0  0
  140.5520   75.5330  221.4660 C   0  0  0  0  0  0  0  0  0  0  0  0
  139.4250   74.8420  220.7860 C   0  0  0  0  0  0  0  0  0  0  0  0
  138.2450   74.9940  221.6520 N   0  0  0  0  0  0  0  0  0  0  0  0
  137.5720   73.8840  222.2200 C   0  0  0  0  0  0  0  0  0  0  0  0
  136.5770   74.1410  222.9520 O   0  0  0  0  0  0  0  0  0  0  0  0
  138.0490   72.5070  221.9400 C   0  0  0  0  0  0  0  0  0  0  0  0
  138.1500   71.6920  223.1940 C   0  0  1  0  0  0  0  0  0  0  0  0
  136.9150   71.8200  223.9700 N   0  0  0  0  0  0  0  0  0  0  0  0
  138.4470   70.2610  222.9110 C   0  0  0  0  0  0  0  0  0  0  0  0
  139.9420   70.0450  222.8880 C   0  0  0  0  0  0  0  0  0  0  0  0
  140.2590   70.3040  224.3390 C   0  0  0  0  0  0  0  0  0  0  0  0
  141.3860   70.8250  224.9550 C   0  0  0  0  0  0  0  0  0  0  0  0
  141.4420   70.9650  226.3420 C   0  0  0  0  0  0  0  0  0  0  0  0
  140.3300   70.5660  227.0840 C   0  0  0  0  0  0  0  0  0  0  0  0
  139.2040   70.0490  226.4770 C   0  0  0  0  0  0  0  0  0  0  0  0
  139.1490   69.9090  225.0970 C   0  0  0  0  0  0  0  0  0  0  0  0
  138.1060   69.4020  224.1530 C   0  0  0  0  0  0  0  0  0  0  0  0
  137.8340   76.3650  221.8600 C   0  0  0  0  0  0  0  0  0  0  0  0
  138.9250   77.2520  222.3310 C   0  0  0  0  0  0  0  0  0  0  0  0
  141.9155   80.5076  220.4423 H   0  0  0  0  0  0  0  0  0  0  0  0
  142.7787   80.2342  218.8909 H   0  0  0  0  0  0  0  0  0  0  0  0
  141.1486   80.9888  218.8909 H   0  0  0  0  0  0  0  0  0  0  0  0
  140.0575   78.9581  219.3301 H   0  0  0  0  0  0  0  0  0  0  0  0
  141.4385   78.4104  218.3042 H   0  0  0  0  0  0  0  0  0  0  0  0
  143.5163   78.8539  222.3670 H   0  0  0  0  0  0  0  0  0  0  0  0
  143.9562   80.8242  223.7932 H   0  0  0  0  0  0  0  0  0  0  0  0
  142.0831   82.1372  224.7378 H   0  0  0  0  0  0  0  0  0  0  0  0
  139.7379   81.4780  224.2364 H   0  0  0  0  0  0  0  0  0  0  0  0
  139.2947   79.5026  222.8070 H   0  0  0  0  0  0  0  0  0  0  0  0
  140.6393   76.4754  223.1854 H   0  0  0  0  0  0  0  0  0  0  0  0
  141.3061   75.7470  220.6943 H   0  0  0  0  0  0  0  0  0  0  0  0
  140.8344   74.8325  222.2658 H   0  0  0  0  0  0  0  0  0  0  0  0
  139.2359   75.3022  219.8049 H   0  0  0  0  0  0  0  0  0  0  0  0
  139.6573   73.7797  220.6201 H   0  0  0  0  0  0  0  0  0  0  0  0
  137.3435   72.0178  221.2523 H   0  0  0  0  0  0  0  0  0  0  0  0
  139.0514   72.5747  221.4922 H   0  0  0  0  0  0  0  0  0  0  0  0
  138.9929   72.0832  223.7826 H   0  0  0  0  0  0  0  0  0  0  0  0
  136.9310   72.6350  224.6010 H   0  0  0  0  0  0  0  0  0  0  0  0
  136.1190   71.9510  223.3230 H   0  0  0  0  0  0  0  0  0  0  0  0
  137.9073   70.0115  221.9855 H   0  0  0  0  0  0  0  0  0  0  0  0
  140.2029   69.0191  222.5887 H   0  0  0  0  0  0  0  0  0  0  0  0
  140.4925   70.6723  222.1715 H   0  0  0  0  0  0  0  0  0  0  0  0
  142.2469   71.1319  224.3428 H   0  0  0  0  0  0  0  0  0  0  0  0
  142.3349   71.3770  226.8350 H   0  0  0  0  0  0  0  0  0  0  0  0
  140.3515   70.6660  228.1792 H   0  0  0  0  0  0  0  0  0  0  0  0
  138.3434   69.7455  227.0912 H   0  0  0  0  0  0  0  0  0  0  0  0
  138.2217   68.3266  223.9526 H   0  0  0  0  0  0  0  0  0  0  0  0
  137.0693   69.4868  224.5109 H   0  0  0  0  0  0  0  0  0  0  0  0
  137.4520   76.7609  220.9074 H   0  0  0  0  0  0  0  0  0  0  0  0
  137.0674   76.3535  222.6488 H   0  0  0  0  0  0  0  0  0  0  0  0
  138.8384   78.1987  221.7776 H   0  0  0  0  0  0  0  0  0  0  0  0
  138.7742   77.3180  223.4186 H   0  0  0  0  0  0  0  0  0  0  0  0
  1  2  1  0
  2  3  1  0
  3  4  2  0
  3  5  1  0
  5  6  1  0
  6  7  2  0
  7  8  1  0
  8  9  2  0
  9 10  1  0
 10 11  2  0
  5 12  1  0
 12 13  1  0
 13 14  1  0
 14 15  1  0
 15 16  1  0
 16 17  2  0
 16 18  1  0
 18 19  1  0
 19 20  1  0
 19 21  1  0
 21 22  1  0
 22 23  1  0
 23 24  2  0
 24 25  1  0
 25 26  2  0
 26 27  1  0
 27 28  2  0
 28 29  1  0
 15 30  1  0
 30 31  1  0
 11  6  1  0
 31 12  1  0
 29 21  1  0
 28 23  1  0
  1 32  1  0
  1 33  1  0
  1 34  1  0
  2 35  1  0
  2 36  1  0
  7 37  1  0
  8 38  1  0
  9 39  1  0
 10 40  1  0
 11 41  1  0
 12 42  1  0
 13 43  1  0
 13 44  1  0
 14 45  1  0
 14 46  1  0
 18 47  1  0
 18 48  1  0
 19 49  1  1
 20 50  1  0
 20 51  1  0
 21 52  1  0
 22 53  1  0
 22 54  1  0
 24 55  1  0
 25 56  1  0
 26 57  1  0
 27 58  1  0
 29 59  1  0
 29 60  1  0
 30 61  1  0
 30 62  1  0
 31 63  1  0
 31 64  1  0
M  END
>  <smiles>  (95) 
CCC(=O)N(c1ccccc1)C1CCN(C(=O)CC(N)C2Cc3ccccc3C2)CC1

>  <score_type>  (95) 
oracle

>  <origin>  (95) 
autodockgpu

>  <m_score__min__energy>  (95) 
-8.0099999999999998

>  <m_primary>  (95) 
energy

>  <rmsd>  (95) 
6.625163864008735

>  <m_score__min__rmsd>  (95) 
6.625163864008735

>  <meeko>  (95) 
{"free_energy": -7.0, "intermolecular_energy": -9.38, "internal_energy": -2.29, "cluster_size": 9, "cluster_id": 1, "rank_in_cluster": 6}

>  <energy>  (95) 
-6.83

>  <cluster_rmsd>  (95) 
0.17

>  <cluster>  (95) 
6

$$$$

     RDKit          3D

 64 67  0  0  0  0  0  0  0  0999 V2000
  139.4120   78.0310  219.3120 C   0  0  0  0  0  0  0  0  0  0  0  0
  140.6650   77.3080  218.8010 C   0  0  0  0  0  0  0  0  0  0  0  0
  141.5830   77.0090  219.9140 C   0  0  0  0  0  0  0  0  0  0  0  0
  142.7950   76.7760  219.6040 O   0  0  0  0  0  0  0  0  0  0  0  0
  141.2600   76.9530  221.2820 N   0  0  0  0  0  0  0  0  0  0  0  0
  141.4750   78.1830  222.0210 C   0  0  0  0  0  0  0  0  0  0  0  0
  141.4130   78.1960  223.4000 C   0  0  0  0  0  0  0  0  0  0  0  0
  141.6210   79.3730  224.0870 C   0  0  0  0  0  0  0  0  0  0  0  0
  141.8910   80.5440  223.4130 C   0  0  0  0  0  0  0  0  0  0  0  0
  141.9560   80.5380  222.0330 C   0  0  0  0  0  0  0  0  0  0  0  0
  141.7470   79.3590  221.3450 C   0  0  0  0  0  0  0  0  0  0  0  0
  140.7170   75.7690  221.9560 C   0  0  0  0  0  0  0  0  0  0  0  0
  141.4130   74.5350  221.6030 C   0  0  0  0  0  0  0  0  0  0  0  0
  140.6620   73.4160  220.9770 C   0  0  0  0  0  0  0  0  0  0  0  0
  139.3420   73.3690  221.6260 N   0  0  0  0  0  0  0  0  0  0  0  0
  138.8960   72.2420  222.3590 C   0  0  0  0  0  0  0  0  0  0  0  0
  137.7480   72.3230  222.8770 O   0  0  0  0  0  0  0  0  0  0  0  0
  139.7680   71.0480  222.4830 C   0  0  0  0  0  0  0  0  0  0  0  0
  139.6780   70.4390  223.8500 C   0  0  1  0  0  0  0  0  0  0  0  0
  139.5290   71.4930  224.8550 N   0  0  0  0  0  0  0  0  0  0  0  0
  138.5660   69.4530  223.9540 C   0  0  0  0  0  0  0  0  0  0  0  0
  139.1280   68.0720  224.1920 C   0  0  0  0  0  0  0  0  0  0  0  0
  139.7030   68.2660  225.5730 C   0  0  0  0  0  0  0  0  0  0  0  0
  140.7950   67.6930  226.2040 C   0  0  0  0  0  0  0  0  0  0  0  0
  141.1270   68.0400  227.5130 C   0  0  0  0  0  0  0  0  0  0  0  0
  140.3270   68.9800  228.1630 C   0  0  0  0  0  0  0  0  0  0  0  0
  139.2390   69.5560  227.5410 C   0  0  0  0  0  0  0  0  0  0  0  0
  138.9090   69.2100  226.2380 C   0  0  0  0  0  0  0  0  0  0  0  0
  137.8270   69.6410  225.3000 C   0  0  0  0  0  0  0  0  0  0  0  0
  138.5480   74.5630  221.4420 C   0  0  0  0  0  0  0  0  0  0  0  0
  139.2510   75.8140  221.8150 C   0  0  0  0  0  0  0  0  0  0  0  0
  139.4117   78.0312  220.4120 H   0  0  0  0  0  0  0  0  0  0  0  0
  139.4118   79.0680  218.9452 H   0  0  0  0  0  0  0  0  0  0  0  0
  138.5141   77.5122  218.9452 H   0  0  0  0  0  0  0  0  0  0  0  0
  140.3665   76.3668  218.3161 H   0  0  0  0  0  0  0  0  0  0  0  0
  141.1815   77.9604  218.0815 H   0  0  0  0  0  0  0  0  0  0  0  0
  141.1978   77.2681  223.9502 H   0  0  0  0  0  0  0  0  0  0  0  0
  141.5708   79.3773  225.1859 H   0  0  0  0  0  0  0  0  0  0  0  0
  142.0539   81.4782  223.9704 H   0  0  0  0  0  0  0  0  0  0  0  0
  142.1730   81.4670  221.4854 H   0  0  0  0  0  0  0  0  0  0  0  0
  141.7974   79.3549  220.2462 H   0  0  0  0  0  0  0  0  0  0  0  0
  140.9178   75.7789  223.0375 H   0  0  0  0  0  0  0  0  0  0  0  0
  142.2152   74.8111  220.9028 H   0  0  0  0  0  0  0  0  0  0  0  0
  141.7151   74.1251  222.5780 H   0  0  0  0  0  0  0  0  0  0  0  0
  140.5465   73.5953  219.8979 H   0  0  0  0  0  0  0  0  0  0  0  0
  141.1970   72.4634  221.1049 H   0  0  0  0  0  0  0  0  0  0  0  0
  139.4579   70.3005  221.7380 H   0  0  0  0  0  0  0  0  0  0  0  0
  140.8085   71.3625  222.3141 H   0  0  0  0  0  0  0  0  0  0  0  0
  140.6123   69.8885  224.0344 H   0  0  0  0  0  0  0  0  0  0  0  0
  140.1820   72.2760  224.7010 H   0  0  0  0  0  0  0  0  0  0  0  0
  138.5720   71.8790  224.8030 H   0  0  0  0  0  0  0  0  0  0  0  0
  137.9582   69.5775  223.0456 H   0  0  0  0  0  0  0  0  0  0  0  0
  138.3421   67.3024  224.1801 H   0  0  0  0  0  0  0  0  0  0  0  0
  139.8443   67.7231  223.4336 H   0  0  0  0  0  0  0  0  0  0  0  0
  141.4079   66.9550  225.6656 H   0  0  0  0  0  0  0  0  0  0  0  0
  141.9929   67.5866  228.0175 H   0  0  0  0  0  0  0  0  0  0  0  0
  140.5697   69.2687  229.1963 H   0  0  0  0  0  0  0  0  0  0  0  0
  138.6287   70.2946  228.0813 H   0  0  0  0  0  0  0  0  0  0  0  0
  136.9389   68.9962  225.3740 H   0  0  0  0  0  0  0  0  0  0  0  0
  137.4278   70.6504  225.4779 H   0  0  0  0  0  0  0  0  0  0  0  0
  138.2620   74.6291  220.3819 H   0  0  0  0  0  0  0  0  0  0  0  0
  137.6777   74.4742  222.1088 H   0  0  0  0  0  0  0  0  0  0  0  0
  139.0197   76.5619  221.0422 H   0  0  0  0  0  0  0  0  0  0  0  0
  138.8850   76.0431  222.8267 H   0  0  0  0  0  0  0  0  0  0  0  0
  1  2  1  0
  2  3  1  0
  3  4  2  0
  3  5  1  0
  5  6  1  0
  6  7  2  0
  7  8  1  0
  8  9  2  0
  9 10  1  0
 10 11  2  0
  5 12  1  0
 12 13  1  0
 13 14  1  0
 14 15  1  0
 15 16  1  0
 16 17  2  0
 16 18  1  0
 18 19  1  0
 19 20  1  0
 19 21  1  0
 21 22  1  0
 22 23  1  0
 23 24  2  0
 24 25  1  0
 25 26  2  0
 26 27  1  0
 27 28  2  0
 28 29  1  0
 15 30  1  0
 30 31  1  0
 11  6  1  0
 31 12  1  0
 29 21  1  0
 28 23  1  0
  1 32  1  0
  1 33  1  0
  1 34  1  0
  2 35  1  0
  2 36  1  0
  7 37  1  0
  8 38  1  0
  9 39  1  0
 10 40  1  0
 11 41  1  0
 12 42  1  0
 13 43  1  0
 13 44  1  0
 14 45  1  0
 14 46  1  0
 18 47  1  0
 18 48  1  0
 19 49  1  1
 20 50  1  0
 20 51  1  0
 21 52  1  0
 22 53  1  0
 22 54  1  0
 24 55  1  0
 25 56  1  0
 26 57  1  0
 27 58  1  0
 29 59  1  0
 29 60  1  0
 30 61  1  0
 30 62  1  0
 31 63  1  0
 31 64  1  0
M  END
>  <smiles>  (96) 
CCC(=O)N(c1ccccc1)C1CCN(C(=O)CC(N)C2Cc3ccccc3C2)CC1

>  <score_type>  (96) 
oracle

>  <origin>  (96) 
autodockgpu

>  <m_score__min__energy>  (96) 
-8.0099999999999998

>  <m_primary>  (96) 
energy

>  <rmsd>  (96) 
7.6603721581047

>  <m_score__min__rmsd>  (96) 
7.6603721581047

>  <meeko>  (96) 
{"free_energy": -7.49, "intermolecular_energy": -9.87, "internal_energy": -1.94, "cluster_size": 9, "cluster_id": 1, "rank_in_cluster": 4}

>  <energy>  (96) 
-6.66

>  <cluster_rmsd>  (96) 
0.66

>  <cluster>  (96) 
6

$$$$

     RDKit          3D

 64 67  0  0  0  0  0  0  0  0999 V2000
  141.9050   76.8680  219.9530 C   0  0  0  0  0  0  0  0  0  0  0  0
  142.1050   76.2800  218.5500 C   0  0  0  0  0  0  0  0  0  0  0  0
  141.7900   74.8410  218.5380 C   0  0  0  0  0  0  0  0  0  0  0  0
  141.3650   74.3600  217.4400 O   0  0  0  0  0  0  0  0  0  0  0  0
  141.9080   73.9430  219.6150 N   0  0  0  0  0  0  0  0  0  0  0  0
  143.2630   73.5480  219.9480 C   0  0  0  0  0  0  0  0  0  0  0  0
  143.6890   72.2510  219.7460 C   0  0  0  0  0  0  0  0  0  0  0  0
  144.9810   71.8920  220.0660 C   0  0  0  0  0  0  0  0  0  0  0  0
  145.8590   72.8160  220.5880 C   0  0  0  0  0  0  0  0  0  0  0  0
  145.4410   74.1170  220.7920 C   0  0  0  0  0  0  0  0  0  0  0  0
  144.1460   74.4750  220.4710 C   0  0  0  0  0  0  0  0  0  0  0  0
  140.7750   73.4340  220.3960 C   0  0  0  0  0  0  0  0  0  0  0  0
  141.0910   73.2430  221.8090 C   0  0  0  0  0  0  0  0  0  0  0  0
  140.9610   71.8940  222.4200 C   0  0  0  0  0  0  0  0  0  0  0  0
  139.7650   71.2710  221.8300 N   0  0  0  0  0  0  0  0  0  0  0  0
  138.6460   70.8870  222.6110 C   0  0  0  0  0  0  0  0  0  0  0  0
  137.6770   70.3690  221.9910 O   0  0  0  0  0  0  0  0  0  0  0  0
  138.6590   71.1030  224.0790 C   0  0  0  0  0  0  0  0  0  0  0  0
  138.2440   69.8690  224.8210 C   0  0  1  0  0  0  0  0  0  0  0  0
  137.1150   69.2350  224.1390 N   0  0  0  0  0  0  0  0  0  0  0  0
  139.3680   68.9060  224.9830 C   0  0  0  0  0  0  0  0  0  0  0  0
  140.6850   69.6420  224.9140 C   0  0  0  0  0  0  0  0  0  0  0  0
  140.5890   70.4560  226.1800 C   0  0  0  0  0  0  0  0  0  0  0  0
  141.0910   71.7030  226.5120 C   0  0  0  0  0  0  0  0  0  0  0  0
  140.8660   72.2520  227.7740 C   0  0  0  0  0  0  0  0  0  0  0  0
  140.1220   71.5050  228.6880 C   0  0  0  0  0  0  0  0  0  0  0  0
  139.6170   70.2620  228.3640 C   0  0  0  0  0  0  0  0  0  0  0  0
  139.8410   69.7170  227.1080 C   0  0  0  0  0  0  0  0  0  0  0  0
  139.4410   68.4330  226.4550 C   0  0  0  0  0  0  0  0  0  0  0  0
  139.8410   71.0790  220.3990 C   0  0  0  0  0  0  0  0  0  0  0  0
  140.1930   72.3080  219.6480 C   0  0  0  0  0  0  0  0  0  0  0  0
  142.1626   76.1107  220.7081 H   0  0  0  0  0  0  0  0  0  0  0  0
  142.5548   77.7466  220.0784 H   0  0  0  0  0  0  0  0  0  0  0  0
  140.8542   77.1682  220.0784 H   0  0  0  0  0  0  0  0  0  0  0  0
  141.4425   76.8004  217.8427 H   0  0  0  0  0  0  0  0  0  0  0  0
  143.1569   76.4139  218.2574 H   0  0  0  0  0  0  0  0  0  0  0  0
  142.9976   71.5036  219.3296 H   0  0  0  0  0  0  0  0  0  0  0  0
  145.3143   70.8565  219.9027 H   0  0  0  0  0  0  0  0  0  0  0  0
  146.8876   72.5197  220.8411 H   0  0  0  0  0  0  0  0  0  0  0  0
  146.1348   74.8628  221.2073 H   0  0  0  0  0  0  0  0  0  0  0  0
  143.8129   75.5107  220.6334 H   0  0  0  0  0  0  0  0  0  0  0  0
  139.9709   74.1781  220.4950 H   0  0  0  0  0  0  0  0  0  0  0  0
  142.1368   73.5553  221.9464 H   0  0  0  0  0  0  0  0  0  0  0  0
  140.3181   73.8318  222.3247 H   0  0  0  0  0  0  0  0  0  0  0  0
  141.8522   71.2895  222.1955 H   0  0  0  0  0  0  0  0  0  0  0  0
  140.8694   71.9643  223.5139 H   0  0  0  0  0  0  0  0  0  0  0  0
  139.6767   71.3814  224.3900 H   0  0  0  0  0  0  0  0  0  0  0  0
  137.9434   71.9042  224.3156 H   0  0  0  0  0  0  0  0  0  0  0  0
  137.9352   70.1732  225.8320 H   0  0  0  0  0  0  0  0  0  0  0  0
  136.4540   69.9240  223.7490 H   0  0  0  0  0  0  0  0  0  0  0  0
  137.4690   68.6720  223.3480 H   0  0  0  0  0  0  0  0  0  0  0  0
  139.2123   68.1210  224.2283 H   0  0  0  0  0  0  0  0  0  0  0  0
  141.5412   68.9518  224.9351 H   0  0  0  0  0  0  0  0  0  0  0  0
  140.8447   70.2260  223.9956 H   0  0  0  0  0  0  0  0  0  0  0  0
  141.6750   72.2680  225.7705 H   0  0  0  0  0  0  0  0  0  0  0  0
  141.2626   73.2428  228.0406 H   0  0  0  0  0  0  0  0  0  0  0  0
  139.9335   71.9165  229.6906 H   0  0  0  0  0  0  0  0  0  0  0  0
  139.0327   69.6994  229.1070 H   0  0  0  0  0  0  0  0  0  0  0  0
  140.1980   67.6476  226.5964 H   0  0  0  0  0  0  0  0  0  0  0  0
  138.5198   67.9763  226.8460 H   0  0  0  0  0  0  0  0  0  0  0  0
  140.6049   70.3152  220.1917 H   0  0  0  0  0  0  0  0  0  0  0  0
  138.8388   70.7743  220.0631 H   0  0  0  0  0  0  0  0  0  0  0  0
  140.9187   72.0207  218.8729 H   0  0  0  0  0  0  0  0  0  0  0  0
  139.2289   72.6912  219.2824 H   0  0  0  0  0  0  0  0  0  0  0  0
  1  2  1  0
  2  3  1  0
  3  4  2  0
  3  5  1  0
  5  6  1  0
  6  7  2  0
  7  8  1  0
  8  9  2  0
  9 10  1  0
 10 11  2  0
  5 12  1  0
 12 13  1  0
 13 14  1  0
 14 15  1  0
 15 16  1  0
 16 17  2  0
 16 18  1  0
 18 19  1  0
 19 20  1  0
 19 21  1  0
 21 22  1  0
 22 23  1  0
 23 24  2  0
 24 25  1  0
 25 26  2  0
 26 27  1  0
 27 28  2  0
 28 29  1  0
 15 30  1  0
 30 31  1  0
 11  6  1  0
 31 12  1  0
 29 21  1  0
 28 23  1  0
  1 32  1  0
  1 33  1  0
  1 34  1  0
  2 35  1  0
  2 36  1  0
  7 37  1  0
  8 38  1  0
  9 39  1  0
 10 40  1  0
 11 41  1  0
 12 42  1  0
 13 43  1  0
 13 44  1  0
 14 45  1  0
 14 46  1  0
 18 47  1  0
 18 48  1  0
 19 49  1  1
 20 50  1  0
 20 51  1  0
 21 52  1  0
 22 53  1  0
 22 54  1  0
 24 55  1  0
 25 56  1  0
 26 57  1  0
 27 58  1  0
 29 59  1  0
 29 60  1  0
 30 61  1  0
 30 62  1  0
 31 63  1  0
 31 64  1  0
M  END
>  <smiles>  (97) 
CCC(=O)N(c1ccccc1)C1CCN(C(=O)CC(N)C2Cc3ccccc3C2)CC1

>  <score_type>  (97) 
oracle

>  <origin>  (97) 
autodockgpu

>  <m_score__min__energy>  (97) 
-8.0099999999999998

>  <m_primary>  (97) 
energy

>  <rmsd>  (97) 
9.20945409153752

>  <m_score__min__rmsd>  (97) 
9.20945409153752

>  <meeko>  (97) 
{"free_energy": -6.88, "intermolecular_energy": -9.27, "internal_energy": -2.69, "cluster_size": 7, "cluster_id": 4, "rank_in_cluster": 5}

>  <energy>  (97) 
-6.76

>  <cluster_rmsd>  (97) 
0.0

>  <cluster>  (97) 
7

$$$$

     RDKit          3D

 64 67  0  0  0  0  0  0  0  0999 V2000
  140.3490   73.5130  218.4950 C   0  0  0  0  0  0  0  0  0  0  0  0
  140.4660   72.8940  219.8940 C   0  0  0  0  0  0  0  0  0  0  0  0
  141.2880   73.7430  220.7730 C   0  0  0  0  0  0  0  0  0  0  0  0
  140.9150   73.8370  221.9850 O   0  0  0  0  0  0  0  0  0  0  0  0
  142.4410   74.4640  220.4110 N   0  0  0  0  0  0  0  0  0  0  0  0
  143.6390   73.6670  220.2280 C   0  0  0  0  0  0  0  0  0  0  0  0
  143.6050   72.5030  219.4850 C   0  0  0  0  0  0  0  0  0  0  0  0
  144.7520   71.7590  219.3190 C   0  0  0  0  0  0  0  0  0  0  0  0
  145.9420   72.1610  219.8880 C   0  0  0  0  0  0  0  0  0  0  0  0
  145.9840   73.3240  220.6310 C   0  0  0  0  0  0  0  0  0  0  0  0
  144.8340   74.0700  220.7970 C   0  0  0  0  0  0  0  0  0  0  0  0
  142.4770   75.9150  220.1950 C   0  0  0  0  0  0  0  0  0  0  0  0
  141.1560   76.5360  220.2390 C   0  0  0  0  0  0  0  0  0  0  0  0
  140.6470   77.2760  219.0550 C   0  0  0  0  0  0  0  0  0  0  0  0
  141.7920   77.9950  218.4750 N   0  0  0  0  0  0  0  0  0  0  0  0
  141.8310   79.4080  218.3790 C   0  0  0  0  0  0  0  0  0  0  0  0
  142.8700   79.9110  217.8680 O   0  0  0  0  0  0  0  0  0  0  0  0
  140.6850   80.2150  218.8670 C   0  0  0  0  0  0  0  0  0  0  0  0
  141.1390   81.3530  219.7290 C   0  0  1  0  0  0  0  0  0  0  0  0
  141.6850   82.4240  218.8930 N   0  0  0  0  0  0  0  0  0  0  0  0
  140.0460   81.8710  220.5980 C   0  0  0  0  0  0  0  0  0  0  0  0
  139.3210   80.7180  221.2490 C   0  0  0  0  0  0  0  0  0  0  0  0
  140.4170   80.2010  222.1460 C   0  0  0  0  0  0  0  0  0  0  0  0
  140.7080   78.9260  222.6010 C   0  0  0  0  0  0  0  0  0  0  0  0
  141.7970   78.6990  223.4430 C   0  0  0  0  0  0  0  0  0  0  0  0
  142.5790   79.7940  223.8090 C   0  0  0  0  0  0  0  0  0  0  0  0
  142.2960   81.0670  223.3580 C   0  0  0  0  0  0  0  0  0  0  0  0
  141.2130   81.2920  222.5210 C   0  0  0  0  0  0  0  0  0  0  0  0
  140.6510   82.5150  221.8690 C   0  0  0  0  0  0  0  0  0  0  0  0
  142.8570   77.1360  218.0070 C   0  0  0  0  0  0  0  0  0  0  0  0
  143.3320   76.1650  219.0220 C   0  0  0  0  0  0  0  0  0  0  0  0
  140.1454   74.5901  218.5865 H   0  0  0  0  0  0  0  0  0  0  0  0
  141.2914   73.3632  217.9478 H   0  0  0  0  0  0  0  0  0  0  0  0
  139.5263   73.0295  217.9478 H   0  0  0  0  0  0  0  0  0  0  0  0
  139.4607   72.7915  220.3285 H   0  0  0  0  0  0  0  0  0  0  0  0
  140.9463   71.9084  219.8051 H   0  0  0  0  0  0  0  0  0  0  0  0
  142.6622   72.1705  219.0261 H   0  0  0  0  0  0  0  0  0  0  0  0
  144.7185   70.8334  218.7256 H   0  0  0  0  0  0  0  0  0  0  0  0
  146.8523   71.5588  219.7508 H   0  0  0  0  0  0  0  0  0  0  0  0
  146.9284   73.6544  221.0882 H   0  0  0  0  0  0  0  0  0  0  0  0
  144.8684   74.9964  221.3891 H   0  0  0  0  0  0  0  0  0  0  0  0
  142.9491   76.4483  221.0333 H   0  0  0  0  0  0  0  0  0  0  0  0
  140.4336   75.7331  220.4473 H   0  0  0  0  0  0  0  0  0  0  0  0
  141.2691   77.3214  221.0008 H   0  0  0  0  0  0  0  0  0  0  0  0
  140.2305   76.5721  218.3194 H   0  0  0  0  0  0  0  0  0  0  0  0
  139.8476   77.9751  219.3417 H   0  0  0  0  0  0  0  0  0  0  0  0
  140.1385   80.6185  218.0019 H   0  0  0  0  0  0  0  0  0  0  0  0
  140.0375   79.5627  219.4714 H   0  0  0  0  0  0  0  0  0  0  0  0
  141.9267   80.9739  220.3967 H   0  0  0  0  0  0  0  0  0  0  0  0
  142.2080   83.1230  219.4420 H   0  0  0  0  0  0  0  0  0  0  0  0
  142.3470   82.0170  218.2100 H   0  0  0  0  0  0  0  0  0  0  0  0
  139.4351   82.5304  219.9640 H   0  0  0  0  0  0  0  0  0  0  0  0
  138.4468   81.0567  221.8244 H   0  0  0  0  0  0  0  0  0  0  0  0
  138.9020   79.9778  220.5514 H   0  0  0  0  0  0  0  0  0  0  0  0
  140.0727   78.0818  222.2948 H   0  0  0  0  0  0  0  0  0  0  0  0
  142.0315   77.6877  223.8068 H   0  0  0  0  0  0  0  0  0  0  0  0
  143.4421   79.6393  224.4732 H   0  0  0  0  0  0  0  0  0  0  0  0
  142.9337   81.9093  223.6644 H   0  0  0  0  0  0  0  0  0  0  0  0
  139.8819   82.9954  222.4916 H   0  0  0  0  0  0  0  0  0  0  0  0
  141.3748   83.3227  221.6857 H   0  0  0  0  0  0  0  0  0  0  0  0
  142.4918   76.5748  217.1343 H   0  0  0  0  0  0  0  0  0  0  0  0
  143.7095   77.7867  217.7623 H   0  0  0  0  0  0  0  0  0  0  0  0
  143.4753   75.2016  218.5108 H   0  0  0  0  0  0  0  0  0  0  0  0
  144.2402   76.6255  219.4380 H   0  0  0  0  0  0  0  0  0  0  0  0
  1  2  1  0
  2  3  1  0
  3  4  2  0
  3  5  1  0
  5  6  1  0
  6  7  2  0
  7  8  1  0
  8  9  2  0
  9 10  1  0
 10 11  2  0
  5 12  1  0
 12 13  1  0
 13 14  1  0
 14 15  1  0
 15 16  1  0
 16 17  2  0
 16 18  1  0
 18 19  1  0
 19 20  1  0
 19 21  1  0
 21 22  1  0
 22 23  1  0
 23 24  2  0
 24 25  1  0
 25 26  2  0
 26 27  1  0
 27 28  2  0
 28 29  1  0
 15 30  1  0
 30 31  1  0
 11  6  1  0
 31 12  1  0
 29 21  1  0
 28 23  1  0
  1 32  1  0
  1 33  1  0
  1 34  1  0
  2 35  1  0
  2 36  1  0
  7 37  1  0
  8 38  1  0
  9 39  1  0
 10 40  1  0
 11 41  1  0
 12 42  1  0
 13 43  1  0
 13 44  1  0
 14 45  1  0
 14 46  1  0
 18 47  1  0
 18 48  1  0
 19 49  1  1
 20 50  1  0
 20 51  1  0
 21 52  1  0
 22 53  1  0
 22 54  1  0
 24 55  1  0
 25 56  1  0
 26 57  1  0
 27 58  1  0
 29 59  1  0
 29 60  1  0
 30 61  1  0
 30 62  1  0
 31 63  1  0
 31 64  1  0
M  END
>  <smiles>  (98) 
CCC(=O)N(c1ccccc1)C1CCN(C(=O)CC(N)C2Cc3ccccc3C2)CC1

>  <score_type>  (98) 
oracle

>  <origin>  (98) 
autodockgpu

>  <m_score__min__energy>  (98) 
-8.0099999999999998

>  <m_primary>  (98) 
energy

>  <rmsd>  (98) 
6.236989659328864

>  <m_score__min__rmsd>  (98) 
6.236989659328864

>  <meeko>  (98) 
{"free_energy": -6.66, "intermolecular_energy": -9.04, "internal_energy": -2.67, "cluster_size": 2, "cluster_id": 7, "rank_in_cluster": 2}

>  <energy>  (98) 
-6.66

>  <cluster_rmsd>  (98) 
0.51

>  <cluster>  (98) 
7

$$$$

     RDKit          3D

 64 67  0  0  0  0  0  0  0  0999 V2000
  137.1860   71.1060  220.9330 C   0  0  0  0  0  0  0  0  0  0  0  0
  137.5450   70.4730  222.2840 C   0  0  0  0  0  0  0  0  0  0  0  0
  139.0060   70.3630  222.4360 C   0  0  0  0  0  0  0  0  0  0  0  0
  139.5750   69.4260  221.7910 O   0  0  0  0  0  0  0  0  0  0  0  0
  139.8370   71.1830  223.2210 N   0  0  0  0  0  0  0  0  0  0  0  0
  140.0380   70.7360  224.5860 C   0  0  0  0  0  0  0  0  0  0  0  0
  140.7730   71.4940  225.4750 C   0  0  0  0  0  0  0  0  0  0  0  0
  140.9530   71.0560  226.7690 C   0  0  0  0  0  0  0  0  0  0  0  0
  140.4070   69.8640  227.1920 C   0  0  0  0  0  0  0  0  0  0  0  0
  139.6690   69.1000  226.3090 C   0  0  0  0  0  0  0  0  0  0  0  0
  139.4890   69.5400  225.0120 C   0  0  0  0  0  0  0  0  0  0  0  0
  140.4990   72.3980  222.7350 C   0  0  0  0  0  0  0  0  0  0  0  0
  139.5680   73.3850  222.1960 C   0  0  0  0  0  0  0  0  0  0  0  0
  139.6960   73.8290  220.7830 C   0  0  0  0  0  0  0  0  0  0  0  0
  141.1350   73.9230  220.4930 N   0  0  0  0  0  0  0  0  0  0  0  0
  141.7570   75.1430  220.1260 C   0  0  0  0  0  0  0  0  0  0  0  0
  143.0000   75.1000  219.9090 O   0  0  0  0  0  0  0  0  0  0  0  0
  140.9480   76.3820  220.0150 C   0  0  0  0  0  0  0  0  0  0  0  0
  141.8120   77.6060  220.0050 C   0  0  1  0  0  0  0  0  0  0  0  0
  142.9290   77.4180  219.0770 N   0  0  0  0  0  0  0  0  0  0  0  0
  141.0440   78.8340  219.6600 C   0  0  0  0  0  0  0  0  0  0  0  0
  139.9030   79.0120  220.6330 C   0  0  0  0  0  0  0  0  0  0  0  0
  140.6840   79.2950  221.8920 C   0  0  0  0  0  0  0  0  0  0  0  0
  140.4120   79.0240  223.2230 C   0  0  0  0  0  0  0  0  0  0  0  0
  141.3080   79.3970  224.2250 C   0  0  0  0  0  0  0  0  0  0  0  0
  142.4810   80.0490  223.8440 C   0  0  0  0  0  0  0  0  0  0  0  0
  142.7580   80.3210  222.5200 C   0  0  0  0  0  0  0  0  0  0  0  0
  141.8670   79.9500  221.5230 C   0  0  0  0  0  0  0  0  0  0  0  0
  141.8690   80.0880  220.0340 C   0  0  0  0  0  0  0  0  0  0  0  0
  141.8470   72.6700  220.6060 C   0  0  0  0  0  0  0  0  0  0  0  0
  141.6370   71.9770  221.8990 C   0  0  0  0  0  0  0  0  0  0  0  0
  136.6498   72.0515  221.1020 H   0  0  0  0  0  0  0  0  0  0  0  0
  138.1067   71.3032  220.3643 H   0  0  0  0  0  0  0  0  0  0  0  0
  136.5442   70.4171  220.3643 H   0  0  0  0  0  0  0  0  0  0  0  0
  137.1439   71.0996  223.0942 H   0  0  0  0  0  0  0  0  0  0  0  0
  137.1080   69.4646  222.3291 H   0  0  0  0  0  0  0  0  0  0  0  0
  141.2150   72.4476  225.1505 H   0  0  0  0  0  0  0  0  0  0  0  0
  141.5395   71.6652  227.4725 H   0  0  0  0  0  0  0  0  0  0  0  0
  140.5578   69.5227  228.2268 H   0  0  0  0  0  0  0  0  0  0  0  0
  139.2274   68.1473  226.6366 H   0  0  0  0  0  0  0  0  0  0  0  0
  138.9015   68.9314  224.3089 H   0  0  0  0  0  0  0  0  0  0  0  0
  140.9284   72.9919  223.5553 H   0  0  0  0  0  0  0  0  0  0  0  0
  138.5580   72.9635  222.3069 H   0  0  0  0  0  0  0  0  0  0  0  0
  139.8003   74.2940  222.7703 H   0  0  0  0  0  0  0  0  0  0  0  0
  139.2220   73.0973  220.1122 H   0  0  0  0  0  0  0  0  0  0  0  0
  139.1992   74.7982  220.6285 H   0  0  0  0  0  0  0  0  0  0  0  0
  140.3678   76.3470  219.0811 H   0  0  0  0  0  0  0  0  0  0  0  0
  140.2826   76.4378  220.8891 H   0  0  0  0  0  0  0  0  0  0  0  0
  142.2029   77.7490  221.0232 H   0  0  0  0  0  0  0  0  0  0  0  0
  143.8010   77.1560  219.5610 H   0  0  0  0  0  0  0  0  0  0  0  0
  142.7020   76.6510  218.4230 H   0  0  0  0  0  0  0  0  0  0  0  0
  140.7658   78.7357  218.6003 H   0  0  0  0  0  0  0  0  0  0  0  0
  139.2553   79.8563  220.3545 H   0  0  0  0  0  0  0  0  0  0  0  0
  139.2079   78.1618  220.6968 H   0  0  0  0  0  0  0  0  0  0  0  0
  139.4785   78.5086  223.4930 H   0  0  0  0  0  0  0  0  0  0  0  0
  141.0961   79.1836  225.2831 H   0  0  0  0  0  0  0  0  0  0  0  0
  143.2019   80.3533  224.6171 H   0  0  0  0  0  0  0  0  0  0  0  0
  143.6925   80.8360  222.2527 H   0  0  0  0  0  0  0  0  0  0  0  0
  141.3764   81.0157  219.7072 H   0  0  0  0  0  0  0  0  0  0  0  0
  142.8649   80.1484  219.5708 H   0  0  0  0  0  0  0  0  0  0  0  0
  141.5093   72.0051  219.7974 H   0  0  0  0  0  0  0  0  0  0  0  0
  142.9197   72.9040  220.5385 H   0  0  0  0  0  0  0  0  0  0  0  0
  141.5024   70.9078  221.6785 H   0  0  0  0  0  0  0  0  0  0  0  0
  142.5248   72.2348  222.4951 H   0  0  0  0  0  0  0  0  0  0  0  0
  1  2  1  0
  2  3  1  0
  3  4  2  0
  3  5  1  0
  5  6  1  0
  6  7  2  0
  7  8  1  0
  8  9  2  0
  9 10  1  0
 10 11  2  0
  5 12  1  0
 12 13  1  0
 13 14  1  0
 14 15  1  0
 15 16  1  0
 16 17  2  0
 16 18  1  0
 18 19  1  0
 19 20  1  0
 19 21  1  0
 21 22  1  0
 22 23  1  0
 23 24  2  0
 24 25  1  0
 25 26  2  0
 26 27  1  0
 27 28  2  0
 28 29  1  0
 15 30  1  0
 30 31  1  0
 11  6  1  0
 31 12  1  0
 29 21  1  0
 28 23  1  0
  1 32  1  0
  1 33  1  0
  1 34  1  0
  2 35  1  0
  2 36  1  0
  7 37  1  0
  8 38  1  0
  9 39  1  0
 10 40  1  0
 11 41  1  0
 12 42  1  0
 13 43  1  0
 13 44  1  0
 14 45  1  0
 14 46  1  0
 18 47  1  0
 18 48  1  0
 19 49  1  1
 20 50  1  0
 20 51  1  0
 21 52  1  0
 22 53  1  0
 22 54  1  0
 24 55  1  0
 25 56  1  0
 26 57  1  0
 27 58  1  0
 29 59  1  0
 29 60  1  0
 30 61  1  0
 30 62  1  0
 31 63  1  0
 31 64  1  0
M  END
>  <smiles>  (99) 
CCC(=O)N(c1ccccc1)C1CCN(C(=O)CC(N)C2Cc3ccccc3C2)CC1

>  <score_type>  (99) 
oracle

>  <origin>  (99) 
autodockgpu

>  <m_score__min__energy>  (99) 
-8.0099999999999998

>  <m_primary>  (99) 
energy

>  <rmsd>  (99) 
6.495621741580882

>  <m_score__min__rmsd>  (99) 
6.495621741580882

>  <meeko>  (99) 
{"free_energy": -7.01, "intermolecular_energy": -9.39, "internal_energy": -2.47, "cluster_size": 23, "cluster_id": 3, "rank_in_cluster": 20}

>  <energy>  (99) 
-6.58

>  <cluster_rmsd>  (99) 
0.0

>  <cluster>  (99) 
8

$$$$

     RDKit          3D

 64 67  0  0  0  0  0  0  0  0999 V2000
  142.5480   78.7250  217.8020 C   0  0  0  0  0  0  0  0  0  0  0  0
  142.1460   79.8980  218.7070 C   0  0  0  0  0  0  0  0  0  0  0  0
  141.1700   79.4630  219.7200 C   0  0  0  0  0  0  0  0  0  0  0  0
  139.9420   79.6360  219.4380 O   0  0  0  0  0  0  0  0  0  0  0  0
  141.4530   78.8780  220.9680 N   0  0  0  0  0  0  0  0  0  0  0  0
  141.7290   79.8120  222.0430 C   0  0  0  0  0  0  0  0  0  0  0  0
  140.7920   80.7530  222.4170 C   0  0  0  0  0  0  0  0  0  0  0  0
  141.0690   81.6320  223.4410 C   0  0  0  0  0  0  0  0  0  0  0  0
  142.2780   81.5850  224.1020 C   0  0  0  0  0  0  0  0  0  0  0  0
  143.2210   80.6450  223.7340 C   0  0  0  0  0  0  0  0  0  0  0  0
  142.9420   79.7650  222.7070 C   0  0  0  0  0  0  0  0  0  0  0  0
  141.4540   77.4330  221.2240 C   0  0  0  0  0  0  0  0  0  0  0  0
  141.2500   76.6350  220.0180 C   0  0  0  0  0  0  0  0  0  0  0  0
  140.0890   75.7110  219.9310 C   0  0  0  0  0  0  0  0  0  0  0  0
  139.9190   75.1090  221.2630 N   0  0  0  0  0  0  0  0  0  0  0  0
  140.0310   73.7140  221.4860 C   0  0  0  0  0  0  0  0  0  0  0  0
  139.8720   73.3180  222.6740 O   0  0  0  0  0  0  0  0  0  0  0  0
  140.3210   72.8050  220.3500 C   0  0  0  0  0  0  0  0  0  0  0  0
  141.2260   71.6820  220.7600 C   0  0  1  0  0  0  0  0  0  0  0  0
  140.4600   70.6650  221.4840 N   0  0  0  0  0  0  0  0  0  0  0  0
  141.9340   71.0780  219.5980 C   0  0  0  0  0  0  0  0  0  0  0  0
  142.1930   72.1350  218.5510 C   0  0  0  0  0  0  0  0  0  0  0  0
  143.1810   72.9950  219.2980 C   0  0  0  0  0  0  0  0  0  0  0  0
  143.4370   74.3560  219.2490 C   0  0  0  0  0  0  0  0  0  0  0  0
  144.4260   74.9270  220.0500 C   0  0  0  0  0  0  0  0  0  0  0  0
  145.1450   74.0850  220.9000 C   0  0  0  0  0  0  0  0  0  0  0  0
  144.8940   72.7290  220.9550 C   0  0  0  0  0  0  0  0  0  0  0  0
  143.9100   72.1620  220.1570 C   0  0  0  0  0  0  0  0  0  0  0  0
  143.4000   70.7670  219.9840 C   0  0  0  0  0  0  0  0  0  0  0  0
  139.6210   76.0610  222.3100 C   0  0  0  0  0  0  0  0  0  0  0  0
  140.5790   77.1900  222.3840 C   0  0  0  0  0  0  0  0  0  0  0  0
  142.8422   77.8665  218.4235 H   0  0  0  0  0  0  0  0  0  0  0  0
  141.6953   78.4428  217.1670 H   0  0  0  0  0  0  0  0  0  0  0  0
  143.3945   79.0252  217.1670 H   0  0  0  0  0  0  0  0  0  0  0  0
  143.0419   80.2875  219.2126 H   0  0  0  0  0  0  0  0  0  0  0  0
  141.6866   80.6818  218.0869 H   0  0  0  0  0  0  0  0  0  0  0  0
  139.8236   80.8014  221.8975 H   0  0  0  0  0  0  0  0  0  0  0  0
  140.3173   82.3796  223.7344 H   0  0  0  0  0  0  0  0  0  0  0  0
  142.4904   82.2918  224.9176 H   0  0  0  0  0  0  0  0  0  0  0  0
  144.1882   80.5977  224.2558 H   0  0  0  0  0  0  0  0  0  0  0  0
  143.6935   79.0174  222.4132 H   0  0  0  0  0  0  0  0  0  0  0  0
  142.4489   77.0627  221.5123 H   0  0  0  0  0  0  0  0  0  0  0  0
  141.1579   77.3419  219.1802 H   0  0  0  0  0  0  0  0  0  0  0  0
  142.1163   75.9572  220.0113 H   0  0  0  0  0  0  0  0  0  0  0  0
  139.1831   76.2678  219.6494 H   0  0  0  0  0  0  0  0  0  0  0  0
  140.2592   74.9366  219.1685 H   0  0  0  0  0  0  0  0  0  0  0  0
  139.3749   72.3840  219.9790 H   0  0  0  0  0  0  0  0  0  0  0  0
  140.8268   73.3858  219.5646 H   0  0  0  0  0  0  0  0  0  0  0  0
  141.9980   72.0984  221.4237 H   0  0  0  0  0  0  0  0  0  0  0  0
  139.8930   71.0690  222.2450 H   0  0  0  0  0  0  0  0  0  0  0  0
  139.8060   70.2040  220.8290 H   0  0  0  0  0  0  0  0  0  0  0  0
  141.3240   70.2201  219.2788 H   0  0  0  0  0  0  0  0  0  0  0  0
  142.6310   71.7075  217.6370 H   0  0  0  0  0  0  0  0  0  0  0  0
  141.2978   72.6610  218.1878 H   0  0  0  0  0  0  0  0  0  0  0  0
  142.8528   74.9943  218.5697 H   0  0  0  0  0  0  0  0  0  0  0  0
  144.6328   76.0068  220.0130 H   0  0  0  0  0  0  0  0  0  0  0  0
  145.9301   74.5123  221.5411 H   0  0  0  0  0  0  0  0  0  0  0  0
  145.4781   72.0929  221.6363 H   0  0  0  0  0  0  0  0  0  0  0  0
  143.9309   70.2323  219.1826 H   0  0  0  0  0  0  0  0  0  0  0  0
  143.5253   70.1106  220.8578 H   0  0  0  0  0  0  0  0  0  0  0  0
  138.6160   76.4704  222.1304 H   0  0  0  0  0  0  0  0  0  0  0  0
  139.6910   75.5190  223.2646 H   0  0  0  0  0  0  0  0  0  0  0  0
  139.9926   78.1060  222.5487 H   0  0  0  0  0  0  0  0  0  0  0  0
  141.2688   76.9117  223.1944 H   0  0  0  0  0  0  0  0  0  0  0  0
  1  2  1  0
  2  3  1  0
  3  4  2  0
  3  5  1  0
  5  6  1  0
  6  7  2  0
  7  8  1  0
  8  9  2  0
  9 10  1  0
 10 11  2  0
  5 12  1  0
 12 13  1  0
 13 14  1  0
 14 15  1  0
 15 16  1  0
 16 17  2  0
 16 18  1  0
 18 19  1  0
 19 20  1  0
 19 21  1  0
 21 22  1  0
 22 23  1  0
 23 24  2  0
 24 25  1  0
 25 26  2  0
 26 27  1  0
 27 28  2  0
 28 29  1  0
 15 30  1  0
 30 31  1  0
 11  6  1  0
 31 12  1  0
 29 21  1  0
 28 23  1  0
  1 32  1  0
  1 33  1  0
  1 34  1  0
  2 35  1  0
  2 36  1  0
  7 37  1  0
  8 38  1  0
  9 39  1  0
 10 40  1  0
 11 41  1  0
 12 42  1  0
 13 43  1  0
 13 44  1  0
 14 45  1  0
 14 46  1  0
 18 47  1  0
 18 48  1  0
 19 49  1  1
 20 50  1  0
 20 51  1  0
 21 52  1  0
 22 53  1  0
 22 54  1  0
 24 55  1  0
 25 56  1  0
 26 57  1  0
 27 58  1  0
 29 59  1  0
 29 60  1  0
 30 61  1  0
 30 62  1  0
 31 63  1  0
 31 64  1  0
M  END
>  <smiles>  (100) 
CCC(=O)N(c1ccccc1)C1CCN(C(=O)CC(N)C2Cc3ccccc3C2)CC1

>  <score_type>  (100) 
oracle

>  <origin>  (100) 
autodockgpu

>  <m_score__min__energy>  (100) 
-8.0099999999999998

>  <m_primary>  (100) 
energy

>  <rmsd>  (100) 
5.181219352895737

>  <m_score__min__rmsd>  (100) 
5.181219352895737

>  <meeko>  (100) 
{"free_energy": -6.53, "intermolecular_energy": -8.91, "internal_energy": -2.64, "cluster_size": 1, "cluster_id": 9, "rank_in_cluster": 1}

>  <energy>  (100) 
-6.53

>  <cluster_rmsd>  (100) 
0.0

>  <cluster>  (100) 
9

$$$$
