
     RDKit          3D

 48 51  0  0  0  0  0  0  0  0999 V2000
  141.3320   73.7800  220.5490 O   0  0  0  0  0  0  0  0  0  0  0  0
  140.7800   74.5580  221.3750 C   0  0  0  0  0  0  0  0  0  0  0  0
  139.8780   73.9400  222.3410 N   0  0  0  0  0  0  0  0  0  0  0  0
  139.7250   72.5410  222.2440 C   0  0  0  0  0  0  0  0  0  0  0  0
  139.8180   71.6800  223.3800 C   0  0  0  0  0  0  0  0  0  0  0  0
  140.7120   72.0340  224.2790 O   0  0  0  0  0  0  0  0  0  0  0  0
  139.1370   70.4960  223.7580 N   0  0  0  0  0  0  0  0  0  0  0  0
  139.0060   69.4240  222.7410 C   0  0  0  0  0  0  0  0  0  0  0  0
  138.4490   68.2620  223.4820 C   0  0  0  0  0  0  0  0  0  0  0  0
  137.6350   68.8800  224.5880 C   0  0  0  0  0  0  0  0  0  0  0  0
  138.5070   70.0670  224.9740 C   0  0  1  0  0  0  0  0  0  0  0  0
  139.4150   69.7410  226.0770 C   0  0  0  0  0  0  0  0  0  0  0  0
  139.7020   68.4560  226.4760 C   0  0  0  0  0  0  0  0  0  0  0  0
  140.5500   68.1630  227.5350 C   0  0  0  0  0  0  0  0  0  0  0  0
  141.1550   69.1700  228.2470 C   0  0  0  0  0  0  0  0  0  0  0  0
  140.8860   70.4680  227.8700 C   0  0  0  0  0  0  0  0  0  0  0  0
  140.0430   70.7530  226.8180 C   0  0  0  0  0  0  0  0  0  0  0  0
  140.9960   75.9920  221.4010 C   0  0  0  0  0  0  0  0  0  0  0  0
  141.1070   76.6380  220.1870 C   0  0  0  0  0  0  0  0  0  0  0  0
  141.3120   77.9930  220.1970 C   0  0  0  0  0  0  0  0  0  0  0  0
  141.4000   78.6650  221.3860 C   0  0  0  0  0  0  0  0  0  0  0  0
  141.6070   80.0410  221.4400 C   0  0  0  0  0  0  0  0  0  0  0  0
  141.7610   80.9510  219.9610 Cl  0  0  0  0  0  0  0  0  0  0  0  0
  141.6920   80.7010  222.6530 C   0  0  0  0  0  0  0  0  0  0  0  0
  141.5740   80.0130  223.8500 C   0  0  0  0  0  0  0  0  0  0  0  0
  141.3660   78.6330  223.8140 C   0  0  0  0  0  0  0  0  0  0  0  0
  141.2860   78.0020  222.5910 C   0  0  0  0  0  0  0  0  0  0  0  0
  141.0830   76.6600  222.5690 N   0  0  0  0  0  0  0  0  0  0  0  0
  139.4470   74.6130  222.9900 H   0  0  0  0  0  0  0  0  0  0  0  0
  138.7274   72.3716  221.8126 H   0  0  0  0  0  0  0  0  0  0  0  0
  140.6182   72.2548  221.6693 H   0  0  0  0  0  0  0  0  0  0  0  0
  138.3225   69.7344  221.9370 H   0  0  0  0  0  0  0  0  0  0  0  0
  139.9672   69.1878  222.2612 H   0  0  0  0  0  0  0  0  0  0  0  0
  137.8130   67.6500  222.8255 H   0  0  0  0  0  0  0  0  0  0  0  0
  139.2337   67.5915  223.8625 H   0  0  0  0  0  0  0  0  0  0  0  0
  136.6481   69.2058  224.2277 H   0  0  0  0  0  0  0  0  0  0  0  0
  137.4127   68.1954  225.4198 H   0  0  0  0  0  0  0  0  0  0  0  0
  137.9278   70.9051  225.3889 H   0  0  0  0  0  0  0  0  0  0  0  0
  139.2376   67.6216  225.9301 H   0  0  0  0  0  0  0  0  0  0  0  0
  140.7395   67.1141  227.8068 H   0  0  0  0  0  0  0  0  0  0  0  0
  141.8295   68.9485  229.0873 H   0  0  0  0  0  0  0  0  0  0  0  0
  141.3552   71.2958  228.4218 H   0  0  0  0  0  0  0  0  0  0  0  0
  139.8572   71.8040  226.5517 H   0  0  0  0  0  0  0  0  0  0  0  0
  141.0332   76.0827  219.2403 H   0  0  0  0  0  0  0  0  0  0  0  0
  141.4060   78.5413  219.2480 H   0  0  0  0  0  0  0  0  0  0  0  0
  141.8558   81.7886  222.6674 H   0  0  0  0  0  0  0  0  0  0  0  0
  141.6429   80.5443  224.8107 H   0  0  0  0  0  0  0  0  0  0  0  0
  141.2675   78.0583  224.7467 H   0  0  0  0  0  0  0  0  0  0  0  0
  1  2  2  0
  2  3  1  0
  3  4  1  0
  4  5  1  0
  5  6  2  0
  5  7  1  0
  7  8  1  0
  8  9  1  0
  9 10  1  0
 10 11  1  0
 11 12  1  0
 12 13  2  0
 13 14  1  0
 14 15  2  0
 15 16  1  0
 16 17  2  0
  2 18  1  0
 18 19  2  0
 19 20  1  0
 20 21  2  0
 21 22  1  0
 22 23  1  0
 22 24  2  0
 24 25  1  0
 25 26  2  0
 26 27  1  0
 27 28  2  0
 11  7  1  0
 17 12  1  0
 28 18  1  0
 27 21  1  0
  3 29  1  0
  4 30  1  0
  4 31  1  0
  8 32  1  0
  8 33  1  0
  9 34  1  0
  9 35  1  0
 10 36  1  0
 10 37  1  0
 11 38  1  1
 13 39  1  0
 14 40  1  0
 15 41  1  0
 16 42  1  0
 17 43  1  0
 19 44  1  0
 20 45  1  0
 24 46  1  0
 25 47  1  0
 26 48  1  0
M  END
>  <smiles>  (1) 
O=C(NCC(=O)N1CCC[C@H]1c1ccccc1)c1ccc2c(Cl)cccc2n1

>  <score_type>  (1) 
oracle

>  <origin>  (1) 
autodockgpu

>  <m_score__min__energy>  (1) 
-9.3100000000000005

>  <m_primary>  (1) 
energy

>  <rmsd>  (1) 
8.238582198730468

>  <m_score__min__rmsd>  (1) 
8.238582198730468

>  <meeko>  (1) 
{"free_energy": -8.7, "intermolecular_energy": -10.19, "internal_energy": -1.27, "cluster_size": 24, "cluster_id": 3, "rank_in_cluster": 18}

>  <energy>  (1) 
-9.31

>  <cluster_rmsd>  (1) 
0.0

>  <cluster>  (1) 
1

$$$$

     RDKit          3D

 48 51  0  0  0  0  0  0  0  0999 V2000
  141.4220   72.2970  221.7540 O   0  0  0  0  0  0  0  0  0  0  0  0
  140.4410   72.3310  222.5460 C   0  0  0  0  0  0  0  0  0  0  0  0
  139.3980   73.3030  222.2400 N   0  0  0  0  0  0  0  0  0  0  0  0
  139.6030   74.0960  221.0910 C   0  0  0  0  0  0  0  0  0  0  0  0
  140.4940   75.2130  221.0810 C   0  0  0  0  0  0  0  0  0  0  0  0
  140.4230   75.9950  222.1360 O   0  0  0  0  0  0  0  0  0  0  0  0
  141.4640   75.6720  220.1540 N   0  0  0  0  0  0  0  0  0  0  0  0
  141.7060   77.1340  220.0810 C   0  0  0  0  0  0  0  0  0  0  0  0
  142.8940   77.2790  219.1990 C   0  0  0  0  0  0  0  0  0  0  0  0
  142.8160   76.0950  218.2710 C   0  0  0  0  0  0  0  0  0  0  0  0
  142.3200   75.0080  219.2150 C   0  0  1  0  0  0  0  0  0  0  0  0
  143.4270   74.2440  219.7950 C   0  0  0  0  0  0  0  0  0  0  0  0
  144.5060   74.8210  220.4240 C   0  0  0  0  0  0  0  0  0  0  0  0
  145.5570   74.0840  220.9530 C   0  0  0  0  0  0  0  0  0  0  0  0
  145.5620   72.7120  220.8710 C   0  0  0  0  0  0  0  0  0  0  0  0
  144.4930   72.1070  220.2470 C   0  0  0  0  0  0  0  0  0  0  0  0
  143.4530   72.8430  219.7220 C   0  0  0  0  0  0  0  0  0  0  0  0
  140.3120   71.4740  223.7090 C   0  0  0  0  0  0  0  0  0  0  0  0
  139.7510   70.2290  223.5200 C   0  0  0  0  0  0  0  0  0  0  0  0
  139.6230   69.4090  224.6110 C   0  0  0  0  0  0  0  0  0  0  0  0
  140.0460   69.8330  225.8420 C   0  0  0  0  0  0  0  0  0  0  0  0
  139.9350   69.0300  226.9740 C   0  0  0  0  0  0  0  0  0  0  0  0
  139.2380   67.4380  226.8410 Cl  0  0  0  0  0  0  0  0  0  0  0  0
  140.3700   69.4780  228.2090 C   0  0  0  0  0  0  0  0  0  0  0  0
  140.9290   70.7380  228.3550 C   0  0  0  0  0  0  0  0  0  0  0  0
  141.0480   71.5550  227.2290 C   0  0  0  0  0  0  0  0  0  0  0  0
  140.6060   71.0830  226.0120 C   0  0  0  0  0  0  0  0  0  0  0  0
  140.7280   71.8860  224.9250 N   0  0  0  0  0  0  0  0  0  0  0  0
  138.6200   73.2990  222.9150 H   0  0  0  0  0  0  0  0  0  0  0  0
  139.9606   73.4122  220.3071 H   0  0  0  0  0  0  0  0  0  0  0  0
  138.6246   74.5854  220.9758 H   0  0  0  0  0  0  0  0  0  0  0  0
  140.8363   77.6495  219.6474 H   0  0  0  0  0  0  0  0  0  0  0  0
  141.8697   77.5778  221.0741 H   0  0  0  0  0  0  0  0  0  0  0  0
  142.8465   78.2212  218.6333 H   0  0  0  0  0  0  0  0  0  0  0  0
  143.8366   77.3075  219.7653 H   0  0  0  0  0  0  0  0  0  0  0  0
  142.1041   76.2721  217.4513 H   0  0  0  0  0  0  0  0  0  0  0  0
  143.7634   75.8552  217.7661 H   0  0  0  0  0  0  0  0  0  0  0  0
  141.7421   74.2260  218.7007 H   0  0  0  0  0  0  0  0  0  0  0  0
  144.5375   75.9170  220.5119 H   0  0  0  0  0  0  0  0  0  0  0  0
  146.3940   74.6033  221.4426 H   0  0  0  0  0  0  0  0  0  0  0  0
  146.3891   72.1188  221.2882 H   0  0  0  0  0  0  0  0  0  0  0  0
  144.4691   71.0103  220.1659 H   0  0  0  0  0  0  0  0  0  0  0  0
  142.6200   72.3176  219.2321 H   0  0  0  0  0  0  0  0  0  0  0  0
  139.4163   69.9035  222.5240 H   0  0  0  0  0  0  0  0  0  0  0  0
  139.1797   68.4087  224.4972 H   0  0  0  0  0  0  0  0  0  0  0  0
  140.2706   68.8243  229.0881 H   0  0  0  0  0  0  0  0  0  0  0  0
  141.2725   71.0878  229.3397 H   0  0  0  0  0  0  0  0  0  0  0  0
  141.4878   72.5599  227.3120 H   0  0  0  0  0  0  0  0  0  0  0  0
  1  2  2  0
  2  3  1  0
  3  4  1  0
  4  5  1  0
  5  6  2  0
  5  7  1  0
  7  8  1  0
  8  9  1  0
  9 10  1  0
 10 11  1  0
 11 12  1  0
 12 13  2  0
 13 14  1  0
 14 15  2  0
 15 16  1  0
 16 17  2  0
  2 18  1  0
 18 19  2  0
 19 20  1  0
 20 21  2  0
 21 22  1  0
 22 23  1  0
 22 24  2  0
 24 25  1  0
 25 26  2  0
 26 27  1  0
 27 28  2  0
 11  7  1  0
 17 12  1  0
 28 18  1  0
 27 21  1  0
  3 29  1  0
  4 30  1  0
  4 31  1  0
  8 32  1  0
  8 33  1  0
  9 34  1  0
  9 35  1  0
 10 36  1  0
 10 37  1  0
 11 38  1  6
 13 39  1  0
 14 40  1  0
 15 41  1  0
 16 42  1  0
 17 43  1  0
 19 44  1  0
 20 45  1  0
 24 46  1  0
 25 47  1  0
 26 48  1  0
M  END
>  <smiles>  (2) 
O=C(NCC(=O)N1CCC[C@H]1c1ccccc1)c1ccc2c(Cl)cccc2n1

>  <score_type>  (2) 
oracle

>  <origin>  (2) 
autodockgpu

>  <m_score__min__energy>  (2) 
-9.3100000000000005

>  <m_primary>  (2) 
energy

>  <rmsd>  (2) 
2.2237001452468674

>  <m_score__min__rmsd>  (2) 
2.2237001452468674

>  <meeko>  (2) 
{"free_energy": -9.0, "intermolecular_energy": -10.49, "internal_energy": -1.51, "cluster_size": 4, "cluster_id": 2, "rank_in_cluster": 4}

>  <energy>  (2) 
-9.25

>  <cluster_rmsd>  (2) 
0.1

>  <cluster>  (2) 
1

$$$$

     RDKit          3D

 48 51  0  0  0  0  0  0  0  0999 V2000
  140.2020   72.0070  221.0110 O   0  0  0  0  0  0  0  0  0  0  0  0
  139.9990   72.4130  222.1890 C   0  0  0  0  0  0  0  0  0  0  0  0
  139.7190   73.8360  222.3410 N   0  0  0  0  0  0  0  0  0  0  0  0
  139.7050   74.5990  221.1550 C   0  0  0  0  0  0  0  0  0  0  0  0
  139.7050   76.0280  221.1630 C   0  0  0  0  0  0  0  0  0  0  0  0
  138.8630   76.5830  222.0080 O   0  0  0  0  0  0  0  0  0  0  0  0
  140.4370   77.0020  220.4380 N   0  0  0  0  0  0  0  0  0  0  0  0
  139.8180   77.5500  219.2060 C   0  0  0  0  0  0  0  0  0  0  0  0
  140.7050   78.6710  218.8000 C   0  0  0  0  0  0  0  0  0  0  0  0
  142.0670   78.2690  219.3020 C   0  0  0  0  0  0  0  0  0  0  0  0
  141.7150   77.6210  220.6340 C   0  0  1  0  0  0  0  0  0  0  0  0
  141.7940   78.5760  221.7430 C   0  0  0  0  0  0  0  0  0  0  0  0
  141.4700   78.2660  223.0430 C   0  0  0  0  0  0  0  0  0  0  0  0
  141.5320   79.1860  224.0800 C   0  0  0  0  0  0  0  0  0  0  0  0
  141.9320   80.4800  223.8450 C   0  0  0  0  0  0  0  0  0  0  0  0
  142.2640   80.8200  222.5520 C   0  0  0  0  0  0  0  0  0  0  0  0
  142.1990   79.9010  221.5260 C   0  0  0  0  0  0  0  0  0  0  0  0
  140.0340   71.5530  223.3560 C   0  0  0  0  0  0  0  0  0  0  0  0
  139.5850   70.2580  223.2020 C   0  0  0  0  0  0  0  0  0  0  0  0
  139.6110   69.4340  224.2980 C   0  0  0  0  0  0  0  0  0  0  0  0
  140.0740   69.9030  225.4970 C   0  0  0  0  0  0  0  0  0  0  0  0
  140.1180   69.0990  226.6330 C   0  0  0  0  0  0  0  0  0  0  0  0
  139.5720   67.4450  226.5440 Cl  0  0  0  0  0  0  0  0  0  0  0  0
  140.5900   69.5920  227.8360 C   0  0  0  0  0  0  0  0  0  0  0  0
  141.0330   70.9010  227.9470 C   0  0  0  0  0  0  0  0  0  0  0  0
  140.9960   71.7200  226.8170 C   0  0  0  0  0  0  0  0  0  0  0  0
  140.5200   71.2020  225.6320 C   0  0  0  0  0  0  0  0  0  0  0  0
  140.4900   72.0080  224.5410 N   0  0  0  0  0  0  0  0  0  0  0  0
  139.5650   74.1230  223.3180 H   0  0  0  0  0  0  0  0  0  0  0  0
  140.5965   74.2964  220.5862 H   0  0  0  0  0  0  0  0  0  0  0  0
  138.7056   74.3750  220.7537 H   0  0  0  0  0  0  0  0  0  0  0  0
  139.7781   76.7830  218.4185 H   0  0  0  0  0  0  0  0  0  0  0  0
  138.7824   77.8807  219.3741 H   0  0  0  0  0  0  0  0  0  0  0  0
  140.7114   78.7862  217.7061 H   0  0  0  0  0  0  0  0  0  0  0  0
  140.3749   79.6373  219.2091 H   0  0  0  0  0  0  0  0  0  0  0  0
  142.5518   77.5533  218.6217 H   0  0  0  0  0  0  0  0  0  0  0  0
  142.7816   79.1015  219.3811 H   0  0  0  0  0  0  0  0  0  0  0  0
  142.4389   76.8507  220.9383 H   0  0  0  0  0  0  0  0  0  0  0  0
  141.1463   77.2399  223.2717 H   0  0  0  0  0  0  0  0  0  0  0  0
  141.2585   78.8769  225.0996 H   0  0  0  0  0  0  0  0  0  0  0  0
  141.9851   81.2171  224.6598 H   0  0  0  0  0  0  0  0  0  0  0  0
  142.5884   81.8480  222.3330 H   0  0  0  0  0  0  0  0  0  0  0  0
  142.4726   80.2162  220.5083 H   0  0  0  0  0  0  0  0  0  0  0  0
  139.2174   69.8972  222.2300 H   0  0  0  0  0  0  0  0  0  0  0  0
  139.2593   68.3952  224.2130 H   0  0  0  0  0  0  0  0  0  0  0  0
  140.6143   68.9354  228.7182 H   0  0  0  0  0  0  0  0  0  0  0  0
  141.4065   71.2869  228.9070 H   0  0  0  0  0  0  0  0  0  0  0  0
  141.3415   72.7629  226.8717 H   0  0  0  0  0  0  0  0  0  0  0  0
  1  2  2  0
  2  3  1  0
  3  4  1  0
  4  5  1  0
  5  6  2  0
  5  7  1  0
  7  8  1  0
  8  9  1  0
  9 10  1  0
 10 11  1  0
 11 12  1  0
 12 13  2  0
 13 14  1  0
 14 15  2  0
 15 16  1  0
 16 17  2  0
  2 18  1  0
 18 19  2  0
 19 20  1  0
 20 21  2  0
 21 22  1  0
 22 23  1  0
 22 24  2  0
 24 25  1  0
 25 26  2  0
 26 27  1  0
 27 28  2  0
 11  7  1  0
 17 12  1  0
 28 18  1  0
 27 21  1  0
  3 29  1  0
  4 30  1  0
  4 31  1  0
  8 32  1  0
  8 33  1  0
  9 34  1  0
  9 35  1  0
 10 36  1  0
 10 37  1  0
 11 38  1  1
 13 39  1  0
 14 40  1  0
 15 41  1  0
 16 42  1  0
 17 43  1  0
 19 44  1  0
 20 45  1  0
 24 46  1  0
 25 47  1  0
 26 48  1  0
M  END
>  <smiles>  (3) 
O=C(NCC(=O)N1CCC[C@H]1c1ccccc1)c1ccc2c(Cl)cccc2n1

>  <score_type>  (3) 
oracle

>  <origin>  (3) 
autodockgpu

>  <m_score__min__energy>  (3) 
-9.3100000000000005

>  <m_primary>  (3) 
energy

>  <rmsd>  (3) 
1.7572712791550458

>  <m_score__min__rmsd>  (3) 
1.7572712791550458

>  <meeko>  (3) 
{"free_energy": -9.05, "intermolecular_energy": -10.54, "internal_energy": -1.39, "cluster_size": 14, "cluster_id": 1, "rank_in_cluster": 7}

>  <energy>  (3) 
-9.24

>  <cluster_rmsd>  (3) 
0.55

>  <cluster>  (3) 
1

$$$$

     RDKit          3D

 48 51  0  0  0  0  0  0  0  0999 V2000
  140.8970   72.0420  221.1610 O   0  0  0  0  0  0  0  0  0  0  0  0
  140.4050   72.4010  222.2660 C   0  0  0  0  0  0  0  0  0  0  0  0
  139.9470   73.7830  222.3500 N   0  0  0  0  0  0  0  0  0  0  0  0
  140.1040   74.5630  221.1850 C   0  0  0  0  0  0  0  0  0  0  0  0
  139.7930   75.9580  221.1490 C   0  0  0  0  0  0  0  0  0  0  0  0
  138.8230   76.3350  221.9530 O   0  0  0  0  0  0  0  0  0  0  0  0
  140.3190   77.0500  220.4150 N   0  0  0  0  0  0  0  0  0  0  0  0
  139.4700   77.6310  219.3450 C   0  0  0  0  0  0  0  0  0  0  0  0
  140.1880   78.8600  218.9150 C   0  0  0  0  0  0  0  0  0  0  0  0
  141.6400   78.5510  219.1670 C   0  0  0  0  0  0  0  0  0  0  0  0
  141.5580   77.7700  220.4720 C   0  0  1  0  0  0  0  0  0  0  0  0
  141.7330   78.6390  221.6390 C   0  0  0  0  0  0  0  0  0  0  0  0
  142.1980   79.9320  221.5650 C   0  0  0  0  0  0  0  0  0  0  0  0
  142.3760   80.7380  222.6820 C   0  0  0  0  0  0  0  0  0  0  0  0
  142.0860   80.2650  223.9390 C   0  0  0  0  0  0  0  0  0  0  0  0
  141.6180   78.9740  224.0430 C   0  0  0  0  0  0  0  0  0  0  0  0
  141.4440   78.1780  222.9310 C   0  0  0  0  0  0  0  0  0  0  0  0
  140.2820   71.5270  223.4170 C   0  0  0  0  0  0  0  0  0  0  0  0
  139.7310   70.2800  223.2090 C   0  0  0  0  0  0  0  0  0  0  0  0
  139.6090   69.4430  224.2880 C   0  0  0  0  0  0  0  0  0  0  0  0
  140.0270   69.8530  225.5250 C   0  0  0  0  0  0  0  0  0  0  0  0
  139.9200   69.0350  226.6460 C   0  0  0  0  0  0  0  0  0  0  0  0
  139.2370   67.4380  226.4900 Cl  0  0  0  0  0  0  0  0  0  0  0  0
  140.3500   69.4690  227.8880 C   0  0  0  0  0  0  0  0  0  0  0  0
  140.8980   70.7310  228.0520 C   0  0  0  0  0  0  0  0  0  0  0  0
  141.0120   71.5640  226.9380 C   0  0  0  0  0  0  0  0  0  0  0  0
  140.5760   71.1060  225.7140 C   0  0  0  0  0  0  0  0  0  0  0  0
  140.6930   71.9250  224.6390 N   0  0  0  0  0  0  0  0  0  0  0  0
  139.5580   74.0330  223.2700 H   0  0  0  0  0  0  0  0  0  0  0  0
  141.1632   74.4783  220.9006 H   0  0  0  0  0  0  0  0  0  0  0  0
  139.3316   74.1417  220.5247 H   0  0  0  0  0  0  0  0  0  0  0  0
  139.3693   76.9274  218.5055 H   0  0  0  0  0  0  0  0  0  0  0  0
  138.4502   77.8475  219.6960 H   0  0  0  0  0  0  0  0  0  0  0  0
  140.0120   79.0607  217.8479 H   0  0  0  0  0  0  0  0  0  0  0  0
  139.8491   79.7555  219.4565 H   0  0  0  0  0  0  0  0  0  0  0  0
  142.0677   77.9400  218.3585 H   0  0  0  0  0  0  0  0  0  0  0  0
  142.2875   79.4390  219.2139 H   0  0  0  0  0  0  0  0  0  0  0  0
  142.3813   77.0503  220.5915 H   0  0  0  0  0  0  0  0  0  0  0  0
  142.4400   80.3465  220.5752 H   0  0  0  0  0  0  0  0  0  0  0  0
  142.7525   81.7642  222.5592 H   0  0  0  0  0  0  0  0  0  0  0  0
  142.2227   80.8949  224.8303 H   0  0  0  0  0  0  0  0  0  0  0  0
  141.3773   78.5684  225.0368 H   0  0  0  0  0  0  0  0  0  0  0  0
  141.0679   77.1525  223.0611 H   0  0  0  0  0  0  0  0  0  0  0  0
  139.3996   69.9665  222.2081 H   0  0  0  0  0  0  0  0  0  0  0  0
  139.1746   68.4406  224.1593 H   0  0  0  0  0  0  0  0  0  0  0  0
  140.2553   68.8022  228.7577 H   0  0  0  0  0  0  0  0  0  0  0  0
  141.2370   71.0701  229.0420 H   0  0  0  0  0  0  0  0  0  0  0  0
  141.4435   72.5711  227.0358 H   0  0  0  0  0  0  0  0  0  0  0  0
  1  2  2  0
  2  3  1  0
  3  4  1  0
  4  5  1  0
  5  6  2  0
  5  7  1  0
  7  8  1  0
  8  9  1  0
  9 10  1  0
 10 11  1  0
 11 12  1  0
 12 13  2  0
 13 14  1  0
 14 15  2  0
 15 16  1  0
 16 17  2  0
  2 18  1  0
 18 19  2  0
 19 20  1  0
 20 21  2  0
 21 22  1  0
 22 23  1  0
 22 24  2  0
 24 25  1  0
 25 26  2  0
 26 27  1  0
 27 28  2  0
 11  7  1  0
 17 12  1  0
 28 18  1  0
 27 21  1  0
  3 29  1  0
  4 30  1  0
  4 31  1  0
  8 32  1  0
  8 33  1  0
  9 34  1  0
  9 35  1  0
 10 36  1  0
 10 37  1  0
 11 38  1  6
 13 39  1  0
 14 40  1  0
 15 41  1  0
 16 42  1  0
 17 43  1  0
 19 44  1  0
 20 45  1  0
 24 46  1  0
 25 47  1  0
 26 48  1  0
M  END
>  <smiles>  (4) 
O=C(NCC(=O)N1CCC[C@H]1c1ccccc1)c1ccc2c(Cl)cccc2n1

>  <score_type>  (4) 
oracle

>  <origin>  (4) 
autodockgpu

>  <m_score__min__energy>  (4) 
-9.3100000000000005

>  <m_primary>  (4) 
energy

>  <rmsd>  (4) 
1.846841268817466

>  <m_score__min__rmsd>  (4) 
1.846841268817466

>  <meeko>  (4) 
{"free_energy": -8.96, "intermolecular_energy": -10.45, "internal_energy": -1.35, "cluster_size": 14, "cluster_id": 1, "rank_in_cluster": 9}

>  <energy>  (4) 
-9.09

>  <cluster_rmsd>  (4) 
1.19

>  <cluster>  (4) 
1

$$$$

     RDKit          3D

 48 51  0  0  0  0  0  0  0  0999 V2000
  140.7550   72.0130  221.1230 O   0  0  0  0  0  0  0  0  0  0  0  0
  140.3280   72.3890  222.2490 C   0  0  0  0  0  0  0  0  0  0  0  0
  139.8880   73.7760  222.3430 N   0  0  0  0  0  0  0  0  0  0  0  0
  139.9890   74.5430  221.1630 C   0  0  0  0  0  0  0  0  0  0  0  0
  139.8540   75.9660  221.1600 C   0  0  0  0  0  0  0  0  0  0  0  0
  138.9860   76.4470  222.0230 O   0  0  0  0  0  0  0  0  0  0  0  0
  140.4700   76.9970  220.4070 N   0  0  0  0  0  0  0  0  0  0  0  0
  139.7500   77.4990  219.2110 C   0  0  0  0  0  0  0  0  0  0  0  0
  140.5260   78.6880  218.7710 C   0  0  0  0  0  0  0  0  0  0  0  0
  141.9380   78.3920  219.2020 C   0  0  0  0  0  0  0  0  0  0  0  0
  141.7050   77.7130  220.5450 C   0  0  1  0  0  0  0  0  0  0  0  0
  141.7640   78.6670  221.6560 C   0  0  0  0  0  0  0  0  0  0  0  0
  142.1400   79.9830  221.5130 C   0  0  0  0  0  0  0  0  0  0  0  0
  142.2090   80.8710  222.5780 C   0  0  0  0  0  0  0  0  0  0  0  0
  141.8950   80.4620  223.8520 C   0  0  0  0  0  0  0  0  0  0  0  0
  141.5140   79.1500  224.0250 C   0  0  0  0  0  0  0  0  0  0  0  0
  141.4480   78.2720  222.9640 C   0  0  0  0  0  0  0  0  0  0  0  0
  140.2590   71.5280  223.4140 C   0  0  0  0  0  0  0  0  0  0  0  0
  139.7330   70.2650  223.2380 C   0  0  0  0  0  0  0  0  0  0  0  0
  139.6620   69.4410  224.3320 C   0  0  0  0  0  0  0  0  0  0  0  0
  140.1050   69.8780  225.5510 C   0  0  0  0  0  0  0  0  0  0  0  0
  140.0510   69.0720  226.6850 C   0  0  0  0  0  0  0  0  0  0  0  0
  139.4030   67.4570  226.5690 Cl  0  0  0  0  0  0  0  0  0  0  0  0
  140.5050   69.5330  227.9080 C   0  0  0  0  0  0  0  0  0  0  0  0
  141.0270   70.8110  228.0400 C   0  0  0  0  0  0  0  0  0  0  0  0
  141.0880   71.6310  226.9120 C   0  0  0  0  0  0  0  0  0  0  0  0
  140.6290   71.1450  225.7080 C   0  0  0  0  0  0  0  0  0  0  0  0
  140.6950   71.9520  224.6180 N   0  0  0  0  0  0  0  0  0  0  0  0
  139.5520   74.0390  223.2800 H   0  0  0  0  0  0  0  0  0  0  0  0
  140.9831   74.3292  220.7434 H   0  0  0  0  0  0  0  0  0  0  0  0
  139.0904   74.2293  220.6115 H   0  0  0  0  0  0  0  0  0  0  0  0
  139.7316   76.7342  218.4206 H   0  0  0  0  0  0  0  0  0  0  0  0
  138.7011   77.7465  219.4316 H   0  0  0  0  0  0  0  0  0  0  0  0
  140.4691   78.8080  217.6790 H   0  0  0  0  0  0  0  0  0  0  0  0
  140.1422   79.6236  219.2038 H   0  0  0  0  0  0  0  0  0  0  0  0
  142.4426   77.7192  218.4930 H   0  0  0  0  0  0  0  0  0  0  0  0
  142.5883   79.2778  219.2523 H   0  0  0  0  0  0  0  0  0  0  0  0
  142.5011   77.0007  220.8073 H   0  0  0  0  0  0  0  0  0  0  0  0
  142.3979   80.3484  220.5080 H   0  0  0  0  0  0  0  0  0  0  0  0
  142.5179   81.9117  222.4005 H   0  0  0  0  0  0  0  0  0  0  0  0
  141.9462   81.1575  224.7027 H   0  0  0  0  0  0  0  0  0  0  0  0
  141.2563   78.7941  225.0334 H   0  0  0  0  0  0  0  0  0  0  0  0
  141.1388   77.2326  223.1486 H   0  0  0  0  0  0  0  0  0  0  0  0
  139.3815   69.9293  222.2512 H   0  0  0  0  0  0  0  0  0  0  0  0
  139.2482   68.4270  224.2295 H   0  0  0  0  0  0  0  0  0  0  0  0
  140.4511   68.8761  228.7887 H   0  0  0  0  0  0  0  0  0  0  0  0
  141.3862   71.1717  229.0151 H   0  0  0  0  0  0  0  0  0  0  0  0
  141.4965   72.6498  226.9837 H   0  0  0  0  0  0  0  0  0  0  0  0
  1  2  2  0
  2  3  1  0
  3  4  1  0
  4  5  1  0
  5  6  2  0
  5  7  1  0
  7  8  1  0
  8  9  1  0
  9 10  1  0
 10 11  1  0
 11 12  1  0
 12 13  2  0
 13 14  1  0
 14 15  2  0
 15 16  1  0
 16 17  2  0
  2 18  1  0
 18 19  2  0
 19 20  1  0
 20 21  2  0
 21 22  1  0
 22 23  1  0
 22 24  2  0
 24 25  1  0
 25 26  2  0
 26 27  1  0
 27 28  2  0
 11  7  1  0
 17 12  1  0
 28 18  1  0
 27 21  1  0
  3 29  1  0
  4 30  1  0
  4 31  1  0
  8 32  1  0
  8 33  1  0
  9 34  1  0
  9 35  1  0
 10 36  1  0
 10 37  1  0
 11 38  1  1
 13 39  1  0
 14 40  1  0
 15 41  1  0
 16 42  1  0
 17 43  1  0
 19 44  1  0
 20 45  1  0
 24 46  1  0
 25 47  1  0
 26 48  1  0
M  END
>  <smiles>  (5) 
O=C(NCC(=O)N1CCC[C@H]1c1ccccc1)c1ccc2c(Cl)cccc2n1

>  <score_type>  (5) 
oracle

>  <origin>  (5) 
autodockgpu

>  <m_score__min__energy>  (5) 
-9.3100000000000005

>  <m_primary>  (5) 
energy

>  <rmsd>  (5) 
1.7942006524272807

>  <m_score__min__rmsd>  (5) 
1.7942006524272807

>  <meeko>  (5) 
{"free_energy": -9.09, "intermolecular_energy": -10.58, "internal_energy": -1.36, "cluster_size": 14, "cluster_id": 1, "rank_in_cluster": 5}

>  <energy>  (5) 
-9.09

>  <cluster_rmsd>  (5) 
0.67

>  <cluster>  (5) 
1

$$$$

     RDKit          3D

 48 51  0  0  0  0  0  0  0  0999 V2000
  140.8300   74.4810  221.4320 O   0  0  0  0  0  0  0  0  0  0  0  0
  139.8640   75.0800  221.9810 C   0  0  0  0  0  0  0  0  0  0  0  0
  138.6890   74.2710  222.2820 N   0  0  0  0  0  0  0  0  0  0  0  0
  138.7650   72.9070  221.9270 C   0  0  0  0  0  0  0  0  0  0  0  0
  139.4480   71.9430  222.7310 C   0  0  0  0  0  0  0  0  0  0  0  0
  140.6920   72.2470  223.0330 O   0  0  0  0  0  0  0  0  0  0  0  0
  139.0640   70.6970  223.2870 N   0  0  0  0  0  0  0  0  0  0  0  0
  139.2820   69.4820  222.4650 C   0  0  0  0  0  0  0  0  0  0  0  0
  138.9870   68.3460  223.3790 C   0  0  0  0  0  0  0  0  0  0  0  0
  137.9670   68.8970  224.3410 C   0  0  0  0  0  0  0  0  0  0  0  0
  138.4810   70.3160  224.5400 C   0  0  1  0  0  0  0  0  0  0  0  0
  139.3610   70.4180  225.7080 C   0  0  0  0  0  0  0  0  0  0  0  0
  140.2250   71.4670  225.9230 C   0  0  0  0  0  0  0  0  0  0  0  0
  141.0660   71.5410  227.0250 C   0  0  0  0  0  0  0  0  0  0  0  0
  141.0710   70.5440  227.9710 C   0  0  0  0  0  0  0  0  0  0  0  0
  140.2150   69.4810  227.7810 C   0  0  0  0  0  0  0  0  0  0  0  0
  139.3830   69.4130  226.6850 C   0  0  0  0  0  0  0  0  0  0  0  0
  139.8740   76.4920  222.3110 C   0  0  0  0  0  0  0  0  0  0  0  0
  138.6550   77.1360  222.3750 C   0  0  0  0  0  0  0  0  0  0  0  0
  138.6490   78.4710  222.6860 C   0  0  0  0  0  0  0  0  0  0  0  0
  139.8280   79.1260  222.9220 C   0  0  0  0  0  0  0  0  0  0  0  0
  139.8650   80.4810  223.2410 C   0  0  0  0  0  0  0  0  0  0  0  0
  138.3790   81.3860  223.3470 Cl  0  0  0  0  0  0  0  0  0  0  0  0
  141.0670   81.1240  223.4760 C   0  0  0  0  0  0  0  0  0  0  0  0
  142.2700   80.4390  223.4010 C   0  0  0  0  0  0  0  0  0  0  0  0
  142.2500   79.0790  223.0820 C   0  0  0  0  0  0  0  0  0  0  0  0
  141.0380   78.4660  222.8530 C   0  0  0  0  0  0  0  0  0  0  0  0
  141.0320   77.1440  222.5450 N   0  0  0  0  0  0  0  0  0  0  0  0
  137.9260   74.8020  222.7240 H   0  0  0  0  0  0  0  0  0  0  0  0
  137.7264   72.5545  221.8430 H   0  0  0  0  0  0  0  0  0  0  0  0
  139.3985   72.9419  221.0284 H   0  0  0  0  0  0  0  0  0  0  0  0
  138.6008   69.4713  221.6013 H   0  0  0  0  0  0  0  0  0  0  0  0
  140.3032   69.4335  222.0589 H   0  0  0  0  0  0  0  0  0  0  0  0
  138.5745   67.4932  222.8200 H   0  0  0  0  0  0  0  0  0  0  0  0
  139.8871   67.9727  223.8893 H   0  0  0  0  0  0  0  0  0  0  0  0
  136.9575   68.8919  223.9042 H   0  0  0  0  0  0  0  0  0  0  0  0
  137.8673   68.3193  225.2717 H   0  0  0  0  0  0  0  0  0  0  0  0
  137.6812   71.0291  224.7886 H   0  0  0  0  0  0  0  0  0  0  0  0
  140.2505   72.2848  225.1877 H   0  0  0  0  0  0  0  0  0  0  0  0
  141.7351   72.4062  227.1422 H   0  0  0  0  0  0  0  0  0  0  0  0
  141.7339   70.5928  228.8475 H   0  0  0  0  0  0  0  0  0  0  0  0
  140.1955   68.6679  228.5216 H   0  0  0  0  0  0  0  0  0  0  0  0
  138.7167   68.5449  226.5733 H   0  0  0  0  0  0  0  0  0  0  0  0
  137.7170   76.5946  222.1823 H   0  0  0  0  0  0  0  0  0  0  0  0
  137.6958   79.0168  222.7461 H   0  0  0  0  0  0  0  0  0  0  0  0
  141.0684   82.1952  223.7262 H   0  0  0  0  0  0  0  0  0  0  0  0
  143.2222   80.9565  223.5891 H   0  0  0  0  0  0  0  0  0  0  0  0
  143.1871   78.5069  223.0148 H   0  0  0  0  0  0  0  0  0  0  0  0
  1  2  2  0
  2  3  1  0
  3  4  1  0
  4  5  1  0
  5  6  2  0
  5  7  1  0
  7  8  1  0
  8  9  1  0
  9 10  1  0
 10 11  1  0
 11 12  1  0
 12 13  2  0
 13 14  1  0
 14 15  2  0
 15 16  1  0
 16 17  2  0
  2 18  1  0
 18 19  2  0
 19 20  1  0
 20 21  2  0
 21 22  1  0
 22 23  1  0
 22 24  2  0
 24 25  1  0
 25 26  2  0
 26 27  1  0
 27 28  2  0
 11  7  1  0
 17 12  1  0
 28 18  1  0
 27 21  1  0
  3 29  1  0
  4 30  1  0
  4 31  1  0
  8 32  1  0
  8 33  1  0
  9 34  1  0
  9 35  1  0
 10 36  1  0
 10 37  1  0
 11 38  1  1
 13 39  1  0
 14 40  1  0
 15 41  1  0
 16 42  1  0
 17 43  1  0
 19 44  1  0
 20 45  1  0
 24 46  1  0
 25 47  1  0
 26 48  1  0
M  END
>  <smiles>  (6) 
O=C(NCC(=O)N1CCC[C@H]1c1ccccc1)c1ccc2c(Cl)cccc2n1

>  <score_type>  (6) 
oracle

>  <origin>  (6) 
autodockgpu

>  <m_score__min__energy>  (6) 
-9.3100000000000005

>  <m_primary>  (6) 
energy

>  <rmsd>  (6) 
8.157028743341028

>  <m_score__min__rmsd>  (6) 
8.157028743341028

>  <meeko>  (6) 
{"free_energy": -8.99, "intermolecular_energy": -10.49, "internal_energy": -1.13, "cluster_size": 24, "cluster_id": 3, "rank_in_cluster": 11}

>  <energy>  (6) 
-9.08

>  <cluster_rmsd>  (6) 
0.81

>  <cluster>  (6) 
1

$$$$

     RDKit          3D

 48 51  0  0  0  0  0  0  0  0999 V2000
  141.3730   72.2080  221.6260 O   0  0  0  0  0  0  0  0  0  0  0  0
  140.4780   72.3430  222.5050 C   0  0  0  0  0  0  0  0  0  0  0  0
  139.5480   73.4500  222.3150 N   0  0  0  0  0  0  0  0  0  0  0  0
  139.7540   74.2470  221.1690 C   0  0  0  0  0  0  0  0  0  0  0  0
  140.8080   75.2080  221.0830 C   0  0  0  0  0  0  0  0  0  0  0  0
  141.0430   75.8800  222.1890 O   0  0  0  0  0  0  0  0  0  0  0  0
  141.6780   75.6020  220.0360 N   0  0  0  0  0  0  0  0  0  0  0  0
  141.8990   77.0560  219.8360 C   0  0  0  0  0  0  0  0  0  0  0  0
  142.9930   77.1410  218.8340 C   0  0  0  0  0  0  0  0  0  0  0  0
  142.8360   75.8940  218.0040 C   0  0  0  0  0  0  0  0  0  0  0  0
  142.4450   74.8750  219.0660 C   0  0  1  0  0  0  0  0  0  0  0  0
  143.6110   74.1570  219.5880 C   0  0  0  0  0  0  0  0  0  0  0  0
  143.8930   72.8430  219.2920 C   0  0  0  0  0  0  0  0  0  0  0  0
  144.9920   72.1700  219.8080 C   0  0  0  0  0  0  0  0  0  0  0  0
  145.8660   72.8050  220.6570 C   0  0  0  0  0  0  0  0  0  0  0  0
  145.6090   74.1210  220.9710 C   0  0  0  0  0  0  0  0  0  0  0  0
  144.5160   74.7840  220.4560 C   0  0  0  0  0  0  0  0  0  0  0  0
  140.3410   71.4730  223.6570 C   0  0  0  0  0  0  0  0  0  0  0  0
  139.7970   70.2230  223.4460 C   0  0  0  0  0  0  0  0  0  0  0  0
  139.6620   69.3900  224.5260 C   0  0  0  0  0  0  0  0  0  0  0  0
  140.0600   69.8070  225.7680 C   0  0  0  0  0  0  0  0  0  0  0  0
  139.9390   68.9920  226.8910 C   0  0  0  0  0  0  0  0  0  0  0  0
  139.2640   67.3920  226.7300 Cl  0  0  0  0  0  0  0  0  0  0  0  0
  140.3480   69.4320  228.1360 C   0  0  0  0  0  0  0  0  0  0  0  0
  140.8900   70.6970  228.3050 C   0  0  0  0  0  0  0  0  0  0  0  0
  141.0170   71.5270  227.1890 C   0  0  0  0  0  0  0  0  0  0  0  0
  140.6010   71.0620  225.9600 C   0  0  0  0  0  0  0  0  0  0  0  0
  140.7310   71.8770  224.8840 N   0  0  0  0  0  0  0  0  0  0  0  0
  138.8380   73.5240  223.0580 H   0  0  0  0  0  0  0  0  0  0  0  0
  139.9089   73.5478  220.3341 H   0  0  0  0  0  0  0  0  0  0  0  0
  138.8617   74.8902  221.1776 H   0  0  0  0  0  0  0  0  0  0  0  0
  140.9864   77.5375  219.4547 H   0  0  0  0  0  0  0  0  0  0  0  0
  142.1556   77.5693  220.7745 H   0  0  0  0  0  0  0  0  0  0  0  0
  142.8813   78.0405  218.2107 H   0  0  0  0  0  0  0  0  0  0  0  0
  143.9862   77.2121  219.3015 H   0  0  0  0  0  0  0  0  0  0  0  0
  142.0458   76.0106  217.2477 H   0  0  0  0  0  0  0  0  0  0  0  0
  143.7320   75.6216  217.4269 H   0  0  0  0  0  0  0  0  0  0  0  0
  141.8276   74.0569  218.6665 H   0  0  0  0  0  0  0  0  0  0  0  0
  143.2162   72.3009  218.6152 H   0  0  0  0  0  0  0  0  0  0  0  0
  145.1648   71.1186  219.5347 H   0  0  0  0  0  0  0  0  0  0  0  0
  146.7399   72.2808  221.0712 H   0  0  0  0  0  0  0  0  0  0  0  0
  146.2916   74.6552  221.6483 H   0  0  0  0  0  0  0  0  0  0  0  0
  144.3489   75.8351  220.7339 H   0  0  0  0  0  0  0  0  0  0  0  0
  139.4812   69.9045  222.4416 H   0  0  0  0  0  0  0  0  0  0  0  0
  139.2335   68.3854  224.3949 H   0  0  0  0  0  0  0  0  0  0  0  0
  140.2418   68.7680  229.0065 H   0  0  0  0  0  0  0  0  0  0  0  0
  141.2137   71.0402  229.2987 H   0  0  0  0  0  0  0  0  0  0  0  0
  141.4425   72.5364  227.2893 H   0  0  0  0  0  0  0  0  0  0  0  0
  1  2  2  0
  2  3  1  0
  3  4  1  0
  4  5  1  0
  5  6  2  0
  5  7  1  0
  7  8  1  0
  8  9  1  0
  9 10  1  0
 10 11  1  0
 11 12  1  0
 12 13  2  0
 13 14  1  0
 14 15  2  0
 15 16  1  0
 16 17  2  0
  2 18  1  0
 18 19  2  0
 19 20  1  0
 20 21  2  0
 21 22  1  0
 22 23  1  0
 22 24  2  0
 24 25  1  0
 25 26  2  0
 26 27  1  0
 27 28  2  0
 11  7  1  0
 17 12  1  0
 28 18  1  0
 27 21  1  0
  3 29  1  0
  4 30  1  0
  4 31  1  0
  8 32  1  0
  8 33  1  0
  9 34  1  0
  9 35  1  0
 10 36  1  0
 10 37  1  0
 11 38  1  6
 13 39  1  0
 14 40  1  0
 15 41  1  0
 16 42  1  0
 17 43  1  0
 19 44  1  0
 20 45  1  0
 24 46  1  0
 25 47  1  0
 26 48  1  0
M  END
>  <smiles>  (7) 
O=C(NCC(=O)N1CCC[C@H]1c1ccccc1)c1ccc2c(Cl)cccc2n1

>  <score_type>  (7) 
oracle

>  <origin>  (7) 
autodockgpu

>  <m_score__min__energy>  (7) 
-9.3100000000000005

>  <m_primary>  (7) 
energy

>  <rmsd>  (7) 
2.261769473527314

>  <m_score__min__rmsd>  (7) 
2.261769473527314

>  <meeko>  (7) 
{"free_energy": -9.14, "intermolecular_energy": -10.63, "internal_energy": -1.53, "cluster_size": 4, "cluster_id": 2, "rank_in_cluster": 1}

>  <energy>  (7) 
-9.05

>  <cluster_rmsd>  (7) 
0.74

>  <cluster>  (7) 
1

$$$$

     RDKit          3D

 48 51  0  0  0  0  0  0  0  0999 V2000
  141.0570   72.0950  221.2840 O   0  0  0  0  0  0  0  0  0  0  0  0
  140.3940   72.3770  222.3200 C   0  0  0  0  0  0  0  0  0  0  0  0
  139.7260   73.6740  222.3250 N   0  0  0  0  0  0  0  0  0  0  0  0
  139.8970   74.4670  221.1700 C   0  0  0  0  0  0  0  0  0  0  0  0
  140.9600   75.4140  221.0410 C   0  0  0  0  0  0  0  0  0  0  0  0
  142.0410   74.9630  220.4430 O   0  0  0  0  0  0  0  0  0  0  0  0
  141.1030   76.7700  221.4290 N   0  0  0  0  0  0  0  0  0  0  0  0
  141.7910   77.6850  220.4850 C   0  0  0  0  0  0  0  0  0  0  0  0
  141.6000   79.0410  221.0620 C   0  0  0  0  0  0  0  0  0  0  0  0
  141.5060   78.8050  222.5460 C   0  0  0  0  0  0  0  0  0  0  0  0
  140.7090   77.5090  222.5930 C   0  0  1  0  0  0  0  0  0  0  0  0
  139.2710   77.7570  222.7300 C   0  0  0  0  0  0  0  0  0  0  0  0
  138.7300   79.0020  222.9530 C   0  0  0  0  0  0  0  0  0  0  0  0
  137.3660   79.2200  223.0980 C   0  0  0  0  0  0  0  0  0  0  0  0
  136.4780   78.1730  223.0240 C   0  0  0  0  0  0  0  0  0  0  0  0
  136.9920   76.9150  222.8010 C   0  0  0  0  0  0  0  0  0  0  0  0
  138.3470   76.7050  222.6580 C   0  0  0  0  0  0  0  0  0  0  0  0
  140.2730   71.4970  223.4660 C   0  0  0  0  0  0  0  0  0  0  0  0
  139.7210   70.2520  223.2520 C   0  0  0  0  0  0  0  0  0  0  0  0
  139.6000   69.4090  224.3280 C   0  0  0  0  0  0  0  0  0  0  0  0
  140.0220   69.8120  225.5660 C   0  0  0  0  0  0  0  0  0  0  0  0
  139.9170   68.9870  226.6830 C   0  0  0  0  0  0  0  0  0  0  0  0
  139.2330   67.3920  226.5190 Cl  0  0  0  0  0  0  0  0  0  0  0  0
  140.3500   69.4140  227.9250 C   0  0  0  0  0  0  0  0  0  0  0  0
  140.8990   70.6750  228.0960 C   0  0  0  0  0  0  0  0  0  0  0  0
  141.0110   71.5150  226.9850 C   0  0  0  0  0  0  0  0  0  0  0  0
  140.5720   71.0630  225.7600 C   0  0  0  0  0  0  0  0  0  0  0  0
  140.6870   71.8880  224.6890 N   0  0  0  0  0  0  0  0  0  0  0  0
  139.2020   73.8640  223.1910 H   0  0  0  0  0  0  0  0  0  0  0  0
  140.0094   73.7648  220.3308 H   0  0  0  0  0  0  0  0  0  0  0  0
  139.0143   75.1220  221.2124 H   0  0  0  0  0  0  0  0  0  0  0  0
  142.8612   77.4396  220.4184 H   0  0  0  0  0  0  0  0  0  0  0  0
  141.3879   77.6079  219.4644 H   0  0  0  0  0  0  0  0  0  0  0  0
  142.4560   79.6896  220.8242 H   0  0  0  0  0  0  0  0  0  0  0  0
  140.7097   79.5468  220.6600 H   0  0  0  0  0  0  0  0  0  0  0  0
  142.5013   78.6821  222.9979 H   0  0  0  0  0  0  0  0  0  0  0  0
  141.0495   79.6347  223.1057 H   0  0  0  0  0  0  0  0  0  0  0  0
  140.9271   76.9061  223.4869 H   0  0  0  0  0  0  0  0  0  0  0  0
  139.4091   79.8648  223.0196 H   0  0  0  0  0  0  0  0  0  0  0  0
  136.9928   80.2397  223.2737 H   0  0  0  0  0  0  0  0  0  0  0  0
  135.3960   78.3343  223.1388 H   0  0  0  0  0  0  0  0  0  0  0  0
  136.3056   76.0580  222.7354 H   0  0  0  0  0  0  0  0  0  0  0  0
  138.7137   75.6829  222.4824 H   0  0  0  0  0  0  0  0  0  0  0  0
  139.3879   69.9439  222.2499 H   0  0  0  0  0  0  0  0  0  0  0  0
  139.1633   68.4081  224.1954 H   0  0  0  0  0  0  0  0  0  0  0  0
  140.2572   68.7421  228.7910 H   0  0  0  0  0  0  0  0  0  0  0  0
  141.2400   71.0082  229.0873 H   0  0  0  0  0  0  0  0  0  0  0  0
  141.4430   72.5215  227.0870 H   0  0  0  0  0  0  0  0  0  0  0  0
  1  2  2  0
  2  3  1  0
  3  4  1  0
  4  5  1  0
  5  6  2  0
  5  7  1  0
  7  8  1  0
  8  9  1  0
  9 10  1  0
 10 11  1  0
 11 12  1  0
 12 13  2  0
 13 14  1  0
 14 15  2  0
 15 16  1  0
 16 17  2  0
  2 18  1  0
 18 19  2  0
 19 20  1  0
 20 21  2  0
 21 22  1  0
 22 23  1  0
 22 24  2  0
 24 25  1  0
 25 26  2  0
 26 27  1  0
 27 28  2  0
 11  7  1  0
 17 12  1  0
 28 18  1  0
 27 21  1  0
  3 29  1  0
  4 30  1  0
  4 31  1  0
  8 32  1  0
  8 33  1  0
  9 34  1  0
  9 35  1  0
 10 36  1  0
 10 37  1  0
 11 38  1  1
 13 39  1  0
 14 40  1  0
 15 41  1  0
 16 42  1  0
 17 43  1  0
 19 44  1  0
 20 45  1  0
 24 46  1  0
 25 47  1  0
 26 48  1  0
M  END
>  <smiles>  (8) 
O=C(NCC(=O)N1CCC[C@H]1c1ccccc1)c1ccc2c(Cl)cccc2n1

>  <score_type>  (8) 
oracle

>  <origin>  (8) 
autodockgpu

>  <m_score__min__energy>  (8) 
-9.3100000000000005

>  <m_primary>  (8) 
energy

>  <rmsd>  (8) 
2.8010499509146407

>  <m_score__min__rmsd>  (8) 
2.8010499509146407

>  <meeko>  (8) 
{"free_energy": -8.46, "intermolecular_energy": -9.95, "internal_energy": -1.26, "cluster_size": 14, "cluster_id": 1, "rank_in_cluster": 14}

>  <energy>  (8) 
-9.05

>  <cluster_rmsd>  (8) 
0.3

>  <cluster>  (8) 
1

$$$$

     RDKit          3D

 48 51  0  0  0  0  0  0  0  0999 V2000
  141.2600   74.6450  221.3670 O   0  0  0  0  0  0  0  0  0  0  0  0
  140.2670   75.1420  221.9670 C   0  0  0  0  0  0  0  0  0  0  0  0
  139.1890   74.2200  222.3060 N   0  0  0  0  0  0  0  0  0  0  0  0
  139.3780   72.8740  221.9250 C   0  0  0  0  0  0  0  0  0  0  0  0
  139.7070   71.8500  222.8660 C   0  0  0  0  0  0  0  0  0  0  0  0
  140.7960   72.0680  223.5720 O   0  0  0  0  0  0  0  0  0  0  0  0
  139.0960   70.6190  223.2130 N   0  0  0  0  0  0  0  0  0  0  0  0
  139.0740   69.5500  222.1850 C   0  0  0  0  0  0  0  0  0  0  0  0
  138.5740   68.3450  222.8980 C   0  0  0  0  0  0  0  0  0  0  0  0
  137.6830   68.8960  223.9800 C   0  0  0  0  0  0  0  0  0  0  0  0
  138.4580   70.1370  224.4030 C   0  0  1  0  0  0  0  0  0  0  0  0
  139.3480   69.8640  225.5350 C   0  0  0  0  0  0  0  0  0  0  0  0
  140.0930   70.8300  226.1700 C   0  0  0  0  0  0  0  0  0  0  0  0
  140.9460   70.5530  227.2300 C   0  0  0  0  0  0  0  0  0  0  0  0
  141.0840   69.2700  227.7010 C   0  0  0  0  0  0  0  0  0  0  0  0
  140.3490   68.2820  227.0840 C   0  0  0  0  0  0  0  0  0  0  0  0
  139.5050   68.5620  226.0320 C   0  0  0  0  0  0  0  0  0  0  0  0
  140.1570   76.5440  222.3200 C   0  0  0  0  0  0  0  0  0  0  0  0
  138.8870   77.0740  222.4210 C   0  0  0  0  0  0  0  0  0  0  0  0
  138.7680   78.3990  222.7540 C   0  0  0  0  0  0  0  0  0  0  0  0
  139.8880   79.1540  222.9760 C   0  0  0  0  0  0  0  0  0  0  0  0
  139.8100   80.5020  223.3160 C   0  0  0  0  0  0  0  0  0  0  0  0
  138.2510   81.2670  223.4690 Cl  0  0  0  0  0  0  0  0  0  0  0  0
  140.9550   81.2470  223.5360 C   0  0  0  0  0  0  0  0  0  0  0  0
  142.2120   80.6740  223.4240 C   0  0  0  0  0  0  0  0  0  0  0  0
  142.3070   79.3240  223.0830 C   0  0  0  0  0  0  0  0  0  0  0  0
  141.1510   78.6060  222.8700 C   0  0  0  0  0  0  0  0  0  0  0  0
  141.2560   77.2940  222.5400 N   0  0  0  0  0  0  0  0  0  0  0  0
  138.3990   74.6690  222.7900 H   0  0  0  0  0  0  0  0  0  0  0  0
  138.4405   72.5578  221.4442 H   0  0  0  0  0  0  0  0  0  0  0  0
  140.2989   72.9355  221.3265 H   0  0  0  0  0  0  0  0  0  0  0  0
  138.3982   69.8200  221.3601 H   0  0  0  0  0  0  0  0  0  0  0  0
  140.0651   69.3851  221.7373 H   0  0  0  0  0  0  0  0  0  0  0  0
  138.0038   67.6972  222.2159 H   0  0  0  0  0  0  0  0  0  0  0  0
  139.3895   67.7258  223.2998 H   0  0  0  0  0  0  0  0  0  0  0  0
  136.6885   69.1565  223.5887 H   0  0  0  0  0  0  0  0  0  0  0  0
  137.4810   68.1905  224.7994 H   0  0  0  0  0  0  0  0  0  0  0  0
  137.8096   70.9304  224.8032 H   0  0  0  0  0  0  0  0  0  0  0  0
  140.0092   71.8702  225.8221 H   0  0  0  0  0  0  0  0  0  0  0  0
  141.5169   71.3690  227.6972 H   0  0  0  0  0  0  0  0  0  0  0  0
  141.7569   69.0401  228.5403 H   0  0  0  0  0  0  0  0  0  0  0  0
  140.4381   67.2449  227.4397 H   0  0  0  0  0  0  0  0  0  0  0  0
  138.9381   67.7411  225.5686 H   0  0  0  0  0  0  0  0  0  0  0  0
  137.9974   76.4528  222.2400 H   0  0  0  0  0  0  0  0  0  0  0  0
  137.7712   78.8557  222.8428 H   0  0  0  0  0  0  0  0  0  0  0  0
  140.8663   82.3102  223.8039 H   0  0  0  0  0  0  0  0  0  0  0  0
  143.1181   81.2722  223.6006 H   0  0  0  0  0  0  0  0  0  0  0  0
  143.2903   78.8406  222.9858 H   0  0  0  0  0  0  0  0  0  0  0  0
  1  2  2  0
  2  3  1  0
  3  4  1  0
  4  5  1  0
  5  6  2  0
  5  7  1  0
  7  8  1  0
  8  9  1  0
  9 10  1  0
 10 11  1  0
 11 12  1  0
 12 13  2  0
 13 14  1  0
 14 15  2  0
 15 16  1  0
 16 17  2  0
  2 18  1  0
 18 19  2  0
 19 20  1  0
 20 21  2  0
 21 22  1  0
 22 23  1  0
 22 24  2  0
 24 25  1  0
 25 26  2  0
 26 27  1  0
 27 28  2  0
 11  7  1  0
 17 12  1  0
 28 18  1  0
 27 21  1  0
  3 29  1  0
  4 30  1  0
  4 31  1  0
  8 32  1  0
  8 33  1  0
  9 34  1  0
  9 35  1  0
 10 36  1  0
 10 37  1  0
 11 38  1  1
 13 39  1  0
 14 40  1  0
 15 41  1  0
 16 42  1  0
 17 43  1  0
 19 44  1  0
 20 45  1  0
 24 46  1  0
 25 47  1  0
 26 48  1  0
M  END
>  <smiles>  (9) 
O=C(NCC(=O)N1CCC[C@H]1c1ccccc1)c1ccc2c(Cl)cccc2n1

>  <score_type>  (9) 
oracle

>  <origin>  (9) 
autodockgpu

>  <m_score__min__energy>  (9) 
-9.3100000000000005

>  <m_primary>  (9) 
energy

>  <rmsd>  (9) 
8.164499299487975

>  <m_score__min__rmsd>  (9) 
8.164499299487975

>  <meeko>  (9) 
{"free_energy": -9.02, "intermolecular_energy": -10.51, "internal_energy": -1.09, "cluster_size": 24, "cluster_id": 3, "rank_in_cluster": 9}

>  <energy>  (9) 
-8.96

>  <cluster_rmsd>  (9) 
0.67

>  <cluster>  (9) 
1

$$$$

     RDKit          3D

 48 51  0  0  0  0  0  0  0  0999 V2000
  140.3120   71.9800  221.0760 O   0  0  0  0  0  0  0  0  0  0  0  0
  140.0680   72.4260  222.2310 C   0  0  0  0  0  0  0  0  0  0  0  0
  139.7500   73.8460  222.3220 N   0  0  0  0  0  0  0  0  0  0  0  0
  139.7490   74.5630  221.1060 C   0  0  0  0  0  0  0  0  0  0  0  0
  140.7650   75.5130  220.7760 C   0  0  0  0  0  0  0  0  0  0  0  0
  141.9930   75.1410  221.0650 O   0  0  0  0  0  0  0  0  0  0  0  0
  140.7330   76.8020  220.1890 N   0  0  0  0  0  0  0  0  0  0  0  0
  139.5360   77.1630  219.3890 C   0  0  0  0  0  0  0  0  0  0  0  0
  139.6980   78.6100  219.0930 C   0  0  0  0  0  0  0  0  0  0  0  0
  141.1900   78.8190  219.0590 C   0  0  0  0  0  0  0  0  0  0  0  0
  141.6440   77.9090  220.1920 C   0  0  1  0  0  0  0  0  0  0  0  0
  141.7590   78.6330  221.4610 C   0  0  0  0  0  0  0  0  0  0  0  0
  141.4350   78.0890  222.6820 C   0  0  0  0  0  0  0  0  0  0  0  0
  141.5320   78.7940  223.8750 C   0  0  0  0  0  0  0  0  0  0  0  0
  141.9680   80.0970  223.8840 C   0  0  0  0  0  0  0  0  0  0  0  0
  142.3010   80.6670  222.6760 C   0  0  0  0  0  0  0  0  0  0  0  0
  142.2020   79.9630  221.4950 C   0  0  0  0  0  0  0  0  0  0  0  0
  140.0920   71.6120  223.4320 C   0  0  0  0  0  0  0  0  0  0  0  0
  139.6210   70.3200  223.3300 C   0  0  0  0  0  0  0  0  0  0  0  0
  139.6380   69.5400  224.4580 C   0  0  0  0  0  0  0  0  0  0  0  0
  140.1130   70.0480  225.6370 C   0  0  0  0  0  0  0  0  0  0  0  0
  140.1470   69.2880  226.8040 C   0  0  0  0  0  0  0  0  0  0  0  0
  139.5730   67.6420  226.7820 Cl  0  0  0  0  0  0  0  0  0  0  0  0
  140.6310   69.8210  227.9850 C   0  0  0  0  0  0  0  0  0  0  0  0
  141.0960   71.1260  228.0420 C   0  0  0  0  0  0  0  0  0  0  0  0
  141.0680   71.9000  226.8810 C   0  0  0  0  0  0  0  0  0  0  0  0
  140.5800   71.3440  225.7190 C   0  0  0  0  0  0  0  0  0  0  0  0
  140.5590   72.1060  224.5970 N   0  0  0  0  0  0  0  0  0  0  0  0
  139.5630   74.1660  223.2830 H   0  0  0  0  0  0  0  0  0  0  0  0
  139.7643   73.8083  220.3058 H   0  0  0  0  0  0  0  0  0  0  0  0
  138.8656   75.2078  221.2240 H   0  0  0  0  0  0  0  0  0  0  0  0
  139.5020   76.5786  218.4577 H   0  0  0  0  0  0  0  0  0  0  0  0
  138.5994   76.9518  219.9258 H   0  0  0  0  0  0  0  0  0  0  0  0
  139.2471   78.8618  218.1218 H   0  0  0  0  0  0  0  0  0  0  0  0
  139.2012   79.2492  219.8377 H   0  0  0  0  0  0  0  0  0  0  0  0
  141.6186   78.5068  218.0953 H   0  0  0  0  0  0  0  0  0  0  0  0
  141.5008   79.8682  219.1715 H   0  0  0  0  0  0  0  0  0  0  0  0
  142.6657   77.5272  220.0491 H   0  0  0  0  0  0  0  0  0  0  0  0
  141.0828   77.0475  222.7154 H   0  0  0  0  0  0  0  0  0  0  0  0
  141.2573   78.3047  224.8211 H   0  0  0  0  0  0  0  0  0  0  0  0
  142.0481   80.6644  224.8230 H   0  0  0  0  0  0  0  0  0  0  0  0
  142.6543   81.7085  222.6526 H   0  0  0  0  0  0  0  0  0  0  0  0
  142.4783   80.4585  220.5526 H   0  0  0  0  0  0  0  0  0  0  0  0
  139.2436   69.9274  222.3743 H   0  0  0  0  0  0  0  0  0  0  0  0
  139.2693   68.5045  224.4152 H   0  0  0  0  0  0  0  0  0  0  0  0
  140.6473   69.2001  228.8929 H   0  0  0  0  0  0  0  0  0  0  0  0
  141.4798   71.5434  228.9846 H   0  0  0  0  0  0  0  0  0  0  0  0
  141.4302   72.9386  226.8936 H   0  0  0  0  0  0  0  0  0  0  0  0
  1  2  2  0
  2  3  1  0
  3  4  1  0
  4  5  1  0
  5  6  2  0
  5  7  1  0
  7  8  1  0
  8  9  1  0
  9 10  1  0
 10 11  1  0
 11 12  1  0
 12 13  2  0
 13 14  1  0
 14 15  2  0
 15 16  1  0
 16 17  2  0
  2 18  1  0
 18 19  2  0
 19 20  1  0
 20 21  2  0
 21 22  1  0
 22 23  1  0
 22 24  2  0
 24 25  1  0
 25 26  2  0
 26 27  1  0
 27 28  2  0
 11  7  1  0
 17 12  1  0
 28 18  1  0
 27 21  1  0
  3 29  1  0
  4 30  1  0
  4 31  1  0
  8 32  1  0
  8 33  1  0
  9 34  1  0
  9 35  1  0
 10 36  1  0
 10 37  1  0
 11 38  1  6
 13 39  1  0
 14 40  1  0
 15 41  1  0
 16 42  1  0
 17 43  1  0
 19 44  1  0
 20 45  1  0
 24 46  1  0
 25 47  1  0
 26 48  1  0
M  END
>  <smiles>  (10) 
O=C(NCC(=O)N1CCC[C@H]1c1ccccc1)c1ccc2c(Cl)cccc2n1

>  <score_type>  (10) 
oracle

>  <origin>  (10) 
autodockgpu

>  <m_score__min__energy>  (10) 
-9.3100000000000005

>  <m_primary>  (10) 
energy

>  <rmsd>  (10) 
1.7119605723813933

>  <m_score__min__rmsd>  (10) 
1.7119605723813933

>  <meeko>  (10) 
{"free_energy": -8.9, "intermolecular_energy": -10.39, "internal_energy": -1.35, "cluster_size": 14, "cluster_id": 1, "rank_in_cluster": 11}

>  <energy>  (10) 
-8.96

>  <cluster_rmsd>  (10) 
0.52

>  <cluster>  (10) 
1

$$$$

     RDKit          3D

 48 51  0  0  0  0  0  0  0  0999 V2000
  140.9680   74.5660  220.9450 O   0  0  0  0  0  0  0  0  0  0  0  0
  140.1090   74.9750  221.7740 C   0  0  0  0  0  0  0  0  0  0  0  0
  139.1740   73.9760  222.2800 N   0  0  0  0  0  0  0  0  0  0  0  0
  139.3360   72.6650  221.7860 C   0  0  0  0  0  0  0  0  0  0  0  0
  139.8300   71.5960  222.5970 C   0  0  0  0  0  0  0  0  0  0  0  0
  141.1300   71.5990  222.7950 O   0  0  0  0  0  0  0  0  0  0  0  0
  139.2040   70.5060  223.2520 N   0  0  0  0  0  0  0  0  0  0  0  0
  139.1830   69.2010  222.5460 C   0  0  0  0  0  0  0  0  0  0  0  0
  138.6640   68.2340  223.5490 C   0  0  0  0  0  0  0  0  0  0  0  0
  137.7660   69.0600  224.4330 C   0  0  0  0  0  0  0  0  0  0  0  0
  138.5480   70.3630  224.5190 C   0  0  1  0  0  0  0  0  0  0  0  0
  139.4230   70.3970  225.6940 C   0  0  0  0  0  0  0  0  0  0  0  0
  139.4810   69.3920  226.6310 C   0  0  0  0  0  0  0  0  0  0  0  0
  140.3030   69.4460  227.7500 C   0  0  0  0  0  0  0  0  0  0  0  0
  141.1120   70.5340  227.9720 C   0  0  0  0  0  0  0  0  0  0  0  0
  141.0740   71.5570  227.0490 C   0  0  0  0  0  0  0  0  0  0  0  0
  140.2560   71.4980  225.9410 C   0  0  0  0  0  0  0  0  0  0  0  0
  140.0150   76.3490  222.2270 C   0  0  0  0  0  0  0  0  0  0  0  0
  138.7510   76.8710  222.4100 C   0  0  0  0  0  0  0  0  0  0  0  0
  138.6470   78.1690  222.8380 C   0  0  0  0  0  0  0  0  0  0  0  0
  139.7760   78.9070  223.0710 C   0  0  0  0  0  0  0  0  0  0  0  0
  139.7140   80.2280  223.5070 C   0  0  0  0  0  0  0  0  0  0  0  0
  138.1630   80.9810  223.7670 Cl  0  0  0  0  0  0  0  0  0  0  0  0
  140.8680   80.9560  223.7370 C   0  0  0  0  0  0  0  0  0  0  0  0
  142.1190   80.3920  223.5410 C   0  0  0  0  0  0  0  0  0  0  0  0
  142.1980   79.0680  223.1040 C   0  0  0  0  0  0  0  0  0  0  0  0
  141.0330   78.3680  222.8830 C   0  0  0  0  0  0  0  0  0  0  0  0
  141.1230   77.0820  222.4600 N   0  0  0  0  0  0  0  0  0  0  0  0
  138.4890   74.3550  222.9490 H   0  0  0  0  0  0  0  0  0  0  0  0
  138.3444   72.3470  221.4315 H   0  0  0  0  0  0  0  0  0  0  0  0
  140.1530   72.7955  221.0611 H   0  0  0  0  0  0  0  0  0  0  0  0
  138.5186   69.2449  221.6704 H   0  0  0  0  0  0  0  0  0  0  0  0
  140.1770   68.9162  222.1708 H   0  0  0  0  0  0  0  0  0  0  0  0
  138.0953   67.4307  223.0578 H   0  0  0  0  0  0  0  0  0  0  0  0
  139.4694   67.7402  224.1125 H   0  0  0  0  0  0  0  0  0  0  0  0
  136.7784   69.2127  223.9733 H   0  0  0  0  0  0  0  0  0  0  0  0
  137.5480   68.6005  225.4083 H   0  0  0  0  0  0  0  0  0  0  0  0
  137.9024   71.2382  224.6841 H   0  0  0  0  0  0  0  0  0  0  0  0
  138.8473   68.5043  226.4880 H   0  0  0  0  0  0  0  0  0  0  0  0
  140.3060   68.6099  228.4647 H   0  0  0  0  0  0  0  0  0  0  0  0
  141.7665   70.5868  228.8545 H   0  0  0  0  0  0  0  0  0  0  0  0
  141.7111   72.4409  227.2000 H   0  0  0  0  0  0  0  0  0  0  0  0
  140.2566   72.3379  225.2307 H   0  0  0  0  0  0  0  0  0  0  0  0
  137.8540   76.2639  222.2182 H   0  0  0  0  0  0  0  0  0  0  0  0
  137.6551   78.6181  222.9944 H   0  0  0  0  0  0  0  0  0  0  0  0
  140.7915   81.9982  224.0806 H   0  0  0  0  0  0  0  0  0  0  0  0
  143.0324   80.9764  223.7262 H   0  0  0  0  0  0  0  0  0  0  0  0
  143.1757   78.5917  222.9389 H   0  0  0  0  0  0  0  0  0  0  0  0
  1  2  2  0
  2  3  1  0
  3  4  1  0
  4  5  1  0
  5  6  2  0
  5  7  1  0
  7  8  1  0
  8  9  1  0
  9 10  1  0
 10 11  1  0
 11 12  1  0
 12 13  2  0
 13 14  1  0
 14 15  2  0
 15 16  1  0
 16 17  2  0
  2 18  1  0
 18 19  2  0
 19 20  1  0
 20 21  2  0
 21 22  1  0
 22 23  1  0
 22 24  2  0
 24 25  1  0
 25 26  2  0
 26 27  1  0
 27 28  2  0
 11  7  1  0
 17 12  1  0
 28 18  1  0
 27 21  1  0
  3 29  1  0
  4 30  1  0
  4 31  1  0
  8 32  1  0
  8 33  1  0
  9 34  1  0
  9 35  1  0
 10 36  1  0
 10 37  1  0
 11 38  1  1
 13 39  1  0
 14 40  1  0
 15 41  1  0
 16 42  1  0
 17 43  1  0
 19 44  1  0
 20 45  1  0
 24 46  1  0
 25 47  1  0
 26 48  1  0
M  END
>  <smiles>  (11) 
O=C(NCC(=O)N1CCC[C@H]1c1ccccc1)c1ccc2c(Cl)cccc2n1

>  <score_type>  (11) 
oracle

>  <origin>  (11) 
autodockgpu

>  <m_score__min__energy>  (11) 
-9.3100000000000005

>  <m_primary>  (11) 
energy

>  <rmsd>  (11) 
8.104158673836416

>  <m_score__min__rmsd>  (11) 
8.104158673836416

>  <meeko>  (11) 
{"free_energy": -9.02, "intermolecular_energy": -10.51, "internal_energy": -1.16, "cluster_size": 24, "cluster_id": 3, "rank_in_cluster": 7}

>  <energy>  (11) 
-8.9

>  <cluster_rmsd>  (11) 
0.48

>  <cluster>  (11) 
1

$$$$

     RDKit          3D

 48 51  0  0  0  0  0  0  0  0999 V2000
  141.2180   72.5490  221.6030 O   0  0  0  0  0  0  0  0  0  0  0  0
  140.3120   72.5710  222.4810 C   0  0  0  0  0  0  0  0  0  0  0  0
  139.2940   73.6050  222.3340 N   0  0  0  0  0  0  0  0  0  0  0  0
  139.4370   74.4650  221.2250 C   0  0  0  0  0  0  0  0  0  0  0  0
  140.3930   75.5280  221.1980 C   0  0  0  0  0  0  0  0  0  0  0  0
  141.4390   75.3600  221.9780 O   0  0  0  0  0  0  0  0  0  0  0  0
  140.4590   76.7560  220.4920 N   0  0  0  0  0  0  0  0  0  0  0  0
  139.2800   77.1450  219.6800 C   0  0  0  0  0  0  0  0  0  0  0  0
  139.5590   78.5390  219.2470 C   0  0  0  0  0  0  0  0  0  0  0  0
  141.0620   78.6120  219.1710 C   0  0  0  0  0  0  0  0  0  0  0  0
  141.4620   77.7730  220.3770 C   0  0  1  0  0  0  0  0  0  0  0  0
  141.6690   78.5980  221.5710 C   0  0  0  0  0  0  0  0  0  0  0  0
  141.3940   78.1740  222.8500 C   0  0  0  0  0  0  0  0  0  0  0  0
  141.5780   78.9730  223.9700 C   0  0  0  0  0  0  0  0  0  0  0  0
  142.0570   80.2550  223.8440 C   0  0  0  0  0  0  0  0  0  0  0  0
  142.3420   80.7070  222.5740 C   0  0  0  0  0  0  0  0  0  0  0  0
  142.1560   79.9090  221.4660 C   0  0  0  0  0  0  0  0  0  0  0  0
  140.2430   71.6420  223.5930 C   0  0  0  0  0  0  0  0  0  0  0  0
  139.7070   70.3960  223.3460 C   0  0  0  0  0  0  0  0  0  0  0  0
  139.6360   69.5080  224.3880 C   0  0  0  0  0  0  0  0  0  0  0  0
  140.0890   69.8690  225.6290 C   0  0  0  0  0  0  0  0  0  0  0  0
  140.0350   68.9970  226.7130 C   0  0  0  0  0  0  0  0  0  0  0  0
  139.3750   67.3970  226.5050 Cl  0  0  0  0  0  0  0  0  0  0  0  0
  140.4990   69.3810  227.9580 C   0  0  0  0  0  0  0  0  0  0  0  0
  141.0320   70.6450  228.1640 C   0  0  0  0  0  0  0  0  0  0  0  0
  141.0930   71.5310  227.0860 C   0  0  0  0  0  0  0  0  0  0  0  0
  140.6230   71.1210  225.8580 C   0  0  0  0  0  0  0  0  0  0  0  0
  140.6890   71.9910  224.8180 N   0  0  0  0  0  0  0  0  0  0  0  0
  138.5790   73.5880  223.0740 H   0  0  0  0  0  0  0  0  0  0  0  0
  139.6726   73.8198  220.3658 H   0  0  0  0  0  0  0  0  0  0  0  0
  138.4854   75.0165  221.2418 H   0  0  0  0  0  0  0  0  0  0  0  0
  139.1745   76.4825  218.8083 H   0  0  0  0  0  0  0  0  0  0  0  0
  138.3412   77.0672  220.2480 H   0  0  0  0  0  0  0  0  0  0  0  0
  139.1090   78.7388  218.2633 H   0  0  0  0  0  0  0  0  0  0  0  0
  139.1365   79.2853  219.9358 H   0  0  0  0  0  0  0  0  0  0  0  0
  141.4396   78.1764  218.2342 H   0  0  0  0  0  0  0  0  0  0  0  0
  141.4646   79.6356  219.1805 H   0  0  0  0  0  0  0  0  0  0  0  0
  142.4429   77.2905  220.2544 H   0  0  0  0  0  0  0  0  0  0  0  0
  141.0099   77.1531  222.9922 H   0  0  0  0  0  0  0  0  0  0  0  0
  141.3382   78.5765  224.9676 H   0  0  0  0  0  0  0  0  0  0  0  0
  142.2073   80.8967  224.7247 H   0  0  0  0  0  0  0  0  0  0  0  0
  142.7270   81.7288  222.4414 H   0  0  0  0  0  0  0  0  0  0  0  0
  142.3963   80.3117  220.4710 H   0  0  0  0  0  0  0  0  0  0  0  0
  139.3472   70.1227  222.3431 H   0  0  0  0  0  0  0  0  0  0  0  0
  139.2148   68.5046  224.2272 H   0  0  0  0  0  0  0  0  0  0  0  0
  140.4445   68.6730  228.7981 H   0  0  0  0  0  0  0  0  0  0  0  0
  141.3994   70.9437  229.1569 H   0  0  0  0  0  0  0  0  0  0  0  0
  141.5100   72.5406  227.2157 H   0  0  0  0  0  0  0  0  0  0  0  0
  1  2  2  0
  2  3  1  0
  3  4  1  0
  4  5  1  0
  5  6  2  0
  5  7  1  0
  7  8  1  0
  8  9  1  0
  9 10  1  0
 10 11  1  0
 11 12  1  0
 12 13  2  0
 13 14  1  0
 14 15  2  0
 15 16  1  0
 16 17  2  0
  2 18  1  0
 18 19  2  0
 19 20  1  0
 20 21  2  0
 21 22  1  0
 22 23  1  0
 22 24  2  0
 24 25  1  0
 25 26  2  0
 26 27  1  0
 27 28  2  0
 11  7  1  0
 17 12  1  0
 28 18  1  0
 27 21  1  0
  3 29  1  0
  4 30  1  0
  4 31  1  0
  8 32  1  0
  8 33  1  0
  9 34  1  0
  9 35  1  0
 10 36  1  0
 10 37  1  0
 11 38  1  6
 13 39  1  0
 14 40  1  0
 15 41  1  0
 16 42  1  0
 17 43  1  0
 19 44  1  0
 20 45  1  0
 24 46  1  0
 25 47  1  0
 26 48  1  0
M  END
>  <smiles>  (12) 
O=C(NCC(=O)N1CCC[C@H]1c1ccccc1)c1ccc2c(Cl)cccc2n1

>  <score_type>  (12) 
oracle

>  <origin>  (12) 
autodockgpu

>  <m_score__min__energy>  (12) 
-9.3100000000000005

>  <m_primary>  (12) 
energy

>  <rmsd>  (12) 
1.6654031577882602

>  <m_score__min__rmsd>  (12) 
1.6654031577882602

>  <meeko>  (12) 
{"free_energy": -9.31, "intermolecular_energy": -10.8, "internal_energy": -1.17, "cluster_size": 14, "cluster_id": 1, "rank_in_cluster": 1}

>  <energy>  (12) 
-8.87

>  <cluster_rmsd>  (12) 
0.56

>  <cluster>  (12) 
1

$$$$

     RDKit          3D

 48 51  0  0  0  0  0  0  0  0999 V2000
  141.2420   72.7050  221.6870 O   0  0  0  0  0  0  0  0  0  0  0  0
  140.2860   72.6210  222.5060 C   0  0  0  0  0  0  0  0  0  0  0  0
  139.1740   73.5400  222.2970 N   0  0  0  0  0  0  0  0  0  0  0  0
  139.2920   74.4210  221.2010 C   0  0  0  0  0  0  0  0  0  0  0  0
  139.5560   75.8160  221.3650 C   0  0  0  0  0  0  0  0  0  0  0  0
  138.9360   76.3880  222.3740 O   0  0  0  0  0  0  0  0  0  0  0  0
  140.3640   76.7400  220.6560 N   0  0  0  0  0  0  0  0  0  0  0  0
  139.9360   77.1160  219.2860 C   0  0  0  0  0  0  0  0  0  0  0  0
  140.8410   78.2290  218.8960 C   0  0  0  0  0  0  0  0  0  0  0  0
  142.1160   77.9550  219.6510 C   0  0  0  0  0  0  0  0  0  0  0  0
  141.5730   77.4410  220.9770 C   0  0  1  0  0  0  0  0  0  0  0  0
  141.4390   78.5160  221.9650 C   0  0  0  0  0  0  0  0  0  0  0  0
  140.2430   78.8850  222.5340 C   0  0  0  0  0  0  0  0  0  0  0  0
  140.1290   79.9180  223.4550 C   0  0  0  0  0  0  0  0  0  0  0  0
  141.2360   80.6310  223.8470 C   0  0  0  0  0  0  0  0  0  0  0  0
  142.4480   80.2830  223.2940 C   0  0  0  0  0  0  0  0  0  0  0  0
  142.5550   79.2580  222.3790 C   0  0  0  0  0  0  0  0  0  0  0  0
  140.2490   71.6800  223.6090 C   0  0  0  0  0  0  0  0  0  0  0  0
  139.7660   70.4150  223.3480 C   0  0  0  0  0  0  0  0  0  0  0  0
  139.7260   69.5160  224.3820 C   0  0  0  0  0  0  0  0  0  0  0  0
  140.1570   69.8830  225.6280 C   0  0  0  0  0  0  0  0  0  0  0  0
  140.1320   69.0000  226.7040 C   0  0  0  0  0  0  0  0  0  0  0  0
  139.5390   67.3770  226.4780 Cl  0  0  0  0  0  0  0  0  0  0  0  0
  140.5730   69.3920  227.9560 C   0  0  0  0  0  0  0  0  0  0  0  0
  141.0510   70.6740  228.1750 C   0  0  0  0  0  0  0  0  0  0  0  0
  141.0820   71.5720  227.1060 C   0  0  0  0  0  0  0  0  0  0  0  0
  140.6370   71.1540  225.8710 C   0  0  0  0  0  0  0  0  0  0  0  0
  140.6730   72.0360  224.8400 N   0  0  0  0  0  0  0  0  0  0  0  0
  138.4200   73.4390  222.9910 H   0  0  0  0  0  0  0  0  0  0  0  0
  140.1079   74.0264  220.5777 H   0  0  0  0  0  0  0  0  0  0  0  0
  138.2656   74.4295  220.8055 H   0  0  0  0  0  0  0  0  0  0  0  0
  140.0494   76.2654  218.5977 H   0  0  0  0  0  0  0  0  0  0  0  0
  138.8768   77.4103  219.2486 H   0  0  0  0  0  0  0  0  0  0  0  0
  141.0217   78.2222  217.8110 H   0  0  0  0  0  0  0  0  0  0  0  0
  140.4176   79.2166  219.1311 H   0  0  0  0  0  0  0  0  0  0  0  0
  142.7283   77.1943  219.1446 H   0  0  0  0  0  0  0  0  0  0  0  0
  142.7806   78.8266  219.7439 H   0  0  0  0  0  0  0  0  0  0  0  0
  142.2625   76.7466  221.4794 H   0  0  0  0  0  0  0  0  0  0  0  0
  139.3340   78.3364  222.2462 H   0  0  0  0  0  0  0  0  0  0  0  0
  139.1433   80.1677  223.8746 H   0  0  0  0  0  0  0  0  0  0  0  0
  141.1569   81.4505  224.5765 H   0  0  0  0  0  0  0  0  0  0  0  0
  143.3519   80.8360  223.5894 H   0  0  0  0  0  0  0  0  0  0  0  0
  143.5433   79.0150  221.9616 H   0  0  0  0  0  0  0  0  0  0  0  0
  139.4233   70.1359  222.3407 H   0  0  0  0  0  0  0  0  0  0  0  0
  139.3468   68.4978  224.2100 H   0  0  0  0  0  0  0  0  0  0  0  0
  140.5436   68.6750  228.7897 H   0  0  0  0  0  0  0  0  0  0  0  0
  141.3997   70.9788  229.1727 H   0  0  0  0  0  0  0  0  0  0  0  0
  141.4558   72.5968  227.2478 H   0  0  0  0  0  0  0  0  0  0  0  0
  1  2  2  0
  2  3  1  0
  3  4  1  0
  4  5  1  0
  5  6  2  0
  5  7  1  0
  7  8  1  0
  8  9  1  0
  9 10  1  0
 10 11  1  0
 11 12  1  0
 12 13  2  0
 13 14  1  0
 14 15  2  0
 15 16  1  0
 16 17  2  0
  2 18  1  0
 18 19  2  0
 19 20  1  0
 20 21  2  0
 21 22  1  0
 22 23  1  0
 22 24  2  0
 24 25  1  0
 25 26  2  0
 26 27  1  0
 27 28  2  0
 11  7  1  0
 17 12  1  0
 28 18  1  0
 27 21  1  0
  3 29  1  0
  4 30  1  0
  4 31  1  0
  8 32  1  0
  8 33  1  0
  9 34  1  0
  9 35  1  0
 10 36  1  0
 10 37  1  0
 11 38  1  1
 13 39  1  0
 14 40  1  0
 15 41  1  0
 16 42  1  0
 17 43  1  0
 19 44  1  0
 20 45  1  0
 24 46  1  0
 25 47  1  0
 26 48  1  0
M  END
>  <smiles>  (13) 
O=C(NCC(=O)N1CCC[C@H]1c1ccccc1)c1ccc2c(Cl)cccc2n1

>  <score_type>  (13) 
oracle

>  <origin>  (13) 
autodockgpu

>  <m_score__min__energy>  (13) 
-9.3100000000000005

>  <m_primary>  (13) 
energy

>  <rmsd>  (13) 
1.7089706255315888

>  <m_score__min__rmsd>  (13) 
1.7089706255315888

>  <meeko>  (13) 
{"free_energy": -9.08, "intermolecular_energy": -10.57, "internal_energy": -1.17, "cluster_size": 14, "cluster_id": 1, "rank_in_cluster": 6}

>  <energy>  (13) 
-8.61

>  <cluster_rmsd>  (13) 
1.54

>  <cluster>  (13) 
1

$$$$

     RDKit          3D

 48 51  0  0  0  0  0  0  0  0999 V2000
  141.1250   73.8410  220.4240 O   0  0  0  0  0  0  0  0  0  0  0  0
  140.6560   74.6110  221.3070 C   0  0  0  0  0  0  0  0  0  0  0  0
  139.8130   73.9910  222.3230 N   0  0  0  0  0  0  0  0  0  0  0  0
  139.6170   72.5990  222.2040 C   0  0  0  0  0  0  0  0  0  0  0  0
  139.7660   71.7070  223.3110 C   0  0  0  0  0  0  0  0  0  0  0  0
  140.7050   72.0360  224.1710 O   0  0  0  0  0  0  0  0  0  0  0  0
  139.1020   70.5140  223.6920 N   0  0  0  0  0  0  0  0  0  0  0  0
  139.0080   69.4290  222.6850 C   0  0  0  0  0  0  0  0  0  0  0  0
  138.4630   68.2640  223.4300 C   0  0  0  0  0  0  0  0  0  0  0  0
  137.6190   68.8780  224.5170 C   0  0  0  0  0  0  0  0  0  0  0  0
  138.4620   70.0860  224.9020 C   0  0  1  0  0  0  0  0  0  0  0  0
  139.3590   69.7900  226.0230 C   0  0  0  0  0  0  0  0  0  0  0  0
  139.6210   68.5180  226.4750 C   0  0  0  0  0  0  0  0  0  0  0  0
  140.4590   68.2540  227.5510 C   0  0  0  0  0  0  0  0  0  0  0  0
  141.0770   69.2800  228.2250 C   0  0  0  0  0  0  0  0  0  0  0  0
  140.8330   70.5650  227.7940 C   0  0  0  0  0  0  0  0  0  0  0  0
  139.9990   70.8210  226.7260 C   0  0  0  0  0  0  0  0  0  0  0  0
  140.9110   76.0380  221.3510 C   0  0  0  0  0  0  0  0  0  0  0  0
  140.9900   76.7050  220.1470 C   0  0  0  0  0  0  0  0  0  0  0  0
  141.2310   78.0540  220.1740 C   0  0  0  0  0  0  0  0  0  0  0  0
  141.3850   78.7000  221.3710 C   0  0  0  0  0  0  0  0  0  0  0  0
  141.6310   80.0690  221.4410 C   0  0  0  0  0  0  0  0  0  0  0  0
  141.7490   81.0030  219.9740 Cl  0  0  0  0  0  0  0  0  0  0  0  0
  141.7830   80.7020  222.6620 C   0  0  0  0  0  0  0  0  0  0  0  0
  141.6960   79.9930  223.8500 C   0  0  0  0  0  0  0  0  0  0  0  0
  141.4500   78.6200  223.7960 C   0  0  0  0  0  0  0  0  0  0  0  0
  141.3030   78.0160  222.5670 C   0  0  0  0  0  0  0  0  0  0  0  0
  141.0640   76.6810  222.5280 N   0  0  0  0  0  0  0  0  0  0  0  0
  139.4490   74.6570  223.0190 H   0  0  0  0  0  0  0  0  0  0  0  0
  138.5878   72.4650  221.8395 H   0  0  0  0  0  0  0  0  0  0  0  0
  140.4604   72.3056  221.5616 H   0  0  0  0  0  0  0  0  0  0  0  0
  138.3308   69.7171  221.8674 H   0  0  0  0  0  0  0  0  0  0  0  0
  139.9810   69.2071  222.2224 H   0  0  0  0  0  0  0  0  0  0  0  0
  137.8497   67.6322  222.7706 H   0  0  0  0  0  0  0  0  0  0  0  0
  139.2548   67.6135  223.8299 H   0  0  0  0  0  0  0  0  0  0  0  0
  136.6316   69.1802  224.1380 H   0  0  0  0  0  0  0  0  0  0  0  0
  137.3968   68.1986  225.3531 H   0  0  0  0  0  0  0  0  0  0  0  0
  137.8602   70.9174  225.2978 H   0  0  0  0  0  0  0  0  0  0  0  0
  139.1449   67.6702  225.9607 H   0  0  0  0  0  0  0  0  0  0  0  0
  140.6295   67.2141  227.8665 H   0  0  0  0  0  0  0  0  0  0  0  0
  141.7426   69.0819  229.0781 H   0  0  0  0  0  0  0  0  0  0  0  0
  141.3144   71.4066  228.3136 H   0  0  0  0  0  0  0  0  0  0  0  0
  139.8310   71.8632  226.4168 H   0  0  0  0  0  0  0  0  0  0  0  0
  140.8635   76.1708  219.1938 H   0  0  0  0  0  0  0  0  0  0  0  0
  141.3008   78.6184  219.2324 H   0  0  0  0  0  0  0  0  0  0  0  0
  141.9759   81.7846  222.6904 H   0  0  0  0  0  0  0  0  0  0  0  0
  141.8185   80.5027  224.8170 H   0  0  0  0  0  0  0  0  0  0  0  0
  141.3747   78.0294  224.7210 H   0  0  0  0  0  0  0  0  0  0  0  0
  1  2  2  0
  2  3  1  0
  3  4  1  0
  4  5  1  0
  5  6  2  0
  5  7  1  0
  7  8  1  0
  8  9  1  0
  9 10  1  0
 10 11  1  0
 11 12  1  0
 12 13  2  0
 13 14  1  0
 14 15  2  0
 15 16  1  0
 16 17  2  0
  2 18  1  0
 18 19  2  0
 19 20  1  0
 20 21  2  0
 21 22  1  0
 22 23  1  0
 22 24  2  0
 24 25  1  0
 25 26  2  0
 26 27  1  0
 27 28  2  0
 11  7  1  0
 17 12  1  0
 28 18  1  0
 27 21  1  0
  3 29  1  0
  4 30  1  0
  4 31  1  0
  8 32  1  0
  8 33  1  0
  9 34  1  0
  9 35  1  0
 10 36  1  0
 10 37  1  0
 11 38  1  1
 13 39  1  0
 14 40  1  0
 15 41  1  0
 16 42  1  0
 17 43  1  0
 19 44  1  0
 20 45  1  0
 24 46  1  0
 25 47  1  0
 26 48  1  0
M  END
>  <smiles>  (14) 
O=C(NCC(=O)N1CCC[C@H]1c1ccccc1)c1ccc2c(Cl)cccc2n1

>  <score_type>  (14) 
oracle

>  <origin>  (14) 
autodockgpu

>  <m_score__min__energy>  (14) 
-9.3100000000000005

>  <m_primary>  (14) 
energy

>  <rmsd>  (14) 
8.229138184843046

>  <m_score__min__rmsd>  (14) 
8.229138184843046

>  <meeko>  (14) 
{"free_energy": -8.69, "intermolecular_energy": -10.19, "internal_energy": -1.29, "cluster_size": 24, "cluster_id": 3, "rank_in_cluster": 20}

>  <energy>  (14) 
-8.46

>  <cluster_rmsd>  (14) 
1.91

>  <cluster>  (14) 
1

$$$$

     RDKit          3D

 48 51  0  0  0  0  0  0  0  0999 V2000
  141.4370   72.6800  221.9030 O   0  0  0  0  0  0  0  0  0  0  0  0
  140.4050   72.5630  222.6190 C   0  0  0  0  0  0  0  0  0  0  0  0
  139.2810   73.4280  222.2780 N   0  0  0  0  0  0  0  0  0  0  0  0
  139.4740   74.2990  221.1850 C   0  0  0  0  0  0  0  0  0  0  0  0
  140.4950   75.2990  221.1740 C   0  0  0  0  0  0  0  0  0  0  0  0
  140.6270   75.9760  222.2940 O   0  0  0  0  0  0  0  0  0  0  0  0
  141.4210   75.7280  220.1910 N   0  0  0  0  0  0  0  0  0  0  0  0
  141.6570   77.1870  220.0600 C   0  0  0  0  0  0  0  0  0  0  0  0
  142.8030   77.3050  219.1210 C   0  0  0  0  0  0  0  0  0  0  0  0
  142.6870   76.0910  218.2360 C   0  0  0  0  0  0  0  0  0  0  0  0
  142.2370   75.0350  219.2360 C   0  0  1  0  0  0  0  0  0  0  0  0
  143.3710   74.2910  219.7910 C   0  0  0  0  0  0  0  0  0  0  0  0
  144.4860   74.8890  220.3300 C   0  0  0  0  0  0  0  0  0  0  0  0
  145.5610   74.1710  220.8360 C   0  0  0  0  0  0  0  0  0  0  0  0
  145.5540   72.7970  220.8210 C   0  0  0  0  0  0  0  0  0  0  0  0
  144.4500   72.1700  220.2880 C   0  0  0  0  0  0  0  0  0  0  0  0
  143.3860   72.8890  219.7860 C   0  0  0  0  0  0  0  0  0  0  0  0
  140.2940   71.6360  223.7280 C   0  0  0  0  0  0  0  0  0  0  0  0
  139.7320   70.4030  223.4700 C   0  0  0  0  0  0  0  0  0  0  0  0
  139.6200   69.5170  224.5110 C   0  0  0  0  0  0  0  0  0  0  0  0
  140.0600   69.8660  225.7590 C   0  0  0  0  0  0  0  0  0  0  0  0
  139.9650   68.9950  226.8420 C   0  0  0  0  0  0  0  0  0  0  0  0
  139.2700   67.4120  226.6210 Cl  0  0  0  0  0  0  0  0  0  0  0  0
  140.4160   69.3680  228.0960 C   0  0  0  0  0  0  0  0  0  0  0  0
  140.9760   70.6180  228.3110 C   0  0  0  0  0  0  0  0  0  0  0  0
  141.0780   71.5020  227.2360 C   0  0  0  0  0  0  0  0  0  0  0  0
  140.6200   71.1050  225.9990 C   0  0  0  0  0  0  0  0  0  0  0  0
  140.7260   71.9730  224.9610 N   0  0  0  0  0  0  0  0  0  0  0  0
  138.4630   73.3010  222.8910 H   0  0  0  0  0  0  0  0  0  0  0  0
  139.6648   73.6572  220.3122 H   0  0  0  0  0  0  0  0  0  0  0  0
  138.5593   74.9092  221.2172 H   0  0  0  0  0  0  0  0  0  0  0  0
  140.7675   77.6879  219.6502 H   0  0  0  0  0  0  0  0  0  0  0  0
  141.8652   77.6620  221.0300 H   0  0  0  0  0  0  0  0  0  0  0  0
  142.7270   78.2282  218.5278 H   0  0  0  0  0  0  0  0  0  0  0  0
  143.7701   77.3533  219.6428 H   0  0  0  0  0  0  0  0  0  0  0  0
  141.9386   76.2402  217.4437 H   0  0  0  0  0  0  0  0  0  0  0  0
  143.6115   75.8363  217.6971 H   0  0  0  0  0  0  0  0  0  0  0  0
  141.6391   74.2360  218.7732 H   0  0  0  0  0  0  0  0  0  0  0  0
  144.5280   75.9877  220.3617 H   0  0  0  0  0  0  0  0  0  0  0  0
  146.4265   74.7070  221.2528 H   0  0  0  0  0  0  0  0  0  0  0  0
  146.4001   72.2186  221.2205 H   0  0  0  0  0  0  0  0  0  0  0  0
  144.4162   71.0708  220.2621 H   0  0  0  0  0  0  0  0  0  0  0  0
  142.5241   72.3471  219.3696 H   0  0  0  0  0  0  0  0  0  0  0  0
  139.3843   70.1385  222.4605 H   0  0  0  0  0  0  0  0  0  0  0  0
  139.1760   68.5248  224.3426 H   0  0  0  0  0  0  0  0  0  0  0  0
  140.3289   68.6620  228.9350 H   0  0  0  0  0  0  0  0  0  0  0  0
  141.3332   70.9075  229.3103 H   0  0  0  0  0  0  0  0  0  0  0  0
  141.5175   72.5008  227.3744 H   0  0  0  0  0  0  0  0  0  0  0  0
  1  2  2  0
  2  3  1  0
  3  4  1  0
  4  5  1  0
  5  6  2  0
  5  7  1  0
  7  8  1  0
  8  9  1  0
  9 10  1  0
 10 11  1  0
 11 12  1  0
 12 13  2  0
 13 14  1  0
 14 15  2  0
 15 16  1  0
 16 17  2  0
  2 18  1  0
 18 19  2  0
 19 20  1  0
 20 21  2  0
 21 22  1  0
 22 23  1  0
 22 24  2  0
 24 25  1  0
 25 26  2  0
 26 27  1  0
 27 28  2  0
 11  7  1  0
 17 12  1  0
 28 18  1  0
 27 21  1  0
  3 29  1  0
  4 30  1  0
  4 31  1  0
  8 32  1  0
  8 33  1  0
  9 34  1  0
  9 35  1  0
 10 36  1  0
 10 37  1  0
 11 38  1  6
 13 39  1  0
 14 40  1  0
 15 41  1  0
 16 42  1  0
 17 43  1  0
 19 44  1  0
 20 45  1  0
 24 46  1  0
 25 47  1  0
 26 48  1  0
M  END
>  <smiles>  (15) 
O=C(NCC(=O)N1CCC[C@H]1c1ccccc1)c1ccc2c(Cl)cccc2n1

>  <score_type>  (15) 
oracle

>  <origin>  (15) 
autodockgpu

>  <m_score__min__energy>  (15) 
-9.3100000000000005

>  <m_primary>  (15) 
energy

>  <rmsd>  (15) 
2.2164387655297326

>  <m_score__min__rmsd>  (15) 
2.2164387655297326

>  <meeko>  (15) 
{"free_energy": -9.11, "intermolecular_energy": -10.6, "internal_energy": -1.48, "cluster_size": 4, "cluster_id": 2, "rank_in_cluster": 2}

>  <energy>  (15) 
-9.14

>  <cluster_rmsd>  (15) 
0.0

>  <cluster>  (15) 
2

$$$$

     RDKit          3D

 48 51  0  0  0  0  0  0  0  0999 V2000
  141.2930   72.1170  221.4330 O   0  0  0  0  0  0  0  0  0  0  0  0
  140.5040   72.3620  222.3870 C   0  0  0  0  0  0  0  0  0  0  0  0
  139.7350   73.5980  222.2880 N   0  0  0  0  0  0  0  0  0  0  0  0
  139.9600   74.3800  221.1360 C   0  0  0  0  0  0  0  0  0  0  0  0
  140.2230   75.7840  221.2020 C   0  0  0  0  0  0  0  0  0  0  0  0
  141.4470   76.1390  220.8770 O   0  0  0  0  0  0  0  0  0  0  0  0
  139.4280   76.9040  221.5500 N   0  0  0  0  0  0  0  0  0  0  0  0
  138.2040   76.6550  222.3510 C   0  0  0  0  0  0  0  0  0  0  0  0
  137.7150   78.0080  222.7280 C   0  0  0  0  0  0  0  0  0  0  0  0
  138.1710   78.8970  221.6020 C   0  0  0  0  0  0  0  0  0  0  0  0
  139.5420   78.3110  221.2950 C   0  0  1  0  0  0  0  0  0  0  0  0
  140.6080   79.0040  222.0250 C   0  0  0  0  0  0  0  0  0  0  0  0
  141.1370   80.2130  221.6370 C   0  0  0  0  0  0  0  0  0  0  0  0
  142.1580   80.8490  222.3290 C   0  0  0  0  0  0  0  0  0  0  0  0
  142.6970   80.2830  223.4600 C   0  0  0  0  0  0  0  0  0  0  0  0
  142.1860   79.0720  223.8720 C   0  0  0  0  0  0  0  0  0  0  0  0
  141.1720   78.4440  223.1800 C   0  0  0  0  0  0  0  0  0  0  0  0
  140.3370   71.4970  223.5380 C   0  0  0  0  0  0  0  0  0  0  0  0
  139.8130   70.2410  223.3160 C   0  0  0  0  0  0  0  0  0  0  0  0
  139.6490   69.4120  224.3960 C   0  0  0  0  0  0  0  0  0  0  0  0
  140.0030   69.8380  225.6480 C   0  0  0  0  0  0  0  0  0  0  0  0
  139.8530   69.0280  226.7700 C   0  0  0  0  0  0  0  0  0  0  0  0
  139.1980   67.4210  226.5960 Cl  0  0  0  0  0  0  0  0  0  0  0  0
  140.2160   69.4780  228.0260 C   0  0  0  0  0  0  0  0  0  0  0  0
  140.7400   70.7490  228.2050 C   0  0  0  0  0  0  0  0  0  0  0  0
  140.8970   71.5740  227.0900 C   0  0  0  0  0  0  0  0  0  0  0  0
  140.5260   71.0990  225.8510 C   0  0  0  0  0  0  0  0  0  0  0  0
  140.6840   71.9110  224.7750 N   0  0  0  0  0  0  0  0  0  0  0  0
  139.1090   73.7590  223.0900 H   0  0  0  0  0  0  0  0  0  0  0  0
  140.8244   73.9306  220.6252 H   0  0  0  0  0  0  0  0  0  0  0  0
  138.9732   74.3571  220.6505 H   0  0  0  0  0  0  0  0  0  0  0  0
  137.4501   76.1236  221.7516 H   0  0  0  0  0  0  0  0  0  0  0  0
  138.4043   76.0258  223.2308 H   0  0  0  0  0  0  0  0  0  0  0  0
  136.6182   78.0165  222.8111 H   0  0  0  0  0  0  0  0  0  0  0  0
  138.1004   78.3365  223.7045 H   0  0  0  0  0  0  0  0  0  0  0  0
  137.4988   78.8246  220.7343 H   0  0  0  0  0  0  0  0  0  0  0  0
  138.1848   79.9683  221.8514 H   0  0  0  0  0  0  0  0  0  0  0  0
  139.8441   78.4581  220.2476 H   0  0  0  0  0  0  0  0  0  0  0  0
  140.7320   80.6981  220.7366 H   0  0  0  0  0  0  0  0  0  0  0  0
  142.5399   81.8157  221.9690 H   0  0  0  0  0  0  0  0  0  0  0  0
  143.5066   80.7790  224.0155 H   0  0  0  0  0  0  0  0  0  0  0  0
  142.5964   78.5947  224.7741 H   0  0  0  0  0  0  0  0  0  0  0  0
  140.7952   77.4769  223.5442 H   0  0  0  0  0  0  0  0  0  0  0  0
  139.5350   69.9139  222.3032 H   0  0  0  0  0  0  0  0  0  0  0  0
  139.2325   68.4035  224.2562 H   0  0  0  0  0  0  0  0  0  0  0  0
  140.0871   68.8176  228.8962 H   0  0  0  0  0  0  0  0  0  0  0  0
  141.0267   71.1008  229.2070 H   0  0  0  0  0  0  0  0  0  0  0  0
  141.3105   72.5875  227.1988 H   0  0  0  0  0  0  0  0  0  0  0  0
  1  2  2  0
  2  3  1  0
  3  4  1  0
  4  5  1  0
  5  6  2  0
  5  7  1  0
  7  8  1  0
  8  9  1  0
  9 10  1  0
 10 11  1  0
 11 12  1  0
 12 13  2  0
 13 14  1  0
 14 15  2  0
 15 16  1  0
 16 17  2  0
  2 18  1  0
 18 19  2  0
 19 20  1  0
 20 21  2  0
 21 22  1  0
 22 23  1  0
 22 24  2  0
 24 25  1  0
 25 26  2  0
 26 27  1  0
 27 28  2  0
 11  7  1  0
 17 12  1  0
 28 18  1  0
 27 21  1  0
  3 29  1  0
  4 30  1  0
  4 31  1  0
  8 32  1  0
  8 33  1  0
  9 34  1  0
  9 35  1  0
 10 36  1  0
 10 37  1  0
 11 38  1  6
 13 39  1  0
 14 40  1  0
 15 41  1  0
 16 42  1  0
 17 43  1  0
 19 44  1  0
 20 45  1  0
 24 46  1  0
 25 47  1  0
 26 48  1  0
M  END
>  <smiles>  (16) 
O=C(NCC(=O)N1CCC[C@H]1c1ccccc1)c1ccc2c(Cl)cccc2n1

>  <score_type>  (16) 
oracle

>  <origin>  (16) 
autodockgpu

>  <m_score__min__energy>  (16) 
-9.3100000000000005

>  <m_primary>  (16) 
energy

>  <rmsd>  (16) 
2.8639003716594993

>  <m_score__min__rmsd>  (16) 
2.8639003716594993

>  <meeko>  (16) 
{"free_energy": -9.09, "intermolecular_energy": -10.58, "internal_energy": -1.23, "cluster_size": 14, "cluster_id": 1, "rank_in_cluster": 4}

>  <energy>  (16) 
-9.11

>  <cluster_rmsd>  (16) 
0.33

>  <cluster>  (16) 
2

$$$$

     RDKit          3D

 48 51  0  0  0  0  0  0  0  0999 V2000
  140.1980   70.3800  222.1730 O   0  0  0  0  0  0  0  0  0  0  0  0
  139.5860   71.4780  222.2810 C   0  0  0  0  0  0  0  0  0  0  0  0
  138.2390   71.4150  222.8350 N   0  0  0  0  0  0  0  0  0  0  0  0
  137.7710   70.1320  223.1890 C   0  0  0  0  0  0  0  0  0  0  0  0
  137.7090   69.6870  224.5460 C   0  0  0  0  0  0  0  0  0  0  0  0
  136.6090   70.0090  225.1910 O   0  0  0  0  0  0  0  0  0  0  0  0
  138.6020   68.9540  225.3680 N   0  0  0  0  0  0  0  0  0  0  0  0
  139.2540   67.7600  224.7780 C   0  0  0  0  0  0  0  0  0  0  0  0
  140.2650   67.3420  225.7850 C   0  0  0  0  0  0  0  0  0  0  0  0
  139.6820   67.7800  227.1020 C   0  0  0  0  0  0  0  0  0  0  0  0
  139.0500   69.1120  226.7210 C   0  0  1  0  0  0  0  0  0  0  0  0
  139.9590   70.2360  226.9620 C   0  0  0  0  0  0  0  0  0  0  0  0
  140.2060   70.7640  228.2080 C   0  0  0  0  0  0  0  0  0  0  0  0
  141.0560   71.8410  228.4180 C   0  0  0  0  0  0  0  0  0  0  0  0
  141.7030   72.4390  227.3640 C   0  0  0  0  0  0  0  0  0  0  0  0
  141.4740   71.9310  226.1040 C   0  0  0  0  0  0  0  0  0  0  0  0
  140.6280   70.8620  225.9010 C   0  0  0  0  0  0  0  0  0  0  0  0
  140.1470   72.7570  221.8880 C   0  0  0  0  0  0  0  0  0  0  0  0
  141.2380   72.7370  221.0440 C   0  0  0  0  0  0  0  0  0  0  0  0
  141.7790   73.9380  220.6650 C   0  0  0  0  0  0  0  0  0  0  0  0
  141.2380   75.1090  221.1220 C   0  0  0  0  0  0  0  0  0  0  0  0
  141.7570   76.3500  220.7600 C   0  0  0  0  0  0  0  0  0  0  0  0
  143.1360   76.4340  219.6970 Cl  0  0  0  0  0  0  0  0  0  0  0  0
  141.1940   77.5220  221.2330 C   0  0  0  0  0  0  0  0  0  0  0  0
  140.0970   77.4960  222.0800 C   0  0  0  0  0  0  0  0  0  0  0  0
  139.5640   76.2600  222.4520 C   0  0  0  0  0  0  0  0  0  0  0  0
  140.1460   75.1100  221.9660 C   0  0  0  0  0  0  0  0  0  0  0  0
  139.6180   73.9150  222.3340 N   0  0  0  0  0  0  0  0  0  0  0  0
  137.7760   72.3330  222.8990 H   0  0  0  0  0  0  0  0  0  0  0  0
  136.7458   70.0612  222.7966 H   0  0  0  0  0  0  0  0  0  0  0  0
  138.5548   69.4820  222.7729 H   0  0  0  0  0  0  0  0  0  0  0  0
  138.5184   66.9592  224.6121 H   0  0  0  0  0  0  0  0  0  0  0  0
  139.7076   67.9759  223.7994 H   0  0  0  0  0  0  0  0  0  0  0  0
  140.4068   66.2514  225.7652 H   0  0  0  0  0  0  0  0  0  0  0  0
  141.2542   67.7842  225.5957 H   0  0  0  0  0  0  0  0  0  0  0  0
  138.9283   67.0662  227.4659 H   0  0  0  0  0  0  0  0  0  0  0  0
  140.4155   67.8470  227.9191 H   0  0  0  0  0  0  0  0  0  0  0  0
  138.1874   69.3721  227.3521 H   0  0  0  0  0  0  0  0  0  0  0  0
  139.7070   70.3119  229.0778 H   0  0  0  0  0  0  0  0  0  0  0  0
  141.2132   72.2195  229.4388 H   0  0  0  0  0  0  0  0  0  0  0  0
  142.3793   73.2924  227.5203 H   0  0  0  0  0  0  0  0  0  0  0  0
  141.9779   72.3891  225.2402 H   0  0  0  0  0  0  0  0  0  0  0  0
  140.4734   70.4895  224.8776 H   0  0  0  0  0  0  0  0  0  0  0  0
  141.6607   71.7866  220.6862 H   0  0  0  0  0  0  0  0  0  0  0  0
  142.6492   73.9606  219.9926 H   0  0  0  0  0  0  0  0  0  0  0  0
  141.6234   78.4891  220.9324 H   0  0  0  0  0  0  0  0  0  0  0  0
  139.6545   78.4317  222.4523 H   0  0  0  0  0  0  0  0  0  0  0  0
  138.6935   76.2056  223.1223 H   0  0  0  0  0  0  0  0  0  0  0  0
  1  2  2  0
  2  3  1  0
  3  4  1  0
  4  5  1  0
  5  6  2  0
  5  7  1  0
  7  8  1  0
  8  9  1  0
  9 10  1  0
 10 11  1  0
 11 12  1  0
 12 13  2  0
 13 14  1  0
 14 15  2  0
 15 16  1  0
 16 17  2  0
  2 18  1  0
 18 19  2  0
 19 20  1  0
 20 21  2  0
 21 22  1  0
 22 23  1  0
 22 24  2  0
 24 25  1  0
 25 26  2  0
 26 27  1  0
 27 28  2  0
 11  7  1  0
 17 12  1  0
 28 18  1  0
 27 21  1  0
  3 29  1  0
  4 30  1  0
  4 31  1  0
  8 32  1  0
  8 33  1  0
  9 34  1  0
  9 35  1  0
 10 36  1  0
 10 37  1  0
 11 38  1  1
 13 39  1  0
 14 40  1  0
 15 41  1  0
 16 42  1  0
 17 43  1  0
 19 44  1  0
 20 45  1  0
 24 46  1  0
 25 47  1  0
 26 48  1  0
M  END
>  <smiles>  (17) 
O=C(NCC(=O)N1CCC[C@H]1c1ccccc1)c1ccc2c(Cl)cccc2n1

>  <score_type>  (17) 
oracle

>  <origin>  (17) 
autodockgpu

>  <m_score__min__energy>  (17) 
-9.3100000000000005

>  <m_primary>  (17) 
energy

>  <rmsd>  (17) 
8.305385177442538

>  <m_score__min__rmsd>  (17) 
8.305385177442538

>  <meeko>  (17) 
{"free_energy": -8.42, "intermolecular_energy": -9.91, "internal_energy": -1.97, "cluster_size": 3, "cluster_id": 4, "rank_in_cluster": 3}

>  <energy>  (17) 
-9.05

>  <cluster_rmsd>  (17) 
0.11

>  <cluster>  (17) 
2

$$$$

     RDKit          3D

 48 51  0  0  0  0  0  0  0  0999 V2000
  141.0420   74.5100  221.0550 O   0  0  0  0  0  0  0  0  0  0  0  0
  140.1510   74.9310  221.8430 C   0  0  0  0  0  0  0  0  0  0  0  0
  139.1890   73.9430  222.3170 N   0  0  0  0  0  0  0  0  0  0  0  0
  139.3620   72.6270  221.8400 C   0  0  0  0  0  0  0  0  0  0  0  0
  139.8210   71.5630  222.6770 C   0  0  0  0  0  0  0  0  0  0  0  0
  141.0910   71.6260  223.0160 O   0  0  0  0  0  0  0  0  0  0  0  0
  139.1870   70.4260  223.2360 N   0  0  0  0  0  0  0  0  0  0  0  0
  139.1620   69.1840  222.4250 C   0  0  0  0  0  0  0  0  0  0  0  0
  138.6340   68.1400  223.3410 C   0  0  0  0  0  0  0  0  0  0  0  0
  137.7360   68.8940  224.2870 C   0  0  0  0  0  0  0  0  0  0  0  0
  138.5240   70.1820  224.4840 C   0  0  1  0  0  0  0  0  0  0  0  0
  139.3940   70.1130  225.6620 C   0  0  0  0  0  0  0  0  0  0  0  0
  140.2220   71.1370  226.0600 C   0  0  0  0  0  0  0  0  0  0  0  0
  141.0540   71.0510  227.1690 C   0  0  0  0  0  0  0  0  0  0  0  0
  141.0850   69.9090  227.9330 C   0  0  0  0  0  0  0  0  0  0  0  0
  140.2650   68.8670  227.5580 C   0  0  0  0  0  0  0  0  0  0  0  0
  139.4420   68.9590  226.4570 C   0  0  0  0  0  0  0  0  0  0  0  0
  140.0480   76.3100  222.2820 C   0  0  0  0  0  0  0  0  0  0  0  0
  138.7810   76.8330  222.4330 C   0  0  0  0  0  0  0  0  0  0  0  0
  138.6680   78.1350  222.8470 C   0  0  0  0  0  0  0  0  0  0  0  0
  139.7920   78.8750  223.0970 C   0  0  0  0  0  0  0  0  0  0  0  0
  139.7210   80.2000  223.5190 C   0  0  0  0  0  0  0  0  0  0  0  0
  138.1660   80.9550  223.7410 Cl  0  0  0  0  0  0  0  0  0  0  0  0
  140.8700   80.9300  223.7670 C   0  0  0  0  0  0  0  0  0  0  0  0
  142.1250   80.3650  223.6020 C   0  0  0  0  0  0  0  0  0  0  0  0
  142.2130   79.0370  223.1790 C   0  0  0  0  0  0  0  0  0  0  0  0
  141.0520   78.3350  222.9400 C   0  0  0  0  0  0  0  0  0  0  0  0
  141.1510   77.0450  222.5310 N   0  0  0  0  0  0  0  0  0  0  0  0
  138.4790   74.3320  222.9530 H   0  0  0  0  0  0  0  0  0  0  0  0
  138.3822   72.3107  221.4527 H   0  0  0  0  0  0  0  0  0  0  0  0
  140.2051   72.7474  221.1438 H   0  0  0  0  0  0  0  0  0  0  0  0
  138.5017   69.3041  221.5534 H   0  0  0  0  0  0  0  0  0  0  0  0
  140.1565   68.9258  222.0322 H   0  0  0  0  0  0  0  0  0  0  0  0
  138.0637   67.3835  222.7821 H   0  0  0  0  0  0  0  0  0  0  0  0
  139.4344   67.5967  223.8647 H   0  0  0  0  0  0  0  0  0  0  0  0
  136.7511   69.0893  223.8377 H   0  0  0  0  0  0  0  0  0  0  0  0
  137.5116   68.3562  225.2199 H   0  0  0  0  0  0  0  0  0  0  0  0
  137.8820   71.0441  224.7179 H   0  0  0  0  0  0  0  0  0  0  0  0
  140.2254   72.0671  225.4727 H   0  0  0  0  0  0  0  0  0  0  0  0
  141.6937   71.9045  227.4381 H   0  0  0  0  0  0  0  0  0  0  0  0
  141.7410   69.8296  228.8124 H   0  0  0  0  0  0  0  0  0  0  0  0
  140.2676   67.9407  228.1512 H   0  0  0  0  0  0  0  0  0  0  0  0
  138.8041   68.1023  226.1940 H   0  0  0  0  0  0  0  0  0  0  0  0
  137.8883   76.2241  222.2275 H   0  0  0  0  0  0  0  0  0  0  0  0
  137.6731   78.5854  222.9784 H   0  0  0  0  0  0  0  0  0  0  0  0
  140.7862   81.9749  224.1003 H   0  0  0  0  0  0  0  0  0  0  0  0
  143.0342   80.9515  223.8005 H   0  0  0  0  0  0  0  0  0  0  0  0
  143.1938   78.5591  223.0389 H   0  0  0  0  0  0  0  0  0  0  0  0
  1  2  2  0
  2  3  1  0
  3  4  1  0
  4  5  1  0
  5  6  2  0
  5  7  1  0
  7  8  1  0
  8  9  1  0
  9 10  1  0
 10 11  1  0
 11 12  1  0
 12 13  2  0
 13 14  1  0
 14 15  2  0
 15 16  1  0
 16 17  2  0
  2 18  1  0
 18 19  2  0
 19 20  1  0
 20 21  2  0
 21 22  1  0
 22 23  1  0
 22 24  2  0
 24 25  1  0
 25 26  2  0
 26 27  1  0
 27 28  2  0
 11  7  1  0
 17 12  1  0
 28 18  1  0
 27 21  1  0
  3 29  1  0
  4 30  1  0
  4 31  1  0
  8 32  1  0
  8 33  1  0
  9 34  1  0
  9 35  1  0
 10 36  1  0
 10 37  1  0
 11 38  1  1
 13 39  1  0
 14 40  1  0
 15 41  1  0
 16 42  1  0
 17 43  1  0
 19 44  1  0
 20 45  1  0
 24 46  1  0
 25 47  1  0
 26 48  1  0
M  END
>  <smiles>  (18) 
O=C(NCC(=O)N1CCC[C@H]1c1ccccc1)c1ccc2c(Cl)cccc2n1

>  <score_type>  (18) 
oracle

>  <origin>  (18) 
autodockgpu

>  <m_score__min__energy>  (18) 
-9.3100000000000005

>  <m_primary>  (18) 
energy

>  <rmsd>  (18) 
8.097372116229515

>  <m_score__min__rmsd>  (18) 
8.097372116229515

>  <meeko>  (18) 
{"free_energy": -9.02, "intermolecular_energy": -10.51, "internal_energy": -1.14, "cluster_size": 24, "cluster_id": 3, "rank_in_cluster": 8}

>  <energy>  (18) 
-9.0

>  <cluster_rmsd>  (18) 
0.29

>  <cluster>  (18) 
2

$$$$

     RDKit          3D

 48 51  0  0  0  0  0  0  0  0999 V2000
  140.4640   74.4390  220.1130 O   0  0  0  0  0  0  0  0  0  0  0  0
  140.2440   75.0850  221.1750 C   0  0  0  0  0  0  0  0  0  0  0  0
  139.5920   74.3510  222.2530 N   0  0  0  0  0  0  0  0  0  0  0  0
  139.2810   73.0000  221.9890 C   0  0  0  0  0  0  0  0  0  0  0  0
  139.8020   71.9260  222.7750 C   0  0  0  0  0  0  0  0  0  0  0  0
  141.0660   72.0440  223.1150 O   0  0  0  0  0  0  0  0  0  0  0  0
  139.2330   70.7300  223.2800 N   0  0  0  0  0  0  0  0  0  0  0  0
  139.2910   69.5240  222.4180 C   0  0  0  0  0  0  0  0  0  0  0  0
  138.8200   68.4120  223.2850 C   0  0  0  0  0  0  0  0  0  0  0  0
  137.8700   69.0710  224.2510 C   0  0  0  0  0  0  0  0  0  0  0  0
  138.5760   70.3940  224.5100 C   0  0  1  0  0  0  0  0  0  0  0  0
  139.4390   70.3300  225.6930 C   0  0  0  0  0  0  0  0  0  0  0  0
  139.4950   69.2460  226.5380 C   0  0  0  0  0  0  0  0  0  0  0  0
  140.3050   69.2060  227.6660 C   0  0  0  0  0  0  0  0  0  0  0  0
  141.1040   70.2750  227.9910 C   0  0  0  0  0  0  0  0  0  0  0  0
  141.0690   71.3750  227.1620 C   0  0  0  0  0  0  0  0  0  0  0  0
  140.2630   71.4090  226.0450 C   0  0  0  0  0  0  0  0  0  0  0  0
  140.5990   76.4780  221.3600 C   0  0  0  0  0  0  0  0  0  0  0  0
  140.4640   77.3160  220.2720 C   0  0  0  0  0  0  0  0  0  0  0  0
  140.7960   78.6360  220.4330 C   0  0  0  0  0  0  0  0  0  0  0  0
  141.2470   79.0880  221.6440 C   0  0  0  0  0  0  0  0  0  0  0  0
  141.5950   80.4210  221.8480 C   0  0  0  0  0  0  0  0  0  0  0  0
  141.4600   81.5610  220.5370 Cl  0  0  0  0  0  0  0  0  0  0  0  0
  142.0490   80.8570  223.0800 C   0  0  0  0  0  0  0  0  0  0  0  0
  142.1700   79.9800  224.1480 C   0  0  0  0  0  0  0  0  0  0  0  0
  141.8250   78.6400  223.9590 C   0  0  0  0  0  0  0  0  0  0  0  0
  141.3770   78.2350  222.7210 C   0  0  0  0  0  0  0  0  0  0  0  0
  141.0440   76.9300  222.5500 N   0  0  0  0  0  0  0  0  0  0  0  0
  139.4280   74.9180  223.0970 H   0  0  0  0  0  0  0  0  0  0  0  0
  138.1856   72.9206  222.0505 H   0  0  0  0  0  0  0  0  0  0  0  0
  139.7816   72.8371  221.0231 H   0  0  0  0  0  0  0  0  0  0  0  0
  138.6319   69.6401  221.5450 H   0  0  0  0  0  0  0  0  0  0  0  0
  140.3026   69.3435  222.0255 H   0  0  0  0  0  0  0  0  0  0  0  0
  138.3015   67.6462  222.6895 H   0  0  0  0  0  0  0  0  0  0  0  0
  139.6474   67.8964  223.7945 H   0  0  0  0  0  0  0  0  0  0  0  0
  136.8791   69.2253  223.7989 H   0  0  0  0  0  0  0  0  0  0  0  0
  137.6707   68.4821  225.1585 H   0  0  0  0  0  0  0  0  0  0  0  0
  137.8802   71.2043  224.7733 H   0  0  0  0  0  0  0  0  0  0  0  0
  138.8695   68.3703  226.3100 H   0  0  0  0  0  0  0  0  0  0  0  0
  140.3065   68.3103  228.3045 H   0  0  0  0  0  0  0  0  0  0  0  0
  141.7491   70.2536  228.8817 H   0  0  0  0  0  0  0  0  0  0  0  0
  141.6987   72.2457  227.3972 H   0  0  0  0  0  0  0  0  0  0  0  0
  140.2659   72.3081  225.4112 H   0  0  0  0  0  0  0  0  0  0  0  0
  140.1012   76.9364  219.3054 H   0  0  0  0  0  0  0  0  0  0  0  0
  140.6999   79.3334  219.5878 H   0  0  0  0  0  0  0  0  0  0  0  0
  142.3181   81.9150  223.2147 H   0  0  0  0  0  0  0  0  0  0  0  0
  142.5308   80.3333  225.1252 H   0  0  0  0  0  0  0  0  0  0  0  0
  141.9097   77.9193  224.7857 H   0  0  0  0  0  0  0  0  0  0  0  0
  1  2  2  0
  2  3  1  0
  3  4  1  0
  4  5  1  0
  5  6  2  0
  5  7  1  0
  7  8  1  0
  8  9  1  0
  9 10  1  0
 10 11  1  0
 11 12  1  0
 12 13  2  0
 13 14  1  0
 14 15  2  0
 15 16  1  0
 16 17  2  0
  2 18  1  0
 18 19  2  0
 19 20  1  0
 20 21  2  0
 21 22  1  0
 22 23  1  0
 22 24  2  0
 24 25  1  0
 25 26  2  0
 26 27  1  0
 27 28  2  0
 11  7  1  0
 17 12  1  0
 28 18  1  0
 27 21  1  0
  3 29  1  0
  4 30  1  0
  4 31  1  0
  8 32  1  0
  8 33  1  0
  9 34  1  0
  9 35  1  0
 10 36  1  0
 10 37  1  0
 11 38  1  1
 13 39  1  0
 14 40  1  0
 15 41  1  0
 16 42  1  0
 17 43  1  0
 19 44  1  0
 20 45  1  0
 24 46  1  0
 25 47  1  0
 26 48  1  0
M  END
>  <smiles>  (19) 
O=C(NCC(=O)N1CCC[C@H]1c1ccccc1)c1ccc2c(Cl)cccc2n1

>  <score_type>  (19) 
oracle

>  <origin>  (19) 
autodockgpu

>  <m_score__min__energy>  (19) 
-9.3100000000000005

>  <m_primary>  (19) 
energy

>  <rmsd>  (19) 
8.168891228575777

>  <m_score__min__rmsd>  (19) 
8.168891228575777

>  <meeko>  (19) 
{"free_energy": -8.7, "intermolecular_energy": -10.19, "internal_energy": -1.33, "cluster_size": 24, "cluster_id": 3, "rank_in_cluster": 17}

>  <energy>  (19) 
-9.11

>  <cluster_rmsd>  (19) 
0.0

>  <cluster>  (19) 
3

$$$$

     RDKit          3D

 48 51  0  0  0  0  0  0  0  0999 V2000
  140.7880   74.4320  221.4330 O   0  0  0  0  0  0  0  0  0  0  0  0
  139.8270   75.0390  221.9820 C   0  0  0  0  0  0  0  0  0  0  0  0
  138.6400   74.2410  222.2690 N   0  0  0  0  0  0  0  0  0  0  0  0
  138.7000   72.8810  221.9020 C   0  0  0  0  0  0  0  0  0  0  0  0
  139.3370   71.8940  222.7170 C   0  0  0  0  0  0  0  0  0  0  0  0
  140.5370   72.2160  223.1490 O   0  0  0  0  0  0  0  0  0  0  0  0
  138.9440   70.6110  223.1720 N   0  0  0  0  0  0  0  0  0  0  0  0
  139.1130   69.4700  222.2390 C   0  0  0  0  0  0  0  0  0  0  0  0
  138.8220   68.2630  223.0570 C   0  0  0  0  0  0  0  0  0  0  0  0
  137.8410   68.7430  224.0940 C   0  0  0  0  0  0  0  0  0  0  0  0
  138.3890   70.1300  224.4030 C   0  0  1  0  0  0  0  0  0  0  0  0
  139.3040   70.1120  225.5480 C   0  0  0  0  0  0  0  0  0  0  0  0
  140.1120   71.1690  225.8960 C   0  0  0  0  0  0  0  0  0  0  0  0
  140.9880   71.1310  226.9730 C   0  0  0  0  0  0  0  0  0  0  0  0
  141.0850   70.0060  227.7560 C   0  0  0  0  0  0  0  0  0  0  0  0
  140.2880   68.9310  227.4310 C   0  0  0  0  0  0  0  0  0  0  0  0
  139.4210   68.9740  226.3600 C   0  0  0  0  0  0  0  0  0  0  0  0
  139.8530   76.4470  222.3250 C   0  0  0  0  0  0  0  0  0  0  0  0
  141.0870   77.0570  222.4070 C   0  0  0  0  0  0  0  0  0  0  0  0
  141.1260   78.3890  222.7310 C   0  0  0  0  0  0  0  0  0  0  0  0
  139.9630   79.0730  222.9630 C   0  0  0  0  0  0  0  0  0  0  0  0
  139.9600   80.4250  223.2940 C   0  0  0  0  0  0  0  0  0  0  0  0
  141.4690   81.2880  223.4230 Cl  0  0  0  0  0  0  0  0  0  0  0  0
  138.7730   81.0980  223.5240 C   0  0  0  0  0  0  0  0  0  0  0  0
  137.5530   80.4470  223.4310 C   0  0  0  0  0  0  0  0  0  0  0  0
  137.5400   79.0900  223.0990 C   0  0  0  0  0  0  0  0  0  0  0  0
  138.7370   78.4460  222.8760 C   0  0  0  0  0  0  0  0  0  0  0  0
  138.7100   77.1280  222.5540 N   0  0  0  0  0  0  0  0  0  0  0  0
  137.8810   74.7780  222.7120 H   0  0  0  0  0  0  0  0  0  0  0  0
  137.6578   72.5509  221.7804 H   0  0  0  0  0  0  0  0  0  0  0  0
  139.3633   72.9125  221.0251 H   0  0  0  0  0  0  0  0  0  0  0  0
  138.4067   69.5484  221.3993 H   0  0  0  0  0  0  0  0  0  0  0  0
  140.1206   69.4398  221.7988 H   0  0  0  0  0  0  0  0  0  0  0  0
  138.3772   67.4704  222.4373 H   0  0  0  0  0  0  0  0  0  0  0  0
  139.7288   67.8307  223.5051 H   0  0  0  0  0  0  0  0  0  0  0  0
  136.8196   68.7945  223.6889 H   0  0  0  0  0  0  0  0  0  0  0  0
  137.7560   68.0861  224.9722 H   0  0  0  0  0  0  0  0  0  0  0  0
  137.6108   70.8315  224.7380 H   0  0  0  0  0  0  0  0  0  0  0  0
  140.0621   72.0877  225.2930 H   0  0  0  0  0  0  0  0  0  0  0  0
  141.6097   72.0093  227.2013 H   0  0  0  0  0  0  0  0  0  0  0  0
  141.7747   69.9655  228.6119 H   0  0  0  0  0  0  0  0  0  0  0  0
  140.3445   68.0168  228.0401 H   0  0  0  0  0  0  0  0  0  0  0  0
  138.8038   68.0915  226.1359 H   0  0  0  0  0  0  0  0  0  0  0  0
  142.0120   76.4923  222.2183 H   0  0  0  0  0  0  0  0  0  0  0  0
  142.0929   78.9084  222.8046 H   0  0  0  0  0  0  0  0  0  0  0  0
  138.7981   82.1664  223.7847 H   0  0  0  0  0  0  0  0  0  0  0  0
  136.6132   80.9882  223.6150 H   0  0  0  0  0  0  0  0  0  0  0  0
  136.5885   78.5442  223.0169 H   0  0  0  0  0  0  0  0  0  0  0  0
  1  2  2  0
  2  3  1  0
  3  4  1  0
  4  5  1  0
  5  6  2  0
  5  7  1  0
  7  8  1  0
  8  9  1  0
  9 10  1  0
 10 11  1  0
 11 12  1  0
 12 13  2  0
 13 14  1  0
 14 15  2  0
 15 16  1  0
 16 17  2  0
  2 18  1  0
 18 19  2  0
 19 20  1  0
 20 21  2  0
 21 22  1  0
 22 23  1  0
 22 24  2  0
 24 25  1  0
 25 26  2  0
 26 27  1  0
 27 28  2  0
 11  7  1  0
 17 12  1  0
 28 18  1  0
 27 21  1  0
  3 29  1  0
  4 30  1  0
  4 31  1  0
  8 32  1  0
  8 33  1  0
  9 34  1  0
  9 35  1  0
 10 36  1  0
 10 37  1  0
 11 38  1  1
 13 39  1  0
 14 40  1  0
 15 41  1  0
 16 42  1  0
 17 43  1  0
 19 44  1  0
 20 45  1  0
 24 46  1  0
 25 47  1  0
 26 48  1  0
M  END
>  <smiles>  (20) 
O=C(NCC(=O)N1CCC[C@H]1c1ccccc1)c1ccc2c(Cl)cccc2n1

>  <score_type>  (20) 
oracle

>  <origin>  (20) 
autodockgpu

>  <m_score__min__energy>  (20) 
-9.3100000000000005

>  <m_primary>  (20) 
energy

>  <rmsd>  (20) 
8.269868529971646

>  <m_score__min__rmsd>  (20) 
8.269868529971646

>  <meeko>  (20) 
{"free_energy": -8.45, "intermolecular_energy": -9.94, "internal_energy": -1.45, "cluster_size": 24, "cluster_id": 3, "rank_in_cluster": 23}

>  <energy>  (20) 
-9.1

>  <cluster_rmsd>  (20) 
0.19

>  <cluster>  (20) 
3

$$$$

     RDKit          3D

 48 51  0  0  0  0  0  0  0  0999 V2000
  140.9300   74.4330  221.3680 O   0  0  0  0  0  0  0  0  0  0  0  0
  139.9610   74.9690  221.9730 C   0  0  0  0  0  0  0  0  0  0  0  0
  138.8320   74.0980  222.2820 N   0  0  0  0  0  0  0  0  0  0  0  0
  138.9520   72.7530  221.8710 C   0  0  0  0  0  0  0  0  0  0  0  0
  139.5750   71.7560  222.6840 C   0  0  0  0  0  0  0  0  0  0  0  0
  140.8590   71.9370  222.9050 O   0  0  0  0  0  0  0  0  0  0  0  0
  139.0950   70.5850  223.3220 N   0  0  0  0  0  0  0  0  0  0  0  0
  139.2030   69.3060  222.5790 C   0  0  0  0  0  0  0  0  0  0  0  0
  138.8240   68.2590  223.5650 C   0  0  0  0  0  0  0  0  0  0  0  0
  137.8620   68.9540  224.4930 C   0  0  0  0  0  0  0  0  0  0  0  0
  138.4930   70.3350  224.5990 C   0  0  1  0  0  0  0  0  0  0  0  0
  139.3900   70.4380  225.7540 C   0  0  0  0  0  0  0  0  0  0  0  0
  139.4170   69.5250  226.7830 C   0  0  0  0  0  0  0  0  0  0  0  0
  140.2590   69.6450  227.8800 C   0  0  0  0  0  0  0  0  0  0  0  0
  141.1240   70.7080  227.9850 C   0  0  0  0  0  0  0  0  0  0  0  0
  141.1200   71.6370  226.9680 C   0  0  0  0  0  0  0  0  0  0  0  0
  140.2800   71.5140  225.8820 C   0  0  0  0  0  0  0  0  0  0  0  0
  139.9220   76.3660  222.3580 C   0  0  0  0  0  0  0  0  0  0  0  0
  138.6810   76.9470  222.5110 C   0  0  0  0  0  0  0  0  0  0  0  0
  138.6300   78.2680  222.8750 C   0  0  0  0  0  0  0  0  0  0  0  0
  139.7880   78.9700  223.0750 C   0  0  0  0  0  0  0  0  0  0  0  0
  139.7800   80.3120  223.4440 C   0  0  0  0  0  0  0  0  0  0  0  0
  138.2610   81.1400  223.6640 Cl  0  0  0  0  0  0  0  0  0  0  0  0
  140.9620   81.0030  223.6420 C   0  0  0  0  0  0  0  0  0  0  0  0
  142.1890   80.3800  223.4770 C   0  0  0  0  0  0  0  0  0  0  0  0
  142.2150   79.0340  223.1060 C   0  0  0  0  0  0  0  0  0  0  0  0
  141.0220   78.3720  222.9160 C   0  0  0  0  0  0  0  0  0  0  0  0
  141.0600   77.0630  222.5570 N   0  0  0  0  0  0  0  0  0  0  0  0
  138.0630   74.5780  222.7710 H   0  0  0  0  0  0  0  0  0  0  0  0
  137.9280   72.3982  221.6828 H   0  0  0  0  0  0  0  0  0  0  0  0
  139.6586   72.8349  221.0319 H   0  0  0  0  0  0  0  0  0  0  0  0
  138.5147   69.2973  221.7210 H   0  0  0  0  0  0  0  0  0  0  0  0
  140.2126   69.1466  222.1724 H   0  0  0  0  0  0  0  0  0  0  0  0
  138.3372   67.4094  223.0638 H   0  0  0  0  0  0  0  0  0  0  0  0
  139.6947   67.8450  224.0946 H   0  0  0  0  0  0  0  0  0  0  0  0
  136.8518   69.0052  224.0608 H   0  0  0  0  0  0  0  0  0  0  0  0
  137.7234   68.4472  225.4594 H   0  0  0  0  0  0  0  0  0  0  0  0
  137.7566   71.1258  224.8048 H   0  0  0  0  0  0  0  0  0  0  0  0
  138.7397   68.6596  226.7340 H   0  0  0  0  0  0  0  0  0  0  0  0
  140.2338   68.8825  228.6724 H   0  0  0  0  0  0  0  0  0  0  0  0
  141.7953   70.8131  228.8501 H   0  0  0  0  0  0  0  0  0  0  0  0
  141.8032   72.4973  227.0238 H   0  0  0  0  0  0  0  0  0  0  0  0
  140.3086   72.2811  225.0941 H   0  0  0  0  0  0  0  0  0  0  0  0
  137.7600   76.3685  222.3461 H   0  0  0  0  0  0  0  0  0  0  0  0
  137.6572   78.7643  223.0065 H   0  0  0  0  0  0  0  0  0  0  0  0
  140.9275   82.0628  223.9348 H   0  0  0  0  0  0  0  0  0  0  0  0
  143.1251   80.9356  223.6354 H   0  0  0  0  0  0  0  0  0  0  0  0
  143.1727   78.5108  222.9677 H   0  0  0  0  0  0  0  0  0  0  0  0
  1  2  2  0
  2  3  1  0
  3  4  1  0
  4  5  1  0
  5  6  2  0
  5  7  1  0
  7  8  1  0
  8  9  1  0
  9 10  1  0
 10 11  1  0
 11 12  1  0
 12 13  2  0
 13 14  1  0
 14 15  2  0
 15 16  1  0
 16 17  2  0
  2 18  1  0
 18 19  2  0
 19 20  1  0
 20 21  2  0
 21 22  1  0
 22 23  1  0
 22 24  2  0
 24 25  1  0
 25 26  2  0
 26 27  1  0
 27 28  2  0
 11  7  1  0
 17 12  1  0
 28 18  1  0
 27 21  1  0
  3 29  1  0
  4 30  1  0
  4 31  1  0
  8 32  1  0
  8 33  1  0
  9 34  1  0
  9 35  1  0
 10 36  1  0
 10 37  1  0
 11 38  1  1
 13 39  1  0
 14 40  1  0
 15 41  1  0
 16 42  1  0
 17 43  1  0
 19 44  1  0
 20 45  1  0
 24 46  1  0
 25 47  1  0
 26 48  1  0
M  END
>  <smiles>  (21) 
O=C(NCC(=O)N1CCC[C@H]1c1ccccc1)c1ccc2c(Cl)cccc2n1

>  <score_type>  (21) 
oracle

>  <origin>  (21) 
autodockgpu

>  <m_score__min__energy>  (21) 
-9.3100000000000005

>  <m_primary>  (21) 
energy

>  <rmsd>  (21) 
8.128739641064232

>  <m_score__min__rmsd>  (21) 
8.128739641064232

>  <meeko>  (21) 
{"free_energy": -9.11, "intermolecular_energy": -10.6, "internal_energy": -1.16, "cluster_size": 24, "cluster_id": 3, "rank_in_cluster": 1}

>  <energy>  (21) 
-9.1

>  <cluster_rmsd>  (21) 
0.11

>  <cluster>  (21) 
3

$$$$

     RDKit          3D

 48 51  0  0  0  0  0  0  0  0999 V2000
  141.0560   74.5620  221.4080 O   0  0  0  0  0  0  0  0  0  0  0  0
  140.0630   75.1050  221.9660 C   0  0  0  0  0  0  0  0  0  0  0  0
  138.9370   74.2300  222.2730 N   0  0  0  0  0  0  0  0  0  0  0  0
  139.0850   72.8740  221.9120 C   0  0  0  0  0  0  0  0  0  0  0  0
  139.5620   71.8850  222.8280 C   0  0  0  0  0  0  0  0  0  0  0  0
  140.7130   72.1620  223.4000 O   0  0  0  0  0  0  0  0  0  0  0  0
  139.0470   70.6390  223.2630 N   0  0  0  0  0  0  0  0  0  0  0  0
  139.1270   69.4950  222.3210 C   0  0  0  0  0  0  0  0  0  0  0  0
  138.7150   68.3130  223.1220 C   0  0  0  0  0  0  0  0  0  0  0  0
  137.7650   68.8710  224.1500 C   0  0  0  0  0  0  0  0  0  0  0  0
  138.4310   70.1990  224.4820 C   0  0  1  0  0  0  0  0  0  0  0  0
  139.3230   70.0880  225.6390 C   0  0  0  0  0  0  0  0  0  0  0  0
  140.0940   71.1240  226.1110 C   0  0  0  0  0  0  0  0  0  0  0  0
  140.9480   70.9980  227.1990 C   0  0  0  0  0  0  0  0  0  0  0  0
  141.0600   69.8030  227.8660 C   0  0  0  0  0  0  0  0  0  0  0  0
  140.2990   68.7470  227.4160 C   0  0  0  0  0  0  0  0  0  0  0  0
  139.4530   68.8770  226.3350 C   0  0  0  0  0  0  0  0  0  0  0  0
  139.9960   76.5140  222.3020 C   0  0  0  0  0  0  0  0  0  0  0  0
  138.7450   77.0900  222.3730 C   0  0  0  0  0  0  0  0  0  0  0  0
  138.6670   78.4220  222.6890 C   0  0  0  0  0  0  0  0  0  0  0  0
  139.8090   79.1390  222.9230 C   0  0  0  0  0  0  0  0  0  0  0  0
  139.7740   80.4930  223.2470 C   0  0  0  0  0  0  0  0  0  0  0  0
  138.2410   81.3150  223.3620 Cl  0  0  0  0  0  0  0  0  0  0  0  0
  140.9400   81.1990  223.4810 C   0  0  0  0  0  0  0  0  0  0  0  0
  142.1780   80.5810  223.3990 C   0  0  0  0  0  0  0  0  0  0  0  0
  142.2310   79.2240  223.0750 C   0  0  0  0  0  0  0  0  0  0  0  0
  141.0530   78.5450  222.8480 C   0  0  0  0  0  0  0  0  0  0  0  0
  141.1180   77.2270  222.5350 N   0  0  0  0  0  0  0  0  0  0  0  0
  138.1480   74.7160  222.7230 H   0  0  0  0  0  0  0  0  0  0  0  0
  138.0912   72.5342  221.5850 H   0  0  0  0  0  0  0  0  0  0  0  0
  139.9068   72.9222  221.1823 H   0  0  0  0  0  0  0  0  0  0  0  0
  138.4443   69.6443  221.4715 H   0  0  0  0  0  0  0  0  0  0  0  0
  140.1347   69.3773  221.8959 H   0  0  0  0  0  0  0  0  0  0  0  0
  138.2098   67.5697  222.4878 H   0  0  0  0  0  0  0  0  0  0  0  0
  139.5718   67.7963  223.5790 H   0  0  0  0  0  0  0  0  0  0  0  0
  136.7590   69.0189  223.7303 H   0  0  0  0  0  0  0  0  0  0  0  0
  137.6072   68.2163  225.0198 H   0  0  0  0  0  0  0  0  0  0  0  0
  137.7142   70.9646  224.8137 H   0  0  0  0  0  0  0  0  0  0  0  0
  140.0315   72.0978  225.6033 H   0  0  0  0  0  0  0  0  0  0  0  0
  141.5404   71.8639  227.5296 H   0  0  0  0  0  0  0  0  0  0  0  0
  141.7334   69.6931  228.7288 H   0  0  0  0  0  0  0  0  0  0  0  0
  140.3677   67.7774  227.9309 H   0  0  0  0  0  0  0  0  0  0  0  0
  138.8638   68.0071  226.0094 H   0  0  0  0  0  0  0  0  0  0  0  0
  137.8373   76.4988  222.1819 H   0  0  0  0  0  0  0  0  0  0  0  0
  137.6857   78.9147  222.7545 H   0  0  0  0  0  0  0  0  0  0  0  0
  140.8841   82.2675  223.7362 H   0  0  0  0  0  0  0  0  0  0  0  0
  143.1013   81.1490  223.5857 H   0  0  0  0  0  0  0  0  0  0  0  0
  143.1979   78.7046  223.0020 H   0  0  0  0  0  0  0  0  0  0  0  0
  1  2  2  0
  2  3  1  0
  3  4  1  0
  4  5  1  0
  5  6  2  0
  5  7  1  0
  7  8  1  0
  8  9  1  0
  9 10  1  0
 10 11  1  0
 11 12  1  0
 12 13  2  0
 13 14  1  0
 14 15  2  0
 15 16  1  0
 16 17  2  0
  2 18  1  0
 18 19  2  0
 19 20  1  0
 20 21  2  0
 21 22  1  0
 22 23  1  0
 22 24  2  0
 24 25  1  0
 25 26  2  0
 26 27  1  0
 27 28  2  0
 11  7  1  0
 17 12  1  0
 28 18  1  0
 27 21  1  0
  3 29  1  0
  4 30  1  0
  4 31  1  0
  8 32  1  0
  8 33  1  0
  9 34  1  0
  9 35  1  0
 10 36  1  0
 10 37  1  0
 11 38  1  1
 13 39  1  0
 14 40  1  0
 15 41  1  0
 16 42  1  0
 17 43  1  0
 19 44  1  0
 20 45  1  0
 24 46  1  0
 25 47  1  0
 26 48  1  0
M  END
>  <smiles>  (22) 
O=C(NCC(=O)N1CCC[C@H]1c1ccccc1)c1ccc2c(Cl)cccc2n1

>  <score_type>  (22) 
oracle

>  <origin>  (22) 
autodockgpu

>  <m_score__min__energy>  (22) 
-9.3100000000000005

>  <m_primary>  (22) 
energy

>  <rmsd>  (22) 
8.171410838151823

>  <m_score__min__rmsd>  (22) 
8.171410838151823

>  <meeko>  (22) 
{"free_energy": -9.08, "intermolecular_energy": -10.57, "internal_energy": -1.11, "cluster_size": 24, "cluster_id": 3, "rank_in_cluster": 4}

>  <energy>  (22) 
-9.08

>  <cluster_rmsd>  (22) 
0.41

>  <cluster>  (22) 
3

$$$$

     RDKit          3D

 48 51  0  0  0  0  0  0  0  0999 V2000
  141.0440   73.8550  220.2820 O   0  0  0  0  0  0  0  0  0  0  0  0
  140.6600   74.5980  221.2270 C   0  0  0  0  0  0  0  0  0  0  0  0
  139.9070   73.9480  222.2930 N   0  0  0  0  0  0  0  0  0  0  0  0
  139.6930   72.5610  222.1490 C   0  0  0  0  0  0  0  0  0  0  0  0
  139.6880   71.6670  223.2640 C   0  0  0  0  0  0  0  0  0  0  0  0
  140.5320   71.9670  224.2260 O   0  0  0  0  0  0  0  0  0  0  0  0
  138.9480   70.4960  223.5640 N   0  0  0  0  0  0  0  0  0  0  0  0
  138.7080   69.5330  222.4600 C   0  0  0  0  0  0  0  0  0  0  0  0
  138.1090   68.3420  223.1180 C   0  0  0  0  0  0  0  0  0  0  0  0
  137.3820   68.9010  224.3120 C   0  0  0  0  0  0  0  0  0  0  0  0
  138.3430   69.9930  224.7630 C   0  0  1  0  0  0  0  0  0  0  0  0
  139.2720   69.5110  225.7890 C   0  0  0  0  0  0  0  0  0  0  0  0
  139.9520   70.3390  226.6520 C   0  0  0  0  0  0  0  0  0  0  0  0
  140.8430   69.8690  227.6080 C   0  0  0  0  0  0  0  0  0  0  0  0
  141.0890   68.5230  227.7340 C   0  0  0  0  0  0  0  0  0  0  0  0
  140.4220   67.6700  226.8830 C   0  0  0  0  0  0  0  0  0  0  0  0
  139.5380   68.1420  225.9360 C   0  0  0  0  0  0  0  0  0  0  0  0
  140.9260   76.0220  221.2930 C   0  0  0  0  0  0  0  0  0  0  0  0
  141.0000   76.7080  220.0980 C   0  0  0  0  0  0  0  0  0  0  0  0
  141.2520   78.0550  220.1460 C   0  0  0  0  0  0  0  0  0  0  0  0
  141.4200   78.6800  221.3530 C   0  0  0  0  0  0  0  0  0  0  0  0
  141.6760   80.0450  221.4440 C   0  0  0  0  0  0  0  0  0  0  0  0
  141.7900   81.0040  219.9920 Cl  0  0  0  0  0  0  0  0  0  0  0  0
  141.8430   80.6570  222.6740 C   0  0  0  0  0  0  0  0  0  0  0  0
  141.7590   79.9290  223.8510 C   0  0  0  0  0  0  0  0  0  0  0  0
  141.5030   78.5580  223.7760 C   0  0  0  0  0  0  0  0  0  0  0  0
  141.3420   77.9760  222.5380 C   0  0  0  0  0  0  0  0  0  0  0  0
  141.0920   76.6440  222.4780 N   0  0  0  0  0  0  0  0  0  0  0  0
  139.6100   74.5930  223.0390 H   0  0  0  0  0  0  0  0  0  0  0  0
  138.7114   72.4515  221.6647 H   0  0  0  0  0  0  0  0  0  0  0  0
  140.5993   72.2466  221.6107 H   0  0  0  0  0  0  0  0  0  0  0  0
  138.0134   69.9572  221.7200 H   0  0  0  0  0  0  0  0  0  0  0  0
  139.6318   69.2861  221.9164 H   0  0  0  0  0  0  0  0  0  0  0  0
  137.4090   67.8329  222.4391 H   0  0  0  0  0  0  0  0  0  0  0  0
  138.8645   67.5936  223.3992 H   0  0  0  0  0  0  0  0  0  0  0  0
  136.4038   69.3172  224.0292 H   0  0  0  0  0  0  0  0  0  0  0  0
  137.1509   68.1561  225.0877 H   0  0  0  0  0  0  0  0  0  0  0  0
  137.8364   70.8222  225.2785 H   0  0  0  0  0  0  0  0  0  0  0  0
  139.7821   71.4235  226.5815 H   0  0  0  0  0  0  0  0  0  0  0  0
  141.3567   70.5810  228.2707 H   0  0  0  0  0  0  0  0  0  0  0  0
  141.7933   68.1406  228.4874 H   0  0  0  0  0  0  0  0  0  0  0  0
  140.5986   66.5870  226.9606 H   0  0  0  0  0  0  0  0  0  0  0  0
  139.0270   67.4245  225.2772 H   0  0  0  0  0  0  0  0  0  0  0  0
  140.8612   76.1906  219.1372 H   0  0  0  0  0  0  0  0  0  0  0  0
  141.3193   78.6346  219.2135 H   0  0  0  0  0  0  0  0  0  0  0  0
  142.0454   81.7373  222.7185 H   0  0  0  0  0  0  0  0  0  0  0  0
  141.8915   80.4219  224.8254 H   0  0  0  0  0  0  0  0  0  0  0  0
  141.4311   77.9524  224.6915 H   0  0  0  0  0  0  0  0  0  0  0  0
  1  2  2  0
  2  3  1  0
  3  4  1  0
  4  5  1  0
  5  6  2  0
  5  7  1  0
  7  8  1  0
  8  9  1  0
  9 10  1  0
 10 11  1  0
 11 12  1  0
 12 13  2  0
 13 14  1  0
 14 15  2  0
 15 16  1  0
 16 17  2  0
  2 18  1  0
 18 19  2  0
 19 20  1  0
 20 21  2  0
 21 22  1  0
 22 23  1  0
 22 24  2  0
 24 25  1  0
 25 26  2  0
 26 27  1  0
 27 28  2  0
 11  7  1  0
 17 12  1  0
 28 18  1  0
 27 21  1  0
  3 29  1  0
  4 30  1  0
  4 31  1  0
  8 32  1  0
  8 33  1  0
  9 34  1  0
  9 35  1  0
 10 36  1  0
 10 37  1  0
 11 38  1  1
 13 39  1  0
 14 40  1  0
 15 41  1  0
 16 42  1  0
 17 43  1  0
 19 44  1  0
 20 45  1  0
 24 46  1  0
 25 47  1  0
 26 48  1  0
M  END
>  <smiles>  (23) 
O=C(NCC(=O)N1CCC[C@H]1c1ccccc1)c1ccc2c(Cl)cccc2n1

>  <score_type>  (23) 
oracle

>  <origin>  (23) 
autodockgpu

>  <m_score__min__energy>  (23) 
-9.3100000000000005

>  <m_primary>  (23) 
energy

>  <rmsd>  (23) 
8.192549995283105

>  <m_score__min__rmsd>  (23) 
8.192549995283105

>  <meeko>  (23) 
{"free_energy": -8.53, "intermolecular_energy": -10.02, "internal_energy": -1.31, "cluster_size": 24, "cluster_id": 3, "rank_in_cluster": 21}

>  <energy>  (23) 
-9.07

>  <cluster_rmsd>  (23) 
0.41

>  <cluster>  (23) 
3

$$$$

     RDKit          3D

 48 51  0  0  0  0  0  0  0  0999 V2000
  139.5550   70.1000  222.0220 O   0  0  0  0  0  0  0  0  0  0  0  0
  139.2000   71.2650  222.3530 C   0  0  0  0  0  0  0  0  0  0  0  0
  138.0200   71.3630  223.2040 N   0  0  0  0  0  0  0  0  0  0  0  0
  137.4070   70.1440  223.5620 C   0  0  0  0  0  0  0  0  0  0  0  0
  137.5110   69.5910  224.8760 C   0  0  0  0  0  0  0  0  0  0  0  0
  136.4420   69.7330  225.6290 O   0  0  0  0  0  0  0  0  0  0  0  0
  138.5450   68.9040  225.5600 N   0  0  0  0  0  0  0  0  0  0  0  0
  139.1930   67.7670  224.8610 C   0  0  0  0  0  0  0  0  0  0  0  0
  140.3480   67.3990  225.7220 C   0  0  0  0  0  0  0  0  0  0  0  0
  139.9100   67.7740  227.1140 C   0  0  0  0  0  0  0  0  0  0  0  0
  139.1500   69.0660  226.8500 C   0  0  1  0  0  0  0  0  0  0  0  0
  140.0080   70.2450  227.0050 C   0  0  0  0  0  0  0  0  0  0  0  0
  140.2540   70.8560  228.2130 C   0  0  0  0  0  0  0  0  0  0  0  0
  141.0560   71.9820  228.3420 C   0  0  0  0  0  0  0  0  0  0  0  0
  141.6520   72.5470  227.2400 C   0  0  0  0  0  0  0  0  0  0  0  0
  141.4230   71.9560  226.0170 C   0  0  0  0  0  0  0  0  0  0  0  0
  140.6260   70.8380  225.8950 C   0  0  0  0  0  0  0  0  0  0  0  0
  139.8930   72.4680  221.9360 C   0  0  0  0  0  0  0  0  0  0  0  0
  141.0040   72.3130  221.1320 C   0  0  0  0  0  0  0  0  0  0  0  0
  141.6690   73.4420  220.7310 C   0  0  0  0  0  0  0  0  0  0  0  0
  141.2280   74.6760  221.1260 C   0  0  0  0  0  0  0  0  0  0  0  0
  141.8750   75.8470  220.7390 C   0  0  0  0  0  0  0  0  0  0  0  0
  143.2890   75.7590  219.7240 Cl  0  0  0  0  0  0  0  0  0  0  0  0
  141.4110   77.0840  221.1500 C   0  0  0  0  0  0  0  0  0  0  0  0
  140.2900   77.1950  221.9570 C   0  0  0  0  0  0  0  0  0  0  0  0
  139.6300   76.0300  222.3530 C   0  0  0  0  0  0  0  0  0  0  0  0
  140.1140   74.8120  221.9300 C   0  0  0  0  0  0  0  0  0  0  0  0
  139.4630   73.6870  222.3210 N   0  0  0  0  0  0  0  0  0  0  0  0
  137.7650   72.3320  223.4440 H   0  0  0  0  0  0  0  0  0  0  0  0
  136.3319   70.2740  223.3690 H   0  0  0  0  0  0  0  0  0  0  0  0
  137.9795   69.4188  222.9651 H   0  0  0  0  0  0  0  0  0  0  0  0
  138.4953   66.9218  224.7669 H   0  0  0  0  0  0  0  0  0  0  0  0
  139.5045   68.0312  223.8396 H   0  0  0  0  0  0  0  0  0  0  0  0
  140.5551   66.3207  225.6560 H   0  0  0  0  0  0  0  0  0  0  0  0
  141.2751   67.9092  225.4217 H   0  0  0  0  0  0  0  0  0  0  0  0
  139.2566   67.0047  227.5514 H   0  0  0  0  0  0  0  0  0  0  0  0
  140.7356   67.8762  227.8337 H   0  0  0  0  0  0  0  0  0  0  0  0
  138.3589   69.2544  227.5908 H   0  0  0  0  0  0  0  0  0  0  0  0
  139.7941   70.4329  229.1183 H   0  0  0  0  0  0  0  0  0  0  0  0
  141.2159   72.4261  229.3356 H   0  0  0  0  0  0  0  0  0  0  0  0
  142.2890   73.4391  227.3314 H   0  0  0  0  0  0  0  0  0  0  0  0
  141.8868   72.3861  225.1171 H   0  0  0  0  0  0  0  0  0  0  0  0
  140.4705   70.3986  224.8986 H   0  0  0  0  0  0  0  0  0  0  0  0
  141.3451   71.3140  220.8227 H   0  0  0  0  0  0  0  0  0  0  0  0
  142.5591   73.3564  220.0903 H   0  0  0  0  0  0  0  0  0  0  0  0
  141.9405   77.9939  220.8310 H   0  0  0  0  0  0  0  0  0  0  0  0
  139.9270   78.1820  222.2795 H   0  0  0  0  0  0  0  0  0  0  0  0
  138.7371   76.0842  222.9931 H   0  0  0  0  0  0  0  0  0  0  0  0
  1  2  2  0
  2  3  1  0
  3  4  1  0
  4  5  1  0
  5  6  2  0
  5  7  1  0
  7  8  1  0
  8  9  1  0
  9 10  1  0
 10 11  1  0
 11 12  1  0
 12 13  2  0
 13 14  1  0
 14 15  2  0
 15 16  1  0
 16 17  2  0
  2 18  1  0
 18 19  2  0
 19 20  1  0
 20 21  2  0
 21 22  1  0
 22 23  1  0
 22 24  2  0
 24 25  1  0
 25 26  2  0
 26 27  1  0
 27 28  2  0
 11  7  1  0
 17 12  1  0
 28 18  1  0
 27 21  1  0
  3 29  1  0
  4 30  1  0
  4 31  1  0
  8 32  1  0
  8 33  1  0
  9 34  1  0
  9 35  1  0
 10 36  1  0
 10 37  1  0
 11 38  1  1
 13 39  1  0
 14 40  1  0
 15 41  1  0
 16 42  1  0
 17 43  1  0
 19 44  1  0
 20 45  1  0
 24 46  1  0
 25 47  1  0
 26 48  1  0
M  END
>  <smiles>  (24) 
O=C(NCC(=O)N1CCC[C@H]1c1ccccc1)c1ccc2c(Cl)cccc2n1

>  <score_type>  (24) 
oracle

>  <origin>  (24) 
autodockgpu

>  <m_score__min__energy>  (24) 
-9.3100000000000005

>  <m_primary>  (24) 
energy

>  <rmsd>  (24) 
8.251915698515063

>  <m_score__min__rmsd>  (24) 
8.251915698515063

>  <meeko>  (24) 
{"free_energy": -8.46, "intermolecular_energy": -9.95, "internal_energy": -2.06, "cluster_size": 3, "cluster_id": 4, "rank_in_cluster": 2}

>  <energy>  (24) 
-9.06

>  <cluster_rmsd>  (24) 
0.38

>  <cluster>  (24) 
3

$$$$

     RDKit          3D

 48 51  0  0  0  0  0  0  0  0999 V2000
  139.3370   74.4490  221.5670 O   0  0  0  0  0  0  0  0  0  0  0  0
  140.5450   74.8110  221.5350 C   0  0  0  0  0  0  0  0  0  0  0  0
  140.8260   76.1650  221.9980 N   0  0  0  0  0  0  0  0  0  0  0  0
  139.7140   76.9180  222.4300 C   0  0  0  0  0  0  0  0  0  0  0  0
  139.8070   78.3090  222.7460 C   0  0  0  0  0  0  0  0  0  0  0  0
  138.7200   78.8390  223.2650 O   0  0  0  0  0  0  0  0  0  0  0  0
  140.8450   79.2660  222.6180 N   0  0  0  0  0  0  0  0  0  0  0  0
  141.8530   79.3350  223.7040 C   0  0  0  0  0  0  0  0  0  0  0  0
  142.9010   80.2570  223.1930 C   0  0  0  0  0  0  0  0  0  0  0  0
  142.1580   81.1920  222.2740 C   0  0  0  0  0  0  0  0  0  0  0  0
  141.1680   80.2410  221.6170 C   0  0  1  0  0  0  0  0  0  0  0  0
  141.6810   79.7060  220.3520 C   0  0  0  0  0  0  0  0  0  0  0  0
  141.8480   78.3640  220.1030 C   0  0  0  0  0  0  0  0  0  0  0  0
  142.3530   77.8730  218.9060 C   0  0  0  0  0  0  0  0  0  0  0  0
  142.7160   78.7300  217.8950 C   0  0  0  0  0  0  0  0  0  0  0  0
  142.5590   80.0810  218.1170 C   0  0  0  0  0  0  0  0  0  0  0  0
  142.0580   80.5630  219.3080 C   0  0  0  0  0  0  0  0  0  0  0  0
  141.6290   73.9660  221.0720 C   0  0  0  0  0  0  0  0  0  0  0  0
  141.3200   72.6620  220.7450 C   0  0  0  0  0  0  0  0  0  0  0  0
  142.3350   71.8520  220.3070 C   0  0  0  0  0  0  0  0  0  0  0  0
  143.6090   72.3420  220.2040 C   0  0  0  0  0  0  0  0  0  0  0  0
  144.6670   71.5520  219.7620 C   0  0  0  0  0  0  0  0  0  0  0  0
  144.3820   69.8890  219.3240 Cl  0  0  0  0  0  0  0  0  0  0  0  0
  145.9470   72.0680  219.6650 C   0  0  0  0  0  0  0  0  0  0  0  0
  146.2140   73.3850  220.0040 C   0  0  0  0  0  0  0  0  0  0  0  0
  145.1640   74.1900  220.4480 C   0  0  0  0  0  0  0  0  0  0  0  0
  143.8990   73.6500  220.5350 C   0  0  0  0  0  0  0  0  0  0  0  0
  142.8870   74.4430  220.9680 N   0  0  0  0  0  0  0  0  0  0  0  0
  141.8230   76.4190  221.9500 H   0  0  0  0  0  0  0  0  0  0  0  0
  138.9601   76.8350  221.6333 H   0  0  0  0  0  0  0  0  0  0  0  0
  139.5095   76.4749  223.4158 H   0  0  0  0  0  0  0  0  0  0  0  0
  141.4029   79.7329  224.6254 H   0  0  0  0  0  0  0  0  0  0  0  0
  142.2593   78.3444  223.9563 H   0  0  0  0  0  0  0  0  0  0  0  0
  143.3681   80.8125  224.0196 H   0  0  0  0  0  0  0  0  0  0  0  0
  143.7163   79.7245  222.6814 H   0  0  0  0  0  0  0  0  0  0  0  0
  141.6425   81.9842  222.8367 H   0  0  0  0  0  0  0  0  0  0  0  0
  142.8021   81.7322  221.5645 H   0  0  0  0  0  0  0  0  0  0  0  0
  140.2422   80.7424  221.2983 H   0  0  0  0  0  0  0  0  0  0  0  0
  141.5687   77.6461  220.8882 H   0  0  0  0  0  0  0  0  0  0  0  0
  142.4635   76.7876  218.7659 H   0  0  0  0  0  0  0  0  0  0  0  0
  143.1172   78.3515  216.9433 H   0  0  0  0  0  0  0  0  0  0  0  0
  142.8399   80.7916  217.3257 H   0  0  0  0  0  0  0  0  0  0  0  0
  141.9512   81.6495  219.4428 H   0  0  0  0  0  0  0  0  0  0  0  0
  140.2908   72.2840  220.8331 H   0  0  0  0  0  0  0  0  0  0  0  0
  142.1256   70.8062  220.0378 H   0  0  0  0  0  0  0  0  0  0  0  0
  146.7656   71.4229  219.3133 H   0  0  0  0  0  0  0  0  0  0  0  0
  147.2343   73.7882  219.9246 H   0  0  0  0  0  0  0  0  0  0  0  0
  145.3433   75.2395  220.7243 H   0  0  0  0  0  0  0  0  0  0  0  0
  1  2  2  0
  2  3  1  0
  3  4  1  0
  4  5  1  0
  5  6  2  0
  5  7  1  0
  7  8  1  0
  8  9  1  0
  9 10  1  0
 10 11  1  0
 11 12  1  0
 12 13  2  0
 13 14  1  0
 14 15  2  0
 15 16  1  0
 16 17  2  0
  2 18  1  0
 18 19  2  0
 19 20  1  0
 20 21  2  0
 21 22  1  0
 22 23  1  0
 22 24  2  0
 24 25  1  0
 25 26  2  0
 26 27  1  0
 27 28  2  0
 11  7  1  0
 17 12  1  0
 28 18  1  0
 27 21  1  0
  3 29  1  0
  4 30  1  0
  4 31  1  0
  8 32  1  0
  8 33  1  0
  9 34  1  0
  9 35  1  0
 10 36  1  0
 10 37  1  0
 11 38  1  6
 13 39  1  0
 14 40  1  0
 15 41  1  0
 16 42  1  0
 17 43  1  0
 19 44  1  0
 20 45  1  0
 24 46  1  0
 25 47  1  0
 26 48  1  0
M  END
>  <smiles>  (25) 
O=C(NCC(=O)N1CCC[C@H]1c1ccccc1)c1ccc2c(Cl)cccc2n1

>  <score_type>  (25) 
oracle

>  <origin>  (25) 
autodockgpu

>  <m_score__min__energy>  (25) 
-9.3100000000000005

>  <m_primary>  (25) 
energy

>  <rmsd>  (25) 
6.44445047309558

>  <m_score__min__rmsd>  (25) 
6.44445047309558

>  <meeko>  (25) 
{"free_energy": -7.74, "intermolecular_energy": -9.23, "internal_energy": -1.92, "cluster_size": 3, "cluster_id": 5, "rank_in_cluster": 2}

>  <energy>  (25) 
-9.02

>  <cluster_rmsd>  (25) 
0.23

>  <cluster>  (25) 
3

$$$$

     RDKit          3D

 48 51  0  0  0  0  0  0  0  0999 V2000
  139.4370   74.3180  221.9520 O   0  0  0  0  0  0  0  0  0  0  0  0
  140.5990   74.7390  221.6970 C   0  0  0  0  0  0  0  0  0  0  0  0
  140.8370   76.1590  221.9310 N   0  0  0  0  0  0  0  0  0  0  0  0
  139.7410   76.9020  222.4180 C   0  0  0  0  0  0  0  0  0  0  0  0
  139.8330   78.2960  222.7180 C   0  0  0  0  0  0  0  0  0  0  0  0
  138.7390   78.8360  223.2110 O   0  0  0  0  0  0  0  0  0  0  0  0
  140.8770   79.2470  222.5980 N   0  0  0  0  0  0  0  0  0  0  0  0
  141.8860   79.3010  223.6840 C   0  0  0  0  0  0  0  0  0  0  0  0
  142.9390   80.2210  223.1800 C   0  0  0  0  0  0  0  0  0  0  0  0
  142.2020   81.1680  222.2700 C   0  0  0  0  0  0  0  0  0  0  0  0
  141.2050   80.2290  221.6050 C   0  0  1  0  0  0  0  0  0  0  0  0
  141.7150   79.7020  220.3360 C   0  0  0  0  0  0  0  0  0  0  0  0
  141.8590   78.3610  220.0690 C   0  0  0  0  0  0  0  0  0  0  0  0
  142.3600   77.8770  218.8680 C   0  0  0  0  0  0  0  0  0  0  0  0
  142.7430   78.7410  217.8700 C   0  0  0  0  0  0  0  0  0  0  0  0
  142.6100   80.0910  218.1100 C   0  0  0  0  0  0  0  0  0  0  0  0
  142.1120   80.5650  219.3040 C   0  0  0  0  0  0  0  0  0  0  0  0
  141.6710   73.9000  221.1960 C   0  0  0  0  0  0  0  0  0  0  0  0
  141.3570   72.5950  220.8800 C   0  0  0  0  0  0  0  0  0  0  0  0
  142.3600   71.7890  220.4060 C   0  0  0  0  0  0  0  0  0  0  0  0
  143.6270   72.2860  220.2590 C   0  0  0  0  0  0  0  0  0  0  0  0
  144.6740   71.5010  219.7810 C   0  0  0  0  0  0  0  0  0  0  0  0
  144.3810   69.8370  219.3520 Cl  0  0  0  0  0  0  0  0  0  0  0  0
  145.9470   72.0230  219.6400 C   0  0  0  0  0  0  0  0  0  0  0  0
  146.2190   73.3420  219.9710 C   0  0  0  0  0  0  0  0  0  0  0  0
  145.1800   74.1420  220.4510 C   0  0  0  0  0  0  0  0  0  0  0  0
  143.9230   73.5950  220.5820 C   0  0  0  0  0  0  0  0  0  0  0  0
  142.9210   74.3830  221.0490 N   0  0  0  0  0  0  0  0  0  0  0  0
  141.7960   76.4590  221.7050 H   0  0  0  0  0  0  0  0  0  0  0  0
  138.9456   76.8032  221.6646 H   0  0  0  0  0  0  0  0  0  0  0  0
  139.5971   76.4646  223.4170 H   0  0  0  0  0  0  0  0  0  0  0  0
  141.4388   79.6939  224.6090 H   0  0  0  0  0  0  0  0  0  0  0  0
  142.2866   78.3060  223.9279 H   0  0  0  0  0  0  0  0  0  0  0  0
  143.4100   80.7665  224.0110 H   0  0  0  0  0  0  0  0  0  0  0  0
  143.7504   79.6877  222.6631 H   0  0  0  0  0  0  0  0  0  0  0  0
  141.6919   81.9587  222.8398 H   0  0  0  0  0  0  0  0  0  0  0  0
  142.8493   81.7099  221.5648 H   0  0  0  0  0  0  0  0  0  0  0  0
  140.2820   80.7385  221.2912 H   0  0  0  0  0  0  0  0  0  0  0  0
  141.5634   77.6377  220.8432 H   0  0  0  0  0  0  0  0  0  0  0  0
  142.4513   76.7917  218.7137 H   0  0  0  0  0  0  0  0  0  0  0  0
  143.1411   78.3682  216.9147 H   0  0  0  0  0  0  0  0  0  0  0  0
  142.9083   80.8072  217.3302 H   0  0  0  0  0  0  0  0  0  0  0  0
  142.0232   81.6514  219.4522 H   0  0  0  0  0  0  0  0  0  0  0  0
  140.3333   72.2123  221.0044 H   0  0  0  0  0  0  0  0  0  0  0  0
  142.1463   70.7423  220.1437 H   0  0  0  0  0  0  0  0  0  0  0  0
  146.7561   71.3822  219.2595 H   0  0  0  0  0  0  0  0  0  0  0  0
  147.2341   73.7503  219.8575 H   0  0  0  0  0  0  0  0  0  0  0  0
  145.3627   75.1928  220.7203 H   0  0  0  0  0  0  0  0  0  0  0  0
  1  2  2  0
  2  3  1  0
  3  4  1  0
  4  5  1  0
  5  6  2  0
  5  7  1  0
  7  8  1  0
  8  9  1  0
  9 10  1  0
 10 11  1  0
 11 12  1  0
 12 13  2  0
 13 14  1  0
 14 15  2  0
 15 16  1  0
 16 17  2  0
  2 18  1  0
 18 19  2  0
 19 20  1  0
 20 21  2  0
 21 22  1  0
 22 23  1  0
 22 24  2  0
 24 25  1  0
 25 26  2  0
 26 27  1  0
 27 28  2  0
 11  7  1  0
 17 12  1  0
 28 18  1  0
 27 21  1  0
  3 29  1  0
  4 30  1  0
  4 31  1  0
  8 32  1  0
  8 33  1  0
  9 34  1  0
  9 35  1  0
 10 36  1  0
 10 37  1  0
 11 38  1  6
 13 39  1  0
 14 40  1  0
 15 41  1  0
 16 42  1  0
 17 43  1  0
 19 44  1  0
 20 45  1  0
 24 46  1  0
 25 47  1  0
 26 48  1  0
M  END
>  <smiles>  (26) 
O=C(NCC(=O)N1CCC[C@H]1c1ccccc1)c1ccc2c(Cl)cccc2n1

>  <score_type>  (26) 
oracle

>  <origin>  (26) 
autodockgpu

>  <m_score__min__energy>  (26) 
-9.3100000000000005

>  <m_primary>  (26) 
energy

>  <rmsd>  (26) 
6.425230959854457

>  <m_score__min__rmsd>  (26) 
6.425230959854457

>  <meeko>  (26) 
{"free_energy": -7.84, "intermolecular_energy": -9.33, "internal_energy": -1.88, "cluster_size": 3, "cluster_id": 5, "rank_in_cluster": 1}

>  <energy>  (26) 
-9.02

>  <cluster_rmsd>  (26) 
0.37

>  <cluster>  (26) 
3

$$$$

     RDKit          3D

 48 51  0  0  0  0  0  0  0  0999 V2000
  141.4440   72.1370  221.6390 O   0  0  0  0  0  0  0  0  0  0  0  0
  140.5210   72.2700  222.4890 C   0  0  0  0  0  0  0  0  0  0  0  0
  139.5690   73.3480  222.2460 N   0  0  0  0  0  0  0  0  0  0  0  0
  139.7870   74.1210  221.0860 C   0  0  0  0  0  0  0  0  0  0  0  0
  140.7770   75.1500  221.0260 C   0  0  0  0  0  0  0  0  0  0  0  0
  140.9330   75.8410  222.1340 O   0  0  0  0  0  0  0  0  0  0  0  0
  141.6500   75.5980  220.0030 N   0  0  0  0  0  0  0  0  0  0  0  0
  141.8660   77.0600  219.8750 C   0  0  0  0  0  0  0  0  0  0  0  0
  142.9640   77.1980  218.8830 C   0  0  0  0  0  0  0  0  0  0  0  0
  142.8150   75.9920  217.9920 C   0  0  0  0  0  0  0  0  0  0  0  0
  142.4230   74.9220  219.0020 C   0  0  1  0  0  0  0  0  0  0  0  0
  143.5890   74.1820  219.4940 C   0  0  0  0  0  0  0  0  0  0  0  0
  143.9240   72.9160  219.0720 C   0  0  0  0  0  0  0  0  0  0  0  0
  145.0220   72.2210  219.5600 C   0  0  0  0  0  0  0  0  0  0  0  0
  145.8420   72.7840  220.5080 C   0  0  0  0  0  0  0  0  0  0  0  0
  145.5320   74.0520  220.9490 C   0  0  0  0  0  0  0  0  0  0  0  0
  144.4400   74.7370  220.4610 C   0  0  0  0  0  0  0  0  0  0  0  0
  140.3740   71.4250  223.6580 C   0  0  0  0  0  0  0  0  0  0  0  0
  139.8620   70.1590  223.4650 C   0  0  0  0  0  0  0  0  0  0  0  0
  139.7160   69.3500  224.5620 C   0  0  0  0  0  0  0  0  0  0  0  0
  140.0750   69.8050  225.8020 C   0  0  0  0  0  0  0  0  0  0  0  0
  139.9440   69.0150  226.9410 C   0  0  0  0  0  0  0  0  0  0  0  0
  139.3070   67.3980  226.8040 Cl  0  0  0  0  0  0  0  0  0  0  0  0
  140.3140   69.4930  228.1860 C   0  0  0  0  0  0  0  0  0  0  0  0
  140.8250   70.7730  228.3350 C   0  0  0  0  0  0  0  0  0  0  0  0
  140.9620   71.5780  227.2030 C   0  0  0  0  0  0  0  0  0  0  0  0
  140.5860   71.0750  225.9770 C   0  0  0  0  0  0  0  0  0  0  0  0
  140.7260   71.8670  224.8840 N   0  0  0  0  0  0  0  0  0  0  0  0
  138.8380   73.4220  222.9670 H   0  0  0  0  0  0  0  0  0  0  0  0
  140.0375   73.4085  220.2862 H   0  0  0  0  0  0  0  0  0  0  0  0
  138.8541   74.7003  221.0213 H   0  0  0  0  0  0  0  0  0  0  0  0
  140.9531   77.5561  219.5136 H   0  0  0  0  0  0  0  0  0  0  0  0
  142.1167   77.5278  220.8385 H   0  0  0  0  0  0  0  0  0  0  0  0
  142.8515   78.1265  218.3040 H   0  0  0  0  0  0  0  0  0  0  0  0
  143.9550   77.2498  219.3576 H   0  0  0  0  0  0  0  0  0  0  0  0
  142.0277   76.1426  217.2387 H   0  0  0  0  0  0  0  0  0  0  0  0
  143.7141   75.7508  217.4060 H   0  0  0  0  0  0  0  0  0  0  0  0
  141.8097   74.1230  218.5599 H   0  0  0  0  0  0  0  0  0  0  0  0
  143.2923   72.4321  218.3126 H   0  0  0  0  0  0  0  0  0  0  0  0
  145.2377   71.2099  219.1842 H   0  0  0  0  0  0  0  0  0  0  0  0
  146.7147   72.2418  220.9008 H   0  0  0  0  0  0  0  0  0  0  0  0
  146.1704   74.5284  221.7076 H   0  0  0  0  0  0  0  0  0  0  0  0
  144.2299   75.7478  220.8407 H   0  0  0  0  0  0  0  0  0  0  0  0
  139.5794   69.8090  222.4612 H   0  0  0  0  0  0  0  0  0  0  0  0
  139.3100   68.3343  224.4456 H   0  0  0  0  0  0  0  0  0  0  0  0
  140.2010   68.8480  229.0699 H   0  0  0  0  0  0  0  0  0  0  0  0
  141.1172   71.1474  229.3272 H   0  0  0  0  0  0  0  0  0  0  0  0
  141.3640   72.5983  227.2886 H   0  0  0  0  0  0  0  0  0  0  0  0
  1  2  2  0
  2  3  1  0
  3  4  1  0
  4  5  1  0
  5  6  2  0
  5  7  1  0
  7  8  1  0
  8  9  1  0
  9 10  1  0
 10 11  1  0
 11 12  1  0
 12 13  2  0
 13 14  1  0
 14 15  2  0
 15 16  1  0
 16 17  2  0
  2 18  1  0
 18 19  2  0
 19 20  1  0
 20 21  2  0
 21 22  1  0
 22 23  1  0
 22 24  2  0
 24 25  1  0
 25 26  2  0
 26 27  1  0
 27 28  2  0
 11  7  1  0
 17 12  1  0
 28 18  1  0
 27 21  1  0
  3 29  1  0
  4 30  1  0
  4 31  1  0
  8 32  1  0
  8 33  1  0
  9 34  1  0
  9 35  1  0
 10 36  1  0
 10 37  1  0
 11 38  1  6
 13 39  1  0
 14 40  1  0
 15 41  1  0
 16 42  1  0
 17 43  1  0
 19 44  1  0
 20 45  1  0
 24 46  1  0
 25 47  1  0
 26 48  1  0
M  END
>  <smiles>  (27) 
O=C(NCC(=O)N1CCC[C@H]1c1ccccc1)c1ccc2c(Cl)cccc2n1

>  <score_type>  (27) 
oracle

>  <origin>  (27) 
autodockgpu

>  <m_score__min__energy>  (27) 
-9.3100000000000005

>  <m_primary>  (27) 
energy

>  <rmsd>  (27) 
2.254195145158667

>  <m_score__min__rmsd>  (27) 
2.254195145158667

>  <meeko>  (27) 
{"free_energy": -9.05, "intermolecular_energy": -10.54, "internal_energy": -1.52, "cluster_size": 4, "cluster_id": 2, "rank_in_cluster": 3}

>  <energy>  (27) 
-9.02

>  <cluster_rmsd>  (27) 
0.58

>  <cluster>  (27) 
3

$$$$

     RDKit          3D

 48 51  0  0  0  0  0  0  0  0999 V2000
  141.2990   73.7440  220.8190 O   0  0  0  0  0  0  0  0  0  0  0  0
  140.6490   74.5880  221.4960 C   0  0  0  0  0  0  0  0  0  0  0  0
  139.5700   74.0590  222.3230 N   0  0  0  0  0  0  0  0  0  0  0  0
  139.3740   72.6630  222.2730 C   0  0  0  0  0  0  0  0  0  0  0  0
  139.7070   71.8030  223.3650 C   0  0  0  0  0  0  0  0  0  0  0  0
  140.6910   72.2250  224.1300 O   0  0  0  0  0  0  0  0  0  0  0  0
  139.1910   70.5620  223.8150 N   0  0  0  0  0  0  0  0  0  0  0  0
  139.2270   69.4200  222.8680 C   0  0  0  0  0  0  0  0  0  0  0  0
  138.8260   68.2400  223.6790 C   0  0  0  0  0  0  0  0  0  0  0  0
  137.9160   68.8070  224.7370 C   0  0  0  0  0  0  0  0  0  0  0  0
  138.6080   70.1270  225.0500 C   0  0  1  0  0  0  0  0  0  0  0  0
  139.5340   70.0020  226.1800 C   0  0  0  0  0  0  0  0  0  0  0  0
  140.1890   71.0680  226.7510 C   0  0  0  0  0  0  0  0  0  0  0  0
  141.0780   70.9320  227.8090 C   0  0  0  0  0  0  0  0  0  0  0  0
  141.3450   69.6940  228.3440 C   0  0  0  0  0  0  0  0  0  0  0  0
  140.7020   68.6080  227.7920 C   0  0  0  0  0  0  0  0  0  0  0  0
  139.8220   68.7490  226.7410 C   0  0  0  0  0  0  0  0  0  0  0  0
  140.9200   76.0120  221.4850 C   0  0  0  0  0  0  0  0  0  0  0  0
  141.0070   76.6310  220.2560 C   0  0  0  0  0  0  0  0  0  0  0  0
  141.2640   77.9780  220.2310 C   0  0  0  0  0  0  0  0  0  0  0  0
  141.4250   78.6670  221.4020 C   0  0  0  0  0  0  0  0  0  0  0  0
  141.6870   80.0350  221.4200 C   0  0  0  0  0  0  0  0  0  0  0  0
  141.8160   80.9110  219.9190 Cl  0  0  0  0  0  0  0  0  0  0  0  0
  141.8460   80.7130  222.6160 C   0  0  0  0  0  0  0  0  0  0  0  0
  141.7510   80.0510  223.8300 C   0  0  0  0  0  0  0  0  0  0  0  0
  141.4890   78.6800  223.8290 C   0  0  0  0  0  0  0  0  0  0  0  0
  141.3350   78.0310  222.6240 C   0  0  0  0  0  0  0  0  0  0  0  0
  141.0800   76.6980  222.6360 N   0  0  0  0  0  0  0  0  0  0  0  0
  139.0650   74.7830  222.8530 H   0  0  0  0  0  0  0  0  0  0  0  0
  138.3017   72.5114  222.0802 H   0  0  0  0  0  0  0  0  0  0  0  0
  140.1083   72.3583  221.5127 H   0  0  0  0  0  0  0  0  0  0  0  0
  138.5195   69.5801  222.0410 H   0  0  0  0  0  0  0  0  0  0  0  0
  140.2192   69.2913  222.4108 H   0  0  0  0  0  0  0  0  0  0  0  0
  138.2921   67.5045  223.0593 H   0  0  0  0  0  0  0  0  0  0  0  0
  139.6903   67.7114  224.1075 H   0  0  0  0  0  0  0  0  0  0  0  0
  136.8991   68.9675  224.3496 H   0  0  0  0  0  0  0  0  0  0  0  0
  137.7781   68.1526  225.6103 H   0  0  0  0  0  0  0  0  0  0  0  0
  137.9111   70.9010  225.4039 H   0  0  0  0  0  0  0  0  0  0  0  0
  139.9999   72.0751  226.3510 H   0  0  0  0  0  0  0  0  0  0  0  0
  141.5731   71.8229  228.2228 H   0  0  0  0  0  0  0  0  0  0  0  0
  142.0468   69.5750  229.1826 H   0  0  0  0  0  0  0  0  0  0  0  0
  140.8955   67.6048  228.1997 H   0  0  0  0  0  0  0  0  0  0  0  0
  139.3317   67.8540  226.3305 H   0  0  0  0  0  0  0  0  0  0  0  0
  140.8743   76.0619  219.3241 H   0  0  0  0  0  0  0  0  0  0  0  0
  141.3408   78.5049  219.2685 H   0  0  0  0  0  0  0  0  0  0  0  0
  142.0509   81.7937  222.6029 H   0  0  0  0  0  0  0  0  0  0  0  0
  141.8797   80.5960  224.7768 H   0  0  0  0  0  0  0  0  0  0  0  0
  141.4068   78.1264  224.7760 H   0  0  0  0  0  0  0  0  0  0  0  0
  1  2  2  0
  2  3  1  0
  3  4  1  0
  4  5  1  0
  5  6  2  0
  5  7  1  0
  7  8  1  0
  8  9  1  0
  9 10  1  0
 10 11  1  0
 11 12  1  0
 12 13  2  0
 13 14  1  0
 14 15  2  0
 15 16  1  0
 16 17  2  0
  2 18  1  0
 18 19  2  0
 19 20  1  0
 20 21  2  0
 21 22  1  0
 22 23  1  0
 22 24  2  0
 24 25  1  0
 25 26  2  0
 26 27  1  0
 27 28  2  0
 11  7  1  0
 17 12  1  0
 28 18  1  0
 27 21  1  0
  3 29  1  0
  4 30  1  0
  4 31  1  0
  8 32  1  0
  8 33  1  0
  9 34  1  0
  9 35  1  0
 10 36  1  0
 10 37  1  0
 11 38  1  1
 13 39  1  0
 14 40  1  0
 15 41  1  0
 16 42  1  0
 17 43  1  0
 19 44  1  0
 20 45  1  0
 24 46  1  0
 25 47  1  0
 26 48  1  0
M  END
>  <smiles>  (28) 
O=C(NCC(=O)N1CCC[C@H]1c1ccccc1)c1ccc2c(Cl)cccc2n1

>  <score_type>  (28) 
oracle

>  <origin>  (28) 
autodockgpu

>  <m_score__min__energy>  (28) 
-9.3100000000000005

>  <m_primary>  (28) 
energy

>  <rmsd>  (28) 
8.24699038237456

>  <m_score__min__rmsd>  (28) 
8.24699038237456

>  <meeko>  (28) 
{"free_energy": -8.78, "intermolecular_energy": -10.28, "internal_energy": -1.23, "cluster_size": 24, "cluster_id": 3, "rank_in_cluster": 12}

>  <energy>  (28) 
-9.01

>  <cluster_rmsd>  (28) 
0.23

>  <cluster>  (28) 
3

$$$$

     RDKit          3D

 48 51  0  0  0  0  0  0  0  0999 V2000
  141.4230   73.8130  220.8370 O   0  0  0  0  0  0  0  0  0  0  0  0
  140.7040   74.6340  221.4710 C   0  0  0  0  0  0  0  0  0  0  0  0
  139.5940   74.0690  222.2290 N   0  0  0  0  0  0  0  0  0  0  0  0
  139.4490   72.6670  222.1690 C   0  0  0  0  0  0  0  0  0  0  0  0
  139.7290   71.8180  223.2840 C   0  0  0  0  0  0  0  0  0  0  0  0
  140.6980   72.2320  224.0720 O   0  0  0  0  0  0  0  0  0  0  0  0
  139.1730   70.5960  223.7370 N   0  0  0  0  0  0  0  0  0  0  0  0
  139.1790   69.4490  222.7960 C   0  0  0  0  0  0  0  0  0  0  0  0
  138.7380   68.2860  223.6110 C   0  0  0  0  0  0  0  0  0  0  0  0
  137.8410   68.8860  224.6620 C   0  0  0  0  0  0  0  0  0  0  0  0
  138.5720   70.1850  224.9720 C   0  0  1  0  0  0  0  0  0  0  0  0
  139.4890   70.0360  226.1060 C   0  0  0  0  0  0  0  0  0  0  0  0
  140.1480   71.0890  226.6970 C   0  0  0  0  0  0  0  0  0  0  0  0
  141.0280   70.9310  227.7600 C   0  0  0  0  0  0  0  0  0  0  0  0
  141.2820   69.6840  228.2790 C   0  0  0  0  0  0  0  0  0  0  0  0
  140.6350   68.6110  227.7070 C   0  0  0  0  0  0  0  0  0  0  0  0
  139.7630   68.7740  226.6520 C   0  0  0  0  0  0  0  0  0  0  0  0
  140.9280   76.0670  221.4770 C   0  0  0  0  0  0  0  0  0  0  0  0
  140.9510   76.7080  220.2560 C   0  0  0  0  0  0  0  0  0  0  0  0
  141.1620   78.0630  220.2460 C   0  0  0  0  0  0  0  0  0  0  0  0
  141.3420   78.7380  221.4230 C   0  0  0  0  0  0  0  0  0  0  0  0
  141.5590   80.1130  221.4560 C   0  0  0  0  0  0  0  0  0  0  0  0
  141.6060   81.0180  219.9660 Cl  0  0  0  0  0  0  0  0  0  0  0  0
  141.7390   80.7760  222.6570 C   0  0  0  0  0  0  0  0  0  0  0  0
  141.7080   80.0920  223.8620 C   0  0  0  0  0  0  0  0  0  0  0  0
  141.4920   78.7130  223.8460 C   0  0  0  0  0  0  0  0  0  0  0  0
  141.3170   78.0790  222.6350 C   0  0  0  0  0  0  0  0  0  0  0  0
  141.1060   76.7380  222.6330 N   0  0  0  0  0  0  0  0  0  0  0  0
  139.0330   74.7750  222.7260 H   0  0  0  0  0  0  0  0  0  0  0  0
  138.3994   72.4797  221.8983 H   0  0  0  0  0  0  0  0  0  0  0  0
  140.2478   72.3874  221.4663 H   0  0  0  0  0  0  0  0  0  0  0  0
  138.4810   69.6264  221.9646 H   0  0  0  0  0  0  0  0  0  0  0  0
  140.1690   69.2878  222.3445 H   0  0  0  0  0  0  0  0  0  0  0  0
  138.1846   67.5642  222.9923 H   0  0  0  0  0  0  0  0  0  0  0  0
  139.5836   67.7333  224.0462 H   0  0  0  0  0  0  0  0  0  0  0  0
  136.8314   69.0760  224.2689 H   0  0  0  0  0  0  0  0  0  0  0  0
  137.6788   68.2404  225.5377 H   0  0  0  0  0  0  0  0  0  0  0  0
  137.8985   70.9821  225.3198 H   0  0  0  0  0  0  0  0  0  0  0  0
  139.9698   72.1031  226.3098 H   0  0  0  0  0  0  0  0  0  0  0  0
  141.5263   71.8122  228.1904 H   0  0  0  0  0  0  0  0  0  0  0  0
  141.9769   69.5478  229.1208 H   0  0  0  0  0  0  0  0  0  0  0  0
  140.8184   67.6006  228.1012 H   0  0  0  0  0  0  0  0  0  0  0  0
  139.2680   67.8887  226.2263 H   0  0  0  0  0  0  0  0  0  0  0  0
  140.8047   76.1498  219.3195 H   0  0  0  0  0  0  0  0  0  0  0  0
  141.1866   78.6081  219.2909 H   0  0  0  0  0  0  0  0  0  0  0  0
  141.9093   81.8627  222.6554 H   0  0  0  0  0  0  0  0  0  0  0  0
  141.8509   80.6258  224.8131 H   0  0  0  0  0  0  0  0  0  0  0  0
  141.4620   78.1413  224.7853 H   0  0  0  0  0  0  0  0  0  0  0  0
  1  2  2  0
  2  3  1  0
  3  4  1  0
  4  5  1  0
  5  6  2  0
  5  7  1  0
  7  8  1  0
  8  9  1  0
  9 10  1  0
 10 11  1  0
 11 12  1  0
 12 13  2  0
 13 14  1  0
 14 15  2  0
 15 16  1  0
 16 17  2  0
  2 18  1  0
 18 19  2  0
 19 20  1  0
 20 21  2  0
 21 22  1  0
 22 23  1  0
 22 24  2  0
 24 25  1  0
 25 26  2  0
 26 27  1  0
 27 28  2  0
 11  7  1  0
 17 12  1  0
 28 18  1  0
 27 21  1  0
  3 29  1  0
  4 30  1  0
  4 31  1  0
  8 32  1  0
  8 33  1  0
  9 34  1  0
  9 35  1  0
 10 36  1  0
 10 37  1  0
 11 38  1  1
 13 39  1  0
 14 40  1  0
 15 41  1  0
 16 42  1  0
 17 43  1  0
 19 44  1  0
 20 45  1  0
 24 46  1  0
 25 47  1  0
 26 48  1  0
M  END
>  <smiles>  (29) 
O=C(NCC(=O)N1CCC[C@H]1c1ccccc1)c1ccc2c(Cl)cccc2n1

>  <score_type>  (29) 
oracle

>  <origin>  (29) 
autodockgpu

>  <m_score__min__energy>  (29) 
-9.3100000000000005

>  <m_primary>  (29) 
energy

>  <rmsd>  (29) 
8.236898914973503

>  <m_score__min__rmsd>  (29) 
8.236898914973503

>  <meeko>  (29) 
{"free_energy": -8.76, "intermolecular_energy": -10.25, "internal_energy": -1.2, "cluster_size": 24, "cluster_id": 3, "rank_in_cluster": 15}

>  <energy>  (29) 
-8.99

>  <cluster_rmsd>  (29) 
0.21

>  <cluster>  (29) 
3

$$$$

     RDKit          3D

 48 51  0  0  0  0  0  0  0  0999 V2000
  140.4320   77.7050  219.1200 O   0  0  0  0  0  0  0  0  0  0  0  0
  141.6620   77.4250  219.1510 C   0  0  0  0  0  0  0  0  0  0  0  0
  142.5840   78.5390  218.9540 N   0  0  0  0  0  0  0  0  0  0  0  0
  141.9950   79.8050  218.7510 C   0  0  0  0  0  0  0  0  0  0  0  0
  141.5210   80.6120  219.8320 C   0  0  0  0  0  0  0  0  0  0  0  0
  140.8250   81.6690  219.4770 O   0  0  0  0  0  0  0  0  0  0  0  0
  141.6420   80.5140  221.2410 N   0  0  0  0  0  0  0  0  0  0  0  0
  141.4600   81.7540  222.0330 C   0  0  0  0  0  0  0  0  0  0  0  0
  141.4340   81.3010  223.4490 C   0  0  0  0  0  0  0  0  0  0  0  0
  142.2940   80.0650  223.4610 C   0  0  0  0  0  0  0  0  0  0  0  0
  141.9130   79.4240  222.1330 C   0  0  1  0  0  0  0  0  0  0  0  0
  140.8320   78.4470  222.2880 C   0  0  0  0  0  0  0  0  0  0  0  0
  141.0190   77.0860  222.2300 C   0  0  0  0  0  0  0  0  0  0  0  0
  139.9820   76.1720  222.3610 C   0  0  0  0  0  0  0  0  0  0  0  0
  138.6920   76.6020  222.5620 C   0  0  0  0  0  0  0  0  0  0  0  0
  138.4750   77.9610  222.6260 C   0  0  0  0  0  0  0  0  0  0  0  0
  139.5080   78.8630  222.4930 C   0  0  0  0  0  0  0  0  0  0  0  0
  142.1800   76.0880  219.3660 C   0  0  0  0  0  0  0  0  0  0  0  0
  141.3340   75.0310  219.1020 C   0  0  0  0  0  0  0  0  0  0  0  0
  141.8100   73.7610  219.3020 C   0  0  0  0  0  0  0  0  0  0  0  0
  143.0890   73.5700  219.7490 C   0  0  0  0  0  0  0  0  0  0  0  0
  143.6110   72.2970  219.9640 C   0  0  0  0  0  0  0  0  0  0  0  0
  142.6210   70.8940  219.6600 Cl  0  0  0  0  0  0  0  0  0  0  0  0
  144.9070   72.1270  220.4160 C   0  0  0  0  0  0  0  0  0  0  0  0
  145.7250   73.2170  220.6690 C   0  0  0  0  0  0  0  0  0  0  0  0
  145.2160   74.5000  220.4580 C   0  0  0  0  0  0  0  0  0  0  0  0
  143.9220   74.6400  220.0080 C   0  0  0  0  0  0  0  0  0  0  0  0
  143.4400   75.8930  219.8060 N   0  0  0  0  0  0  0  0  0  0  0  0
  143.5750   78.2630  218.9830 H   0  0  0  0  0  0  0  0  0  0  0  0
  142.7464   80.4109  218.2235 H   0  0  0  0  0  0  0  0  0  0  0  0
  141.0583   79.5395  218.2390 H   0  0  0  0  0  0  0  0  0  0  0  0
  142.2965   82.4480  221.8637 H   0  0  0  0  0  0  0  0  0  0  0  0
  140.5434   82.2941  221.7533 H   0  0  0  0  0  0  0  0  0  0  0  0
  141.8516   82.0726  224.1125 H   0  0  0  0  0  0  0  0  0  0  0  0
  140.4130   81.1057  223.8087 H   0  0  0  0  0  0  0  0  0  0  0  0
  143.3638   80.3190  223.4934 H   0  0  0  0  0  0  0  0  0  0  0  0
  142.1385   79.4162  224.3356 H   0  0  0  0  0  0  0  0  0  0  0  0
  142.7208   78.8101  221.7081 H   0  0  0  0  0  0  0  0  0  0  0  0
  142.0382   76.7033  222.0724 H   0  0  0  0  0  0  0  0  0  0  0  0
  140.1947   75.0943  222.3034 H   0  0  0  0  0  0  0  0  0  0  0  0
  137.8629   75.8869  222.6679 H   0  0  0  0  0  0  0  0  0  0  0  0
  137.4531   78.3347  222.7871 H   0  0  0  0  0  0  0  0  0  0  0  0
  139.2884   79.9394  222.5491 H   0  0  0  0  0  0  0  0  0  0  0  0
  140.3087   75.2019  218.7420 H   0  0  0  0  0  0  0  0  0  0  0  0
  141.1627   72.8942  219.1028 H   0  0  0  0  0  0  0  0  0  0  0  0
  145.2949   71.1104  220.5773 H   0  0  0  0  0  0  0  0  0  0  0  0
  146.7546   73.0741  221.0288 H   0  0  0  0  0  0  0  0  0  0  0  0
  145.8395   75.3860  220.6484 H   0  0  0  0  0  0  0  0  0  0  0  0
  1  2  2  0
  2  3  1  0
  3  4  1  0
  4  5  1  0
  5  6  2  0
  5  7  1  0
  7  8  1  0
  8  9  1  0
  9 10  1  0
 10 11  1  0
 11 12  1  0
 12 13  2  0
 13 14  1  0
 14 15  2  0
 15 16  1  0
 16 17  2  0
  2 18  1  0
 18 19  2  0
 19 20  1  0
 20 21  2  0
 21 22  1  0
 22 23  1  0
 22 24  2  0
 24 25  1  0
 25 26  2  0
 26 27  1  0
 27 28  2  0
 11  7  1  0
 17 12  1  0
 28 18  1  0
 27 21  1  0
  3 29  1  0
  4 30  1  0
  4 31  1  0
  8 32  1  0
  8 33  1  0
  9 34  1  0
  9 35  1  0
 10 36  1  0
 10 37  1  0
 11 38  1  6
 13 39  1  0
 14 40  1  0
 15 41  1  0
 16 42  1  0
 17 43  1  0
 19 44  1  0
 20 45  1  0
 24 46  1  0
 25 47  1  0
 26 48  1  0
M  END
>  <smiles>  (30) 
O=C(NCC(=O)N1CCC[C@H]1c1ccccc1)c1ccc2c(Cl)cccc2n1

>  <score_type>  (30) 
oracle

>  <origin>  (30) 
autodockgpu

>  <m_score__min__energy>  (30) 
-9.3100000000000005

>  <m_primary>  (30) 
energy

>  <rmsd>  (30) 
7.566966432788922

>  <m_score__min__rmsd>  (30) 
7.566966432788922

>  <meeko>  (30) 
{"free_energy": -7.07, "intermolecular_energy": -8.56, "internal_energy": -2.43, "cluster_size": 2, "cluster_id": 6, "rank_in_cluster": 2}

>  <energy>  (30) 
-8.78

>  <cluster_rmsd>  (30) 
1.47

>  <cluster>  (30) 
3

$$$$

     RDKit          3D

 48 51  0  0  0  0  0  0  0  0999 V2000
  139.3250   74.6260  221.1010 O   0  0  0  0  0  0  0  0  0  0  0  0
  140.5430   74.8860  221.3070 C   0  0  0  0  0  0  0  0  0  0  0  0
  140.8290   76.1450  221.9860 N   0  0  0  0  0  0  0  0  0  0  0  0
  139.7110   76.9310  222.3360 C   0  0  0  0  0  0  0  0  0  0  0  0
  139.8330   78.2880  222.7680 C   0  0  0  0  0  0  0  0  0  0  0  0
  138.8050   78.7560  223.4410 O   0  0  0  0  0  0  0  0  0  0  0  0
  140.8520   79.2630  222.6250 N   0  0  0  0  0  0  0  0  0  0  0  0
  141.8550   79.3730  223.7120 C   0  0  0  0  0  0  0  0  0  0  0  0
  142.8860   80.3070  223.1870 C   0  0  0  0  0  0  0  0  0  0  0  0
  142.1270   81.2090  222.2490 C   0  0  0  0  0  0  0  0  0  0  0  0
  141.1580   80.2260  221.6070 C   0  0  1  0  0  0  0  0  0  0  0  0
  141.6870   79.6780  220.3540 C   0  0  0  0  0  0  0  0  0  0  0  0
  141.8570   78.3340  220.1210 C   0  0  0  0  0  0  0  0  0  0  0  0
  142.3760   77.8310  218.9350 C   0  0  0  0  0  0  0  0  0  0  0  0
  142.7500   78.6780  217.9190 C   0  0  0  0  0  0  0  0  0  0  0  0
  142.5900   80.0300  218.1250 C   0  0  0  0  0  0  0  0  0  0  0  0
  142.0750   80.5240  219.3050 C   0  0  0  0  0  0  0  0  0  0  0  0
  141.6320   74.0150  220.9100 C   0  0  0  0  0  0  0  0  0  0  0  0
  141.3140   72.7160  220.5740 C   0  0  0  0  0  0  0  0  0  0  0  0
  142.3340   71.8810  220.1970 C   0  0  0  0  0  0  0  0  0  0  0  0
  143.6220   72.3440  220.1610 C   0  0  0  0  0  0  0  0  0  0  0  0
  144.6860   71.5290  219.7840 C   0  0  0  0  0  0  0  0  0  0  0  0
  144.3900   69.8700  219.3400 Cl  0  0  0  0  0  0  0  0  0  0  0  0
  145.9800   72.0170  219.7540 C   0  0  0  0  0  0  0  0  0  0  0  0
  146.2560   73.3310  220.1000 C   0  0  0  0  0  0  0  0  0  0  0  0
  145.2000   74.1610  220.4810 C   0  0  0  0  0  0  0  0  0  0  0  0
  143.9210   73.6480  220.5010 C   0  0  0  0  0  0  0  0  0  0  0  0
  142.9040   74.4650  220.8720 N   0  0  0  0  0  0  0  0  0  0  0  0
  141.8340   76.3170  222.1280 H   0  0  0  0  0  0  0  0  0  0  0  0
  139.0606   76.9497  221.4491 H   0  0  0  0  0  0  0  0  0  0  0  0
  139.3619   76.4324  223.2523 H   0  0  0  0  0  0  0  0  0  0  0  0
  141.3939   79.7786  224.6246 H   0  0  0  0  0  0  0  0  0  0  0  0
  142.2808   78.3958  223.9835 H   0  0  0  0  0  0  0  0  0  0  0  0
  143.3389   80.8872  224.0045 H   0  0  0  0  0  0  0  0  0  0  0  0
  143.7139   79.7821  222.6878 H   0  0  0  0  0  0  0  0  0  0  0  0
  141.5939   82.0009  222.7955 H   0  0  0  0  0  0  0  0  0  0  0  0
  142.7622   81.7487  221.5311 H   0  0  0  0  0  0  0  0  0  0  0  0
  140.2231   80.7023  221.2767 H   0  0  0  0  0  0  0  0  0  0  0  0
  141.5687   77.6241  220.9103 H   0  0  0  0  0  0  0  0  0  0  0  0
  142.4889   76.7443  218.8075 H   0  0  0  0  0  0  0  0  0  0  0  0
  143.1621   78.2899  216.9758 H   0  0  0  0  0  0  0  0  0  0  0  0
  142.8798   80.7325  217.3297 H   0  0  0  0  0  0  0  0  0  0  0  0
  141.9655   81.6117  219.4268 H   0  0  0  0  0  0  0  0  0  0  0  0
  140.2736   72.3605  220.6074 H   0  0  0  0  0  0  0  0  0  0  0  0
  142.1173   70.8379  219.9232 H   0  0  0  0  0  0  0  0  0  0  0  0
  146.8026   71.3525  219.4510 H   0  0  0  0  0  0  0  0  0  0  0  0
  147.2875   73.7123  220.0748 H   0  0  0  0  0  0  0  0  0  0  0  0
  145.3860   75.2084  220.7609 H   0  0  0  0  0  0  0  0  0  0  0  0
  1  2  2  0
  2  3  1  0
  3  4  1  0
  4  5  1  0
  5  6  2  0
  5  7  1  0
  7  8  1  0
  8  9  1  0
  9 10  1  0
 10 11  1  0
 11 12  1  0
 12 13  2  0
 13 14  1  0
 14 15  2  0
 15 16  1  0
 16 17  2  0
  2 18  1  0
 18 19  2  0
 19 20  1  0
 20 21  2  0
 21 22  1  0
 22 23  1  0
 22 24  2  0
 24 25  1  0
 25 26  2  0
 26 27  1  0
 27 28  2  0
 11  7  1  0
 17 12  1  0
 28 18  1  0
 27 21  1  0
  3 29  1  0
  4 30  1  0
  4 31  1  0
  8 32  1  0
  8 33  1  0
  9 34  1  0
  9 35  1  0
 10 36  1  0
 10 37  1  0
 11 38  1  6
 13 39  1  0
 14 40  1  0
 15 41  1  0
 16 42  1  0
 17 43  1  0
 19 44  1  0
 20 45  1  0
 24 46  1  0
 25 47  1  0
 26 48  1  0
M  END
>  <smiles>  (31) 
O=C(NCC(=O)N1CCC[C@H]1c1ccccc1)c1ccc2c(Cl)cccc2n1

>  <score_type>  (31) 
oracle

>  <origin>  (31) 
autodockgpu

>  <m_score__min__energy>  (31) 
-9.3100000000000005

>  <m_primary>  (31) 
energy

>  <rmsd>  (31) 
6.448331429820718

>  <m_score__min__rmsd>  (31) 
6.448331429820718

>  <meeko>  (31) 
{"free_energy": -7.72, "intermolecular_energy": -9.21, "internal_energy": -1.9, "cluster_size": 3, "cluster_id": 5, "rank_in_cluster": 3}

>  <energy>  (31) 
-8.77

>  <cluster_rmsd>  (31) 
1.45

>  <cluster>  (31) 
3

$$$$

     RDKit          3D

 48 51  0  0  0  0  0  0  0  0999 V2000
  140.2300   72.1510  221.0160 O   0  0  0  0  0  0  0  0  0  0  0  0
  140.0110   72.5640  222.1880 C   0  0  0  0  0  0  0  0  0  0  0  0
  139.7080   73.9840  222.3260 N   0  0  0  0  0  0  0  0  0  0  0  0
  139.6930   74.7360  221.1330 C   0  0  0  0  0  0  0  0  0  0  0  0
  140.8010   75.5380  220.7190 C   0  0  0  0  0  0  0  0  0  0  0  0
  141.9860   75.0100  220.9370 O   0  0  0  0  0  0  0  0  0  0  0  0
  140.9010   76.8120  220.1070 N   0  0  0  0  0  0  0  0  0  0  0  0
  139.8340   77.2010  219.1520 C   0  0  0  0  0  0  0  0  0  0  0  0
  140.0960   78.6330  218.8510 C   0  0  0  0  0  0  0  0  0  0  0  0
  141.5870   78.7810  219.0070 C   0  0  0  0  0  0  0  0  0  0  0  0
  141.8520   77.8810  220.2060 C   0  0  1  0  0  0  0  0  0  0  0  0
  141.8350   78.6310  221.4650 C   0  0  0  0  0  0  0  0  0  0  0  0
  141.4430   78.0930  222.6690 C   0  0  0  0  0  0  0  0  0  0  0  0
  141.4140   78.8220  223.8510 C   0  0  0  0  0  0  0  0  0  0  0  0
  141.7860   80.1440  223.8670 C   0  0  0  0  0  0  0  0  0  0  0  0
  142.1840   80.7100  222.6750 C   0  0  0  0  0  0  0  0  0  0  0  0
  142.2090   79.9820  221.5050 C   0  0  0  0  0  0  0  0  0  0  0  0
  140.0480   71.7140  223.3630 C   0  0  0  0  0  0  0  0  0  0  0  0
  139.5960   70.4190  223.2220 C   0  0  0  0  0  0  0  0  0  0  0  0
  139.6260   69.6050  224.3250 C   0  0  0  0  0  0  0  0  0  0  0  0
  140.0940   70.0830  225.5190 C   0  0  0  0  0  0  0  0  0  0  0  0
  140.1400   69.2890  226.6620 C   0  0  0  0  0  0  0  0  0  0  0  0
  139.5920   67.6360  226.5900 Cl  0  0  0  0  0  0  0  0  0  0  0  0
  140.6180   69.7920  227.8590 C   0  0  0  0  0  0  0  0  0  0  0  0
  141.0630   71.1020  227.9560 C   0  0  0  0  0  0  0  0  0  0  0  0
  141.0230   71.9110  226.8190 C   0  0  0  0  0  0  0  0  0  0  0  0
  140.5420   71.3830  225.6410 C   0  0  0  0  0  0  0  0  0  0  0  0
  140.5090   72.1790  224.5420 N   0  0  0  0  0  0  0  0  0  0  0  0
  139.5410   74.2760  223.3000 H   0  0  0  0  0  0  0  0  0  0  0  0
  139.5155   74.0165  220.3201 H   0  0  0  0  0  0  0  0  0  0  0  0
  138.9322   75.4986  221.3556 H   0  0  0  0  0  0  0  0  0  0  0  0
  139.8946   76.5953  218.2358 H   0  0  0  0  0  0  0  0  0  0  0  0
  138.8278   77.0417  219.5668 H   0  0  0  0  0  0  0  0  0  0  0  0
  139.7856   78.8783  217.8246 H   0  0  0  0  0  0  0  0  0  0  0  0
  139.5356   79.3102  219.5123 H   0  0  0  0  0  0  0  0  0  0  0  0
  142.1224   78.4288  218.1130 H   0  0  0  0  0  0  0  0  0  0  0  0
  141.9253   79.8193  219.1395 H   0  0  0  0  0  0  0  0  0  0  0  0
  142.8657   77.4539  220.2030 H   0  0  0  0  0  0  0  0  0  0  0  0
  141.1383   77.0364  222.6969 H   0  0  0  0  0  0  0  0  0  0  0  0
  141.0900   78.3359  224.7831 H   0  0  0  0  0  0  0  0  0  0  0  0
  141.7670   80.7300  224.7977 H   0  0  0  0  0  0  0  0  0  0  0  0
  142.4886   81.7668  222.6571 H   0  0  0  0  0  0  0  0  0  0  0  0
  142.5315   80.4748  220.5760 H   0  0  0  0  0  0  0  0  0  0  0  0
  139.2230   70.0505  222.2550 H   0  0  0  0  0  0  0  0  0  0  0  0
  139.2733   68.5658  224.2501 H   0  0  0  0  0  0  0  0  0  0  0  0
  140.6455   69.1433  228.7469 H   0  0  0  0  0  0  0  0  0  0  0  0
  141.4405   71.4962  228.9111 H   0  0  0  0  0  0  0  0  0  0  0  0
  141.3701   72.9539  226.8630 H   0  0  0  0  0  0  0  0  0  0  0  0
  1  2  2  0
  2  3  1  0
  3  4  1  0
  4  5  1  0
  5  6  2  0
  5  7  1  0
  7  8  1  0
  8  9  1  0
  9 10  1  0
 10 11  1  0
 11 12  1  0
 12 13  2  0
 13 14  1  0
 14 15  2  0
 15 16  1  0
 16 17  2  0
  2 18  1  0
 18 19  2  0
 19 20  1  0
 20 21  2  0
 21 22  1  0
 22 23  1  0
 22 24  2  0
 24 25  1  0
 25 26  2  0
 26 27  1  0
 27 28  2  0
 11  7  1  0
 17 12  1  0
 28 18  1  0
 27 21  1  0
  3 29  1  0
  4 30  1  0
  4 31  1  0
  8 32  1  0
  8 33  1  0
  9 34  1  0
  9 35  1  0
 10 36  1  0
 10 37  1  0
 11 38  1  6
 13 39  1  0
 14 40  1  0
 15 41  1  0
 16 42  1  0
 17 43  1  0
 19 44  1  0
 20 45  1  0
 24 46  1  0
 25 47  1  0
 26 48  1  0
M  END
>  <smiles>  (32) 
O=C(NCC(=O)N1CCC[C@H]1c1ccccc1)c1ccc2c(Cl)cccc2n1

>  <score_type>  (32) 
oracle

>  <origin>  (32) 
autodockgpu

>  <m_score__min__energy>  (32) 
-9.3100000000000005

>  <m_primary>  (32) 
energy

>  <rmsd>  (32) 
1.7389238576288801

>  <m_score__min__rmsd>  (32) 
1.7389238576288801

>  <meeko>  (32) 
{"free_energy": -8.87, "intermolecular_energy": -10.36, "internal_energy": -1.38, "cluster_size": 14, "cluster_id": 1, "rank_in_cluster": 12}

>  <energy>  (32) 
-8.76

>  <cluster_rmsd>  (32) 
1.35

>  <cluster>  (32) 
3

$$$$

     RDKit          3D

 48 51  0  0  0  0  0  0  0  0999 V2000
  141.2320   74.5410  221.3270 O   0  0  0  0  0  0  0  0  0  0  0  0
  140.2430   75.0070  221.9580 C   0  0  0  0  0  0  0  0  0  0  0  0
  139.1910   74.0580  222.3030 N   0  0  0  0  0  0  0  0  0  0  0  0
  139.3970   72.7240  221.8930 C   0  0  0  0  0  0  0  0  0  0  0  0
  139.8180   71.7010  222.7980 C   0  0  0  0  0  0  0  0  0  0  0  0
  141.0370   71.8390  223.2700 O   0  0  0  0  0  0  0  0  0  0  0  0
  139.1860   70.5400  223.3100 N   0  0  0  0  0  0  0  0  0  0  0  0
  139.1690   69.3320  222.4490 C   0  0  0  0  0  0  0  0  0  0  0  0
  138.6420   68.2500  223.3230 C   0  0  0  0  0  0  0  0  0  0  0  0
  137.7400   68.9620  224.2960 C   0  0  0  0  0  0  0  0  0  0  0  0
  138.5220   70.2440  224.5460 C   0  0  1  0  0  0  0  0  0  0  0  0
  139.3900   70.1310  225.7220 C   0  0  0  0  0  0  0  0  0  0  0  0
  140.2000   71.1480  226.1730 C   0  0  0  0  0  0  0  0  0  0  0  0
  141.0310   71.0210  227.2780 C   0  0  0  0  0  0  0  0  0  0  0  0
  141.0790   69.8440  227.9860 C   0  0  0  0  0  0  0  0  0  0  0  0
  140.2780   68.8080  227.5570 C   0  0  0  0  0  0  0  0  0  0  0  0
  139.4560   68.9400  226.4590 C   0  0  0  0  0  0  0  0  0  0  0  0
  140.1150   76.4010  222.3390 C   0  0  0  0  0  0  0  0  0  0  0  0
  138.8380   76.8980  222.4990 C   0  0  0  0  0  0  0  0  0  0  0  0
  138.7020   78.2140  222.8590 C   0  0  0  0  0  0  0  0  0  0  0  0
  139.8120   78.9920  223.0490 C   0  0  0  0  0  0  0  0  0  0  0  0
  139.7160   80.3320  223.4150 C   0  0  0  0  0  0  0  0  0  0  0  0
  138.1470   81.0570  223.6430 Cl  0  0  0  0  0  0  0  0  0  0  0  0
  140.8510   81.1010  223.6020 C   0  0  0  0  0  0  0  0  0  0  0  0
  142.1160   80.5610  223.4310 C   0  0  0  0  0  0  0  0  0  0  0  0
  142.2290   79.2180  223.0640 C   0  0  0  0  0  0  0  0  0  0  0  0
  141.0810   78.4770  222.8840 C   0  0  0  0  0  0  0  0  0  0  0  0
  141.2040   77.1730  222.5280 N   0  0  0  0  0  0  0  0  0  0  0  0
  138.4040   74.4840  222.8120 H   0  0  0  0  0  0  0  0  0  0  0  0
  138.4409   72.3831  221.4692 H   0  0  0  0  0  0  0  0  0  0  0  0
  140.2747   72.8215  221.2371 H   0  0  0  0  0  0  0  0  0  0  0  0
  138.5108   69.4841  221.5809 H   0  0  0  0  0  0  0  0  0  0  0  0
  140.1653   69.0938  222.0481 H   0  0  0  0  0  0  0  0  0  0  0  0
  138.0753   67.5144  222.7333 H   0  0  0  0  0  0  0  0  0  0  0  0
  139.4434   67.6894  223.8265 H   0  0  0  0  0  0  0  0  0  0  0  0
  136.7552   69.1712  223.8529 H   0  0  0  0  0  0  0  0  0  0  0  0
  137.5163   68.3864  225.2063 H   0  0  0  0  0  0  0  0  0  0  0  0
  137.8765   71.0937  224.8130 H   0  0  0  0  0  0  0  0  0  0  0  0
  140.1885   72.1062  225.6329 H   0  0  0  0  0  0  0  0  0  0  0  0
  141.6568   71.8703  227.5897 H   0  0  0  0  0  0  0  0  0  0  0  0
  141.7331   69.7330  228.8634 H   0  0  0  0  0  0  0  0  0  0  0  0
  140.2952   67.8536  228.1037 H   0  0  0  0  0  0  0  0  0  0  0  0
  138.8337   68.0865  226.1518 H   0  0  0  0  0  0  0  0  0  0  0  0
  137.9567   76.2586  222.3427 H   0  0  0  0  0  0  0  0  0  0  0  0
  137.6993   78.6452  222.9953 H   0  0  0  0  0  0  0  0  0  0  0  0
  140.7477   82.1574  223.8909 H   0  0  0  0  0  0  0  0  0  0  0  0
  143.0139   81.1783  223.5814 H   0  0  0  0  0  0  0  0  0  0  0  0
  143.2184   78.7592  222.9209 H   0  0  0  0  0  0  0  0  0  0  0  0
  1  2  2  0
  2  3  1  0
  3  4  1  0
  4  5  1  0
  5  6  2  0
  5  7  1  0
  7  8  1  0
  8  9  1  0
  9 10  1  0
 10 11  1  0
 11 12  1  0
 12 13  2  0
 13 14  1  0
 14 15  2  0
 15 16  1  0
 16 17  2  0
  2 18  1  0
 18 19  2  0
 19 20  1  0
 20 21  2  0
 21 22  1  0
 22 23  1  0
 22 24  2  0
 24 25  1  0
 25 26  2  0
 26 27  1  0
 27 28  2  0
 11  7  1  0
 17 12  1  0
 28 18  1  0
 27 21  1  0
  3 29  1  0
  4 30  1  0
  4 31  1  0
  8 32  1  0
  8 33  1  0
  9 34  1  0
  9 35  1  0
 10 36  1  0
 10 37  1  0
 11 38  1  1
 13 39  1  0
 14 40  1  0
 15 41  1  0
 16 42  1  0
 17 43  1  0
 19 44  1  0
 20 45  1  0
 24 46  1  0
 25 47  1  0
 26 48  1  0
M  END
>  <smiles>  (33) 
O=C(NCC(=O)N1CCC[C@H]1c1ccccc1)c1ccc2c(Cl)cccc2n1

>  <score_type>  (33) 
oracle

>  <origin>  (33) 
autodockgpu

>  <m_score__min__energy>  (33) 
-9.3100000000000005

>  <m_primary>  (33) 
energy

>  <rmsd>  (33) 
8.14776595196355

>  <m_score__min__rmsd>  (33) 
8.14776595196355

>  <meeko>  (33) 
{"free_energy": -9.06, "intermolecular_energy": -10.55, "internal_energy": -1.12, "cluster_size": 24, "cluster_id": 3, "rank_in_cluster": 6}

>  <energy>  (33) 
-8.76

>  <cluster_rmsd>  (33) 
1.44

>  <cluster>  (33) 
3

$$$$

     RDKit          3D

 48 51  0  0  0  0  0  0  0  0999 V2000
  141.1990   72.5000  221.5450 O   0  0  0  0  0  0  0  0  0  0  0  0
  140.3170   72.5550  222.4460 C   0  0  0  0  0  0  0  0  0  0  0  0
  139.3290   73.6210  222.3180 N   0  0  0  0  0  0  0  0  0  0  0  0
  139.4700   74.4690  221.2000 C   0  0  0  0  0  0  0  0  0  0  0  0
  140.4200   75.5360  221.1630 C   0  0  0  0  0  0  0  0  0  0  0  0
  141.4550   75.3910  221.9620 O   0  0  0  0  0  0  0  0  0  0  0  0
  140.4910   76.7470  220.4300 N   0  0  0  0  0  0  0  0  0  0  0  0
  139.3400   77.0910  219.5600 C   0  0  0  0  0  0  0  0  0  0  0  0
  139.6090   78.4800  219.1040 C   0  0  0  0  0  0  0  0  0  0  0  0
  141.1110   78.5840  219.0900 C   0  0  0  0  0  0  0  0  0  0  0  0
  141.4770   77.7830  220.3320 C   0  0  1  0  0  0  0  0  0  0  0  0
  141.6160   78.6420  221.5120 C   0  0  0  0  0  0  0  0  0  0  0  0
  142.1980   79.8880  221.4860 C   0  0  0  0  0  0  0  0  0  0  0  0
  142.3380   80.6820  222.6160 C   0  0  0  0  0  0  0  0  0  0  0  0
  141.8890   80.2460  223.8390 C   0  0  0  0  0  0  0  0  0  0  0  0
  141.3010   79.0010  223.8950 C   0  0  0  0  0  0  0  0  0  0  0  0
  141.1650   78.2160  222.7700 C   0  0  0  0  0  0  0  0  0  0  0  0
  140.2490   71.6360  223.5660 C   0  0  0  0  0  0  0  0  0  0  0  0
  139.7300   70.3810  223.3240 C   0  0  0  0  0  0  0  0  0  0  0  0
  139.6600   69.5020  224.3740 C   0  0  0  0  0  0  0  0  0  0  0  0
  140.0970   69.8790  225.6150 C   0  0  0  0  0  0  0  0  0  0  0  0
  140.0430   69.0160  226.7070 C   0  0  0  0  0  0  0  0  0  0  0  0
  139.4030   67.4070  226.5070 Cl  0  0  0  0  0  0  0  0  0  0  0  0
  140.4900   69.4170  227.9530 C   0  0  0  0  0  0  0  0  0  0  0  0
  141.0060   70.6880  228.1520 C   0  0  0  0  0  0  0  0  0  0  0  0
  141.0660   71.5660  227.0670 C   0  0  0  0  0  0  0  0  0  0  0  0
  140.6130   71.1390  225.8380 C   0  0  0  0  0  0  0  0  0  0  0  0
  140.6790   72.0010  224.7910 N   0  0  0  0  0  0  0  0  0  0  0  0
  138.6330   73.6300  223.0780 H   0  0  0  0  0  0  0  0  0  0  0  0
  139.7108   73.8153  220.3487 H   0  0  0  0  0  0  0  0  0  0  0  0
  138.5155   75.0157  221.2086 H   0  0  0  0  0  0  0  0  0  0  0  0
  139.2848   76.4054  218.7016 H   0  0  0  0  0  0  0  0  0  0  0  0
  138.3798   77.0071  220.0901 H   0  0  0  0  0  0  0  0  0  0  0  0
  139.1977   78.6460  218.0974 H   0  0  0  0  0  0  0  0  0  0  0  0
  139.1421   79.2335  219.7554 H   0  0  0  0  0  0  0  0  0  0  0  0
  141.5373   78.1347  218.1809 H   0  0  0  0  0  0  0  0  0  0  0  0
  141.4911   79.6162  219.0914 H   0  0  0  0  0  0  0  0  0  0  0  0
  142.4717   77.3183  220.2634 H   0  0  0  0  0  0  0  0  0  0  0  0
  142.5698   80.2732  220.5251 H   0  0  0  0  0  0  0  0  0  0  0  0
  142.8133   81.6704  222.5313 H   0  0  0  0  0  0  0  0  0  0  0  0
  141.9950   80.8678  224.7402 H   0  0  0  0  0  0  0  0  0  0  0  0
  140.9314   78.6246  224.8603 H   0  0  0  0  0  0  0  0  0  0  0  0
  140.6896   77.2282  222.8614 H   0  0  0  0  0  0  0  0  0  0  0  0
  139.3832   70.0944  222.3202 H   0  0  0  0  0  0  0  0  0  0  0  0
  139.2520   68.4923  224.2187 H   0  0  0  0  0  0  0  0  0  0  0  0
  140.4352   68.7163  228.7992 H   0  0  0  0  0  0  0  0  0  0  0  0
  141.3615   70.9994  229.1453 H   0  0  0  0  0  0  0  0  0  0  0  0
  141.4685   72.5821  227.1920 H   0  0  0  0  0  0  0  0  0  0  0  0
  1  2  2  0
  2  3  1  0
  3  4  1  0
  4  5  1  0
  5  6  2  0
  5  7  1  0
  7  8  1  0
  8  9  1  0
  9 10  1  0
 10 11  1  0
 11 12  1  0
 12 13  2  0
 13 14  1  0
 14 15  2  0
 15 16  1  0
 16 17  2  0
  2 18  1  0
 18 19  2  0
 19 20  1  0
 20 21  2  0
 21 22  1  0
 22 23  1  0
 22 24  2  0
 24 25  1  0
 25 26  2  0
 26 27  1  0
 27 28  2  0
 11  7  1  0
 17 12  1  0
 28 18  1  0
 27 21  1  0
  3 29  1  0
  4 30  1  0
  4 31  1  0
  8 32  1  0
  8 33  1  0
  9 34  1  0
  9 35  1  0
 10 36  1  0
 10 37  1  0
 11 38  1  6
 13 39  1  0
 14 40  1  0
 15 41  1  0
 16 42  1  0
 17 43  1  0
 19 44  1  0
 20 45  1  0
 24 46  1  0
 25 47  1  0
 26 48  1  0
M  END
>  <smiles>  (34) 
O=C(NCC(=O)N1CCC[C@H]1c1ccccc1)c1ccc2c(Cl)cccc2n1

>  <score_type>  (34) 
oracle

>  <origin>  (34) 
autodockgpu

>  <m_score__min__energy>  (34) 
-9.3100000000000005

>  <m_primary>  (34) 
energy

>  <rmsd>  (34) 
1.630898027567731

>  <m_score__min__rmsd>  (34) 
1.630898027567731

>  <meeko>  (34) 
{"free_energy": -9.25, "intermolecular_energy": -10.74, "internal_energy": -1.17, "cluster_size": 14, "cluster_id": 1, "rank_in_cluster": 2}

>  <energy>  (34) 
-8.75

>  <cluster_rmsd>  (34) 
1.37

>  <cluster>  (34) 
3

$$$$

     RDKit          3D

 48 51  0  0  0  0  0  0  0  0999 V2000
  139.9200   70.3560  221.8910 O   0  0  0  0  0  0  0  0  0  0  0  0
  139.4540   71.4800  222.2260 C   0  0  0  0  0  0  0  0  0  0  0  0
  138.2410   71.4620  223.0350 N   0  0  0  0  0  0  0  0  0  0  0  0
  137.7250   70.1880  223.3530 C   0  0  0  0  0  0  0  0  0  0  0  0
  137.6620   69.7000  224.6960 C   0  0  0  0  0  0  0  0  0  0  0  0
  136.5320   69.9360  225.3240 O   0  0  0  0  0  0  0  0  0  0  0  0
  138.5810   68.9980  225.5160 N   0  0  0  0  0  0  0  0  0  0  0  0
  139.2280   67.7910  224.9440 C   0  0  0  0  0  0  0  0  0  0  0  0
  140.2670   67.4100  225.9370 C   0  0  0  0  0  0  0  0  0  0  0  0
  139.7130   67.8830  227.2560 C   0  0  0  0  0  0  0  0  0  0  0  0
  139.0610   69.1980  226.8520 C   0  0  1  0  0  0  0  0  0  0  0  0
  139.9660   70.3350  227.0370 C   0  0  0  0  0  0  0  0  0  0  0  0
  140.6090   70.9750  226.0040 C   0  0  0  0  0  0  0  0  0  0  0  0
  141.4790   72.0410  226.1960 C   0  0  0  0  0  0  0  0  0  0  0  0
  141.7380   72.5120  227.4600 C   0  0  0  0  0  0  0  0  0  0  0  0
  141.1080   71.8910  228.5150 C   0  0  0  0  0  0  0  0  0  0  0  0
  140.2460   70.8330  228.3180 C   0  0  0  0  0  0  0  0  0  0  0  0
  140.0540   72.7460  221.8510 C   0  0  0  0  0  0  0  0  0  0  0  0
  141.1370   72.7060  220.9980 C   0  0  0  0  0  0  0  0  0  0  0  0
  141.7150   73.8960  220.6350 C   0  0  0  0  0  0  0  0  0  0  0  0
  141.2150   75.0750  221.1160 C   0  0  0  0  0  0  0  0  0  0  0  0
  141.7720   76.3040  220.7730 C   0  0  0  0  0  0  0  0  0  0  0  0
  143.1450   76.3620  219.7000 Cl  0  0  0  0  0  0  0  0  0  0  0  0
  141.2510   77.4850  221.2700 C   0  0  0  0  0  0  0  0  0  0  0  0
  140.1600   77.4810  222.1250 C   0  0  0  0  0  0  0  0  0  0  0  0
  139.5900   76.2560  222.4800 C   0  0  0  0  0  0  0  0  0  0  0  0
  140.1300   75.0960  221.9690 C   0  0  0  0  0  0  0  0  0  0  0  0
  139.5660   73.9130  222.3210 N   0  0  0  0  0  0  0  0  0  0  0  0
  137.8950   72.4000  223.2800 H   0  0  0  0  0  0  0  0  0  0  0  0
  136.6928   70.1724  222.9731 H   0  0  0  0  0  0  0  0  0  0  0  0
  138.4760   69.5210  222.9046 H   0  0  0  0  0  0  0  0  0  0  0  0
  138.4948   66.9804  224.8200 H   0  0  0  0  0  0  0  0  0  0  0  0
  139.6553   67.9814  223.9484 H   0  0  0  0  0  0  0  0  0  0  0  0
  140.4168   66.3203  225.9456 H   0  0  0  0  0  0  0  0  0  0  0  0
  141.2478   67.8533  225.7100 H   0  0  0  0  0  0  0  0  0  0  0  0
  138.9744   67.1748  227.6597 H   0  0  0  0  0  0  0  0  0  0  0  0
  140.4660   67.9797  228.0520 H   0  0  0  0  0  0  0  0  0  0  0  0
  138.2121   69.4691  227.4968 H   0  0  0  0  0  0  0  0  0  0  0  0
  140.4259   70.6265  224.9768 H   0  0  0  0  0  0  0  0  0  0  0  0
  141.9645   72.5118  225.3285 H   0  0  0  0  0  0  0  0  0  0  0  0
  142.4246   73.3557  227.6236 H   0  0  0  0  0  0  0  0  0  0  0  0
  141.2967   72.2471  229.5385 H   0  0  0  0  0  0  0  0  0  0  0  0
  139.7644   70.3664  229.1900 H   0  0  0  0  0  0  0  0  0  0  0  0
  141.5256   71.7488  220.6201 H   0  0  0  0  0  0  0  0  0  0  0  0
  142.5810   73.9022  219.9568 H   0  0  0  0  0  0  0  0  0  0  0  0
  141.7097   78.4425  220.9822 H   0  0  0  0  0  0  0  0  0  0  0  0
  139.7510   78.4241  222.5164 H   0  0  0  0  0  0  0  0  0  0  0  0
  138.7237   76.2181  223.1568 H   0  0  0  0  0  0  0  0  0  0  0  0
  1  2  2  0
  2  3  1  0
  3  4  1  0
  4  5  1  0
  5  6  2  0
  5  7  1  0
  7  8  1  0
  8  9  1  0
  9 10  1  0
 10 11  1  0
 11 12  1  0
 12 13  2  0
 13 14  1  0
 14 15  2  0
 15 16  1  0
 16 17  2  0
  2 18  1  0
 18 19  2  0
 19 20  1  0
 20 21  2  0
 21 22  1  0
 22 23  1  0
 22 24  2  0
 24 25  1  0
 25 26  2  0
 26 27  1  0
 27 28  2  0
 11  7  1  0
 17 12  1  0
 28 18  1  0
 27 21  1  0
  3 29  1  0
  4 30  1  0
  4 31  1  0
  8 32  1  0
  8 33  1  0
  9 34  1  0
  9 35  1  0
 10 36  1  0
 10 37  1  0
 11 38  1  1
 13 39  1  0
 14 40  1  0
 15 41  1  0
 16 42  1  0
 17 43  1  0
 19 44  1  0
 20 45  1  0
 24 46  1  0
 25 47  1  0
 26 48  1  0
M  END
>  <smiles>  (35) 
O=C(NCC(=O)N1CCC[C@H]1c1ccccc1)c1ccc2c(Cl)cccc2n1

>  <score_type>  (35) 
oracle

>  <origin>  (35) 
autodockgpu

>  <m_score__min__energy>  (35) 
-9.3100000000000005

>  <m_primary>  (35) 
energy

>  <rmsd>  (35) 
8.31766096228205

>  <m_score__min__rmsd>  (35) 
8.31766096228205

>  <meeko>  (35) 
{"free_energy": -8.56, "intermolecular_energy": -10.05, "internal_energy": -1.94, "cluster_size": 3, "cluster_id": 4, "rank_in_cluster": 1}

>  <energy>  (35) 
-8.7

>  <cluster_rmsd>  (35) 
1.28

>  <cluster>  (35) 
3

$$$$

     RDKit          3D

 48 51  0  0  0  0  0  0  0  0999 V2000
  140.6260   74.1820  220.2990 O   0  0  0  0  0  0  0  0  0  0  0  0
  140.2890   74.9090  221.2740 C   0  0  0  0  0  0  0  0  0  0  0  0
  139.5160   74.2600  222.3260 N   0  0  0  0  0  0  0  0  0  0  0  0
  139.2320   72.8910  222.1370 C   0  0  0  0  0  0  0  0  0  0  0  0
  139.6110   71.8920  223.0850 C   0  0  0  0  0  0  0  0  0  0  0  0
  140.6980   72.1580  223.7750 O   0  0  0  0  0  0  0  0  0  0  0  0
  139.0510   70.6420  223.4530 N   0  0  0  0  0  0  0  0  0  0  0  0
  139.0840   69.5520  222.4470 C   0  0  0  0  0  0  0  0  0  0  0  0
  138.6310   68.3420  223.1820 C   0  0  0  0  0  0  0  0  0  0  0  0
  137.7070   68.8760  224.2450 C   0  0  0  0  0  0  0  0  0  0  0  0
  138.4240   70.1570  224.6480 C   0  0  1  0  0  0  0  0  0  0  0  0
  139.3160   69.9470  225.7920 C   0  0  0  0  0  0  0  0  0  0  0  0
  140.0620   70.9460  226.3720 C   0  0  0  0  0  0  0  0  0  0  0  0
  140.9170   70.7280  227.4440 C   0  0  0  0  0  0  0  0  0  0  0  0
  141.0540   69.4730  227.9850 C   0  0  0  0  0  0  0  0  0  0  0  0
  140.3180   68.4520  227.4250 C   0  0  0  0  0  0  0  0  0  0  0  0
  139.4720   68.6740  226.3600 C   0  0  0  0  0  0  0  0  0  0  0  0
  140.6270   76.3150  221.3860 C   0  0  0  0  0  0  0  0  0  0  0  0
  140.5050   77.0880  220.2500 C   0  0  0  0  0  0  0  0  0  0  0  0
  140.8210   78.4190  220.3420 C   0  0  0  0  0  0  0  0  0  0  0  0
  141.2420   78.9440  221.5340 C   0  0  0  0  0  0  0  0  0  0  0  0
  141.5720   80.2900  221.6690 C   0  0  0  0  0  0  0  0  0  0  0  0
  141.4520   81.3530  220.2930 Cl  0  0  0  0  0  0  0  0  0  0  0  0
  141.9950   80.8000  222.8840 C   0  0  0  0  0  0  0  0  0  0  0  0
  142.1030   79.9870  224.0010 C   0  0  0  0  0  0  0  0  0  0  0  0
  141.7760   78.6350  223.8820 C   0  0  0  0  0  0  0  0  0  0  0  0
  141.3580   78.1550  222.6610 C   0  0  0  0  0  0  0  0  0  0  0  0
  141.0420   76.8390  222.5580 N   0  0  0  0  0  0  0  0  0  0  0  0
  139.2600   74.8920  223.0980 H   0  0  0  0  0  0  0  0  0  0  0  0
  138.1393   72.8167  222.0347 H   0  0  0  0  0  0  0  0  0  0  0  0
  139.8737   72.6433  221.2786 H   0  0  0  0  0  0  0  0  0  0  0  0
  138.4039   69.7751  221.6117 H   0  0  0  0  0  0  0  0  0  0  0  0
  140.0848   69.4213  222.0096 H   0  0  0  0  0  0  0  0  0  0  0  0
  138.0958   67.6553  222.5097 H   0  0  0  0  0  0  0  0  0  0  0  0
  139.4694   67.7682  223.6037 H   0  0  0  0  0  0  0  0  0  0  0  0
  136.7059   69.0853  223.8401 H   0  0  0  0  0  0  0  0  0  0  0  0
  137.5277   68.1794  225.0772 H   0  0  0  0  0  0  0  0  0  0  0  0
  137.7379   70.9287  225.0271 H   0  0  0  0  0  0  0  0  0  0  0  0
  139.9774   71.9655  225.9677 H   0  0  0  0  0  0  0  0  0  0  0  0
  141.4899   71.5680  227.8638 H   0  0  0  0  0  0  0  0  0  0  0  0
  141.7275   69.2897  228.8352 H   0  0  0  0  0  0  0  0  0  0  0  0
  140.4076   67.4362  227.8374 H   0  0  0  0  0  0  0  0  0  0  0  0
  138.9033   67.8294  225.9438 H   0  0  0  0  0  0  0  0  0  0  0  0
  140.1648   76.6502  219.2999 H   0  0  0  0  0  0  0  0  0  0  0  0
  140.7361   79.0660  219.4565 H   0  0  0  0  0  0  0  0  0  0  0  0
  142.2494   81.8672  222.9643 H   0  0  0  0  0  0  0  0  0  0  0  0
  142.4401   80.3993  224.9635 H   0  0  0  0  0  0  0  0  0  0  0  0
  141.8511   77.9636  224.7501 H   0  0  0  0  0  0  0  0  0  0  0  0
  1  2  2  0
  2  3  1  0
  3  4  1  0
  4  5  1  0
  5  6  2  0
  5  7  1  0
  7  8  1  0
  8  9  1  0
  9 10  1  0
 10 11  1  0
 11 12  1  0
 12 13  2  0
 13 14  1  0
 14 15  2  0
 15 16  1  0
 16 17  2  0
  2 18  1  0
 18 19  2  0
 19 20  1  0
 20 21  2  0
 21 22  1  0
 22 23  1  0
 22 24  2  0
 24 25  1  0
 25 26  2  0
 26 27  1  0
 27 28  2  0
 11  7  1  0
 17 12  1  0
 28 18  1  0
 27 21  1  0
  3 29  1  0
  4 30  1  0
  4 31  1  0
  8 32  1  0
  8 33  1  0
  9 34  1  0
  9 35  1  0
 10 36  1  0
 10 37  1  0
 11 38  1  1
 13 39  1  0
 14 40  1  0
 15 41  1  0
 16 42  1  0
 17 43  1  0
 19 44  1  0
 20 45  1  0
 24 46  1  0
 25 47  1  0
 26 48  1  0
M  END
>  <smiles>  (36) 
O=C(NCC(=O)N1CCC[C@H]1c1ccccc1)c1ccc2c(Cl)cccc2n1

>  <score_type>  (36) 
oracle

>  <origin>  (36) 
autodockgpu

>  <m_score__min__energy>  (36) 
-9.3100000000000005

>  <m_primary>  (36) 
energy

>  <rmsd>  (36) 
8.189163776512066

>  <m_score__min__rmsd>  (36) 
8.189163776512066

>  <meeko>  (36) 
{"free_energy": -8.76, "intermolecular_energy": -10.25, "internal_energy": -1.27, "cluster_size": 24, "cluster_id": 3, "rank_in_cluster": 14}

>  <energy>  (36) 
-8.7

>  <cluster_rmsd>  (36) 
1.54

>  <cluster>  (36) 
3

$$$$

     RDKit          3D

 48 51  0  0  0  0  0  0  0  0999 V2000
  141.1440   73.8330  220.6460 O   0  0  0  0  0  0  0  0  0  0  0  0
  140.5830   74.6550  221.4220 C   0  0  0  0  0  0  0  0  0  0  0  0
  139.5910   74.1050  222.3380 N   0  0  0  0  0  0  0  0  0  0  0  0
  139.3700   72.7140  222.2540 C   0  0  0  0  0  0  0  0  0  0  0  0
  139.7120   71.8190  223.3150 C   0  0  0  0  0  0  0  0  0  0  0  0
  140.7260   72.1980  224.0620 O   0  0  0  0  0  0  0  0  0  0  0  0
  139.1790   70.5780  223.7460 N   0  0  0  0  0  0  0  0  0  0  0  0
  139.2020   69.4490  222.7840 C   0  0  0  0  0  0  0  0  0  0  0  0
  138.7840   68.2640  223.5790 C   0  0  0  0  0  0  0  0  0  0  0  0
  137.8790   68.8280  224.6420 C   0  0  0  0  0  0  0  0  0  0  0  0
  138.5880   70.1340  224.9750 C   0  0  1  0  0  0  0  0  0  0  0  0
  139.5100   69.9820  226.1040 C   0  0  0  0  0  0  0  0  0  0  0  0
  139.7920   68.7750  226.7020 C   0  0  0  0  0  0  0  0  0  0  0  0
  140.6550   68.6490  227.7820 C   0  0  0  0  0  0  0  0  0  0  0  0
  141.2790   69.7520  228.3130 C   0  0  0  0  0  0  0  0  0  0  0  0
  141.0150   70.9740  227.7340 C   0  0  0  0  0  0  0  0  0  0  0  0
  140.1580   71.0940  226.6610 C   0  0  0  0  0  0  0  0  0  0  0  0
  140.8740   76.0760  221.4390 C   0  0  0  0  0  0  0  0  0  0  0  0
  140.9360   76.7240  220.2230 C   0  0  0  0  0  0  0  0  0  0  0  0
  141.2110   78.0670  220.2240 C   0  0  0  0  0  0  0  0  0  0  0  0
  141.4130   78.7260  221.4070 C   0  0  0  0  0  0  0  0  0  0  0  0
  141.6940   80.0890  221.4510 C   0  0  0  0  0  0  0  0  0  0  0  0
  141.7950   81.0000  219.9680 Cl  0  0  0  0  0  0  0  0  0  0  0  0
  141.8950   80.7340  222.6580 C   0  0  0  0  0  0  0  0  0  0  0  0
  141.8230   80.0440  223.8580 C   0  0  0  0  0  0  0  0  0  0  0  0
  141.5420   78.6770  223.8300 C   0  0  0  0  0  0  0  0  0  0  0  0
  141.3470   78.0600  222.6140 C   0  0  0  0  0  0  0  0  0  0  0  0
  141.0740   76.7310  222.6010 N   0  0  0  0  0  0  0  0  0  0  0  0
  139.1570   74.8120  222.9480 H   0  0  0  0  0  0  0  0  0  0  0  0
  138.2913   72.5854  222.0808 H   0  0  0  0  0  0  0  0  0  0  0  0
  140.0820   72.4182  221.4694 H   0  0  0  0  0  0  0  0  0  0  0  0
  138.4983   69.6293  221.9580 H   0  0  0  0  0  0  0  0  0  0  0  0
  140.1931   69.3135  222.3265 H   0  0  0  0  0  0  0  0  0  0  0  0
  138.2424   67.5434  222.9486 H   0  0  0  0  0  0  0  0  0  0  0  0
  139.6406   67.7194  224.0027 H   0  0  0  0  0  0  0  0  0  0  0  0
  136.8654   69.0075  224.2542 H   0  0  0  0  0  0  0  0  0  0  0  0
  137.7297   68.1634  225.5057 H   0  0  0  0  0  0  0  0  0  0  0  0
  137.9009   70.9119  225.3394 H   0  0  0  0  0  0  0  0  0  0  0  0
  139.3114   67.8683  226.3059 H   0  0  0  0  0  0  0  0  0  0  0  0
  140.8412   67.6560  228.2171 H   0  0  0  0  0  0  0  0  0  0  0  0
  141.9642   69.6627  229.1689 H   0  0  0  0  0  0  0  0  0  0  0  0
  141.4996   71.8753  228.1375 H   0  0  0  0  0  0  0  0  0  0  0  0
  139.9774   72.0897  226.2297 H   0  0  0  0  0  0  0  0  0  0  0  0
  140.7699   76.1800  219.2815 H   0  0  0  0  0  0  0  0  0  0  0  0
  141.2695   78.6162  219.2727 H   0  0  0  0  0  0  0  0  0  0  0  0
  142.1155   81.8116  222.6657 H   0  0  0  0  0  0  0  0  0  0  0  0
  141.9842   80.5637  224.8140 H   0  0  0  0  0  0  0  0  0  0  0  0
  141.4773   78.1011  224.7650 H   0  0  0  0  0  0  0  0  0  0  0  0
  1  2  2  0
  2  3  1  0
  3  4  1  0
  4  5  1  0
  5  6  2  0
  5  7  1  0
  7  8  1  0
  8  9  1  0
  9 10  1  0
 10 11  1  0
 11 12  1  0
 12 13  2  0
 13 14  1  0
 14 15  2  0
 15 16  1  0
 16 17  2  0
  2 18  1  0
 18 19  2  0
 19 20  1  0
 20 21  2  0
 21 22  1  0
 22 23  1  0
 22 24  2  0
 24 25  1  0
 25 26  2  0
 26 27  1  0
 27 28  2  0
 11  7  1  0
 17 12  1  0
 28 18  1  0
 27 21  1  0
  3 29  1  0
  4 30  1  0
  4 31  1  0
  8 32  1  0
  8 33  1  0
  9 34  1  0
  9 35  1  0
 10 36  1  0
 10 37  1  0
 11 38  1  1
 13 39  1  0
 14 40  1  0
 15 41  1  0
 16 42  1  0
 17 43  1  0
 19 44  1  0
 20 45  1  0
 24 46  1  0
 25 47  1  0
 26 48  1  0
M  END
>  <smiles>  (37) 
O=C(NCC(=O)N1CCC[C@H]1c1ccccc1)c1ccc2c(Cl)cccc2n1

>  <score_type>  (37) 
oracle

>  <origin>  (37) 
autodockgpu

>  <m_score__min__energy>  (37) 
-9.3100000000000005

>  <m_primary>  (37) 
energy

>  <rmsd>  (37) 
8.238879060365589

>  <m_score__min__rmsd>  (37) 
8.238879060365589

>  <meeko>  (37) 
{"free_energy": -8.77, "intermolecular_energy": -10.26, "internal_energy": -1.25, "cluster_size": 24, "cluster_id": 3, "rank_in_cluster": 13}

>  <energy>  (37) 
-8.7

>  <cluster_rmsd>  (37) 
1.35

>  <cluster>  (37) 
3

$$$$

     RDKit          3D

 48 51  0  0  0  0  0  0  0  0999 V2000
  141.0460   74.4870  221.3030 O   0  0  0  0  0  0  0  0  0  0  0  0
  140.0740   74.9740  221.9440 C   0  0  0  0  0  0  0  0  0  0  0  0
  138.9940   74.0510  222.2770 N   0  0  0  0  0  0  0  0  0  0  0  0
  139.1590   72.7180  221.8460 C   0  0  0  0  0  0  0  0  0  0  0  0
  139.7160   71.7050  222.6860 C   0  0  0  0  0  0  0  0  0  0  0  0
  140.9990   71.8360  222.9450 O   0  0  0  0  0  0  0  0  0  0  0  0
  139.1700   70.5590  223.3160 N   0  0  0  0  0  0  0  0  0  0  0  0
  139.2370   69.2720  222.5800 C   0  0  0  0  0  0  0  0  0  0  0  0
  138.7900   68.2480  223.5610 C   0  0  0  0  0  0  0  0  0  0  0  0
  137.8400   68.9890  224.4660 C   0  0  0  0  0  0  0  0  0  0  0  0
  138.5290   70.3410  224.5810 C   0  0  1  0  0  0  0  0  0  0  0  0
  139.4040   70.4090  225.7550 C   0  0  0  0  0  0  0  0  0  0  0  0
  139.4560   69.4360  226.7250 C   0  0  0  0  0  0  0  0  0  0  0  0
  140.2770   69.5220  227.8420 C   0  0  0  0  0  0  0  0  0  0  0  0
  141.0930   70.6120  228.0270 C   0  0  0  0  0  0  0  0  0  0  0  0
  141.0630   71.6020  227.0710 C   0  0  0  0  0  0  0  0  0  0  0  0
  140.2450   71.5120  225.9650 C   0  0  0  0  0  0  0  0  0  0  0  0
  139.9880   76.3640  222.3480 C   0  0  0  0  0  0  0  0  0  0  0  0
  138.7270   76.9050  222.4920 C   0  0  0  0  0  0  0  0  0  0  0  0
  138.6310   78.2180  222.8720 C   0  0  0  0  0  0  0  0  0  0  0  0
  139.7640   78.9520  223.0980 C   0  0  0  0  0  0  0  0  0  0  0  0
  139.7100   80.2880  223.4860 C   0  0  0  0  0  0  0  0  0  0  0  0
  138.1640   81.0660  223.6960 Cl  0  0  0  0  0  0  0  0  0  0  0  0
  140.8680   81.0120  223.7090 C   0  0  0  0  0  0  0  0  0  0  0  0
  142.1160   80.4280  223.5530 C   0  0  0  0  0  0  0  0  0  0  0  0
  142.1870   79.0890  223.1640 C   0  0  0  0  0  0  0  0  0  0  0  0
  141.0180   78.3940  222.9490 C   0  0  0  0  0  0  0  0  0  0  0  0
  141.1010   77.0920  222.5720 N   0  0  0  0  0  0  0  0  0  0  0  0
  138.2210   74.4920  222.7950 H   0  0  0  0  0  0  0  0  0  0  0  0
  138.1579   72.3626  221.5607 H   0  0  0  0  0  0  0  0  0  0  0  0
  139.9352   72.8240  221.0738 H   0  0  0  0  0  0  0  0  0  0  0  0
  138.5681   69.2899  221.7070 H   0  0  0  0  0  0  0  0  0  0  0  0
  140.2472   69.0657  222.1966 H   0  0  0  0  0  0  0  0  0  0  0  0
  138.2766   67.4189  223.0522 H   0  0  0  0  0  0  0  0  0  0  0  0
  139.6297   67.7982  224.1111 H   0  0  0  0  0  0  0  0  0  0  0  0
  136.8425   69.0830  224.0120 H   0  0  0  0  0  0  0  0  0  0  0  0
  137.6585   68.4929  225.4309 H   0  0  0  0  0  0  0  0  0  0  0  0
  137.8239   71.1644  224.7675 H   0  0  0  0  0  0  0  0  0  0  0  0
  138.8173   68.5477  226.6111 H   0  0  0  0  0  0  0  0  0  0  0  0
  140.2740   68.7107  228.5848 H   0  0  0  0  0  0  0  0  0  0  0  0
  141.7471   70.6907  228.9079 H   0  0  0  0  0  0  0  0  0  0  0  0
  141.7068   72.4856  227.1924 H   0  0  0  0  0  0  0  0  0  0  0  0
  140.2519   72.3275  225.2268 H   0  0  0  0  0  0  0  0  0  0  0  0
  137.8264   76.3009  222.3075 H   0  0  0  0  0  0  0  0  0  0  0  0
  137.6418   78.6829  222.9956 H   0  0  0  0  0  0  0  0  0  0  0  0
  140.7975   82.0664  224.0145 H   0  0  0  0  0  0  0  0  0  0  0  0
  143.0328   81.0088  223.7323 H   0  0  0  0  0  0  0  0  0  0  0  0
  143.1618   78.5969  223.0313 H   0  0  0  0  0  0  0  0  0  0  0  0
  1  2  2  0
  2  3  1  0
  3  4  1  0
  4  5  1  0
  5  6  2  0
  5  7  1  0
  7  8  1  0
  8  9  1  0
  9 10  1  0
 10 11  1  0
 11 12  1  0
 12 13  2  0
 13 14  1  0
 14 15  2  0
 15 16  1  0
 16 17  2  0
  2 18  1  0
 18 19  2  0
 19 20  1  0
 20 21  2  0
 21 22  1  0
 22 23  1  0
 22 24  2  0
 24 25  1  0
 25 26  2  0
 26 27  1  0
 27 28  2  0
 11  7  1  0
 17 12  1  0
 28 18  1  0
 27 21  1  0
  3 29  1  0
  4 30  1  0
  4 31  1  0
  8 32  1  0
  8 33  1  0
  9 34  1  0
  9 35  1  0
 10 36  1  0
 10 37  1  0
 11 38  1  1
 13 39  1  0
 14 40  1  0
 15 41  1  0
 16 42  1  0
 17 43  1  0
 19 44  1  0
 20 45  1  0
 24 46  1  0
 25 47  1  0
 26 48  1  0
M  END
>  <smiles>  (38) 
O=C(NCC(=O)N1CCC[C@H]1c1ccccc1)c1ccc2c(Cl)cccc2n1

>  <score_type>  (38) 
oracle

>  <origin>  (38) 
autodockgpu

>  <m_score__min__energy>  (38) 
-9.3100000000000005

>  <m_primary>  (38) 
energy

>  <rmsd>  (38) 
8.121209850131294

>  <m_score__min__rmsd>  (38) 
8.121209850131294

>  <meeko>  (38) 
{"free_energy": -9.1, "intermolecular_energy": -10.59, "internal_energy": -1.16, "cluster_size": 24, "cluster_id": 3, "rank_in_cluster": 3}

>  <energy>  (38) 
-8.69

>  <cluster_rmsd>  (38) 
1.51

>  <cluster>  (38) 
3

$$$$

     RDKit          3D

 48 51  0  0  0  0  0  0  0  0999 V2000
  140.6710   72.3470  221.1090 O   0  0  0  0  0  0  0  0  0  0  0  0
  140.1950   72.6640  222.2340 C   0  0  0  0  0  0  0  0  0  0  0  0
  139.6300   74.0040  222.3410 N   0  0  0  0  0  0  0  0  0  0  0  0
  139.6790   74.7950  221.1750 C   0  0  0  0  0  0  0  0  0  0  0  0
  140.8280   75.5670  220.8200 C   0  0  0  0  0  0  0  0  0  0  0  0
  141.9820   75.0490  221.1790 O   0  0  0  0  0  0  0  0  0  0  0  0
  140.9960   76.8030  220.1450 N   0  0  0  0  0  0  0  0  0  0  0  0
  140.0240   77.1390  219.0760 C   0  0  0  0  0  0  0  0  0  0  0  0
  140.3270   78.5500  218.7170 C   0  0  0  0  0  0  0  0  0  0  0  0
  141.8000   78.6980  218.9980 C   0  0  0  0  0  0  0  0  0  0  0  0
  141.9460   77.8700  220.2670 C   0  0  1  0  0  0  0  0  0  0  0  0
  141.8230   78.6940  221.4730 C   0  0  0  0  0  0  0  0  0  0  0  0
  142.1350   80.0330  221.5170 C   0  0  0  0  0  0  0  0  0  0  0  0
  142.0310   80.7980  222.6720 C   0  0  0  0  0  0  0  0  0  0  0  0
  141.5990   80.2330  223.8480 C   0  0  0  0  0  0  0  0  0  0  0  0
  141.2790   78.8940  223.8330 C   0  0  0  0  0  0  0  0  0  0  0  0
  141.3860   78.1400  222.6840 C   0  0  0  0  0  0  0  0  0  0  0  0
  140.1880   71.7810  223.3850 C   0  0  0  0  0  0  0  0  0  0  0  0
  139.7210   70.4970  223.1950 C   0  0  0  0  0  0  0  0  0  0  0  0
  139.7090   69.6520  224.2750 C   0  0  0  0  0  0  0  0  0  0  0  0
  140.1510   70.0900  225.4950 C   0  0  0  0  0  0  0  0  0  0  0  0
  140.1550   69.2640  226.6150 C   0  0  0  0  0  0  0  0  0  0  0  0
  139.5840   67.6220  226.4820 Cl  0  0  0  0  0  0  0  0  0  0  0  0
  140.6060   69.7270  227.8380 C   0  0  0  0  0  0  0  0  0  0  0  0
  141.0670   71.0260  227.9850 C   0  0  0  0  0  0  0  0  0  0  0  0
  141.0700   71.8670  226.8700 C   0  0  0  0  0  0  0  0  0  0  0  0
  140.6140   71.3790  225.6650 C   0  0  0  0  0  0  0  0  0  0  0  0
  140.6230   72.2060  224.5890 N   0  0  0  0  0  0  0  0  0  0  0  0
  139.2580   74.2200  223.2770 H   0  0  0  0  0  0  0  0  0  0  0  0
  139.4987   74.1102  220.3332 H   0  0  0  0  0  0  0  0  0  0  0  0
  138.9414   75.5788  221.4024 H   0  0  0  0  0  0  0  0  0  0  0  0
  140.1613   76.4798  218.2062 H   0  0  0  0  0  0  0  0  0  0  0  0
  138.9827   77.0088  219.4057 H   0  0  0  0  0  0  0  0  0  0  0  0
  140.1124   78.7363  217.6543 H   0  0  0  0  0  0  0  0  0  0  0  0
  139.7168   79.2682  219.2844 H   0  0  0  0  0  0  0  0  0  0  0  0
  142.4094   78.2896  218.1783 H   0  0  0  0  0  0  0  0  0  0  0  0
  142.1370   79.7403  219.0988 H   0  0  0  0  0  0  0  0  0  0  0  0
  142.9512   77.4381  220.3815 H   0  0  0  0  0  0  0  0  0  0  0  0
  142.4831   80.5208  220.5946 H   0  0  0  0  0  0  0  0  0  0  0  0
  142.2967   81.8651  222.6450 H   0  0  0  0  0  0  0  0  0  0  0  0
  141.5120   80.8292  224.7683 H   0  0  0  0  0  0  0  0  0  0  0  0
  140.9298   78.4147  224.7595 H   0  0  0  0  0  0  0  0  0  0  0  0
  141.1208   77.0730  222.7185 H   0  0  0  0  0  0  0  0  0  0  0  0
  139.3693   70.1615  222.2082 H   0  0  0  0  0  0  0  0  0  0  0  0
  139.3438   68.6207  224.1612 H   0  0  0  0  0  0  0  0  0  0  0  0
  140.5987   69.0536  228.7078 H   0  0  0  0  0  0  0  0  0  0  0  0
  141.4235   71.3874  228.9609 H   0  0  0  0  0  0  0  0  0  0  0  0
  141.4308   72.9028  226.9526 H   0  0  0  0  0  0  0  0  0  0  0  0
  1  2  2  0
  2  3  1  0
  3  4  1  0
  4  5  1  0
  5  6  2  0
  5  7  1  0
  7  8  1  0
  8  9  1  0
  9 10  1  0
 10 11  1  0
 11 12  1  0
 12 13  2  0
 13 14  1  0
 14 15  2  0
 15 16  1  0
 16 17  2  0
  2 18  1  0
 18 19  2  0
 19 20  1  0
 20 21  2  0
 21 22  1  0
 22 23  1  0
 22 24  2  0
 24 25  1  0
 25 26  2  0
 26 27  1  0
 27 28  2  0
 11  7  1  0
 17 12  1  0
 28 18  1  0
 27 21  1  0
  3 29  1  0
  4 30  1  0
  4 31  1  0
  8 32  1  0
  8 33  1  0
  9 34  1  0
  9 35  1  0
 10 36  1  0
 10 37  1  0
 11 38  1  6
 13 39  1  0
 14 40  1  0
 15 41  1  0
 16 42  1  0
 17 43  1  0
 19 44  1  0
 20 45  1  0
 24 46  1  0
 25 47  1  0
 26 48  1  0
M  END
>  <smiles>  (39) 
O=C(NCC(=O)N1CCC[C@H]1c1ccccc1)c1ccc2c(Cl)cccc2n1

>  <score_type>  (39) 
oracle

>  <origin>  (39) 
autodockgpu

>  <m_score__min__energy>  (39) 
-9.3100000000000005

>  <m_primary>  (39) 
energy

>  <rmsd>  (39) 
1.7619284757470908

>  <m_score__min__rmsd>  (39) 
1.7619284757470908

>  <meeko>  (39) 
{"free_energy": -8.96, "intermolecular_energy": -10.45, "internal_energy": -1.31, "cluster_size": 14, "cluster_id": 1, "rank_in_cluster": 10}

>  <energy>  (39) 
-8.53

>  <cluster_rmsd>  (39) 
1.6

>  <cluster>  (39) 
3

$$$$

     RDKit          3D

 48 51  0  0  0  0  0  0  0  0999 V2000
  141.1390   72.4370  221.3440 O   0  0  0  0  0  0  0  0  0  0  0  0
  140.3690   72.6260  222.3260 C   0  0  0  0  0  0  0  0  0  0  0  0
  139.4960   73.7920  222.2480 N   0  0  0  0  0  0  0  0  0  0  0  0
  139.6110   74.5780  221.0810 C   0  0  0  0  0  0  0  0  0  0  0  0
  140.5170   75.6790  220.9850 C   0  0  0  0  0  0  0  0  0  0  0  0
  141.6900   75.4880  221.5480 O   0  0  0  0  0  0  0  0  0  0  0  0
  140.4210   76.9660  220.3980 N   0  0  0  0  0  0  0  0  0  0  0  0
  139.1390   77.3300  219.7470 C   0  0  0  0  0  0  0  0  0  0  0  0
  139.2720   78.7750  219.4250 C   0  0  0  0  0  0  0  0  0  0  0  0
  140.7500   78.9740  219.2090 C   0  0  0  0  0  0  0  0  0  0  0  0
  141.3330   78.0660  220.2830 C   0  0  1  0  0  0  0  0  0  0  0  0
  141.6060   78.7970  221.5240 C   0  0  0  0  0  0  0  0  0  0  0  0
  142.1890   80.0420  221.5650 C   0  0  0  0  0  0  0  0  0  0  0  0
  142.4580   80.7150  222.7490 C   0  0  0  0  0  0  0  0  0  0  0  0
  142.1440   80.1490  223.9620 C   0  0  0  0  0  0  0  0  0  0  0  0
  141.5600   78.9010  223.9520 C   0  0  0  0  0  0  0  0  0  0  0  0
  141.2960   78.2380  222.7730 C   0  0  0  0  0  0  0  0  0  0  0  0
  140.3190   71.7630  223.4900 C   0  0  0  0  0  0  0  0  0  0  0  0
  139.8660   70.4730  223.3030 C   0  0  0  0  0  0  0  0  0  0  0  0
  139.8120   69.6460  224.3950 C   0  0  0  0  0  0  0  0  0  0  0  0
  140.2020   70.1050  225.6240 C   0  0  0  0  0  0  0  0  0  0  0  0
  140.1640   69.2970  226.7570 C   0  0  0  0  0  0  0  0  0  0  0  0
  139.6060   67.6510  226.6270 Cl  0  0  0  0  0  0  0  0  0  0  0  0
  140.5630   69.7820  227.9900 C   0  0  0  0  0  0  0  0  0  0  0  0
  141.0120   71.0850  228.1340 C   0  0  0  0  0  0  0  0  0  0  0  0
  141.0560   71.9080  227.0070 C   0  0  0  0  0  0  0  0  0  0  0  0
  140.6530   71.3990  225.7920 C   0  0  0  0  0  0  0  0  0  0  0  0
  140.7020   72.2090  224.7040 N   0  0  0  0  0  0  0  0  0  0  0  0
  138.8900   73.9090  223.0720 H   0  0  0  0  0  0  0  0  0  0  0  0
  139.8845   73.8853  220.2714 H   0  0  0  0  0  0  0  0  0  0  0  0
  138.6351   75.0848  221.0523 H   0  0  0  0  0  0  0  0  0  0  0  0
  138.9894   76.7411  218.8300 H   0  0  0  0  0  0  0  0  0  0  0  0
  138.2730   77.1274  220.3943 H   0  0  0  0  0  0  0  0  0  0  0  0
  138.7080   79.0248  218.5142 H   0  0  0  0  0  0  0  0  0  0  0  0
  138.8728   79.4213  220.2206 H   0  0  0  0  0  0  0  0  0  0  0  0
  141.0564   78.6548  218.2019 H   0  0  0  0  0  0  0  0  0  0  0  0
  141.0784   80.0216  219.2776 H   0  0  0  0  0  0  0  0  0  0  0  0
  142.3267   77.6750  220.0190 H   0  0  0  0  0  0  0  0  0  0  0  0
  142.4548   80.5276  220.6144 H   0  0  0  0  0  0  0  0  0  0  0  0
  142.9264   81.7097  222.7164 H   0  0  0  0  0  0  0  0  0  0  0  0
  142.3515   80.6735  224.9064 H   0  0  0  0  0  0  0  0  0  0  0  0
  141.2984   78.4227  224.9074 H   0  0  0  0  0  0  0  0  0  0  0  0
  140.8292   77.2427  222.8123 H   0  0  0  0  0  0  0  0  0  0  0  0
  139.5577   70.1191  222.3082 H   0  0  0  0  0  0  0  0  0  0  0  0
  139.4546   68.6117  224.2833 H   0  0  0  0  0  0  0  0  0  0  0  0
  140.5231   69.1228  228.8697 H   0  0  0  0  0  0  0  0  0  0  0  0
  141.3277   71.4637  229.1173 H   0  0  0  0  0  0  0  0  0  0  0  0
  141.4072   72.9473  227.0881 H   0  0  0  0  0  0  0  0  0  0  0  0
  1  2  2  0
  2  3  1  0
  3  4  1  0
  4  5  1  0
  5  6  2  0
  5  7  1  0
  7  8  1  0
  8  9  1  0
  9 10  1  0
 10 11  1  0
 11 12  1  0
 12 13  2  0
 13 14  1  0
 14 15  2  0
 15 16  1  0
 16 17  2  0
  2 18  1  0
 18 19  2  0
 19 20  1  0
 20 21  2  0
 21 22  1  0
 22 23  1  0
 22 24  2  0
 24 25  1  0
 25 26  2  0
 26 27  1  0
 27 28  2  0
 11  7  1  0
 17 12  1  0
 28 18  1  0
 27 21  1  0
  3 29  1  0
  4 30  1  0
  4 31  1  0
  8 32  1  0
  8 33  1  0
  9 34  1  0
  9 35  1  0
 10 36  1  0
 10 37  1  0
 11 38  1  6
 13 39  1  0
 14 40  1  0
 15 41  1  0
 16 42  1  0
 17 43  1  0
 19 44  1  0
 20 45  1  0
 24 46  1  0
 25 47  1  0
 26 48  1  0
M  END
>  <smiles>  (40) 
O=C(NCC(=O)N1CCC[C@H]1c1ccccc1)c1ccc2c(Cl)cccc2n1

>  <score_type>  (40) 
oracle

>  <origin>  (40) 
autodockgpu

>  <m_score__min__energy>  (40) 
-9.3100000000000005

>  <m_primary>  (40) 
energy

>  <rmsd>  (40) 
1.851278669341175

>  <m_score__min__rmsd>  (40) 
1.851278669341175

>  <meeko>  (40) 
{"free_energy": -9.05, "intermolecular_energy": -10.54, "internal_energy": -1.22, "cluster_size": 14, "cluster_id": 1, "rank_in_cluster": 8}

>  <energy>  (40) 
-8.52

>  <cluster_rmsd>  (40) 
0.96

>  <cluster>  (40) 
3

$$$$

     RDKit          3D

 48 51  0  0  0  0  0  0  0  0999 V2000
  140.7900   74.7430  220.5450 O   0  0  0  0  0  0  0  0  0  0  0  0
  140.3000   75.4510  221.4670 C   0  0  0  0  0  0  0  0  0  0  0  0
  139.2760   74.8190  222.2920 N   0  0  0  0  0  0  0  0  0  0  0  0
  138.9500   73.4860  221.9660 C   0  0  0  0  0  0  0  0  0  0  0  0
  139.6370   72.3680  222.5330 C   0  0  0  0  0  0  0  0  0  0  0  0
  140.9240   72.5480  222.7370 O   0  0  0  0  0  0  0  0  0  0  0  0
  139.2200   71.0740  222.9330 N   0  0  0  0  0  0  0  0  0  0  0  0
  139.4610   69.9530  221.9920 C   0  0  0  0  0  0  0  0  0  0  0  0
  139.1190   68.7280  222.7630 C   0  0  0  0  0  0  0  0  0  0  0  0
  138.0650   69.1840  223.7380 C   0  0  0  0  0  0  0  0  0  0  0  0
  138.5820   70.5660  224.1130 C   0  0  1  0  0  0  0  0  0  0  0  0
  139.4140   70.5280  225.3180 C   0  0  0  0  0  0  0  0  0  0  0  0
  139.2930   69.5720  226.2990 C   0  0  0  0  0  0  0  0  0  0  0  0
  140.0770   69.5590  227.4450 C   0  0  0  0  0  0  0  0  0  0  0  0
  141.0310   70.5260  227.6520 C   0  0  0  0  0  0  0  0  0  0  0  0
  141.1750   71.4970  226.6850 C   0  0  0  0  0  0  0  0  0  0  0  0
  140.3930   71.5050  225.5500 C   0  0  0  0  0  0  0  0  0  0  0  0
  140.6970   76.8210  221.7310 C   0  0  0  0  0  0  0  0  0  0  0  0
  141.0750   77.1330  223.0200 C   0  0  0  0  0  0  0  0  0  0  0  0
  141.4530   78.4250  223.2840 C   0  0  0  0  0  0  0  0  0  0  0  0
  141.4480   79.3590  222.2840 C   0  0  0  0  0  0  0  0  0  0  0  0
  141.8240   80.6800  222.5100 C   0  0  0  0  0  0  0  0  0  0  0  0
  142.3190   81.1770  224.1060 Cl  0  0  0  0  0  0  0  0  0  0  0  0
  141.8120   81.6090  221.4850 C   0  0  0  0  0  0  0  0  0  0  0  0
  141.4250   81.2520  220.2020 C   0  0  0  0  0  0  0  0  0  0  0  0
  141.0440   79.9310  219.9590 C   0  0  0  0  0  0  0  0  0  0  0  0
  141.0660   79.0280  220.9990 C   0  0  0  0  0  0  0  0  0  0  0  0
  140.6940   77.7470  220.7500 N   0  0  0  0  0  0  0  0  0  0  0  0
  138.9020   75.4340  223.0280 H   0  0  0  0  0  0  0  0  0  0  0  0
  137.8893   73.3579  222.2277 H   0  0  0  0  0  0  0  0  0  0  0  0
  139.2577   73.4294  220.9114 H   0  0  0  0  0  0  0  0  0  0  0  0
  138.8158   70.0456  221.1059 H   0  0  0  0  0  0  0  0  0  0  0  0
  140.4976   69.9357  221.6243 H   0  0  0  0  0  0  0  0  0  0  0  0
  138.7226   67.9468  222.0977 H   0  0  0  0  0  0  0  0  0  0  0  0
  139.9941   68.2893  223.2648 H   0  0  0  0  0  0  0  0  0  0  0  0
  137.0745   69.2400  223.2629 H   0  0  0  0  0  0  0  0  0  0  0  0
  137.9223   68.5091  224.5948 H   0  0  0  0  0  0  0  0  0  0  0  0
  137.7787   71.2576  224.4070 H   0  0  0  0  0  0  0  0  0  0  0  0
  138.5400   68.7806  226.1699 H   0  0  0  0  0  0  0  0  0  0  0  0
  139.9329   68.7668  228.1945 H   0  0  0  0  0  0  0  0  0  0  0  0
  141.6569   70.5250  228.5566 H   0  0  0  0  0  0  0  0  0  0  0  0
  141.9314   72.2838  226.8220 H   0  0  0  0  0  0  0  0  0  0  0  0
  140.5410   72.3005  224.8048 H   0  0  0  0  0  0  0  0  0  0  0  0
  141.0734   76.3696  223.8119 H   0  0  0  0  0  0  0  0  0  0  0  0
  141.7605   78.7105  224.3008 H   0  0  0  0  0  0  0  0  0  0  0  0
  142.1140   82.6465  221.6907 H   0  0  0  0  0  0  0  0  0  0  0  0
  141.4184   81.9954  219.3913 H   0  0  0  0  0  0  0  0  0  0  0  0
  140.7311   79.6162  218.9525 H   0  0  0  0  0  0  0  0  0  0  0  0
  1  2  2  0
  2  3  1  0
  3  4  1  0
  4  5  1  0
  5  6  2  0
  5  7  1  0
  7  8  1  0
  8  9  1  0
  9 10  1  0
 10 11  1  0
 11 12  1  0
 12 13  2  0
 13 14  1  0
 14 15  2  0
 15 16  1  0
 16 17  2  0
  2 18  1  0
 18 19  2  0
 19 20  1  0
 20 21  2  0
 21 22  1  0
 22 23  1  0
 22 24  2  0
 24 25  1  0
 25 26  2  0
 26 27  1  0
 27 28  2  0
 11  7  1  0
 17 12  1  0
 28 18  1  0
 27 21  1  0
  3 29  1  0
  4 30  1  0
  4 31  1  0
  8 32  1  0
  8 33  1  0
  9 34  1  0
  9 35  1  0
 10 36  1  0
 10 37  1  0
 11 38  1  1
 13 39  1  0
 14 40  1  0
 15 41  1  0
 16 42  1  0
 17 43  1  0
 19 44  1  0
 20 45  1  0
 24 46  1  0
 25 47  1  0
 26 48  1  0
M  END
>  <smiles>  (41) 
O=C(NCC(=O)N1CCC[C@H]1c1ccccc1)c1ccc2c(Cl)cccc2n1

>  <score_type>  (41) 
oracle

>  <origin>  (41) 
autodockgpu

>  <m_score__min__energy>  (41) 
-9.3100000000000005

>  <m_primary>  (41) 
energy

>  <rmsd>  (41) 
8.548573923357267

>  <m_score__min__rmsd>  (41) 
8.548573923357267

>  <meeko>  (41) 
{"free_energy": -8.44, "intermolecular_energy": -9.94, "internal_energy": -1.16, "cluster_size": 24, "cluster_id": 3, "rank_in_cluster": 24}

>  <energy>  (41) 
-8.45

>  <cluster_rmsd>  (41) 
1.02

>  <cluster>  (41) 
3

$$$$

     RDKit          3D

 48 51  0  0  0  0  0  0  0  0999 V2000
  140.9850   74.4840  221.3640 O   0  0  0  0  0  0  0  0  0  0  0  0
  140.0090   75.0110  221.9660 C   0  0  0  0  0  0  0  0  0  0  0  0
  138.8890   74.1290  222.2760 N   0  0  0  0  0  0  0  0  0  0  0  0
  139.0240   72.7850  221.8690 C   0  0  0  0  0  0  0  0  0  0  0  0
  139.5940   71.7820  222.7130 C   0  0  0  0  0  0  0  0  0  0  0  0
  140.8490   71.9820  223.0500 O   0  0  0  0  0  0  0  0  0  0  0  0
  139.0830   70.5880  223.2810 N   0  0  0  0  0  0  0  0  0  0  0  0
  139.1640   69.3510  222.4660 C   0  0  0  0  0  0  0  0  0  0  0  0
  138.7570   68.2590  223.3890 C   0  0  0  0  0  0  0  0  0  0  0  0
  137.8090   68.9210  224.3540 C   0  0  0  0  0  0  0  0  0  0  0  0
  138.4720   70.2790  224.5400 C   0  0  1  0  0  0  0  0  0  0  0  0
  139.3670   70.2940  225.7010 C   0  0  0  0  0  0  0  0  0  0  0  0
  140.1980   71.3440  226.0100 C   0  0  0  0  0  0  0  0  0  0  0  0
  141.0540   71.3370  227.1040 C   0  0  0  0  0  0  0  0  0  0  0  0
  141.1060   70.2510  227.9440 C   0  0  0  0  0  0  0  0  0  0  0  0
  140.2830   69.1840  227.6590 C   0  0  0  0  0  0  0  0  0  0  0  0
  139.4360   69.1970  226.5720 C   0  0  0  0  0  0  0  0  0  0  0  0
  139.9550   76.4090  222.3470 C   0  0  0  0  0  0  0  0  0  0  0  0
  138.7080   76.9890  222.4540 C   0  0  0  0  0  0  0  0  0  0  0  0
  138.6430   78.3100  222.8130 C   0  0  0  0  0  0  0  0  0  0  0  0
  139.7920   79.0140  223.0550 C   0  0  0  0  0  0  0  0  0  0  0  0
  139.7690   80.3560  223.4220 C   0  0  0  0  0  0  0  0  0  0  0  0
  138.2430   81.1830  223.5840 Cl  0  0  0  0  0  0  0  0  0  0  0  0
  140.9420   81.0490  223.6620 C   0  0  0  0  0  0  0  0  0  0  0  0
  142.1760   80.4260  223.5430 C   0  0  0  0  0  0  0  0  0  0  0  0
  142.2160   79.0800  223.1750 C   0  0  0  0  0  0  0  0  0  0  0  0
  141.0310   78.4160  222.9430 C   0  0  0  0  0  0  0  0  0  0  0  0
  141.0840   77.1080  222.5870 N   0  0  0  0  0  0  0  0  0  0  0  0
  138.1150   74.6020  222.7620 H   0  0  0  0  0  0  0  0  0  0  0  0
  138.0101   72.4369  221.6222 H   0  0  0  0  0  0  0  0  0  0  0  0
  139.7776   72.8647  221.0717 H   0  0  0  0  0  0  0  0  0  0  0  0
  138.4790   69.4076  221.6072 H   0  0  0  0  0  0  0  0  0  0  0  0
  140.1712   69.1914  222.0536 H   0  0  0  0  0  0  0  0  0  0  0  0
  138.2519   67.4516  222.8386 H   0  0  0  0  0  0  0  0  0  0  0  0
  139.6161   67.7950  223.8956 H   0  0  0  0  0  0  0  0  0  0  0  0
  136.8013   69.0204  223.9242 H   0  0  0  0  0  0  0  0  0  0  0  0
  137.6559   68.3627  225.2894 H   0  0  0  0  0  0  0  0  0  0  0  0
  137.7540   71.0742  224.7892 H   0  0  0  0  0  0  0  0  0  0  0  0
  140.1847   72.2317  225.3605 H   0  0  0  0  0  0  0  0  0  0  0  0
  141.6959   72.2086  227.2995 H   0  0  0  0  0  0  0  0  0  0  0  0
  141.7805   70.2343  228.8127 H   0  0  0  0  0  0  0  0  0  0  0  0
  140.3023   68.3008  228.3144 H   0  0  0  0  0  0  0  0  0  0  0  0
  138.7962   68.3226  226.3822 H   0  0  0  0  0  0  0  0  0  0  0  0
  137.7941   76.4092  222.2573 H   0  0  0  0  0  0  0  0  0  0  0  0
  137.6656   78.8057  222.9069 H   0  0  0  0  0  0  0  0  0  0  0  0
  140.8957   82.1093  223.9514 H   0  0  0  0  0  0  0  0  0  0  0  0
  143.1054   80.9823  223.7350 H   0  0  0  0  0  0  0  0  0  0  0  0
  143.1785   78.5575  223.0718 H   0  0  0  0  0  0  0  0  0  0  0  0
  1  2  2  0
  2  3  1  0
  3  4  1  0
  4  5  1  0
  5  6  2  0
  5  7  1  0
  7  8  1  0
  8  9  1  0
  9 10  1  0
 10 11  1  0
 11 12  1  0
 12 13  2  0
 13 14  1  0
 14 15  2  0
 15 16  1  0
 16 17  2  0
  2 18  1  0
 18 19  2  0
 19 20  1  0
 20 21  2  0
 21 22  1  0
 22 23  1  0
 22 24  2  0
 24 25  1  0
 25 26  2  0
 26 27  1  0
 27 28  2  0
 11  7  1  0
 17 12  1  0
 28 18  1  0
 27 21  1  0
  3 29  1  0
  4 30  1  0
  4 31  1  0
  8 32  1  0
  8 33  1  0
  9 34  1  0
  9 35  1  0
 10 36  1  0
 10 37  1  0
 11 38  1  1
 13 39  1  0
 14 40  1  0
 15 41  1  0
 16 42  1  0
 17 43  1  0
 19 44  1  0
 20 45  1  0
 24 46  1  0
 25 47  1  0
 26 48  1  0
M  END
>  <smiles>  (42) 
O=C(NCC(=O)N1CCC[C@H]1c1ccccc1)c1ccc2c(Cl)cccc2n1

>  <score_type>  (42) 
oracle

>  <origin>  (42) 
autodockgpu

>  <m_score__min__energy>  (42) 
-9.3100000000000005

>  <m_primary>  (42) 
energy

>  <rmsd>  (42) 
8.127357927590912

>  <m_score__min__rmsd>  (42) 
8.127357927590912

>  <meeko>  (42) 
{"free_energy": -9.1, "intermolecular_energy": -10.59, "internal_energy": -1.15, "cluster_size": 24, "cluster_id": 3, "rank_in_cluster": 2}

>  <energy>  (42) 
-8.44

>  <cluster_rmsd>  (42) 
1.53

>  <cluster>  (42) 
3

$$$$

     RDKit          3D

 48 51  0  0  0  0  0  0  0  0999 V2000
  141.4090   72.6110  221.7660 O   0  0  0  0  0  0  0  0  0  0  0  0
  140.4240   72.5730  222.5540 C   0  0  0  0  0  0  0  0  0  0  0  0
  139.3680   73.5490  222.3130 N   0  0  0  0  0  0  0  0  0  0  0  0
  139.5650   74.4260  221.2250 C   0  0  0  0  0  0  0  0  0  0  0  0
  140.0180   75.7700  221.3970 C   0  0  0  0  0  0  0  0  0  0  0  0
  139.8320   76.2740  222.5970 O   0  0  0  0  0  0  0  0  0  0  0  0
  140.6420   76.7010  220.5290 N   0  0  0  0  0  0  0  0  0  0  0  0
  139.9730   76.9920  219.2380 C   0  0  0  0  0  0  0  0  0  0  0  0
  140.7340   78.1320  218.6620 C   0  0  0  0  0  0  0  0  0  0  0  0
  142.1300   77.9590  219.2030 C   0  0  0  0  0  0  0  0  0  0  0  0
  141.8440   77.4780  220.6190 C   0  0  1  0  0  0  0  0  0  0  0  0
  141.8130   78.5890  221.5750 C   0  0  0  0  0  0  0  0  0  0  0  0
  141.8630   79.9140  221.2090 C   0  0  0  0  0  0  0  0  0  0  0  0
  141.8500   80.9550  222.1270 C   0  0  0  0  0  0  0  0  0  0  0  0
  141.7840   80.6980  223.4750 C   0  0  0  0  0  0  0  0  0  0  0  0
  141.7320   79.3800  223.8720 C   0  0  0  0  0  0  0  0  0  0  0  0
  141.7460   78.3500  222.9550 C   0  0  0  0  0  0  0  0  0  0  0  0
  140.3050   71.6340  223.6520 C   0  0  0  0  0  0  0  0  0  0  0  0
  139.7500   70.4020  223.3730 C   0  0  0  0  0  0  0  0  0  0  0  0
  139.6300   69.5040  224.4020 C   0  0  0  0  0  0  0  0  0  0  0  0
  140.0550   69.8400  225.6590 C   0  0  0  0  0  0  0  0  0  0  0  0
  139.9520   68.9560  226.7310 C   0  0  0  0  0  0  0  0  0  0  0  0
  139.2640   67.3740  226.4840 Cl  0  0  0  0  0  0  0  0  0  0  0  0
  140.3890   69.3160  227.9930 C   0  0  0  0  0  0  0  0  0  0  0  0
  140.9410   70.5650  228.2290 C   0  0  0  0  0  0  0  0  0  0  0  0
  141.0520   71.4620  227.1650 C   0  0  0  0  0  0  0  0  0  0  0  0
  140.6090   71.0770  225.9190 C   0  0  0  0  0  0  0  0  0  0  0  0
  140.7220   71.9580  224.8930 N   0  0  0  0  0  0  0  0  0  0  0  0
  138.5880   73.4850  222.9820 H   0  0  0  0  0  0  0  0  0  0  0  0
  140.2992   73.9375  220.5674 H   0  0  0  0  0  0  0  0  0  0  0  0
  138.5359   74.5780  220.8675 H   0  0  0  0  0  0  0  0  0  0  0  0
  140.0211   76.1183  218.5715 H   0  0  0  0  0  0  0  0  0  0  0  0
  138.9067   77.2290  219.3680 H   0  0  0  0  0  0  0  0  0  0  0  0
  140.7334   78.0853  217.5630 H   0  0  0  0  0  0  0  0  0  0  0  0
  140.2977   79.1060  218.9284 H   0  0  0  0  0  0  0  0  0  0  0  0
  142.6941   77.2090  218.6292 H   0  0  0  0  0  0  0  0  0  0  0  0
  142.7485   78.8672  219.1522 H   0  0  0  0  0  0  0  0  0  0  0  0
  142.6452   76.8433  221.0255 H   0  0  0  0  0  0  0  0  0  0  0  0
  141.9158   80.1602  220.1382 H   0  0  0  0  0  0  0  0  0  0  0  0
  141.8929   81.9953  221.7720 H   0  0  0  0  0  0  0  0  0  0  0  0
  141.7731   81.5155  224.2109 H   0  0  0  0  0  0  0  0  0  0  0  0
  141.6781   79.1436  224.9449 H   0  0  0  0  0  0  0  0  0  0  0  0
  141.7034   77.3119  223.3163 H   0  0  0  0  0  0  0  0  0  0  0  0
  139.4143   70.1482  222.3567 H   0  0  0  0  0  0  0  0  0  0  0  0
  139.1916   68.5122  224.2172 H   0  0  0  0  0  0  0  0  0  0  0  0
  140.2969   68.5995  228.8225 H   0  0  0  0  0  0  0  0  0  0  0  0
  141.2852   70.8444  229.2357 H   0  0  0  0  0  0  0  0  0  0  0  0
  141.4865   72.4607  227.3194 H   0  0  0  0  0  0  0  0  0  0  0  0
  1  2  2  0
  2  3  1  0
  3  4  1  0
  4  5  1  0
  5  6  2  0
  5  7  1  0
  7  8  1  0
  8  9  1  0
  9 10  1  0
 10 11  1  0
 11 12  1  0
 12 13  2  0
 13 14  1  0
 14 15  2  0
 15 16  1  0
 16 17  2  0
  2 18  1  0
 18 19  2  0
 19 20  1  0
 20 21  2  0
 21 22  1  0
 22 23  1  0
 22 24  2  0
 24 25  1  0
 25 26  2  0
 26 27  1  0
 27 28  2  0
 11  7  1  0
 17 12  1  0
 28 18  1  0
 27 21  1  0
  3 29  1  0
  4 30  1  0
  4 31  1  0
  8 32  1  0
  8 33  1  0
  9 34  1  0
  9 35  1  0
 10 36  1  0
 10 37  1  0
 11 38  1  1
 13 39  1  0
 14 40  1  0
 15 41  1  0
 16 42  1  0
 17 43  1  0
 19 44  1  0
 20 45  1  0
 24 46  1  0
 25 47  1  0
 26 48  1  0
M  END
>  <smiles>  (43) 
O=C(NCC(=O)N1CCC[C@H]1c1ccccc1)c1ccc2c(Cl)cccc2n1

>  <score_type>  (43) 
oracle

>  <origin>  (43) 
autodockgpu

>  <m_score__min__energy>  (43) 
-9.3100000000000005

>  <m_primary>  (43) 
energy

>  <rmsd>  (43) 
1.6479810128298624

>  <m_score__min__rmsd>  (43) 
1.6479810128298624

>  <meeko>  (43) 
{"free_energy": -9.24, "intermolecular_energy": -10.73, "internal_energy": -1.17, "cluster_size": 14, "cluster_id": 1, "rank_in_cluster": 3}

>  <energy>  (43) 
-8.56

>  <cluster_rmsd>  (43) 
0.0

>  <cluster>  (43) 
4

$$$$

     RDKit          3D

 48 51  0  0  0  0  0  0  0  0999 V2000
  141.1380   71.8840  221.4180 O   0  0  0  0  0  0  0  0  0  0  0  0
  140.4190   72.2240  222.3980 C   0  0  0  0  0  0  0  0  0  0  0  0
  139.6110   73.4250  222.2200 N   0  0  0  0  0  0  0  0  0  0  0  0
  139.7230   74.0720  220.9710 C   0  0  0  0  0  0  0  0  0  0  0  0
  139.4270   75.4590  220.7970 C   0  0  0  0  0  0  0  0  0  0  0  0
  140.0330   76.0380  219.7840 O   0  0  0  0  0  0  0  0  0  0  0  0
  138.5990   76.3700  221.5010 N   0  0  0  0  0  0  0  0  0  0  0  0
  137.5010   75.8050  222.3230 C   0  0  0  0  0  0  0  0  0  0  0  0
  136.9610   76.9620  223.0840 C   0  0  0  0  0  0  0  0  0  0  0  0
  137.2140   78.1480  222.1900 C   0  0  0  0  0  0  0  0  0  0  0  0
  138.5780   77.7990  221.6100 C   0  0  1  0  0  0  0  0  0  0  0  0
  139.6690   78.3920  222.3900 C   0  0  0  0  0  0  0  0  0  0  0  0
  140.8160   77.7160  222.7340 C   0  0  0  0  0  0  0  0  0  0  0  0
  141.8330   78.2850  223.4890 C   0  0  0  0  0  0  0  0  0  0  0  0
  141.7340   79.5810  223.9330 C   0  0  0  0  0  0  0  0  0  0  0  0
  140.5950   80.2830  223.6030 C   0  0  0  0  0  0  0  0  0  0  0  0
  139.5880   79.7130  222.8550 C   0  0  0  0  0  0  0  0  0  0  0  0
  140.3670   71.4960  223.6510 C   0  0  0  0  0  0  0  0  0  0  0  0
  139.9160   70.1940  223.6080 C   0  0  0  0  0  0  0  0  0  0  0  0
  139.8610   69.4940  224.7860 C   0  0  0  0  0  0  0  0  0  0  0  0
  140.2470   70.0880  225.9560 C   0  0  0  0  0  0  0  0  0  0  0  0
  140.2060   69.4120  227.1730 C   0  0  0  0  0  0  0  0  0  0  0  0
  139.6510   67.7610  227.2270 Cl  0  0  0  0  0  0  0  0  0  0  0  0
  140.6020   70.0320  228.3450 C   0  0  0  0  0  0  0  0  0  0  0  0
  141.0490   71.3440  228.3430 C   0  0  0  0  0  0  0  0  0  0  0  0
  141.0960   72.0360  227.1310 C   0  0  0  0  0  0  0  0  0  0  0  0
  140.6960   71.3930  225.9800 C   0  0  0  0  0  0  0  0  0  0  0  0
  140.7460   72.0760  224.8080 N   0  0  0  0  0  0  0  0  0  0  0  0
  139.0450   73.6670  223.0460 H   0  0  0  0  0  0  0  0  0  0  0  0
  140.7670   73.9396  220.6506 H   0  0  0  0  0  0  0  0  0  0  0  0
  138.9159   73.5947  220.3959 H   0  0  0  0  0  0  0  0  0  0  0  0
  136.7228   75.3664  221.6810 H   0  0  0  0  0  0  0  0  0  0  0  0
  137.8510   74.9997  222.9855 H   0  0  0  0  0  0  0  0  0  0  0  0
  135.8840   76.8373  223.2701 H   0  0  0  0  0  0  0  0  0  0  0  0
  137.4333   77.0723  224.0713 H   0  0  0  0  0  0  0  0  0  0  0  0
  136.4503   78.2288  221.4025 H   0  0  0  0  0  0  0  0  0  0  0  0
  137.1795   79.1179  222.7078 H   0  0  0  0  0  0  0  0  0  0  0  0
  138.7415   78.2323  220.6123 H   0  0  0  0  0  0  0  0  0  0  0  0
  140.9333   76.6760  222.3953 H   0  0  0  0  0  0  0  0  0  0  0  0
  142.7266   77.6921  223.7339 H   0  0  0  0  0  0  0  0  0  0  0  0
  142.5347   80.0417  224.5302 H   0  0  0  0  0  0  0  0  0  0  0  0
  140.4872   81.3230  223.9448 H   0  0  0  0  0  0  0  0  0  0  0  0
  138.6958   80.3103  222.6158 H   0  0  0  0  0  0  0  0  0  0  0  0
  139.6098   69.7310  222.6584 H   0  0  0  0  0  0  0  0  0  0  0  0
  139.5058   68.4529  224.7899 H   0  0  0  0  0  0  0  0  0  0  0  0
  140.5614   69.4751  229.2927 H   0  0  0  0  0  0  0  0  0  0  0  0
  141.3609   71.8310  229.2787 H   0  0  0  0  0  0  0  0  0  0  0  0
  141.4468   73.0780  227.0958 H   0  0  0  0  0  0  0  0  0  0  0  0
  1  2  2  0
  2  3  1  0
  3  4  1  0
  4  5  1  0
  5  6  2  0
  5  7  1  0
  7  8  1  0
  8  9  1  0
  9 10  1  0
 10 11  1  0
 11 12  1  0
 12 13  2  0
 13 14  1  0
 14 15  2  0
 15 16  1  0
 16 17  2  0
  2 18  1  0
 18 19  2  0
 19 20  1  0
 20 21  2  0
 21 22  1  0
 22 23  1  0
 22 24  2  0
 24 25  1  0
 25 26  2  0
 26 27  1  0
 27 28  2  0
 11  7  1  0
 17 12  1  0
 28 18  1  0
 27 21  1  0
  3 29  1  0
  4 30  1  0
  4 31  1  0
  8 32  1  0
  8 33  1  0
  9 34  1  0
  9 35  1  0
 10 36  1  0
 10 37  1  0
 11 38  1  6
 13 39  1  0
 14 40  1  0
 15 41  1  0
 16 42  1  0
 17 43  1  0
 19 44  1  0
 20 45  1  0
 24 46  1  0
 25 47  1  0
 26 48  1  0
M  END
>  <smiles>  (44) 
O=C(NCC(=O)N1CCC[C@H]1c1ccccc1)c1ccc2c(Cl)cccc2n1

>  <score_type>  (44) 
oracle

>  <origin>  (44) 
autodockgpu

>  <m_score__min__energy>  (44) 
-9.3100000000000005

>  <m_primary>  (44) 
energy

>  <rmsd>  (44) 
3.1151774892389037

>  <m_score__min__rmsd>  (44) 
3.1151774892389037

>  <meeko>  (44) 
{"free_energy": -8.61, "intermolecular_energy": -10.1, "internal_energy": -1.27, "cluster_size": 14, "cluster_id": 1, "rank_in_cluster": 13}

>  <energy>  (44) 
-8.46

>  <cluster_rmsd>  (44) 
0.32

>  <cluster>  (44) 
4

$$$$

     RDKit          3D

 48 51  0  0  0  0  0  0  0  0999 V2000
  140.7840   74.1830  220.3280 O   0  0  0  0  0  0  0  0  0  0  0  0
  140.4020   74.9170  221.2810 C   0  0  0  0  0  0  0  0  0  0  0  0
  139.6010   74.2700  222.3140 N   0  0  0  0  0  0  0  0  0  0  0  0
  139.3430   72.8950  222.1310 C   0  0  0  0  0  0  0  0  0  0  0  0
  139.6750   71.9160  223.1180 C   0  0  0  0  0  0  0  0  0  0  0  0
  140.7070   72.2140  223.8770 O   0  0  0  0  0  0  0  0  0  0  0  0
  139.1160   70.6600  223.4650 N   0  0  0  0  0  0  0  0  0  0  0  0
  139.1510   69.5860  222.4420 C   0  0  0  0  0  0  0  0  0  0  0  0
  138.6980   68.3640  223.1570 C   0  0  0  0  0  0  0  0  0  0  0  0
  137.7720   68.8800  224.2280 C   0  0  0  0  0  0  0  0  0  0  0  0
  138.4870   70.1560  224.6510 C   0  0  1  0  0  0  0  0  0  0  0  0
  139.3770   69.9280  225.7940 C   0  0  0  0  0  0  0  0  0  0  0  0
  140.0950   70.9250  226.4130 C   0  0  0  0  0  0  0  0  0  0  0  0
  140.9480   70.6910  227.4830 C   0  0  0  0  0  0  0  0  0  0  0  0
  141.1150   69.4210  227.9810 C   0  0  0  0  0  0  0  0  0  0  0  0
  140.4080   68.4030  227.3800 C   0  0  0  0  0  0  0  0  0  0  0  0
  139.5630   68.6410  226.3180 C   0  0  0  0  0  0  0  0  0  0  0  0
  140.7150   76.3290  221.3880 C   0  0  0  0  0  0  0  0  0  0  0  0
  140.5830   77.0950  220.2480 C   0  0  0  0  0  0  0  0  0  0  0  0
  140.8760   78.4310  220.3340 C   0  0  0  0  0  0  0  0  0  0  0  0
  141.2850   78.9690  221.5250 C   0  0  0  0  0  0  0  0  0  0  0  0
  141.5920   80.3210  221.6540 C   0  0  0  0  0  0  0  0  0  0  0  0
  141.4580   81.3750  220.2720 Cl  0  0  0  0  0  0  0  0  0  0  0  0
  142.0030   80.8440  222.8670 C   0  0  0  0  0  0  0  0  0  0  0  0
  142.1220   80.0380  223.9890 C   0  0  0  0  0  0  0  0  0  0  0  0
  141.8180   78.6800  223.8760 C   0  0  0  0  0  0  0  0  0  0  0  0
  141.4120   78.1870  222.6550 C   0  0  0  0  0  0  0  0  0  0  0  0
  141.1180   76.8660  222.5580 N   0  0  0  0  0  0  0  0  0  0  0  0
  139.3080   74.9070  223.0680 H   0  0  0  0  0  0  0  0  0  0  0  0
  138.2593   72.8064  221.9645 H   0  0  0  0  0  0  0  0  0  0  0  0
  140.0371   72.6404  221.3165 H   0  0  0  0  0  0  0  0  0  0  0  0
  138.4718   69.8218  221.6095 H   0  0  0  0  0  0  0  0  0  0  0  0
  140.1525   69.4629  222.0040 H   0  0  0  0  0  0  0  0  0  0  0  0
  138.1641   67.6879  222.4730 H   0  0  0  0  0  0  0  0  0  0  0  0
  139.5364   67.7842  223.5704 H   0  0  0  0  0  0  0  0  0  0  0  0
  136.7707   69.0938  223.8259 H   0  0  0  0  0  0  0  0  0  0  0  0
  137.5932   68.1703  225.0492 H   0  0  0  0  0  0  0  0  0  0  0  0
  137.7998   70.9221  225.0394 H   0  0  0  0  0  0  0  0  0  0  0  0
  139.9883   71.9554  226.0429 H   0  0  0  0  0  0  0  0  0  0  0  0
  141.4956   71.5303  227.9367 H   0  0  0  0  0  0  0  0  0  0  0  0
  141.7885   69.2247  228.8283 H   0  0  0  0  0  0  0  0  0  0  0  0
  140.5207   67.3757  227.7568 H   0  0  0  0  0  0  0  0  0  0  0  0
  139.0189   67.7972  225.8685 H   0  0  0  0  0  0  0  0  0  0  0  0
  140.2527   76.6471  219.2992 H   0  0  0  0  0  0  0  0  0  0  0  0
  140.7825   79.0721  219.4450 H   0  0  0  0  0  0  0  0  0  0  0  0
  142.2390   81.9157  222.9426 H   0  0  0  0  0  0  0  0  0  0  0  0
  142.4498   80.4606  224.9502 H   0  0  0  0  0  0  0  0  0  0  0  0
  141.9012   78.0143  224.7477 H   0  0  0  0  0  0  0  0  0  0  0  0
  1  2  2  0
  2  3  1  0
  3  4  1  0
  4  5  1  0
  5  6  2  0
  5  7  1  0
  7  8  1  0
  8  9  1  0
  9 10  1  0
 10 11  1  0
 11 12  1  0
 12 13  2  0
 13 14  1  0
 14 15  2  0
 15 16  1  0
 16 17  2  0
  2 18  1  0
 18 19  2  0
 19 20  1  0
 20 21  2  0
 21 22  1  0
 22 23  1  0
 22 24  2  0
 24 25  1  0
 25 26  2  0
 26 27  1  0
 27 28  2  0
 11  7  1  0
 17 12  1  0
 28 18  1  0
 27 21  1  0
  3 29  1  0
  4 30  1  0
  4 31  1  0
  8 32  1  0
  8 33  1  0
  9 34  1  0
  9 35  1  0
 10 36  1  0
 10 37  1  0
 11 38  1  1
 13 39  1  0
 14 40  1  0
 15 41  1  0
 16 42  1  0
 17 43  1  0
 19 44  1  0
 20 45  1  0
 24 46  1  0
 25 47  1  0
 26 48  1  0
M  END
>  <smiles>  (45) 
O=C(NCC(=O)N1CCC[C@H]1c1ccccc1)c1ccc2c(Cl)cccc2n1

>  <score_type>  (45) 
oracle

>  <origin>  (45) 
autodockgpu

>  <m_score__min__energy>  (45) 
-9.3100000000000005

>  <m_primary>  (45) 
energy

>  <rmsd>  (45) 
8.199126436805905

>  <m_score__min__rmsd>  (45) 
8.199126436805905

>  <meeko>  (45) 
{"free_energy": -8.75, "intermolecular_energy": -10.24, "internal_energy": -1.26, "cluster_size": 24, "cluster_id": 3, "rank_in_cluster": 16}

>  <energy>  (45) 
-8.42

>  <cluster_rmsd>  (45) 
0.16

>  <cluster>  (45) 
4

$$$$

     RDKit          3D

 48 51  0  0  0  0  0  0  0  0999 V2000
  140.8660   74.5530  220.8990 O   0  0  0  0  0  0  0  0  0  0  0  0
  140.0380   74.9630  221.7590 C   0  0  0  0  0  0  0  0  0  0  0  0
  139.1120   73.9690  222.2890 N   0  0  0  0  0  0  0  0  0  0  0  0
  139.2470   72.6590  221.7810 C   0  0  0  0  0  0  0  0  0  0  0  0
  139.7710   71.5840  222.5650 C   0  0  0  0  0  0  0  0  0  0  0  0
  141.0780   71.5840  222.7110 O   0  0  0  0  0  0  0  0  0  0  0  0
  139.1690   70.4900  223.2350 N   0  0  0  0  0  0  0  0  0  0  0  0
  139.1840   69.1740  222.5520 C   0  0  0  0  0  0  0  0  0  0  0  0
  138.6840   68.2110  223.5690 C   0  0  0  0  0  0  0  0  0  0  0  0
  137.7620   69.0290  224.4340 C   0  0  0  0  0  0  0  0  0  0  0  0
  138.5110   70.3530  224.5020 C   0  0  1  0  0  0  0  0  0  0  0  0
  139.3790   70.4280  225.6800 C   0  0  0  0  0  0  0  0  0  0  0  0
  140.2460   71.4680  225.9240 C   0  0  0  0  0  0  0  0  0  0  0  0
  141.0760   71.5170  227.0360 C   0  0  0  0  0  0  0  0  0  0  0  0
  141.0650   70.5040  227.9630 C   0  0  0  0  0  0  0  0  0  0  0  0
  140.2060   69.4490  227.7450 C   0  0  0  0  0  0  0  0  0  0  0  0
  139.3850   69.4050  226.6390 C   0  0  0  0  0  0  0  0  0  0  0  0
  139.9710   76.3350  222.2240 C   0  0  0  0  0  0  0  0  0  0  0  0
  138.7170   76.8780  222.4140 C   0  0  0  0  0  0  0  0  0  0  0  0
  138.6380   78.1750  222.8540 C   0  0  0  0  0  0  0  0  0  0  0  0
  139.7810   78.8900  223.0900 C   0  0  0  0  0  0  0  0  0  0  0  0
  139.7440   80.2080  223.5370 C   0  0  0  0  0  0  0  0  0  0  0  0
  138.2090   80.9870  223.8080 Cl  0  0  0  0  0  0  0  0  0  0  0  0
  140.9120   80.9130  223.7700 C   0  0  0  0  0  0  0  0  0  0  0  0
  142.1520   80.3280  223.5670 C   0  0  0  0  0  0  0  0  0  0  0  0
  142.2060   79.0060  223.1190 C   0  0  0  0  0  0  0  0  0  0  0  0
  141.0270   78.3290  222.8940 C   0  0  0  0  0  0  0  0  0  0  0  0
  141.0930   77.0450  222.4600 N   0  0  0  0  0  0  0  0  0  0  0  0
  138.4530   74.3490  222.9830 H   0  0  0  0  0  0  0  0  0  0  0  0
  138.2398   72.3468  221.4679 H   0  0  0  0  0  0  0  0  0  0  0  0
  140.0322   72.7899  221.0218 H   0  0  0  0  0  0  0  0  0  0  0  0
  138.5232   69.1865  221.6727 H   0  0  0  0  0  0  0  0  0  0  0  0
  140.1868   68.9078  222.1866 H   0  0  0  0  0  0  0  0  0  0  0  0
  138.1378   67.3857  223.0888 H   0  0  0  0  0  0  0  0  0  0  0  0
  139.4984   67.7467  224.1444 H   0  0  0  0  0  0  0  0  0  0  0  0
  136.7734   69.1494  223.9670 H   0  0  0  0  0  0  0  0  0  0  0  0
  137.5506   68.5807  225.4160 H   0  0  0  0  0  0  0  0  0  0  0  0
  137.8439   71.2150  224.6499 H   0  0  0  0  0  0  0  0  0  0  0  0
  140.2834   72.2994  225.2047 H   0  0  0  0  0  0  0  0  0  0  0  0
  141.7490   72.3758  227.1758 H   0  0  0  0  0  0  0  0  0  0  0  0
  141.7183   70.5337  228.8475 H   0  0  0  0  0  0  0  0  0  0  0  0
  140.1748   68.6228  228.4705 H   0  0  0  0  0  0  0  0  0  0  0  0
  138.7153   68.5428  226.5047 H   0  0  0  0  0  0  0  0  0  0  0  0
  137.8086   76.2892  222.2187 H   0  0  0  0  0  0  0  0  0  0  0  0
  137.6550   78.6408  223.0173 H   0  0  0  0  0  0  0  0  0  0  0  0
  140.8553   81.9537  224.1217 H   0  0  0  0  0  0  0  0  0  0  0  0
  143.0762   80.8941  223.7551 H   0  0  0  0  0  0  0  0  0  0  0  0
  143.1745   78.5131  222.9485 H   0  0  0  0  0  0  0  0  0  0  0  0
  1  2  2  0
  2  3  1  0
  3  4  1  0
  4  5  1  0
  5  6  2  0
  5  7  1  0
  7  8  1  0
  8  9  1  0
  9 10  1  0
 10 11  1  0
 11 12  1  0
 12 13  2  0
 13 14  1  0
 14 15  2  0
 15 16  1  0
 16 17  2  0
  2 18  1  0
 18 19  2  0
 19 20  1  0
 20 21  2  0
 21 22  1  0
 22 23  1  0
 22 24  2  0
 24 25  1  0
 25 26  2  0
 26 27  1  0
 27 28  2  0
 11  7  1  0
 17 12  1  0
 28 18  1  0
 27 21  1  0
  3 29  1  0
  4 30  1  0
  4 31  1  0
  8 32  1  0
  8 33  1  0
  9 34  1  0
  9 35  1  0
 10 36  1  0
 10 37  1  0
 11 38  1  1
 13 39  1  0
 14 40  1  0
 15 41  1  0
 16 42  1  0
 17 43  1  0
 19 44  1  0
 20 45  1  0
 24 46  1  0
 25 47  1  0
 26 48  1  0
M  END
>  <smiles>  (46) 
O=C(NCC(=O)N1CCC[C@H]1c1ccccc1)c1ccc2c(Cl)cccc2n1

>  <score_type>  (46) 
oracle

>  <origin>  (46) 
autodockgpu

>  <m_score__min__energy>  (46) 
-9.3100000000000005

>  <m_primary>  (46) 
energy

>  <rmsd>  (46) 
8.095979038639168

>  <m_score__min__rmsd>  (46) 
8.095979038639168

>  <meeko>  (46) 
{"free_energy": -9.01, "intermolecular_energy": -10.5, "internal_energy": -1.16, "cluster_size": 24, "cluster_id": 3, "rank_in_cluster": 10}

>  <energy>  (46) 
-7.84

>  <cluster_rmsd>  (46) 
0.0

>  <cluster>  (46) 
5

$$$$

     RDKit          3D

 48 51  0  0  0  0  0  0  0  0999 V2000
  140.4730   77.5100  219.1530 O   0  0  0  0  0  0  0  0  0  0  0  0
  141.7140   77.2950  219.2350 C   0  0  0  0  0  0  0  0  0  0  0  0
  142.5800   78.4630  219.1240 N   0  0  0  0  0  0  0  0  0  0  0  0
  141.9330   79.7030  218.9390 C   0  0  0  0  0  0  0  0  0  0  0  0
  141.7450   80.6350  220.0060 C   0  0  0  0  0  0  0  0  0  0  0  0
  141.4870   81.8690  219.6320 O   0  0  0  0  0  0  0  0  0  0  0  0
  141.7760   80.5120  221.4180 N   0  0  0  0  0  0  0  0  0  0  0  0
  141.5770   81.7450  222.2190 C   0  0  0  0  0  0  0  0  0  0  0  0
  141.4520   81.2710  223.6230 C   0  0  0  0  0  0  0  0  0  0  0  0
  142.2770   80.0120  223.6660 C   0  0  0  0  0  0  0  0  0  0  0  0
  141.9630   79.4020  222.3060 C   0  0  1  0  0  0  0  0  0  0  0  0
  140.8490   78.4520  222.3790 C   0  0  0  0  0  0  0  0  0  0  0  0
  139.5390   78.8250  222.5650 C   0  0  0  0  0  0  0  0  0  0  0  0
  138.4960   77.9130  222.6490 C   0  0  0  0  0  0  0  0  0  0  0  0
  138.7370   76.5640  222.5470 C   0  0  0  0  0  0  0  0  0  0  0  0
  140.0400   76.1600  222.3600 C   0  0  0  0  0  0  0  0  0  0  0  0
  141.0720   77.0710  222.2780 C   0  0  0  0  0  0  0  0  0  0  0  0
  142.2940   75.9800  219.4250 C   0  0  0  0  0  0  0  0  0  0  0  0
  141.5000   74.8890  219.1360 C   0  0  0  0  0  0  0  0  0  0  0  0
  142.0350   73.6400  219.3120 C   0  0  0  0  0  0  0  0  0  0  0  0
  143.3210   73.5010  219.7620 C   0  0  0  0  0  0  0  0  0  0  0  0
  143.9010   72.2500  219.9540 C   0  0  0  0  0  0  0  0  0  0  0  0
  142.9810   70.8080  219.6170 Cl  0  0  0  0  0  0  0  0  0  0  0  0
  145.2020   72.1320  220.4080 C   0  0  0  0  0  0  0  0  0  0  0  0
  145.9660   73.2550  220.6870 C   0  0  0  0  0  0  0  0  0  0  0  0
  145.3980   74.5170  220.5000 C   0  0  0  0  0  0  0  0  0  0  0  0
  144.1000   74.6040  220.0460 C   0  0  0  0  0  0  0  0  0  0  0  0
  143.5600   75.8360  219.8670 N   0  0  0  0  0  0  0  0  0  0  0  0
  143.5830   78.2390  219.1910 H   0  0  0  0  0  0  0  0  0  0  0  0
  142.5063   80.2349  218.1655 H   0  0  0  0  0  0  0  0  0  0  0  0
  140.9000   79.3903  218.7265 H   0  0  0  0  0  0  0  0  0  0  0  0
  142.4398   82.4191  222.1131 H   0  0  0  0  0  0  0  0  0  0  0  0
  140.6935   82.3135  221.8929 H   0  0  0  0  0  0  0  0  0  0  0  0
  141.8481   82.0205  224.3239 H   0  0  0  0  0  0  0  0  0  0  0  0
  140.4061   81.0981  223.9164 H   0  0  0  0  0  0  0  0  0  0  0  0
  143.3489   80.2364  223.7687 H   0  0  0  0  0  0  0  0  0  0  0  0
  142.0502   79.3540  224.5178 H   0  0  0  0  0  0  0  0  0  0  0  0
  142.7794   78.7737  221.9203 H   0  0  0  0  0  0  0  0  0  0  0  0
  139.3064   79.8966  222.6513 H   0  0  0  0  0  0  0  0  0  0  0  0
  137.4675   78.2733  222.7985 H   0  0  0  0  0  0  0  0  0  0  0  0
  137.9179   75.8327  222.6124 H   0  0  0  0  0  0  0  0  0  0  0  0
  140.2628   75.0862  222.2741 H   0  0  0  0  0  0  0  0  0  0  0  0
  142.0984   76.7045  222.1293 H   0  0  0  0  0  0  0  0  0  0  0  0
  140.4689   75.0182  218.7753 H   0  0  0  0  0  0  0  0  0  0  0  0
  141.4308   72.7476  219.0916 H   0  0  0  0  0  0  0  0  0  0  0  0
  145.6374   71.1319  220.5500 H   0  0  0  0  0  0  0  0  0  0  0  0
  146.9999   73.1538  221.0487 H   0  0  0  0  0  0  0  0  0  0  0  0
  145.9778   75.4274  220.7119 H   0  0  0  0  0  0  0  0  0  0  0  0
  1  2  2  0
  2  3  1  0
  3  4  1  0
  4  5  1  0
  5  6  2  0
  5  7  1  0
  7  8  1  0
  8  9  1  0
  9 10  1  0
 10 11  1  0
 11 12  1  0
 12 13  2  0
 13 14  1  0
 14 15  2  0
 15 16  1  0
 16 17  2  0
  2 18  1  0
 18 19  2  0
 19 20  1  0
 20 21  2  0
 21 22  1  0
 22 23  1  0
 22 24  2  0
 24 25  1  0
 25 26  2  0
 26 27  1  0
 27 28  2  0
 11  7  1  0
 17 12  1  0
 28 18  1  0
 27 21  1  0
  3 29  1  0
  4 30  1  0
  4 31  1  0
  8 32  1  0
  8 33  1  0
  9 34  1  0
  9 35  1  0
 10 36  1  0
 10 37  1  0
 11 38  1  6
 13 39  1  0
 14 40  1  0
 15 41  1  0
 16 42  1  0
 17 43  1  0
 19 44  1  0
 20 45  1  0
 24 46  1  0
 25 47  1  0
 26 48  1  0
M  END
>  <smiles>  (47) 
O=C(NCC(=O)N1CCC[C@H]1c1ccccc1)c1ccc2c(Cl)cccc2n1

>  <score_type>  (47) 
oracle

>  <origin>  (47) 
autodockgpu

>  <m_score__min__energy>  (47) 
-9.3100000000000005

>  <m_primary>  (47) 
energy

>  <rmsd>  (47) 
7.58934460591287

>  <m_score__min__rmsd>  (47) 
7.58934460591287

>  <meeko>  (47) 
{"free_energy": -7.15, "intermolecular_energy": -8.65, "internal_energy": -2.35, "cluster_size": 2, "cluster_id": 6, "rank_in_cluster": 1}

>  <energy>  (47) 
-7.74

>  <cluster_rmsd>  (47) 
0.12

>  <cluster>  (47) 
5

$$$$

     RDKit          3D

 48 51  0  0  0  0  0  0  0  0999 V2000
  141.0420   73.7500  221.0160 O   0  0  0  0  0  0  0  0  0  0  0  0
  140.3800   74.6590  221.5880 C   0  0  0  0  0  0  0  0  0  0  0  0
  139.1810   74.2340  222.3020 N   0  0  0  0  0  0  0  0  0  0  0  0
  138.8970   72.8520  222.2740 C   0  0  0  0  0  0  0  0  0  0  0  0
  139.5760   71.9140  223.1110 C   0  0  0  0  0  0  0  0  0  0  0  0
  140.8070   72.2430  223.4370 O   0  0  0  0  0  0  0  0  0  0  0  0
  139.1990   70.6720  223.6800 N   0  0  0  0  0  0  0  0  0  0  0  0
  139.3860   69.4530  222.8560 C   0  0  0  0  0  0  0  0  0  0  0  0
  139.1090   68.3210  223.7790 C   0  0  0  0  0  0  0  0  0  0  0  0
  138.1180   68.8810  224.7670 C   0  0  0  0  0  0  0  0  0  0  0  0
  138.6470   70.2970  224.9500 C   0  0  1  0  0  0  0  0  0  0  0  0
  139.5590   70.3960  226.0930 C   0  0  0  0  0  0  0  0  0  0  0  0
  140.3260   71.5050  226.3640 C   0  0  0  0  0  0  0  0  0  0  0  0
  141.1990   71.5770  227.4410 C   0  0  0  0  0  0  0  0  0  0  0  0
  141.3370   70.5160  228.3030 C   0  0  0  0  0  0  0  0  0  0  0  0
  140.5810   69.3910  228.0560 C   0  0  0  0  0  0  0  0  0  0  0  0
  139.7160   69.3250  226.9840 C   0  0  0  0  0  0  0  0  0  0  0  0
  140.7470   76.0620  221.5630 C   0  0  0  0  0  0  0  0  0  0  0  0
  140.7580   76.6930  220.3370 C   0  0  0  0  0  0  0  0  0  0  0  0
  141.1040   78.0190  220.2990 C   0  0  0  0  0  0  0  0  0  0  0  0
  141.4260   78.6770  221.4550 C   0  0  0  0  0  0  0  0  0  0  0  0
  141.7830   80.0230  221.4600 C   0  0  0  0  0  0  0  0  0  0  0  0
  141.8270   80.9120  219.9610 Cl  0  0  0  0  0  0  0  0  0  0  0  0
  142.1040   80.6690  222.6400 C   0  0  0  0  0  0  0  0  0  0  0  0
  142.0810   79.9970  223.8520 C   0  0  0  0  0  0  0  0  0  0  0  0
  141.7250   78.6470  223.8640 C   0  0  0  0  0  0  0  0  0  0  0  0
  141.4100   78.0290  222.6740 C   0  0  0  0  0  0  0  0  0  0  0  0
  141.0650   76.7170  222.6990 N   0  0  0  0  0  0  0  0  0  0  0  0
  138.6710   75.0090  222.7480 H   0  0  0  0  0  0  0  0  0  0  0  0
  137.8271   72.7546  222.5104 H   0  0  0  0  0  0  0  0  0  0  0  0
  139.2576   72.5667  221.2747 H   0  0  0  0  0  0  0  0  0  0  0  0
  138.6813   69.4450  222.0114 H   0  0  0  0  0  0  0  0  0  0  0  0
  140.3957   69.3967  222.4231 H   0  0  0  0  0  0  0  0  0  0  0  0
  138.6764   67.4697  223.2330 H   0  0  0  0  0  0  0  0  0  0  0  0
  140.0200   67.9426  224.2657 H   0  0  0  0  0  0  0  0  0  0  0  0
  137.0973   68.8823  224.3568 H   0  0  0  0  0  0  0  0  0  0  0  0
  138.0388   68.3054  225.7011 H   0  0  0  0  0  0  0  0  0  0  0  0
  137.8587   71.0153  225.2195 H   0  0  0  0  0  0  0  0  0  0  0  0
  140.2439   72.3753  225.6963 H   0  0  0  0  0  0  0  0  0  0  0  0
  141.7861   72.4925  227.6059 H   0  0  0  0  0  0  0  0  0  0  0  0
  142.0260   70.5631  229.1592 H   0  0  0  0  0  0  0  0  0  0  0  0
  140.6694   68.5256  228.7293 H   0  0  0  0  0  0  0  0  0  0  0  0
  139.1328   68.4062  226.8235 H   0  0  0  0  0  0  0  0  0  0  0  0
  140.4970   76.1489  219.4173 H   0  0  0  0  0  0  0  0  0  0  0  0
  141.1229   78.5546  219.3384 H   0  0  0  0  0  0  0  0  0  0  0  0
  142.3820   81.7330  222.6163 H   0  0  0  0  0  0  0  0  0  0  0  0
  142.3382   80.5173  224.7864 H   0  0  0  0  0  0  0  0  0  0  0  0
  141.6965   78.0855  224.8094 H   0  0  0  0  0  0  0  0  0  0  0  0
  1  2  2  0
  2  3  1  0
  3  4  1  0
  4  5  1  0
  5  6  2  0
  5  7  1  0
  7  8  1  0
  8  9  1  0
  9 10  1  0
 10 11  1  0
 11 12  1  0
 12 13  2  0
 13 14  1  0
 14 15  2  0
 15 16  1  0
 16 17  2  0
  2 18  1  0
 18 19  2  0
 19 20  1  0
 20 21  2  0
 21 22  1  0
 22 23  1  0
 22 24  2  0
 24 25  1  0
 25 26  2  0
 26 27  1  0
 27 28  2  0
 11  7  1  0
 17 12  1  0
 28 18  1  0
 27 21  1  0
  3 29  1  0
  4 30  1  0
  4 31  1  0
  8 32  1  0
  8 33  1  0
  9 34  1  0
  9 35  1  0
 10 36  1  0
 10 37  1  0
 11 38  1  1
 13 39  1  0
 14 40  1  0
 15 41  1  0
 16 42  1  0
 17 43  1  0
 19 44  1  0
 20 45  1  0
 24 46  1  0
 25 47  1  0
 26 48  1  0
M  END
>  <smiles>  (48) 
O=C(NCC(=O)N1CCC[C@H]1c1ccccc1)c1ccc2c(Cl)cccc2n1

>  <score_type>  (48) 
oracle

>  <origin>  (48) 
autodockgpu

>  <m_score__min__energy>  (48) 
-9.3100000000000005

>  <m_primary>  (48) 
energy

>  <rmsd>  (48) 
8.188976899934856

>  <m_score__min__rmsd>  (48) 
8.188976899934856

>  <meeko>  (48) 
{"free_energy": -8.7, "intermolecular_energy": -10.19, "internal_energy": -1.24, "cluster_size": 24, "cluster_id": 3, "rank_in_cluster": 19}

>  <energy>  (48) 
-7.72

>  <cluster_rmsd>  (48) 
0.24

>  <cluster>  (48) 
5

$$$$

     RDKit          3D

 48 51  0  0  0  0  0  0  0  0999 V2000
  141.0370   74.5670  221.4200 O   0  0  0  0  0  0  0  0  0  0  0  0
  140.0430   75.1060  221.9800 C   0  0  0  0  0  0  0  0  0  0  0  0
  138.9130   74.2320  222.2700 N   0  0  0  0  0  0  0  0  0  0  0  0
  139.0570   72.8810  221.8920 C   0  0  0  0  0  0  0  0  0  0  0  0
  139.5450   71.8820  222.7910 C   0  0  0  0  0  0  0  0  0  0  0  0
  140.7000   72.1560  223.3580 O   0  0  0  0  0  0  0  0  0  0  0  0
  139.0390   70.6270  223.2130 N   0  0  0  0  0  0  0  0  0  0  0  0
  139.1250   69.4950  222.2580 C   0  0  0  0  0  0  0  0  0  0  0  0
  138.7220   68.3000  223.0460 C   0  0  0  0  0  0  0  0  0  0  0  0
  137.7700   68.8410  224.0810 C   0  0  0  0  0  0  0  0  0  0  0  0
  138.4280   70.1700  224.4270 C   0  0  1  0  0  0  0  0  0  0  0  0
  139.3230   70.0510  225.5820 C   0  0  0  0  0  0  0  0  0  0  0  0
  139.5390   68.8750  226.2620 C   0  0  0  0  0  0  0  0  0  0  0  0
  140.3760   68.7810  227.3660 C   0  0  0  0  0  0  0  0  0  0  0  0
  141.0400   69.8880  227.8370 C   0  0  0  0  0  0  0  0  0  0  0  0
  140.8430   71.0800  227.1750 C   0  0  0  0  0  0  0  0  0  0  0  0
  140.0100   71.1670  226.0800 C   0  0  0  0  0  0  0  0  0  0  0  0
  139.9810   76.5110  222.3340 C   0  0  0  0  0  0  0  0  0  0  0  0
  138.7310   77.0890  222.4140 C   0  0  0  0  0  0  0  0  0  0  0  0
  138.6570   78.4170  222.7480 C   0  0  0  0  0  0  0  0  0  0  0  0
  139.8010   79.1290  222.9900 C   0  0  0  0  0  0  0  0  0  0  0  0
  139.7690   80.4780  223.3310 C   0  0  0  0  0  0  0  0  0  0  0  0
  138.2390   81.3020  223.4590 Cl  0  0  0  0  0  0  0  0  0  0  0  0
  140.9380   81.1780  223.5730 C   0  0  0  0  0  0  0  0  0  0  0  0
  142.1740   80.5580  223.4810 C   0  0  0  0  0  0  0  0  0  0  0  0
  142.2230   79.2050  223.1400 C   0  0  0  0  0  0  0  0  0  0  0  0
  141.0440   78.5330  222.9050 C   0  0  0  0  0  0  0  0  0  0  0  0
  141.1040   77.2180  222.5750 N   0  0  0  0  0  0  0  0  0  0  0  0
  138.1240   74.7160  222.7220 H   0  0  0  0  0  0  0  0  0  0  0  0
  138.0595   72.5445  221.5729 H   0  0  0  0  0  0  0  0  0  0  0  0
  139.8700   72.9377  221.1532 H   0  0  0  0  0  0  0  0  0  0  0  0
  138.4399   69.6497  221.4114 H   0  0  0  0  0  0  0  0  0  0  0  0
  140.1328   69.3890  221.8302 H   0  0  0  0  0  0  0  0  0  0  0  0
  138.2208   67.5607  222.4040 H   0  0  0  0  0  0  0  0  0  0  0  0
  139.5826   67.7830  223.4956 H   0  0  0  0  0  0  0  0  0  0  0  0
  136.7626   68.9871  223.6641 H   0  0  0  0  0  0  0  0  0  0  0  0
  137.6176   68.1760  224.9438 H   0  0  0  0  0  0  0  0  0  0  0  0
  137.7070   70.9275  224.7681 H   0  0  0  0  0  0  0  0  0  0  0  0
  139.0247   67.9666  225.9151 H   0  0  0  0  0  0  0  0  0  0  0  0
  140.5087   67.8114  227.8682 H   0  0  0  0  0  0  0  0  0  0  0  0
  141.7048   69.8247  228.7111 H   0  0  0  0  0  0  0  0  0  0  0  0
  141.3623   71.9831  227.5282 H   0  0  0  0  0  0  0  0  0  0  0  0
  139.8807   72.1397  225.5829 H   0  0  0  0  0  0  0  0  0  0  0  0
  137.8216   76.5027  222.2160 H   0  0  0  0  0  0  0  0  0  0  0  0
  137.6769   78.9109  222.8216 H   0  0  0  0  0  0  0  0  0  0  0  0
  140.8853   82.2432  223.8426 H   0  0  0  0  0  0  0  0  0  0  0  0
  143.0991   81.1213  223.6730 H   0  0  0  0  0  0  0  0  0  0  0  0
  143.1884   78.6838  223.0603 H   0  0  0  0  0  0  0  0  0  0  0  0
  1  2  2  0
  2  3  1  0
  3  4  1  0
  4  5  1  0
  5  6  2  0
  5  7  1  0
  7  8  1  0
  8  9  1  0
  9 10  1  0
 10 11  1  0
 11 12  1  0
 12 13  2  0
 13 14  1  0
 14 15  2  0
 15 16  1  0
 16 17  2  0
  2 18  1  0
 18 19  2  0
 19 20  1  0
 20 21  2  0
 21 22  1  0
 22 23  1  0
 22 24  2  0
 24 25  1  0
 25 26  2  0
 26 27  1  0
 27 28  2  0
 11  7  1  0
 17 12  1  0
 28 18  1  0
 27 21  1  0
  3 29  1  0
  4 30  1  0
  4 31  1  0
  8 32  1  0
  8 33  1  0
  9 34  1  0
  9 35  1  0
 10 36  1  0
 10 37  1  0
 11 38  1  1
 13 39  1  0
 14 40  1  0
 15 41  1  0
 16 42  1  0
 17 43  1  0
 19 44  1  0
 20 45  1  0
 24 46  1  0
 25 47  1  0
 26 48  1  0
M  END
>  <smiles>  (49) 
O=C(NCC(=O)N1CCC[C@H]1c1ccccc1)c1ccc2c(Cl)cccc2n1

>  <score_type>  (49) 
oracle

>  <origin>  (49) 
autodockgpu

>  <m_score__min__energy>  (49) 
-9.3100000000000005

>  <m_primary>  (49) 
energy

>  <rmsd>  (49) 
8.148595037634605

>  <m_score__min__rmsd>  (49) 
8.148595037634605

>  <meeko>  (49) 
{"free_energy": -9.07, "intermolecular_energy": -10.56, "internal_energy": -1.12, "cluster_size": 24, "cluster_id": 3, "rank_in_cluster": 5}

>  <energy>  (49) 
-7.15

>  <cluster_rmsd>  (49) 
0.0

>  <cluster>  (49) 
6

$$$$

     RDKit          3D

 48 51  0  0  0  0  0  0  0  0999 V2000
  140.7510   74.4060  221.3970 O   0  0  0  0  0  0  0  0  0  0  0  0
  139.8040   75.0130  221.9690 C   0  0  0  0  0  0  0  0  0  0  0  0
  138.6220   74.2170  222.2810 N   0  0  0  0  0  0  0  0  0  0  0  0
  138.6710   72.8580  221.9080 C   0  0  0  0  0  0  0  0  0  0  0  0
  139.3730   71.8780  222.6760 C   0  0  0  0  0  0  0  0  0  0  0  0
  140.6430   72.1400  222.8910 O   0  0  0  0  0  0  0  0  0  0  0  0
  138.9830   70.6520  223.2730 N   0  0  0  0  0  0  0  0  0  0  0  0
  139.1480   69.4150  222.4710 C   0  0  0  0  0  0  0  0  0  0  0  0
  138.8630   68.3060  223.4190 C   0  0  0  0  0  0  0  0  0  0  0  0
  137.8870   68.8980  224.4020 C   0  0  0  0  0  0  0  0  0  0  0  0
  138.4350   70.3100  224.5530 C   0  0  1  0  0  0  0  0  0  0  0  0
  139.3570   70.4190  225.6870 C   0  0  0  0  0  0  0  0  0  0  0  0
  139.3990   69.5170  226.7250 C   0  0  0  0  0  0  0  0  0  0  0  0
  140.2660   69.6430  227.8030 C   0  0  0  0  0  0  0  0  0  0  0  0
  141.1410   70.7000  227.8780 C   0  0  0  0  0  0  0  0  0  0  0  0
  141.1210   71.6190  226.8520 C   0  0  0  0  0  0  0  0  0  0  0  0
  140.2580   71.4890  225.7850 C   0  0  0  0  0  0  0  0  0  0  0  0
  139.8400   76.4210  222.3160 C   0  0  0  0  0  0  0  0  0  0  0  0
  141.0790   77.0240  222.3840 C   0  0  0  0  0  0  0  0  0  0  0  0
  141.1280   78.3550  222.7120 C   0  0  0  0  0  0  0  0  0  0  0  0
  139.9710   79.0440  222.9590 C   0  0  0  0  0  0  0  0  0  0  0  0
  139.9780   80.3960  223.2940 C   0  0  0  0  0  0  0  0  0  0  0  0
  141.4930   81.2510  223.4070 Cl  0  0  0  0  0  0  0  0  0  0  0  0
  138.7970   81.0730  223.5390 C   0  0  0  0  0  0  0  0  0  0  0  0
  137.5730   80.4280  223.4590 C   0  0  0  0  0  0  0  0  0  0  0  0
  137.5500   79.0730  223.1240 C   0  0  0  0  0  0  0  0  0  0  0  0
  138.7410   78.4230  222.8850 C   0  0  0  0  0  0  0  0  0  0  0  0
  138.7040   77.1060  222.5600 N   0  0  0  0  0  0  0  0  0  0  0  0
  137.8740   74.7540  222.7420 H   0  0  0  0  0  0  0  0  0  0  0  0
  137.6265   72.5167  221.8577 H   0  0  0  0  0  0  0  0  0  0  0  0
  139.2716   72.8972  220.9873 H   0  0  0  0  0  0  0  0  0  0  0  0
  138.4369   69.3997  221.6319 H   0  0  0  0  0  0  0  0  0  0  0  0
  140.1531   69.3368  222.0310 H   0  0  0  0  0  0  0  0  0  0  0  0
  138.4156   67.4495  222.8935 H   0  0  0  0  0  0  0  0  0  0  0  0
  139.7727   67.9261  223.9070 H   0  0  0  0  0  0  0  0  0  0  0  0
  136.8635   68.9043  223.9990 H   0  0  0  0  0  0  0  0  0  0  0  0
  137.8073   68.3422  225.3479 H   0  0  0  0  0  0  0  0  0  0  0  0
  137.6578   71.0436  224.8134 H   0  0  0  0  0  0  0  0  0  0  0  0
  138.7144   68.6563  226.7002 H   0  0  0  0  0  0  0  0  0  0  0  0
  140.2520   68.8895  228.6043 H   0  0  0  0  0  0  0  0  0  0  0  0
  141.8324   70.8083  228.7267 H   0  0  0  0  0  0  0  0  0  0  0  0
  141.8095   72.4763  226.8849 H   0  0  0  0  0  0  0  0  0  0  0  0
  140.2767   72.2464  224.9875 H   0  0  0  0  0  0  0  0  0  0  0  0
  141.9986   76.4553  222.1816 H   0  0  0  0  0  0  0  0  0  0  0  0
  142.0981   78.8694  222.7767 H   0  0  0  0  0  0  0  0  0  0  0  0
  138.8298   82.1407  223.8016 H   0  0  0  0  0  0  0  0  0  0  0  0
  136.6380   80.9730  223.6556 H   0  0  0  0  0  0  0  0  0  0  0  0
  136.5949   78.5321  223.0519 H   0  0  0  0  0  0  0  0  0  0  0  0
  1  2  2  0
  2  3  1  0
  3  4  1  0
  4  5  1  0
  5  6  2  0
  5  7  1  0
  7  8  1  0
  8  9  1  0
  9 10  1  0
 10 11  1  0
 11 12  1  0
 12 13  2  0
 13 14  1  0
 14 15  2  0
 15 16  1  0
 16 17  2  0
  2 18  1  0
 18 19  2  0
 19 20  1  0
 20 21  2  0
 21 22  1  0
 22 23  1  0
 22 24  2  0
 24 25  1  0
 25 26  2  0
 26 27  1  0
 27 28  2  0
 11  7  1  0
 17 12  1  0
 28 18  1  0
 27 21  1  0
  3 29  1  0
  4 30  1  0
  4 31  1  0
  8 32  1  0
  8 33  1  0
  9 34  1  0
  9 35  1  0
 10 36  1  0
 10 37  1  0
 11 38  1  1
 13 39  1  0
 14 40  1  0
 15 41  1  0
 16 42  1  0
 17 43  1  0
 19 44  1  0
 20 45  1  0
 24 46  1  0
 25 47  1  0
 26 48  1  0
M  END
>  <smiles>  (50) 
O=C(NCC(=O)N1CCC[C@H]1c1ccccc1)c1ccc2c(Cl)cccc2n1

>  <score_type>  (50) 
oracle

>  <origin>  (50) 
autodockgpu

>  <m_score__min__energy>  (50) 
-9.3100000000000005

>  <m_primary>  (50) 
energy

>  <rmsd>  (50) 
8.277007737489166

>  <m_score__min__rmsd>  (50) 
8.277007737489166

>  <meeko>  (50) 
{"free_energy": -8.52, "intermolecular_energy": -10.01, "internal_energy": -1.46, "cluster_size": 24, "cluster_id": 3, "rank_in_cluster": 22}

>  <energy>  (50) 
-7.07

>  <cluster_rmsd>  (50) 
0.24

>  <cluster>  (50) 
6

$$$$
