
     RDKit          3D

 42 44  0  0  0  0  0  0  0  0999 V2000
  139.1880   67.7560  224.0300 C   0  0  0  0  0  0  0  0  0  0  0  0
  138.8080   68.0840  225.3570 O   0  0  0  0  0  0  0  0  0  0  0  0
  139.5540   68.8840  226.1920 C   0  0  0  0  0  0  0  0  0  0  0  0
  139.9080   68.4030  227.4460 C   0  0  0  0  0  0  0  0  0  0  0  0
  140.6600   69.2150  228.2830 C   0  0  0  0  0  0  0  0  0  0  0  0
  141.0600   70.4840  227.8990 C   0  0  0  0  0  0  0  0  0  0  0  0
  140.6920   70.9410  226.6400 C   0  0  0  0  0  0  0  0  0  0  0  0
  139.9440   70.1560  225.7840 C   0  0  0  0  0  0  0  0  0  0  0  0
  139.5560   70.6050  224.4900 N   0  0  0  0  0  0  0  0  0  0  0  0
  138.2090   70.7180  224.0720 C   0  0  0  0  0  0  0  0  0  0  0  0
  137.2710   70.4120  224.8620 O   0  0  0  0  0  0  0  0  0  0  0  0
  137.9470   71.1980  222.7010 C   0  0  0  0  0  0  0  0  0  0  0  0
  138.3710   72.5720  222.5100 N   0  0  0  0  0  0  0  0  0  0  0  0
  139.7020   72.7710  222.0410 C   0  0  0  0  0  0  0  0  0  0  0  0
  140.3820   71.7320  221.8360 O   0  0  0  0  0  0  0  0  0  0  0  0
  140.2250   74.1140  221.8160 C   0  0  0  0  0  0  0  0  0  0  0  0
  141.3660   74.2230  221.0210 C   0  0  0  0  0  0  0  0  0  0  0  0
  141.8440   75.5000  220.8210 C   0  0  0  0  0  0  0  0  0  0  0  0
  141.2320   76.5850  221.3720 C   0  0  0  0  0  0  0  0  0  0  0  0
  141.7440   77.8630  221.1490 C   0  0  0  0  0  0  0  0  0  0  0  0
  141.1060   78.9580  221.7190 C   0  0  0  0  0  0  0  0  0  0  0  0
  141.7860   80.5450  221.4110 Cl  0  0  0  0  0  0  0  0  0  0  0  0
  139.9760   78.7980  222.5010 C   0  0  0  0  0  0  0  0  0  0  0  0
  139.4570   77.5340  222.7310 C   0  0  0  0  0  0  0  0  0  0  0  0
  140.0920   76.4510  222.1640 C   0  0  0  0  0  0  0  0  0  0  0  0
  139.6360   75.1980  222.3510 N   0  0  0  0  0  0  0  0  0  0  0  0
  140.0205   67.0374  224.0540 H   0  0  0  0  0  0  0  0  0  0  0  0
  138.3322   67.3082  223.5036 H   0  0  0  0  0  0  0  0  0  0  0  0
  139.5059   68.6680  223.5036 H   0  0  0  0  0  0  0  0  0  0  0  0
  139.5983   67.3982  227.7692 H   0  0  0  0  0  0  0  0  0  0  0  0
  140.9458   68.8411  229.2772 H   0  0  0  0  0  0  0  0  0  0  0  0
  141.6552   71.1153  228.5752 H   0  0  0  0  0  0  0  0  0  0  0  0
  141.0018   71.9464  226.3187 H   0  0  0  0  0  0  0  0  0  0  0  0
  140.3330   70.8610  223.8270 H   0  0  0  0  0  0  0  0  0  0  0  0
  138.4916   70.5576  221.9916 H   0  0  0  0  0  0  0  0  0  0  0  0
  136.8613   71.1532  222.5297 H   0  0  0  0  0  0  0  0  0  0  0  0
  137.7510   73.3880  222.7010 H   0  0  0  0  0  0  0  0  0  0  0  0
  141.8552   73.3420  220.5799 H   0  0  0  0  0  0  0  0  0  0  0  0
  142.7412   75.6466  220.2016 H   0  0  0  0  0  0  0  0  0  0  0  0
  142.6421   78.0025  220.5294 H   0  0  0  0  0  0  0  0  0  0  0  0
  139.4870   79.6789  222.9425 H   0  0  0  0  0  0  0  0  0  0  0  0
  138.5590   77.3985  223.3518 H   0  0  0  0  0  0  0  0  0  0  0  0
  1  2  1  0
  2  3  1  0
  3  4  2  0
  4  5  1  0
  5  6  2  0
  6  7  1  0
  7  8  2  0
  8  9  1  0
  9 10  1  0
 10 11  2  0
 10 12  1  0
 12 13  1  0
 13 14  1  0
 14 15  2  0
 14 16  1  0
 16 17  2  0
 17 18  1  0
 18 19  2  0
 19 20  1  0
 20 21  2  0
 21 22  1  0
 21 23  1  0
 23 24  2  0
 24 25  1  0
 25 26  2  0
  8  3  1  0
 26 16  1  0
 25 19  1  0
  1 27  1  0
  1 28  1  0
  1 29  1  0
  4 30  1  0
  5 31  1  0
  6 32  1  0
  7 33  1  0
  9 34  1  0
 12 35  1  0
 12 36  1  0
 13 37  1  0
 17 38  1  0
 18 39  1  0
 20 40  1  0
 23 41  1  0
 24 42  1  0
M  END
>  <smiles>  (1) 
COc1ccccc1NC(=O)CNC(=O)c1ccc2cc(Cl)ccc2n1

>  <score_type>  (1) 
oracle

>  <origin>  (1) 
autodockgpu

>  <m_score__min__energy>  (1) 
-8.6099999999999994

>  <m_primary>  (1) 
energy

>  <rmsd>  (1) 
8.214312657548513

>  <m_score__min__rmsd>  (1) 
8.214312657548513

>  <meeko>  (1) 
{"free_energy": -7.54, "intermolecular_energy": -9.03, "internal_energy": -1.84, "cluster_size": 25, "cluster_id": 2, "rank_in_cluster": 13}

>  <energy>  (1) 
-8.61

>  <cluster_rmsd>  (1) 
0.0

>  <cluster>  (1) 
1

$$$$

     RDKit          3D

 42 44  0  0  0  0  0  0  0  0999 V2000
  141.6900   79.6140  218.8670 C   0  0  0  0  0  0  0  0  0  0  0  0
  141.7820   78.6580  219.9120 O   0  0  0  0  0  0  0  0  0  0  0  0
  141.7730   78.9820  221.2490 C   0  0  0  0  0  0  0  0  0  0  0  0
  142.1380   80.2660  221.6330 C   0  0  0  0  0  0  0  0  0  0  0  0
  142.1280   80.5860  222.9840 C   0  0  0  0  0  0  0  0  0  0  0  0
  141.7640   79.6610  223.9480 C   0  0  0  0  0  0  0  0  0  0  0  0
  141.4040   78.3840  223.5370 C   0  0  0  0  0  0  0  0  0  0  0  0
  141.4040   78.0350  222.2010 C   0  0  0  0  0  0  0  0  0  0  0  0
  141.0390   76.7320  221.7580 N   0  0  0  0  0  0  0  0  0  0  0  0
  139.7030   76.3330  221.5170 C   0  0  0  0  0  0  0  0  0  0  0  0
  138.7540   77.1490  221.6960 O   0  0  0  0  0  0  0  0  0  0  0  0
  139.4650   74.9500  221.0590 C   0  0  0  0  0  0  0  0  0  0  0  0
  139.3220   74.0230  222.1660 N   0  0  0  0  0  0  0  0  0  0  0  0
  140.2540   72.9460  222.2210 C   0  0  0  0  0  0  0  0  0  0  0  0
  141.1130   72.9040  221.3020 O   0  0  0  0  0  0  0  0  0  0  0  0
  140.1970   71.9590  223.2930 C   0  0  0  0  0  0  0  0  0  0  0  0
  139.6410   70.7190  222.9830 C   0  0  0  0  0  0  0  0  0  0  0  0
  139.5960   69.8010  224.0100 C   0  0  0  0  0  0  0  0  0  0  0  0
  140.0700   70.0970  225.2520 C   0  0  0  0  0  0  0  0  0  0  0  0
  140.0090   69.1440  226.2680 C   0  0  0  0  0  0  0  0  0  0  0  0
  140.4990   69.4640  227.5290 C   0  0  0  0  0  0  0  0  0  0  0  0
  140.4000   68.2340  228.7750 Cl  0  0  0  0  0  0  0  0  0  0  0  0
  141.0420   70.7100  227.7880 C   0  0  0  0  0  0  0  0  0  0  0  0
  141.1080   71.6670  226.7870 C   0  0  0  0  0  0  0  0  0  0  0  0
  140.6230   71.3460  225.5390 C   0  0  0  0  0  0  0  0  0  0  0  0
  140.6600   72.2320  224.5260 N   0  0  0  0  0  0  0  0  0  0  0  0
  141.5931   80.6210  219.2988 H   0  0  0  0  0  0  0  0  0  0  0  0
  142.5968   79.5670  218.2461 H   0  0  0  0  0  0  0  0  0  0  0  0
  140.8088   79.3949  218.2461 H   0  0  0  0  0  0  0  0  0  0  0  0
  142.4293   81.0146  220.8815 H   0  0  0  0  0  0  0  0  0  0  0  0
  142.4167   81.6004  223.2966 H   0  0  0  0  0  0  0  0  0  0  0  0
  141.7600   79.9312  225.0143 H   0  0  0  0  0  0  0  0  0  0  0  0
  141.1134   77.6366  224.2900 H   0  0  0  0  0  0  0  0  0  0  0  0
  141.8250   76.0480  221.6070 H   0  0  0  0  0  0  0  0  0  0  0  0
  138.5437   74.9293  220.4584 H   0  0  0  0  0  0  0  0  0  0  0  0
  140.3366   74.6359  220.4660 H   0  0  0  0  0  0  0  0  0  0  0  0
  138.5840   74.1200  222.8960 H   0  0  0  0  0  0  0  0  0  0  0  0
  139.2604   70.4867  221.9774 H   0  0  0  0  0  0  0  0  0  0  0  0
  139.1671   68.8057  223.8221 H   0  0  0  0  0  0  0  0  0  0  0  0
  139.5782   68.1506  226.0740 H   0  0  0  0  0  0  0  0  0  0  0  0
  141.4233   70.9425  228.7933 H   0  0  0  0  0  0  0  0  0  0  0  0
  141.5379   72.6599  226.9853 H   0  0  0  0  0  0  0  0  0  0  0  0
  1  2  1  0
  2  3  1  0
  3  4  2  0
  4  5  1  0
  5  6  2  0
  6  7  1  0
  7  8  2  0
  8  9  1  0
  9 10  1  0
 10 11  2  0
 10 12  1  0
 12 13  1  0
 13 14  1  0
 14 15  2  0
 14 16  1  0
 16 17  2  0
 17 18  1  0
 18 19  2  0
 19 20  1  0
 20 21  2  0
 21 22  1  0
 21 23  1  0
 23 24  2  0
 24 25  1  0
 25 26  2  0
  8  3  1  0
 26 16  1  0
 25 19  1  0
  1 27  1  0
  1 28  1  0
  1 29  1  0
  4 30  1  0
  5 31  1  0
  6 32  1  0
  7 33  1  0
  9 34  1  0
 12 35  1  0
 12 36  1  0
 13 37  1  0
 17 38  1  0
 18 39  1  0
 20 40  1  0
 23 41  1  0
 24 42  1  0
M  END
>  <smiles>  (2) 
COc1ccccc1NC(=O)CNC(=O)c1ccc2cc(Cl)ccc2n1

>  <score_type>  (2) 
oracle

>  <origin>  (2) 
autodockgpu

>  <m_score__min__energy>  (2) 
-8.6099999999999994

>  <m_primary>  (2) 
energy

>  <rmsd>  (2) 
3.3411108792585176

>  <m_score__min__rmsd>  (2) 
3.3411108792585176

>  <meeko>  (2) 
{"free_energy": -8.44, "intermolecular_energy": -9.93, "internal_energy": -1.16, "cluster_size": 20, "cluster_id": 1, "rank_in_cluster": 6}

>  <energy>  (2) 
-8.57

>  <cluster_rmsd>  (2) 
0.2

>  <cluster>  (2) 
1

$$$$

     RDKit          3D

 42 44  0  0  0  0  0  0  0  0999 V2000
  142.5090   77.9650  218.6170 C   0  0  0  0  0  0  0  0  0  0  0  0
  141.3680   78.0510  219.4550 O   0  0  0  0  0  0  0  0  0  0  0  0
  141.4280   78.3030  220.8070 C   0  0  0  0  0  0  0  0  0  0  0  0
  141.8640   79.5490  221.2410 C   0  0  0  0  0  0  0  0  0  0  0  0
  141.9230   79.7960  222.6050 C   0  0  0  0  0  0  0  0  0  0  0  0
  141.5590   78.8360  223.5350 C   0  0  0  0  0  0  0  0  0  0  0  0
  141.1270   77.5990  223.0740 C   0  0  0  0  0  0  0  0  0  0  0  0
  141.0570   77.3230  221.7230 C   0  0  0  0  0  0  0  0  0  0  0  0
  140.6170   76.0620  221.2290 N   0  0  0  0  0  0  0  0  0  0  0  0
  141.4750   75.1180  220.6140 C   0  0  0  0  0  0  0  0  0  0  0  0
  142.7050   75.3750  220.4760 O   0  0  0  0  0  0  0  0  0  0  0  0
  140.8860   73.8490  220.1480 C   0  0  0  0  0  0  0  0  0  0  0  0
  140.9860   72.7990  221.1440 N   0  0  0  0  0  0  0  0  0  0  0  0
  140.1450   72.9220  222.2880 C   0  0  0  0  0  0  0  0  0  0  0  0
  139.3940   73.9320  222.3230 O   0  0  0  0  0  0  0  0  0  0  0  0
  140.1690   71.9190  223.3480 C   0  0  0  0  0  0  0  0  0  0  0  0
  139.7290   70.6380  223.0160 C   0  0  0  0  0  0  0  0  0  0  0  0
  139.7590   69.7070  224.0310 C   0  0  0  0  0  0  0  0  0  0  0  0
  140.1930   70.0280  225.2810 C   0  0  0  0  0  0  0  0  0  0  0  0
  140.2100   69.0590  226.2850 C   0  0  0  0  0  0  0  0  0  0  0  0
  140.6570   69.4060  227.5550 C   0  0  0  0  0  0  0  0  0  0  0  0
  140.6590   68.1560  228.7840 Cl  0  0  0  0  0  0  0  0  0  0  0  0
  141.0830   70.6920  227.8350 C   0  0  0  0  0  0  0  0  0  0  0  0
  141.0710   71.6640  226.8470 C   0  0  0  0  0  0  0  0  0  0  0  0
  140.6280   71.3170  225.5900 C   0  0  0  0  0  0  0  0  0  0  0  0
  140.5940   72.2160  224.5890 N   0  0  0  0  0  0  0  0  0  0  0  0
  143.4150   77.8967  219.2371 H   0  0  0  0  0  0  0  0  0  0  0  0
  142.4310   77.0702  217.9820 H   0  0  0  0  0  0  0  0  0  0  0  0
  142.5660   78.8614  217.9820 H   0  0  0  0  0  0  0  0  0  0  0  0
  142.1566   80.3242  220.5174 H   0  0  0  0  0  0  0  0  0  0  0  0
  142.2677   80.7795  222.9570 H   0  0  0  0  0  0  0  0  0  0  0  0
  141.6109   79.0483  224.6131 H   0  0  0  0  0  0  0  0  0  0  0  0
  140.8352   76.8248  223.7989 H   0  0  0  0  0  0  0  0  0  0  0  0
  139.5930   75.8430  221.3420 H   0  0  0  0  0  0  0  0  0  0  0  0
  139.8240   74.0160  219.9150 H   0  0  0  0  0  0  0  0  0  0  0  0
  141.4453   73.5242  219.2582 H   0  0  0  0  0  0  0  0  0  0  0  0
  141.6330   71.9870  221.0490 H   0  0  0  0  0  0  0  0  0  0  0  0
  139.3789   70.3860  222.0041 H   0  0  0  0  0  0  0  0  0  0  0  0
  139.4242   68.6793  223.8266 H   0  0  0  0  0  0  0  0  0  0  0  0
  139.8738   68.0331  226.0742 H   0  0  0  0  0  0  0  0  0  0  0  0
  141.4330   70.9444  228.8468 H   0  0  0  0  0  0  0  0  0  0  0  0
  141.4076   72.6890  227.0619 H   0  0  0  0  0  0  0  0  0  0  0  0
  1  2  1  0
  2  3  1  0
  3  4  2  0
  4  5  1  0
  5  6  2  0
  6  7  1  0
  7  8  2  0
  8  9  1  0
  9 10  1  0
 10 11  2  0
 10 12  1  0
 12 13  1  0
 13 14  1  0
 14 15  2  0
 14 16  1  0
 16 17  2  0
 17 18  1  0
 18 19  2  0
 19 20  1  0
 20 21  2  0
 21 22  1  0
 21 23  1  0
 23 24  2  0
 24 25  1  0
 25 26  2  0
  8  3  1  0
 26 16  1  0
 25 19  1  0
  1 27  1  0
  1 28  1  0
  1 29  1  0
  4 30  1  0
  5 31  1  0
  6 32  1  0
  7 33  1  0
  9 34  1  0
 12 35  1  0
 12 36  1  0
 13 37  1  0
 17 38  1  0
 18 39  1  0
 20 40  1  0
 23 41  1  0
 24 42  1  0
M  END
>  <smiles>  (3) 
COc1ccccc1NC(=O)CNC(=O)c1ccc2cc(Cl)ccc2n1

>  <score_type>  (3) 
oracle

>  <origin>  (3) 
autodockgpu

>  <m_score__min__energy>  (3) 
-8.6099999999999994

>  <m_primary>  (3) 
energy

>  <rmsd>  (3) 
3.179726161927147

>  <m_score__min__rmsd>  (3) 
3.179726161927147

>  <meeko>  (3) 
{"free_energy": -7.52, "intermolecular_energy": -9.01, "internal_energy": -1.8, "cluster_size": 20, "cluster_id": 1, "rank_in_cluster": 16}

>  <energy>  (3) 
-8.56

>  <cluster_rmsd>  (3) 
0.27

>  <cluster>  (3) 
1

$$$$

     RDKit          3D

 42 44  0  0  0  0  0  0  0  0999 V2000
  141.4320   72.5780  227.2430 C   0  0  0  0  0  0  0  0  0  0  0  0
  141.4750   71.4530  226.3800 O   0  0  0  0  0  0  0  0  0  0  0  0
  140.8740   70.2480  226.6620 C   0  0  0  0  0  0  0  0  0  0  0  0
  140.9550   69.7410  227.9530 C   0  0  0  0  0  0  0  0  0  0  0  0
  140.3470   68.5250  228.2310 C   0  0  0  0  0  0  0  0  0  0  0  0
  139.6670   67.8120  227.2580 C   0  0  0  0  0  0  0  0  0  0  0  0
  139.6010   68.3410  225.9750 C   0  0  0  0  0  0  0  0  0  0  0  0
  140.1960   69.5490  225.6680 C   0  0  0  0  0  0  0  0  0  0  0  0
  140.1410   70.1090  224.3600 N   0  0  0  0  0  0  0  0  0  0  0  0
  138.9430   70.5350  223.7390 C   0  0  0  0  0  0  0  0  0  0  0  0
  137.8400   70.4270  224.3480 O   0  0  0  0  0  0  0  0  0  0  0  0
  139.0290   71.0990  222.3790 C   0  0  0  0  0  0  0  0  0  0  0  0
  139.3600   72.5110  222.3900 N   0  0  0  0  0  0  0  0  0  0  0  0
  140.2680   72.9630  221.3890 C   0  0  0  0  0  0  0  0  0  0  0  0
  140.6960   72.0900  220.5890 O   0  0  0  0  0  0  0  0  0  0  0  0
  140.6650   74.3640  221.3130 C   0  0  0  0  0  0  0  0  0  0  0  0
  141.7300   74.6750  220.4680 C   0  0  0  0  0  0  0  0  0  0  0  0
  142.0900   76.0040  220.4110 C   0  0  0  0  0  0  0  0  0  0  0  0
  141.4370   76.9510  221.1410 C   0  0  0  0  0  0  0  0  0  0  0  0
  141.8280   78.2880  221.0590 C   0  0  0  0  0  0  0  0  0  0  0  0
  141.1500   79.2400  221.8110 C   0  0  0  0  0  0  0  0  0  0  0  0
  141.6770   80.9070  221.6760 Cl  0  0  0  0  0  0  0  0  0  0  0  0
  140.0990   78.8820  222.6370 C   0  0  0  0  0  0  0  0  0  0  0  0
  139.7010   77.5570  222.7270 C   0  0  0  0  0  0  0  0  0  0  0  0
  140.3740   76.6160  221.9800 C   0  0  0  0  0  0  0  0  0  0  0  0
  140.0340   75.3140  222.0250 N   0  0  0  0  0  0  0  0  0  0  0  0
  141.4450   72.2383  228.2892 H   0  0  0  0  0  0  0  0  0  0  0  0
  142.3063   73.2183  227.0545 H   0  0  0  0  0  0  0  0  0  0  0  0
  140.5114   73.1497  227.0545 H   0  0  0  0  0  0  0  0  0  0  0  0
  141.4907   70.2928  228.7395 H   0  0  0  0  0  0  0  0  0  0  0  0
  140.4068   68.1169  229.2507 H   0  0  0  0  0  0  0  0  0  0  0  0
  139.1903   66.8495  227.4953 H   0  0  0  0  0  0  0  0  0  0  0  0
  139.0652   67.7878  225.1896 H   0  0  0  0  0  0  0  0  0  0  0  0
  141.0570   70.2020  223.8480 H   0  0  0  0  0  0  0  0  0  0  0  0
  139.8062   70.5576  221.8197 H   0  0  0  0  0  0  0  0  0  0  0  0
  138.0427   70.9876  221.9049 H   0  0  0  0  0  0  0  0  0  0  0  0
  138.9660   73.1800  223.0860 H   0  0  0  0  0  0  0  0  0  0  0  0
  142.2520   73.9047  219.8814 H   0  0  0  0  0  0  0  0  0  0  0  0
  142.9240   76.3073  219.7610 H   0  0  0  0  0  0  0  0  0  0  0  0
  142.6628   78.5849  220.4071 H   0  0  0  0  0  0  0  0  0  0  0  0
  139.5773   79.6518  223.2245 H   0  0  0  0  0  0  0  0  0  0  0  0
  138.8662   77.2639  223.3806 H   0  0  0  0  0  0  0  0  0  0  0  0
  1  2  1  0
  2  3  1  0
  3  4  2  0
  4  5  1  0
  5  6  2  0
  6  7  1  0
  7  8  2  0
  8  9  1  0
  9 10  1  0
 10 11  2  0
 10 12  1  0
 12 13  1  0
 13 14  1  0
 14 15  2  0
 14 16  1  0
 16 17  2  0
 17 18  1  0
 18 19  2  0
 19 20  1  0
 20 21  2  0
 21 22  1  0
 21 23  1  0
 23 24  2  0
 24 25  1  0
 25 26  2  0
  8  3  1  0
 26 16  1  0
 25 19  1  0
  1 27  1  0
  1 28  1  0
  1 29  1  0
  4 30  1  0
  5 31  1  0
  6 32  1  0
  7 33  1  0
  9 34  1  0
 12 35  1  0
 12 36  1  0
 13 37  1  0
 17 38  1  0
 18 39  1  0
 20 40  1  0
 23 41  1  0
 24 42  1  0
M  END
>  <smiles>  (4) 
COc1ccccc1NC(=O)CNC(=O)c1ccc2cc(Cl)ccc2n1

>  <score_type>  (4) 
oracle

>  <origin>  (4) 
autodockgpu

>  <m_score__min__energy>  (4) 
-8.6099999999999994

>  <m_primary>  (4) 
energy

>  <rmsd>  (4) 
8.634924488937907

>  <m_score__min__rmsd>  (4) 
8.634924488937907

>  <meeko>  (4) 
{"free_energy": -7.71, "intermolecular_energy": -9.2, "internal_energy": -1.35, "cluster_size": 25, "cluster_id": 2, "rank_in_cluster": 9}

>  <energy>  (4) 
-8.52

>  <cluster_rmsd>  (4) 
0.41

>  <cluster>  (4) 
1

$$$$

     RDKit          3D

 42 44  0  0  0  0  0  0  0  0999 V2000
  137.5900   80.2100  223.9170 C   0  0  0  0  0  0  0  0  0  0  0  0
  138.3160   79.6450  222.8370 O   0  0  0  0  0  0  0  0  0  0  0  0
  139.6890   79.6610  222.7450 C   0  0  0  0  0  0  0  0  0  0  0  0
  140.3730   80.8230  223.0850 C   0  0  0  0  0  0  0  0  0  0  0  0
  141.7570   80.8330  222.9900 C   0  0  0  0  0  0  0  0  0  0  0  0
  142.4660   79.7200  222.5680 C   0  0  0  0  0  0  0  0  0  0  0  0
  141.7580   78.5720  222.2330 C   0  0  0  0  0  0  0  0  0  0  0  0
  140.3800   78.5320  222.3180 C   0  0  0  0  0  0  0  0  0  0  0  0
  139.6350   77.3660  221.9800 N   0  0  0  0  0  0  0  0  0  0  0  0
  140.2260   76.1570  221.5430 C   0  0  0  0  0  0  0  0  0  0  0  0
  141.4830   76.0690  221.4310 O   0  0  0  0  0  0  0  0  0  0  0  0
  139.3350   75.0250  221.2260 C   0  0  0  0  0  0  0  0  0  0  0  0
  139.2520   74.0710  222.3160 N   0  0  0  0  0  0  0  0  0  0  0  0
  140.1740   72.9850  222.2870 C   0  0  0  0  0  0  0  0  0  0  0  0
  140.9750   72.9590  221.3160 O   0  0  0  0  0  0  0  0  0  0  0  0
  140.1740   71.9720  223.3360 C   0  0  0  0  0  0  0  0  0  0  0  0
  139.7090   70.7030  222.9900 C   0  0  0  0  0  0  0  0  0  0  0  0
  139.7170   69.7610  223.9950 C   0  0  0  0  0  0  0  0  0  0  0  0
  140.1530   70.0610  225.2500 C   0  0  0  0  0  0  0  0  0  0  0  0
  140.1470   69.0820  226.2440 C   0  0  0  0  0  0  0  0  0  0  0  0
  140.5970   69.4060  227.5190 C   0  0  0  0  0  0  0  0  0  0  0  0
  140.5700   68.1430  228.7350 Cl  0  0  0  0  0  0  0  0  0  0  0  0
  141.0480   70.6800  227.8130 C   0  0  0  0  0  0  0  0  0  0  0  0
  141.0600   71.6620  226.8350 C   0  0  0  0  0  0  0  0  0  0  0  0
  140.6140   71.3380  225.5730 C   0  0  0  0  0  0  0  0  0  0  0  0
  140.6010   72.2470  224.5810 N   0  0  0  0  0  0  0  0  0  0  0  0
  138.0254   79.8711  224.8686 H   0  0  0  0  0  0  0  0  0  0  0  0
  137.6424   81.3073  223.8599 H   0  0  0  0  0  0  0  0  0  0  0  0
  136.5392   79.8897  223.8599 H   0  0  0  0  0  0  0  0  0  0  0  0
  139.8275   81.7166  223.4226 H   0  0  0  0  0  0  0  0  0  0  0  0
  142.3057   81.7483  223.2566 H   0  0  0  0  0  0  0  0  0  0  0  0
  143.5636   79.7444  222.4997 H   0  0  0  0  0  0  0  0  0  0  0  0
  142.3046   77.6796  221.8942 H   0  0  0  0  0  0  0  0  0  0  0  0
  138.5880   77.4330  222.0710 H   0  0  0  0  0  0  0  0  0  0  0  0
  138.3274   75.4145  221.0187 H   0  0  0  0  0  0  0  0  0  0  0  0
  139.7503   74.5031  220.3513 H   0  0  0  0  0  0  0  0  0  0  0  0
  138.5600   74.1550  223.0920 H   0  0  0  0  0  0  0  0  0  0  0  0
  139.3568   70.4685  221.9746 H   0  0  0  0  0  0  0  0  0  0  0  0
  139.3628   68.7423  223.7788 H   0  0  0  0  0  0  0  0  0  0  0  0
  139.7904   68.0655  226.0215 H   0  0  0  0  0  0  0  0  0  0  0  0
  141.3991   70.9152  228.8286 H   0  0  0  0  0  0  0  0  0  0  0  0
  141.4177   72.6772  227.0617 H   0  0  0  0  0  0  0  0  0  0  0  0
  1  2  1  0
  2  3  1  0
  3  4  2  0
  4  5  1  0
  5  6  2  0
  6  7  1  0
  7  8  2  0
  8  9  1  0
  9 10  1  0
 10 11  2  0
 10 12  1  0
 12 13  1  0
 13 14  1  0
 14 15  2  0
 14 16  1  0
 16 17  2  0
 17 18  1  0
 18 19  2  0
 19 20  1  0
 20 21  2  0
 21 22  1  0
 21 23  1  0
 23 24  2  0
 24 25  1  0
 25 26  2  0
  8  3  1  0
 26 16  1  0
 25 19  1  0
  1 27  1  0
  1 28  1  0
  1 29  1  0
  4 30  1  0
  5 31  1  0
  6 32  1  0
  7 33  1  0
  9 34  1  0
 12 35  1  0
 12 36  1  0
 13 37  1  0
 17 38  1  0
 18 39  1  0
 20 40  1  0
 23 41  1  0
 24 42  1  0
M  END
>  <smiles>  (5) 
COc1ccccc1NC(=O)CNC(=O)c1ccc2cc(Cl)ccc2n1

>  <score_type>  (5) 
oracle

>  <origin>  (5) 
autodockgpu

>  <m_score__min__energy>  (5) 
-8.6099999999999994

>  <m_primary>  (5) 
energy

>  <rmsd>  (5) 
3.0506144656452547

>  <m_score__min__rmsd>  (5) 
3.0506144656452547

>  <meeko>  (5) 
{"free_energy": -7.8, "intermolecular_energy": -9.29, "internal_energy": -1.27, "cluster_size": 20, "cluster_id": 1, "rank_in_cluster": 14}

>  <energy>  (5) 
-8.47

>  <cluster_rmsd>  (5) 
0.29

>  <cluster>  (5) 
1

$$$$

     RDKit          3D

 42 44  0  0  0  0  0  0  0  0999 V2000
  138.8220   67.7020  223.3980 C   0  0  0  0  0  0  0  0  0  0  0  0
  138.8610   67.3890  224.7820 O   0  0  0  0  0  0  0  0  0  0  0  0
  139.5060   68.1590  225.7220 C   0  0  0  0  0  0  0  0  0  0  0  0
  140.4710   67.5680  226.5290 C   0  0  0  0  0  0  0  0  0  0  0  0
  141.1170   68.3500  227.4770 C   0  0  0  0  0  0  0  0  0  0  0  0
  140.8230   69.6950  227.6340 C   0  0  0  0  0  0  0  0  0  0  0  0
  139.8540   70.2600  226.8150 C   0  0  0  0  0  0  0  0  0  0  0  0
  139.1940   69.5080  225.8630 C   0  0  0  0  0  0  0  0  0  0  0  0
  138.1980   70.0680  225.0130 N   0  0  0  0  0  0  0  0  0  0  0  0
  138.4880   70.9080  223.9120 C   0  0  0  0  0  0  0  0  0  0  0  0
  139.6870   71.2020  223.6370 O   0  0  0  0  0  0  0  0  0  0  0  0
  137.3580   71.4190  223.1130 C   0  0  0  0  0  0  0  0  0  0  0  0
  136.5300   72.3430  223.8640 N   0  0  0  0  0  0  0  0  0  0  0  0
  135.4390   71.7800  224.5880 C   0  0  0  0  0  0  0  0  0  0  0  0
  135.3000   70.5310  224.5060 O   0  0  0  0  0  0  0  0  0  0  0  0
  134.5460   72.6220  225.3760 C   0  0  0  0  0  0  0  0  0  0  0  0
  133.5490   71.9780  226.1070 C   0  0  0  0  0  0  0  0  0  0  0  0
  132.7160   72.7910  226.8430 C   0  0  0  0  0  0  0  0  0  0  0  0
  132.8650   74.1450  226.8500 C   0  0  0  0  0  0  0  0  0  0  0  0
  132.0030   74.9390  227.6070 C   0  0  0  0  0  0  0  0  0  0  0  0
  132.1720   76.3190  227.6020 C   0  0  0  0  0  0  0  0  0  0  0  0
  131.0640   77.2750  228.5680 Cl  0  0  0  0  0  0  0  0  0  0  0  0
  133.1760   76.9120  226.8590 C   0  0  0  0  0  0  0  0  0  0  0  0
  134.0390   76.1350  226.1020 C   0  0  0  0  0  0  0  0  0  0  0  0
  133.8710   74.7680  226.1100 C   0  0  0  0  0  0  0  0  0  0  0  0
  134.6760   73.9610  225.3960 N   0  0  0  0  0  0  0  0  0  0  0  0
  138.6870   68.7863  223.2709 H   0  0  0  0  0  0  0  0  0  0  0  0
  139.7657   67.3922  222.9253 H   0  0  0  0  0  0  0  0  0  0  0  0
  137.9832   67.1701  222.9253 H   0  0  0  0  0  0  0  0  0  0  0  0
  140.7180   66.5018  226.4188 H   0  0  0  0  0  0  0  0  0  0  0  0
  141.8819   67.8901  228.1200 H   0  0  0  0  0  0  0  0  0  0  0  0
  141.3447   70.3009  228.3894 H   0  0  0  0  0  0  0  0  0  0  0  0
  139.6076   71.3262  226.9267 H   0  0  0  0  0  0  0  0  0  0  0  0
  137.1970   69.8260  225.2370 H   0  0  0  0  0  0  0  0  0  0  0  0
  137.7556   71.9381  222.2285 H   0  0  0  0  0  0  0  0  0  0  0  0
  136.7321   70.5612  222.8259 H   0  0  0  0  0  0  0  0  0  0  0  0
  136.7040   73.3710  223.8870 H   0  0  0  0  0  0  0  0  0  0  0  0
  133.4343   70.8840  226.0966 H   0  0  0  0  0  0  0  0  0  0  0  0
  131.9113   72.3362  227.4393 H   0  0  0  0  0  0  0  0  0  0  0  0
  131.1994   74.4787  228.2006 H   0  0  0  0  0  0  0  0  0  0  0  0
  133.2905   78.0060  226.8686 H   0  0  0  0  0  0  0  0  0  0  0  0
  134.8400   76.5997  225.5083 H   0  0  0  0  0  0  0  0  0  0  0  0
  1  2  1  0
  2  3  1  0
  3  4  2  0
  4  5  1  0
  5  6  2  0
  6  7  1  0
  7  8  2  0
  8  9  1  0
  9 10  1  0
 10 11  2  0
 10 12  1  0
 12 13  1  0
 13 14  1  0
 14 15  2  0
 14 16  1  0
 16 17  2  0
 17 18  1  0
 18 19  2  0
 19 20  1  0
 20 21  2  0
 21 22  1  0
 21 23  1  0
 23 24  2  0
 24 25  1  0
 25 26  2  0
  8  3  1  0
 26 16  1  0
 25 19  1  0
  1 27  1  0
  1 28  1  0
  1 29  1  0
  4 30  1  0
  5 31  1  0
  6 32  1  0
  7 33  1  0
  9 34  1  0
 12 35  1  0
 12 36  1  0
 13 37  1  0
 17 38  1  0
 18 39  1  0
 20 40  1  0
 23 41  1  0
 24 42  1  0
M  END
>  <smiles>  (6) 
COc1ccccc1NC(=O)CNC(=O)c1ccc2cc(Cl)ccc2n1

>  <score_type>  (6) 
oracle

>  <origin>  (6) 
autodockgpu

>  <m_score__min__energy>  (6) 
-8.6099999999999994

>  <m_primary>  (6) 
energy

>  <rmsd>  (6) 
8.401404047479629

>  <m_score__min__rmsd>  (6) 
8.401404047479629

>  <meeko>  (6) 
{"free_energy": -7.45, "intermolecular_energy": -8.94, "internal_energy": -2.04, "cluster_size": 5, "cluster_id": 3, "rank_in_cluster": 4}

>  <energy>  (6) 
-8.44

>  <cluster_rmsd>  (6) 
0.4

>  <cluster>  (6) 
1

$$$$

     RDKit          3D

 42 44  0  0  0  0  0  0  0  0999 V2000
  141.3590   72.3370  227.3070 C   0  0  0  0  0  0  0  0  0  0  0  0
  140.3080   71.5740  226.7360 O   0  0  0  0  0  0  0  0  0  0  0  0
  140.3060   70.1990  226.6740 C   0  0  0  0  0  0  0  0  0  0  0  0
  141.0830   69.4840  227.5780 C   0  0  0  0  0  0  0  0  0  0  0  0
  141.0780   68.0980  227.5100 C   0  0  0  0  0  0  0  0  0  0  0  0
  140.3200   67.4180  226.5710 C   0  0  0  0  0  0  0  0  0  0  0  0
  139.5530   68.1570  225.6790 C   0  0  0  0  0  0  0  0  0  0  0  0
  139.5380   69.5380  225.7210 C   0  0  0  0  0  0  0  0  0  0  0  0
  138.7590   70.3150  224.8170 N   0  0  0  0  0  0  0  0  0  0  0  0
  138.5000   69.9350  223.4790 C   0  0  0  0  0  0  0  0  0  0  0  0
  138.9710   68.8530  223.0240 O   0  0  0  0  0  0  0  0  0  0  0  0
  137.6760   70.8350  222.6500 C   0  0  0  0  0  0  0  0  0  0  0  0
  138.1590   72.2020  222.6790 N   0  0  0  0  0  0  0  0  0  0  0  0
  139.2650   72.5070  221.8330 C   0  0  0  0  0  0  0  0  0  0  0  0
  139.7170   71.5570  221.1420 O   0  0  0  0  0  0  0  0  0  0  0  0
  139.8260   73.8530  221.7880 C   0  0  0  0  0  0  0  0  0  0  0  0
  141.0960   73.9900  221.2270 C   0  0  0  0  0  0  0  0  0  0  0  0
  141.6080   75.2690  221.1940 C   0  0  0  0  0  0  0  0  0  0  0  0
  140.9070   76.3300  221.6820 C   0  0  0  0  0  0  0  0  0  0  0  0
  141.4560   77.6120  221.6320 C   0  0  0  0  0  0  0  0  0  0  0  0
  140.7270   78.6820  222.1360 C   0  0  0  0  0  0  0  0  0  0  0  0
  141.4580   80.2740  222.0520 Cl  0  0  0  0  0  0  0  0  0  0  0  0
  139.4700   78.4950  222.6830 C   0  0  0  0  0  0  0  0  0  0  0  0
  138.9130   77.2270  222.7390 C   0  0  0  0  0  0  0  0  0  0  0  0
  139.6380   76.1680  222.2390 C   0  0  0  0  0  0  0  0  0  0  0  0
  139.1510   74.9130  222.2650 N   0  0  0  0  0  0  0  0  0  0  0  0
  141.2928   72.2890  228.4040 H   0  0  0  0  0  0  0  0  0  0  0  0
  142.3272   71.9300  226.9799 H   0  0  0  0  0  0  0  0  0  0  0  0
  141.2719   73.3836  226.9799 H   0  0  0  0  0  0  0  0  0  0  0  0
  141.6897   70.0064  228.3323 H   0  0  0  0  0  0  0  0  0  0  0  0
  141.6919   67.5245  228.2201 H   0  0  0  0  0  0  0  0  0  0  0  0
  140.3252   66.3187  226.5325 H   0  0  0  0  0  0  0  0  0  0  0  0
  138.9465   67.6331  224.9255 H   0  0  0  0  0  0  0  0  0  0  0  0
  138.3640   71.2170  225.1910 H   0  0  0  0  0  0  0  0  0  0  0  0
  137.6941   70.4749  221.6108 H   0  0  0  0  0  0  0  0  0  0  0  0
  136.6545   70.8291  223.0581 H   0  0  0  0  0  0  0  0  0  0  0  0
  137.7340   72.9410  223.2790 H   0  0  0  0  0  0  0  0  0  0  0  0
  141.6555   73.1282  220.8343 H   0  0  0  0  0  0  0  0  0  0  0  0
  142.6062   75.4370  220.7635 H   0  0  0  0  0  0  0  0  0  0  0  0
  142.4541   77.7735  221.1987 H   0  0  0  0  0  0  0  0  0  0  0  0
  138.9100   79.3567  223.0753 H   0  0  0  0  0  0  0  0  0  0  0  0
  137.9145   77.0700  223.1730 H   0  0  0  0  0  0  0  0  0  0  0  0
  1  2  1  0
  2  3  1  0
  3  4  2  0
  4  5  1  0
  5  6  2  0
  6  7  1  0
  7  8  2  0
  8  9  1  0
  9 10  1  0
 10 11  2  0
 10 12  1  0
 12 13  1  0
 13 14  1  0
 14 15  2  0
 14 16  1  0
 16 17  2  0
 17 18  1  0
 18 19  2  0
 19 20  1  0
 20 21  2  0
 21 22  1  0
 21 23  1  0
 23 24  2  0
 24 25  1  0
 25 26  2  0
  8  3  1  0
 26 16  1  0
 25 19  1  0
  1 27  1  0
  1 28  1  0
  1 29  1  0
  4 30  1  0
  5 31  1  0
  6 32  1  0
  7 33  1  0
  9 34  1  0
 12 35  1  0
 12 36  1  0
 13 37  1  0
 17 38  1  0
 18 39  1  0
 20 40  1  0
 23 41  1  0
 24 42  1  0
M  END
>  <smiles>  (7) 
COc1ccccc1NC(=O)CNC(=O)c1ccc2cc(Cl)ccc2n1

>  <score_type>  (7) 
oracle

>  <origin>  (7) 
autodockgpu

>  <m_score__min__energy>  (7) 
-8.6099999999999994

>  <m_primary>  (7) 
energy

>  <rmsd>  (7) 
8.2999926051366

>  <m_score__min__rmsd>  (7) 
8.2999926051366

>  <meeko>  (7) 
{"free_energy": -7.56, "intermolecular_energy": -9.05, "internal_energy": -1.54, "cluster_size": 25, "cluster_id": 2, "rank_in_cluster": 11}

>  <energy>  (7) 
-8.4

>  <cluster_rmsd>  (7) 
0.33

>  <cluster>  (7) 
1

$$$$

     RDKit          3D

 42 44  0  0  0  0  0  0  0  0999 V2000
  139.0270   68.1410  225.0250 C   0  0  0  0  0  0  0  0  0  0  0  0
  140.2810   68.7940  225.1410 O   0  0  0  0  0  0  0  0  0  0  0  0
  140.5650   69.7430  226.0960 C   0  0  0  0  0  0  0  0  0  0  0  0
  140.8800   69.3280  227.3850 C   0  0  0  0  0  0  0  0  0  0  0  0
  141.1650   70.2900  228.3430 C   0  0  0  0  0  0  0  0  0  0  0  0
  141.1410   71.6430  228.0460 C   0  0  0  0  0  0  0  0  0  0  0  0
  140.8210   72.0310  226.7510 C   0  0  0  0  0  0  0  0  0  0  0  0
  140.5340   71.0970  225.7750 C   0  0  0  0  0  0  0  0  0  0  0  0
  140.2040   71.4720  224.4420 N   0  0  0  0  0  0  0  0  0  0  0  0
  138.9120   71.3270  223.8830 C   0  0  0  0  0  0  0  0  0  0  0  0
  137.9730   70.8400  224.5760 O   0  0  0  0  0  0  0  0  0  0  0  0
  138.7080   71.7570  222.4870 C   0  0  0  0  0  0  0  0  0  0  0  0
  138.9860   73.1680  222.3020 N   0  0  0  0  0  0  0  0  0  0  0  0
  140.3150   73.5140  221.9170 C   0  0  0  0  0  0  0  0  0  0  0  0
  141.1200   72.5570  221.7740 O   0  0  0  0  0  0  0  0  0  0  0  0
  140.6970   74.9050  221.7050 C   0  0  0  0  0  0  0  0  0  0  0  0
  141.6150   75.1600  220.6870 C   0  0  0  0  0  0  0  0  0  0  0  0
  141.9640   76.4810  220.5030 C   0  0  0  0  0  0  0  0  0  0  0  0
  141.4370   77.4710  221.2760 C   0  0  0  0  0  0  0  0  0  0  0  0
  141.8120   78.7980  221.0620 C   0  0  0  0  0  0  0  0  0  0  0  0
  141.2640   79.7950  221.8600 C   0  0  0  0  0  0  0  0  0  0  0  0
  141.7660   81.4470  221.5540 Cl  0  0  0  0  0  0  0  0  0  0  0  0
  140.3560   79.4910  222.8590 C   0  0  0  0  0  0  0  0  0  0  0  0
  139.9750   78.1770  223.0820 C   0  0  0  0  0  0  0  0  0  0  0  0
  140.5200   77.1920  222.2890 C   0  0  0  0  0  0  0  0  0  0  0  0
  140.1890   75.8970  222.4570 N   0  0  0  0  0  0  0  0  0  0  0  0
  138.6276   67.9330  226.0286 H   0  0  0  0  0  0  0  0  0  0  0  0
  138.3257   68.7884  224.4782 H   0  0  0  0  0  0  0  0  0  0  0  0
  139.1553   67.1952  224.4782 H   0  0  0  0  0  0  0  0  0  0  0  0
  140.9028   68.2582  227.6401 H   0  0  0  0  0  0  0  0  0  0  0  0
  141.4166   69.9702  229.3650 H   0  0  0  0  0  0  0  0  0  0  0  0
  141.3700   72.3927  228.8177 H   0  0  0  0  0  0  0  0  0  0  0  0
  140.7958   73.1013  226.4985 H   0  0  0  0  0  0  0  0  0  0  0  0
  140.9830   71.8780  223.8600 H   0  0  0  0  0  0  0  0  0  0  0  0
  139.3775   71.1758  221.8359 H   0  0  0  0  0  0  0  0  0  0  0  0
  137.6520   71.5847  222.2316 H   0  0  0  0  0  0  0  0  0  0  0  0
  138.2670   73.9110  222.4380 H   0  0  0  0  0  0  0  0  0  0  0  0
  142.0360   74.3546  220.0672 H   0  0  0  0  0  0  0  0  0  0  0  0
  142.6846   76.7415  219.7138 H   0  0  0  0  0  0  0  0  0  0  0  0
  142.5329   79.0518  220.2709 H   0  0  0  0  0  0  0  0  0  0  0  0
  139.9346   80.2959  223.4791 H   0  0  0  0  0  0  0  0  0  0  0  0
  139.2539   77.9269  223.8742 H   0  0  0  0  0  0  0  0  0  0  0  0
  1  2  1  0
  2  3  1  0
  3  4  2  0
  4  5  1  0
  5  6  2  0
  6  7  1  0
  7  8  2  0
  8  9  1  0
  9 10  1  0
 10 11  2  0
 10 12  1  0
 12 13  1  0
 13 14  1  0
 14 15  2  0
 14 16  1  0
 16 17  2  0
 17 18  1  0
 18 19  2  0
 19 20  1  0
 20 21  2  0
 21 22  1  0
 21 23  1  0
 23 24  2  0
 24 25  1  0
 25 26  2  0
  8  3  1  0
 26 16  1  0
 25 19  1  0
  1 27  1  0
  1 28  1  0
  1 29  1  0
  4 30  1  0
  5 31  1  0
  6 32  1  0
  7 33  1  0
  9 34  1  0
 12 35  1  0
 12 36  1  0
 13 37  1  0
 17 38  1  0
 18 39  1  0
 20 40  1  0
 23 41  1  0
 24 42  1  0
M  END
>  <smiles>  (8) 
COc1ccccc1NC(=O)CNC(=O)c1ccc2cc(Cl)ccc2n1

>  <score_type>  (8) 
oracle

>  <origin>  (8) 
autodockgpu

>  <m_score__min__energy>  (8) 
-8.6099999999999994

>  <m_primary>  (8) 
energy

>  <rmsd>  (8) 
8.345667539742278

>  <m_score__min__rmsd>  (8) 
8.345667539742278

>  <meeko>  (8) 
{"free_energy": -7.29, "intermolecular_energy": -8.79, "internal_energy": -1.92, "cluster_size": 25, "cluster_id": 2, "rank_in_cluster": 23}

>  <energy>  (8) 
-8.36

>  <cluster_rmsd>  (8) 
0.96

>  <cluster>  (8) 
1

$$$$

     RDKit          3D

 42 44  0  0  0  0  0  0  0  0999 V2000
  139.6330   67.3900  225.7520 C   0  0  0  0  0  0  0  0  0  0  0  0
  140.2270   68.6280  225.3980 O   0  0  0  0  0  0  0  0  0  0  0  0
  140.5670   69.6030  226.3080 C   0  0  0  0  0  0  0  0  0  0  0  0
  141.0600   69.2220  227.5500 C   0  0  0  0  0  0  0  0  0  0  0  0
  141.4000   70.2090  228.4630 C   0  0  0  0  0  0  0  0  0  0  0  0
  141.2600   71.5550  228.1660 C   0  0  0  0  0  0  0  0  0  0  0  0
  140.7640   71.9090  226.9180 C   0  0  0  0  0  0  0  0  0  0  0  0
  140.4170   70.9490  225.9880 C   0  0  0  0  0  0  0  0  0  0  0  0
  139.9070   71.2890  224.7030 N   0  0  0  0  0  0  0  0  0  0  0  0
  138.6970   70.7740  224.1780 C   0  0  0  0  0  0  0  0  0  0  0  0
  138.0050   69.9630  224.8570 O   0  0  0  0  0  0  0  0  0  0  0  0
  138.2850   71.2120  222.8310 C   0  0  0  0  0  0  0  0  0  0  0  0
  138.6560   72.5880  222.5640 N   0  0  0  0  0  0  0  0  0  0  0  0
  139.9800   72.8130  222.0860 C   0  0  0  0  0  0  0  0  0  0  0  0
  140.7010   71.7910  221.9410 O   0  0  0  0  0  0  0  0  0  0  0  0
  140.4520   74.1600  221.7860 C   0  0  0  0  0  0  0  0  0  0  0  0
  141.5080   74.2740  220.8830 C   0  0  0  0  0  0  0  0  0  0  0  0
  141.9390   75.5550  220.6140 C   0  0  0  0  0  0  0  0  0  0  0  0
  141.3610   76.6390  221.2020 C   0  0  0  0  0  0  0  0  0  0  0  0
  141.8230   77.9220  220.9060 C   0  0  0  0  0  0  0  0  0  0  0  0
  141.2210   79.0170  221.5160 C   0  0  0  0  0  0  0  0  0  0  0  0
  141.8360   80.6090  221.1140 Cl  0  0  0  0  0  0  0  0  0  0  0  0
  140.1760   78.8520  222.4070 C   0  0  0  0  0  0  0  0  0  0  0  0
  139.7070   77.5830  222.7090 C   0  0  0  0  0  0  0  0  0  0  0  0
  140.3060   76.5000  222.1030 C   0  0  0  0  0  0  0  0  0  0  0  0
  139.8950   75.2440  222.3560 N   0  0  0  0  0  0  0  0  0  0  0  0
  139.5914   67.3033  226.8478 H   0  0  0  0  0  0  0  0  0  0  0  0
  138.6136   67.3417  225.3414 H   0  0  0  0  0  0  0  0  0  0  0  0
  140.2332   66.5646  225.3414 H   0  0  0  0  0  0  0  0  0  0  0  0
  141.1783   68.1583  227.8041 H   0  0  0  0  0  0  0  0  0  0  0  0
  141.7909   69.9156  229.4484 H   0  0  0  0  0  0  0  0  0  0  0  0
  141.5352   72.3253  228.9015 H   0  0  0  0  0  0  0  0  0  0  0  0
  140.6455   72.9731  226.6658 H   0  0  0  0  0  0  0  0  0  0  0  0
  140.4790   71.9650  224.1320 H   0  0  0  0  0  0  0  0  0  0  0  0
  138.7680   70.5639  222.0848 H   0  0  0  0  0  0  0  0  0  0  0  0
  137.1888   71.1412  222.7740 H   0  0  0  0  0  0  0  0  0  0  0  0
  138.0040   73.3900  222.7070 H   0  0  0  0  0  0  0  0  0  0  0  0
  141.9700   73.3933  220.4129 H   0  0  0  0  0  0  0  0  0  0  0  0
  142.7691   75.7055  219.9081 H   0  0  0  0  0  0  0  0  0  0  0  0
  142.6532   78.0654  220.1988 H   0  0  0  0  0  0  0  0  0  0  0  0
  139.7147   79.7323  222.8784 H   0  0  0  0  0  0  0  0  0  0  0  0
  138.8759   77.4437  223.4160 H   0  0  0  0  0  0  0  0  0  0  0  0
  1  2  1  0
  2  3  1  0
  3  4  2  0
  4  5  1  0
  5  6  2  0
  6  7  1  0
  7  8  2  0
  8  9  1  0
  9 10  1  0
 10 11  2  0
 10 12  1  0
 12 13  1  0
 13 14  1  0
 14 15  2  0
 14 16  1  0
 16 17  2  0
 17 18  1  0
 18 19  2  0
 19 20  1  0
 20 21  2  0
 21 22  1  0
 21 23  1  0
 23 24  2  0
 24 25  1  0
 25 26  2  0
  8  3  1  0
 26 16  1  0
 25 19  1  0
  1 27  1  0
  1 28  1  0
  1 29  1  0
  4 30  1  0
  5 31  1  0
  6 32  1  0
  7 33  1  0
  9 34  1  0
 12 35  1  0
 12 36  1  0
 13 37  1  0
 17 38  1  0
 18 39  1  0
 20 40  1  0
 23 41  1  0
 24 42  1  0
M  END
>  <smiles>  (9) 
COc1ccccc1NC(=O)CNC(=O)c1ccc2cc(Cl)ccc2n1

>  <score_type>  (9) 
oracle

>  <origin>  (9) 
autodockgpu

>  <m_score__min__energy>  (9) 
-8.6099999999999994

>  <m_primary>  (9) 
energy

>  <rmsd>  (9) 
8.156306610571493

>  <m_score__min__rmsd>  (9) 
8.156306610571493

>  <meeko>  (9) 
{"free_energy": -7.54, "intermolecular_energy": -9.03, "internal_energy": -1.85, "cluster_size": 25, "cluster_id": 2, "rank_in_cluster": 14}

>  <energy>  (9) 
-8.33

>  <cluster_rmsd>  (9) 
0.22

>  <cluster>  (9) 
1

$$$$

     RDKit          3D

 42 44  0  0  0  0  0  0  0  0999 V2000
  142.1820   78.9050  218.7520 C   0  0  0  0  0  0  0  0  0  0  0  0
  141.7030   78.1720  219.8680 O   0  0  0  0  0  0  0  0  0  0  0  0
  141.7090   78.6510  221.1580 C   0  0  0  0  0  0  0  0  0  0  0  0
  142.1690   79.9410  221.3950 C   0  0  0  0  0  0  0  0  0  0  0  0
  142.1740   80.4170  222.6990 C   0  0  0  0  0  0  0  0  0  0  0  0
  141.7330   79.6420  223.7590 C   0  0  0  0  0  0  0  0  0  0  0  0
  141.2800   78.3560  223.4940 C   0  0  0  0  0  0  0  0  0  0  0  0
  141.2630   77.8540  222.2080 C   0  0  0  0  0  0  0  0  0  0  0  0
  140.8010   76.5390  221.9150 N   0  0  0  0  0  0  0  0  0  0  0  0
  139.5440   76.2630  221.3270 C   0  0  0  0  0  0  0  0  0  0  0  0
  138.7590   77.2090  221.0330 O   0  0  0  0  0  0  0  0  0  0  0  0
  139.1920   74.8520  221.0760 C   0  0  0  0  0  0  0  0  0  0  0  0
  139.4140   74.0160  222.2400 N   0  0  0  0  0  0  0  0  0  0  0  0
  139.4260   72.6070  222.0230 C   0  0  0  0  0  0  0  0  0  0  0  0
  139.2420   72.2240  220.8380 O   0  0  0  0  0  0  0  0  0  0  0  0
  139.6430   71.6790  223.1270 C   0  0  0  0  0  0  0  0  0  0  0  0
  139.3270   70.3400  222.8990 C   0  0  0  0  0  0  0  0  0  0  0  0
  139.5390   69.4800  223.9540 C   0  0  0  0  0  0  0  0  0  0  0  0
  140.0260   69.9210  225.1470 C   0  0  0  0  0  0  0  0  0  0  0  0
  140.2280   69.0230  226.1950 C   0  0  0  0  0  0  0  0  0  0  0  0
  140.7270   69.4920  227.4040 C   0  0  0  0  0  0  0  0  0  0  0  0
  140.9640   68.3250  228.6920 Cl  0  0  0  0  0  0  0  0  0  0  0  0
  141.0250   70.8310  227.5820 C   0  0  0  0  0  0  0  0  0  0  0  0
  140.8290   71.7350  226.5490 C   0  0  0  0  0  0  0  0  0  0  0  0
  140.3350   71.2670  225.3520 C   0  0  0  0  0  0  0  0  0  0  0  0
  140.1230   72.0950  224.3120 N   0  0  0  0  0  0  0  0  0  0  0  0
  142.7522   79.7775  219.1037 H   0  0  0  0  0  0  0  0  0  0  0  0
  142.8345   78.2616  218.1434 H   0  0  0  0  0  0  0  0  0  0  0  0
  141.3308   79.2443  218.1434 H   0  0  0  0  0  0  0  0  0  0  0  0
  142.5220   80.5720  220.5660 H   0  0  0  0  0  0  0  0  0  0  0  0
  142.5377   81.4363  222.8957 H   0  0  0  0  0  0  0  0  0  0  0  0
  141.7414   80.0356  224.7861 H   0  0  0  0  0  0  0  0  0  0  0  0
  140.9283   77.7258  224.3242 H   0  0  0  0  0  0  0  0  0  0  0  0
  141.4510   75.7460  222.1570 H   0  0  0  0  0  0  0  0  0  0  0  0
  138.1293   74.7963  220.7975 H   0  0  0  0  0  0  0  0  0  0  0  0
  139.8383   74.4819  220.2665 H   0  0  0  0  0  0  0  0  0  0  0  0
  139.5610   74.4030  223.1970 H   0  0  0  0  0  0  0  0  0  0  0  0
  138.9317   69.9911  221.9336 H   0  0  0  0  0  0  0  0  0  0  0  0
  139.3094   68.4114  223.8299 H   0  0  0  0  0  0  0  0  0  0  0  0
  139.9949   67.9558  226.0659 H   0  0  0  0  0  0  0  0  0  0  0  0
  141.4193   71.1803  228.5476 H   0  0  0  0  0  0  0  0  0  0  0  0
  141.0628   72.8015  226.6827 H   0  0  0  0  0  0  0  0  0  0  0  0
  1  2  1  0
  2  3  1  0
  3  4  2  0
  4  5  1  0
  5  6  2  0
  6  7  1  0
  7  8  2  0
  8  9  1  0
  9 10  1  0
 10 11  2  0
 10 12  1  0
 12 13  1  0
 13 14  1  0
 14 15  2  0
 14 16  1  0
 16 17  2  0
 17 18  1  0
 18 19  2  0
 19 20  1  0
 20 21  2  0
 21 22  1  0
 21 23  1  0
 23 24  2  0
 24 25  1  0
 25 26  2  0
  8  3  1  0
 26 16  1  0
 25 19  1  0
  1 27  1  0
  1 28  1  0
  1 29  1  0
  4 30  1  0
  5 31  1  0
  6 32  1  0
  7 33  1  0
  9 34  1  0
 12 35  1  0
 12 36  1  0
 13 37  1  0
 17 38  1  0
 18 39  1  0
 20 40  1  0
 23 41  1  0
 24 42  1  0
M  END
>  <smiles>  (10) 
COc1ccccc1NC(=O)CNC(=O)c1ccc2cc(Cl)ccc2n1

>  <score_type>  (10) 
oracle

>  <origin>  (10) 
autodockgpu

>  <m_score__min__energy>  (10) 
-8.6099999999999994

>  <m_primary>  (10) 
energy

>  <rmsd>  (10) 
3.1838682301707957

>  <m_score__min__rmsd>  (10) 
3.1838682301707957

>  <meeko>  (10) 
{"free_energy": -7.88, "intermolecular_energy": -9.37, "internal_energy": -1.26, "cluster_size": 20, "cluster_id": 1, "rank_in_cluster": 12}

>  <energy>  (10) 
-7.97

>  <cluster_rmsd>  (10) 
1.23

>  <cluster>  (10) 
1

$$$$

     RDKit          3D

 42 44  0  0  0  0  0  0  0  0999 V2000
  137.6170   78.7560  223.0960 C   0  0  0  0  0  0  0  0  0  0  0  0
  138.9210   78.2770  223.3840 O   0  0  0  0  0  0  0  0  0  0  0  0
  140.0700   78.9940  223.1430 C   0  0  0  0  0  0  0  0  0  0  0  0
  140.1360   80.3190  223.5560 C   0  0  0  0  0  0  0  0  0  0  0  0
  141.2980   81.0370  223.3100 C   0  0  0  0  0  0  0  0  0  0  0  0
  142.3830   80.4660  222.6670 C   0  0  0  0  0  0  0  0  0  0  0  0
  142.2910   79.1400  222.2620 C   0  0  0  0  0  0  0  0  0  0  0  0
  141.1480   78.4000  222.4940 C   0  0  0  0  0  0  0  0  0  0  0  0
  141.0320   77.0400  222.0890 N   0  0  0  0  0  0  0  0  0  0  0  0
  139.9320   76.5300  221.3590 C   0  0  0  0  0  0  0  0  0  0  0  0
  138.9790   77.2940  221.0320 O   0  0  0  0  0  0  0  0  0  0  0  0
  139.9400   75.0980  221.0030 C   0  0  0  0  0  0  0  0  0  0  0  0
  139.8590   74.2430  222.1720 N   0  0  0  0  0  0  0  0  0  0  0  0
  140.2230   72.8760  221.9900 C   0  0  0  0  0  0  0  0  0  0  0  0
  140.5790   72.5440  220.8290 O   0  0  0  0  0  0  0  0  0  0  0  0
  140.1770   71.9330  223.1010 C   0  0  0  0  0  0  0  0  0  0  0  0
  139.6170   70.6820  222.8460 C   0  0  0  0  0  0  0  0  0  0  0  0
  139.5830   69.8060  223.9090 C   0  0  0  0  0  0  0  0  0  0  0  0
  140.0700   70.1510  225.1330 C   0  0  0  0  0  0  0  0  0  0  0  0
  140.0200   69.2390  226.1880 C   0  0  0  0  0  0  0  0  0  0  0  0
  140.5230   69.6090  227.4300 C   0  0  0  0  0  0  0  0  0  0  0  0
  140.4370   68.4300  228.7240 Cl  0  0  0  0  0  0  0  0  0  0  0  0
  141.0690   70.8640  227.6330 C   0  0  0  0  0  0  0  0  0  0  0  0
  141.1250   71.7800  226.5940 C   0  0  0  0  0  0  0  0  0  0  0  0
  140.6270   71.4100  225.3650 C   0  0  0  0  0  0  0  0  0  0  0  0
  140.6530   72.2540  224.3170 N   0  0  0  0  0  0  0  0  0  0  0  0
  137.0824   78.9524  224.0371 H   0  0  0  0  0  0  0  0  0  0  0  0
  137.6885   79.6866  222.5138 H   0  0  0  0  0  0  0  0  0  0  0  0
  137.0691   78.0004  222.5138 H   0  0  0  0  0  0  0  0  0  0  0  0
  139.2838   80.7898  224.0680 H   0  0  0  0  0  0  0  0  0  0  0  0
  141.3584   82.0864  223.6341 H   0  0  0  0  0  0  0  0  0  0  0  0
  143.2972   81.0488  222.4810 H   0  0  0  0  0  0  0  0  0  0  0  0
  143.1431   78.6715  221.7477 H   0  0  0  0  0  0  0  0  0  0  0  0
  141.8230   76.3980  222.3590 H   0  0  0  0  0  0  0  0  0  0  0  0
  139.0785   74.8900  220.3514 H   0  0  0  0  0  0  0  0  0  0  0  0
  140.8896   74.8822  220.4915 H   0  0  0  0  0  0  0  0  0  0  0  0
  139.5540   74.5870  223.1080 H   0  0  0  0  0  0  0  0  0  0  0  0
  139.2254   70.4103  221.8546 H   0  0  0  0  0  0  0  0  0  0  0  0
  139.1522   68.8041  223.7655 H   0  0  0  0  0  0  0  0  0  0  0  0
  139.5875   68.2387  226.0386 H   0  0  0  0  0  0  0  0  0  0  0  0
  141.4607   71.1364  228.6241 H   0  0  0  0  0  0  0  0  0  0  0  0
  141.5575   72.7796  226.7480 H   0  0  0  0  0  0  0  0  0  0  0  0
  1  2  1  0
  2  3  1  0
  3  4  2  0
  4  5  1  0
  5  6  2  0
  6  7  1  0
  7  8  2  0
  8  9  1  0
  9 10  1  0
 10 11  2  0
 10 12  1  0
 12 13  1  0
 13 14  1  0
 14 15  2  0
 14 16  1  0
 16 17  2  0
 17 18  1  0
 18 19  2  0
 19 20  1  0
 20 21  2  0
 21 22  1  0
 21 23  1  0
 23 24  2  0
 24 25  1  0
 25 26  2  0
  8  3  1  0
 26 16  1  0
 25 19  1  0
  1 27  1  0
  1 28  1  0
  1 29  1  0
  4 30  1  0
  5 31  1  0
  6 32  1  0
  7 33  1  0
  9 34  1  0
 12 35  1  0
 12 36  1  0
 13 37  1  0
 17 38  1  0
 18 39  1  0
 20 40  1  0
 23 41  1  0
 24 42  1  0
M  END
>  <smiles>  (11) 
COc1ccccc1NC(=O)CNC(=O)c1ccc2cc(Cl)ccc2n1

>  <score_type>  (11) 
oracle

>  <origin>  (11) 
autodockgpu

>  <m_score__min__energy>  (11) 
-8.6099999999999994

>  <m_primary>  (11) 
energy

>  <rmsd>  (11) 
3.2794415256639655

>  <m_score__min__rmsd>  (11) 
3.2794415256639655

>  <meeko>  (11) 
{"free_energy": -8.36, "intermolecular_energy": -9.85, "internal_energy": -0.96, "cluster_size": 20, "cluster_id": 1, "rank_in_cluster": 8}

>  <energy>  (11) 
-7.93

>  <cluster_rmsd>  (11) 
1.4

>  <cluster>  (11) 
1

$$$$

     RDKit          3D

 42 44  0  0  0  0  0  0  0  0999 V2000
  139.2970   67.7980  225.6030 C   0  0  0  0  0  0  0  0  0  0  0  0
  140.3200   68.7460  225.3480 O   0  0  0  0  0  0  0  0  0  0  0  0
  140.6920   69.7300  226.2350 C   0  0  0  0  0  0  0  0  0  0  0  0
  141.0690   69.3680  227.5230 C   0  0  0  0  0  0  0  0  0  0  0  0
  141.4420   70.3640  228.4130 C   0  0  0  0  0  0  0  0  0  0  0  0
  141.4460   71.7010  228.0500 C   0  0  0  0  0  0  0  0  0  0  0  0
  141.0640   72.0360  226.7570 C   0  0  0  0  0  0  0  0  0  0  0  0
  140.6880   71.0670  225.8480 C   0  0  0  0  0  0  0  0  0  0  0  0
  140.2930   71.3880  224.5180 N   0  0  0  0  0  0  0  0  0  0  0  0
  138.9890   71.1690  224.0130 C   0  0  0  0  0  0  0  0  0  0  0  0
  138.0990   70.6590  224.7530 O   0  0  0  0  0  0  0  0  0  0  0  0
  138.7150   71.5490  222.6140 C   0  0  0  0  0  0  0  0  0  0  0  0
  138.9940   72.9500  222.3620 N   0  0  0  0  0  0  0  0  0  0  0  0
  140.3100   73.2700  221.9190 C   0  0  0  0  0  0  0  0  0  0  0  0
  141.1060   72.3030  221.7880 O   0  0  0  0  0  0  0  0  0  0  0  0
  140.6920   74.6490  221.6370 C   0  0  0  0  0  0  0  0  0  0  0  0
  141.6790   74.8470  220.6710 C   0  0  0  0  0  0  0  0  0  0  0  0
  142.0260   76.1560  220.4200 C   0  0  0  0  0  0  0  0  0  0  0  0
  141.4350   77.1900  221.0810 C   0  0  0  0  0  0  0  0  0  0  0  0
  141.8100   78.5040  220.8020 C   0  0  0  0  0  0  0  0  0  0  0  0
  141.1960   79.5460  221.4870 C   0  0  0  0  0  0  0  0  0  0  0  0
  141.7010   81.1800  221.1020 Cl  0  0  0  0  0  0  0  0  0  0  0  0
  140.2220   79.2980  222.4370 C   0  0  0  0  0  0  0  0  0  0  0  0
  139.8390   77.9970  222.7250 C   0  0  0  0  0  0  0  0  0  0  0  0
  140.4500   76.9680  222.0440 C   0  0  0  0  0  0  0  0  0  0  0  0
  140.1210   75.6830  222.2790 N   0  0  0  0  0  0  0  0  0  0  0  0
  139.1692   67.6796  226.6891 H   0  0  0  0  0  0  0  0  0  0  0  0
  138.3536   68.1482  225.1588 H   0  0  0  0  0  0  0  0  0  0  0  0
  139.5745   66.8307  225.1588 H   0  0  0  0  0  0  0  0  0  0  0  0
  141.0714   68.3118  227.8304 H   0  0  0  0  0  0  0  0  0  0  0  0
  141.7425   70.0852  229.4338 H   0  0  0  0  0  0  0  0  0  0  0  0
  141.7445   72.4787  228.7684 H   0  0  0  0  0  0  0  0  0  0  0  0
  141.0610   73.0928  226.4517 H   0  0  0  0  0  0  0  0  0  0  0  0
  141.0300   71.8130  223.8970 H   0  0  0  0  0  0  0  0  0  0  0  0
  139.3447   70.9376  221.9510 H   0  0  0  0  0  0  0  0  0  0  0  0
  137.6458   71.3776  222.4208 H   0  0  0  0  0  0  0  0  0  0  0  0
  138.2830   73.7020  222.4910 H   0  0  0  0  0  0  0  0  0  0  0  0
  142.1521   74.0072  220.1411 H   0  0  0  0  0  0  0  0  0  0  0  0
  142.7990   76.3716  219.6677 H   0  0  0  0  0  0  0  0  0  0  0  0
  142.5832   78.7135  220.0481 H   0  0  0  0  0  0  0  0  0  0  0  0
  139.7486   80.1376  222.9670 H   0  0  0  0  0  0  0  0  0  0  0  0
  139.0654   77.7917  223.4796 H   0  0  0  0  0  0  0  0  0  0  0  0
  1  2  1  0
  2  3  1  0
  3  4  2  0
  4  5  1  0
  5  6  2  0
  6  7  1  0
  7  8  2  0
  8  9  1  0
  9 10  1  0
 10 11  2  0
 10 12  1  0
 12 13  1  0
 13 14  1  0
 14 15  2  0
 14 16  1  0
 16 17  2  0
 17 18  1  0
 18 19  2  0
 19 20  1  0
 20 21  2  0
 21 22  1  0
 21 23  1  0
 23 24  2  0
 24 25  1  0
 25 26  2  0
  8  3  1  0
 26 16  1  0
 25 19  1  0
  1 27  1  0
  1 28  1  0
  1 29  1  0
  4 30  1  0
  5 31  1  0
  6 32  1  0
  7 33  1  0
  9 34  1  0
 12 35  1  0
 12 36  1  0
 13 37  1  0
 17 38  1  0
 18 39  1  0
 20 40  1  0
 23 41  1  0
 24 42  1  0
M  END
>  <smiles>  (12) 
COc1ccccc1NC(=O)CNC(=O)c1ccc2cc(Cl)ccc2n1

>  <score_type>  (12) 
oracle

>  <origin>  (12) 
autodockgpu

>  <m_score__min__energy>  (12) 
-8.6099999999999994

>  <m_primary>  (12) 
energy

>  <rmsd>  (12) 
8.314985377286513

>  <m_score__min__rmsd>  (12) 
8.314985377286513

>  <meeko>  (12) 
{"free_energy": -7.37, "intermolecular_energy": -8.86, "internal_energy": -1.97, "cluster_size": 25, "cluster_id": 2, "rank_in_cluster": 20}

>  <energy>  (12) 
-7.88

>  <cluster_rmsd>  (12) 
0.51

>  <cluster>  (12) 
1

$$$$

     RDKit          3D

 42 44  0  0  0  0  0  0  0  0999 V2000
  138.8140   68.1140  223.6380 C   0  0  0  0  0  0  0  0  0  0  0  0
  138.5040   68.2770  225.0130 O   0  0  0  0  0  0  0  0  0  0  0  0
  139.2990   68.9650  225.9010 C   0  0  0  0  0  0  0  0  0  0  0  0
  139.8130   68.2940  227.0040 C   0  0  0  0  0  0  0  0  0  0  0  0
  140.6130   68.9940  227.8960 C   0  0  0  0  0  0  0  0  0  0  0  0
  140.9080   70.3350  227.7120 C   0  0  0  0  0  0  0  0  0  0  0  0
  140.3800   70.9820  226.6020 C   0  0  0  0  0  0  0  0  0  0  0  0
  139.5810   70.3130  225.6960 C   0  0  0  0  0  0  0  0  0  0  0  0
  139.0310   70.9560  224.5510 N   0  0  0  0  0  0  0  0  0  0  0  0
  139.8130   71.4740  223.4920 C   0  0  0  0  0  0  0  0  0  0  0  0
  141.0730   71.3800  223.5280 O   0  0  0  0  0  0  0  0  0  0  0  0
  139.1120   72.1170  222.3640 C   0  0  0  0  0  0  0  0  0  0  0  0
  139.3260   73.5510  222.3320 N   0  0  0  0  0  0  0  0  0  0  0  0
  140.4580   74.0120  221.5980 C   0  0  0  0  0  0  0  0  0  0  0  0
  141.1640   73.1270  221.0480 O   0  0  0  0  0  0  0  0  0  0  0  0
  140.7620   75.4360  221.5030 C   0  0  0  0  0  0  0  0  0  0  0  0
  141.6710   75.8240  220.5200 C   0  0  0  0  0  0  0  0  0  0  0  0
  141.9450   77.1730  220.4470 C   0  0  0  0  0  0  0  0  0  0  0  0
  141.3580   78.0660  221.2910 C   0  0  0  0  0  0  0  0  0  0  0  0
  141.6580   79.4250  221.1890 C   0  0  0  0  0  0  0  0  0  0  0  0
  141.0480   80.3210  222.0580 C   0  0  0  0  0  0  0  0  0  0  0  0
  141.4570   82.0180  221.8930 Cl  0  0  0  0  0  0  0  0  0  0  0  0
  140.1520   79.8870  223.0190 C   0  0  0  0  0  0  0  0  0  0  0  0
  139.8450   78.5390  223.1310 C   0  0  0  0  0  0  0  0  0  0  0  0
  140.4500   77.6540  222.2680 C   0  0  0  0  0  0  0  0  0  0  0  0
  140.1930   76.3340  222.3270 N   0  0  0  0  0  0  0  0  0  0  0  0
  139.7836   67.6041  223.5387 H   0  0  0  0  0  0  0  0  0  0  0  0
  138.0313   67.5108  223.1547 H   0  0  0  0  0  0  0  0  0  0  0  0
  138.8673   69.1007  223.1547 H   0  0  0  0  0  0  0  0  0  0  0  0
  139.5902   67.2292  227.1668 H   0  0  0  0  0  0  0  0  0  0  0  0
  141.0236   68.4705  228.7720 H   0  0  0  0  0  0  0  0  0  0  0  0
  141.5453   70.8747  228.4280 H   0  0  0  0  0  0  0  0  0  0  0  0
  140.6025   72.0473  226.4417 H   0  0  0  0  0  0  0  0  0  0  0  0
  137.9810   71.0370  224.5150 H   0  0  0  0  0  0  0  0  0  0  0  0
  139.4814   71.6826  221.4234 H   0  0  0  0  0  0  0  0  0  0  0  0
  138.0339   71.9391  222.4908 H   0  0  0  0  0  0  0  0  0  0  0  0
  138.6970   74.2300  222.8130 H   0  0  0  0  0  0  0  0  0  0  0  0
  142.1419   75.0966  219.8425 H   0  0  0  0  0  0  0  0  0  0  0  0
  142.6545   77.5367  219.6892 H   0  0  0  0  0  0  0  0  0  0  0  0
  142.3690   79.7826  220.4296 H   0  0  0  0  0  0  0  0  0  0  0  0
  139.6812   80.6141  223.6970 H   0  0  0  0  0  0  0  0  0  0  0  0
  139.1341   78.1854  223.8923 H   0  0  0  0  0  0  0  0  0  0  0  0
  1  2  1  0
  2  3  1  0
  3  4  2  0
  4  5  1  0
  5  6  2  0
  6  7  1  0
  7  8  2  0
  8  9  1  0
  9 10  1  0
 10 11  2  0
 10 12  1  0
 12 13  1  0
 13 14  1  0
 14 15  2  0
 14 16  1  0
 16 17  2  0
 17 18  1  0
 18 19  2  0
 19 20  1  0
 20 21  2  0
 21 22  1  0
 21 23  1  0
 23 24  2  0
 24 25  1  0
 25 26  2  0
  8  3  1  0
 26 16  1  0
 25 19  1  0
  1 27  1  0
  1 28  1  0
  1 29  1  0
  4 30  1  0
  5 31  1  0
  6 32  1  0
  7 33  1  0
  9 34  1  0
 12 35  1  0
 12 36  1  0
 13 37  1  0
 17 38  1  0
 18 39  1  0
 20 40  1  0
 23 41  1  0
 24 42  1  0
M  END
>  <smiles>  (13) 
COc1ccccc1NC(=O)CNC(=O)c1ccc2cc(Cl)ccc2n1

>  <score_type>  (13) 
oracle

>  <origin>  (13) 
autodockgpu

>  <m_score__min__energy>  (13) 
-8.6099999999999994

>  <m_primary>  (13) 
energy

>  <rmsd>  (13) 
8.684649980753768

>  <m_score__min__rmsd>  (13) 
8.684649980753768

>  <meeko>  (13) 
{"free_energy": -8.03, "intermolecular_energy": -9.52, "internal_energy": -1.33, "cluster_size": 25, "cluster_id": 2, "rank_in_cluster": 2}

>  <energy>  (13) 
-7.87

>  <cluster_rmsd>  (13) 
1.36

>  <cluster>  (13) 
1

$$$$

     RDKit          3D

 42 44  0  0  0  0  0  0  0  0999 V2000
  142.2400   77.8980  219.1820 C   0  0  0  0  0  0  0  0  0  0  0  0
  141.3730   78.7220  219.9460 O   0  0  0  0  0  0  0  0  0  0  0  0
  141.6070   79.0720  221.2560 C   0  0  0  0  0  0  0  0  0  0  0  0
  141.9970   80.3740  221.5460 C   0  0  0  0  0  0  0  0  0  0  0  0
  142.2320   80.7200  222.8690 C   0  0  0  0  0  0  0  0  0  0  0  0
  142.0880   79.8040  223.8980 C   0  0  0  0  0  0  0  0  0  0  0  0
  141.6990   78.5090  223.5810 C   0  0  0  0  0  0  0  0  0  0  0  0
  141.4570   78.1340  222.2730 C   0  0  0  0  0  0  0  0  0  0  0  0
  141.0570   76.8120  221.9260 N   0  0  0  0  0  0  0  0  0  0  0  0
  139.7700   76.4870  221.4350 C   0  0  0  0  0  0  0  0  0  0  0  0
  138.9010   77.3920  221.2840 O   0  0  0  0  0  0  0  0  0  0  0  0
  139.4880   75.0750  221.1130 C   0  0  0  0  0  0  0  0  0  0  0  0
  139.5940   74.2160  222.2770 N   0  0  0  0  0  0  0  0  0  0  0  0
  139.7830   72.8250  222.0290 C   0  0  0  0  0  0  0  0  0  0  0  0
  139.8420   72.4760  220.8210 O   0  0  0  0  0  0  0  0  0  0  0  0
  139.9020   71.8760  223.1310 C   0  0  0  0  0  0  0  0  0  0  0  0
  139.5110   70.5620  222.8780 C   0  0  0  0  0  0  0  0  0  0  0  0
  139.6300   69.6810  223.9310 C   0  0  0  0  0  0  0  0  0  0  0  0
  140.1030   70.0810  225.1440 C   0  0  0  0  0  0  0  0  0  0  0  0
  140.2120   69.1630  226.1890 C   0  0  0  0  0  0  0  0  0  0  0  0
  140.6970   69.5890  227.4200 C   0  0  0  0  0  0  0  0  0  0  0  0
  140.8140   68.4000  228.7030 Cl  0  0  0  0  0  0  0  0  0  0  0  0
  141.0720   70.9050  227.6210 C   0  0  0  0  0  0  0  0  0  0  0  0
  140.9700   71.8280  226.5920 C   0  0  0  0  0  0  0  0  0  0  0  0
  140.4890   71.4020  225.3740 C   0  0  0  0  0  0  0  0  0  0  0  0
  140.3670   72.2500  224.3360 N   0  0  0  0  0  0  0  0  0  0  0  0
  142.8687   77.3005  219.8586 H   0  0  0  0  0  0  0  0  0  0  0  0
  141.6429   77.2264  218.5476 H   0  0  0  0  0  0  0  0  0  0  0  0
  142.8804   78.5284  218.5476 H   0  0  0  0  0  0  0  0  0  0  0  0
  142.1170   81.1156  220.7425 H   0  0  0  0  0  0  0  0  0  0  0  0
  142.5407   81.7486  223.1069 H   0  0  0  0  0  0  0  0  0  0  0  0
  142.2773   80.0954  224.9417 H   0  0  0  0  0  0  0  0  0  0  0  0
  141.5814   77.7683  224.3857 H   0  0  0  0  0  0  0  0  0  0  0  0
  141.7770   76.0540  222.0490 H   0  0  0  0  0  0  0  0  0  0  0  0
  138.4674   75.0006  220.7096 H   0  0  0  0  0  0  0  0  0  0  0  0
  140.2345   74.7407  220.3775 H   0  0  0  0  0  0  0  0  0  0  0  0
  139.5370   74.5750  223.2540 H   0  0  0  0  0  0  0  0  0  0  0  0
  139.1298   70.2469  221.8955 H   0  0  0  0  0  0  0  0  0  0  0  0
  139.3362   68.6306  223.7886 H   0  0  0  0  0  0  0  0  0  0  0  0
  139.9174   68.1137  226.0403 H   0  0  0  0  0  0  0  0  0  0  0  0
  141.4534   71.2210  228.6032 H   0  0  0  0  0  0  0  0  0  0  0  0
  141.2663   72.8763  226.7447 H   0  0  0  0  0  0  0  0  0  0  0  0
  1  2  1  0
  2  3  1  0
  3  4  2  0
  4  5  1  0
  5  6  2  0
  6  7  1  0
  7  8  2  0
  8  9  1  0
  9 10  1  0
 10 11  2  0
 10 12  1  0
 12 13  1  0
 13 14  1  0
 14 15  2  0
 14 16  1  0
 16 17  2  0
 17 18  1  0
 18 19  2  0
 19 20  1  0
 20 21  2  0
 21 22  1  0
 21 23  1  0
 23 24  2  0
 24 25  1  0
 25 26  2  0
  8  3  1  0
 26 16  1  0
 25 19  1  0
  1 27  1  0
  1 28  1  0
  1 29  1  0
  4 30  1  0
  5 31  1  0
  6 32  1  0
  7 33  1  0
  9 34  1  0
 12 35  1  0
 12 36  1  0
 13 37  1  0
 17 38  1  0
 18 39  1  0
 20 40  1  0
 23 41  1  0
 24 42  1  0
M  END
>  <smiles>  (14) 
COc1ccccc1NC(=O)CNC(=O)c1ccc2cc(Cl)ccc2n1

>  <score_type>  (14) 
oracle

>  <origin>  (14) 
autodockgpu

>  <m_score__min__energy>  (14) 
-8.6099999999999994

>  <m_primary>  (14) 
energy

>  <rmsd>  (14) 
3.3761670212463675

>  <m_score__min__rmsd>  (14) 
3.3761670212463675

>  <meeko>  (14) 
{"free_energy": -8.52, "intermolecular_energy": -10.01, "internal_energy": -1.22, "cluster_size": 20, "cluster_id": 1, "rank_in_cluster": 4}

>  <energy>  (14) 
-7.8

>  <cluster_rmsd>  (14) 
1.53

>  <cluster>  (14) 
1

$$$$

     RDKit          3D

 42 44  0  0  0  0  0  0  0  0999 V2000
  139.2490   67.7740  225.4750 C   0  0  0  0  0  0  0  0  0  0  0  0
  140.3270   68.6750  225.2780 O   0  0  0  0  0  0  0  0  0  0  0  0
  140.6730   69.6630  226.1710 C   0  0  0  0  0  0  0  0  0  0  0  0
  140.9620   69.3120  227.4850 C   0  0  0  0  0  0  0  0  0  0  0  0
  141.3090   70.3130  228.3800 C   0  0  0  0  0  0  0  0  0  0  0  0
  141.3730   71.6420  227.9970 C   0  0  0  0  0  0  0  0  0  0  0  0
  141.0790   71.9660  226.6790 C   0  0  0  0  0  0  0  0  0  0  0  0
  140.7300   70.9920  225.7640 C   0  0  0  0  0  0  0  0  0  0  0  0
  140.4250   71.3010  224.4080 N   0  0  0  0  0  0  0  0  0  0  0  0
  139.1220   71.2280  223.8620 C   0  0  0  0  0  0  0  0  0  0  0  0
  138.1490   70.8710  224.5860 O   0  0  0  0  0  0  0  0  0  0  0  0
  138.9460   71.5770  222.4390 C   0  0  0  0  0  0  0  0  0  0  0  0
  139.1570   72.9910  222.1910 N   0  0  0  0  0  0  0  0  0  0  0  0
  140.4850   73.3910  221.8610 C   0  0  0  0  0  0  0  0  0  0  0  0
  141.3490   72.4750  221.8170 O   0  0  0  0  0  0  0  0  0  0  0  0
  140.8040   74.7880  221.5930 C   0  0  0  0  0  0  0  0  0  0  0  0
  141.7250   75.0440  220.5790 C   0  0  0  0  0  0  0  0  0  0  0  0
  142.0130   76.3700  220.3410 C   0  0  0  0  0  0  0  0  0  0  0  0
  141.4260   77.3670  221.0610 C   0  0  0  0  0  0  0  0  0  0  0  0
  141.7390   78.7000  220.7940 C   0  0  0  0  0  0  0  0  0  0  0  0
  141.1300   79.7020  221.5390 C   0  0  0  0  0  0  0  0  0  0  0  0
  141.5560   81.3620  221.1680 Cl  0  0  0  0  0  0  0  0  0  0  0  0
  140.2210   79.3980  222.5370 C   0  0  0  0  0  0  0  0  0  0  0  0
  139.9000   78.0780  222.8130 C   0  0  0  0  0  0  0  0  0  0  0  0
  140.5060   77.0870  222.0720 C   0  0  0  0  0  0  0  0  0  0  0  0
  140.2350   75.7870  222.2930 N   0  0  0  0  0  0  0  0  0  0  0  0
  139.0809   67.6335  226.5530 H   0  0  0  0  0  0  0  0  0  0  0  0
  138.3391   68.1841  225.0124 H   0  0  0  0  0  0  0  0  0  0  0  0
  139.4911   66.8058  225.0124 H   0  0  0  0  0  0  0  0  0  0  0  0
  140.9163   68.2615  227.8082 H   0  0  0  0  0  0  0  0  0  0  0  0
  141.5394   70.0441  229.4214 H   0  0  0  0  0  0  0  0  0  0  0  0
  141.6503   72.4232  228.7200 H   0  0  0  0  0  0  0  0  0  0  0  0
  141.1249   73.0171  226.3580 H   0  0  0  0  0  0  0  0  0  0  0  0
  141.2320   71.6000  223.7990 H   0  0  0  0  0  0  0  0  0  0  0  0
  139.6677   71.0010  221.8412 H   0  0  0  0  0  0  0  0  0  0  0  0
  137.9102   71.3359  222.1579 H   0  0  0  0  0  0  0  0  0  0  0  0
  138.3920   73.6970  222.2450 H   0  0  0  0  0  0  0  0  0  0  0  0
  142.1949   74.2340  220.0019 H   0  0  0  0  0  0  0  0  0  0  0  0
  142.7335   76.6300  219.5515 H   0  0  0  0  0  0  0  0  0  0  0  0
  142.4596   78.9547  220.0029 H   0  0  0  0  0  0  0  0  0  0  0  0
  139.7508   80.2078  223.1142 H   0  0  0  0  0  0  0  0  0  0  0  0
  139.1786   77.8277  223.6048 H   0  0  0  0  0  0  0  0  0  0  0  0
  1  2  1  0
  2  3  1  0
  3  4  2  0
  4  5  1  0
  5  6  2  0
  6  7  1  0
  7  8  2  0
  8  9  1  0
  9 10  1  0
 10 11  2  0
 10 12  1  0
 12 13  1  0
 13 14  1  0
 14 15  2  0
 14 16  1  0
 16 17  2  0
 17 18  1  0
 18 19  2  0
 19 20  1  0
 20 21  2  0
 21 22  1  0
 21 23  1  0
 23 24  2  0
 24 25  1  0
 25 26  2  0
  8  3  1  0
 26 16  1  0
 25 19  1  0
  1 27  1  0
  1 28  1  0
  1 29  1  0
  4 30  1  0
  5 31  1  0
  6 32  1  0
  7 33  1  0
  9 34  1  0
 12 35  1  0
 12 36  1  0
 13 37  1  0
 17 38  1  0
 18 39  1  0
 20 40  1  0
 23 41  1  0
 24 42  1  0
M  END
>  <smiles>  (15) 
COc1ccccc1NC(=O)CNC(=O)c1ccc2cc(Cl)ccc2n1

>  <score_type>  (15) 
oracle

>  <origin>  (15) 
autodockgpu

>  <m_score__min__energy>  (15) 
-8.6099999999999994

>  <m_primary>  (15) 
energy

>  <rmsd>  (15) 
8.36788559405474

>  <m_score__min__rmsd>  (15) 
8.36788559405474

>  <meeko>  (15) 
{"free_energy": -7.26, "intermolecular_energy": -8.75, "internal_energy": -1.95, "cluster_size": 25, "cluster_id": 2, "rank_in_cluster": 24}

>  <energy>  (15) 
-7.77

>  <cluster_rmsd>  (15) 
1.24

>  <cluster>  (15) 
1

$$$$

     RDKit          3D

 42 44  0  0  0  0  0  0  0  0999 V2000
  137.0770   78.5450  221.8420 C   0  0  0  0  0  0  0  0  0  0  0  0
  137.8360   78.5130  223.0400 O   0  0  0  0  0  0  0  0  0  0  0  0
  139.1880   78.7620  223.0970 C   0  0  0  0  0  0  0  0  0  0  0  0
  139.6250   80.0180  223.4990 C   0  0  0  0  0  0  0  0  0  0  0  0
  140.9900   80.2630  223.5530 C   0  0  0  0  0  0  0  0  0  0  0  0
  141.9170   79.2900  223.2190 C   0  0  0  0  0  0  0  0  0  0  0  0
  141.4540   78.0430  222.8190 C   0  0  0  0  0  0  0  0  0  0  0  0
  140.1020   77.7690  222.7560 C   0  0  0  0  0  0  0  0  0  0  0  0
  139.6050   76.4980  222.3490 N   0  0  0  0  0  0  0  0  0  0  0  0
  139.6490   76.0290  221.0150 C   0  0  0  0  0  0  0  0  0  0  0  0
  140.1480   76.7520  220.1050 O   0  0  0  0  0  0  0  0  0  0  0  0
  139.0980   74.6900  220.7320 C   0  0  0  0  0  0  0  0  0  0  0  0
  139.0800   73.8450  221.9110 N   0  0  0  0  0  0  0  0  0  0  0  0
  139.9060   72.6830  221.8770 C   0  0  0  0  0  0  0  0  0  0  0  0
  140.5730   72.5040  220.8240 O   0  0  0  0  0  0  0  0  0  0  0  0
  139.9610   71.7680  223.0110 C   0  0  0  0  0  0  0  0  0  0  0  0
  139.4660   70.4800  222.8090 C   0  0  0  0  0  0  0  0  0  0  0  0
  139.5260   69.6310  223.8920 C   0  0  0  0  0  0  0  0  0  0  0  0
  140.0400   70.0360  225.0870 C   0  0  0  0  0  0  0  0  0  0  0  0
  140.0860   69.1490  226.1640 C   0  0  0  0  0  0  0  0  0  0  0  0
  140.6140   69.5800  227.3750 C   0  0  0  0  0  0  0  0  0  0  0  0
  140.6500   68.4320  228.6990 Cl  0  0  0  0  0  0  0  0  0  0  0  0
  141.0930   70.8690  227.5260 C   0  0  0  0  0  0  0  0  0  0  0  0
  141.0530   71.7600  226.4650 C   0  0  0  0  0  0  0  0  0  0  0  0
  140.5300   71.3300  225.2660 C   0  0  0  0  0  0  0  0  0  0  0  0
  140.4640   72.1480  224.1990 N   0  0  0  0  0  0  0  0  0  0  0  0
  136.0057   78.5902  222.0877 H   0  0  0  0  0  0  0  0  0  0  0  0
  137.3562   79.4322  221.2546 H   0  0  0  0  0  0  0  0  0  0  0  0
  137.2805   77.6375  221.2546 H   0  0  0  0  0  0  0  0  0  0  0  0
  138.9033   80.8029  223.7692 H   0  0  0  0  0  0  0  0  0  0  0  0
  141.3445   81.2552  223.8691 H   0  0  0  0  0  0  0  0  0  0  0  0
  142.9956   79.4999  223.2693 H   0  0  0  0  0  0  0  0  0  0  0  0
  142.1771   77.2598  222.5476 H   0  0  0  0  0  0  0  0  0  0  0  0
  139.1880   75.8920  223.1030 H   0  0  0  0  0  0  0  0  0  0  0  0
  138.0687   74.8017  220.3603 H   0  0  0  0  0  0  0  0  0  0  0  0
  139.7443   74.2102  219.9822 H   0  0  0  0  0  0  0  0  0  0  0  0
  138.5010   74.0560  222.7520 H   0  0  0  0  0  0  0  0  0  0  0  0
  139.0518   70.1607  221.8413 H   0  0  0  0  0  0  0  0  0  0  0  0
  139.1503   68.6022  223.7897 H   0  0  0  0  0  0  0  0  0  0  0  0
  139.7089   68.1214  226.0554 H   0  0  0  0  0  0  0  0  0  0  0  0
  141.5079   71.1886  228.4933 H   0  0  0  0  0  0  0  0  0  0  0  0
  141.4304   72.7870  226.5782 H   0  0  0  0  0  0  0  0  0  0  0  0
  1  2  1  0
  2  3  1  0
  3  4  2  0
  4  5  1  0
  5  6  2  0
  6  7  1  0
  7  8  2  0
  8  9  1  0
  9 10  1  0
 10 11  2  0
 10 12  1  0
 12 13  1  0
 13 14  1  0
 14 15  2  0
 14 16  1  0
 16 17  2  0
 17 18  1  0
 18 19  2  0
 19 20  1  0
 20 21  2  0
 21 22  1  0
 21 23  1  0
 23 24  2  0
 24 25  1  0
 25 26  2  0
  8  3  1  0
 26 16  1  0
 25 19  1  0
  1 27  1  0
  1 28  1  0
  1 29  1  0
  4 30  1  0
  5 31  1  0
  6 32  1  0
  7 33  1  0
  9 34  1  0
 12 35  1  0
 12 36  1  0
 13 37  1  0
 17 38  1  0
 18 39  1  0
 20 40  1  0
 23 41  1  0
 24 42  1  0
M  END
>  <smiles>  (16) 
COc1ccccc1NC(=O)CNC(=O)c1ccc2cc(Cl)ccc2n1

>  <score_type>  (16) 
oracle

>  <origin>  (16) 
autodockgpu

>  <m_score__min__energy>  (16) 
-8.6099999999999994

>  <m_primary>  (16) 
energy

>  <rmsd>  (16) 
3.024206386252523

>  <m_score__min__rmsd>  (16) 
3.024206386252523

>  <meeko>  (16) 
{"free_energy": -7.77, "intermolecular_energy": -9.27, "internal_energy": -1.24, "cluster_size": 20, "cluster_id": 1, "rank_in_cluster": 15}

>  <energy>  (16) 
-7.52

>  <cluster_rmsd>  (16) 
1.54

>  <cluster>  (16) 
1

$$$$

     RDKit          3D

 42 44  0  0  0  0  0  0  0  0999 V2000
  137.3090   76.2520  222.8960 C   0  0  0  0  0  0  0  0  0  0  0  0
  137.9140   77.3800  222.2850 O   0  0  0  0  0  0  0  0  0  0  0  0
  139.0790   77.9600  222.7320 C   0  0  0  0  0  0  0  0  0  0  0  0
  139.0280   79.2320  223.2880 C   0  0  0  0  0  0  0  0  0  0  0  0
  140.2060   79.8120  223.7360 C   0  0  0  0  0  0  0  0  0  0  0  0
  141.4220   79.1550  223.6420 C   0  0  0  0  0  0  0  0  0  0  0  0
  141.4460   77.8840  223.0810 C   0  0  0  0  0  0  0  0  0  0  0  0
  140.2900   77.2810  222.6270 C   0  0  0  0  0  0  0  0  0  0  0  0
  140.2910   75.9800  222.0490 N   0  0  0  0  0  0  0  0  0  0  0  0
  141.0950   75.6150  220.9420 C   0  0  0  0  0  0  0  0  0  0  0  0
  141.8650   76.4640  220.4090 O   0  0  0  0  0  0  0  0  0  0  0  0
  140.9980   74.2300  220.4430 C   0  0  0  0  0  0  0  0  0  0  0  0
  141.1540   73.2530  221.5040 N   0  0  0  0  0  0  0  0  0  0  0  0
  139.9650   72.8390  222.1720 C   0  0  0  0  0  0  0  0  0  0  0  0
  138.8910   73.3640  221.7760 O   0  0  0  0  0  0  0  0  0  0  0  0
  140.0120   71.8610  223.2530 C   0  0  0  0  0  0  0  0  0  0  0  0
  139.5090   70.5900  222.9780 C   0  0  0  0  0  0  0  0  0  0  0  0
  139.5620   69.6800  224.0110 C   0  0  0  0  0  0  0  0  0  0  0  0
  140.0780   70.0130  225.2270 C   0  0  0  0  0  0  0  0  0  0  0  0
  140.1170   69.0670  226.2520 C   0  0  0  0  0  0  0  0  0  0  0  0
  140.6480   69.4250  227.4850 C   0  0  0  0  0  0  0  0  0  0  0  0
  140.6750   68.2030  228.7430 Cl  0  0  0  0  0  0  0  0  0  0  0  0
  141.1350   70.7000  227.7100 C   0  0  0  0  0  0  0  0  0  0  0  0
  141.1030   71.6490  226.7010 C   0  0  0  0  0  0  0  0  0  0  0  0
  140.5770   71.2920  225.4790 C   0  0  0  0  0  0  0  0  0  0  0  0
  140.5180   72.1690  224.4600 N   0  0  0  0  0  0  0  0  0  0  0  0
  137.3638   76.3541  223.9899 H   0  0  0  0  0  0  0  0  0  0  0  0
  136.2555   76.1881  222.5860 H   0  0  0  0  0  0  0  0  0  0  0  0
  137.8385   75.3390  222.5860 H   0  0  0  0  0  0  0  0  0  0  0  0
  138.0717   79.7692  223.3715 H   0  0  0  0  0  0  0  0  0  0  0  0
  140.1736   80.8192  224.1771 H   0  0  0  0  0  0  0  0  0  0  0  0
  142.3469   79.6284  224.0030 H   0  0  0  0  0  0  0  0  0  0  0  0
  142.4033   77.3486  222.9971 H   0  0  0  0  0  0  0  0  0  0  0  0
  139.6520   75.2680  222.4880 H   0  0  0  0  0  0  0  0  0  0  0  0
  140.0124   74.0903  219.9749 H   0  0  0  0  0  0  0  0  0  0  0  0
  141.8109   74.0744  219.7185 H   0  0  0  0  0  0  0  0  0  0  0  0
  142.0790   72.8580  221.7810 H   0  0  0  0  0  0  0  0  0  0  0  0
  139.0939   70.3290  221.9933 H   0  0  0  0  0  0  0  0  0  0  0  0
  139.1790   68.6614  223.8503 H   0  0  0  0  0  0  0  0  0  0  0  0
  139.7320   68.0501  226.0858 H   0  0  0  0  0  0  0  0  0  0  0  0
  141.5496   70.9617  228.6947 H   0  0  0  0  0  0  0  0  0  0  0  0
  141.4890   72.6648  226.8720 H   0  0  0  0  0  0  0  0  0  0  0  0
  1  2  1  0
  2  3  1  0
  3  4  2  0
  4  5  1  0
  5  6  2  0
  6  7  1  0
  7  8  2  0
  8  9  1  0
  9 10  1  0
 10 11  2  0
 10 12  1  0
 12 13  1  0
 13 14  1  0
 14 15  2  0
 14 16  1  0
 16 17  2  0
 17 18  1  0
 18 19  2  0
 19 20  1  0
 20 21  2  0
 21 22  1  0
 21 23  1  0
 23 24  2  0
 24 25  1  0
 25 26  2  0
  8  3  1  0
 26 16  1  0
 25 19  1  0
  1 27  1  0
  1 28  1  0
  1 29  1  0
  4 30  1  0
  5 31  1  0
  6 32  1  0
  7 33  1  0
  9 34  1  0
 12 35  1  0
 12 36  1  0
 13 37  1  0
 17 38  1  0
 18 39  1  0
 20 40  1  0
 23 41  1  0
 24 42  1  0
M  END
>  <smiles>  (17) 
COc1ccccc1NC(=O)CNC(=O)c1ccc2cc(Cl)ccc2n1

>  <score_type>  (17) 
oracle

>  <origin>  (17) 
autodockgpu

>  <m_score__min__energy>  (17) 
-8.6099999999999994

>  <m_primary>  (17) 
energy

>  <rmsd>  (17) 
3.2731341890702783

>  <m_score__min__rmsd>  (17) 
3.2731341890702783

>  <meeko>  (17) 
{"free_energy": -7.17, "intermolecular_energy": -8.66, "internal_energy": -2.0, "cluster_size": 20, "cluster_id": 1, "rank_in_cluster": 19}

>  <energy>  (17) 
-7.49

>  <cluster_rmsd>  (17) 
1.56

>  <cluster>  (17) 
1

$$$$

     RDKit          3D

 42 44  0  0  0  0  0  0  0  0999 V2000
  139.1780   68.1120  225.3480 C   0  0  0  0  0  0  0  0  0  0  0  0
  140.3310   68.9280  225.2230 O   0  0  0  0  0  0  0  0  0  0  0  0
  140.6800   69.9050  226.1270 C   0  0  0  0  0  0  0  0  0  0  0  0
  140.9570   69.5400  227.4390 C   0  0  0  0  0  0  0  0  0  0  0  0
  141.3070   70.5300  228.3460 C   0  0  0  0  0  0  0  0  0  0  0  0
  141.3870   71.8620  227.9750 C   0  0  0  0  0  0  0  0  0  0  0  0
  141.1050   72.2000  226.6580 C   0  0  0  0  0  0  0  0  0  0  0  0
  140.7530   71.2370  225.7320 C   0  0  0  0  0  0  0  0  0  0  0  0
  140.4610   71.5610  224.3760 N   0  0  0  0  0  0  0  0  0  0  0  0
  139.1720   71.4450  223.8040 C   0  0  0  0  0  0  0  0  0  0  0  0
  138.2020   71.0320  224.5020 O   0  0  0  0  0  0  0  0  0  0  0  0
  139.0080   71.8150  222.3850 C   0  0  0  0  0  0  0  0  0  0  0  0
  139.2120   73.2340  222.1620 N   0  0  0  0  0  0  0  0  0  0  0  0
  140.5380   73.6460  221.8420 C   0  0  0  0  0  0  0  0  0  0  0  0
  141.4070   72.7370  221.7840 O   0  0  0  0  0  0  0  0  0  0  0  0
  140.8490   75.0500  221.5980 C   0  0  0  0  0  0  0  0  0  0  0  0
  141.6850   75.3350  220.5190 C   0  0  0  0  0  0  0  0  0  0  0  0
  141.9670   76.6670  220.3060 C   0  0  0  0  0  0  0  0  0  0  0  0
  141.4550   77.6410  221.1090 C   0  0  0  0  0  0  0  0  0  0  0  0
  141.7610   78.9800  220.8640 C   0  0  0  0  0  0  0  0  0  0  0  0
  141.2280   79.9600  221.6940 C   0  0  0  0  0  0  0  0  0  0  0  0
  141.6420   81.6290  221.3480 Cl  0  0  0  0  0  0  0  0  0  0  0  0
  140.4040   79.6270  222.7540 C   0  0  0  0  0  0  0  0  0  0  0  0
  140.0920   78.3000  223.0080 C   0  0  0  0  0  0  0  0  0  0  0  0
  140.6200   77.3320  222.1840 C   0  0  0  0  0  0  0  0  0  0  0  0
  140.3540   76.0270  222.3790 N   0  0  0  0  0  0  0  0  0  0  0  0
  138.9545   67.9538  226.4134 H   0  0  0  0  0  0  0  0  0  0  0  0
  138.3237   68.6077  224.8638 H   0  0  0  0  0  0  0  0  0  0  0  0
  139.3614   67.1415  224.8638 H   0  0  0  0  0  0  0  0  0  0  0  0
  140.8999   68.4871  227.7522 H   0  0  0  0  0  0  0  0  0  0  0  0
  141.5267   70.2497  229.3867 H   0  0  0  0  0  0  0  0  0  0  0  0
  141.6674   72.6341  228.7066 H   0  0  0  0  0  0  0  0  0  0  0  0
  141.1629   73.2534  226.3464 H   0  0  0  0  0  0  0  0  0  0  0  0
  141.2650   71.9050  223.7890 H   0  0  0  0  0  0  0  0  0  0  0  0
  139.7396   71.2533  221.7855 H   0  0  0  0  0  0  0  0  0  0  0  0
  137.9769   71.5713  222.0892 H   0  0  0  0  0  0  0  0  0  0  0  0
  138.4420   73.9340  222.2260 H   0  0  0  0  0  0  0  0  0  0  0  0
  142.0954   74.5429  219.8754 H   0  0  0  0  0  0  0  0  0  0  0  0
  142.6208   76.9503  219.4680 H   0  0  0  0  0  0  0  0  0  0  0  0
  142.4158   79.2570  220.0246 H   0  0  0  0  0  0  0  0  0  0  0  0
  139.9943   80.4187  223.3985 H   0  0  0  0  0  0  0  0  0  0  0  0
  139.4374   78.0271  223.8489 H   0  0  0  0  0  0  0  0  0  0  0  0
  1  2  1  0
  2  3  1  0
  3  4  2  0
  4  5  1  0
  5  6  2  0
  6  7  1  0
  7  8  2  0
  8  9  1  0
  9 10  1  0
 10 11  2  0
 10 12  1  0
 12 13  1  0
 13 14  1  0
 14 15  2  0
 14 16  1  0
 16 17  2  0
 17 18  1  0
 18 19  2  0
 19 20  1  0
 20 21  2  0
 21 22  1  0
 21 23  1  0
 23 24  2  0
 24 25  1  0
 25 26  2  0
  8  3  1  0
 26 16  1  0
 25 19  1  0
  1 27  1  0
  1 28  1  0
  1 29  1  0
  4 30  1  0
  5 31  1  0
  6 32  1  0
  7 33  1  0
  9 34  1  0
 12 35  1  0
 12 36  1  0
 13 37  1  0
 17 38  1  0
 18 39  1  0
 20 40  1  0
 23 41  1  0
 24 42  1  0
M  END
>  <smiles>  (18) 
COc1ccccc1NC(=O)CNC(=O)c1ccc2cc(Cl)ccc2n1

>  <score_type>  (18) 
oracle

>  <origin>  (18) 
autodockgpu

>  <m_score__min__energy>  (18) 
-8.6099999999999994

>  <m_primary>  (18) 
energy

>  <rmsd>  (18) 
8.40332828078398

>  <m_score__min__rmsd>  (18) 
8.40332828078398

>  <meeko>  (18) 
{"free_energy": -7.35, "intermolecular_energy": -8.84, "internal_energy": -1.92, "cluster_size": 25, "cluster_id": 2, "rank_in_cluster": 21}

>  <energy>  (18) 
-7.37

>  <cluster_rmsd>  (18) 
1.48

>  <cluster>  (18) 
1

$$$$

     RDKit          3D

 42 44  0  0  0  0  0  0  0  0999 V2000
  138.8310   68.3990  224.0780 C   0  0  0  0  0  0  0  0  0  0  0  0
  138.4700   68.8760  225.3640 O   0  0  0  0  0  0  0  0  0  0  0  0
  139.3240   69.5680  226.1920 C   0  0  0  0  0  0  0  0  0  0  0  0
  139.8040   68.9440  227.3380 C   0  0  0  0  0  0  0  0  0  0  0  0
  140.6640   69.6470  228.1680 C   0  0  0  0  0  0  0  0  0  0  0  0
  141.0530   70.9450  227.8830 C   0  0  0  0  0  0  0  0  0  0  0  0
  140.5580   71.5460  226.7330 C   0  0  0  0  0  0  0  0  0  0  0  0
  139.7000   70.8720  225.8860 C   0  0  0  0  0  0  0  0  0  0  0  0
  139.1810   71.4690  224.7010 N   0  0  0  0  0  0  0  0  0  0  0  0
  139.9200   71.5980  223.5010 C   0  0  0  0  0  0  0  0  0  0  0  0
  141.1100   71.1750  223.4390 O   0  0  0  0  0  0  0  0  0  0  0  0
  139.2600   72.2370  222.3470 C   0  0  0  0  0  0  0  0  0  0  0  0
  139.4480   73.6750  222.3340 N   0  0  0  0  0  0  0  0  0  0  0  0
  140.5610   74.1680  221.5930 C   0  0  0  0  0  0  0  0  0  0  0  0
  141.2750   73.3050  221.0190 O   0  0  0  0  0  0  0  0  0  0  0  0
  140.8380   75.5980  221.5160 C   0  0  0  0  0  0  0  0  0  0  0  0
  141.7100   76.0210  220.5140 C   0  0  0  0  0  0  0  0  0  0  0  0
  141.9590   77.3750  220.4590 C   0  0  0  0  0  0  0  0  0  0  0  0
  141.3830   78.2420  221.3370 C   0  0  0  0  0  0  0  0  0  0  0  0
  141.6570   79.6070  221.2530 C   0  0  0  0  0  0  0  0  0  0  0  0
  141.0590   80.4760  222.1580 C   0  0  0  0  0  0  0  0  0  0  0  0
  141.4340   82.1830  222.0130 Cl  0  0  0  0  0  0  0  0  0  0  0  0
  140.2010   80.0080  223.1370 C   0  0  0  0  0  0  0  0  0  0  0  0
  139.9200   78.6540  223.2320 C   0  0  0  0  0  0  0  0  0  0  0  0
  140.5130   77.7960  222.3330 C   0  0  0  0  0  0  0  0  0  0  0  0
  140.2800   76.4710  222.3740 N   0  0  0  0  0  0  0  0  0  0  0  0
  139.4918   67.5259  224.1830 H   0  0  0  0  0  0  0  0  0  0  0  0
  137.9244   68.1086  223.5268 H   0  0  0  0  0  0  0  0  0  0  0  0
  139.3568   69.1926  223.5268 H   0  0  0  0  0  0  0  0  0  0  0  0
  139.5074   67.9131  227.5814 H   0  0  0  0  0  0  0  0  0  0  0  0
  141.0474   69.1606  229.0771 H   0  0  0  0  0  0  0  0  0  0  0  0
  141.7378   71.4872  228.5516 H   0  0  0  0  0  0  0  0  0  0  0  0
  140.8546   72.5775  226.4923 H   0  0  0  0  0  0  0  0  0  0  0  0
  138.1910   71.8230  224.7460 H   0  0  0  0  0  0  0  0  0  0  0  0
  139.6802   71.8166  221.4214 H   0  0  0  0  0  0  0  0  0  0  0  0
  138.1807   72.0388  222.4236 H   0  0  0  0  0  0  0  0  0  0  0  0
  138.8140   74.3350  222.8350 H   0  0  0  0  0  0  0  0  0  0  0  0
  142.1723   75.3150  219.8084 H   0  0  0  0  0  0  0  0  0  0  0  0
  142.6393   77.7649  219.6875 H   0  0  0  0  0  0  0  0  0  0  0  0
  142.3383   79.9913  220.4796 H   0  0  0  0  0  0  0  0  0  0  0  0
  139.7396   80.7137  223.8434 H   0  0  0  0  0  0  0  0  0  0  0  0
  139.2390   78.2737  224.0076 H   0  0  0  0  0  0  0  0  0  0  0  0
  1  2  1  0
  2  3  1  0
  3  4  2  0
  4  5  1  0
  5  6  2  0
  6  7  1  0
  7  8  2  0
  8  9  1  0
  9 10  1  0
 10 11  2  0
 10 12  1  0
 12 13  1  0
 13 14  1  0
 14 15  2  0
 14 16  1  0
 16 17  2  0
 17 18  1  0
 18 19  2  0
 19 20  1  0
 20 21  2  0
 21 22  1  0
 21 23  1  0
 23 24  2  0
 24 25  1  0
 25 26  2  0
  8  3  1  0
 26 16  1  0
 25 19  1  0
  1 27  1  0
  1 28  1  0
  1 29  1  0
  4 30  1  0
  5 31  1  0
  6 32  1  0
  7 33  1  0
  9 34  1  0
 12 35  1  0
 12 36  1  0
 13 37  1  0
 17 38  1  0
 18 39  1  0
 20 40  1  0
 23 41  1  0
 24 42  1  0
M  END
>  <smiles>  (19) 
COc1ccccc1NC(=O)CNC(=O)c1ccc2cc(Cl)ccc2n1

>  <score_type>  (19) 
oracle

>  <origin>  (19) 
autodockgpu

>  <m_score__min__energy>  (19) 
-8.6099999999999994

>  <m_primary>  (19) 
energy

>  <rmsd>  (19) 
8.685483574520317

>  <m_score__min__rmsd>  (19) 
8.685483574520317

>  <meeko>  (19) 
{"free_energy": -7.95, "intermolecular_energy": -9.44, "internal_energy": -1.34, "cluster_size": 25, "cluster_id": 2, "rank_in_cluster": 7}

>  <energy>  (19) 
-7.17

>  <cluster_rmsd>  (19) 
1.5

>  <cluster>  (19) 
1

$$$$

     RDKit          3D

 42 44  0  0  0  0  0  0  0  0999 V2000
  139.5770   67.7290  225.7090 C   0  0  0  0  0  0  0  0  0  0  0  0
  140.3350   68.8740  225.3520 O   0  0  0  0  0  0  0  0  0  0  0  0
  140.7010   69.8570  226.2420 C   0  0  0  0  0  0  0  0  0  0  0  0
  141.0630   69.4960  227.5340 C   0  0  0  0  0  0  0  0  0  0  0  0
  141.4300   70.4920  228.4270 C   0  0  0  0  0  0  0  0  0  0  0  0
  141.4430   71.8280  228.0610 C   0  0  0  0  0  0  0  0  0  0  0  0
  141.0760   72.1630  226.7640 C   0  0  0  0  0  0  0  0  0  0  0  0
  140.7060   71.1930  225.8530 C   0  0  0  0  0  0  0  0  0  0  0  0
  140.3270   71.5140  224.5180 N   0  0  0  0  0  0  0  0  0  0  0  0
  139.0660   71.1910  223.9630 C   0  0  0  0  0  0  0  0  0  0  0  0
  138.2030   70.5830  224.6590 O   0  0  0  0  0  0  0  0  0  0  0  0
  138.8030   71.5830  222.5650 C   0  0  0  0  0  0  0  0  0  0  0  0
  139.0610   72.9910  222.3330 N   0  0  0  0  0  0  0  0  0  0  0  0
  140.3790   73.3400  221.9160 C   0  0  0  0  0  0  0  0  0  0  0  0
  141.1940   72.3880  221.7880 O   0  0  0  0  0  0  0  0  0  0  0  0
  140.7410   74.7280  221.6550 C   0  0  0  0  0  0  0  0  0  0  0  0
  141.6990   74.9580  220.6680 C   0  0  0  0  0  0  0  0  0  0  0  0
  142.0280   76.2760  220.4370 C   0  0  0  0  0  0  0  0  0  0  0  0
  141.4460   77.2880  221.1380 C   0  0  0  0  0  0  0  0  0  0  0  0
  141.8020   78.6120  220.8790 C   0  0  0  0  0  0  0  0  0  0  0  0
  141.1970   79.6320  221.6040 C   0  0  0  0  0  0  0  0  0  0  0  0
  141.6770   81.2790  221.2440 Cl  0  0  0  0  0  0  0  0  0  0  0  0
  140.2520   79.3540  222.5750 C   0  0  0  0  0  0  0  0  0  0  0  0
  139.8880   78.0430  222.8430 C   0  0  0  0  0  0  0  0  0  0  0  0
  140.4890   77.0350  222.1220 C   0  0  0  0  0  0  0  0  0  0  0  0
  140.1790   75.7420  222.3360 N   0  0  0  0  0  0  0  0  0  0  0  0
  139.5252   67.6507  226.8050 H   0  0  0  0  0  0  0  0  0  0  0  0
  138.5602   67.8201  225.2994 H   0  0  0  0  0  0  0  0  0  0  0  0
  140.0580   66.8285  225.2994 H   0  0  0  0  0  0  0  0  0  0  0  0
  141.0586   68.4403  227.8429 H   0  0  0  0  0  0  0  0  0  0  0  0
  141.7179   70.2140  229.4516 H   0  0  0  0  0  0  0  0  0  0  0  0
  141.7372   72.6058  228.7811 H   0  0  0  0  0  0  0  0  0  0  0  0
  141.0801   73.2193  226.4570 H   0  0  0  0  0  0  0  0  0  0  0  0
  141.0420   72.0200  223.9330 H   0  0  0  0  0  0  0  0  0  0  0  0
  139.4514   70.9903  221.9030 H   0  0  0  0  0  0  0  0  0  0  0  0
  137.7393   71.3958  222.3562 H   0  0  0  0  0  0  0  0  0  0  0  0
  138.3350   73.7290  222.4580 H   0  0  0  0  0  0  0  0  0  0  0  0
  142.1650   74.1349  220.1064 H   0  0  0  0  0  0  0  0  0  0  0  0
  142.7778   76.5161  219.6688 H   0  0  0  0  0  0  0  0  0  0  0  0
  142.5528   78.8459  220.1099 H   0  0  0  0  0  0  0  0  0  0  0  0
  139.7868   80.1770  223.1374 H   0  0  0  0  0  0  0  0  0  0  0  0
  139.1370   77.8135  223.6133 H   0  0  0  0  0  0  0  0  0  0  0  0
  1  2  1  0
  2  3  1  0
  3  4  2  0
  4  5  1  0
  5  6  2  0
  6  7  1  0
  7  8  2  0
  8  9  1  0
  9 10  1  0
 10 11  2  0
 10 12  1  0
 12 13  1  0
 13 14  1  0
 14 15  2  0
 14 16  1  0
 16 17  2  0
 17 18  1  0
 18 19  2  0
 19 20  1  0
 20 21  2  0
 21 22  1  0
 21 23  1  0
 23 24  2  0
 24 25  1  0
 25 26  2  0
  8  3  1  0
 26 16  1  0
 25 19  1  0
  1 27  1  0
  1 28  1  0
  1 29  1  0
  4 30  1  0
  5 31  1  0
  6 32  1  0
  7 33  1  0
  9 34  1  0
 12 35  1  0
 12 36  1  0
 13 37  1  0
 17 38  1  0
 18 39  1  0
 20 40  1  0
 23 41  1  0
 24 42  1  0
M  END
>  <smiles>  (20) 
COc1ccccc1NC(=O)CNC(=O)c1ccc2cc(Cl)ccc2n1

>  <score_type>  (20) 
oracle

>  <origin>  (20) 
autodockgpu

>  <m_score__min__energy>  (20) 
-8.6099999999999994

>  <m_primary>  (20) 
energy

>  <rmsd>  (20) 
8.315394163361923

>  <m_score__min__rmsd>  (20) 
8.315394163361923

>  <meeko>  (20) 
{"free_energy": -7.53, "intermolecular_energy": -9.02, "internal_energy": -1.92, "cluster_size": 25, "cluster_id": 2, "rank_in_cluster": 16}

>  <energy>  (20) 
-7.13

>  <cluster_rmsd>  (20) 
1.24

>  <cluster>  (20) 
1

$$$$

     RDKit          3D

 42 44  0  0  0  0  0  0  0  0999 V2000
  142.1650   79.2700  218.7080 C   0  0  0  0  0  0  0  0  0  0  0  0
  141.2150   79.1890  219.7590 O   0  0  0  0  0  0  0  0  0  0  0  0
  141.4970   79.4940  221.0710 C   0  0  0  0  0  0  0  0  0  0  0  0
  141.7690   80.8130  221.4130 C   0  0  0  0  0  0  0  0  0  0  0  0
  142.0530   81.1130  222.7370 C   0  0  0  0  0  0  0  0  0  0  0  0
  142.0710   80.1350  223.7180 C   0  0  0  0  0  0  0  0  0  0  0  0
  141.7960   78.8240  223.3490 C   0  0  0  0  0  0  0  0  0  0  0  0
  141.5090   78.4940  222.0390 C   0  0  0  0  0  0  0  0  0  0  0  0
  141.2240   77.1570  221.6400 N   0  0  0  0  0  0  0  0  0  0  0  0
  139.9260   76.5950  221.6550 C   0  0  0  0  0  0  0  0  0  0  0  0
  138.9390   77.2860  222.0400 O   0  0  0  0  0  0  0  0  0  0  0  0
  139.7720   75.1950  221.2140 C   0  0  0  0  0  0  0  0  0  0  0  0
  139.6860   74.2750  222.3310 N   0  0  0  0  0  0  0  0  0  0  0  0
  140.2230   72.9700  222.1280 C   0  0  0  0  0  0  0  0  0  0  0  0
  140.7220   72.7430  220.9940 O   0  0  0  0  0  0  0  0  0  0  0  0
  140.1880   71.9690  223.1880 C   0  0  0  0  0  0  0  0  0  0  0  0
  139.6620   70.7200  222.8620 C   0  0  0  0  0  0  0  0  0  0  0  0
  139.6370   69.7890  223.8770 C   0  0  0  0  0  0  0  0  0  0  0  0
  140.1000   70.0820  225.1240 C   0  0  0  0  0  0  0  0  0  0  0  0
  140.0590   69.1150  226.1290 C   0  0  0  0  0  0  0  0  0  0  0  0
  140.5370   69.4330  227.3950 C   0  0  0  0  0  0  0  0  0  0  0  0
  140.4650   68.1860  228.6260 Cl  0  0  0  0  0  0  0  0  0  0  0  0
  141.0490   70.6880  227.6710 C   0  0  0  0  0  0  0  0  0  0  0  0
  141.0950   71.6580  226.6810 C   0  0  0  0  0  0  0  0  0  0  0  0
  140.6220   71.3400  225.4280 C   0  0  0  0  0  0  0  0  0  0  0  0
  140.6400   72.2390  224.4260 N   0  0  0  0  0  0  0  0  0  0  0  0
  143.1758   79.3562  219.1332 H   0  0  0  0  0  0  0  0  0  0  0  0
  142.1041   78.3634  218.0880 H   0  0  0  0  0  0  0  0  0  0  0  0
  141.9515   80.1532  218.0880 H   0  0  0  0  0  0  0  0  0  0  0  0
  141.7593   81.6039  220.6485 H   0  0  0  0  0  0  0  0  0  0  0  0
  142.2696   82.1549  223.0155 H   0  0  0  0  0  0  0  0  0  0  0  0
  142.2975   80.3902  224.7637 H   0  0  0  0  0  0  0  0  0  0  0  0
  141.8071   78.0342  224.1145 H   0  0  0  0  0  0  0  0  0  0  0  0
  142.0420   76.5770  221.3190 H   0  0  0  0  0  0  0  0  0  0  0  0
  138.8533   75.1114  220.6148 H   0  0  0  0  0  0  0  0  0  0  0  0
  140.6609   74.9273  220.6239 H   0  0  0  0  0  0  0  0  0  0  0  0
  139.2570   74.5310  223.2470 H   0  0  0  0  0  0  0  0  0  0  0  0
  139.2886   70.4911  221.8530 H   0  0  0  0  0  0  0  0  0  0  0  0
  139.2337   68.7856  223.6757 H   0  0  0  0  0  0  0  0  0  0  0  0
  139.6535   68.1136  225.9221 H   0  0  0  0  0  0  0  0  0  0  0  0
  141.4213   70.9176  228.6803 H   0  0  0  0  0  0  0  0  0  0  0  0
  141.5002   72.6586  226.8922 H   0  0  0  0  0  0  0  0  0  0  0  0
  1  2  1  0
  2  3  1  0
  3  4  2  0
  4  5  1  0
  5  6  2  0
  6  7  1  0
  7  8  2  0
  8  9  1  0
  9 10  1  0
 10 11  2  0
 10 12  1  0
 12 13  1  0
 13 14  1  0
 14 15  2  0
 14 16  1  0
 16 17  2  0
 17 18  1  0
 18 19  2  0
 19 20  1  0
 20 21  2  0
 21 22  1  0
 21 23  1  0
 23 24  2  0
 24 25  1  0
 25 26  2  0
  8  3  1  0
 26 16  1  0
 25 19  1  0
  1 27  1  0
  1 28  1  0
  1 29  1  0
  4 30  1  0
  5 31  1  0
  6 32  1  0
  7 33  1  0
  9 34  1  0
 12 35  1  0
 12 36  1  0
 13 37  1  0
 17 38  1  0
 18 39  1  0
 20 40  1  0
 23 41  1  0
 24 42  1  0
M  END
>  <smiles>  (21) 
COc1ccccc1NC(=O)CNC(=O)c1ccc2cc(Cl)ccc2n1

>  <score_type>  (21) 
oracle

>  <origin>  (21) 
autodockgpu

>  <m_score__min__energy>  (21) 
-8.6099999999999994

>  <m_primary>  (21) 
energy

>  <rmsd>  (21) 
3.4496461438415866

>  <m_score__min__rmsd>  (21) 
3.4496461438415866

>  <meeko>  (21) 
{"free_energy": -8.47, "intermolecular_energy": -9.97, "internal_energy": -1.15, "cluster_size": 20, "cluster_id": 1, "rank_in_cluster": 5}

>  <energy>  (21) 
-8.05

>  <cluster_rmsd>  (21) 
0.0

>  <cluster>  (21) 
2

$$$$

     RDKit          3D

 42 44  0  0  0  0  0  0  0  0999 V2000
  141.3950   72.2950  227.5670 C   0  0  0  0  0  0  0  0  0  0  0  0
  140.3320   71.5440  227.0020 O   0  0  0  0  0  0  0  0  0  0  0  0
  140.3160   70.1700  226.9370 C   0  0  0  0  0  0  0  0  0  0  0  0
  141.0700   69.4430  227.8510 C   0  0  0  0  0  0  0  0  0  0  0  0
  141.0500   68.0580  227.7800 C   0  0  0  0  0  0  0  0  0  0  0  0
  140.3010   67.3890  226.8260 C   0  0  0  0  0  0  0  0  0  0  0  0
  139.5570   68.1390  225.9230 C   0  0  0  0  0  0  0  0  0  0  0  0
  139.5560   69.5190  225.9700 C   0  0  0  0  0  0  0  0  0  0  0  0
  138.8010   70.3070  225.0550 N   0  0  0  0  0  0  0  0  0  0  0  0
  138.2290   69.7950  223.8660 C   0  0  0  0  0  0  0  0  0  0  0  0
  138.3770   68.5760  223.5640 O   0  0  0  0  0  0  0  0  0  0  0  0
  137.4690   70.7240  223.0080 C   0  0  0  0  0  0  0  0  0  0  0  0
  136.7260   71.7010  223.7800 N   0  0  0  0  0  0  0  0  0  0  0  0
  135.5060   71.2560  224.3700 C   0  0  0  0  0  0  0  0  0  0  0  0
  135.1930   70.0550  224.1630 O   0  0  0  0  0  0  0  0  0  0  0  0
  134.6850   72.1600  225.1670 C   0  0  0  0  0  0  0  0  0  0  0  0
  133.7050   71.5810  225.9720 C   0  0  0  0  0  0  0  0  0  0  0  0
  132.9390   72.4520  226.7160 C   0  0  0  0  0  0  0  0  0  0  0  0
  133.1350   73.7980  226.6600 C   0  0  0  0  0  0  0  0  0  0  0  0
  132.3410   74.6520  227.4280 C   0  0  0  0  0  0  0  0  0  0  0  0
  132.5560   76.0230  227.3580 C   0  0  0  0  0  0  0  0  0  0  0  0
  131.5340   77.0560  228.3400 Cl  0  0  0  0  0  0  0  0  0  0  0  0
  133.5420   76.5510  226.5430 C   0  0  0  0  0  0  0  0  0  0  0  0
  134.3370   75.7140  225.7760 C   0  0  0  0  0  0  0  0  0  0  0  0
  134.1220   74.3560  225.8470 C   0  0  0  0  0  0  0  0  0  0  0  0
  134.8620   73.4930  225.1260 N   0  0  0  0  0  0  0  0  0  0  0  0
  141.3324   72.2508  228.6643 H   0  0  0  0  0  0  0  0  0  0  0  0
  142.3566   71.8747  227.2374 H   0  0  0  0  0  0  0  0  0  0  0  0
  141.3201   73.3418  227.2374 H   0  0  0  0  0  0  0  0  0  0  0  0
  141.6711   69.9564  228.6160 H   0  0  0  0  0  0  0  0  0  0  0  0
  141.6442   67.4759  228.4998 H   0  0  0  0  0  0  0  0  0  0  0  0
  140.2952   66.2898  226.7841 H   0  0  0  0  0  0  0  0  0  0  0  0
  138.9583   67.6241  225.1572 H   0  0  0  0  0  0  0  0  0  0  0  0
  138.6740   71.3230  225.3010 H   0  0  0  0  0  0  0  0  0  0  0  0
  138.1730   71.2541  222.3497 H   0  0  0  0  0  0  0  0  0  0  0  0
  136.7458   70.1320  222.4279 H   0  0  0  0  0  0  0  0  0  0  0  0
  137.0470   72.6840  223.9110 H   0  0  0  0  0  0  0  0  0  0  0  0
  133.5521   70.4924  226.0110 H   0  0  0  0  0  0  0  0  0  0  0  0
  132.1511   72.0505  227.3702 H   0  0  0  0  0  0  0  0  0  0  0  0
  131.5548   74.2444  228.0805 H   0  0  0  0  0  0  0  0  0  0  0  0
  133.6954   77.6395  226.5038 H   0  0  0  0  0  0  0  0  0  0  0  0
  135.1223   76.1256  225.1250 H   0  0  0  0  0  0  0  0  0  0  0  0
  1  2  1  0
  2  3  1  0
  3  4  2  0
  4  5  1  0
  5  6  2  0
  6  7  1  0
  7  8  2  0
  8  9  1  0
  9 10  1  0
 10 11  2  0
 10 12  1  0
 12 13  1  0
 13 14  1  0
 14 15  2  0
 14 16  1  0
 16 17  2  0
 17 18  1  0
 18 19  2  0
 19 20  1  0
 20 21  2  0
 21 22  1  0
 21 23  1  0
 23 24  2  0
 24 25  1  0
 25 26  2  0
  8  3  1  0
 26 16  1  0
 25 19  1  0
  1 27  1  0
  1 28  1  0
  1 29  1  0
  4 30  1  0
  5 31  1  0
  6 32  1  0
  7 33  1  0
  9 34  1  0
 12 35  1  0
 12 36  1  0
 13 37  1  0
 17 38  1  0
 18 39  1  0
 20 40  1  0
 23 41  1  0
 24 42  1  0
M  END
>  <smiles>  (22) 
COc1ccccc1NC(=O)CNC(=O)c1ccc2cc(Cl)ccc2n1

>  <score_type>  (22) 
oracle

>  <origin>  (22) 
autodockgpu

>  <m_score__min__energy>  (22) 
-8.6099999999999994

>  <m_primary>  (22) 
energy

>  <rmsd>  (22) 
8.47468954716423

>  <m_score__min__rmsd>  (22) 
8.47468954716423

>  <meeko>  (22) 
{"free_energy": -7.52, "intermolecular_energy": -9.01, "internal_energy": -1.59, "cluster_size": 5, "cluster_id": 3, "rank_in_cluster": 3}

>  <energy>  (22) 
-8.03

>  <cluster_rmsd>  (22) 
0.3

>  <cluster>  (22) 
2

$$$$

     RDKit          3D

 42 44  0  0  0  0  0  0  0  0999 V2000
  143.0360   76.5260  219.7010 C   0  0  0  0  0  0  0  0  0  0  0  0
  142.1220   77.6060  219.8020 O   0  0  0  0  0  0  0  0  0  0  0  0
  141.6170   78.0720  220.9940 C   0  0  0  0  0  0  0  0  0  0  0  0
  142.0000   79.3310  221.4410 C   0  0  0  0  0  0  0  0  0  0  0  0
  141.4880   79.7950  222.6440 C   0  0  0  0  0  0  0  0  0  0  0  0
  140.6100   79.0380  223.4020 C   0  0  0  0  0  0  0  0  0  0  0  0
  140.2440   77.7830  222.9330 C   0  0  0  0  0  0  0  0  0  0  0  0
  140.7370   77.2940  221.7390 C   0  0  0  0  0  0  0  0  0  0  0  0
  140.3740   76.0100  221.2390 N   0  0  0  0  0  0  0  0  0  0  0  0
  139.0390   75.5460  221.1660 C   0  0  0  0  0  0  0  0  0  0  0  0
  138.0890   76.2820  221.5590 O   0  0  0  0  0  0  0  0  0  0  0  0
  138.8050   74.1940  220.6260 C   0  0  0  0  0  0  0  0  0  0  0  0
  138.7420   73.1890  221.6700 N   0  0  0  0  0  0  0  0  0  0  0  0
  139.9630   72.8870  222.3410 C   0  0  0  0  0  0  0  0  0  0  0  0
  140.9810   73.5240  221.9610 O   0  0  0  0  0  0  0  0  0  0  0  0
  140.0090   71.8930  223.4070 C   0  0  0  0  0  0  0  0  0  0  0  0
  139.5240   70.6200  223.1050 C   0  0  0  0  0  0  0  0  0  0  0  0
  139.5750   69.6960  224.1250 C   0  0  0  0  0  0  0  0  0  0  0  0
  140.0710   70.0160  225.3530 C   0  0  0  0  0  0  0  0  0  0  0  0
  140.1080   69.0540  226.3640 C   0  0  0  0  0  0  0  0  0  0  0  0
  140.6170   69.3990  227.6100 C   0  0  0  0  0  0  0  0  0  0  0  0
  140.6420   68.1580  228.8490 Cl  0  0  0  0  0  0  0  0  0  0  0  0
  141.0860   70.6760  227.8610 C   0  0  0  0  0  0  0  0  0  0  0  0
  141.0550   71.6410  226.8660 C   0  0  0  0  0  0  0  0  0  0  0  0
  140.5500   71.2960  225.6320 C   0  0  0  0  0  0  0  0  0  0  0  0
  140.4940   72.1880  224.6260 N   0  0  0  0  0  0  0  0  0  0  0  0
  143.3200   76.1905  220.7094 H   0  0  0  0  0  0  0  0  0  0  0  0
  142.5628   75.6948  219.1577 H   0  0  0  0  0  0  0  0  0  0  0  0
  143.9340   76.8552  219.1577 H   0  0  0  0  0  0  0  0  0  0  0  0
  142.6954   79.9475  220.8525 H   0  0  0  0  0  0  0  0  0  0  0  0
  141.7871   80.7900  223.0053 H   0  0  0  0  0  0  0  0  0  0  0  0
  140.2120   79.4217  224.3530 H   0  0  0  0  0  0  0  0  0  0  0  0
  139.5491   77.1674  223.5230 H   0  0  0  0  0  0  0  0  0  0  0  0
  141.1610   75.3930  220.9100 H   0  0  0  0  0  0  0  0  0  0  0  0
  137.8527   74.1926  220.0754 H   0  0  0  0  0  0  0  0  0  0  0  0
  139.6495   73.9433  219.9672 H   0  0  0  0  0  0  0  0  0  0  0  0
  137.8600   72.6990  221.9340 H   0  0  0  0  0  0  0  0  0  0  0  0
  139.1246   70.3693  222.1112 H   0  0  0  0  0  0  0  0  0  0  0  0
  139.2066   68.6755  223.9440 H   0  0  0  0  0  0  0  0  0  0  0  0
  139.7386   68.0350  226.1764 H   0  0  0  0  0  0  0  0  0  0  0  0
  141.4854   70.9270  228.8547 H   0  0  0  0  0  0  0  0  0  0  0  0
  141.4253   72.6589  227.0578 H   0  0  0  0  0  0  0  0  0  0  0  0
  1  2  1  0
  2  3  1  0
  3  4  2  0
  4  5  1  0
  5  6  2  0
  6  7  1  0
  7  8  2  0
  8  9  1  0
  9 10  1  0
 10 11  2  0
 10 12  1  0
 12 13  1  0
 13 14  1  0
 14 15  2  0
 14 16  1  0
 16 17  2  0
 17 18  1  0
 18 19  2  0
 19 20  1  0
 20 21  2  0
 21 22  1  0
 21 23  1  0
 23 24  2  0
 24 25  1  0
 25 26  2  0
  8  3  1  0
 26 16  1  0
 25 19  1  0
  1 27  1  0
  1 28  1  0
  1 29  1  0
  4 30  1  0
  5 31  1  0
  6 32  1  0
  7 33  1  0
  9 34  1  0
 12 35  1  0
 12 36  1  0
 13 37  1  0
 17 38  1  0
 18 39  1  0
 20 40  1  0
 23 41  1  0
 24 42  1  0
M  END
>  <smiles>  (23) 
COc1ccccc1NC(=O)CNC(=O)c1ccc2cc(Cl)ccc2n1

>  <score_type>  (23) 
oracle

>  <origin>  (23) 
autodockgpu

>  <m_score__min__energy>  (23) 
-8.6099999999999994

>  <m_primary>  (23) 
energy

>  <rmsd>  (23) 
2.8687575839181956

>  <m_score__min__rmsd>  (23) 
2.8687575839181956

>  <meeko>  (23) 
{"free_energy": -7.13, "intermolecular_energy": -8.62, "internal_energy": -1.87, "cluster_size": 20, "cluster_id": 1, "rank_in_cluster": 20}

>  <energy>  (23) 
-8.02

>  <cluster_rmsd>  (23) 
0.21

>  <cluster>  (23) 
2

$$$$

     RDKit          3D

 42 44  0  0  0  0  0  0  0  0999 V2000
  138.8350   67.7450  223.4330 C   0  0  0  0  0  0  0  0  0  0  0  0
  138.5880   67.8290  224.8280 O   0  0  0  0  0  0  0  0  0  0  0  0
  139.4010   68.5020  225.7100 C   0  0  0  0  0  0  0  0  0  0  0  0
  139.8710   67.8360  226.8360 C   0  0  0  0  0  0  0  0  0  0  0  0
  140.6900   68.5210  227.7230 C   0  0  0  0  0  0  0  0  0  0  0  0
  141.0470   69.8420  227.5120 C   0  0  0  0  0  0  0  0  0  0  0  0
  140.5630   70.4850  226.3790 C   0  0  0  0  0  0  0  0  0  0  0  0
  139.7460   69.8310  225.4780 C   0  0  0  0  0  0  0  0  0  0  0  0
  139.2390   70.4700  224.3120 N   0  0  0  0  0  0  0  0  0  0  0  0
  139.9330   71.4860  223.6110 C   0  0  0  0  0  0  0  0  0  0  0  0
  141.0660   71.8750  224.0150 O   0  0  0  0  0  0  0  0  0  0  0  0
  139.2910   72.0640  222.4150 C   0  0  0  0  0  0  0  0  0  0  0  0
  139.4720   73.5010  222.3370 N   0  0  0  0  0  0  0  0  0  0  0  0
  140.6250   73.9630  221.6360 C   0  0  0  0  0  0  0  0  0  0  0  0
  141.3760   73.0770  221.1530 O   0  0  0  0  0  0  0  0  0  0  0  0
  140.8980   75.3900  221.4990 C   0  0  0  0  0  0  0  0  0  0  0  0
  141.7530   75.7730  220.4680 C   0  0  0  0  0  0  0  0  0  0  0  0
  141.9990   77.1240  220.3550 C   0  0  0  0  0  0  0  0  0  0  0  0
  141.4350   78.0240  221.2080 C   0  0  0  0  0  0  0  0  0  0  0  0
  141.7060   79.3860  221.0660 C   0  0  0  0  0  0  0  0  0  0  0  0
  141.1210   80.2890  221.9450 C   0  0  0  0  0  0  0  0  0  0  0  0
  141.4910   81.9890  221.7280 Cl  0  0  0  0  0  0  0  0  0  0  0  0
  140.2780   79.8590  222.9550 C   0  0  0  0  0  0  0  0  0  0  0  0
  140.0010   78.5100  223.1070 C   0  0  0  0  0  0  0  0  0  0  0  0
  140.5820   77.6170  222.2340 C   0  0  0  0  0  0  0  0  0  0  0  0
  140.3510   76.2940  222.3310 N   0  0  0  0  0  0  0  0  0  0  0  0
  139.8640   67.3951  223.2632 H   0  0  0  0  0  0  0  0  0  0  0  0
  138.1271   67.0371  222.9773 H   0  0  0  0  0  0  0  0  0  0  0  0
  138.7054   68.7377  222.9773 H   0  0  0  0  0  0  0  0  0  0  0  0
  139.5991   66.7862  227.0206 H   0  0  0  0  0  0  0  0  0  0  0  0
  141.0651   68.0009  228.6167 H   0  0  0  0  0  0  0  0  0  0  0  0
  141.6982   70.3700  228.2242 H   0  0  0  0  0  0  0  0  0  0  0  0
  140.8359   71.5349  226.1964 H   0  0  0  0  0  0  0  0  0  0  0  0
  138.2960   70.1510  223.9710 H   0  0  0  0  0  0  0  0  0  0  0  0
  139.7308   71.6023  221.5187 H   0  0  0  0  0  0  0  0  0  0  0  0
  138.2116   71.8624  222.4802 H   0  0  0  0  0  0  0  0  0  0  0  0
  138.8060   74.1810  222.7620 H   0  0  0  0  0  0  0  0  0  0  0  0
  142.2053   75.0397  219.7841 H   0  0  0  0  0  0  0  0  0  0  0  0
  142.6660   77.4840  219.5578 H   0  0  0  0  0  0  0  0  0  0  0  0
  142.3748   79.7401  220.2676 H   0  0  0  0  0  0  0  0  0  0  0  0
  139.8260   80.5914  223.6400 H   0  0  0  0  0  0  0  0  0  0  0  0
  139.3321   78.1600  223.9070 H   0  0  0  0  0  0  0  0  0  0  0  0
  1  2  1  0
  2  3  1  0
  3  4  2  0
  4  5  1  0
  5  6  2  0
  6  7  1  0
  7  8  2  0
  8  9  1  0
  9 10  1  0
 10 11  2  0
 10 12  1  0
 12 13  1  0
 13 14  1  0
 14 15  2  0
 14 16  1  0
 16 17  2  0
 17 18  1  0
 18 19  2  0
 19 20  1  0
 20 21  2  0
 21 22  1  0
 21 23  1  0
 23 24  2  0
 24 25  1  0
 25 26  2  0
  8  3  1  0
 26 16  1  0
 25 19  1  0
  1 27  1  0
  1 28  1  0
  1 29  1  0
  4 30  1  0
  5 31  1  0
  6 32  1  0
  7 33  1  0
  9 34  1  0
 12 35  1  0
 12 36  1  0
 13 37  1  0
 17 38  1  0
 18 39  1  0
 20 40  1  0
 23 41  1  0
 24 42  1  0
M  END
>  <smiles>  (24) 
COc1ccccc1NC(=O)CNC(=O)c1ccc2cc(Cl)ccc2n1

>  <score_type>  (24) 
oracle

>  <origin>  (24) 
autodockgpu

>  <m_score__min__energy>  (24) 
-8.6099999999999994

>  <m_primary>  (24) 
energy

>  <rmsd>  (24) 
8.73892929351043

>  <m_score__min__rmsd>  (24) 
8.73892929351043

>  <meeko>  (24) 
{"free_energy": -8.02, "intermolecular_energy": -9.52, "internal_energy": -1.37, "cluster_size": 25, "cluster_id": 2, "rank_in_cluster": 3}

>  <energy>  (24) 
-8.02

>  <cluster_rmsd>  (24) 
0.18

>  <cluster>  (24) 
2

$$$$

     RDKit          3D

 42 44  0  0  0  0  0  0  0  0999 V2000
  141.8240   79.6720  218.7980 C   0  0  0  0  0  0  0  0  0  0  0  0
  141.8980   78.7590  219.8810 O   0  0  0  0  0  0  0  0  0  0  0  0
  141.8070   79.1310  221.2030 C   0  0  0  0  0  0  0  0  0  0  0  0
  142.1240   80.4370  221.5590 C   0  0  0  0  0  0  0  0  0  0  0  0
  142.0310   80.8050  222.8930 C   0  0  0  0  0  0  0  0  0  0  0  0
  141.6320   79.9080  223.8700 C   0  0  0  0  0  0  0  0  0  0  0  0
  141.3220   78.6080  223.4880 C   0  0  0  0  0  0  0  0  0  0  0  0
  141.4050   78.2120  222.1680 C   0  0  0  0  0  0  0  0  0  0  0  0
  141.0910   76.8860  221.7540 N   0  0  0  0  0  0  0  0  0  0  0  0
  139.7740   76.4350  221.4990 C   0  0  0  0  0  0  0  0  0  0  0  0
  138.7950   77.2240  221.6360 O   0  0  0  0  0  0  0  0  0  0  0  0
  139.5910   75.0340  221.0750 C   0  0  0  0  0  0  0  0  0  0  0  0
  139.4750   74.1310  222.2040 N   0  0  0  0  0  0  0  0  0  0  0  0
  140.2170   72.9160  222.1300 C   0  0  0  0  0  0  0  0  0  0  0  0
  140.9040   72.7440  221.0890 O   0  0  0  0  0  0  0  0  0  0  0  0
  140.1690   71.9400  223.2130 C   0  0  0  0  0  0  0  0  0  0  0  0
  139.6070   70.6980  222.9210 C   0  0  0  0  0  0  0  0  0  0  0  0
  139.5710   69.7900  223.9570 C   0  0  0  0  0  0  0  0  0  0  0  0
  140.0570   70.0990  225.1910 C   0  0  0  0  0  0  0  0  0  0  0  0
  140.0050   69.1550  226.2180 C   0  0  0  0  0  0  0  0  0  0  0  0
  140.5070   69.4880  227.4710 C   0  0  0  0  0  0  0  0  0  0  0  0
  140.4180   68.2710  228.7300 Cl  0  0  0  0  0  0  0  0  0  0  0  0
  141.0550   70.7350  227.7120 C   0  0  0  0  0  0  0  0  0  0  0  0
  141.1130   71.6810  226.7010 C   0  0  0  0  0  0  0  0  0  0  0  0
  140.6150   71.3490  225.4610 C   0  0  0  0  0  0  0  0  0  0  0  0
  140.6440   72.2240  224.4380 N   0  0  0  0  0  0  0  0  0  0  0  0
  141.7409   80.6973  219.1878 H   0  0  0  0  0  0  0  0  0  0  0  0
  142.7321   79.5859  218.1832 H   0  0  0  0  0  0  0  0  0  0  0  0
  140.9416   79.4408  218.1832 H   0  0  0  0  0  0  0  0  0  0  0  0
  142.4423   81.1642  220.7976 H   0  0  0  0  0  0  0  0  0  0  0  0
  142.2807   81.8364  223.1827 H   0  0  0  0  0  0  0  0  0  0  0  0
  141.5621   80.2171  224.9234 H   0  0  0  0  0  0  0  0  0  0  0  0
  141.0049   77.8818  224.2510 H   0  0  0  0  0  0  0  0  0  0  0  0
  141.9020   76.2240  221.6380 H   0  0  0  0  0  0  0  0  0  0  0  0
  138.6753   74.9638  220.4696 H   0  0  0  0  0  0  0  0  0  0  0  0
  140.4777   74.7379  220.4953 H   0  0  0  0  0  0  0  0  0  0  0  0
  138.8840   74.3380  223.0380 H   0  0  0  0  0  0  0  0  0  0  0  0
  139.2151   70.4569  221.9219 H   0  0  0  0  0  0  0  0  0  0  0  0
  139.1399   68.7930  223.7832 H   0  0  0  0  0  0  0  0  0  0  0  0
  139.5722   68.1599  226.0381 H   0  0  0  0  0  0  0  0  0  0  0  0
  141.4466   70.9769  228.7111 H   0  0  0  0  0  0  0  0  0  0  0  0
  141.5472   72.6748  226.8850 H   0  0  0  0  0  0  0  0  0  0  0  0
  1  2  1  0
  2  3  1  0
  3  4  2  0
  4  5  1  0
  5  6  2  0
  6  7  1  0
  7  8  2  0
  8  9  1  0
  9 10  1  0
 10 11  2  0
 10 12  1  0
 12 13  1  0
 13 14  1  0
 14 15  2  0
 14 16  1  0
 16 17  2  0
 17 18  1  0
 18 19  2  0
 19 20  1  0
 20 21  2  0
 21 22  1  0
 21 23  1  0
 23 24  2  0
 24 25  1  0
 25 26  2  0
  8  3  1  0
 26 16  1  0
 25 19  1  0
  1 27  1  0
  1 28  1  0
  1 29  1  0
  4 30  1  0
  5 31  1  0
  6 32  1  0
  7 33  1  0
  9 34  1  0
 12 35  1  0
 12 36  1  0
 13 37  1  0
 17 38  1  0
 18 39  1  0
 20 40  1  0
 23 41  1  0
 24 42  1  0
M  END
>  <smiles>  (25) 
COc1ccccc1NC(=O)CNC(=O)c1ccc2cc(Cl)ccc2n1

>  <score_type>  (25) 
oracle

>  <origin>  (25) 
autodockgpu

>  <m_score__min__energy>  (25) 
-8.6099999999999994

>  <m_primary>  (25) 
energy

>  <rmsd>  (25) 
3.369434742538343

>  <m_score__min__rmsd>  (25) 
3.369434742538343

>  <meeko>  (25) 
{"free_energy": -8.56, "intermolecular_energy": -10.05, "internal_energy": -1.14, "cluster_size": 20, "cluster_id": 1, "rank_in_cluster": 3}

>  <energy>  (25) 
-8.01

>  <cluster_rmsd>  (25) 
0.23

>  <cluster>  (25) 
2

$$$$

     RDKit          3D

 42 44  0  0  0  0  0  0  0  0999 V2000
  138.8380   67.6530  223.4210 C   0  0  0  0  0  0  0  0  0  0  0  0
  138.8800   67.4100  224.8180 O   0  0  0  0  0  0  0  0  0  0  0  0
  139.5500   68.2090  225.7150 C   0  0  0  0  0  0  0  0  0  0  0  0
  140.5260   67.6410  226.5240 C   0  0  0  0  0  0  0  0  0  0  0  0
  141.1980   68.4530  227.4280 C   0  0  0  0  0  0  0  0  0  0  0  0
  140.9180   69.8050  227.5380 C   0  0  0  0  0  0  0  0  0  0  0  0
  139.9370   70.3470  226.7180 C   0  0  0  0  0  0  0  0  0  0  0  0
  139.2520   69.5650  225.8090 C   0  0  0  0  0  0  0  0  0  0  0  0
  138.2430   70.1010  224.9590 N   0  0  0  0  0  0  0  0  0  0  0  0
  138.5040   71.0230  223.9170 C   0  0  0  0  0  0  0  0  0  0  0  0
  139.6850   71.4180  223.7010 O   0  0  0  0  0  0  0  0  0  0  0  0
  137.3630   71.4970  223.1100 C   0  0  0  0  0  0  0  0  0  0  0  0
  136.5170   72.4180  223.8450 N   0  0  0  0  0  0  0  0  0  0  0  0
  135.4560   71.8430  224.6050 C   0  0  0  0  0  0  0  0  0  0  0  0
  135.3570   70.5890  224.5640 O   0  0  0  0  0  0  0  0  0  0  0  0
  134.5480   72.6810  225.3800 C   0  0  0  0  0  0  0  0  0  0  0  0
  133.5230   72.0340  226.0680 C   0  0  0  0  0  0  0  0  0  0  0  0
  132.6760   72.8440  226.7940 C   0  0  0  0  0  0  0  0  0  0  0  0
  132.8390   74.1950  226.8300 C   0  0  0  0  0  0  0  0  0  0  0  0
  131.9630   74.9850  227.5750 C   0  0  0  0  0  0  0  0  0  0  0  0
  132.1460   76.3630  227.6000 C   0  0  0  0  0  0  0  0  0  0  0  0
  131.0200   77.3140  228.5500 Cl  0  0  0  0  0  0  0  0  0  0  0  0
  133.1800   76.9580  226.9000 C   0  0  0  0  0  0  0  0  0  0  0  0
  134.0570   76.1860  226.1550 C   0  0  0  0  0  0  0  0  0  0  0  0
  133.8740   74.8210  226.1330 C   0  0  0  0  0  0  0  0  0  0  0  0
  134.6920   74.0170  225.4290 N   0  0  0  0  0  0  0  0  0  0  0  0
  138.6532   68.7222  223.2402 H   0  0  0  0  0  0  0  0  0  0  0  0
  139.7991   67.3656  222.9698 H   0  0  0  0  0  0  0  0  0  0  0  0
  138.0291   67.0596  222.9698 H   0  0  0  0  0  0  0  0  0  0  0  0
  140.7619   66.5691  226.4500 H   0  0  0  0  0  0  0  0  0  0  0  0
  141.9721   68.0115  228.0729 H   0  0  0  0  0  0  0  0  0  0  0  0
  141.4603   70.4350  228.2584 H   0  0  0  0  0  0  0  0  0  0  0  0
  139.7013   71.4188  226.7939 H   0  0  0  0  0  0  0  0  0  0  0  0
  137.2570   69.7750  225.1340 H   0  0  0  0  0  0  0  0  0  0  0  0
  137.7495   72.0078  222.2157 H   0  0  0  0  0  0  0  0  0  0  0  0
  136.7541   70.6218  222.8394 H   0  0  0  0  0  0  0  0  0  0  0  0
  136.6580   73.4510  223.8340 H   0  0  0  0  0  0  0  0  0  0  0  0
  133.3973   70.9417  226.0337 H   0  0  0  0  0  0  0  0  0  0  0  0
  131.8488   72.3878  227.3576 H   0  0  0  0  0  0  0  0  0  0  0  0
  131.1372   74.5230  228.1360 H   0  0  0  0  0  0  0  0  0  0  0  0
  133.3068   78.0501  226.9349 H   0  0  0  0  0  0  0  0  0  0  0  0
  134.8803   76.6525  225.5941 H   0  0  0  0  0  0  0  0  0  0  0  0
  1  2  1  0
  2  3  1  0
  3  4  2  0
  4  5  1  0
  5  6  2  0
  6  7  1  0
  7  8  2  0
  8  9  1  0
  9 10  1  0
 10 11  2  0
 10 12  1  0
 12 13  1  0
 13 14  1  0
 14 15  2  0
 14 16  1  0
 16 17  2  0
 17 18  1  0
 18 19  2  0
 19 20  1  0
 20 21  2  0
 21 22  1  0
 21 23  1  0
 23 24  2  0
 24 25  1  0
 25 26  2  0
  8  3  1  0
 26 16  1  0
 25 19  1  0
  1 27  1  0
  1 28  1  0
  1 29  1  0
  4 30  1  0
  5 31  1  0
  6 32  1  0
  7 33  1  0
  9 34  1  0
 12 35  1  0
 12 36  1  0
 13 37  1  0
 17 38  1  0
 18 39  1  0
 20 40  1  0
 23 41  1  0
 24 42  1  0
M  END
>  <smiles>  (26) 
COc1ccccc1NC(=O)CNC(=O)c1ccc2cc(Cl)ccc2n1

>  <score_type>  (26) 
oracle

>  <origin>  (26) 
autodockgpu

>  <m_score__min__energy>  (26) 
-8.6099999999999994

>  <m_primary>  (26) 
energy

>  <rmsd>  (26) 
8.368956675254072

>  <m_score__min__rmsd>  (26) 
8.368956675254072

>  <meeko>  (26) 
{"free_energy": -7.39, "intermolecular_energy": -8.88, "internal_energy": -2.09, "cluster_size": 5, "cluster_id": 3, "rank_in_cluster": 5}

>  <energy>  (26) 
-7.98

>  <cluster_rmsd>  (26) 
0.45

>  <cluster>  (26) 
2

$$$$

     RDKit          3D

 42 44  0  0  0  0  0  0  0  0999 V2000
  141.4230   72.2460  226.7350 C   0  0  0  0  0  0  0  0  0  0  0  0
  140.5800   71.4090  225.9590 O   0  0  0  0  0  0  0  0  0  0  0  0
  140.3370   70.0860  226.2500 C   0  0  0  0  0  0  0  0  0  0  0  0
  140.6340   69.6110  227.5220 C   0  0  0  0  0  0  0  0  0  0  0  0
  140.3870   68.2760  227.8090 C   0  0  0  0  0  0  0  0  0  0  0  0
  139.8570   67.4140  226.8640 C   0  0  0  0  0  0  0  0  0  0  0  0
  139.5710   67.9140  225.5990 C   0  0  0  0  0  0  0  0  0  0  0  0
  139.8050   69.2380  225.2840 C   0  0  0  0  0  0  0  0  0  0  0  0
  139.5190   69.7710  223.9950 N   0  0  0  0  0  0  0  0  0  0  0  0
  138.2100   70.0570  223.5380 C   0  0  0  0  0  0  0  0  0  0  0  0
  137.2150   69.8390  224.2860 O   0  0  0  0  0  0  0  0  0  0  0  0
  138.0570   70.6080  222.1780 C   0  0  0  0  0  0  0  0  0  0  0  0
  138.3850   72.0200  222.1180 N   0  0  0  0  0  0  0  0  0  0  0  0
  139.7500   72.3490  221.8760 C   0  0  0  0  0  0  0  0  0  0  0  0
  140.5420   71.3800  221.7370 O   0  0  0  0  0  0  0  0  0  0  0  0
  140.1850   73.7390  221.7960 C   0  0  0  0  0  0  0  0  0  0  0  0
  141.4330   73.9800  221.2240 C   0  0  0  0  0  0  0  0  0  0  0  0
  141.8250   75.2990  221.1580 C   0  0  0  0  0  0  0  0  0  0  0  0
  141.0330   76.3020  221.6290 C   0  0  0  0  0  0  0  0  0  0  0  0
  141.4610   77.6280  221.5470 C   0  0  0  0  0  0  0  0  0  0  0  0
  140.6390   78.6380  222.0330 C   0  0  0  0  0  0  0  0  0  0  0  0
  141.2190   80.2870  221.9090 Cl  0  0  0  0  0  0  0  0  0  0  0  0
  139.4070   78.3480  222.5940 C   0  0  0  0  0  0  0  0  0  0  0  0
  138.9700   77.0350  222.6810 C   0  0  0  0  0  0  0  0  0  0  0  0
  139.7870   76.0370  222.1990 C   0  0  0  0  0  0  0  0  0  0  0  0
  139.4180   74.7440  222.2550 N   0  0  0  0  0  0  0  0  0  0  0  0
  141.2384   72.0627  227.8038 H   0  0  0  0  0  0  0  0  0  0  0  0
  142.4749   72.0248  226.5014 H   0  0  0  0  0  0  0  0  0  0  0  0
  141.2093   73.2994  226.5014 H   0  0  0  0  0  0  0  0  0  0  0  0
  141.0565   70.2801  228.2861 H   0  0  0  0  0  0  0  0  0  0  0  0
  140.6183   67.8925  228.8137 H   0  0  0  0  0  0  0  0  0  0  0  0
  139.6668   66.3585  227.1085 H   0  0  0  0  0  0  0  0  0  0  0  0
  139.1508   67.2431  224.8352 H   0  0  0  0  0  0  0  0  0  0  0  0
  140.3440   69.9550  223.3670 H   0  0  0  0  0  0  0  0  0  0  0  0
  138.7246   70.0601  221.4967 H   0  0  0  0  0  0  0  0  0  0  0  0
  137.0032   70.4936  221.8842 H   0  0  0  0  0  0  0  0  0  0  0  0
  137.6750   72.7730  222.2420 H   0  0  0  0  0  0  0  0  0  0  0  0
  142.0679   73.1645  220.8472 H   0  0  0  0  0  0  0  0  0  0  0  0
  142.8004   75.5480  220.7146 H   0  0  0  0  0  0  0  0  0  0  0  0
  142.4376   77.8709  221.1029 H   0  0  0  0  0  0  0  0  0  0  0  0
  138.7721   79.1627  222.9723 H   0  0  0  0  0  0  0  0  0  0  0  0
  137.9925   76.7960  223.1252 H   0  0  0  0  0  0  0  0  0  0  0  0
  1  2  1  0
  2  3  1  0
  3  4  2  0
  4  5  1  0
  5  6  2  0
  6  7  1  0
  7  8  2  0
  8  9  1  0
  9 10  1  0
 10 11  2  0
 10 12  1  0
 12 13  1  0
 13 14  1  0
 14 15  2  0
 14 16  1  0
 16 17  2  0
 17 18  1  0
 18 19  2  0
 19 20  1  0
 20 21  2  0
 21 22  1  0
 21 23  1  0
 23 24  2  0
 24 25  1  0
 25 26  2  0
  8  3  1  0
 26 16  1  0
 25 19  1  0
  1 27  1  0
  1 28  1  0
  1 29  1  0
  4 30  1  0
  5 31  1  0
  6 32  1  0
  7 33  1  0
  9 34  1  0
 12 35  1  0
 12 36  1  0
 13 37  1  0
 17 38  1  0
 18 39  1  0
 20 40  1  0
 23 41  1  0
 24 42  1  0
M  END
>  <smiles>  (27) 
COc1ccccc1NC(=O)CNC(=O)c1ccc2cc(Cl)ccc2n1

>  <score_type>  (27) 
oracle

>  <origin>  (27) 
autodockgpu

>  <m_score__min__energy>  (27) 
-8.6099999999999994

>  <m_primary>  (27) 
energy

>  <rmsd>  (27) 
8.351814238815239

>  <m_score__min__rmsd>  (27) 
8.351814238815239

>  <meeko>  (27) 
{"free_energy": -6.92, "intermolecular_energy": -8.42, "internal_energy": -2.1, "cluster_size": 25, "cluster_id": 2, "rank_in_cluster": 25}

>  <energy>  (27) 
-7.95

>  <cluster_rmsd>  (27) 
0.67

>  <cluster>  (27) 
2

$$$$

     RDKit          3D

 42 44  0  0  0  0  0  0  0  0999 V2000
  137.6150   80.1560  223.4780 C   0  0  0  0  0  0  0  0  0  0  0  0
  138.7340   79.3360  223.7730 O   0  0  0  0  0  0  0  0  0  0  0  0
  139.9940   79.5470  223.2610 C   0  0  0  0  0  0  0  0  0  0  0  0
  140.6590   80.7270  223.5750 C   0  0  0  0  0  0  0  0  0  0  0  0
  141.9290   80.9340  223.0550 C   0  0  0  0  0  0  0  0  0  0  0  0
  142.5420   79.9990  222.2380 C   0  0  0  0  0  0  0  0  0  0  0  0
  141.8550   78.8300  221.9380 C   0  0  0  0  0  0  0  0  0  0  0  0
  140.5900   78.5940  222.4410 C   0  0  0  0  0  0  0  0  0  0  0  0
  139.8680   77.4030  222.1470 N   0  0  0  0  0  0  0  0  0  0  0  0
  140.4110   76.3170  221.4190 C   0  0  0  0  0  0  0  0  0  0  0  0
  141.5980   76.3720  220.9880 O   0  0  0  0  0  0  0  0  0  0  0  0
  139.5510   75.1410  221.1860 C   0  0  0  0  0  0  0  0  0  0  0  0
  139.5570   74.2260  222.3110 N   0  0  0  0  0  0  0  0  0  0  0  0
  139.9760   72.8890  222.0460 C   0  0  0  0  0  0  0  0  0  0  0  0
  140.3020   72.6320  220.8570 O   0  0  0  0  0  0  0  0  0  0  0  0
  140.0190   71.8910  223.1090 C   0  0  0  0  0  0  0  0  0  0  0  0
  139.5410   70.6180  222.8000 C   0  0  0  0  0  0  0  0  0  0  0  0
  139.5890   69.6900  223.8180 C   0  0  0  0  0  0  0  0  0  0  0  0
  140.0770   70.0070  225.0490 C   0  0  0  0  0  0  0  0  0  0  0  0
  140.1120   69.0430  226.0570 C   0  0  0  0  0  0  0  0  0  0  0  0
  140.6140   69.3850  227.3070 C   0  0  0  0  0  0  0  0  0  0  0  0
  140.6360   68.1400  228.5410 Cl  0  0  0  0  0  0  0  0  0  0  0  0
  141.0770   70.6630  227.5640 C   0  0  0  0  0  0  0  0  0  0  0  0
  141.0480   71.6310  226.5720 C   0  0  0  0  0  0  0  0  0  0  0  0
  140.5510   71.2890  225.3350 C   0  0  0  0  0  0  0  0  0  0  0  0
  140.4970   72.1840  224.3310 N   0  0  0  0  0  0  0  0  0  0  0  0
  137.1517   80.4955  224.4161 H   0  0  0  0  0  0  0  0  0  0  0  0
  137.9436   81.0287  222.8945 H   0  0  0  0  0  0  0  0  0  0  0  0
  136.8818   79.5798  222.8945 H   0  0  0  0  0  0  0  0  0  0  0  0
  140.1880   81.4813  224.2225 H   0  0  0  0  0  0  0  0  0  0  0  0
  142.4624   81.8648  223.2981 H   0  0  0  0  0  0  0  0  0  0  0  0
  143.5501   80.1781  221.8358 H   0  0  0  0  0  0  0  0  0  0  0  0
  142.3266   78.0782  221.2880 H   0  0  0  0  0  0  0  0  0  0  0  0
  138.8780   77.3510  222.5030 H   0  0  0  0  0  0  0  0  0  0  0  0
  138.5202   75.4845  221.0143 H   0  0  0  0  0  0  0  0  0  0  0  0
  139.9448   74.6029  220.3112 H   0  0  0  0  0  0  0  0  0  0  0  0
  139.2730   74.5080  223.2740 H   0  0  0  0  0  0  0  0  0  0  0  0
  139.1488   70.3691  221.8029 H   0  0  0  0  0  0  0  0  0  0  0  0
  139.2244   68.6691  223.6315 H   0  0  0  0  0  0  0  0  0  0  0  0
  139.7463   68.0236  225.8645 H   0  0  0  0  0  0  0  0  0  0  0  0
  141.4702   70.9124  228.5606 H   0  0  0  0  0  0  0  0  0  0  0  0
  141.4140   72.6494  226.7691 H   0  0  0  0  0  0  0  0  0  0  0  0
  1  2  1  0
  2  3  1  0
  3  4  2  0
  4  5  1  0
  5  6  2  0
  6  7  1  0
  7  8  2  0
  8  9  1  0
  9 10  1  0
 10 11  2  0
 10 12  1  0
 12 13  1  0
 13 14  1  0
 14 15  2  0
 14 16  1  0
 16 17  2  0
 17 18  1  0
 18 19  2  0
 19 20  1  0
 20 21  2  0
 21 22  1  0
 21 23  1  0
 23 24  2  0
 24 25  1  0
 25 26  2  0
  8  3  1  0
 26 16  1  0
 25 19  1  0
  1 27  1  0
  1 28  1  0
  1 29  1  0
  4 30  1  0
  5 31  1  0
  6 32  1  0
  7 33  1  0
  9 34  1  0
 12 35  1  0
 12 36  1  0
 13 37  1  0
 17 38  1  0
 18 39  1  0
 20 40  1  0
 23 41  1  0
 24 42  1  0
M  END
>  <smiles>  (28) 
COc1ccccc1NC(=O)CNC(=O)c1ccc2cc(Cl)ccc2n1

>  <score_type>  (28) 
oracle

>  <origin>  (28) 
autodockgpu

>  <m_score__min__energy>  (28) 
-8.6099999999999994

>  <m_primary>  (28) 
energy

>  <rmsd>  (28) 
3.046719754430594

>  <m_score__min__rmsd>  (28) 
3.046719754430594

>  <meeko>  (28) 
{"free_energy": -7.93, "intermolecular_energy": -9.42, "internal_energy": -1.34, "cluster_size": 20, "cluster_id": 1, "rank_in_cluster": 11}

>  <energy>  (28) 
-7.74

>  <cluster_rmsd>  (28) 
1.36

>  <cluster>  (28) 
2

$$$$

     RDKit          3D

 42 44  0  0  0  0  0  0  0  0999 V2000
  138.8310   67.7360  223.4010 C   0  0  0  0  0  0  0  0  0  0  0  0
  138.5850   67.8200  224.7960 O   0  0  0  0  0  0  0  0  0  0  0  0
  139.4050   68.4850  225.6790 C   0  0  0  0  0  0  0  0  0  0  0  0
  139.8790   67.8090  226.7970 C   0  0  0  0  0  0  0  0  0  0  0  0
  140.7040   68.4860  227.6840 C   0  0  0  0  0  0  0  0  0  0  0  0
  141.0620   69.8080  227.4810 C   0  0  0  0  0  0  0  0  0  0  0  0
  140.5730   70.4610  226.3570 C   0  0  0  0  0  0  0  0  0  0  0  0
  139.7500   69.8140  225.4550 C   0  0  0  0  0  0  0  0  0  0  0  0
  139.2390   70.4640  224.2960 N   0  0  0  0  0  0  0  0  0  0  0  0
  139.9230   71.4940  223.6090 C   0  0  0  0  0  0  0  0  0  0  0  0
  141.0530   71.8880  224.0170 O   0  0  0  0  0  0  0  0  0  0  0  0
  139.2770   72.0810  222.4190 C   0  0  0  0  0  0  0  0  0  0  0  0
  139.4580   73.5180  222.3500 N   0  0  0  0  0  0  0  0  0  0  0  0
  140.6020   73.9850  221.6390 C   0  0  0  0  0  0  0  0  0  0  0  0
  141.3470   73.1010  221.1390 O   0  0  0  0  0  0  0  0  0  0  0  0
  140.8750   75.4120  221.5100 C   0  0  0  0  0  0  0  0  0  0  0  0
  141.7330   75.8010  220.4820 C   0  0  0  0  0  0  0  0  0  0  0  0
  141.9780   77.1530  220.3770 C   0  0  0  0  0  0  0  0  0  0  0  0
  141.4120   78.0480  221.2340 C   0  0  0  0  0  0  0  0  0  0  0  0
  141.6830   79.4110  221.0990 C   0  0  0  0  0  0  0  0  0  0  0  0
  141.0960   80.3090  221.9820 C   0  0  0  0  0  0  0  0  0  0  0  0
  141.4660   82.0110  221.7740 Cl  0  0  0  0  0  0  0  0  0  0  0  0
  140.2520   79.8730  222.9880 C   0  0  0  0  0  0  0  0  0  0  0  0
  139.9750   78.5230  223.1330 C   0  0  0  0  0  0  0  0  0  0  0  0
  140.5570   77.6350  222.2560 C   0  0  0  0  0  0  0  0  0  0  0  0
  140.3270   76.3120  222.3450 N   0  0  0  0  0  0  0  0  0  0  0  0
  139.8594   67.3848  223.2305 H   0  0  0  0  0  0  0  0  0  0  0  0
  138.1219   67.0291  222.9455 H   0  0  0  0  0  0  0  0  0  0  0  0
  138.7024   68.7290  222.9455 H   0  0  0  0  0  0  0  0  0  0  0  0
  139.6057   66.7585  226.9752 H   0  0  0  0  0  0  0  0  0  0  0  0
  141.0835   67.9586  228.5716 H   0  0  0  0  0  0  0  0  0  0  0  0
  141.7185   70.3290  228.1934 H   0  0  0  0  0  0  0  0  0  0  0  0
  140.8457   71.5121  226.1816 H   0  0  0  0  0  0  0  0  0  0  0  0
  138.2980   70.1390  223.9510 H   0  0  0  0  0  0  0  0  0  0  0  0
  139.7135   71.6254  221.5180 H   0  0  0  0  0  0  0  0  0  0  0  0
  138.1977   71.8796  222.4869 H   0  0  0  0  0  0  0  0  0  0  0  0
  138.7980   74.1950  222.7890 H   0  0  0  0  0  0  0  0  0  0  0  0
  142.1875   75.0717  219.7953 H   0  0  0  0  0  0  0  0  0  0  0  0
  142.6460   77.5180  219.5829 H   0  0  0  0  0  0  0  0  0  0  0  0
  142.3529   79.7695  220.3035 H   0  0  0  0  0  0  0  0  0  0  0  0
  139.7986   80.6017  223.6761 H   0  0  0  0  0  0  0  0  0  0  0  0
  139.3054   78.1687  223.9306 H   0  0  0  0  0  0  0  0  0  0  0  0
  1  2  1  0
  2  3  1  0
  3  4  2  0
  4  5  1  0
  5  6  2  0
  6  7  1  0
  7  8  2  0
  8  9  1  0
  9 10  1  0
 10 11  2  0
 10 12  1  0
 12 13  1  0
 13 14  1  0
 14 15  2  0
 14 16  1  0
 16 17  2  0
 17 18  1  0
 18 19  2  0
 19 20  1  0
 20 21  2  0
 21 22  1  0
 21 23  1  0
 23 24  2  0
 24 25  1  0
 25 26  2  0
  8  3  1  0
 26 16  1  0
 25 19  1  0
  1 27  1  0
  1 28  1  0
  1 29  1  0
  4 30  1  0
  5 31  1  0
  6 32  1  0
  7 33  1  0
  9 34  1  0
 12 35  1  0
 12 36  1  0
 13 37  1  0
 17 38  1  0
 18 39  1  0
 20 40  1  0
 23 41  1  0
 24 42  1  0
M  END
>  <smiles>  (29) 
COc1ccccc1NC(=O)CNC(=O)c1ccc2cc(Cl)ccc2n1

>  <score_type>  (29) 
oracle

>  <origin>  (29) 
autodockgpu

>  <m_score__min__energy>  (29) 
-8.6099999999999994

>  <m_primary>  (29) 
energy

>  <rmsd>  (29) 
8.740059889272594

>  <m_score__min__rmsd>  (29) 
8.740059889272594

>  <meeko>  (29) 
{"free_energy": -8.01, "intermolecular_energy": -9.5, "internal_energy": -1.37, "cluster_size": 25, "cluster_id": 2, "rank_in_cluster": 5}

>  <energy>  (29) 
-7.71

>  <cluster_rmsd>  (29) 
1.45

>  <cluster>  (29) 
2

$$$$

     RDKit          3D

 42 44  0  0  0  0  0  0  0  0999 V2000
  142.5220   77.8860  218.6270 C   0  0  0  0  0  0  0  0  0  0  0  0
  141.3770   77.9820  219.4590 O   0  0  0  0  0  0  0  0  0  0  0  0
  141.4310   78.2490  220.8080 C   0  0  0  0  0  0  0  0  0  0  0  0
  141.8560   79.5030  221.2290 C   0  0  0  0  0  0  0  0  0  0  0  0
  141.9100   79.7660  222.5910 C   0  0  0  0  0  0  0  0  0  0  0  0
  141.5510   78.8140  223.5300 C   0  0  0  0  0  0  0  0  0  0  0  0
  141.1300   77.5680  223.0820 C   0  0  0  0  0  0  0  0  0  0  0  0
  141.0670   77.2760  221.7340 C   0  0  0  0  0  0  0  0  0  0  0  0
  140.6380   76.0060  221.2530 N   0  0  0  0  0  0  0  0  0  0  0  0
  141.5080   75.0560  220.6670 C   0  0  0  0  0  0  0  0  0  0  0  0
  142.7400   75.3140  220.5450 O   0  0  0  0  0  0  0  0  0  0  0  0
  140.9310   73.7780  220.2100 C   0  0  0  0  0  0  0  0  0  0  0  0
  141.0320   72.7400  221.2180 N   0  0  0  0  0  0  0  0  0  0  0  0
  140.1630   72.8540  222.3430 C   0  0  0  0  0  0  0  0  0  0  0  0
  139.3900   73.8470  222.3520 O   0  0  0  0  0  0  0  0  0  0  0  0
  140.1850   71.8620  223.4120 C   0  0  0  0  0  0  0  0  0  0  0  0
  139.7120   70.5880  223.1030 C   0  0  0  0  0  0  0  0  0  0  0  0
  139.7410   69.6650  224.1260 C   0  0  0  0  0  0  0  0  0  0  0  0
  140.2060   69.9900  225.3640 C   0  0  0  0  0  0  0  0  0  0  0  0
  140.2210   69.0310  226.3780 C   0  0  0  0  0  0  0  0  0  0  0  0
  140.7000   69.3810  227.6350 C   0  0  0  0  0  0  0  0  0  0  0  0
  140.6980   68.1430  228.8770 Cl  0  0  0  0  0  0  0  0  0  0  0  0
  141.1580   70.6600  227.8940 C   0  0  0  0  0  0  0  0  0  0  0  0
  141.1490   71.6220  226.8960 C   0  0  0  0  0  0  0  0  0  0  0  0
  140.6750   71.2730  225.6510 C   0  0  0  0  0  0  0  0  0  0  0  0
  140.6400   72.1620  224.6420 N   0  0  0  0  0  0  0  0  0  0  0  0
  143.4241   77.8104  219.2520 H   0  0  0  0  0  0  0  0  0  0  0  0
  142.4399   76.9916  217.9920 H   0  0  0  0  0  0  0  0  0  0  0  0
  142.5899   78.7816  217.9920 H   0  0  0  0  0  0  0  0  0  0  0  0
  142.1440   80.2723  220.4974 H   0  0  0  0  0  0  0  0  0  0  0  0
  142.2466   80.7559  222.9329 H   0  0  0  0  0  0  0  0  0  0  0  0
  141.5980   79.0389  224.6057 H   0  0  0  0  0  0  0  0  0  0  0  0
  140.8416   76.8000  223.8148 H   0  0  0  0  0  0  0  0  0  0  0  0
  139.6130   75.7860  221.3510 H   0  0  0  0  0  0  0  0  0  0  0  0
  139.8695   73.9349  219.9681 H   0  0  0  0  0  0  0  0  0  0  0  0
  141.4981   73.4479  219.3271 H   0  0  0  0  0  0  0  0  0  0  0  0
  141.6980   71.9410  221.1450 H   0  0  0  0  0  0  0  0  0  0  0  0
  139.3372   70.3338  222.1005 H   0  0  0  0  0  0  0  0  0  0  0  0
  139.3804   68.6429  223.9383 H   0  0  0  0  0  0  0  0  0  0  0  0
  139.8582   68.0107  226.1847 H   0  0  0  0  0  0  0  0  0  0  0  0
  141.5312   70.9151  228.8968 H   0  0  0  0  0  0  0  0  0  0  0  0
  141.5123   72.6412  227.0940 H   0  0  0  0  0  0  0  0  0  0  0  0
  1  2  1  0
  2  3  1  0
  3  4  2  0
  4  5  1  0
  5  6  2  0
  6  7  1  0
  7  8  2  0
  8  9  1  0
  9 10  1  0
 10 11  2  0
 10 12  1  0
 12 13  1  0
 13 14  1  0
 14 15  2  0
 14 16  1  0
 16 17  2  0
 17 18  1  0
 18 19  2  0
 19 20  1  0
 20 21  2  0
 21 22  1  0
 21 23  1  0
 23 24  2  0
 24 25  1  0
 25 26  2  0
  8  3  1  0
 26 16  1  0
 25 19  1  0
  1 27  1  0
  1 28  1  0
  1 29  1  0
  4 30  1  0
  5 31  1  0
  6 32  1  0
  7 33  1  0
  9 34  1  0
 12 35  1  0
 12 36  1  0
 13 37  1  0
 17 38  1  0
 18 39  1  0
 20 40  1  0
 23 41  1  0
 24 42  1  0
M  END
>  <smiles>  (30) 
COc1ccccc1NC(=O)CNC(=O)c1ccc2cc(Cl)ccc2n1

>  <score_type>  (30) 
oracle

>  <origin>  (30) 
autodockgpu

>  <m_score__min__energy>  (30) 
-8.6099999999999994

>  <m_primary>  (30) 
energy

>  <rmsd>  (30) 
3.1691186776236906

>  <m_score__min__rmsd>  (30) 
3.1691186776236906

>  <meeko>  (30) 
{"free_energy": -7.49, "intermolecular_energy": -8.98, "internal_energy": -1.8, "cluster_size": 20, "cluster_id": 1, "rank_in_cluster": 17}

>  <energy>  (30) 
-7.65

>  <cluster_rmsd>  (30) 
0.72

>  <cluster>  (30) 
2

$$$$

     RDKit          3D

 42 44  0  0  0  0  0  0  0  0999 V2000
  138.8590   68.1740  223.7800 C   0  0  0  0  0  0  0  0  0  0  0  0
  138.5400   68.4760  225.1290 O   0  0  0  0  0  0  0  0  0  0  0  0
  139.3770   69.1610  225.9790 C   0  0  0  0  0  0  0  0  0  0  0  0
  139.9180   68.4950  227.0720 C   0  0  0  0  0  0  0  0  0  0  0  0
  140.7610   69.1920  227.9260 C   0  0  0  0  0  0  0  0  0  0  0  0
  141.0720   70.5250  227.7150 C   0  0  0  0  0  0  0  0  0  0  0  0
  140.5160   71.1670  226.6160 C   0  0  0  0  0  0  0  0  0  0  0  0
  139.6740   70.5000  225.7470 C   0  0  0  0  0  0  0  0  0  0  0  0
  139.0940   71.1390  224.6150 N   0  0  0  0  0  0  0  0  0  0  0  0
  139.8300   71.5230  223.4690 C   0  0  0  0  0  0  0  0  0  0  0  0
  141.0740   71.3040  223.4110 O   0  0  0  0  0  0  0  0  0  0  0  0
  139.1020   72.1770  222.3650 C   0  0  0  0  0  0  0  0  0  0  0  0
  139.3090   73.6130  222.3460 N   0  0  0  0  0  0  0  0  0  0  0  0
  140.4450   74.0850  221.6260 C   0  0  0  0  0  0  0  0  0  0  0  0
  141.1600   73.2080  221.0740 O   0  0  0  0  0  0  0  0  0  0  0  0
  140.7430   75.5110  221.5450 C   0  0  0  0  0  0  0  0  0  0  0  0
  141.6370   75.9160  220.5550 C   0  0  0  0  0  0  0  0  0  0  0  0
  141.9050   77.2660  220.4950 C   0  0  0  0  0  0  0  0  0  0  0  0
  141.3260   78.1460  221.3590 C   0  0  0  0  0  0  0  0  0  0  0  0
  141.6200   79.5070  221.2710 C   0  0  0  0  0  0  0  0  0  0  0  0
  141.0200   80.3890  222.1610 C   0  0  0  0  0  0  0  0  0  0  0  0
  141.4200   82.0900  222.0120 Cl  0  0  0  0  0  0  0  0  0  0  0  0
  140.1390   79.9390  223.1280 C   0  0  0  0  0  0  0  0  0  0  0  0
  139.8380   78.5890  223.2270 C   0  0  0  0  0  0  0  0  0  0  0  0
  140.4340   77.7170  222.3440 C   0  0  0  0  0  0  0  0  0  0  0  0
  140.1820   76.3960  222.3890 N   0  0  0  0  0  0  0  0  0  0  0  0
  139.6576   67.4180  223.7525 H   0  0  0  0  0  0  0  0  0  0  0  0
  137.9659   67.7827  223.2708 H   0  0  0  0  0  0  0  0  0  0  0  0
  139.2008   69.0872  223.2708 H   0  0  0  0  0  0  0  0  0  0  0  0
  139.6827   67.4364  227.2566 H   0  0  0  0  0  0  0  0  0  0  0  0
  141.1936   68.6720  228.7934 H   0  0  0  0  0  0  0  0  0  0  0  0
  141.7431   71.0623  228.4012 H   0  0  0  0  0  0  0  0  0  0  0  0
  140.7504   72.2262  226.4341 H   0  0  0  0  0  0  0  0  0  0  0  0
  138.0570   71.3240  224.6570 H   0  0  0  0  0  0  0  0  0  0  0  0
  139.4526   71.7560  221.4112 H   0  0  0  0  0  0  0  0  0  0  0  0
  138.0277   71.9929  222.5134 H   0  0  0  0  0  0  0  0  0  0  0  0
  138.6730   74.2840  222.8280 H   0  0  0  0  0  0  0  0  0  0  0  0
  142.1015   75.1992  219.8619 H   0  0  0  0  0  0  0  0  0  0  0  0
  142.6025   77.6420  219.7320 H   0  0  0  0  0  0  0  0  0  0  0  0
  142.3185   79.8773  220.5061 H   0  0  0  0  0  0  0  0  0  0  0  0
  139.6750   80.6555  223.8217 H   0  0  0  0  0  0  0  0  0  0  0  0
  139.1390   78.2232  223.9935 H   0  0  0  0  0  0  0  0  0  0  0  0
  1  2  1  0
  2  3  1  0
  3  4  2  0
  4  5  1  0
  5  6  2  0
  6  7  1  0
  7  8  2  0
  8  9  1  0
  9 10  1  0
 10 11  2  0
 10 12  1  0
 12 13  1  0
 13 14  1  0
 14 15  2  0
 14 16  1  0
 16 17  2  0
 17 18  1  0
 18 19  2  0
 19 20  1  0
 20 21  2  0
 21 22  1  0
 21 23  1  0
 23 24  2  0
 24 25  1  0
 25 26  2  0
  8  3  1  0
 26 16  1  0
 25 19  1  0
  1 27  1  0
  1 28  1  0
  1 29  1  0
  4 30  1  0
  5 31  1  0
  6 32  1  0
  7 33  1  0
  9 34  1  0
 12 35  1  0
 12 36  1  0
 13 37  1  0
 17 38  1  0
 18 39  1  0
 20 40  1  0
 23 41  1  0
 24 42  1  0
M  END
>  <smiles>  (31) 
COc1ccccc1NC(=O)CNC(=O)c1ccc2cc(Cl)ccc2n1

>  <score_type>  (31) 
oracle

>  <origin>  (31) 
autodockgpu

>  <m_score__min__energy>  (31) 
-8.6099999999999994

>  <m_primary>  (31) 
energy

>  <rmsd>  (31) 
8.667299490462128

>  <m_score__min__rmsd>  (31) 
8.667299490462128

>  <meeko>  (31) 
{"free_energy": -7.98, "intermolecular_energy": -9.47, "internal_energy": -1.34, "cluster_size": 25, "cluster_id": 2, "rank_in_cluster": 6}

>  <energy>  (31) 
-7.56

>  <cluster_rmsd>  (31) 
1.6

>  <cluster>  (31) 
2

$$$$

     RDKit          3D

 42 44  0  0  0  0  0  0  0  0999 V2000
  141.0670   72.2720  227.5070 C   0  0  0  0  0  0  0  0  0  0  0  0
  140.5030   71.5390  226.4310 O   0  0  0  0  0  0  0  0  0  0  0  0
  140.3200   70.1760  226.4470 C   0  0  0  0  0  0  0  0  0  0  0  0
  141.0620   69.4070  227.3350 C   0  0  0  0  0  0  0  0  0  0  0  0
  140.8730   68.0320  227.3450 C   0  0  0  0  0  0  0  0  0  0  0  0
  139.9690   67.4150  226.4970 C   0  0  0  0  0  0  0  0  0  0  0  0
  139.2410   68.2070  225.6180 C   0  0  0  0  0  0  0  0  0  0  0  0
  139.4060   69.5780  225.5840 C   0  0  0  0  0  0  0  0  0  0  0  0
  138.6700   70.4080  224.6920 N   0  0  0  0  0  0  0  0  0  0  0  0
  138.1650   69.9650  223.4460 C   0  0  0  0  0  0  0  0  0  0  0  0
  138.3590   68.7740  223.0700 O   0  0  0  0  0  0  0  0  0  0  0  0
  137.4180   70.9310  222.6190 C   0  0  0  0  0  0  0  0  0  0  0  0
  137.9560   72.2740  222.7230 N   0  0  0  0  0  0  0  0  0  0  0  0
  139.0330   72.6010  221.8480 C   0  0  0  0  0  0  0  0  0  0  0  0
  139.4130   71.6900  221.0670 O   0  0  0  0  0  0  0  0  0  0  0  0
  139.6450   73.9250  221.8730 C   0  0  0  0  0  0  0  0  0  0  0  0
  140.9610   74.0220  221.4240 C   0  0  0  0  0  0  0  0  0  0  0  0
  141.5210   75.2800  221.4560 C   0  0  0  0  0  0  0  0  0  0  0  0
  140.8210   76.3600  221.9020 C   0  0  0  0  0  0  0  0  0  0  0  0
  141.4190   77.6210  221.9200 C   0  0  0  0  0  0  0  0  0  0  0  0
  140.6890   78.7110  222.3780 C   0  0  0  0  0  0  0  0  0  0  0  0
  141.4820   80.2750  222.3840 Cl  0  0  0  0  0  0  0  0  0  0  0  0
  139.3840   78.5640  222.8140 C   0  0  0  0  0  0  0  0  0  0  0  0
  138.7780   77.3180  222.8010 C   0  0  0  0  0  0  0  0  0  0  0  0
  139.5040   76.2390  222.3460 C   0  0  0  0  0  0  0  0  0  0  0  0
  138.9710   75.0040  222.3090 N   0  0  0  0  0  0  0  0  0  0  0  0
  140.7331   71.8381  228.4611 H   0  0  0  0  0  0  0  0  0  0  0  0
  142.1644   72.2254  227.4471 H   0  0  0  0  0  0  0  0  0  0  0  0
  140.7407   73.3208  227.4471 H   0  0  0  0  0  0  0  0  0  0  0  0
  141.7850   69.8786  228.0167 H   0  0  0  0  0  0  0  0  0  0  0  0
  141.4568   67.4163  228.0451 H   0  0  0  0  0  0  0  0  0  0  0  0
  139.8306   66.3240  226.5188 H   0  0  0  0  0  0  0  0  0  0  0  0
  138.5194   67.7333  224.9361 H   0  0  0  0  0  0  0  0  0  0  0  0
  138.5040   71.4010  225.0000 H   0  0  0  0  0  0  0  0  0  0  0  0
  137.4676   70.6101  221.5680 H   0  0  0  0  0  0  0  0  0  0  0  0
  136.3800   70.9544  222.9824 H   0  0  0  0  0  0  0  0  0  0  0  0
  137.5900   72.9810  223.3970 H   0  0  0  0  0  0  0  0  0  0  0  0
  141.5197   73.1451  221.0650 H   0  0  0  0  0  0  0  0  0  0  0  0
  142.5575   75.4156  221.1135 H   0  0  0  0  0  0  0  0  0  0  0  0
  142.4557   77.7504  221.5758 H   0  0  0  0  0  0  0  0  0  0  0  0
  138.8249   79.4407  223.1727 H   0  0  0  0  0  0  0  0  0  0  0  0
  137.7410   77.1931  223.1460 H   0  0  0  0  0  0  0  0  0  0  0  0
  1  2  1  0
  2  3  1  0
  3  4  2  0
  4  5  1  0
  5  6  2  0
  6  7  1  0
  7  8  2  0
  8  9  1  0
  9 10  1  0
 10 11  2  0
 10 12  1  0
 12 13  1  0
 13 14  1  0
 14 15  2  0
 14 16  1  0
 16 17  2  0
 17 18  1  0
 18 19  2  0
 19 20  1  0
 20 21  2  0
 21 22  1  0
 21 23  1  0
 23 24  2  0
 24 25  1  0
 25 26  2  0
  8  3  1  0
 26 16  1  0
 25 19  1  0
  1 27  1  0
  1 28  1  0
  1 29  1  0
  4 30  1  0
  5 31  1  0
  6 32  1  0
  7 33  1  0
  9 34  1  0
 12 35  1  0
 12 36  1  0
 13 37  1  0
 17 38  1  0
 18 39  1  0
 20 40  1  0
 23 41  1  0
 24 42  1  0
M  END
>  <smiles>  (32) 
COc1ccccc1NC(=O)CNC(=O)c1ccc2cc(Cl)ccc2n1

>  <score_type>  (32) 
oracle

>  <origin>  (32) 
autodockgpu

>  <m_score__min__energy>  (32) 
-8.6099999999999994

>  <m_primary>  (32) 
energy

>  <rmsd>  (32) 
8.260328715066263

>  <m_score__min__rmsd>  (32) 
8.260328715066263

>  <meeko>  (32) 
{"free_energy": -7.54, "intermolecular_energy": -9.04, "internal_energy": -1.56, "cluster_size": 25, "cluster_id": 2, "rank_in_cluster": 12}

>  <energy>  (32) 
-7.54

>  <cluster_rmsd>  (32) 
1.62

>  <cluster>  (32) 
2

$$$$

     RDKit          3D

 42 44  0  0  0  0  0  0  0  0999 V2000
  141.1760   72.3730  227.1930 C   0  0  0  0  0  0  0  0  0  0  0  0
  140.4680   71.5150  226.3130 O   0  0  0  0  0  0  0  0  0  0  0  0
  140.4610   70.1430  226.4220 C   0  0  0  0  0  0  0  0  0  0  0  0
  141.0690   69.5530  227.5230 C   0  0  0  0  0  0  0  0  0  0  0  0
  141.0590   68.1690  227.6270 C   0  0  0  0  0  0  0  0  0  0  0  0
  140.4610   67.3710  226.6660 C   0  0  0  0  0  0  0  0  0  0  0  0
  139.8600   67.9870  225.5750 C   0  0  0  0  0  0  0  0  0  0  0  0
  139.8540   69.3620  225.4440 C   0  0  0  0  0  0  0  0  0  0  0  0
  139.2440   70.0140  224.3340 N   0  0  0  0  0  0  0  0  0  0  0  0
  137.8440   70.1450  224.1750 C   0  0  0  0  0  0  0  0  0  0  0  0
  137.0590   69.6690  225.0450 O   0  0  0  0  0  0  0  0  0  0  0  0
  137.3460   70.8450  222.9760 C   0  0  0  0  0  0  0  0  0  0  0  0
  137.8770   72.1910  222.8670 N   0  0  0  0  0  0  0  0  0  0  0  0
  139.0910   72.3420  222.1350 C   0  0  0  0  0  0  0  0  0  0  0  0
  139.5860   71.2890  221.6530 O   0  0  0  0  0  0  0  0  0  0  0  0
  139.7070   73.6530  221.9660 C   0  0  0  0  0  0  0  0  0  0  0  0
  140.9790   73.6850  221.3950 C   0  0  0  0  0  0  0  0  0  0  0  0
  141.5440   74.9320  221.2440 C   0  0  0  0  0  0  0  0  0  0  0  0
  140.8910   76.0620  221.6350 C   0  0  0  0  0  0  0  0  0  0  0  0
  141.4920   77.3100  221.4670 C   0  0  0  0  0  0  0  0  0  0  0  0
  140.8100   78.4520  221.8710 C   0  0  0  0  0  0  0  0  0  0  0  0
  141.6070   79.9970  221.6420 Cl  0  0  0  0  0  0  0  0  0  0  0  0
  139.5490   78.3680  222.4340 C   0  0  0  0  0  0  0  0  0  0  0  0
  138.9400   77.1350  222.6060 C   0  0  0  0  0  0  0  0  0  0  0  0
  139.6180   76.0060  222.2050 C   0  0  0  0  0  0  0  0  0  0  0  0
  139.0790   74.7800  222.3450 N   0  0  0  0  0  0  0  0  0  0  0  0
  140.9495   72.0985  228.2338 H   0  0  0  0  0  0  0  0  0  0  0  0
  142.2565   72.2713  227.0138 H   0  0  0  0  0  0  0  0  0  0  0  0
  140.8710   73.4146  227.0138 H   0  0  0  0  0  0  0  0  0  0  0  0
  141.5487   70.1703  228.2968 H   0  0  0  0  0  0  0  0  0  0  0  0
  141.5386   67.6936  228.4953 H   0  0  0  0  0  0  0  0  0  0  0  0
  140.4617   66.2754  226.7640 H   0  0  0  0  0  0  0  0  0  0  0  0
  139.3805   67.3686  224.8019 H   0  0  0  0  0  0  0  0  0  0  0  0
  139.8930   70.4120  223.6070 H   0  0  0  0  0  0  0  0  0  0  0  0
  137.6423   70.2740  222.0837 H   0  0  0  0  0  0  0  0  0  0  0  0
  136.2516   70.9194  223.0585 H   0  0  0  0  0  0  0  0  0  0  0  0
  137.4110   73.0210  223.2930 H   0  0  0  0  0  0  0  0  0  0  0  0
  141.5005   72.7680  221.0835 H   0  0  0  0  0  0  0  0  0  0  0  0
  142.5456   75.0175  220.7974 H   0  0  0  0  0  0  0  0  0  0  0  0
  142.4940   77.3893  221.0200 H   0  0  0  0  0  0  0  0  0  0  0  0
  139.0271   79.2845  222.7467 H   0  0  0  0  0  0  0  0  0  0  0  0
  137.9376   77.0602  223.0528 H   0  0  0  0  0  0  0  0  0  0  0  0
  1  2  1  0
  2  3  1  0
  3  4  2  0
  4  5  1  0
  5  6  2  0
  6  7  1  0
  7  8  2  0
  8  9  1  0
  9 10  1  0
 10 11  2  0
 10 12  1  0
 12 13  1  0
 13 14  1  0
 14 15  2  0
 14 16  1  0
 16 17  2  0
 17 18  1  0
 18 19  2  0
 19 20  1  0
 20 21  2  0
 21 22  1  0
 21 23  1  0
 23 24  2  0
 24 25  1  0
 25 26  2  0
  8  3  1  0
 26 16  1  0
 25 19  1  0
  1 27  1  0
  1 28  1  0
  1 29  1  0
  4 30  1  0
  5 31  1  0
  6 32  1  0
  7 33  1  0
  9 34  1  0
 12 35  1  0
 12 36  1  0
 13 37  1  0
 17 38  1  0
 18 39  1  0
 20 40  1  0
 23 41  1  0
 24 42  1  0
M  END
>  <smiles>  (33) 
COc1ccccc1NC(=O)CNC(=O)c1ccc2cc(Cl)ccc2n1

>  <score_type>  (33) 
oracle

>  <origin>  (33) 
autodockgpu

>  <m_score__min__energy>  (33) 
-8.6099999999999994

>  <m_primary>  (33) 
energy

>  <rmsd>  (33) 
8.275085374361476

>  <m_score__min__rmsd>  (33) 
8.275085374361476

>  <meeko>  (33) 
{"free_energy": -7.33, "intermolecular_energy": -8.82, "internal_energy": -2.11, "cluster_size": 25, "cluster_id": 2, "rank_in_cluster": 22}

>  <energy>  (33) 
-7.54

>  <cluster_rmsd>  (33) 
1.21

>  <cluster>  (33) 
2

$$$$

     RDKit          3D

 42 44  0  0  0  0  0  0  0  0999 V2000
  142.2060   78.2270  218.6850 C   0  0  0  0  0  0  0  0  0  0  0  0
  141.1780   78.2120  219.6620 O   0  0  0  0  0  0  0  0  0  0  0  0
  141.3950   78.4180  221.0050 C   0  0  0  0  0  0  0  0  0  0  0  0
  141.8380   79.6640  221.4320 C   0  0  0  0  0  0  0  0  0  0  0  0
  142.0560   79.8660  222.7880 C   0  0  0  0  0  0  0  0  0  0  0  0
  141.8430   78.8610  223.7160 C   0  0  0  0  0  0  0  0  0  0  0  0
  141.4020   77.6240  223.2630 C   0  0  0  0  0  0  0  0  0  0  0  0
  141.1760   77.3930  221.9200 C   0  0  0  0  0  0  0  0  0  0  0  0
  140.7230   76.1330  221.4340 N   0  0  0  0  0  0  0  0  0  0  0  0
  141.5400   75.2330  220.7090 C   0  0  0  0  0  0  0  0  0  0  0  0
  142.7430   75.5300  220.4580 O   0  0  0  0  0  0  0  0  0  0  0  0
  140.9420   73.9600  220.2640 C   0  0  0  0  0  0  0  0  0  0  0  0
  141.0630   72.9180  221.2660 N   0  0  0  0  0  0  0  0  0  0  0  0
  140.1290   72.9540  222.3420 C   0  0  0  0  0  0  0  0  0  0  0  0
  139.2860   73.8890  222.3180 O   0  0  0  0  0  0  0  0  0  0  0  0
  140.1640   71.9520  223.4010 C   0  0  0  0  0  0  0  0  0  0  0  0
  139.7160   70.6720  223.0760 C   0  0  0  0  0  0  0  0  0  0  0  0
  139.7570   69.7400  224.0900 C   0  0  0  0  0  0  0  0  0  0  0  0
  140.2100   70.0600  225.3340 C   0  0  0  0  0  0  0  0  0  0  0  0
  140.2380   69.0910  226.3380 C   0  0  0  0  0  0  0  0  0  0  0  0
  140.7040   69.4360  227.6010 C   0  0  0  0  0  0  0  0  0  0  0  0
  140.7200   68.1860  228.8300 Cl  0  0  0  0  0  0  0  0  0  0  0  0
  141.1380   70.7210  227.8750 C   0  0  0  0  0  0  0  0  0  0  0  0
  141.1160   71.6930  226.8870 C   0  0  0  0  0  0  0  0  0  0  0  0
  140.6540   71.3480  225.6360 C   0  0  0  0  0  0  0  0  0  0  0  0
  140.6080   72.2470  224.6360 N   0  0  0  0  0  0  0  0  0  0  0  0
  143.1861   78.2413  219.1842 H   0  0  0  0  0  0  0  0  0  0  0  0
  142.1277   77.3276  218.0565 H   0  0  0  0  0  0  0  0  0  0  0  0
  142.1015   79.1237  218.0565 H   0  0  0  0  0  0  0  0  0  0  0  0
  142.0126   80.4747  220.7093 H   0  0  0  0  0  0  0  0  0  0  0  0
  142.4069   80.8495  223.1339 H   0  0  0  0  0  0  0  0  0  0  0  0
  142.0189   79.0379  224.7873 H   0  0  0  0  0  0  0  0  0  0  0  0
  141.2296   76.8138  223.9868 H   0  0  0  0  0  0  0  0  0  0  0  0
  139.7210   75.8810  221.6400 H   0  0  0  0  0  0  0  0  0  0  0  0
  139.8754   74.1248  220.0513 H   0  0  0  0  0  0  0  0  0  0  0  0
  141.4828   73.6287  219.3653 H   0  0  0  0  0  0  0  0  0  0  0  0
  141.7890   72.1700  221.2230 H   0  0  0  0  0  0  0  0  0  0  0  0
  139.3512   70.4211  222.0690 H   0  0  0  0  0  0  0  0  0  0  0  0
  139.4159   68.7135  223.8902 H   0  0  0  0  0  0  0  0  0  0  0  0
  139.8953   68.0662  226.1321 H   0  0  0  0  0  0  0  0  0  0  0  0
  141.5023   70.9725  228.8820 H   0  0  0  0  0  0  0  0  0  0  0  0
  141.4597   72.7166  227.0972 H   0  0  0  0  0  0  0  0  0  0  0  0
  1  2  1  0
  2  3  1  0
  3  4  2  0
  4  5  1  0
  5  6  2  0
  6  7  1  0
  7  8  2  0
  8  9  1  0
  9 10  1  0
 10 11  2  0
 10 12  1  0
 12 13  1  0
 13 14  1  0
 14 15  2  0
 14 16  1  0
 16 17  2  0
 17 18  1  0
 18 19  2  0
 19 20  1  0
 20 21  2  0
 21 22  1  0
 21 23  1  0
 23 24  2  0
 24 25  1  0
 25 26  2  0
  8  3  1  0
 26 16  1  0
 25 19  1  0
  1 27  1  0
  1 28  1  0
  1 29  1  0
  4 30  1  0
  5 31  1  0
  6 32  1  0
  7 33  1  0
  9 34  1  0
 12 35  1  0
 12 36  1  0
 13 37  1  0
 17 38  1  0
 18 39  1  0
 20 40  1  0
 23 41  1  0
 24 42  1  0
M  END
>  <smiles>  (34) 
COc1ccccc1NC(=O)CNC(=O)c1ccc2cc(Cl)ccc2n1

>  <score_type>  (34) 
oracle

>  <origin>  (34) 
autodockgpu

>  <m_score__min__energy>  (34) 
-8.6099999999999994

>  <m_primary>  (34) 
energy

>  <rmsd>  (34) 
3.280034708734322

>  <m_score__min__rmsd>  (34) 
3.280034708734322

>  <meeko>  (34) 
{"free_energy": -7.37, "intermolecular_energy": -8.87, "internal_energy": -1.84, "cluster_size": 20, "cluster_id": 1, "rank_in_cluster": 18}

>  <energy>  (34) 
-7.54

>  <cluster_rmsd>  (34) 
1.36

>  <cluster>  (34) 
2

$$$$

     RDKit          3D

 42 44  0  0  0  0  0  0  0  0999 V2000
  138.8370   67.7640  223.3880 C   0  0  0  0  0  0  0  0  0  0  0  0
  138.5860   67.8300  224.7830 O   0  0  0  0  0  0  0  0  0  0  0  0
  139.3880   68.5050  225.6750 C   0  0  0  0  0  0  0  0  0  0  0  0
  139.8690   67.8310  226.7910 C   0  0  0  0  0  0  0  0  0  0  0  0
  140.6770   68.5170  227.6860 C   0  0  0  0  0  0  0  0  0  0  0  0
  141.0100   69.8470  227.4940 C   0  0  0  0  0  0  0  0  0  0  0  0
  140.5150   70.4980  226.3710 C   0  0  0  0  0  0  0  0  0  0  0  0
  139.7090   69.8420  225.4610 C   0  0  0  0  0  0  0  0  0  0  0  0
  139.1910   70.4890  224.3030 N   0  0  0  0  0  0  0  0  0  0  0  0
  139.9040   71.4630  223.5650 C   0  0  0  0  0  0  0  0  0  0  0  0
  141.0680   71.8050  223.9230 O   0  0  0  0  0  0  0  0  0  0  0  0
  139.2480   72.0540  222.3830 C   0  0  0  0  0  0  0  0  0  0  0  0
  139.4370   73.4910  222.3120 N   0  0  0  0  0  0  0  0  0  0  0  0
  140.5890   73.9500  221.6100 C   0  0  0  0  0  0  0  0  0  0  0  0
  141.3330   73.0610  221.1170 O   0  0  0  0  0  0  0  0  0  0  0  0
  140.8710   75.3750  221.4800 C   0  0  0  0  0  0  0  0  0  0  0  0
  141.7360   75.7580  220.4550 C   0  0  0  0  0  0  0  0  0  0  0  0
  141.9900   77.1080  220.3500 C   0  0  0  0  0  0  0  0  0  0  0  0
  141.4240   78.0080  221.2020 C   0  0  0  0  0  0  0  0  0  0  0  0
  141.7030   79.3680  221.0660 C   0  0  0  0  0  0  0  0  0  0  0  0
  141.1160   80.2720  221.9450 C   0  0  0  0  0  0  0  0  0  0  0  0
  141.4970   81.9700  221.7360 Cl  0  0  0  0  0  0  0  0  0  0  0  0
  140.2640   79.8420  222.9460 C   0  0  0  0  0  0  0  0  0  0  0  0
  139.9790   78.4940  223.0920 C   0  0  0  0  0  0  0  0  0  0  0  0
  140.5610   77.6010  222.2200 C   0  0  0  0  0  0  0  0  0  0  0  0
  140.3230   76.2790  222.3100 N   0  0  0  0  0  0  0  0  0  0  0  0
  139.8879   67.4877  223.2172 H   0  0  0  0  0  0  0  0  0  0  0  0
  138.1804   67.0080  222.9327 H   0  0  0  0  0  0  0  0  0  0  0  0
  138.6372   68.7452  222.9327 H   0  0  0  0  0  0  0  0  0  0  0  0
  139.6141   66.7746  226.9613 H   0  0  0  0  0  0  0  0  0  0  0  0
  141.0632   67.9905  228.5713 H   0  0  0  0  0  0  0  0  0  0  0  0
  141.6517   70.3760  228.2140 H   0  0  0  0  0  0  0  0  0  0  0  0
  140.7695   71.5550  226.2034 H   0  0  0  0  0  0  0  0  0  0  0  0
  138.2220   70.2080  224.0000 H   0  0  0  0  0  0  0  0  0  0  0  0
  139.6713   71.5959  221.4769 H   0  0  0  0  0  0  0  0  0  0  0  0
  138.1684   71.8591  222.4634 H   0  0  0  0  0  0  0  0  0  0  0  0
  138.7770   74.1720  222.7460 H   0  0  0  0  0  0  0  0  0  0  0  0
  142.1887   75.0253  219.7708 H   0  0  0  0  0  0  0  0  0  0  0  0
  142.6655   77.4676  219.5599 H   0  0  0  0  0  0  0  0  0  0  0  0
  142.3790   79.7211  220.2733 H   0  0  0  0  0  0  0  0  0  0  0  0
  139.8102   80.5742  223.6300 H   0  0  0  0  0  0  0  0  0  0  0  0
  139.3031   78.1449  223.8865 H   0  0  0  0  0  0  0  0  0  0  0  0
  1  2  1  0
  2  3  1  0
  3  4  2  0
  4  5  1  0
  5  6  2  0
  6  7  1  0
  7  8  2  0
  8  9  1  0
  9 10  1  0
 10 11  2  0
 10 12  1  0
 12 13  1  0
 13 14  1  0
 14 15  2  0
 14 16  1  0
 16 17  2  0
 17 18  1  0
 18 19  2  0
 19 20  1  0
 20 21  2  0
 21 22  1  0
 21 23  1  0
 23 24  2  0
 24 25  1  0
 25 26  2  0
  8  3  1  0
 26 16  1  0
 25 19  1  0
  1 27  1  0
  1 28  1  0
  1 29  1  0
  4 30  1  0
  5 31  1  0
  6 32  1  0
  7 33  1  0
  9 34  1  0
 12 35  1  0
 12 36  1  0
 13 37  1  0
 17 38  1  0
 18 39  1  0
 20 40  1  0
 23 41  1  0
 24 42  1  0
M  END
>  <smiles>  (35) 
COc1ccccc1NC(=O)CNC(=O)c1ccc2cc(Cl)ccc2n1

>  <score_type>  (35) 
oracle

>  <origin>  (35) 
autodockgpu

>  <m_score__min__energy>  (35) 
-8.6099999999999994

>  <m_primary>  (35) 
energy

>  <rmsd>  (35) 
8.724851322074977

>  <m_score__min__rmsd>  (35) 
8.724851322074977

>  <meeko>  (35) 
{"free_energy": -8.02, "intermolecular_energy": -9.51, "internal_energy": -1.36, "cluster_size": 25, "cluster_id": 2, "rank_in_cluster": 4}

>  <energy>  (35) 
-7.53

>  <cluster_rmsd>  (35) 
1.3

>  <cluster>  (35) 
2

$$$$

     RDKit          3D

 42 44  0  0  0  0  0  0  0  0999 V2000
  139.2000   67.7540  223.9770 C   0  0  0  0  0  0  0  0  0  0  0  0
  138.7960   68.1050  225.2910 O   0  0  0  0  0  0  0  0  0  0  0  0
  139.5400   68.8980  226.1350 C   0  0  0  0  0  0  0  0  0  0  0  0
  139.9340   68.3860  227.3660 C   0  0  0  0  0  0  0  0  0  0  0  0
  140.6830   69.1900  228.2120 C   0  0  0  0  0  0  0  0  0  0  0  0
  141.0430   70.4800  227.8610 C   0  0  0  0  0  0  0  0  0  0  0  0
  140.6360   70.9680  226.6250 C   0  0  0  0  0  0  0  0  0  0  0  0
  139.8890   70.1910  225.7610 C   0  0  0  0  0  0  0  0  0  0  0  0
  139.4610   70.6710  224.4900 N   0  0  0  0  0  0  0  0  0  0  0  0
  138.1040   70.7410  224.0950 C   0  0  0  0  0  0  0  0  0  0  0  0
  137.1930   70.3650  224.8870 O   0  0  0  0  0  0  0  0  0  0  0  0
  137.8000   71.2590  222.7480 C   0  0  0  0  0  0  0  0  0  0  0  0
  138.2540   72.6260  222.5710 N   0  0  0  0  0  0  0  0  0  0  0  0
  139.5690   72.8000  222.0490 C   0  0  0  0  0  0  0  0  0  0  0  0
  140.2110   71.7490  221.7910 O   0  0  0  0  0  0  0  0  0  0  0  0
  140.1190   74.1330  221.8320 C   0  0  0  0  0  0  0  0  0  0  0  0
  141.2780   74.2220  221.0620 C   0  0  0  0  0  0  0  0  0  0  0  0
  141.7820   75.4900  220.8690 C   0  0  0  0  0  0  0  0  0  0  0  0
  141.1770   76.5860  221.4050 C   0  0  0  0  0  0  0  0  0  0  0  0
  141.7150   77.8550  221.1900 C   0  0  0  0  0  0  0  0  0  0  0  0
  141.0840   78.9620  221.7450 C   0  0  0  0  0  0  0  0  0  0  0  0
  141.7970   80.5370  221.4490 Cl  0  0  0  0  0  0  0  0  0  0  0  0
  139.9350   78.8230  222.5040 C   0  0  0  0  0  0  0  0  0  0  0  0
  139.3900   77.5680  222.7250 C   0  0  0  0  0  0  0  0  0  0  0  0
  140.0180   76.4730  222.1740 C   0  0  0  0  0  0  0  0  0  0  0  0
  139.5370   75.2290  222.3530 N   0  0  0  0  0  0  0  0  0  0  0  0
  140.0294   67.0333  224.0286 H   0  0  0  0  0  0  0  0  0  0  0  0
  138.3528   67.3003  223.4418 H   0  0  0  0  0  0  0  0  0  0  0  0
  139.5309   68.6562  223.4418 H   0  0  0  0  0  0  0  0  0  0  0  0
  139.6572   67.3637  227.6630 H   0  0  0  0  0  0  0  0  0  0  0  0
  140.9994   68.7924  229.1876 H   0  0  0  0  0  0  0  0  0  0  0  0
  141.6373   71.1041  228.5445 H   0  0  0  0  0  0  0  0  0  0  0  0
  140.9135   71.9906  226.3296 H   0  0  0  0  0  0  0  0  0  0  0  0
  140.2160   70.9850  223.8260 H   0  0  0  0  0  0  0  0  0  0  0  0
  138.2975   70.6212  222.0026 H   0  0  0  0  0  0  0  0  0  0  0  0
  136.7075   71.2468  222.6201 H   0  0  0  0  0  0  0  0  0  0  0  0
  137.6650   73.4540  222.8060 H   0  0  0  0  0  0  0  0  0  0  0  0
  141.7619   73.3319  220.6335 H   0  0  0  0  0  0  0  0  0  0  0  0
  142.6941   75.6199  220.2681 H   0  0  0  0  0  0  0  0  0  0  0  0
  142.6277   77.9780  220.5884 H   0  0  0  0  0  0  0  0  0  0  0  0
  139.4520   79.7129  222.9339 H   0  0  0  0  0  0  0  0  0  0  0  0
  138.4768   77.4492  223.3267 H   0  0  0  0  0  0  0  0  0  0  0  0
  1  2  1  0
  2  3  1  0
  3  4  2  0
  4  5  1  0
  5  6  2  0
  6  7  1  0
  7  8  2  0
  8  9  1  0
  9 10  1  0
 10 11  2  0
 10 12  1  0
 12 13  1  0
 13 14  1  0
 14 15  2  0
 14 16  1  0
 16 17  2  0
 17 18  1  0
 18 19  2  0
 19 20  1  0
 20 21  2  0
 21 22  1  0
 21 23  1  0
 23 24  2  0
 24 25  1  0
 25 26  2  0
  8  3  1  0
 26 16  1  0
 25 19  1  0
  1 27  1  0
  1 28  1  0
  1 29  1  0
  4 30  1  0
  5 31  1  0
  6 32  1  0
  7 33  1  0
  9 34  1  0
 12 35  1  0
 12 36  1  0
 13 37  1  0
 17 38  1  0
 18 39  1  0
 20 40  1  0
 23 41  1  0
 24 42  1  0
M  END
>  <smiles>  (36) 
COc1ccccc1NC(=O)CNC(=O)c1ccc2cc(Cl)ccc2n1

>  <score_type>  (36) 
oracle

>  <origin>  (36) 
autodockgpu

>  <m_score__min__energy>  (36) 
-8.6099999999999994

>  <m_primary>  (36) 
energy

>  <rmsd>  (36) 
8.198612905667641

>  <m_score__min__rmsd>  (36) 
8.198612905667641

>  <meeko>  (36) 
{"free_energy": -7.5, "intermolecular_energy": -8.99, "internal_energy": -1.9, "cluster_size": 25, "cluster_id": 2, "rank_in_cluster": 17}

>  <energy>  (36) 
-7.53

>  <cluster_rmsd>  (36) 
1.3

>  <cluster>  (36) 
2

$$$$

     RDKit          3D

 42 44  0  0  0  0  0  0  0  0999 V2000
  138.8570   67.8670  223.4720 C   0  0  0  0  0  0  0  0  0  0  0  0
  138.6320   67.8770  224.8720 O   0  0  0  0  0  0  0  0  0  0  0  0
  139.4160   68.5670  225.7690 C   0  0  0  0  0  0  0  0  0  0  0  0
  139.9530   67.8860  226.8550 C   0  0  0  0  0  0  0  0  0  0  0  0
  140.7420   68.5880  227.7560 C   0  0  0  0  0  0  0  0  0  0  0  0
  141.0030   69.9390  227.5970 C   0  0  0  0  0  0  0  0  0  0  0  0
  140.4530   70.5950  226.5030 C   0  0  0  0  0  0  0  0  0  0  0  0
  139.6640   69.9240  225.5890 C   0  0  0  0  0  0  0  0  0  0  0  0
  139.0900   70.5760  224.4610 N   0  0  0  0  0  0  0  0  0  0  0  0
  139.8390   71.3360  223.5300 C   0  0  0  0  0  0  0  0  0  0  0  0
  141.0880   71.4660  223.6760 O   0  0  0  0  0  0  0  0  0  0  0  0
  139.1170   71.9590  222.4050 C   0  0  0  0  0  0  0  0  0  0  0  0
  139.3360   73.3910  222.3380 N   0  0  0  0  0  0  0  0  0  0  0  0
  140.4960   73.8280  221.6330 C   0  0  0  0  0  0  0  0  0  0  0  0
  141.2190   72.9260  221.1350 O   0  0  0  0  0  0  0  0  0  0  0  0
  140.8080   75.2470  221.5080 C   0  0  0  0  0  0  0  0  0  0  0  0
  141.7140   75.6100  220.5120 C   0  0  0  0  0  0  0  0  0  0  0  0
  141.9950   76.9550  220.4100 C   0  0  0  0  0  0  0  0  0  0  0  0
  141.4170   77.8690  221.2390 C   0  0  0  0  0  0  0  0  0  0  0  0
  141.7250   79.2240  221.1080 C   0  0  0  0  0  0  0  0  0  0  0  0
  141.1250   80.1410  221.9620 C   0  0  0  0  0  0  0  0  0  0  0  0
  141.5430   81.8320  221.7600 Cl  0  0  0  0  0  0  0  0  0  0  0  0
  140.2320   79.7310  222.9360 C   0  0  0  0  0  0  0  0  0  0  0  0
  139.9180   78.3890  223.0770 C   0  0  0  0  0  0  0  0  0  0  0  0
  140.5130   77.4820  222.2290 C   0  0  0  0  0  0  0  0  0  0  0  0
  140.2480   76.1650  222.3160 N   0  0  0  0  0  0  0  0  0  0  0  0
  139.9381   67.8189  223.2747 H   0  0  0  0  0  0  0  0  0  0  0  0
  138.3638   66.9899  223.0276 H   0  0  0  0  0  0  0  0  0  0  0  0
  138.4436   68.7844  223.0276 H   0  0  0  0  0  0  0  0  0  0  0  0
  139.7569   66.8131  226.9976 H   0  0  0  0  0  0  0  0  0  0  0  0
  141.1712   68.0575  228.6188 H   0  0  0  0  0  0  0  0  0  0  0  0
  141.6312   70.4798  228.3202 H   0  0  0  0  0  0  0  0  0  0  0  0
  140.6493   71.6681  226.3620 H   0  0  0  0  0  0  0  0  0  0  0  0
  138.0500   70.4710  224.3340 H   0  0  0  0  0  0  0  0  0  0  0  0
  139.4641   71.5034  221.4658 H   0  0  0  0  0  0  0  0  0  0  0  0
  138.0412   71.7892  222.5593 H   0  0  0  0  0  0  0  0  0  0  0  0
  138.6930   74.0850  222.7760 H   0  0  0  0  0  0  0  0  0  0  0  0
  142.1771   74.8663  219.8469 H   0  0  0  0  0  0  0  0  0  0  0  0
  142.7026   77.2990  219.6413 H   0  0  0  0  0  0  0  0  0  0  0  0
  142.4342   79.5618  220.3380 H   0  0  0  0  0  0  0  0  0  0  0  0
  139.7690   80.4742  223.6018 H   0  0  0  0  0  0  0  0  0  0  0  0
  139.2091   78.0555  223.8492 H   0  0  0  0  0  0  0  0  0  0  0  0
  1  2  1  0
  2  3  1  0
  3  4  2  0
  4  5  1  0
  5  6  2  0
  6  7  1  0
  7  8  2  0
  8  9  1  0
  9 10  1  0
 10 11  2  0
 10 12  1  0
 12 13  1  0
 13 14  1  0
 14 15  2  0
 14 16  1  0
 16 17  2  0
 17 18  1  0
 18 19  2  0
 19 20  1  0
 20 21  2  0
 21 22  1  0
 21 23  1  0
 23 24  2  0
 24 25  1  0
 25 26  2  0
  8  3  1  0
 26 16  1  0
 25 19  1  0
  1 27  1  0
  1 28  1  0
  1 29  1  0
  4 30  1  0
  5 31  1  0
  6 32  1  0
  7 33  1  0
  9 34  1  0
 12 35  1  0
 12 36  1  0
 13 37  1  0
 17 38  1  0
 18 39  1  0
 20 40  1  0
 23 41  1  0
 24 42  1  0
M  END
>  <smiles>  (37) 
COc1ccccc1NC(=O)CNC(=O)c1ccc2cc(Cl)ccc2n1

>  <score_type>  (37) 
oracle

>  <origin>  (37) 
autodockgpu

>  <m_score__min__energy>  (37) 
-8.6099999999999994

>  <m_primary>  (37) 
energy

>  <rmsd>  (37) 
8.671659807146543

>  <m_score__min__rmsd>  (37) 
8.671659807146543

>  <meeko>  (37) 
{"free_energy": -8.05, "intermolecular_energy": -9.54, "internal_energy": -1.31, "cluster_size": 25, "cluster_id": 2, "rank_in_cluster": 1}

>  <energy>  (37) 
-7.5

>  <cluster_rmsd>  (37) 
1.22

>  <cluster>  (37) 
2

$$$$

     RDKit          3D

 42 44  0  0  0  0  0  0  0  0999 V2000
  142.1660   79.6950  218.7930 C   0  0  0  0  0  0  0  0  0  0  0  0
  141.6770   78.8920  219.8560 O   0  0  0  0  0  0  0  0  0  0  0  0
  141.7360   79.2580  221.1810 C   0  0  0  0  0  0  0  0  0  0  0  0
  142.0880   80.5630  221.5050 C   0  0  0  0  0  0  0  0  0  0  0  0
  142.1470   80.9240  222.8430 C   0  0  0  0  0  0  0  0  0  0  0  0
  141.8640   80.0210  223.8540 C   0  0  0  0  0  0  0  0  0  0  0  0
  141.5150   78.7230  223.5040 C   0  0  0  0  0  0  0  0  0  0  0  0
  141.4480   78.3330  222.1800 C   0  0  0  0  0  0  0  0  0  0  0  0
  141.0920   77.0080  221.7990 N   0  0  0  0  0  0  0  0  0  0  0  0
  139.7590   76.5860  221.5840 C   0  0  0  0  0  0  0  0  0  0  0  0
  138.8030   77.4010  221.7310 O   0  0  0  0  0  0  0  0  0  0  0  0
  139.5320   75.1820  221.1900 C   0  0  0  0  0  0  0  0  0  0  0  0
  139.5780   74.2800  222.3250 N   0  0  0  0  0  0  0  0  0  0  0  0
  139.9200   72.9230  222.0500 C   0  0  0  0  0  0  0  0  0  0  0  0
  140.1490   72.6390  220.8450 O   0  0  0  0  0  0  0  0  0  0  0  0
  139.9950   71.9360  223.1210 C   0  0  0  0  0  0  0  0  0  0  0  0
  139.5800   70.6400  222.8170 C   0  0  0  0  0  0  0  0  0  0  0  0
  139.6590   69.7230  223.8420 C   0  0  0  0  0  0  0  0  0  0  0  0
  140.1150   70.0720  225.0770 C   0  0  0  0  0  0  0  0  0  0  0  0
  140.1820   69.1170  226.0930 C   0  0  0  0  0  0  0  0  0  0  0  0
  140.6510   69.4920  227.3460 C   0  0  0  0  0  0  0  0  0  0  0  0
  140.7150   68.2590  228.5910 Cl  0  0  0  0  0  0  0  0  0  0  0  0
  141.0510   70.7920  227.5990 C   0  0  0  0  0  0  0  0  0  0  0  0
  140.9900   71.7500  226.5990 C   0  0  0  0  0  0  0  0  0  0  0  0
  140.5250   71.3760  225.3580 C   0  0  0  0  0  0  0  0  0  0  0  0
  140.4430   72.2600  224.3470 N   0  0  0  0  0  0  0  0  0  0  0  0
  142.6964   80.5660  219.2054 H   0  0  0  0  0  0  0  0  0  0  0  0
  142.8574   79.1036  218.1748 H   0  0  0  0  0  0  0  0  0  0  0  0
  141.3232   80.0379  218.1748 H   0  0  0  0  0  0  0  0  0  0  0  0
  142.3153   81.2950  220.7160 H   0  0  0  0  0  0  0  0  0  0  0  0
  142.4259   81.9546  223.1079 H   0  0  0  0  0  0  0  0  0  0  0  0
  141.9144   80.3247  224.9100 H   0  0  0  0  0  0  0  0  0  0  0  0
  141.2880   77.9927  224.2946 H   0  0  0  0  0  0  0  0  0  0  0  0
  141.8840   76.3240  221.6750 H   0  0  0  0  0  0  0  0  0  0  0  0
  138.5432   75.1030  220.7146 H   0  0  0  0  0  0  0  0  0  0  0  0
  140.3344   74.8922  220.4957 H   0  0  0  0  0  0  0  0  0  0  0  0
  139.3760   74.5850  223.3010 H   0  0  0  0  0  0  0  0  0  0  0  0
  139.2112   70.3660  221.8175 H   0  0  0  0  0  0  0  0  0  0  0  0
  139.3464   68.6844  223.6587 H   0  0  0  0  0  0  0  0  0  0  0  0
  139.8673   68.0801  225.9039 H   0  0  0  0  0  0  0  0  0  0  0  0
  141.4192   71.0667  228.5985 H   0  0  0  0  0  0  0  0  0  0  0  0
  141.3060   72.7857  226.7924 H   0  0  0  0  0  0  0  0  0  0  0  0
  1  2  1  0
  2  3  1  0
  3  4  2  0
  4  5  1  0
  5  6  2  0
  6  7  1  0
  7  8  2  0
  8  9  1  0
  9 10  1  0
 10 11  2  0
 10 12  1  0
 12 13  1  0
 13 14  1  0
 14 15  2  0
 14 16  1  0
 16 17  2  0
 17 18  1  0
 18 19  2  0
 19 20  1  0
 20 21  2  0
 21 22  1  0
 21 23  1  0
 23 24  2  0
 24 25  1  0
 25 26  2  0
  8  3  1  0
 26 16  1  0
 25 19  1  0
  1 27  1  0
  1 28  1  0
  1 29  1  0
  4 30  1  0
  5 31  1  0
  6 32  1  0
  7 33  1  0
  9 34  1  0
 12 35  1  0
 12 36  1  0
 13 37  1  0
 17 38  1  0
 18 39  1  0
 20 40  1  0
 23 41  1  0
 24 42  1  0
M  END
>  <smiles>  (38) 
COc1ccccc1NC(=O)CNC(=O)c1ccc2cc(Cl)ccc2n1

>  <score_type>  (38) 
oracle

>  <origin>  (38) 
autodockgpu

>  <m_score__min__energy>  (38) 
-8.6099999999999994

>  <m_primary>  (38) 
energy

>  <rmsd>  (38) 
3.4128893590334304

>  <m_score__min__rmsd>  (38) 
3.4128893590334304

>  <meeko>  (38) 
{"free_energy": -8.61, "intermolecular_energy": -10.1, "internal_energy": -1.18, "cluster_size": 20, "cluster_id": 1, "rank_in_cluster": 1}

>  <energy>  (38) 
-7.49

>  <cluster_rmsd>  (38) 
1.23

>  <cluster>  (38) 
2

$$$$

     RDKit          3D

 42 44  0  0  0  0  0  0  0  0999 V2000
  137.3350   79.1180  222.3750 C   0  0  0  0  0  0  0  0  0  0  0  0
  138.2630   79.0670  223.4460 O   0  0  0  0  0  0  0  0  0  0  0  0
  139.6130   79.2930  223.3010 C   0  0  0  0  0  0  0  0  0  0  0  0
  140.1330   80.5260  223.6750 C   0  0  0  0  0  0  0  0  0  0  0  0
  141.4950   80.7470  223.5260 C   0  0  0  0  0  0  0  0  0  0  0  0
  142.3390   79.7740  223.0170 C   0  0  0  0  0  0  0  0  0  0  0  0
  141.7930   78.5510  222.6500 C   0  0  0  0  0  0  0  0  0  0  0  0
  140.4420   78.3000  222.7870 C   0  0  0  0  0  0  0  0  0  0  0  0
  139.8610   77.0540  222.4180 N   0  0  0  0  0  0  0  0  0  0  0  0
  140.2470   76.3190  221.2710 C   0  0  0  0  0  0  0  0  0  0  0  0
  141.1520   76.7620  220.5080 O   0  0  0  0  0  0  0  0  0  0  0  0
  139.5620   75.0390  221.0060 C   0  0  0  0  0  0  0  0  0  0  0  0
  139.5370   74.1780  222.1730 N   0  0  0  0  0  0  0  0  0  0  0  0
  140.0230   72.8490  221.9980 C   0  0  0  0  0  0  0  0  0  0  0  0
  140.4270   72.5510  220.8440 O   0  0  0  0  0  0  0  0  0  0  0  0
  140.0410   71.9040  223.1090 C   0  0  0  0  0  0  0  0  0  0  0  0
  139.5330   70.6290  222.8640 C   0  0  0  0  0  0  0  0  0  0  0  0
  139.5590   69.7520  223.9260 C   0  0  0  0  0  0  0  0  0  0  0  0
  140.0540   70.1190  225.1410 C   0  0  0  0  0  0  0  0  0  0  0  0
  140.0660   69.2050  226.1950 C   0  0  0  0  0  0  0  0  0  0  0  0
  140.5750   69.5970  227.4270 C   0  0  0  0  0  0  0  0  0  0  0  0
  140.5680   68.4150  228.7220 Cl  0  0  0  0  0  0  0  0  0  0  0  0
  141.0680   70.8750  227.6220 C   0  0  0  0  0  0  0  0  0  0  0  0
  141.0630   71.7930  226.5830 C   0  0  0  0  0  0  0  0  0  0  0  0
  140.5580   71.4010  225.3630 C   0  0  0  0  0  0  0  0  0  0  0  0
  140.5260   72.2470  224.3160 N   0  0  0  0  0  0  0  0  0  0  0  0
  136.3129   79.1742  222.7778 H   0  0  0  0  0  0  0  0  0  0  0  0
  137.5354   80.0065  221.7582 H   0  0  0  0  0  0  0  0  0  0  0  0
  137.4368   78.2129  221.7582 H   0  0  0  0  0  0  0  0  0  0  0  0
  139.4783   81.3112  224.0810 H   0  0  0  0  0  0  0  0  0  0  0  0
  141.9151   81.7202  223.8198 H   0  0  0  0  0  0  0  0  0  0  0  0
  143.4165   79.9654  222.9060 H   0  0  0  0  0  0  0  0  0  0  0  0
  142.4489   77.7676  222.2425 H   0  0  0  0  0  0  0  0  0  0  0  0
  139.1070   76.6790  223.0500 H   0  0  0  0  0  0  0  0  0  0  0  0
  138.5269   75.2484  220.6983 H   0  0  0  0  0  0  0  0  0  0  0  0
  140.1179   74.5167  220.2134 H   0  0  0  0  0  0  0  0  0  0  0  0
  139.1870   74.4930  223.1040 H   0  0  0  0  0  0  0  0  0  0  0  0
  139.1347   70.3402  221.8802 H   0  0  0  0  0  0  0  0  0  0  0  0
  139.1711   68.7317  223.7898 H   0  0  0  0  0  0  0  0  0  0  0  0
  139.6771   68.1860  226.0524 H   0  0  0  0  0  0  0  0  0  0  0  0
  141.4658   71.1641  228.6060 H   0  0  0  0  0  0  0  0  0  0  0  0
  141.4534   72.8109  226.7296 H   0  0  0  0  0  0  0  0  0  0  0  0
  1  2  1  0
  2  3  1  0
  3  4  2  0
  4  5  1  0
  5  6  2  0
  6  7  1  0
  7  8  2  0
  8  9  1  0
  9 10  1  0
 10 11  2  0
 10 12  1  0
 12 13  1  0
 13 14  1  0
 14 15  2  0
 14 16  1  0
 16 17  2  0
 17 18  1  0
 18 19  2  0
 19 20  1  0
 20 21  2  0
 21 22  1  0
 21 23  1  0
 23 24  2  0
 24 25  1  0
 25 26  2  0
  8  3  1  0
 26 16  1  0
 25 19  1  0
  1 27  1  0
  1 28  1  0
  1 29  1  0
  4 30  1  0
  5 31  1  0
  6 32  1  0
  7 33  1  0
  9 34  1  0
 12 35  1  0
 12 36  1  0
 13 37  1  0
 17 38  1  0
 18 39  1  0
 20 40  1  0
 23 41  1  0
 24 42  1  0
M  END
>  <smiles>  (39) 
COc1ccccc1NC(=O)CNC(=O)c1ccc2cc(Cl)ccc2n1

>  <score_type>  (39) 
oracle

>  <origin>  (39) 
autodockgpu

>  <m_score__min__energy>  (39) 
-8.6099999999999994

>  <m_primary>  (39) 
energy

>  <rmsd>  (39) 
3.1847922686150194

>  <m_score__min__rmsd>  (39) 
3.1847922686150194

>  <meeko>  (39) 
{"free_energy": -7.97, "intermolecular_energy": -9.46, "internal_energy": -1.32, "cluster_size": 20, "cluster_id": 1, "rank_in_cluster": 10}

>  <energy>  (39) 
-7.46

>  <cluster_rmsd>  (39) 
1.27

>  <cluster>  (39) 
2

$$$$

     RDKit          3D

 42 44  0  0  0  0  0  0  0  0999 V2000
  137.5540   79.8220  223.1820 C   0  0  0  0  0  0  0  0  0  0  0  0
  138.7510   79.3540  223.7820 O   0  0  0  0  0  0  0  0  0  0  0  0
  140.0040   79.5600  223.2530 C   0  0  0  0  0  0  0  0  0  0  0  0
  140.6750   80.7400  223.5520 C   0  0  0  0  0  0  0  0  0  0  0  0
  141.9380   80.9420  223.0150 C   0  0  0  0  0  0  0  0  0  0  0  0
  142.5400   80.0020  222.1940 C   0  0  0  0  0  0  0  0  0  0  0  0
  141.8470   78.8320  221.9100 C   0  0  0  0  0  0  0  0  0  0  0  0
  140.5880   78.6020  222.4300 C   0  0  0  0  0  0  0  0  0  0  0  0
  139.8610   77.4100  222.1530 N   0  0  0  0  0  0  0  0  0  0  0  0
  140.3930   76.3180  221.4260 C   0  0  0  0  0  0  0  0  0  0  0  0
  141.5750   76.3680  220.9810 O   0  0  0  0  0  0  0  0  0  0  0  0
  139.5280   75.1420  221.2100 C   0  0  0  0  0  0  0  0  0  0  0  0
  139.5500   74.2310  222.3390 N   0  0  0  0  0  0  0  0  0  0  0  0
  139.9300   72.8850  222.0660 C   0  0  0  0  0  0  0  0  0  0  0  0
  140.2100   72.6160  220.8680 O   0  0  0  0  0  0  0  0  0  0  0  0
  139.9840   71.8900  223.1310 C   0  0  0  0  0  0  0  0  0  0  0  0
  139.5360   70.6060  222.8210 C   0  0  0  0  0  0  0  0  0  0  0  0
  139.5950   69.6810  223.8410 C   0  0  0  0  0  0  0  0  0  0  0  0
  140.0650   70.0120  225.0760 C   0  0  0  0  0  0  0  0  0  0  0  0
  140.1110   69.0500  226.0860 C   0  0  0  0  0  0  0  0  0  0  0  0
  140.5940   69.4060  227.3400 C   0  0  0  0  0  0  0  0  0  0  0  0
  140.6330   68.1640  228.5770 Cl  0  0  0  0  0  0  0  0  0  0  0  0
  141.0280   70.6940  227.5990 C   0  0  0  0  0  0  0  0  0  0  0  0
  140.9870   71.6590  226.6040 C   0  0  0  0  0  0  0  0  0  0  0  0
  140.5080   71.3030  225.3630 C   0  0  0  0  0  0  0  0  0  0  0  0
  140.4440   72.1950  224.3570 N   0  0  0  0  0  0  0  0  0  0  0  0
  136.8360   80.1027  223.9666 H   0  0  0  0  0  0  0  0  0  0  0  0
  137.7759   80.6996  222.5570 H   0  0  0  0  0  0  0  0  0  0  0  0
  137.1218   79.0266  222.5570 H   0  0  0  0  0  0  0  0  0  0  0  0
  140.2137   81.4985  224.2015 H   0  0  0  0  0  0  0  0  0  0  0  0
  142.4759   81.8730  223.2471 H   0  0  0  0  0  0  0  0  0  0  0  0
  143.5426   80.1780  221.7771 H   0  0  0  0  0  0  0  0  0  0  0  0
  142.3091   78.0750  221.2593 H   0  0  0  0  0  0  0  0  0  0  0  0
  138.8750   77.3620  222.5210 H   0  0  0  0  0  0  0  0  0  0  0  0
  138.4951   75.4861  221.0525 H   0  0  0  0  0  0  0  0  0  0  0  0
  139.9078   74.6001  220.3313 H   0  0  0  0  0  0  0  0  0  0  0  0
  139.3050   74.5240  223.3090 H   0  0  0  0  0  0  0  0  0  0  0  0
  139.1578   70.3469  221.8211 H   0  0  0  0  0  0  0  0  0  0  0  0
  139.2548   68.6519  223.6535 H   0  0  0  0  0  0  0  0  0  0  0  0
  139.7692   68.0226  225.8922 H   0  0  0  0  0  0  0  0  0  0  0  0
  141.4072   70.9536  228.5984 H   0  0  0  0  0  0  0  0  0  0  0  0
  141.3293   72.6855  226.8016 H   0  0  0  0  0  0  0  0  0  0  0  0
  1  2  1  0
  2  3  1  0
  3  4  2  0
  4  5  1  0
  5  6  2  0
  6  7  1  0
  7  8  2  0
  8  9  1  0
  9 10  1  0
 10 11  2  0
 10 12  1  0
 12 13  1  0
 13 14  1  0
 14 15  2  0
 14 16  1  0
 16 17  2  0
 17 18  1  0
 18 19  2  0
 19 20  1  0
 20 21  2  0
 21 22  1  0
 21 23  1  0
 23 24  2  0
 24 25  1  0
 25 26  2  0
  8  3  1  0
 26 16  1  0
 25 19  1  0
  1 27  1  0
  1 28  1  0
  1 29  1  0
  4 30  1  0
  5 31  1  0
  6 32  1  0
  7 33  1  0
  9 34  1  0
 12 35  1  0
 12 36  1  0
 13 37  1  0
 17 38  1  0
 18 39  1  0
 20 40  1  0
 23 41  1  0
 24 42  1  0
M  END
>  <smiles>  (40) 
COc1ccccc1NC(=O)CNC(=O)c1ccc2cc(Cl)ccc2n1

>  <score_type>  (40) 
oracle

>  <origin>  (40) 
autodockgpu

>  <m_score__min__energy>  (40) 
-8.6099999999999994

>  <m_primary>  (40) 
energy

>  <rmsd>  (40) 
3.0324135535449415

>  <m_score__min__rmsd>  (40) 
3.0324135535449415

>  <meeko>  (40) 
{"free_energy": -7.87, "intermolecular_energy": -9.36, "internal_energy": -1.35, "cluster_size": 20, "cluster_id": 1, "rank_in_cluster": 13}

>  <energy>  (40) 
-7.37

>  <cluster_rmsd>  (40) 
1.3

>  <cluster>  (40) 
2

$$$$

     RDKit          3D

 42 44  0  0  0  0  0  0  0  0999 V2000
  141.7140   79.7750  218.6410 C   0  0  0  0  0  0  0  0  0  0  0  0
  141.9100   78.9170  219.7540 O   0  0  0  0  0  0  0  0  0  0  0  0
  141.7820   79.3200  221.0630 C   0  0  0  0  0  0  0  0  0  0  0  0
  142.0570   80.6420  221.3910 C   0  0  0  0  0  0  0  0  0  0  0  0
  141.9270   81.0420  222.7130 C   0  0  0  0  0  0  0  0  0  0  0  0
  141.5320   80.1600  223.7050 C   0  0  0  0  0  0  0  0  0  0  0  0
  141.2640   78.8430  223.3510 C   0  0  0  0  0  0  0  0  0  0  0  0
  141.3840   78.4150  222.0430 C   0  0  0  0  0  0  0  0  0  0  0  0
  141.1140   77.0710  221.6580 N   0  0  0  0  0  0  0  0  0  0  0  0
  139.8150   76.5110  221.6280 C   0  0  0  0  0  0  0  0  0  0  0  0
  138.8140   77.2110  221.9550 O   0  0  0  0  0  0  0  0  0  0  0  0
  139.6770   75.1030  221.2080 C   0  0  0  0  0  0  0  0  0  0  0  0
  139.6510   74.1950  222.3390 N   0  0  0  0  0  0  0  0  0  0  0  0
  140.0820   72.8580  222.0940 C   0  0  0  0  0  0  0  0  0  0  0  0
  140.4450   72.5950  220.9180 O   0  0  0  0  0  0  0  0  0  0  0  0
  140.0940   71.8660  223.1630 C   0  0  0  0  0  0  0  0  0  0  0  0
  139.6000   70.5990  222.8560 C   0  0  0  0  0  0  0  0  0  0  0  0
  139.6200   69.6760  223.8800 C   0  0  0  0  0  0  0  0  0  0  0  0
  140.0950   69.9940  225.1160 C   0  0  0  0  0  0  0  0  0  0  0  0
  140.1000   69.0350  226.1300 C   0  0  0  0  0  0  0  0  0  0  0  0
  140.5900   69.3780  227.3850 C   0  0  0  0  0  0  0  0  0  0  0  0
  140.5750   68.1400  228.6270 Cl  0  0  0  0  0  0  0  0  0  0  0  0
  141.0690   70.6500  227.6410 C   0  0  0  0  0  0  0  0  0  0  0  0
  141.0690   71.6120  226.6430 C   0  0  0  0  0  0  0  0  0  0  0  0
  140.5840   71.2690  225.4010 C   0  0  0  0  0  0  0  0  0  0  0  0
  140.5590   72.1590  224.3910 N   0  0  0  0  0  0  0  0  0  0  0  0
  141.4822   80.7898  218.9967 H   0  0  0  0  0  0  0  0  0  0  0  0
  142.6295   79.8002  218.0318 H   0  0  0  0  0  0  0  0  0  0  0  0
  140.8783   79.4002  218.0318 H   0  0  0  0  0  0  0  0  0  0  0  0
  142.3718   81.3577  220.6172 H   0  0  0  0  0  0  0  0  0  0  0  0
  142.1433   82.0869  222.9803 H   0  0  0  0  0  0  0  0  0  0  0  0
  141.4327   80.4939  224.7484 H   0  0  0  0  0  0  0  0  0  0  0  0
  140.9507   78.1285  224.1264 H   0  0  0  0  0  0  0  0  0  0  0  0
  141.9440   76.4830  221.3850 H   0  0  0  0  0  0  0  0  0  0  0  0
  138.7399   74.9919  220.6427 H   0  0  0  0  0  0  0  0  0  0  0  0
  140.5498   74.8476  220.5892 H   0  0  0  0  0  0  0  0  0  0  0  0
  139.3360   74.4820  223.2900 H   0  0  0  0  0  0  0  0  0  0  0  0
  139.2167   70.3503  221.8554 H   0  0  0  0  0  0  0  0  0  0  0  0
  139.2436   68.6592  223.6943 H   0  0  0  0  0  0  0  0  0  0  0  0
  139.7209   68.0203  225.9386 H   0  0  0  0  0  0  0  0  0  0  0  0
  141.4519   70.8995  228.6416 H   0  0  0  0  0  0  0  0  0  0  0  0
  141.4477   72.6260  226.8388 H   0  0  0  0  0  0  0  0  0  0  0  0
  1  2  1  0
  2  3  1  0
  3  4  2  0
  4  5  1  0
  5  6  2  0
  6  7  1  0
  7  8  2  0
  8  9  1  0
  9 10  1  0
 10 11  2  0
 10 12  1  0
 12 13  1  0
 13 14  1  0
 14 15  2  0
 14 16  1  0
 16 17  2  0
 17 18  1  0
 18 19  2  0
 19 20  1  0
 20 21  2  0
 21 22  1  0
 21 23  1  0
 23 24  2  0
 24 25  1  0
 25 26  2  0
  8  3  1  0
 26 16  1  0
 25 19  1  0
  1 27  1  0
  1 28  1  0
  1 29  1  0
  4 30  1  0
  5 31  1  0
  6 32  1  0
  7 33  1  0
  9 34  1  0
 12 35  1  0
 12 36  1  0
 13 37  1  0
 17 38  1  0
 18 39  1  0
 20 40  1  0
 23 41  1  0
 24 42  1  0
M  END
>  <smiles>  (41) 
COc1ccccc1NC(=O)CNC(=O)c1ccc2cc(Cl)ccc2n1

>  <score_type>  (41) 
oracle

>  <origin>  (41) 
autodockgpu

>  <m_score__min__energy>  (41) 
-8.6099999999999994

>  <m_primary>  (41) 
energy

>  <rmsd>  (41) 
3.3643366269965145

>  <m_score__min__rmsd>  (41) 
3.3643366269965145

>  <meeko>  (41) 
{"free_energy": -8.33, "intermolecular_energy": -9.82, "internal_energy": -1.19, "cluster_size": 20, "cluster_id": 1, "rank_in_cluster": 9}

>  <energy>  (41) 
-7.35

>  <cluster_rmsd>  (41) 
1.26

>  <cluster>  (41) 
2

$$$$

     RDKit          3D

 42 44  0  0  0  0  0  0  0  0999 V2000
  141.8420   79.5300  218.7970 C   0  0  0  0  0  0  0  0  0  0  0  0
  141.8130   78.6400  219.9010 O   0  0  0  0  0  0  0  0  0  0  0  0
  141.8250   79.0500  221.2150 C   0  0  0  0  0  0  0  0  0  0  0  0
  142.2050   80.3540  221.5100 C   0  0  0  0  0  0  0  0  0  0  0  0
  142.2160   80.7600  222.8370 C   0  0  0  0  0  0  0  0  0  0  0  0
  141.8600   79.9020  223.8640 C   0  0  0  0  0  0  0  0  0  0  0  0
  141.4860   78.6040  223.5420 C   0  0  0  0  0  0  0  0  0  0  0  0
  141.4640   78.1700  222.2310 C   0  0  0  0  0  0  0  0  0  0  0  0
  141.0840   76.8440  221.8780 N   0  0  0  0  0  0  0  0  0  0  0  0
  139.7960   76.4980  221.4030 C   0  0  0  0  0  0  0  0  0  0  0  0
  138.9080   77.3890  221.2720 O   0  0  0  0  0  0  0  0  0  0  0  0
  139.5360   75.0840  221.0730 C   0  0  0  0  0  0  0  0  0  0  0  0
  139.6170   74.2250  222.2390 N   0  0  0  0  0  0  0  0  0  0  0  0
  139.8170   72.8350  221.9960 C   0  0  0  0  0  0  0  0  0  0  0  0
  139.9040   72.4860  220.7900 O   0  0  0  0  0  0  0  0  0  0  0  0
  139.9130   71.8860  223.1000 C   0  0  0  0  0  0  0  0  0  0  0  0
  139.4980   70.5790  222.8490 C   0  0  0  0  0  0  0  0  0  0  0  0
  139.5970   69.6990  223.9050 C   0  0  0  0  0  0  0  0  0  0  0  0
  140.0720   70.0930  225.1190 C   0  0  0  0  0  0  0  0  0  0  0  0
  140.1580   69.1750  226.1660 C   0  0  0  0  0  0  0  0  0  0  0  0
  140.6470   69.5950  227.3980 C   0  0  0  0  0  0  0  0  0  0  0  0
  140.7360   68.4070  228.6840 Cl  0  0  0  0  0  0  0  0  0  0  0  0
  141.0460   70.9050  227.5980 C   0  0  0  0  0  0  0  0  0  0  0  0
  140.9650   71.8270  226.5660 C   0  0  0  0  0  0  0  0  0  0  0  0
  140.4820   71.4070  225.3470 C   0  0  0  0  0  0  0  0  0  0  0  0
  140.3800   72.2550  224.3070 N   0  0  0  0  0  0  0  0  0  0  0  0
  141.8758   80.5669  219.1627 H   0  0  0  0  0  0  0  0  0  0  0  0
  142.7340   79.3274  218.1860 H   0  0  0  0  0  0  0  0  0  0  0  0
  140.9387   79.3859  218.1860 H   0  0  0  0  0  0  0  0  0  0  0  0
  142.4912   81.0501  220.7078 H   0  0  0  0  0  0  0  0  0  0  0  0
  142.5154   81.7904  223.0794 H   0  0  0  0  0  0  0  0  0  0  0  0
  141.8732   80.2407  224.9105 H   0  0  0  0  0  0  0  0  0  0  0  0
  141.2021   77.9088  224.3458 H   0  0  0  0  0  0  0  0  0  0  0  0
  141.8200   76.0980  221.9850 H   0  0  0  0  0  0  0  0  0  0  0  0
  138.5278   75.0007  220.6411 H   0  0  0  0  0  0  0  0  0  0  0  0
  140.3060   74.7570  220.3587 H   0  0  0  0  0  0  0  0  0  0  0  0
  139.5360   74.5840  223.2150 H   0  0  0  0  0  0  0  0  0  0  0  0
  139.1142   70.2684  221.8660 H   0  0  0  0  0  0  0  0  0  0  0  0
  139.2850   68.6537  223.7640 H   0  0  0  0  0  0  0  0  0  0  0  0
  139.8428   68.1315  226.0187 H   0  0  0  0  0  0  0  0  0  0  0  0
  141.4294   71.2162  228.5809 H   0  0  0  0  0  0  0  0  0  0  0  0
  141.2794   72.8702  226.7175 H   0  0  0  0  0  0  0  0  0  0  0  0
  1  2  1  0
  2  3  1  0
  3  4  2  0
  4  5  1  0
  5  6  2  0
  6  7  1  0
  7  8  2  0
  8  9  1  0
  9 10  1  0
 10 11  2  0
 10 12  1  0
 12 13  1  0
 13 14  1  0
 14 15  2  0
 14 16  1  0
 16 17  2  0
 17 18  1  0
 18 19  2  0
 19 20  1  0
 20 21  2  0
 21 22  1  0
 21 23  1  0
 23 24  2  0
 24 25  1  0
 25 26  2  0
  8  3  1  0
 26 16  1  0
 25 19  1  0
  1 27  1  0
  1 28  1  0
  1 29  1  0
  4 30  1  0
  5 31  1  0
  6 32  1  0
  7 33  1  0
  9 34  1  0
 12 35  1  0
 12 36  1  0
 13 37  1  0
 17 38  1  0
 18 39  1  0
 20 40  1  0
 23 41  1  0
 24 42  1  0
M  END
>  <smiles>  (42) 
COc1ccccc1NC(=O)CNC(=O)c1ccc2cc(Cl)ccc2n1

>  <score_type>  (42) 
oracle

>  <origin>  (42) 
autodockgpu

>  <m_score__min__energy>  (42) 
-8.6099999999999994

>  <m_primary>  (42) 
energy

>  <rmsd>  (42) 
3.3682414148331725

>  <m_score__min__rmsd>  (42) 
3.3682414148331725

>  <meeko>  (42) 
{"free_energy": -8.57, "intermolecular_energy": -10.06, "internal_energy": -1.21, "cluster_size": 20, "cluster_id": 1, "rank_in_cluster": 2}

>  <energy>  (42) 
-7.33

>  <cluster_rmsd>  (42) 
1.7

>  <cluster>  (42) 
2

$$$$

     RDKit          3D

 42 44  0  0  0  0  0  0  0  0999 V2000
  141.4200   72.2940  227.5900 C   0  0  0  0  0  0  0  0  0  0  0  0
  140.5340   71.6460  226.6920 O   0  0  0  0  0  0  0  0  0  0  0  0
  140.3390   70.2840  226.6580 C   0  0  0  0  0  0  0  0  0  0  0  0
  141.0640   69.4780  227.5280 C   0  0  0  0  0  0  0  0  0  0  0  0
  140.8640   68.1060  227.4880 C   0  0  0  0  0  0  0  0  0  0  0  0
  139.9640   67.5270  226.6080 C   0  0  0  0  0  0  0  0  0  0  0  0
  139.2530   68.3550  225.7490 C   0  0  0  0  0  0  0  0  0  0  0  0
  139.4300   69.7240  225.7650 C   0  0  0  0  0  0  0  0  0  0  0  0
  138.7120   70.5910  224.8930 N   0  0  0  0  0  0  0  0  0  0  0  0
  137.6990   70.1500  224.0080 C   0  0  0  0  0  0  0  0  0  0  0  0
  137.3890   68.9250  223.9590 O   0  0  0  0  0  0  0  0  0  0  0  0
  137.0340   71.1560  223.1600 C   0  0  0  0  0  0  0  0  0  0  0  0
  136.3100   72.1410  223.9420 N   0  0  0  0  0  0  0  0  0  0  0  0
  135.1020   71.7040  224.5590 C   0  0  0  0  0  0  0  0  0  0  0  0
  134.7790   70.5020  224.3660 O   0  0  0  0  0  0  0  0  0  0  0  0
  134.3000   72.6150  225.3680 C   0  0  0  0  0  0  0  0  0  0  0  0
  133.2920   72.0490  226.1470 C   0  0  0  0  0  0  0  0  0  0  0  0
  132.5450   72.9270  226.9030 C   0  0  0  0  0  0  0  0  0  0  0  0
  132.7850   74.2670  226.8820 C   0  0  0  0  0  0  0  0  0  0  0  0
  132.0100   75.1280  227.6600 C   0  0  0  0  0  0  0  0  0  0  0  0
  132.2700   76.4920  227.6270 C   0  0  0  0  0  0  0  0  0  0  0  0
  131.2700   77.5340  228.6200 Cl  0  0  0  0  0  0  0  0  0  0  0  0
  133.2830   77.0070  226.8360 C   0  0  0  0  0  0  0  0  0  0  0  0
  134.0600   76.1630  226.0580 C   0  0  0  0  0  0  0  0  0  0  0  0
  133.8000   74.8110  226.0940 C   0  0  0  0  0  0  0  0  0  0  0  0
  134.5210   73.9420  225.3620 N   0  0  0  0  0  0  0  0  0  0  0  0
  141.1190   72.0739  228.6249 H   0  0  0  0  0  0  0  0  0  0  0  0
  142.4443   71.9304  227.4208 H   0  0  0  0  0  0  0  0  0  0  0  0
  141.3839   73.3803  227.4208 H   0  0  0  0  0  0  0  0  0  0  0  0
  141.7823   69.9196  228.2344 H   0  0  0  0  0  0  0  0  0  0  0  0
  141.4346   67.4611  228.1725 H   0  0  0  0  0  0  0  0  0  0  0  0
  139.8161   66.4371  226.5901 H   0  0  0  0  0  0  0  0  0  0  0  0
  138.5355   67.9117  225.0428 H   0  0  0  0  0  0  0  0  0  0  0  0
  138.9650   71.6130  224.9300 H   0  0  0  0  0  0  0  0  0  0  0  0
  137.7968   71.6723  222.5587 H   0  0  0  0  0  0  0  0  0  0  0  0
  136.3076   70.6319  222.5215 H   0  0  0  0  0  0  0  0  0  0  0  0
  136.6380   73.1230  224.0610 H   0  0  0  0  0  0  0  0  0  0  0  0
  133.1037   70.9653  226.1578 H   0  0  0  0  0  0  0  0  0  0  0  0
  131.7363   72.5359  227.5379 H   0  0  0  0  0  0  0  0  0  0  0  0
  131.2022   74.7309  228.2923 H   0  0  0  0  0  0  0  0  0  0  0  0
  133.4720   78.0906  226.8249 H   0  0  0  0  0  0  0  0  0  0  0  0
  134.8661   76.5640  225.4261 H   0  0  0  0  0  0  0  0  0  0  0  0
  1  2  1  0
  2  3  1  0
  3  4  2  0
  4  5  1  0
  5  6  2  0
  6  7  1  0
  7  8  2  0
  8  9  1  0
  9 10  1  0
 10 11  2  0
 10 12  1  0
 12 13  1  0
 13 14  1  0
 14 15  2  0
 14 16  1  0
 16 17  2  0
 17 18  1  0
 18 19  2  0
 19 20  1  0
 20 21  2  0
 21 22  1  0
 21 23  1  0
 23 24  2  0
 24 25  1  0
 25 26  2  0
  8  3  1  0
 26 16  1  0
 25 19  1  0
  1 27  1  0
  1 28  1  0
  1 29  1  0
  4 30  1  0
  5 31  1  0
  6 32  1  0
  7 33  1  0
  9 34  1  0
 12 35  1  0
 12 36  1  0
 13 37  1  0
 17 38  1  0
 18 39  1  0
 20 40  1  0
 23 41  1  0
 24 42  1  0
M  END
>  <smiles>  (43) 
COc1ccccc1NC(=O)CNC(=O)c1ccc2cc(Cl)ccc2n1

>  <score_type>  (43) 
oracle

>  <origin>  (43) 
autodockgpu

>  <m_score__min__energy>  (43) 
-8.6099999999999994

>  <m_primary>  (43) 
energy

>  <rmsd>  (43) 
8.640429525266718

>  <m_score__min__rmsd>  (43) 
8.640429525266718

>  <meeko>  (43) 
{"free_energy": -7.6, "intermolecular_energy": -9.09, "internal_energy": -1.52, "cluster_size": 5, "cluster_id": 3, "rank_in_cluster": 2}

>  <energy>  (43) 
-7.29

>  <cluster_rmsd>  (43) 
1.21

>  <cluster>  (43) 
2

$$$$

     RDKit          3D

 42 44  0  0  0  0  0  0  0  0999 V2000
  141.8150   79.4800  218.7940 C   0  0  0  0  0  0  0  0  0  0  0  0
  142.1450   78.7600  219.9710 O   0  0  0  0  0  0  0  0  0  0  0  0
  141.8310   79.1840  221.2420 C   0  0  0  0  0  0  0  0  0  0  0  0
  142.0760   80.5070  221.5900 C   0  0  0  0  0  0  0  0  0  0  0  0
  141.7580   80.9280  222.8730 C   0  0  0  0  0  0  0  0  0  0  0  0
  141.2060   80.0660  223.8060 C   0  0  0  0  0  0  0  0  0  0  0  0
  140.9720   78.7490  223.4330 C   0  0  0  0  0  0  0  0  0  0  0  0
  141.2780   78.3000  222.1630 C   0  0  0  0  0  0  0  0  0  0  0  0
  141.0470   76.9540  221.7590 N   0  0  0  0  0  0  0  0  0  0  0  0
  139.7590   76.4180  221.5210 C   0  0  0  0  0  0  0  0  0  0  0  0
  138.7330   77.1430  221.6660 O   0  0  0  0  0  0  0  0  0  0  0  0
  139.6620   75.0050  221.1060 C   0  0  0  0  0  0  0  0  0  0  0  0
  139.5530   74.1070  222.2400 N   0  0  0  0  0  0  0  0  0  0  0  0
  140.2490   72.8670  222.1420 C   0  0  0  0  0  0  0  0  0  0  0  0
  140.8930   72.6710  221.0780 O   0  0  0  0  0  0  0  0  0  0  0  0
  140.2040   71.8930  223.2270 C   0  0  0  0  0  0  0  0  0  0  0  0
  139.6730   70.6390  222.9300 C   0  0  0  0  0  0  0  0  0  0  0  0
  139.6400   69.7340  223.9690 C   0  0  0  0  0  0  0  0  0  0  0  0
  140.0990   70.0560  225.2100 C   0  0  0  0  0  0  0  0  0  0  0  0
  140.0500   69.1150  226.2390 C   0  0  0  0  0  0  0  0  0  0  0  0
  140.5240   69.4630  227.4990 C   0  0  0  0  0  0  0  0  0  0  0  0
  140.4410   68.2480  228.7600 Cl  0  0  0  0  0  0  0  0  0  0  0  0
  141.0410   70.7220  227.7450 C   0  0  0  0  0  0  0  0  0  0  0  0
  141.0950   71.6660  226.7310 C   0  0  0  0  0  0  0  0  0  0  0  0
  140.6260   71.3190  225.4840 C   0  0  0  0  0  0  0  0  0  0  0  0
  140.6520   72.1920  224.4600 N   0  0  0  0  0  0  0  0  0  0  0  0
  141.3712   80.4483  219.0688 H   0  0  0  0  0  0  0  0  0  0  0  0
  142.7254   79.6492  218.2003 H   0  0  0  0  0  0  0  0  0  0  0  0
  141.0925   78.9008  218.2003 H   0  0  0  0  0  0  0  0  0  0  0  0
  142.5135   81.2065  220.8625 H   0  0  0  0  0  0  0  0  0  0  0  0
  141.9492   81.9735  223.1567 H   0  0  0  0  0  0  0  0  0  0  0  0
  140.9587   80.4165  224.8189 H   0  0  0  0  0  0  0  0  0  0  0  0
  140.5351   78.0507  224.1620 H   0  0  0  0  0  0  0  0  0  0  0  0
  141.8970   76.3450  221.6360 H   0  0  0  0  0  0  0  0  0  0  0  0
  138.7725   74.8827  220.4705 H   0  0  0  0  0  0  0  0  0  0  0  0
  140.5822   74.7495  220.5602 H   0  0  0  0  0  0  0  0  0  0  0  0
  139.0000   74.3360  223.0940 H   0  0  0  0  0  0  0  0  0  0  0  0
  139.3022   70.3865  221.9256 H   0  0  0  0  0  0  0  0  0  0  0  0
  139.2332   68.7275  223.7915 H   0  0  0  0  0  0  0  0  0  0  0  0
  139.6415   68.1103  226.0557 H   0  0  0  0  0  0  0  0  0  0  0  0
  141.4109   70.9754  228.7494 H   0  0  0  0  0  0  0  0  0  0  0  0
  141.5035   72.6699  226.9187 H   0  0  0  0  0  0  0  0  0  0  0  0
  1  2  1  0
  2  3  1  0
  3  4  2  0
  4  5  1  0
  5  6  2  0
  6  7  1  0
  7  8  2  0
  8  9  1  0
  9 10  1  0
 10 11  2  0
 10 12  1  0
 12 13  1  0
 13 14  1  0
 14 15  2  0
 14 16  1  0
 16 17  2  0
 17 18  1  0
 18 19  2  0
 19 20  1  0
 20 21  2  0
 21 22  1  0
 21 23  1  0
 23 24  2  0
 24 25  1  0
 25 26  2  0
  8  3  1  0
 26 16  1  0
 25 19  1  0
  1 27  1  0
  1 28  1  0
  1 29  1  0
  4 30  1  0
  5 31  1  0
  6 32  1  0
  7 33  1  0
  9 34  1  0
 12 35  1  0
 12 36  1  0
 13 37  1  0
 17 38  1  0
 18 39  1  0
 20 40  1  0
 23 41  1  0
 24 42  1  0
M  END
>  <smiles>  (44) 
COc1ccccc1NC(=O)CNC(=O)c1ccc2cc(Cl)ccc2n1

>  <score_type>  (44) 
oracle

>  <origin>  (44) 
autodockgpu

>  <m_score__min__energy>  (44) 
-8.6099999999999994

>  <m_primary>  (44) 
energy

>  <rmsd>  (44) 
3.3550543682414045

>  <m_score__min__rmsd>  (44) 
3.3550543682414045

>  <meeko>  (44) 
{"free_energy": -8.4, "intermolecular_energy": -9.89, "internal_energy": -1.17, "cluster_size": 20, "cluster_id": 1, "rank_in_cluster": 7}

>  <energy>  (44) 
-7.26

>  <cluster_rmsd>  (44) 
1.27

>  <cluster>  (44) 
2

$$$$

     RDKit          3D

 42 44  0  0  0  0  0  0  0  0999 V2000
  138.8360   67.3580  223.2010 C   0  0  0  0  0  0  0  0  0  0  0  0
  138.4710   67.8010  224.4980 O   0  0  0  0  0  0  0  0  0  0  0  0
  139.3660   68.2980  225.4170 C   0  0  0  0  0  0  0  0  0  0  0  0
  139.5360   67.6270  226.6220 C   0  0  0  0  0  0  0  0  0  0  0  0
  140.4390   68.1340  227.5450 C   0  0  0  0  0  0  0  0  0  0  0  0
  141.1690   69.2840  227.2940 C   0  0  0  0  0  0  0  0  0  0  0  0
  140.9790   69.9370  226.0820 C   0  0  0  0  0  0  0  0  0  0  0  0
  140.0870   69.4560  225.1430 C   0  0  0  0  0  0  0  0  0  0  0  0
  139.8780   70.1080  223.8940 N   0  0  0  0  0  0  0  0  0  0  0  0
  140.0000   71.5060  223.7100 C   0  0  0  0  0  0  0  0  0  0  0  0
  140.3110   72.2500  224.6840 O   0  0  0  0  0  0  0  0  0  0  0  0
  139.7550   72.0510  222.3610 C   0  0  0  0  0  0  0  0  0  0  0  0
  139.8740   73.4960  222.3230 N   0  0  0  0  0  0  0  0  0  0  0  0
  140.9410   74.0300  221.5430 C   0  0  0  0  0  0  0  0  0  0  0  0
  141.6790   73.1930  220.9610 O   0  0  0  0  0  0  0  0  0  0  0  0
  141.1470   75.4700  221.4390 C   0  0  0  0  0  0  0  0  0  0  0  0
  141.9530   75.9200  220.3940 C   0  0  0  0  0  0  0  0  0  0  0  0
  142.1360   77.2830  220.3140 C   0  0  0  0  0  0  0  0  0  0  0  0
  141.5580   78.1330  221.2070 C   0  0  0  0  0  0  0  0  0  0  0  0
  141.7640   79.5090  221.0960 C   0  0  0  0  0  0  0  0  0  0  0  0
  141.1660   80.3610  222.0170 C   0  0  0  0  0  0  0  0  0  0  0  0
  141.4540   82.0810  221.8380 Cl  0  0  0  0  0  0  0  0  0  0  0  0
  140.3740   79.8660  223.0380 C   0  0  0  0  0  0  0  0  0  0  0  0
  140.1610   78.5020  223.1600 C   0  0  0  0  0  0  0  0  0  0  0  0
  140.7550   77.6600  222.2450 C   0  0  0  0  0  0  0  0  0  0  0  0
  140.5860   76.3260  222.3110 N   0  0  0  0  0  0  0  0  0  0  0  0
  139.5334   66.5116  223.2854 H   0  0  0  0  0  0  0  0  0  0  0  0
  137.9357   67.0383  222.6558 H   0  0  0  0  0  0  0  0  0  0  0  0
  139.3220   68.1806  222.6558 H   0  0  0  0  0  0  0  0  0  0  0  0
  138.9658   66.7119  226.8396 H   0  0  0  0  0  0  0  0  0  0  0  0
  140.5789   67.6089  228.5014 H   0  0  0  0  0  0  0  0  0  0  0  0
  141.8823   69.6713  228.0364 H   0  0  0  0  0  0  0  0  0  0  0  0
  141.5488   70.8529  225.8665 H   0  0  0  0  0  0  0  0  0  0  0  0
  139.6190   69.4940  223.0790 H   0  0  0  0  0  0  0  0  0  0  0  0
  140.4882   71.6169  221.6652 H   0  0  0  0  0  0  0  0  0  0  0  0
  138.7259   71.7896  222.0734 H   0  0  0  0  0  0  0  0  0  0  0  0
  139.2230   74.1320  222.8330 H   0  0  0  0  0  0  0  0  0  0  0  0
  142.4156   75.2273  219.6756 H   0  0  0  0  0  0  0  0  0  0  0  0
  142.7638   77.6943  219.5098 H   0  0  0  0  0  0  0  0  0  0  0  0
  142.3922   79.9143  220.2891 H   0  0  0  0  0  0  0  0  0  0  0  0
  139.9111   80.5586  223.7564 H   0  0  0  0  0  0  0  0  0  0  0  0
  139.5323   78.1008  223.9686 H   0  0  0  0  0  0  0  0  0  0  0  0
  1  2  1  0
  2  3  1  0
  3  4  2  0
  4  5  1  0
  5  6  2  0
  6  7  1  0
  7  8  2  0
  8  9  1  0
  9 10  1  0
 10 11  2  0
 10 12  1  0
 12 13  1  0
 13 14  1  0
 14 15  2  0
 14 16  1  0
 16 17  2  0
 17 18  1  0
 18 19  2  0
 19 20  1  0
 20 21  2  0
 21 22  1  0
 21 23  1  0
 23 24  2  0
 24 25  1  0
 25 26  2  0
  8  3  1  0
 26 16  1  0
 25 19  1  0
  1 27  1  0
  1 28  1  0
  1 29  1  0
  4 30  1  0
  5 31  1  0
  6 32  1  0
  7 33  1  0
  9 34  1  0
 12 35  1  0
 12 36  1  0
 13 37  1  0
 17 38  1  0
 18 39  1  0
 20 40  1  0
 23 41  1  0
 24 42  1  0
M  END
>  <smiles>  (45) 
COc1ccccc1NC(=O)CNC(=O)c1ccc2cc(Cl)ccc2n1

>  <score_type>  (45) 
oracle

>  <origin>  (45) 
autodockgpu

>  <m_score__min__energy>  (45) 
-8.6099999999999994

>  <m_primary>  (45) 
energy

>  <rmsd>  (45) 
8.84716796355529

>  <m_score__min__rmsd>  (45) 
8.84716796355529

>  <meeko>  (45) 
{"free_energy": -7.65, "intermolecular_energy": -9.14, "internal_energy": -1.41, "cluster_size": 25, "cluster_id": 2, "rank_in_cluster": 10}

>  <energy>  (45) 
-6.92

>  <cluster_rmsd>  (45) 
1.59

>  <cluster>  (45) 
2

$$$$

     RDKit          3D

 42 44  0  0  0  0  0  0  0  0999 V2000
  139.5470   67.7460  225.5650 C   0  0  0  0  0  0  0  0  0  0  0  0
  140.2700   68.9170  225.2200 O   0  0  0  0  0  0  0  0  0  0  0  0
  140.6370   69.8850  226.1270 C   0  0  0  0  0  0  0  0  0  0  0  0
  140.9090   69.5120  227.4370 C   0  0  0  0  0  0  0  0  0  0  0  0
  141.2770   70.4930  228.3470 C   0  0  0  0  0  0  0  0  0  0  0  0
  141.3780   71.8250  227.9800 C   0  0  0  0  0  0  0  0  0  0  0  0
  141.0990   72.1710  226.6640 C   0  0  0  0  0  0  0  0  0  0  0  0
  140.7300   71.2170  225.7350 C   0  0  0  0  0  0  0  0  0  0  0  0
  140.4400   71.5500  224.3820 N   0  0  0  0  0  0  0  0  0  0  0  0
  139.1670   71.3780  223.7880 C   0  0  0  0  0  0  0  0  0  0  0  0
  138.2100   70.9040  224.4640 O   0  0  0  0  0  0  0  0  0  0  0  0
  139.0050   71.7650  222.3730 C   0  0  0  0  0  0  0  0  0  0  0  0
  139.2090   73.1860  222.1670 N   0  0  0  0  0  0  0  0  0  0  0  0
  140.5340   73.6000  221.8420 C   0  0  0  0  0  0  0  0  0  0  0  0
  141.4000   72.6900  221.7640 O   0  0  0  0  0  0  0  0  0  0  0  0
  140.8460   75.0070  221.6140 C   0  0  0  0  0  0  0  0  0  0  0  0
  141.7000   75.3020  220.5510 C   0  0  0  0  0  0  0  0  0  0  0  0
  141.9820   76.6350  220.3530 C   0  0  0  0  0  0  0  0  0  0  0  0
  141.4540   77.6020  221.1540 C   0  0  0  0  0  0  0  0  0  0  0  0
  141.7610   78.9440  220.9240 C   0  0  0  0  0  0  0  0  0  0  0  0
  141.2120   79.9160  221.7520 C   0  0  0  0  0  0  0  0  0  0  0  0
  141.6270   81.5880  221.4250 Cl  0  0  0  0  0  0  0  0  0  0  0  0
  140.3690   79.5740  222.7940 C   0  0  0  0  0  0  0  0  0  0  0  0
  140.0560   78.2450  223.0330 C   0  0  0  0  0  0  0  0  0  0  0  0
  140.6010   77.2840  222.2120 C   0  0  0  0  0  0  0  0  0  0  0  0
  140.3350   75.9770  222.3930 N   0  0  0  0  0  0  0  0  0  0  0  0
  139.4926   67.6580  226.6601 H   0  0  0  0  0  0  0  0  0  0  0  0
  138.5297   67.8079  225.1512 H   0  0  0  0  0  0  0  0  0  0  0  0
  140.0581   66.8642  225.1512 H   0  0  0  0  0  0  0  0  0  0  0  0
  140.8342   68.4593  227.7472 H   0  0  0  0  0  0  0  0  0  0  0  0
  141.4940   70.2056  229.3864 H   0  0  0  0  0  0  0  0  0  0  0  0
  141.6721   72.5904  228.7132 H   0  0  0  0  0  0  0  0  0  0  0  0
  141.1732   73.2243  226.3556 H   0  0  0  0  0  0  0  0  0  0  0  0
  141.2340   71.9460  223.8130 H   0  0  0  0  0  0  0  0  0  0  0  0
  139.7375   71.2106  221.7680 H   0  0  0  0  0  0  0  0  0  0  0  0
  137.9743   71.5248  222.0730 H   0  0  0  0  0  0  0  0  0  0  0  0
  138.4420   73.8880  222.2470 H   0  0  0  0  0  0  0  0  0  0  0  0
  142.1232   74.5157  219.9087 H   0  0  0  0  0  0  0  0  0  0  0  0
  142.6494   76.9260  219.5285 H   0  0  0  0  0  0  0  0  0  0  0  0
  142.4291   79.2288  220.0978 H   0  0  0  0  0  0  0  0  0  0  0  0
  139.9451   80.3603  223.4359 H   0  0  0  0  0  0  0  0  0  0  0  0
  139.3872   77.9647  223.8601 H   0  0  0  0  0  0  0  0  0  0  0  0
  1  2  1  0
  2  3  1  0
  3  4  2  0
  4  5  1  0
  5  6  2  0
  6  7  1  0
  7  8  2  0
  8  9  1  0
  9 10  1  0
 10 11  2  0
 10 12  1  0
 12 13  1  0
 13 14  1  0
 14 15  2  0
 14 16  1  0
 16 17  2  0
 17 18  1  0
 18 19  2  0
 19 20  1  0
 20 21  2  0
 21 22  1  0
 21 23  1  0
 23 24  2  0
 24 25  1  0
 25 26  2  0
  8  3  1  0
 26 16  1  0
 25 19  1  0
  1 27  1  0
  1 28  1  0
  1 29  1  0
  4 30  1  0
  5 31  1  0
  6 32  1  0
  7 33  1  0
  9 34  1  0
 12 35  1  0
 12 36  1  0
 13 37  1  0
 17 38  1  0
 18 39  1  0
 20 40  1  0
 23 41  1  0
 24 42  1  0
M  END
>  <smiles>  (46) 
COc1ccccc1NC(=O)CNC(=O)c1ccc2cc(Cl)ccc2n1

>  <score_type>  (46) 
oracle

>  <origin>  (46) 
autodockgpu

>  <m_score__min__energy>  (46) 
-8.6099999999999994

>  <m_primary>  (46) 
energy

>  <rmsd>  (46) 
8.385464387997322

>  <m_score__min__rmsd>  (46) 
8.385464387997322

>  <meeko>  (46) 
{"free_energy": -7.46, "intermolecular_energy": -8.95, "internal_energy": -1.89, "cluster_size": 25, "cluster_id": 2, "rank_in_cluster": 19}

>  <energy>  (46) 
-7.71

>  <cluster_rmsd>  (46) 
0.0

>  <cluster>  (46) 
3

$$$$

     RDKit          3D

 42 44  0  0  0  0  0  0  0  0999 V2000
  139.5540   67.7290  225.7270 C   0  0  0  0  0  0  0  0  0  0  0  0
  140.3110   68.8730  225.3660 O   0  0  0  0  0  0  0  0  0  0  0  0
  140.6830   69.8560  226.2540 C   0  0  0  0  0  0  0  0  0  0  0  0
  141.0440   69.4950  227.5470 C   0  0  0  0  0  0  0  0  0  0  0  0
  141.4160   70.4920  228.4370 C   0  0  0  0  0  0  0  0  0  0  0  0
  141.4370   71.8270  228.0690 C   0  0  0  0  0  0  0  0  0  0  0  0
  141.0710   72.1610  226.7710 C   0  0  0  0  0  0  0  0  0  0  0  0
  140.6960   71.1910  225.8620 C   0  0  0  0  0  0  0  0  0  0  0  0
  140.3170   71.5110  224.5270 N   0  0  0  0  0  0  0  0  0  0  0  0
  139.0590   71.1820  223.9690 C   0  0  0  0  0  0  0  0  0  0  0  0
  138.1970   70.5700  224.6620 O   0  0  0  0  0  0  0  0  0  0  0  0
  138.7980   71.5740  222.5700 C   0  0  0  0  0  0  0  0  0  0  0  0
  139.0530   72.9830  222.3390 N   0  0  0  0  0  0  0  0  0  0  0  0
  140.3720   73.3350  221.9260 C   0  0  0  0  0  0  0  0  0  0  0  0
  141.1890   72.3850  221.8020 O   0  0  0  0  0  0  0  0  0  0  0  0
  140.7320   74.7240  221.6670 C   0  0  0  0  0  0  0  0  0  0  0  0
  141.6960   74.9550  220.6860 C   0  0  0  0  0  0  0  0  0  0  0  0
  142.0220   76.2740  220.4570 C   0  0  0  0  0  0  0  0  0  0  0  0
  141.4330   77.2850  221.1520 C   0  0  0  0  0  0  0  0  0  0  0  0
  141.7870   78.6100  220.8940 C   0  0  0  0  0  0  0  0  0  0  0  0
  141.1740   79.6290  221.6140 C   0  0  0  0  0  0  0  0  0  0  0  0
  141.6520   81.2770  221.2550 Cl  0  0  0  0  0  0  0  0  0  0  0  0
  140.2220   79.3490  222.5780 C   0  0  0  0  0  0  0  0  0  0  0  0
  139.8610   78.0370  222.8450 C   0  0  0  0  0  0  0  0  0  0  0  0
  140.4700   77.0300  222.1300 C   0  0  0  0  0  0  0  0  0  0  0  0
  140.1610   75.7370  222.3430 N   0  0  0  0  0  0  0  0  0  0  0  0
  139.5040   67.6534  226.8233 H   0  0  0  0  0  0  0  0  0  0  0  0
  138.5365   67.8189  225.3189 H   0  0  0  0  0  0  0  0  0  0  0  0
  140.0345   66.8276  225.3189 H   0  0  0  0  0  0  0  0  0  0  0  0
  141.0349   68.4400  227.8582 H   0  0  0  0  0  0  0  0  0  0  0  0
  141.7019   70.2148  229.4624 H   0  0  0  0  0  0  0  0  0  0  0  0
  141.7363   72.6044  228.7873 H   0  0  0  0  0  0  0  0  0  0  0  0
  141.0800   73.2166  226.4618 H   0  0  0  0  0  0  0  0  0  0  0  0
  141.0310   72.0220  223.9440 H   0  0  0  0  0  0  0  0  0  0  0  0
  139.4493   70.9832  221.9092 H   0  0  0  0  0  0  0  0  0  0  0  0
  137.7353   71.3841  222.3588 H   0  0  0  0  0  0  0  0  0  0  0  0
  138.3250   73.7200  222.4620 H   0  0  0  0  0  0  0  0  0  0  0  0
  142.1681   74.1329  220.1281 H   0  0  0  0  0  0  0  0  0  0  0  0
  142.7766   76.5157  219.6940 H   0  0  0  0  0  0  0  0  0  0  0  0
  142.5424   78.8454  220.1298 H   0  0  0  0  0  0  0  0  0  0  0  0
  139.7492   80.1711  223.1354 H   0  0  0  0  0  0  0  0  0  0  0  0
  139.1055   77.8060  223.6104 H   0  0  0  0  0  0  0  0  0  0  0  0
  1  2  1  0
  2  3  1  0
  3  4  2  0
  4  5  1  0
  5  6  2  0
  6  7  1  0
  7  8  2  0
  8  9  1  0
  9 10  1  0
 10 11  2  0
 10 12  1  0
 12 13  1  0
 13 14  1  0
 14 15  2  0
 14 16  1  0
 16 17  2  0
 17 18  1  0
 18 19  2  0
 19 20  1  0
 20 21  2  0
 21 22  1  0
 21 23  1  0
 23 24  2  0
 24 25  1  0
 25 26  2  0
  8  3  1  0
 26 16  1  0
 25 19  1  0
  1 27  1  0
  1 28  1  0
  1 29  1  0
  4 30  1  0
  5 31  1  0
  6 32  1  0
  7 33  1  0
  9 34  1  0
 12 35  1  0
 12 36  1  0
 13 37  1  0
 17 38  1  0
 18 39  1  0
 20 40  1  0
 23 41  1  0
 24 42  1  0
M  END
>  <smiles>  (47) 
COc1ccccc1NC(=O)CNC(=O)c1ccc2cc(Cl)ccc2n1

>  <score_type>  (47) 
oracle

>  <origin>  (47) 
autodockgpu

>  <m_score__min__energy>  (47) 
-8.6099999999999994

>  <m_primary>  (47) 
energy

>  <rmsd>  (47) 
8.314482470805924

>  <m_score__min__rmsd>  (47) 
8.314482470805924

>  <meeko>  (47) 
{"free_energy": -7.53, "intermolecular_energy": -9.02, "internal_energy": -1.92, "cluster_size": 25, "cluster_id": 2, "rank_in_cluster": 15}

>  <energy>  (47) 
-7.6

>  <cluster_rmsd>  (47) 
0.92

>  <cluster>  (47) 
3

$$$$

     RDKit          3D

 42 44  0  0  0  0  0  0  0  0999 V2000
  141.4490   72.4620  227.3750 C   0  0  0  0  0  0  0  0  0  0  0  0
  140.9830   71.6340  226.3210 O   0  0  0  0  0  0  0  0  0  0  0  0
  140.5300   70.3470  226.5020 C   0  0  0  0  0  0  0  0  0  0  0  0
  140.5800   69.7880  227.7740 C   0  0  0  0  0  0  0  0  0  0  0  0
  140.1230   68.4900  227.9490 C   0  0  0  0  0  0  0  0  0  0  0  0
  139.6210   67.7460  226.8940 C   0  0  0  0  0  0  0  0  0  0  0  0
  139.5830   68.3280  225.6330 C   0  0  0  0  0  0  0  0  0  0  0  0
  140.0310   69.6190  225.4270 C   0  0  0  0  0  0  0  0  0  0  0  0
  140.0010   70.2350  224.1430 N   0  0  0  0  0  0  0  0  0  0  0  0
  138.9040   70.9870  223.6610 C   0  0  0  0  0  0  0  0  0  0  0  0
  137.8750   71.1420  224.3800 O   0  0  0  0  0  0  0  0  0  0  0  0
  139.0050   71.5720  222.3100 C   0  0  0  0  0  0  0  0  0  0  0  0
  139.3080   72.9900  222.3480 N   0  0  0  0  0  0  0  0  0  0  0  0
  140.3220   73.4510  221.4590 C   0  0  0  0  0  0  0  0  0  0  0  0
  140.8580   72.5810  220.7250 O   0  0  0  0  0  0  0  0  0  0  0  0
  140.7020   74.8590  221.4190 C   0  0  0  0  0  0  0  0  0  0  0  0
  141.6820   75.2240  220.4970 C   0  0  0  0  0  0  0  0  0  0  0  0
  142.0260   76.5580  220.4740 C   0  0  0  0  0  0  0  0  0  0  0  0
  141.4380   77.4600  221.3090 C   0  0  0  0  0  0  0  0  0  0  0  0
  141.8110   78.8030  221.2590 C   0  0  0  0  0  0  0  0  0  0  0  0
  141.1990   79.7090  222.1180 C   0  0  0  0  0  0  0  0  0  0  0  0
  141.7010   81.3860  222.0210 Cl  0  0  0  0  0  0  0  0  0  0  0  0
  140.2310   79.2980  223.0170 C   0  0  0  0  0  0  0  0  0  0  0  0
  139.8520   77.9660  223.0770 C   0  0  0  0  0  0  0  0  0  0  0  0
  140.4590   77.0710  222.2240 C   0  0  0  0  0  0  0  0  0  0  0  0
  140.1330   75.7650  222.2340 N   0  0  0  0  0  0  0  0  0  0  0  0
  141.1916   72.0046  228.3417 H   0  0  0  0  0  0  0  0  0  0  0  0
  142.5410   72.5711  227.3002 H   0  0  0  0  0  0  0  0  0  0  0  0
  140.9756   73.4521  227.3002 H   0  0  0  0  0  0  0  0  0  0  0  0
  140.9741   70.3635  228.6246 H   0  0  0  0  0  0  0  0  0  0  0  0
  140.1603   68.0397  228.9519 H   0  0  0  0  0  0  0  0  0  0  0  0
  139.2609   66.7185  227.0509 H   0  0  0  0  0  0  0  0  0  0  0  0
  139.1892   67.7509  224.7834 H   0  0  0  0  0  0  0  0  0  0  0  0
  140.8550   70.1100  223.5400 H   0  0  0  0  0  0  0  0  0  0  0  0
  139.8033   71.0539  221.7584 H   0  0  0  0  0  0  0  0  0  0  0  0
  138.0307   71.4481  221.8147 H   0  0  0  0  0  0  0  0  0  0  0  0
  138.8210   73.6580  222.9850 H   0  0  0  0  0  0  0  0  0  0  0  0
  142.1531   74.4898  219.8270 H   0  0  0  0  0  0  0  0  0  0  0  0
  142.7931   76.9028  219.7651 H   0  0  0  0  0  0  0  0  0  0  0  0
  142.5799   79.1413  220.5488 H   0  0  0  0  0  0  0  0  0  0  0  0
  139.7598   80.0318  223.6874 H   0  0  0  0  0  0  0  0  0  0  0  0
  139.0839   77.6313  223.7897 H   0  0  0  0  0  0  0  0  0  0  0  0
  1  2  1  0
  2  3  1  0
  3  4  2  0
  4  5  1  0
  5  6  2  0
  6  7  1  0
  7  8  2  0
  8  9  1  0
  9 10  1  0
 10 11  2  0
 10 12  1  0
 12 13  1  0
 13 14  1  0
 14 15  2  0
 14 16  1  0
 16 17  2  0
 17 18  1  0
 18 19  2  0
 19 20  1  0
 20 21  2  0
 21 22  1  0
 21 23  1  0
 23 24  2  0
 24 25  1  0
 25 26  2  0
  8  3  1  0
 26 16  1  0
 25 19  1  0
  1 27  1  0
  1 28  1  0
  1 29  1  0
  4 30  1  0
  5 31  1  0
  6 32  1  0
  7 33  1  0
  9 34  1  0
 12 35  1  0
 12 36  1  0
 13 37  1  0
 17 38  1  0
 18 39  1  0
 20 40  1  0
 23 41  1  0
 24 42  1  0
M  END
>  <smiles>  (48) 
COc1ccccc1NC(=O)CNC(=O)c1ccc2cc(Cl)ccc2n1

>  <score_type>  (48) 
oracle

>  <origin>  (48) 
autodockgpu

>  <m_score__min__energy>  (48) 
-8.6099999999999994

>  <m_primary>  (48) 
energy

>  <rmsd>  (48) 
8.68023611523651

>  <m_score__min__rmsd>  (48) 
8.68023611523651

>  <meeko>  (48) 
{"free_energy": -7.74, "intermolecular_energy": -9.23, "internal_energy": -1.33, "cluster_size": 25, "cluster_id": 2, "rank_in_cluster": 8}

>  <energy>  (48) 
-7.52

>  <cluster_rmsd>  (48) 
1.23

>  <cluster>  (48) 
3

$$$$

     RDKit          3D

 42 44  0  0  0  0  0  0  0  0999 V2000
  139.1990   67.6530  223.8410 C   0  0  0  0  0  0  0  0  0  0  0  0
  138.8530   67.8830  225.1970 O   0  0  0  0  0  0  0  0  0  0  0  0
  139.5880   68.6710  226.0520 C   0  0  0  0  0  0  0  0  0  0  0  0
  139.9880   68.1470  227.2760 C   0  0  0  0  0  0  0  0  0  0  0  0
  140.7280   68.9480  228.1330 C   0  0  0  0  0  0  0  0  0  0  0  0
  141.0750   70.2470  227.8000 C   0  0  0  0  0  0  0  0  0  0  0  0
  140.6610   70.7470  226.5710 C   0  0  0  0  0  0  0  0  0  0  0  0
  139.9240   69.9740  225.6960 C   0  0  0  0  0  0  0  0  0  0  0  0
  139.4900   70.4660  224.4320 N   0  0  0  0  0  0  0  0  0  0  0  0
  138.1290   70.6250  224.0780 C   0  0  0  0  0  0  0  0  0  0  0  0
  137.2190   70.3230  224.9020 O   0  0  0  0  0  0  0  0  0  0  0  0
  137.8200   71.1470  222.7320 C   0  0  0  0  0  0  0  0  0  0  0  0
  138.2780   72.5110  222.5550 N   0  0  0  0  0  0  0  0  0  0  0  0
  139.5910   72.6820  222.0270 C   0  0  0  0  0  0  0  0  0  0  0  0
  140.2280   71.6280  221.7650 O   0  0  0  0  0  0  0  0  0  0  0  0
  140.1450   74.0130  221.8100 C   0  0  0  0  0  0  0  0  0  0  0  0
  141.3050   74.0970  221.0400 C   0  0  0  0  0  0  0  0  0  0  0  0
  141.8130   75.3630  220.8460 C   0  0  0  0  0  0  0  0  0  0  0  0
  141.2110   76.4620  221.3810 C   0  0  0  0  0  0  0  0  0  0  0  0
  141.7520   77.7300  221.1650 C   0  0  0  0  0  0  0  0  0  0  0  0
  141.1240   78.8390  221.7180 C   0  0  0  0  0  0  0  0  0  0  0  0
  141.8410   80.4110  221.4200 Cl  0  0  0  0  0  0  0  0  0  0  0  0
  139.9740   78.7040  222.4760 C   0  0  0  0  0  0  0  0  0  0  0  0
  139.4260   77.4510  222.6980 C   0  0  0  0  0  0  0  0  0  0  0  0
  140.0510   76.3530  222.1480 C   0  0  0  0  0  0  0  0  0  0  0  0
  139.5660   75.1100  222.3280 N   0  0  0  0  0  0  0  0  0  0  0  0
  140.1142   67.0446  223.7943 H   0  0  0  0  0  0  0  0  0  0  0  0
  138.3784   67.1200  223.3385 H   0  0  0  0  0  0  0  0  0  0  0  0
  139.3728   68.6160  223.3385 H   0  0  0  0  0  0  0  0  0  0  0  0
  139.7229   67.1177  227.5591 H   0  0  0  0  0  0  0  0  0  0  0  0
  141.0480   68.5407  229.1034 H   0  0  0  0  0  0  0  0  0  0  0  0
  141.6638   70.8677  228.4914 H   0  0  0  0  0  0  0  0  0  0  0  0
  140.9253   71.7772  226.2904 H   0  0  0  0  0  0  0  0  0  0  0  0
  140.2440   70.7200  223.7410 H   0  0  0  0  0  0  0  0  0  0  0  0
  138.3112   70.5084  221.9831 H   0  0  0  0  0  0  0  0  0  0  0  0
  136.7269   71.1394  222.6097 H   0  0  0  0  0  0  0  0  0  0  0  0
  137.6930   73.3410  222.7940 H   0  0  0  0  0  0  0  0  0  0  0  0
  141.7860   73.2048  220.6127 H   0  0  0  0  0  0  0  0  0  0  0  0
  142.7258   75.4894  220.2453 H   0  0  0  0  0  0  0  0  0  0  0  0
  142.6653   77.8501  220.5637 H   0  0  0  0  0  0  0  0  0  0  0  0
  139.4928   79.5957  222.9042 H   0  0  0  0  0  0  0  0  0  0  0  0
  138.5125   77.3353  223.2998 H   0  0  0  0  0  0  0  0  0  0  0  0
  1  2  1  0
  2  3  1  0
  3  4  2  0
  4  5  1  0
  5  6  2  0
  6  7  1  0
  7  8  2  0
  8  9  1  0
  9 10  1  0
 10 11  2  0
 10 12  1  0
 12 13  1  0
 13 14  1  0
 14 15  2  0
 14 16  1  0
 16 17  2  0
 17 18  1  0
 18 19  2  0
 19 20  1  0
 20 21  2  0
 21 22  1  0
 21 23  1  0
 23 24  2  0
 24 25  1  0
 25 26  2  0
  8  3  1  0
 26 16  1  0
 25 19  1  0
  1 27  1  0
  1 28  1  0
  1 29  1  0
  4 30  1  0
  5 31  1  0
  6 32  1  0
  7 33  1  0
  9 34  1  0
 12 35  1  0
 12 36  1  0
 13 37  1  0
 17 38  1  0
 18 39  1  0
 20 40  1  0
 23 41  1  0
 24 42  1  0
M  END
>  <smiles>  (49) 
COc1ccccc1NC(=O)CNC(=O)c1ccc2cc(Cl)ccc2n1

>  <score_type>  (49) 
oracle

>  <origin>  (49) 
autodockgpu

>  <m_score__min__energy>  (49) 
-8.6099999999999994

>  <m_primary>  (49) 
energy

>  <rmsd>  (49) 
8.193632352075717

>  <m_score__min__rmsd>  (49) 
8.193632352075717

>  <meeko>  (49) 
{"free_energy": -7.49, "intermolecular_energy": -8.99, "internal_energy": -1.89, "cluster_size": 25, "cluster_id": 2, "rank_in_cluster": 18}

>  <energy>  (49) 
-7.45

>  <cluster_rmsd>  (49) 
1.45

>  <cluster>  (49) 
3

$$$$

     RDKit          3D

 42 44  0  0  0  0  0  0  0  0999 V2000
  141.1390   72.2010  227.3890 C   0  0  0  0  0  0  0  0  0  0  0  0
  140.3950   71.4460  226.4470 O   0  0  0  0  0  0  0  0  0  0  0  0
  140.3080   70.0720  226.4630 C   0  0  0  0  0  0  0  0  0  0  0  0
  141.0960   69.3580  227.3580 C   0  0  0  0  0  0  0  0  0  0  0  0
  141.0040   67.9740  227.3690 C   0  0  0  0  0  0  0  0  0  0  0  0
  140.1520   67.2940  226.5140 C   0  0  0  0  0  0  0  0  0  0  0  0
  139.3770   68.0320  225.6280 C   0  0  0  0  0  0  0  0  0  0  0  0
  139.4460   69.4110  225.5940 C   0  0  0  0  0  0  0  0  0  0  0  0
  138.6600   70.1860  224.6940 N   0  0  0  0  0  0  0  0  0  0  0  0
  137.2510   70.0890  224.6000 C   0  0  0  0  0  0  0  0  0  0  0  0
  136.6200   69.2790  225.3390 O   0  0  0  0  0  0  0  0  0  0  0  0
  136.5610   70.9530  223.6240 C   0  0  0  0  0  0  0  0  0  0  0  0
  136.2160   72.2460  224.1840 N   0  0  0  0  0  0  0  0  0  0  0  0
  134.9070   72.3760  224.7330 C   0  0  0  0  0  0  0  0  0  0  0  0
  134.1750   71.3530  224.6790 O   0  0  0  0  0  0  0  0  0  0  0  0
  134.4610   73.6340  225.3200 C   0  0  0  0  0  0  0  0  0  0  0  0
  135.0670   74.8000  224.8540 C   0  0  0  0  0  0  0  0  0  0  0  0
  134.6320   75.9780  225.4220 C   0  0  0  0  0  0  0  0  0  0  0  0
  133.6680   75.9920  226.3830 C   0  0  0  0  0  0  0  0  0  0  0  0
  133.2510   77.2030  226.9370 C   0  0  0  0  0  0  0  0  0  0  0  0
  132.2650   77.1970  227.9170 C   0  0  0  0  0  0  0  0  0  0  0  0
  131.7750   78.7430  228.5840 Cl  0  0  0  0  0  0  0  0  0  0  0  0
  131.6940   76.0130  228.3480 C   0  0  0  0  0  0  0  0  0  0  0  0
  132.0990   74.8030  227.8060 C   0  0  0  0  0  0  0  0  0  0  0  0
  133.0750   74.8120  226.8350 C   0  0  0  0  0  0  0  0  0  0  0  0
  133.5100   73.6700  226.2710 N   0  0  0  0  0  0  0  0  0  0  0  0
  140.8478   71.9055  228.4078 H   0  0  0  0  0  0  0  0  0  0  0  0
  142.2129   72.0112  227.2450 H   0  0  0  0  0  0  0  0  0  0  0  0
  140.9334   73.2720  227.2450 H   0  0  0  0  0  0  0  0  0  0  0  0
  141.7791   69.8802  228.0441 H   0  0  0  0  0  0  0  0  0  0  0  0
  141.6236   67.4015  228.0749 H   0  0  0  0  0  0  0  0  0  0  0  0
  140.0906   66.1959  226.5361 H   0  0  0  0  0  0  0  0  0  0  0  0
  138.6959   67.5084  224.9410 H   0  0  0  0  0  0  0  0  0  0  0  0
  139.1800   70.8630  224.0770 H   0  0  0  0  0  0  0  0  0  0  0  0
  137.2216   71.1069  222.7580 H   0  0  0  0  0  0  0  0  0  0  0  0
  135.6267   70.4519  223.3309 H   0  0  0  0  0  0  0  0  0  0  0  0
  136.8750   73.0540  224.1950 H   0  0  0  0  0  0  0  0  0  0  0  0
  135.8467   74.7808  224.0783 H   0  0  0  0  0  0  0  0  0  0  0  0
  135.0742   76.9292  225.0910 H   0  0  0  0  0  0  0  0  0  0  0  0
  133.6972   78.1511  226.6022 H   0  0  0  0  0  0  0  0  0  0  0  0
  130.9150   76.0317  229.1244 H   0  0  0  0  0  0  0  0  0  0  0  0
  131.6507   73.8571  228.1441 H   0  0  0  0  0  0  0  0  0  0  0  0
  1  2  1  0
  2  3  1  0
  3  4  2  0
  4  5  1  0
  5  6  2  0
  6  7  1  0
  7  8  2  0
  8  9  1  0
  9 10  1  0
 10 11  2  0
 10 12  1  0
 12 13  1  0
 13 14  1  0
 14 15  2  0
 14 16  1  0
 16 17  2  0
 17 18  1  0
 18 19  2  0
 19 20  1  0
 20 21  2  0
 21 22  1  0
 21 23  1  0
 23 24  2  0
 24 25  1  0
 25 26  2  0
  8  3  1  0
 26 16  1  0
 25 19  1  0
  1 27  1  0
  1 28  1  0
  1 29  1  0
  4 30  1  0
  5 31  1  0
  6 32  1  0
  7 33  1  0
  9 34  1  0
 12 35  1  0
 12 36  1  0
 13 37  1  0
 17 38  1  0
 18 39  1  0
 20 40  1  0
 23 41  1  0
 24 42  1  0
M  END
>  <smiles>  (50) 
COc1ccccc1NC(=O)CNC(=O)c1ccc2cc(Cl)ccc2n1

>  <score_type>  (50) 
oracle

>  <origin>  (50) 
autodockgpu

>  <m_score__min__energy>  (50) 
-8.6099999999999994

>  <m_primary>  (50) 
energy

>  <rmsd>  (50) 
9.073034964677287

>  <m_score__min__rmsd>  (50) 
9.073034964677287

>  <meeko>  (50) 
{"free_energy": -7.71, "intermolecular_energy": -9.2, "internal_energy": -1.13, "cluster_size": 5, "cluster_id": 3, "rank_in_cluster": 1}

>  <energy>  (50) 
-7.39

>  <cluster_rmsd>  (50) 
1.44

>  <cluster>  (50) 
3

$$$$
