
     RDKit          3D

 57 60  0  0  0  0  0  0  0  0999 V2000
  139.4250   71.8520  220.7710 O   0  0  0  0  0  0  0  0  0  0  0  0
  138.9510   72.1650  221.9060 C   0  0  0  0  0  0  0  0  0  0  0  0
  138.1500   73.3180  222.1100 N   0  0  0  0  0  0  0  0  0  0  0  0
  137.8100   74.2310  221.0450 C   0  0  0  0  0  0  0  0  0  0  0  0
  137.6890   75.5930  221.6310 C   0  0  0  0  0  0  0  0  0  0  0  0
  136.7980   75.7440  222.5140 O   0  0  0  0  0  0  0  0  0  0  0  0
  138.5360   76.6790  221.2160 N   0  0  0  0  0  0  0  0  0  0  0  0
  138.6780   76.7790  219.8030 C   0  0  0  0  0  0  0  0  0  0  0  0
  139.2650   78.0560  219.2910 C   0  0  0  0  0  0  0  0  0  0  0  0
  138.5430   79.2950  219.7280 C   0  0  0  0  0  0  0  0  0  0  0  0
  137.8460   79.2000  221.0430 C   0  0  0  0  0  0  0  0  0  0  0  0
  138.7690   78.8950  222.1940 C   0  0  0  0  0  0  0  0  0  0  0  0
  139.0680   77.4400  222.3240 C   0  0  2  0  0  0  0  0  0  0  0  0
  140.5500   77.2340  222.4970 C   0  0  0  0  0  0  0  0  0  0  0  0
  141.3140   78.4690  222.6890 C   0  0  0  0  0  0  0  0  0  0  0  0
  141.5980   78.9870  223.9410 C   0  0  0  0  0  0  0  0  0  0  0  0
  142.3150   80.1490  224.1310 C   0  0  0  0  0  0  0  0  0  0  0  0
  142.7850   80.8540  223.0420 C   0  0  0  0  0  0  0  0  0  0  0  0
  142.5220   80.3690  221.7780 C   0  0  0  0  0  0  0  0  0  0  0  0
  141.7990   79.2000  221.6080 C   0  0  0  0  0  0  0  0  0  0  0  0
  139.2460   71.2970  223.0390 C   0  0  0  0  0  0  0  0  0  0  0  0
  138.9560   69.9490  223.0080 C   0  0  0  0  0  0  0  0  0  0  0  0
  139.2090   69.0820  224.0380 C   0  0  0  0  0  0  0  0  0  0  0  0
  139.7900   69.5850  225.1800 C   0  0  0  0  0  0  0  0  0  0  0  0
  140.0460   68.7210  226.2170 C   0  0  0  0  0  0  0  0  0  0  0  0
  140.6280   69.2410  227.3510 C   0  0  0  0  0  0  0  0  0  0  0  0
  141.0020   68.2310  228.7410 Cl  0  0  0  0  0  0  0  0  0  0  0  0
  140.9240   70.5790  227.3990 C   0  0  0  0  0  0  0  0  0  0  0  0
  140.6710   71.4590  226.3630 C   0  0  0  0  0  0  0  0  0  0  0  0
  140.0800   70.9230  225.2150 C   0  0  0  0  0  0  0  0  0  0  0  0
  139.8200   71.7620  224.1810 N   0  0  0  0  0  0  0  0  0  0  0  0
  137.7980   73.5000  223.0910 H   0  0  0  0  0  0  0  0  0  0  0  0
  138.5996   74.2225  220.2792 H   0  0  0  0  0  0  0  0  0  0  0  0
  136.8630   73.9321  220.5720 H   0  0  0  0  0  0  0  0  0  0  0  0
  139.3254   75.9541  219.4707 H   0  0  0  0  0  0  0  0  0  0  0  0
  137.6556   76.7400  219.3990 H   0  0  0  0  0  0  0  0  0  0  0  0
  140.3044   78.1219  219.6450 H   0  0  0  0  0  0  0  0  0  0  0  0
  139.1837   78.0185  218.1946 H   0  0  0  0  0  0  0  0  0  0  0  0
  139.2778   80.1111  219.7917 H   0  0  0  0  0  0  0  0  0  0  0  0
  137.7553   79.4662  218.9795 H   0  0  0  0  0  0  0  0  0  0  0  0
  137.3470   80.1598  221.2423 H   0  0  0  0  0  0  0  0  0  0  0  0
  137.1334   78.3651  220.9709 H   0  0  0  0  0  0  0  0  0  0  0  0
  139.7143   79.4358  222.0394 H   0  0  0  0  0  0  0  0  0  0  0  0
  138.2635   79.2134  223.1176 H   0  0  0  0  0  0  0  0  0  0  0  0
  138.5622   77.0593  223.2236 H   0  0  0  0  0  0  0  0  0  0  0  0
  140.7078   76.5916  223.3759 H   0  0  0  0  0  0  0  0  0  0  0  0
  140.9151   76.7807  221.5636 H   0  0  0  0  0  0  0  0  0  0  0  0
  141.2341   78.4455  224.8266 H   0  0  0  0  0  0  0  0  0  0  0  0
  142.5122   80.5138  225.1498 H   0  0  0  0  0  0  0  0  0  0  0  0
  143.3574   81.7833  223.1791 H   0  0  0  0  0  0  0  0  0  0  0  0
  142.8897   80.9155  220.8970 H   0  0  0  0  0  0  0  0  0  0  0  0
  141.6020   78.8382  220.5880 H   0  0  0  0  0  0  0  0  0  0  0  0
  138.4914   69.5437  222.0970 H   0  0  0  0  0  0  0  0  0  0  0  0
  138.9553   68.0149  223.9549 H   0  0  0  0  0  0  0  0  0  0  0  0
  139.7951   67.6525  226.1438 H   0  0  0  0  0  0  0  0  0  0  0  0
  141.3892   70.9748  228.3138 H   0  0  0  0  0  0  0  0  0  0  0  0
  140.9222   72.5273  226.4383 H   0  0  0  0  0  0  0  0  0  0  0  0
  1  2  2  0
  2  3  1  0
  3  4  1  0
  4  5  1  0
  5  6  2  0
  5  7  1  0
  7  8  1  0
  8  9  1  0
  9 10  1  0
 10 11  1  0
 11 12  1  0
 12 13  1  0
 13 14  1  0
 14 15  1  0
 15 16  2  0
 16 17  1  0
 17 18  2  0
 18 19  1  0
 19 20  2  0
  2 21  1  0
 21 22  2  0
 22 23  1  0
 23 24  2  0
 24 25  1  0
 25 26  2  0
 26 27  1  0
 26 28  1  0
 28 29  2  0
 29 30  1  0
 30 31  2  0
 13  7  1  0
 20 15  1  0
 31 21  1  0
 30 24  1  0
  3 32  1  0
  4 33  1  0
  4 34  1  0
  8 35  1  0
  8 36  1  0
  9 37  1  0
  9 38  1  0
 10 39  1  0
 10 40  1  0
 11 41  1  0
 11 42  1  0
 12 43  1  0
 12 44  1  0
 13 45  1  1
 14 46  1  0
 14 47  1  0
 16 48  1  0
 17 49  1  0
 18 50  1  0
 19 51  1  0
 20 52  1  0
 22 53  1  0
 23 54  1  0
 25 55  1  0
 28 56  1  0
 29 57  1  0
M  END
>  <smiles>  (1) 
O=C(NCC(=O)N1CCCCCC1Cc1ccccc1)c1ccc2cc(Cl)ccc2n1

>  <score_type>  (1) 
oracle

>  <origin>  (1) 
autodockgpu

>  <m_score__min__energy>  (1) 
-7.04

>  <m_primary>  (1) 
energy

>  <rmsd>  (1) 
2.3159352753226283

>  <m_score__min__rmsd>  (1) 
2.3159352753226283

>  <meeko>  (1) 
{"free_energy": -6.43, "intermolecular_energy": -10.01, "internal_energy": -1.94, "cluster_size": 28, "cluster_id": 1, "rank_in_cluster": 12}

>  <energy>  (1) 
-7.04

>  <cluster_rmsd>  (1) 
0.0

>  <cluster>  (1) 
1

$$$$

     RDKit          3D

 57 60  0  0  0  0  0  0  0  0999 V2000
  139.6910   72.1260  220.5760 O   0  0  0  0  0  0  0  0  0  0  0  0
  139.6110   72.6350  221.7360 C   0  0  0  0  0  0  0  0  0  0  0  0
  139.3660   74.0160  221.9520 N   0  0  0  0  0  0  0  0  0  0  0  0
  139.1900   74.9550  220.8710 C   0  0  0  0  0  0  0  0  0  0  0  0
  139.7380   76.2670  221.3110 C   0  0  0  0  0  0  0  0  0  0  0  0
  140.9820   76.3070  221.5300 O   0  0  0  0  0  0  0  0  0  0  0  0
  138.9000   77.4240  221.4800 N   0  0  0  0  0  0  0  0  0  0  0  0
  138.6280   78.1100  220.2630 C   0  0  0  0  0  0  0  0  0  0  0  0
  137.2070   78.0900  219.8010 C   0  0  0  0  0  0  0  0  0  0  0  0
  136.2610   77.3740  220.7190 C   0  0  0  0  0  0  0  0  0  0  0  0
  136.1500   77.9430  222.0940 C   0  0  0  0  0  0  0  0  0  0  0  0
  137.0810   77.3010  223.0920 C   0  0  0  0  0  0  0  0  0  0  0  0
  138.5110   77.6480  222.8550 C   0  0  2  0  0  0  0  0  0  0  0  0
  138.7770   79.0640  223.2980 C   0  0  0  0  0  0  0  0  0  0  0  0
  140.1750   79.4840  223.1700 C   0  0  0  0  0  0  0  0  0  0  0  0
  141.2380   78.6550  223.4810 C   0  0  0  0  0  0  0  0  0  0  0  0
  142.5560   79.0440  223.3660 C   0  0  0  0  0  0  0  0  0  0  0  0
  142.8630   80.3130  222.9210 C   0  0  0  0  0  0  0  0  0  0  0  0
  141.8290   81.1680  222.6010 C   0  0  0  0  0  0  0  0  0  0  0  0
  140.5120   80.7600  222.7250 C   0  0  0  0  0  0  0  0  0  0  0  0
  139.7770   71.7550  222.8870 C   0  0  0  0  0  0  0  0  0  0  0  0
  139.3830   70.4350  222.8460 C   0  0  0  0  0  0  0  0  0  0  0  0
  139.5130   69.5590  223.8920 C   0  0  0  0  0  0  0  0  0  0  0  0
  140.0710   70.0240  225.0610 C   0  0  0  0  0  0  0  0  0  0  0  0
  140.2030   69.1520  226.1130 C   0  0  0  0  0  0  0  0  0  0  0  0
  140.7640   69.6330  227.2740 C   0  0  0  0  0  0  0  0  0  0  0  0
  140.9840   68.6090  228.6870 Cl  0  0  0  0  0  0  0  0  0  0  0  0
  141.1620   70.9450  227.3330 C   0  0  0  0  0  0  0  0  0  0  0  0
  141.0340   71.8330  226.2810 C   0  0  0  0  0  0  0  0  0  0  0  0
  140.4630   71.3350  225.1060 C   0  0  0  0  0  0  0  0  0  0  0  0
  140.3250   72.1840  224.0550 N   0  0  0  0  0  0  0  0  0  0  0  0
  139.3160   74.3510  222.9550 H   0  0  0  0  0  0  0  0  0  0  0  0
  139.7305   74.6042  219.9795 H   0  0  0  0  0  0  0  0  0  0  0  0
  138.1242   75.0509  220.6164 H   0  0  0  0  0  0  0  0  0  0  0  0
  138.9234   79.1612  220.3964 H   0  0  0  0  0  0  0  0  0  0  0  0
  139.1982   77.5759  219.4887 H   0  0  0  0  0  0  0  0  0  0  0  0
  136.8647   79.1305  219.6994 H   0  0  0  0  0  0  0  0  0  0  0  0
  137.1965   77.5371  218.8501 H   0  0  0  0  0  0  0  0  0  0  0  0
  135.2613   77.3963  220.2607 H   0  0  0  0  0  0  0  0  0  0  0  0
  136.6680   76.3596  220.8426 H   0  0  0  0  0  0  0  0  0  0  0  0
  136.3806   79.0174  222.0450 H   0  0  0  0  0  0  0  0  0  0  0  0
  135.1240   77.7497  222.4404 H   0  0  0  0  0  0  0  0  0  0  0  0
  136.8004   77.6373  224.1010 H   0  0  0  0  0  0  0  0  0  0  0  0
  136.9825   76.2109  222.9827 H   0  0  0  0  0  0  0  0  0  0  0  0
  139.1368   76.9763  223.4609 H   0  0  0  0  0  0  0  0  0  0  0  0
  138.1577   79.7378  222.6877 H   0  0  0  0  0  0  0  0  0  0  0  0
  138.5314   79.1100  224.3692 H   0  0  0  0  0  0  0  0  0  0  0  0
  141.0215   77.6370  223.8370 H   0  0  0  0  0  0  0  0  0  0  0  0
  143.3618   78.3429  223.6289 H   0  0  0  0  0  0  0  0  0  0  0  0
  143.9099   80.6362  222.8234 H   0  0  0  0  0  0  0  0  0  0  0  0
  142.0531   82.1840  222.2438 H   0  0  0  0  0  0  0  0  0  0  0  0
  139.7081   81.4642  222.4645 H   0  0  0  0  0  0  0  0  0  0  0  0
  138.9353   70.0603  221.9137 H   0  0  0  0  0  0  0  0  0  0  0  0
  139.1809   68.5144  223.7998 H   0  0  0  0  0  0  0  0  0  0  0  0
  139.8722   68.1061  226.0309 H   0  0  0  0  0  0  0  0  0  0  0  0
  141.6079   71.3107  228.2697 H   0  0  0  0  0  0  0  0  0  0  0  0
  141.3648   72.8788  226.3643 H   0  0  0  0  0  0  0  0  0  0  0  0
  1  2  2  0
  2  3  1  0
  3  4  1  0
  4  5  1  0
  5  6  2  0
  5  7  1  0
  7  8  1  0
  8  9  1  0
  9 10  1  0
 10 11  1  0
 11 12  1  0
 12 13  1  0
 13 14  1  0
 14 15  1  0
 15 16  2  0
 16 17  1  0
 17 18  2  0
 18 19  1  0
 19 20  2  0
  2 21  1  0
 21 22  2  0
 22 23  1  0
 23 24  2  0
 24 25  1  0
 25 26  2  0
 26 27  1  0
 26 28  1  0
 28 29  2  0
 29 30  1  0
 30 31  2  0
 13  7  1  0
 20 15  1  0
 31 21  1  0
 30 24  1  0
  3 32  1  0
  4 33  1  0
  4 34  1  0
  8 35  1  0
  8 36  1  0
  9 37  1  0
  9 38  1  0
 10 39  1  0
 10 40  1  0
 11 41  1  0
 11 42  1  0
 12 43  1  0
 12 44  1  0
 13 45  1  1
 14 46  1  0
 14 47  1  0
 16 48  1  0
 17 49  1  0
 18 50  1  0
 19 51  1  0
 20 52  1  0
 22 53  1  0
 23 54  1  0
 25 55  1  0
 28 56  1  0
 29 57  1  0
M  END
>  <smiles>  (2) 
O=C(NCC(=O)N1CCCCCC1Cc1ccccc1)c1ccc2cc(Cl)ccc2n1

>  <score_type>  (2) 
oracle

>  <origin>  (2) 
autodockgpu

>  <m_score__min__energy>  (2) 
-7.04

>  <m_primary>  (2) 
energy

>  <rmsd>  (2) 
3.0822235115167564

>  <m_score__min__rmsd>  (2) 
3.0822235115167564

>  <meeko>  (2) 
{"free_energy": -5.96, "intermolecular_energy": -9.54, "internal_energy": -2.03, "cluster_size": 28, "cluster_id": 1, "rank_in_cluster": 24}

>  <energy>  (2) 
-6.9

>  <cluster_rmsd>  (2) 
0.74

>  <cluster>  (2) 
1

$$$$

     RDKit          3D

 57 60  0  0  0  0  0  0  0  0999 V2000
  138.6370   71.4400  220.7480 O   0  0  0  0  0  0  0  0  0  0  0  0
  138.7820   71.9880  221.8840 C   0  0  0  0  0  0  0  0  0  0  0  0
  138.6290   73.3840  222.0860 N   0  0  0  0  0  0  0  0  0  0  0  0
  138.2970   74.2950  221.0160 C   0  0  0  0  0  0  0  0  0  0  0  0
  139.3990   74.2480  220.0180 C   0  0  0  0  0  0  0  0  0  0  0  0
  139.1320   73.6900  218.9170 O   0  0  0  0  0  0  0  0  0  0  0  0
  140.6970   74.8060  220.2900 N   0  0  0  0  0  0  0  0  0  0  0  0
  141.7600   73.8720  220.1330 C   0  0  0  0  0  0  0  0  0  0  0  0
  143.1350   74.3900  220.4070 C   0  0  0  0  0  0  0  0  0  0  0  0
  143.5290   75.5840  219.5910 C   0  0  0  0  0  0  0  0  0  0  0  0
  142.9720   76.8890  220.0550 C   0  0  0  0  0  0  0  0  0  0  0  0
  141.4970   77.0480  219.7820 C   0  0  0  0  0  0  0  0  0  0  0  0
  140.6490   76.2010  220.6680 C   0  0  2  0  0  0  0  0  0  0  0  0
  141.0380   76.4130  222.1090 C   0  0  0  0  0  0  0  0  0  0  0  0
  140.8380   77.7810  222.5930 C   0  0  0  0  0  0  0  0  0  0  0  0
  141.8860   78.6080  222.9580 C   0  0  0  0  0  0  0  0  0  0  0  0
  141.7060   79.8960  223.4170 C   0  0  0  0  0  0  0  0  0  0  0  0
  140.4330   80.4150  223.5280 C   0  0  0  0  0  0  0  0  0  0  0  0
  139.3620   79.6210  223.1730 C   0  0  0  0  0  0  0  0  0  0  0  0
  139.5640   78.3290  222.7160 C   0  0  0  0  0  0  0  0  0  0  0  0
  139.1180   71.1400  223.0210 C   0  0  0  0  0  0  0  0  0  0  0  0
  138.7990   69.7980  223.0370 C   0  0  0  0  0  0  0  0  0  0  0  0
  139.0870   68.9500  224.0730 C   0  0  0  0  0  0  0  0  0  0  0  0
  139.7370   69.4660  225.1710 C   0  0  0  0  0  0  0  0  0  0  0  0
  140.0290   68.6210  226.2130 C   0  0  0  0  0  0  0  0  0  0  0  0
  140.6790   69.1540  227.3030 C   0  0  0  0  0  0  0  0  0  0  0  0
  141.1050   68.1680  228.6960 Cl  0  0  0  0  0  0  0  0  0  0  0  0
  141.0050   70.4860  227.3040 C   0  0  0  0  0  0  0  0  0  0  0  0
  140.7160   71.3470  226.2620 C   0  0  0  0  0  0  0  0  0  0  0  0
  140.0550   70.7980  225.1590 C   0  0  0  0  0  0  0  0  0  0  0  0
  139.7590   71.6190  224.1200 N   0  0  0  0  0  0  0  0  0  0  0  0
  138.7680   73.7540  223.0670 H   0  0  0  0  0  0  0  0  0  0  0  0
  137.3518   73.9887  220.5440 H   0  0  0  0  0  0  0  0  0  0  0  0
  138.1759   75.3165  221.4058 H   0  0  0  0  0  0  0  0  0  0  0  0
  141.5740   73.0325  220.8190 H   0  0  0  0  0  0  0  0  0  0  0  0
  141.7551   73.5942  219.0687 H   0  0  0  0  0  0  0  0  0  0  0  0
  143.1909   74.6679  221.4699 H   0  0  0  0  0  0  0  0  0  0  0  0
  143.8310   73.5834  220.1332 H   0  0  0  0  0  0  0  0  0  0  0  0
  144.6264   75.6586  219.6068 H   0  0  0  0  0  0  0  0  0  0  0  0
  143.1116   75.4161  218.5872 H   0  0  0  0  0  0  0  0  0  0  0  0
  143.1356   76.9708  221.1397 H   0  0  0  0  0  0  0  0  0  0  0  0
  143.4909   77.6792  219.4925 H   0  0  0  0  0  0  0  0  0  0  0  0
  141.2229   78.1020  219.9367 H   0  0  0  0  0  0  0  0  0  0  0  0
  141.3163   76.7262  218.7458 H   0  0  0  0  0  0  0  0  0  0  0  0
  139.6011   76.5126  220.5462 H   0  0  0  0  0  0  0  0  0  0  0  0
  140.4350   75.7358  222.7317 H   0  0  0  0  0  0  0  0  0  0  0  0
  142.1169   76.2097  222.1769 H   0  0  0  0  0  0  0  0  0  0  0  0
  142.9119   78.2193  222.8781 H   0  0  0  0  0  0  0  0  0  0  0  0
  142.5766   80.5086  223.6942 H   0  0  0  0  0  0  0  0  0  0  0  0
  140.2749   81.4409  223.8921 H   0  0  0  0  0  0  0  0  0  0  0  0
  138.3390   80.0173  223.2535 H   0  0  0  0  0  0  0  0  0  0  0  0
  138.6916   77.7176  222.4420 H   0  0  0  0  0  0  0  0  0  0  0  0
  138.2797   69.3822  222.1610 H   0  0  0  0  0  0  0  0  0  0  0  0
  138.8070   67.8872  224.0289 H   0  0  0  0  0  0  0  0  0  0  0  0
  139.7535   67.5566  226.1780 H   0  0  0  0  0  0  0  0  0  0  0  0
  141.5259   70.8922  228.1836 H   0  0  0  0  0  0  0  0  0  0  0  0
  140.9923   72.4111  226.2987 H   0  0  0  0  0  0  0  0  0  0  0  0
  1  2  2  0
  2  3  1  0
  3  4  1  0
  4  5  1  0
  5  6  2  0
  5  7  1  0
  7  8  1  0
  8  9  1  0
  9 10  1  0
 10 11  1  0
 11 12  1  0
 12 13  1  0
 13 14  1  0
 14 15  1  0
 15 16  2  0
 16 17  1  0
 17 18  2  0
 18 19  1  0
 19 20  2  0
  2 21  1  0
 21 22  2  0
 22 23  1  0
 23 24  2  0
 24 25  1  0
 25 26  2  0
 26 27  1  0
 26 28  1  0
 28 29  2  0
 29 30  1  0
 30 31  2  0
 13  7  1  0
 20 15  1  0
 31 21  1  0
 30 24  1  0
  3 32  1  0
  4 33  1  0
  4 34  1  0
  8 35  1  0
  8 36  1  0
  9 37  1  0
  9 38  1  0
 10 39  1  0
 10 40  1  0
 11 41  1  0
 11 42  1  0
 12 43  1  0
 12 44  1  0
 13 45  1  1
 14 46  1  0
 14 47  1  0
 16 48  1  0
 17 49  1  0
 18 50  1  0
 19 51  1  0
 20 52  1  0
 22 53  1  0
 23 54  1  0
 25 55  1  0
 28 56  1  0
 29 57  1  0
M  END
>  <smiles>  (3) 
O=C(NCC(=O)N1CCCCCC1Cc1ccccc1)c1ccc2cc(Cl)ccc2n1

>  <score_type>  (3) 
oracle

>  <origin>  (3) 
autodockgpu

>  <m_score__min__energy>  (3) 
-7.04

>  <m_primary>  (3) 
energy

>  <rmsd>  (3) 
2.2664728296930785

>  <m_score__min__rmsd>  (3) 
2.2664728296930785

>  <meeko>  (3) 
{"free_energy": -6.41, "intermolecular_energy": -9.99, "internal_energy": -2.01, "cluster_size": 28, "cluster_id": 1, "rank_in_cluster": 13}

>  <energy>  (3) 
-6.85

>  <cluster_rmsd>  (3) 
1.12

>  <cluster>  (3) 
1

$$$$

     RDKit          3D

 57 60  0  0  0  0  0  0  0  0999 V2000
  139.0820   71.7160  221.0240 O   0  0  0  0  0  0  0  0  0  0  0  0
  139.3100   72.2460  222.1550 C   0  0  0  0  0  0  0  0  0  0  0  0
  139.3440   73.6510  222.3500 N   0  0  0  0  0  0  0  0  0  0  0  0
  139.1240   74.5930  221.2780 C   0  0  0  0  0  0  0  0  0  0  0  0
  139.9370   75.8060  221.5630 C   0  0  0  0  0  0  0  0  0  0  0  0
  139.5940   76.4850  222.5720 O   0  0  0  0  0  0  0  0  0  0  0  0
  141.0500   76.1870  220.7350 N   0  0  0  0  0  0  0  0  0  0  0  0
  142.1100   75.2360  220.7350 C   0  0  0  0  0  0  0  0  0  0  0  0
  142.7920   75.0130  219.4230 C   0  0  0  0  0  0  0  0  0  0  0  0
  143.6030   76.1750  218.9350 C   0  0  0  0  0  0  0  0  0  0  0  0
  142.8190   77.3780  218.5290 C   0  0  0  0  0  0  0  0  0  0  0  0
  142.1550   78.0850  219.6850 C   0  0  0  0  0  0  0  0  0  0  0  0
  140.8590   77.4600  220.0770 C   0  0  2  0  0  0  0  0  0  0  0  0
  140.0590   78.4210  220.9180 C   0  0  0  0  0  0  0  0  0  0  0  0
  140.8620   79.2410  221.8290 C   0  0  0  0  0  0  0  0  0  0  0  0
  141.4350   78.7360  222.9830 C   0  0  0  0  0  0  0  0  0  0  0  0
  142.1910   79.5010  223.8460 C   0  0  0  0  0  0  0  0  0  0  0  0
  142.4050   80.8360  223.5750 C   0  0  0  0  0  0  0  0  0  0  0  0
  141.8500   81.3750  222.4330 C   0  0  0  0  0  0  0  0  0  0  0  0
  141.0930   80.5910  221.5790 C   0  0  0  0  0  0  0  0  0  0  0  0
  139.5430   71.3660  223.2930 C   0  0  0  0  0  0  0  0  0  0  0  0
  139.2160   70.0270  223.2470 C   0  0  0  0  0  0  0  0  0  0  0  0
  139.4110   69.1500  224.2810 C   0  0  0  0  0  0  0  0  0  0  0  0
  139.9680   69.6330  225.4440 C   0  0  0  0  0  0  0  0  0  0  0  0
  140.1650   68.7590  226.4840 C   0  0  0  0  0  0  0  0  0  0  0  0
  140.7230   69.2580  227.6390 C   0  0  0  0  0  0  0  0  0  0  0  0
  141.0230   68.2330  229.0370 Cl  0  0  0  0  0  0  0  0  0  0  0  0
  141.0550   70.5880  227.7030 C   0  0  0  0  0  0  0  0  0  0  0  0
  140.8610   71.4770  226.6630 C   0  0  0  0  0  0  0  0  0  0  0  0
  140.2930   70.9620  225.4940 C   0  0  0  0  0  0  0  0  0  0  0  0
  140.0910   71.8120  224.4550 N   0  0  0  0  0  0  0  0  0  0  0  0
  139.5410   74.0030  223.3280 H   0  0  0  0  0  0  0  0  0  0  0  0
  139.4362   74.1499  220.3208 H   0  0  0  0  0  0  0  0  0  0  0  0
  138.0575   74.8534  221.2087 H   0  0  0  0  0  0  0  0  0  0  0  0
  142.8685   75.5778  221.4546 H   0  0  0  0  0  0  0  0  0  0  0  0
  141.6444   74.2736  220.9940 H   0  0  0  0  0  0  0  0  0  0  0  0
  143.4621   74.1470  219.5277 H   0  0  0  0  0  0  0  0  0  0  0  0
  141.9955   74.8556  218.6808 H   0  0  0  0  0  0  0  0  0  0  0  0
  144.2883   76.4732  219.7421 H   0  0  0  0  0  0  0  0  0  0  0  0
  144.1151   75.8264  218.0260 H   0  0  0  0  0  0  0  0  0  0  0  0
  143.4998   78.0857  218.0333 H   0  0  0  0  0  0  0  0  0  0  0  0
  142.0177   77.0302  217.8605 H   0  0  0  0  0  0  0  0  0  0  0  0
  142.8339   78.0584  220.5501 H   0  0  0  0  0  0  0  0  0  0  0  0
  141.9423   79.1157  219.3649 H   0  0  0  0  0  0  0  0  0  0  0  0
  140.2861   77.2453  219.1629 H   0  0  0  0  0  0  0  0  0  0  0  0
  139.5097   79.0939  220.2431 H   0  0  0  0  0  0  0  0  0  0  0  0
  139.3955   77.8100  221.5477 H   0  0  0  0  0  0  0  0  0  0  0  0
  141.2800   77.6738  223.2233 H   0  0  0  0  0  0  0  0  0  0  0  0
  142.6230   79.0467  224.7498 H   0  0  0  0  0  0  0  0  0  0  0  0
  143.0056   81.4579  224.2551 H   0  0  0  0  0  0  0  0  0  0  0  0
  142.0104   82.4377  222.1986 H   0  0  0  0  0  0  0  0  0  0  0  0
  140.6614   81.0482  220.6764 H   0  0  0  0  0  0  0  0  0  0  0  0
  138.7697   69.6381  222.3199 H   0  0  0  0  0  0  0  0  0  0  0  0
  139.1308   68.0906  224.1851 H   0  0  0  0  0  0  0  0  0  0  0  0
  139.8870   67.6982  226.3974 H   0  0  0  0  0  0  0  0  0  0  0  0
  141.5005   70.9677  228.6343 H   0  0  0  0  0  0  0  0  0  0  0  0
  141.1397   72.5375  226.7506 H   0  0  0  0  0  0  0  0  0  0  0  0
  1  2  2  0
  2  3  1  0
  3  4  1  0
  4  5  1  0
  5  6  2  0
  5  7  1  0
  7  8  1  0
  8  9  1  0
  9 10  1  0
 10 11  1  0
 11 12  1  0
 12 13  1  0
 13 14  1  0
 14 15  1  0
 15 16  2  0
 16 17  1  0
 17 18  2  0
 18 19  1  0
 19 20  2  0
  2 21  1  0
 21 22  2  0
 22 23  1  0
 23 24  2  0
 24 25  1  0
 25 26  2  0
 26 27  1  0
 26 28  1  0
 28 29  2  0
 29 30  1  0
 30 31  2  0
 13  7  1  0
 20 15  1  0
 31 21  1  0
 30 24  1  0
  3 32  1  0
  4 33  1  0
  4 34  1  0
  8 35  1  0
  8 36  1  0
  9 37  1  0
  9 38  1  0
 10 39  1  0
 10 40  1  0
 11 41  1  0
 11 42  1  0
 12 43  1  0
 12 44  1  0
 13 45  1  6
 14 46  1  0
 14 47  1  0
 16 48  1  0
 17 49  1  0
 18 50  1  0
 19 51  1  0
 20 52  1  0
 22 53  1  0
 23 54  1  0
 25 55  1  0
 28 56  1  0
 29 57  1  0
M  END
>  <smiles>  (4) 
O=C(NCC(=O)N1CCCCCC1Cc1ccccc1)c1ccc2cc(Cl)ccc2n1

>  <score_type>  (4) 
oracle

>  <origin>  (4) 
autodockgpu

>  <m_score__min__energy>  (4) 
-7.04

>  <m_primary>  (4) 
energy

>  <rmsd>  (4) 
2.094265883152298

>  <m_score__min__rmsd>  (4) 
2.094265883152298

>  <meeko>  (4) 
{"free_energy": -6.85, "intermolecular_energy": -10.43, "internal_energy": -1.85, "cluster_size": 28, "cluster_id": 1, "rank_in_cluster": 3}

>  <energy>  (4) 
-6.83

>  <cluster_rmsd>  (4) 
0.67

>  <cluster>  (4) 
1

$$$$

     RDKit          3D

 57 60  0  0  0  0  0  0  0  0999 V2000
  139.1410   71.6890  220.5710 O   0  0  0  0  0  0  0  0  0  0  0  0
  138.9940   72.1990  221.7240 C   0  0  0  0  0  0  0  0  0  0  0  0
  138.5620   73.5360  221.9210 N   0  0  0  0  0  0  0  0  0  0  0  0
  138.2550   74.4260  220.8280 C   0  0  0  0  0  0  0  0  0  0  0  0
  138.8490   75.7540  221.1390 C   0  0  0  0  0  0  0  0  0  0  0  0
  138.0340   76.7070  221.2970 O   0  0  0  0  0  0  0  0  0  0  0  0
  140.2700   75.9450  221.2530 N   0  0  0  0  0  0  0  0  0  0  0  0
  141.0170   74.7420  221.1130 C   0  0  0  0  0  0  0  0  0  0  0  0
  142.4660   74.9030  220.7790 C   0  0  0  0  0  0  0  0  0  0  0  0
  142.7390   75.7310  219.5590 C   0  0  0  0  0  0  0  0  0  0  0  0
  141.8030   76.8720  219.3370 C   0  0  0  0  0  0  0  0  0  0  0  0
  141.6780   77.7930  220.5270 C   0  0  0  0  0  0  0  0  0  0  0  0
  140.6410   77.3230  221.4890 C   0  0  2  0  0  0  0  0  0  0  0  0
  141.1110   77.5510  222.9030 C   0  0  0  0  0  0  0  0  0  0  0  0
  141.4550   78.9420  223.2080 C   0  0  0  0  0  0  0  0  0  0  0  0
  140.5070   79.8920  223.5450 C   0  0  0  0  0  0  0  0  0  0  0  0
  140.8230   81.2030  223.8310 C   0  0  0  0  0  0  0  0  0  0  0  0
  142.1370   81.6200  223.7890 C   0  0  0  0  0  0  0  0  0  0  0  0
  143.1110   80.7010  223.4580 C   0  0  0  0  0  0  0  0  0  0  0  0
  142.7740   79.3890  223.1720 C   0  0  0  0  0  0  0  0  0  0  0  0
  139.2830   71.3680  222.8860 C   0  0  0  0  0  0  0  0  0  0  0  0
  138.9510   70.0300  222.9140 C   0  0  0  0  0  0  0  0  0  0  0  0
  139.1960   69.1980  223.9740 C   0  0  0  0  0  0  0  0  0  0  0  0
  139.8130   69.7270  225.0860 C   0  0  0  0  0  0  0  0  0  0  0  0
  140.0600   68.8980  226.1520 C   0  0  0  0  0  0  0  0  0  0  0  0
  140.6780   69.4440  227.2540 C   0  0  0  0  0  0  0  0  0  0  0  0
  141.0460   68.4790  228.6780 Cl  0  0  0  0  0  0  0  0  0  0  0  0
  141.0150   70.7740  227.2430 C   0  0  0  0  0  0  0  0  0  0  0  0
  140.7710   71.6180  226.1770 C   0  0  0  0  0  0  0  0  0  0  0  0
  140.1430   71.0560  225.0610 C   0  0  0  0  0  0  0  0  0  0  0  0
  139.8900   71.8610  223.9980 N   0  0  0  0  0  0  0  0  0  0  0  0
  138.4680   73.8760  222.9190 H   0  0  0  0  0  0  0  0  0  0  0  0
  138.6848   74.0337  219.8946 H   0  0  0  0  0  0  0  0  0  0  0  0
  137.1661   74.5139  220.6997 H   0  0  0  0  0  0  0  0  0  0  0  0
  140.9501   74.1922  222.0634 H   0  0  0  0  0  0  0  0  0  0  0  0
  140.5725   74.2160  220.2553 H   0  0  0  0  0  0  0  0  0  0  0  0
  142.9642   75.3803  221.6357 H   0  0  0  0  0  0  0  0  0  0  0  0
  142.8491   73.8948  220.5626 H   0  0  0  0  0  0  0  0  0  0  0  0
  143.7567   76.1391  219.6466 H   0  0  0  0  0  0  0  0  0  0  0  0
  142.6051   75.0576  218.6996 H   0  0  0  0  0  0  0  0  0  0  0  0
  142.1668   77.4584  218.4804 H   0  0  0  0  0  0  0  0  0  0  0  0
  140.8070   76.4412  219.1571 H   0  0  0  0  0  0  0  0  0  0  0  0
  142.6477   77.8389  221.0442 H   0  0  0  0  0  0  0  0  0  0  0  0
  141.3764   78.7849  220.1593 H   0  0  0  0  0  0  0  0  0  0  0  0
  139.7271   77.9145  221.3314 H   0  0  0  0  0  0  0  0  0  0  0  0
  140.3092   77.2366  223.5873 H   0  0  0  0  0  0  0  0  0  0  0  0
  142.0334   76.9645  223.0264 H   0  0  0  0  0  0  0  0  0  0  0  0
  139.4511   79.5866  223.5867 H   0  0  0  0  0  0  0  0  0  0  0  0
  140.0275   81.9162  224.0926 H   0  0  0  0  0  0  0  0  0  0  0  0
  142.4026   82.6633  224.0147 H   0  0  0  0  0  0  0  0  0  0  0  0
  144.1650   81.0134  223.4209 H   0  0  0  0  0  0  0  0  0  0  0  0
  143.5713   78.6785  222.9085 H   0  0  0  0  0  0  0  0  0  0  0  0
  138.4577   69.6034  222.0282 H   0  0  0  0  0  0  0  0  0  0  0  0
  138.9081   68.1370  223.9382 H   0  0  0  0  0  0  0  0  0  0  0  0
  139.7744   67.8360  226.1264 H   0  0  0  0  0  0  0  0  0  0  0  0
  141.5074   71.1919  228.1335 H   0  0  0  0  0  0  0  0  0  0  0  0
  141.0566   72.6799  226.2046 H   0  0  0  0  0  0  0  0  0  0  0  0
  1  2  2  0
  2  3  1  0
  3  4  1  0
  4  5  1  0
  5  6  2  0
  5  7  1  0
  7  8  1  0
  8  9  1  0
  9 10  1  0
 10 11  1  0
 11 12  1  0
 12 13  1  0
 13 14  1  0
 14 15  1  0
 15 16  2  0
 16 17  1  0
 17 18  2  0
 18 19  1  0
 19 20  2  0
  2 21  1  0
 21 22  2  0
 22 23  1  0
 23 24  2  0
 24 25  1  0
 25 26  2  0
 26 27  1  0
 26 28  1  0
 28 29  2  0
 29 30  1  0
 30 31  2  0
 13  7  1  0
 20 15  1  0
 31 21  1  0
 30 24  1  0
  3 32  1  0
  4 33  1  0
  4 34  1  0
  8 35  1  0
  8 36  1  0
  9 37  1  0
  9 38  1  0
 10 39  1  0
 10 40  1  0
 11 41  1  0
 11 42  1  0
 12 43  1  0
 12 44  1  0
 13 45  1  6
 14 46  1  0
 14 47  1  0
 16 48  1  0
 17 49  1  0
 18 50  1  0
 19 51  1  0
 20 52  1  0
 22 53  1  0
 23 54  1  0
 25 55  1  0
 28 56  1  0
 29 57  1  0
M  END
>  <smiles>  (5) 
O=C(NCC(=O)N1CCCCCC1Cc1ccccc1)c1ccc2cc(Cl)ccc2n1

>  <score_type>  (5) 
oracle

>  <origin>  (5) 
autodockgpu

>  <m_score__min__energy>  (5) 
-7.04

>  <m_primary>  (5) 
energy

>  <rmsd>  (5) 
2.358235050336025

>  <m_score__min__rmsd>  (5) 
2.358235050336025

>  <meeko>  (5) 
{"free_energy": -6.28, "intermolecular_energy": -9.86, "internal_energy": -1.78, "cluster_size": 28, "cluster_id": 1, "rank_in_cluster": 16}

>  <energy>  (5) 
-6.8

>  <cluster_rmsd>  (5) 
1.22

>  <cluster>  (5) 
1

$$$$

     RDKit          3D

 57 60  0  0  0  0  0  0  0  0999 V2000
  140.1520   72.3810  220.5770 O   0  0  0  0  0  0  0  0  0  0  0  0
  139.9260   72.8290  221.7430 C   0  0  0  0  0  0  0  0  0  0  0  0
  139.6940   74.2040  222.0040 N   0  0  0  0  0  0  0  0  0  0  0  0
  139.6960   75.2060  220.9650 C   0  0  0  0  0  0  0  0  0  0  0  0
  140.8520   76.1110  221.2060 C   0  0  0  0  0  0  0  0  0  0  0  0
  141.3540   76.0800  222.3640 O   0  0  0  0  0  0  0  0  0  0  0  0
  141.3700   76.9740  220.1780 N   0  0  0  0  0  0  0  0  0  0  0  0
  140.9950   78.3380  220.3400 C   0  0  0  0  0  0  0  0  0  0  0  0
  141.7250   79.3260  219.4880 C   0  0  0  0  0  0  0  0  0  0  0  0
  141.5390   79.1380  218.0130 C   0  0  0  0  0  0  0  0  0  0  0  0
  142.3030   78.0070  217.4100 C   0  0  0  0  0  0  0  0  0  0  0  0
  141.7830   76.6490  217.8010 C   0  0  0  0  0  0  0  0  0  0  0  0
  142.1630   76.2740  219.1930 C   0  0  2  0  0  0  0  0  0  0  0  0
  142.0870   74.7780  219.3610 C   0  0  0  0  0  0  0  0  0  0  0  0
  143.2810   74.1750  219.9590 C   0  0  0  0  0  0  0  0  0  0  0  0
  143.3500   72.8390  220.3100 C   0  0  0  0  0  0  0  0  0  0  0  0
  144.4700   72.2650  220.8750 C   0  0  0  0  0  0  0  0  0  0  0  0
  145.5910   73.0320  221.1140 C   0  0  0  0  0  0  0  0  0  0  0  0
  145.5600   74.3690  220.7770 C   0  0  0  0  0  0  0  0  0  0  0  0
  144.4250   74.9270  220.2120 C   0  0  0  0  0  0  0  0  0  0  0  0
  139.9060   71.8830  222.8530 C   0  0  0  0  0  0  0  0  0  0  0  0
  139.3140   70.6440  222.7310 C   0  0  0  0  0  0  0  0  0  0  0  0
  139.2630   69.7130  223.7350 C   0  0  0  0  0  0  0  0  0  0  0  0
  139.8370   70.0310  224.9440 C   0  0  0  0  0  0  0  0  0  0  0  0
  139.7890   69.1030  225.9550 C   0  0  0  0  0  0  0  0  0  0  0  0
  140.3680   69.4380  227.1570 C   0  0  0  0  0  0  0  0  0  0  0  0
  140.3680   68.3280  228.5220 Cl  0  0  0  0  0  0  0  0  0  0  0  0
  140.9620   70.6670  227.2960 C   0  0  0  0  0  0  0  0  0  0  0  0
  141.0160   71.6100  226.2870 C   0  0  0  0  0  0  0  0  0  0  0  0
  140.4250   71.2620  225.0690 C   0  0  0  0  0  0  0  0  0  0  0  0
  140.4640   72.1680  224.0590 N   0  0  0  0  0  0  0  0  0  0  0  0
  139.5140   74.4870  223.0070 H   0  0  0  0  0  0  0  0  0  0  0  0
  139.7970   74.7243  219.9812 H   0  0  0  0  0  0  0  0  0  0  0  0
  138.7544   75.7745  220.9786 H   0  0  0  0  0  0  0  0  0  0  0  0
  139.9229   78.4217  220.1083 H   0  0  0  0  0  0  0  0  0  0  0  0
  141.2537   78.5945  221.3779 H   0  0  0  0  0  0  0  0  0  0  0  0
  141.3717   80.3336  219.7524 H   0  0  0  0  0  0  0  0  0  0  0  0
  142.7964   79.1772  219.6878 H   0  0  0  0  0  0  0  0  0  0  0  0
  140.4693   78.9629  217.8255 H   0  0  0  0  0  0  0  0  0  0  0  0
  141.9273   80.0520  217.5399 H   0  0  0  0  0  0  0  0  0  0  0  0
  142.2503   78.0970  216.3150 H   0  0  0  0  0  0  0  0  0  0  0  0
  143.3337   78.0776  217.7877 H   0  0  0  0  0  0  0  0  0  0  0  0
  140.6857   76.6553  217.7239 H   0  0  0  0  0  0  0  0  0  0  0  0
  142.2307   75.9098  217.1205 H   0  0  0  0  0  0  0  0  0  0  0  0
  143.2036   76.5867  219.3645 H   0  0  0  0  0  0  0  0  0  0  0  0
  141.2257   74.5474  220.0051 H   0  0  0  0  0  0  0  0  0  0  0  0
  141.9928   74.3529  218.3508 H   0  0  0  0  0  0  0  0  0  0  0  0
  142.4700   72.2040  220.1301 H   0  0  0  0  0  0  0  0  0  0  0  0
  144.4690   71.1961  221.1348 H   0  0  0  0  0  0  0  0  0  0  0  0
  146.4907   72.5868  221.5638 H   0  0  0  0  0  0  0  0  0  0  0  0
  146.4442   74.9977  220.9584 H   0  0  0  0  0  0  0  0  0  0  0  0
  144.4277   75.9967  219.9555 H   0  0  0  0  0  0  0  0  0  0  0  0
  138.8531   70.3863  221.7660 H   0  0  0  0  0  0  0  0  0  0  0  0
  138.7768   68.7388  223.5787 H   0  0  0  0  0  0  0  0  0  0  0  0
  139.3047   68.1262  225.8089 H   0  0  0  0  0  0  0  0  0  0  0  0
  141.4208   70.9156  228.2644 H   0  0  0  0  0  0  0  0  0  0  0  0
  141.5003   72.5865  226.4352 H   0  0  0  0  0  0  0  0  0  0  0  0
  1  2  2  0
  2  3  1  0
  3  4  1  0
  4  5  1  0
  5  6  2  0
  5  7  1  0
  7  8  1  0
  8  9  1  0
  9 10  1  0
 10 11  1  0
 11 12  1  0
 12 13  1  0
 13 14  1  0
 14 15  1  0
 15 16  2  0
 16 17  1  0
 17 18  2  0
 18 19  1  0
 19 20  2  0
  2 21  1  0
 21 22  2  0
 22 23  1  0
 23 24  2  0
 24 25  1  0
 25 26  2  0
 26 27  1  0
 26 28  1  0
 28 29  2  0
 29 30  1  0
 30 31  2  0
 13  7  1  0
 20 15  1  0
 31 21  1  0
 30 24  1  0
  3 32  1  0
  4 33  1  0
  4 34  1  0
  8 35  1  0
  8 36  1  0
  9 37  1  0
  9 38  1  0
 10 39  1  0
 10 40  1  0
 11 41  1  0
 11 42  1  0
 12 43  1  0
 12 44  1  0
 13 45  1  1
 14 46  1  0
 14 47  1  0
 16 48  1  0
 17 49  1  0
 18 50  1  0
 19 51  1  0
 20 52  1  0
 22 53  1  0
 23 54  1  0
 25 55  1  0
 28 56  1  0
 29 57  1  0
M  END
>  <smiles>  (6) 
O=C(NCC(=O)N1CCCCCC1Cc1ccccc1)c1ccc2cc(Cl)ccc2n1

>  <score_type>  (6) 
oracle

>  <origin>  (6) 
autodockgpu

>  <m_score__min__energy>  (6) 
-7.04

>  <m_primary>  (6) 
energy

>  <rmsd>  (6) 
2.5381468661882503

>  <m_score__min__rmsd>  (6) 
2.5381468661882503

>  <meeko>  (6) 
{"free_energy": -6.11, "intermolecular_energy": -9.69, "internal_energy": -2.26, "cluster_size": 4, "cluster_id": 3, "rank_in_cluster": 3}

>  <energy>  (6) 
-6.68

>  <cluster_rmsd>  (6) 
0.88

>  <cluster>  (6) 
1

$$$$

     RDKit          3D

 57 60  0  0  0  0  0  0  0  0999 V2000
  133.2380   70.2420  226.7010 O   0  0  0  0  0  0  0  0  0  0  0  0
  133.6560   71.3210  226.1810 C   0  0  0  0  0  0  0  0  0  0  0  0
  134.6320   71.3470  225.1510 N   0  0  0  0  0  0  0  0  0  0  0  0
  135.2290   70.1490  224.6120 C   0  0  0  0  0  0  0  0  0  0  0  0
  136.5730   70.5060  224.0830 C   0  0  0  0  0  0  0  0  0  0  0  0
  136.9260   71.7110  224.2240 O   0  0  0  0  0  0  0  0  0  0  0  0
  137.4230   69.5360  223.4460 N   0  0  0  0  0  0  0  0  0  0  0  0
  136.7060   68.4800  222.8160 C   0  0  0  0  0  0  0  0  0  0  0  0
  136.6180   68.5440  221.3250 C   0  0  0  0  0  0  0  0  0  0  0  0
  137.9340   68.7110  220.6260 C   0  0  0  0  0  0  0  0  0  0  0  0
  138.7570   69.8700  221.0810 C   0  0  0  0  0  0  0  0  0  0  0  0
  139.5790   69.5820  222.3170 C   0  0  0  0  0  0  0  0  0  0  0  0
  138.8300   69.8390  223.5800 C   0  0  2  0  0  0  0  0  0  0  0  0
  139.4680   69.0830  224.7180 C   0  0  0  0  0  0  0  0  0  0  0  0
  139.9080   69.9260  225.8320 C   0  0  0  0  0  0  0  0  0  0  0  0
  139.5970   69.6480  227.1510 C   0  0  0  0  0  0  0  0  0  0  0  0
  140.0060   70.4370  228.2050 C   0  0  0  0  0  0  0  0  0  0  0  0
  140.7630   71.5650  227.9670 C   0  0  0  0  0  0  0  0  0  0  0  0
  141.0930   71.8760  226.6640 C   0  0  0  0  0  0  0  0  0  0  0  0
  140.6720   71.0710  225.6190 C   0  0  0  0  0  0  0  0  0  0  0  0
  133.1040   72.5800  226.6670 C   0  0  0  0  0  0  0  0  0  0  0  0
  131.9280   72.6200  227.3860 C   0  0  0  0  0  0  0  0  0  0  0  0
  131.3600   73.7680  227.8700 C   0  0  0  0  0  0  0  0  0  0  0  0
  132.0010   74.9620  227.6240 C   0  0  0  0  0  0  0  0  0  0  0  0
  131.4360   76.1170  228.1060 C   0  0  0  0  0  0  0  0  0  0  0  0
  132.0900   77.3010  227.8520 C   0  0  0  0  0  0  0  0  0  0  0  0
  131.4610   78.8430  228.4200 Cl  0  0  0  0  0  0  0  0  0  0  0  0
  133.2610   77.2800  227.1380 C   0  0  0  0  0  0  0  0  0  0  0  0
  133.8390   76.1240  226.6480 C   0  0  0  0  0  0  0  0  0  0  0  0
  133.1680   74.9260  226.9110 C   0  0  0  0  0  0  0  0  0  0  0  0
  133.7130   73.7740  226.4410 N   0  0  0  0  0  0  0  0  0  0  0  0
  134.9210   72.2930  224.7770 H   0  0  0  0  0  0  0  0  0  0  0  0
  135.3280   69.3919  225.4038 H   0  0  0  0  0  0  0  0  0  0  0  0
  134.5996   69.7343  223.8108 H   0  0  0  0  0  0  0  0  0  0  0  0
  137.1979   67.5332  223.0835 H   0  0  0  0  0  0  0  0  0  0  0  0
  135.6709   68.5683  223.1776 H   0  0  0  0  0  0  0  0  0  0  0  0
  136.1568   67.6111  220.9687 H   0  0  0  0  0  0  0  0  0  0  0  0
  136.0242   69.4389  221.0871 H   0  0  0  0  0  0  0  0  0  0  0  0
  138.5213   67.7945  220.7844 H   0  0  0  0  0  0  0  0  0  0  0  0
  137.6943   68.9049  219.5701 H   0  0  0  0  0  0  0  0  0  0  0  0
  139.4408   70.1517  220.2667 H   0  0  0  0  0  0  0  0  0  0  0  0
  138.0584   70.6792  221.3401 H   0  0  0  0  0  0  0  0  0  0  0  0
  139.8844   68.5254  222.2980 H   0  0  0  0  0  0  0  0  0  0  0  0
  140.4472   70.2573  222.3029 H   0  0  0  0  0  0  0  0  0  0  0  0
  138.8882   70.9141  223.8054 H   0  0  0  0  0  0  0  0  0  0  0  0
  138.7356   68.3582  225.1032 H   0  0  0  0  0  0  0  0  0  0  0  0
  140.3707   68.6044  224.3104 H   0  0  0  0  0  0  0  0  0  0  0  0
  138.9942   68.7542  227.3694 H   0  0  0  0  0  0  0  0  0  0  0  0
  139.7288   70.1671  229.2347 H   0  0  0  0  0  0  0  0  0  0  0  0
  141.0966   72.2032  228.7985 H   0  0  0  0  0  0  0  0  0  0  0  0
  141.6960   72.7716  226.4534 H   0  0  0  0  0  0  0  0  0  0  0  0
  140.9491   71.3439  224.5900 H   0  0  0  0  0  0  0  0  0  0  0  0
  131.4130   71.6683  227.5834 H   0  0  0  0  0  0  0  0  0  0  0  0
  130.4190   73.7376  228.4388 H   0  0  0  0  0  0  0  0  0  0  0  0
  130.4946   76.0966  228.6746 H   0  0  0  0  0  0  0  0  0  0  0  0
  133.7685   78.2366  226.9446 H   0  0  0  0  0  0  0  0  0  0  0  0
  134.7803   76.1455  226.0793 H   0  0  0  0  0  0  0  0  0  0  0  0
  1  2  2  0
  2  3  1  0
  3  4  1  0
  4  5  1  0
  5  6  2  0
  5  7  1  0
  7  8  1  0
  8  9  1  0
  9 10  1  0
 10 11  1  0
 11 12  1  0
 12 13  1  0
 13 14  1  0
 14 15  1  0
 15 16  2  0
 16 17  1  0
 17 18  2  0
 18 19  1  0
 19 20  2  0
  2 21  1  0
 21 22  2  0
 22 23  1  0
 23 24  2  0
 24 25  1  0
 25 26  2  0
 26 27  1  0
 26 28  1  0
 28 29  2  0
 29 30  1  0
 30 31  2  0
 13  7  1  0
 20 15  1  0
 31 21  1  0
 30 24  1  0
  3 32  1  0
  4 33  1  0
  4 34  1  0
  8 35  1  0
  8 36  1  0
  9 37  1  0
  9 38  1  0
 10 39  1  0
 10 40  1  0
 11 41  1  0
 11 42  1  0
 12 43  1  0
 12 44  1  0
 13 45  1  1
 14 46  1  0
 14 47  1  0
 16 48  1  0
 17 49  1  0
 18 50  1  0
 19 51  1  0
 20 52  1  0
 22 53  1  0
 23 54  1  0
 25 55  1  0
 28 56  1  0
 29 57  1  0
M  END
>  <smiles>  (7) 
O=C(NCC(=O)N1CCCCCC1Cc1ccccc1)c1ccc2cc(Cl)ccc2n1

>  <score_type>  (7) 
oracle

>  <origin>  (7) 
autodockgpu

>  <m_score__min__energy>  (7) 
-7.04

>  <m_primary>  (7) 
energy

>  <rmsd>  (7) 
8.738009557199053

>  <m_score__min__rmsd>  (7) 
8.738009557199053

>  <meeko>  (7) 
{"free_energy": -5.78, "intermolecular_energy": -9.36, "internal_energy": -2.44, "cluster_size": 5, "cluster_id": 2, "rank_in_cluster": 3}

>  <energy>  (7) 
-6.66

>  <cluster_rmsd>  (7) 
1.76

>  <cluster>  (7) 
1

$$$$

     RDKit          3D

 57 60  0  0  0  0  0  0  0  0999 V2000
  138.2850   70.8200  221.4380 O   0  0  0  0  0  0  0  0  0  0  0  0
  138.8200   71.3960  222.4330 C   0  0  0  0  0  0  0  0  0  0  0  0
  139.0530   72.7960  222.4740 N   0  0  0  0  0  0  0  0  0  0  0  0
  138.7010   73.6770  221.3870 C   0  0  0  0  0  0  0  0  0  0  0  0
  139.4570   74.9460  221.5650 C   0  0  0  0  0  0  0  0  0  0  0  0
  140.7100   74.8380  221.6890 O   0  0  0  0  0  0  0  0  0  0  0  0
  138.8000   76.2260  221.5960 N   0  0  0  0  0  0  0  0  0  0  0  0
  137.6240   76.2790  220.7950 C   0  0  0  0  0  0  0  0  0  0  0  0
  137.5620   77.3870  219.7930 C   0  0  0  0  0  0  0  0  0  0  0  0
  137.4530   78.7610  220.3850 C   0  0  0  0  0  0  0  0  0  0  0  0
  138.6160   79.1940  221.2140 C   0  0  0  0  0  0  0  0  0  0  0  0
  138.7160   78.4700  222.5330 C   0  0  0  0  0  0  0  0  0  0  0  0
  139.4750   77.1910  222.4350 C   0  0  2  0  0  0  0  0  0  0  0  0
  140.8830   77.4620  221.9700 C   0  0  0  0  0  0  0  0  0  0  0  0
  141.4400   78.7330  222.4420 C   0  0  0  0  0  0  0  0  0  0  0  0
  141.7920   78.9520  223.7620 C   0  0  0  0  0  0  0  0  0  0  0  0
  142.3150   80.1450  224.2140 C   0  0  0  0  0  0  0  0  0  0  0  0
  142.5100   81.1890  223.3340 C   0  0  0  0  0  0  0  0  0  0  0  0
  142.1710   81.0080  222.0100 C   0  0  0  0  0  0  0  0  0  0  0  0
  141.6450   79.8030  221.5750 C   0  0  0  0  0  0  0  0  0  0  0  0
  139.2070   70.5790  223.5770 C   0  0  0  0  0  0  0  0  0  0  0  0
  138.9210   69.2310  223.6280 C   0  0  0  0  0  0  0  0  0  0  0  0
  139.2580   68.4110  224.6720 C   0  0  0  0  0  0  0  0  0  0  0  0
  139.9240   68.9640  225.7420 C   0  0  0  0  0  0  0  0  0  0  0  0
  140.2640   68.1480  226.7920 C   0  0  0  0  0  0  0  0  0  0  0  0
  140.9300   68.7170  227.8530 C   0  0  0  0  0  0  0  0  0  0  0  0
  141.4170   67.7700  229.2530 Cl  0  0  0  0  0  0  0  0  0  0  0  0
  141.2230   70.0570  227.8200 C   0  0  0  0  0  0  0  0  0  0  0  0
  140.8860   70.8900  226.7690 C   0  0  0  0  0  0  0  0  0  0  0  0
  140.2100   70.3030  225.6950 C   0  0  0  0  0  0  0  0  0  0  0  0
  139.8660   71.0960  224.6490 N   0  0  0  0  0  0  0  0  0  0  0  0
  139.5050   73.1900  223.3460 H   0  0  0  0  0  0  0  0  0  0  0  0
  138.9707   73.2126  220.4270 H   0  0  0  0  0  0  0  0  0  0  0  0
  137.6185   73.8722  221.3867 H   0  0  0  0  0  0  0  0  0  0  0  0
  137.5455   75.3271  220.2493 H   0  0  0  0  0  0  0  0  0  0  0  0
  136.7967   76.4663  221.4954 H   0  0  0  0  0  0  0  0  0  0  0  0
  138.4761   77.3484  219.1823 H   0  0  0  0  0  0  0  0  0  0  0  0
  136.6442   77.2266  219.2082 H   0  0  0  0  0  0  0  0  0  0  0  0
  137.3389   79.4785  219.5591 H   0  0  0  0  0  0  0  0  0  0  0  0
  136.5896   78.7305  221.0659 H   0  0  0  0  0  0  0  0  0  0  0  0
  139.5384   79.0086  220.6440 H   0  0  0  0  0  0  0  0  0  0  0  0
  138.4733   80.2610  221.4401 H   0  0  0  0  0  0  0  0  0  0  0  0
  139.2240   79.1254  223.2558 H   0  0  0  0  0  0  0  0  0  0  0  0
  137.6929   78.2237  222.8534 H   0  0  0  0  0  0  0  0  0  0  0  0
  139.5261   76.7399  223.4369 H   0  0  0  0  0  0  0  0  0  0  0  0
  141.5280   76.6477  222.3318 H   0  0  0  0  0  0  0  0  0  0  0  0
  140.8460   77.5226  220.8723 H   0  0  0  0  0  0  0  0  0  0  0  0
  141.6478   78.1357  224.4851 H   0  0  0  0  0  0  0  0  0  0  0  0
  142.5766   80.2641  225.2758 H   0  0  0  0  0  0  0  0  0  0  0  0
  142.9271   82.1458  223.6812 H   0  0  0  0  0  0  0  0  0  0  0  0
  142.3197   81.8283  221.2924 H   0  0  0  0  0  0  0  0  0  0  0  0
  141.3814   79.6878  220.5133 H   0  0  0  0  0  0  0  0  0  0  0  0
  138.3878   68.7855  222.7752 H   0  0  0  0  0  0  0  0  0  0  0  0
  139.0036   67.3409  224.6557 H   0  0  0  0  0  0  0  0  0  0  0  0
  140.0129   67.0771  226.7855 H   0  0  0  0  0  0  0  0  0  0  0  0
  141.7559   70.4931  228.6778 H   0  0  0  0  0  0  0  0  0  0  0  0
  141.1372   71.9609  226.7774 H   0  0  0  0  0  0  0  0  0  0  0  0
  1  2  2  0
  2  3  1  0
  3  4  1  0
  4  5  1  0
  5  6  2  0
  5  7  1  0
  7  8  1  0
  8  9  1  0
  9 10  1  0
 10 11  1  0
 11 12  1  0
 12 13  1  0
 13 14  1  0
 14 15  1  0
 15 16  2  0
 16 17  1  0
 17 18  2  0
 18 19  1  0
 19 20  2  0
  2 21  1  0
 21 22  2  0
 22 23  1  0
 23 24  2  0
 24 25  1  0
 25 26  2  0
 26 27  1  0
 26 28  1  0
 28 29  2  0
 29 30  1  0
 30 31  2  0
 13  7  1  0
 20 15  1  0
 31 21  1  0
 30 24  1  0
  3 32  1  0
  4 33  1  0
  4 34  1  0
  8 35  1  0
  8 36  1  0
  9 37  1  0
  9 38  1  0
 10 39  1  0
 10 40  1  0
 11 41  1  0
 11 42  1  0
 12 43  1  0
 12 44  1  0
 13 45  1  1
 14 46  1  0
 14 47  1  0
 16 48  1  0
 17 49  1  0
 18 50  1  0
 19 51  1  0
 20 52  1  0
 22 53  1  0
 23 54  1  0
 25 55  1  0
 28 56  1  0
 29 57  1  0
M  END
>  <smiles>  (8) 
O=C(NCC(=O)N1CCCCCC1Cc1ccccc1)c1ccc2cc(Cl)ccc2n1

>  <score_type>  (8) 
oracle

>  <origin>  (8) 
autodockgpu

>  <m_score__min__energy>  (8) 
-7.04

>  <m_primary>  (8) 
energy

>  <rmsd>  (8) 
2.224412441610974

>  <m_score__min__rmsd>  (8) 
2.224412441610974

>  <meeko>  (8) 
{"free_energy": -6.65, "intermolecular_energy": -10.23, "internal_energy": -1.67, "cluster_size": 28, "cluster_id": 1, "rank_in_cluster": 8}

>  <energy>  (8) 
-6.65

>  <cluster_rmsd>  (8) 
1.34

>  <cluster>  (8) 
1

$$$$

     RDKit          3D

 57 60  0  0  0  0  0  0  0  0999 V2000
  138.3160   71.3060  221.1830 O   0  0  0  0  0  0  0  0  0  0  0  0
  138.8370   71.8550  222.2010 C   0  0  0  0  0  0  0  0  0  0  0  0
  139.0780   73.2520  222.2790 N   0  0  0  0  0  0  0  0  0  0  0  0
  138.7520   74.1610  221.2070 C   0  0  0  0  0  0  0  0  0  0  0  0
  139.6480   73.8550  220.0600 C   0  0  0  0  0  0  0  0  0  0  0  0
  139.0820   73.5050  218.9860 O   0  0  0  0  0  0  0  0  0  0  0  0
  141.0800   73.9500  220.1660 N   0  0  0  0  0  0  0  0  0  0  0  0
  141.6920   72.7650  220.6630 C   0  0  0  0  0  0  0  0  0  0  0  0
  143.0110   72.4040  220.0590 C   0  0  0  0  0  0  0  0  0  0  0  0
  144.1320   73.3390  220.3990 C   0  0  0  0  0  0  0  0  0  0  0  0
  144.0360   74.7000  219.7950 C   0  0  0  0  0  0  0  0  0  0  0  0
  142.9180   75.5330  220.3680 C   0  0  0  0  0  0  0  0  0  0  0  0
  141.5970   75.2330  219.7450 C   0  0  2  0  0  0  0  0  0  0  0  0
  140.6300   76.3550  220.0230 C   0  0  0  0  0  0  0  0  0  0  0  0
  141.1050   77.3310  221.0070 C   0  0  0  0  0  0  0  0  0  0  0  0
  141.7210   78.5180  220.6470 C   0  0  0  0  0  0  0  0  0  0  0  0
  142.1720   79.4410  221.5670 C   0  0  0  0  0  0  0  0  0  0  0  0
  142.0180   79.2010  222.9160 C   0  0  0  0  0  0  0  0  0  0  0  0
  141.4090   78.0290  223.3130 C   0  0  0  0  0  0  0  0  0  0  0  0
  140.9630   77.1130  222.3740 C   0  0  0  0  0  0  0  0  0  0  0  0
  139.1980   71.0090  223.3320 C   0  0  0  0  0  0  0  0  0  0  0  0
  138.9380   69.6550  223.3290 C   0  0  0  0  0  0  0  0  0  0  0  0
  139.2520   68.8080  224.3590 C   0  0  0  0  0  0  0  0  0  0  0  0
  139.8680   69.3390  225.4700 C   0  0  0  0  0  0  0  0  0  0  0  0
  140.1850   68.4950  226.5050 C   0  0  0  0  0  0  0  0  0  0  0  0
  140.8000   69.0420  227.6080 C   0  0  0  0  0  0  0  0  0  0  0  0
  141.2540   68.0590  228.9940 Cl  0  0  0  0  0  0  0  0  0  0  0  0
  141.0680   70.3870  227.6280 C   0  0  0  0  0  0  0  0  0  0  0  0
  140.7530   71.2470  226.5920 C   0  0  0  0  0  0  0  0  0  0  0  0
  140.1280   70.6830  225.4760 C   0  0  0  0  0  0  0  0  0  0  0  0
  139.8070   71.5030  224.4430 N   0  0  0  0  0  0  0  0  0  0  0  0
  139.5170   73.6220  223.1680 H   0  0  0  0  0  0  0  0  0  0  0  0
  137.7022   74.0250  220.9079 H   0  0  0  0  0  0  0  0  0  0  0  0
  138.8888   75.2027  221.5329 H   0  0  0  0  0  0  0  0  0  0  0  0
  141.8413   72.8922  221.7454 H   0  0  0  0  0  0  0  0  0  0  0  0
  141.0096   71.9449  220.3952 H   0  0  0  0  0  0  0  0  0  0  0  0
  143.2851   71.3983  220.4103 H   0  0  0  0  0  0  0  0  0  0  0  0
  142.8793   72.4602  218.9684 H   0  0  0  0  0  0  0  0  0  0  0  0
  144.1579   73.4542  221.4926 H   0  0  0  0  0  0  0  0  0  0  0  0
  145.0425   72.8853  219.9804 H   0  0  0  0  0  0  0  0  0  0  0  0
  144.9865   75.2259  219.9682 H   0  0  0  0  0  0  0  0  0  0  0  0
  143.8238   74.5652  218.7241 H   0  0  0  0  0  0  0  0  0  0  0  0
  142.8503   75.3355  221.4480 H   0  0  0  0  0  0  0  0  0  0  0  0
  143.1506   76.5879  220.1602 H   0  0  0  0  0  0  0  0  0  0  0  0
  141.7350   75.1619  218.6560 H   0  0  0  0  0  0  0  0  0  0  0  0
  140.4362   76.8846  219.0785 H   0  0  0  0  0  0  0  0  0  0  0  0
  139.7264   75.8937  220.4480 H   0  0  0  0  0  0  0  0  0  0  0  0
  141.8569   78.7347  219.5772 H   0  0  0  0  0  0  0  0  0  0  0  0
  142.6544   80.3684  221.2247 H   0  0  0  0  0  0  0  0  0  0  0  0
  142.3735   79.9291  223.6600 H   0  0  0  0  0  0  0  0  0  0  0  0
  141.2762   77.8196  224.3847 H   0  0  0  0  0  0  0  0  0  0  0  0
  140.4823   76.1858  222.7194 H   0  0  0  0  0  0  0  0  0  0  0  0
  138.4468   69.2273  222.4425 H   0  0  0  0  0  0  0  0  0  0  0  0
  139.0187   67.7346  224.3001 H   0  0  0  0  0  0  0  0  0  0  0  0
  139.9558   67.4203  226.4547 H   0  0  0  0  0  0  0  0  0  0  0  0
  141.5611   70.8050  228.5180 H   0  0  0  0  0  0  0  0  0  0  0  0
  140.9828   72.3215  226.6435 H   0  0  0  0  0  0  0  0  0  0  0  0
  1  2  2  0
  2  3  1  0
  3  4  1  0
  4  5  1  0
  5  6  2  0
  5  7  1  0
  7  8  1  0
  8  9  1  0
  9 10  1  0
 10 11  1  0
 11 12  1  0
 12 13  1  0
 13 14  1  0
 14 15  1  0
 15 16  2  0
 16 17  1  0
 17 18  2  0
 18 19  1  0
 19 20  2  0
  2 21  1  0
 21 22  2  0
 22 23  1  0
 23 24  2  0
 24 25  1  0
 25 26  2  0
 26 27  1  0
 26 28  1  0
 28 29  2  0
 29 30  1  0
 30 31  2  0
 13  7  1  0
 20 15  1  0
 31 21  1  0
 30 24  1  0
  3 32  1  0
  4 33  1  0
  4 34  1  0
  8 35  1  0
  8 36  1  0
  9 37  1  0
  9 38  1  0
 10 39  1  0
 10 40  1  0
 11 41  1  0
 11 42  1  0
 12 43  1  0
 12 44  1  0
 13 45  1  6
 14 46  1  0
 14 47  1  0
 16 48  1  0
 17 49  1  0
 18 50  1  0
 19 51  1  0
 20 52  1  0
 22 53  1  0
 23 54  1  0
 25 55  1  0
 28 56  1  0
 29 57  1  0
M  END
>  <smiles>  (9) 
O=C(NCC(=O)N1CCCCCC1Cc1ccccc1)c1ccc2cc(Cl)ccc2n1

>  <score_type>  (9) 
oracle

>  <origin>  (9) 
autodockgpu

>  <m_score__min__energy>  (9) 
-7.04

>  <m_primary>  (9) 
energy

>  <rmsd>  (9) 
2.376825066197381

>  <m_score__min__rmsd>  (9) 
2.376825066197381

>  <meeko>  (9) 
{"free_energy": -6.01, "intermolecular_energy": -9.59, "internal_energy": -2.1, "cluster_size": 5, "cluster_id": 4, "rank_in_cluster": 3}

>  <energy>  (9) 
-6.54

>  <cluster_rmsd>  (9) 
1.16

>  <cluster>  (9) 
1

$$$$

     RDKit          3D

 57 60  0  0  0  0  0  0  0  0999 V2000
  137.2680   71.0970  221.0640 O   0  0  0  0  0  0  0  0  0  0  0  0
  137.8650   71.7640  221.9640 C   0  0  0  0  0  0  0  0  0  0  0  0
  138.0300   73.1710  221.8910 N   0  0  0  0  0  0  0  0  0  0  0  0
  137.5340   73.9590  220.7890 C   0  0  0  0  0  0  0  0  0  0  0  0
  138.6730   74.7430  220.2390 C   0  0  0  0  0  0  0  0  0  0  0  0
  138.3770   75.8250  219.6570 O   0  0  0  0  0  0  0  0  0  0  0  0
  140.0350   74.2950  220.3600 N   0  0  0  0  0  0  0  0  0  0  0  0
  140.1790   72.8830  220.2480 C   0  0  0  0  0  0  0  0  0  0  0  0
  141.3010   72.2740  221.0260 C   0  0  0  0  0  0  0  0  0  0  0  0
  142.6710   72.6490  220.5450 C   0  0  0  0  0  0  0  0  0  0  0  0
  143.0790   74.0590  220.8100 C   0  0  0  0  0  0  0  0  0  0  0  0
  142.3130   75.0700  219.9980 C   0  0  0  0  0  0  0  0  0  0  0  0
  140.9720   75.3750  220.5720 C   0  0  2  0  0  0  0  0  0  0  0  0
  141.1060   75.7340  222.0300 C   0  0  0  0  0  0  0  0  0  0  0  0
  140.5980   77.0640  222.3740 C   0  0  0  0  0  0  0  0  0  0  0  0
  139.2580   77.3160  222.6140 C   0  0  0  0  0  0  0  0  0  0  0  0
  138.7720   78.5650  222.9360 C   0  0  0  0  0  0  0  0  0  0  0  0
  139.6350   79.6360  223.0330 C   0  0  0  0  0  0  0  0  0  0  0  0
  140.9780   79.4240  222.8020 C   0  0  0  0  0  0  0  0  0  0  0  0
  141.4470   78.1620  222.4780 C   0  0  0  0  0  0  0  0  0  0  0  0
  138.3970   71.0450  223.1150 C   0  0  0  0  0  0  0  0  0  0  0  0
  138.1020   69.7160  223.3330 C   0  0  0  0  0  0  0  0  0  0  0  0
  138.5710   68.9870  224.3930 C   0  0  0  0  0  0  0  0  0  0  0  0
  139.3900   69.6180  225.3030 C   0  0  0  0  0  0  0  0  0  0  0  0
  139.8630   68.8920  226.3680 C   0  0  0  0  0  0  0  0  0  0  0  0
  140.6800   69.5390  227.2670 C   0  0  0  0  0  0  0  0  0  0  0  0
  141.3450   68.7120  228.6700 Cl  0  0  0  0  0  0  0  0  0  0  0  0
  140.9840   70.8620  227.0660 C   0  0  0  0  0  0  0  0  0  0  0  0
  140.5130   71.6020  225.9980 C   0  0  0  0  0  0  0  0  0  0  0  0
  139.6840   70.9380  225.0900 C   0  0  0  0  0  0  0  0  0  0  0  0
  139.2070   71.6400  224.0300 N   0  0  0  0  0  0  0  0  0  0  0  0
  138.5410   73.6440  222.6880 H   0  0  0  0  0  0  0  0  0  0  0  0
  137.1249   73.2978  220.0109 H   0  0  0  0  0  0  0  0  0  0  0  0
  136.7335   74.6326  221.1289 H   0  0  0  0  0  0  0  0  0  0  0  0
  139.2417   72.4210  220.5917 H   0  0  0  0  0  0  0  0  0  0  0  0
  140.4142   72.6923  219.1905 H   0  0  0  0  0  0  0  0  0  0  0  0
  141.2056   72.5950  222.0738 H   0  0  0  0  0  0  0  0  0  0  0  0
  141.2134   71.1850  220.8982 H   0  0  0  0  0  0  0  0  0  0  0  0
  143.3972   71.9871  221.0395 H   0  0  0  0  0  0  0  0  0  0  0  0
  142.6478   72.5411  219.4506 H   0  0  0  0  0  0  0  0  0  0  0  0
  142.9161   74.2738  221.8765 H   0  0  0  0  0  0  0  0  0  0  0  0
  144.1370   74.1486  220.5226 H   0  0  0  0  0  0  0  0  0  0  0  0
  142.8969   76.0012  219.9547 H   0  0  0  0  0  0  0  0  0  0  0  0
  142.1553   74.6405  218.9977 H   0  0  0  0  0  0  0  0  0  0  0  0
  140.5570   76.2447  220.0415 H   0  0  0  0  0  0  0  0  0  0  0  0
  140.5505   74.9902  222.6201 H   0  0  0  0  0  0  0  0  0  0  0  0
  142.1829   75.7412  222.2542 H   0  0  0  0  0  0  0  0  0  0  0  0
  138.5471   76.4794  222.5444 H   0  0  0  0  0  0  0  0  0  0  0  0
  137.6961   78.7073  223.1155 H   0  0  0  0  0  0  0  0  0  0  0  0
  139.2603   80.6380  223.2891 H   0  0  0  0  0  0  0  0  0  0  0  0
  141.6831   80.2651  222.8758 H   0  0  0  0  0  0  0  0  0  0  0  0
  142.5231   78.0231  222.2973 H   0  0  0  0  0  0  0  0  0  0  0  0
  137.4478   69.2086  222.6088 H   0  0  0  0  0  0  0  0  0  0  0  0
  138.3013   67.9275  224.5143 H   0  0  0  0  0  0  0  0  0  0  0  0
  139.5987   67.8322  226.4980 H   0  0  0  0  0  0  0  0  0  0  0  0
  141.6389   71.3612  227.7953 H   0  0  0  0  0  0  0  0  0  0  0  0
  140.7778   72.6618  225.8691 H   0  0  0  0  0  0  0  0  0  0  0  0
  1  2  2  0
  2  3  1  0
  3  4  1  0
  4  5  1  0
  5  6  2  0
  5  7  1  0
  7  8  1  0
  8  9  1  0
  9 10  1  0
 10 11  1  0
 11 12  1  0
 12 13  1  0
 13 14  1  0
 14 15  1  0
 15 16  2  0
 16 17  1  0
 17 18  2  0
 18 19  1  0
 19 20  2  0
  2 21  1  0
 21 22  2  0
 22 23  1  0
 23 24  2  0
 24 25  1  0
 25 26  2  0
 26 27  1  0
 26 28  1  0
 28 29  2  0
 29 30  1  0
 30 31  2  0
 13  7  1  0
 20 15  1  0
 31 21  1  0
 30 24  1  0
  3 32  1  0
  4 33  1  0
  4 34  1  0
  8 35  1  0
  8 36  1  0
  9 37  1  0
  9 38  1  0
 10 39  1  0
 10 40  1  0
 11 41  1  0
 11 42  1  0
 12 43  1  0
 12 44  1  0
 13 45  1  6
 14 46  1  0
 14 47  1  0
 16 48  1  0
 17 49  1  0
 18 50  1  0
 19 51  1  0
 20 52  1  0
 22 53  1  0
 23 54  1  0
 25 55  1  0
 28 56  1  0
 29 57  1  0
M  END
>  <smiles>  (10) 
O=C(NCC(=O)N1CCCCCC1Cc1ccccc1)c1ccc2cc(Cl)ccc2n1

>  <score_type>  (10) 
oracle

>  <origin>  (10) 
autodockgpu

>  <m_score__min__energy>  (10) 
-7.04

>  <m_primary>  (10) 
energy

>  <rmsd>  (10) 
2.448841630005971

>  <m_score__min__rmsd>  (10) 
2.448841630005971

>  <meeko>  (10) 
{"free_energy": -5.41, "intermolecular_energy": -8.99, "internal_energy": -2.23, "cluster_size": 5, "cluster_id": 4, "rank_in_cluster": 5}

>  <energy>  (10) 
-6.52

>  <cluster_rmsd>  (10) 
1.29

>  <cluster>  (10) 
1

$$$$

     RDKit          3D

 57 60  0  0  0  0  0  0  0  0999 V2000
  137.8990   71.2310  220.9260 O   0  0  0  0  0  0  0  0  0  0  0  0
  138.2320   71.8400  221.9890 C   0  0  0  0  0  0  0  0  0  0  0  0
  138.1980   73.2540  222.1040 N   0  0  0  0  0  0  0  0  0  0  0  0
  137.7830   74.1150  221.0220 C   0  0  0  0  0  0  0  0  0  0  0  0
  138.7150   75.2750  220.9780 C   0  0  0  0  0  0  0  0  0  0  0  0
  138.3150   76.3340  221.5390 O   0  0  0  0  0  0  0  0  0  0  0  0
  139.9980   75.1960  220.3330 N   0  0  0  0  0  0  0  0  0  0  0  0
  140.2170   73.9650  219.6530 C   0  0  0  0  0  0  0  0  0  0  0  0
  141.4270   73.1920  220.0680 C   0  0  0  0  0  0  0  0  0  0  0  0
  142.7340   73.8470  219.7330 C   0  0  0  0  0  0  0  0  0  0  0  0
  142.9740   75.1660  220.3870 C   0  0  0  0  0  0  0  0  0  0  0  0
  142.1200   76.2780  219.8330 C   0  0  0  0  0  0  0  0  0  0  0  0
  140.7980   76.3870  220.5130 C   0  0  2  0  0  0  0  0  0  0  0  0
  140.9950   76.7260  221.9680 C   0  0  0  0  0  0  0  0  0  0  0  0
  141.3160   78.1320  222.2230 C   0  0  0  0  0  0  0  0  0  0  0  0
  141.4020   78.6620  223.4990 C   0  0  0  0  0  0  0  0  0  0  0  0
  141.7020   79.9850  223.7460 C   0  0  0  0  0  0  0  0  0  0  0  0
  141.9330   80.8470  222.6950 C   0  0  0  0  0  0  0  0  0  0  0  0
  141.8570   80.3560  221.4090 C   0  0  0  0  0  0  0  0  0  0  0  0
  141.5530   79.0240  221.1800 C   0  0  0  0  0  0  0  0  0  0  0  0
  138.6640   71.0460  223.1320 C   0  0  0  0  0  0  0  0  0  0  0  0
  138.3380   69.7110  223.2450 C   0  0  0  0  0  0  0  0  0  0  0  0
  138.7140   68.9120  224.2920 C   0  0  0  0  0  0  0  0  0  0  0  0
  139.4660   69.4740  225.2990 C   0  0  0  0  0  0  0  0  0  0  0  0
  139.8450   68.6790  226.3520 C   0  0  0  0  0  0  0  0  0  0  0  0
  140.5970   69.2570  227.3500 C   0  0  0  0  0  0  0  0  0  0  0  0
  141.1410   68.3370  228.7470 Cl  0  0  0  0  0  0  0  0  0  0  0  0
  140.9310   70.5840  227.2530 C   0  0  0  0  0  0  0  0  0  0  0  0
  140.5550   71.3950  226.1990 C   0  0  0  0  0  0  0  0  0  0  0  0
  139.7920   70.8000  225.1900 C   0  0  0  0  0  0  0  0  0  0  0  0
  139.4070   71.5710  224.1420 N   0  0  0  0  0  0  0  0  0  0  0  0
  138.4940   73.6760  223.0280 H   0  0  0  0  0  0  0  0  0  0  0  0
  137.8247   73.5656  220.0700 H   0  0  0  0  0  0  0  0  0  0  0  0
  136.7501   74.4588  221.1801 H   0  0  0  0  0  0  0  0  0  0  0  0
  139.3366   73.3271  219.8205 H   0  0  0  0  0  0  0  0  0  0  0  0
  140.3848   74.2344  218.5998 H   0  0  0  0  0  0  0  0  0  0  0  0
  141.3849   73.0486  221.1578 H   0  0  0  0  0  0  0  0  0  0  0  0
  141.3999   72.2468  219.5059 H   0  0  0  0  0  0  0  0  0  0  0  0
  143.5427   73.1657  220.0360 H   0  0  0  0  0  0  0  0  0  0  0  0
  142.7055   74.0453  218.6514 H   0  0  0  0  0  0  0  0  0  0  0  0
  142.7604   75.0656  221.4614 H   0  0  0  0  0  0  0  0  0  0  0  0
  144.0223   75.4367  220.1927 H   0  0  0  0  0  0  0  0  0  0  0  0
  142.6582   77.2293  219.9572 H   0  0  0  0  0  0  0  0  0  0  0  0
  141.9290   76.0515  218.7737 H   0  0  0  0  0  0  0  0  0  0  0  0
  140.2322   77.2055  220.0441 H   0  0  0  0  0  0  0  0  0  0  0  0
  140.0678   76.4815  222.5069 H   0  0  0  0  0  0  0  0  0  0  0  0
  141.8588   76.1389  222.3132 H   0  0  0  0  0  0  0  0  0  0  0  0
  141.2226   77.9964  224.3562 H   0  0  0  0  0  0  0  0  0  0  0  0
  141.7570   80.3526  224.7813 H   0  0  0  0  0  0  0  0  0  0  0  0
  142.1730   81.9047  222.8788 H   0  0  0  0  0  0  0  0  0  0  0  0
  142.0393   81.0278  220.5573 H   0  0  0  0  0  0  0  0  0  0  0  0
  141.4971   78.6600  220.1435 H   0  0  0  0  0  0  0  0  0  0  0  0
  137.7371   69.2584  222.4424 H   0  0  0  0  0  0  0  0  0  0  0  0
  138.4235   67.8517  224.3273 H   0  0  0  0  0  0  0  0  0  0  0  0
  139.5581   67.6180  226.3968 H   0  0  0  0  0  0  0  0  0  0  0  0
  141.5323   71.0278  228.0601 H   0  0  0  0  0  0  0  0  0  0  0  0
  140.8419   72.4561  226.1562 H   0  0  0  0  0  0  0  0  0  0  0  0
  1  2  2  0
  2  3  1  0
  3  4  1  0
  4  5  1  0
  5  6  2  0
  5  7  1  0
  7  8  1  0
  8  9  1  0
  9 10  1  0
 10 11  1  0
 11 12  1  0
 12 13  1  0
 13 14  1  0
 14 15  1  0
 15 16  2  0
 16 17  1  0
 17 18  2  0
 18 19  1  0
 19 20  2  0
  2 21  1  0
 21 22  2  0
 22 23  1  0
 23 24  2  0
 24 25  1  0
 25 26  2  0
 26 27  1  0
 26 28  1  0
 28 29  2  0
 29 30  1  0
 30 31  2  0
 13  7  1  0
 20 15  1  0
 31 21  1  0
 30 24  1  0
  3 32  1  0
  4 33  1  0
  4 34  1  0
  8 35  1  0
  8 36  1  0
  9 37  1  0
  9 38  1  0
 10 39  1  0
 10 40  1  0
 11 41  1  0
 11 42  1  0
 12 43  1  0
 12 44  1  0
 13 45  1  6
 14 46  1  0
 14 47  1  0
 16 48  1  0
 17 49  1  0
 18 50  1  0
 19 51  1  0
 20 52  1  0
 22 53  1  0
 23 54  1  0
 25 55  1  0
 28 56  1  0
 29 57  1  0
M  END
>  <smiles>  (11) 
O=C(NCC(=O)N1CCCCCC1Cc1ccccc1)c1ccc2cc(Cl)ccc2n1

>  <score_type>  (11) 
oracle

>  <origin>  (11) 
autodockgpu

>  <m_score__min__energy>  (11) 
-7.04

>  <m_primary>  (11) 
energy

>  <rmsd>  (11) 
1.9830383448117541

>  <m_score__min__rmsd>  (11) 
1.9830383448117541

>  <meeko>  (11) 
{"free_energy": -6.66, "intermolecular_energy": -10.24, "internal_energy": -1.89, "cluster_size": 28, "cluster_id": 1, "rank_in_cluster": 7}

>  <energy>  (11) 
-6.44

>  <cluster_rmsd>  (11) 
1.27

>  <cluster>  (11) 
1

$$$$

     RDKit          3D

 57 60  0  0  0  0  0  0  0  0999 V2000
  138.6110   71.9440  221.0700 O   0  0  0  0  0  0  0  0  0  0  0  0
  138.9880   72.4570  222.1680 C   0  0  0  0  0  0  0  0  0  0  0  0
  139.1390   73.8570  222.3460 N   0  0  0  0  0  0  0  0  0  0  0  0
  138.8780   74.8110  221.2940 C   0  0  0  0  0  0  0  0  0  0  0  0
  139.6820   74.4130  220.1080 C   0  0  0  0  0  0  0  0  0  0  0  0
  139.0310   74.0900  219.0740 O   0  0  0  0  0  0  0  0  0  0  0  0
  141.1210   74.3950  220.1340 N   0  0  0  0  0  0  0  0  0  0  0  0
  141.6620   73.2290  220.7470 C   0  0  0  0  0  0  0  0  0  0  0  0
  142.9340   72.7090  220.1590 C   0  0  0  0  0  0  0  0  0  0  0  0
  144.1270   73.5930  220.3660 C   0  0  0  0  0  0  0  0  0  0  0  0
  144.1140   74.8750  219.6040 C   0  0  0  0  0  0  0  0  0  0  0  0
  143.0710   75.8500  220.0850 C   0  0  0  0  0  0  0  0  0  0  0  0
  141.7150   75.5670  219.5330 C   0  0  2  0  0  0  0  0  0  0  0  0
  140.8380   76.7850  219.6730 C   0  0  0  0  0  0  0  0  0  0  0  0
  141.1900   77.6560  220.7970 C   0  0  0  0  0  0  0  0  0  0  0  0
  141.7580   78.9070  220.6270 C   0  0  0  0  0  0  0  0  0  0  0  0
  142.0930   79.7320  221.6790 C   0  0  0  0  0  0  0  0  0  0  0  0
  141.8650   79.3210  222.9760 C   0  0  0  0  0  0  0  0  0  0  0  0
  141.3000   78.0810  223.1860 C   0  0  0  0  0  0  0  0  0  0  0  0
  140.9710   77.2660  222.1150 C   0  0  0  0  0  0  0  0  0  0  0  0
  139.2720   71.5650  223.2850 C   0  0  0  0  0  0  0  0  0  0  0  0
  138.8690   70.2470  223.2730 C   0  0  0  0  0  0  0  0  0  0  0  0
  139.1060   69.3600  224.2890 C   0  0  0  0  0  0  0  0  0  0  0  0
  139.7910   69.8090  225.3960 C   0  0  0  0  0  0  0  0  0  0  0  0
  140.0310   68.9250  226.4180 C   0  0  0  0  0  0  0  0  0  0  0  0
  140.7170   69.3920  227.5170 C   0  0  0  0  0  0  0  0  0  0  0  0
  141.0830   68.3510  228.8860 Cl  0  0  0  0  0  0  0  0  0  0  0  0
  141.1260   70.7010  227.5450 C   0  0  0  0  0  0  0  0  0  0  0  0
  140.8900   71.6000  226.5230 C   0  0  0  0  0  0  0  0  0  0  0  0
  140.1920   71.1180  225.4110 C   0  0  0  0  0  0  0  0  0  0  0  0
  139.9460   71.9790  224.3910 N   0  0  0  0  0  0  0  0  0  0  0  0
  139.4570   74.1960  223.2960 H   0  0  0  0  0  0  0  0  0  0  0  0
  137.8078   74.8039  221.0398 H   0  0  0  0  0  0  0  0  0  0  0  0
  139.1510   75.8256  221.6197 H   0  0  0  0  0  0  0  0  0  0  0  0
  141.8512   73.4622  221.8052 H   0  0  0  0  0  0  0  0  0  0  0  0
  140.9159   72.4367  220.5867 H   0  0  0  0  0  0  0  0  0  0  0  0
  143.1483   71.7316  220.6159 H   0  0  0  0  0  0  0  0  0  0  0  0
  142.7738   72.6527  219.0722 H   0  0  0  0  0  0  0  0  0  0  0  0
  144.1876   73.8357  221.4372 H   0  0  0  0  0  0  0  0  0  0  0  0
  144.9922   73.0266  219.9910 H   0  0  0  0  0  0  0  0  0  0  0  0
  145.1028   75.3473  219.7004 H   0  0  0  0  0  0  0  0  0  0  0  0
  143.8692   74.6283  218.5603 H   0  0  0  0  0  0  0  0  0  0  0  0
  143.0212   75.7979  221.1826 H   0  0  0  0  0  0  0  0  0  0  0  0
  143.3677   76.8502  219.7362 H   0  0  0  0  0  0  0  0  0  0  0  0
  141.8168   75.3395  218.4616 H   0  0  0  0  0  0  0  0  0  0  0  0
  140.9132   77.3720  218.7457 H   0  0  0  0  0  0  0  0  0  0  0  0
  139.8189   76.4186  219.8659 H   0  0  0  0  0  0  0  0  0  0  0  0
  141.9512   79.2595  219.6031 H   0  0  0  0  0  0  0  0  0  0  0  0
  142.5418   80.7173  221.4846 H   0  0  0  0  0  0  0  0  0  0  0  0
  142.1285   79.9690  223.8249 H   0  0  0  0  0  0  0  0  0  0  0  0
  141.1088   77.7358  224.2128 H   0  0  0  0  0  0  0  0  0  0  0  0
  140.5231   76.2809  222.3123 H   0  0  0  0  0  0  0  0  0  0  0  0
  138.3217   69.8843  222.3904 H   0  0  0  0  0  0  0  0  0  0  0  0
  138.7590   68.3183  224.2227 H   0  0  0  0  0  0  0  0  0  0  0  0
  139.6879   67.8814  226.3614 H   0  0  0  0  0  0  0  0  0  0  0  0
  141.6729   71.0549  228.4314 H   0  0  0  0  0  0  0  0  0  0  0  0
  141.2340   72.6432  226.5809 H   0  0  0  0  0  0  0  0  0  0  0  0
  1  2  2  0
  2  3  1  0
  3  4  1  0
  4  5  1  0
  5  6  2  0
  5  7  1  0
  7  8  1  0
  8  9  1  0
  9 10  1  0
 10 11  1  0
 11 12  1  0
 12 13  1  0
 13 14  1  0
 14 15  1  0
 15 16  2  0
 16 17  1  0
 17 18  2  0
 18 19  1  0
 19 20  2  0
  2 21  1  0
 21 22  2  0
 22 23  1  0
 23 24  2  0
 24 25  1  0
 25 26  2  0
 26 27  1  0
 26 28  1  0
 28 29  2  0
 29 30  1  0
 30 31  2  0
 13  7  1  0
 20 15  1  0
 31 21  1  0
 30 24  1  0
  3 32  1  0
  4 33  1  0
  4 34  1  0
  8 35  1  0
  8 36  1  0
  9 37  1  0
  9 38  1  0
 10 39  1  0
 10 40  1  0
 11 41  1  0
 11 42  1  0
 12 43  1  0
 12 44  1  0
 13 45  1  6
 14 46  1  0
 14 47  1  0
 16 48  1  0
 17 49  1  0
 18 50  1  0
 19 51  1  0
 20 52  1  0
 22 53  1  0
 23 54  1  0
 25 55  1  0
 28 56  1  0
 29 57  1  0
M  END
>  <smiles>  (12) 
O=C(NCC(=O)N1CCCCCC1Cc1ccccc1)c1ccc2cc(Cl)ccc2n1

>  <score_type>  (12) 
oracle

>  <origin>  (12) 
autodockgpu

>  <m_score__min__energy>  (12) 
-7.04

>  <m_primary>  (12) 
energy

>  <rmsd>  (12) 
2.351765065968881

>  <m_score__min__rmsd>  (12) 
2.351765065968881

>  <meeko>  (12) 
{"free_energy": -6.3, "intermolecular_energy": -9.88, "internal_energy": -2.14, "cluster_size": 5, "cluster_id": 4, "rank_in_cluster": 1}

>  <energy>  (12) 
-6.43

>  <cluster_rmsd>  (12) 
1.57

>  <cluster>  (12) 
1

$$$$

     RDKit          3D

 57 60  0  0  0  0  0  0  0  0999 V2000
  138.4170   71.5530  221.2720 O   0  0  0  0  0  0  0  0  0  0  0  0
  139.0030   72.0620  222.2760 C   0  0  0  0  0  0  0  0  0  0  0  0
  139.3690   73.4310  222.3370 N   0  0  0  0  0  0  0  0  0  0  0  0
  139.1050   74.3580  221.2630 C   0  0  0  0  0  0  0  0  0  0  0  0
  140.2480   75.3080  221.1880 C   0  0  0  0  0  0  0  0  0  0  0  0
  141.2130   75.0840  221.9720 O   0  0  0  0  0  0  0  0  0  0  0  0
  140.2540   76.4220  220.2770 N   0  0  0  0  0  0  0  0  0  0  0  0
  140.8950   76.1370  219.0380 C   0  0  0  0  0  0  0  0  0  0  0  0
  142.2220   76.7910  218.8210 C   0  0  0  0  0  0  0  0  0  0  0  0
  142.1990   78.2890  218.8840 C   0  0  0  0  0  0  0  0  0  0  0  0
  141.6510   78.8690  220.1450 C   0  0  0  0  0  0  0  0  0  0  0  0
  140.1440   78.8520  220.2120 C   0  0  0  0  0  0  0  0  0  0  0  0
  139.6070   77.5980  220.8130 C   0  0  2  0  0  0  0  0  0  0  0  0
  139.7040   77.6660  222.3160 C   0  0  0  0  0  0  0  0  0  0  0  0
  140.4830   78.7990  222.8200 C   0  0  0  0  0  0  0  0  0  0  0  0
  141.8210   78.6960  223.1590 C   0  0  0  0  0  0  0  0  0  0  0  0
  142.5610   79.7570  223.6360 C   0  0  0  0  0  0  0  0  0  0  0  0
  141.9700   80.9930  223.7950 C   0  0  0  0  0  0  0  0  0  0  0  0
  140.6380   81.1350  223.4670 C   0  0  0  0  0  0  0  0  0  0  0  0
  139.9110   80.0570  222.9900 C   0  0  0  0  0  0  0  0  0  0  0  0
  139.3080   71.1950  223.4080 C   0  0  0  0  0  0  0  0  0  0  0  0
  138.9480   69.8640  223.4130 C   0  0  0  0  0  0  0  0  0  0  0  0
  139.2060   69.0000  224.4440 C   0  0  0  0  0  0  0  0  0  0  0  0
  139.8650   69.4880  225.5490 C   0  0  0  0  0  0  0  0  0  0  0  0
  140.1260   68.6260  226.5860 C   0  0  0  0  0  0  0  0  0  0  0  0
  140.7860   69.1310  227.6830 C   0  0  0  0  0  0  0  0  0  0  0  0
  141.1750   68.1220  229.0710 Cl  0  0  0  0  0  0  0  0  0  0  0  0
  141.1520   70.4530  227.6960 C   0  0  0  0  0  0  0  0  0  0  0  0
  140.8950   71.3300  226.6590 C   0  0  0  0  0  0  0  0  0  0  0  0
  140.2230   70.8090  225.5490 C   0  0  0  0  0  0  0  0  0  0  0  0
  139.9570   71.6470  224.5140 N   0  0  0  0  0  0  0  0  0  0  0  0
  139.8550   73.7680  223.2150 H   0  0  0  0  0  0  0  0  0  0  0  0
  139.0098   73.8120  220.3128 H   0  0  0  0  0  0  0  0  0  0  0  0
  138.1665   74.9013  221.4475 H   0  0  0  0  0  0  0  0  0  0  0  0
  141.0423   75.0486  218.9778 H   0  0  0  0  0  0  0  0  0  0  0  0
  140.2325   76.5452  218.2605 H   0  0  0  0  0  0  0  0  0  0  0  0
  142.9145   76.4260  219.5937 H   0  0  0  0  0  0  0  0  0  0  0  0
  142.5355   76.5273  217.8001 H   0  0  0  0  0  0  0  0  0  0  0  0
  143.2315   78.6494  218.7655 H   0  0  0  0  0  0  0  0  0  0  0  0
  141.5215   78.6154  218.0812 H   0  0  0  0  0  0  0  0  0  0  0  0
  142.0435   78.2896  220.9937 H   0  0  0  0  0  0  0  0  0  0  0  0
  141.9637   79.9231  220.1781 H   0  0  0  0  0  0  0  0  0  0  0  0
  139.8095   79.7049  220.8209 H   0  0  0  0  0  0  0  0  0  0  0  0
  139.7658   78.9137  219.1809 H   0  0  0  0  0  0  0  0  0  0  0  0
  138.5447   77.5095  220.5416 H   0  0  0  0  0  0  0  0  0  0  0  0
  138.6851   77.7402  222.7238 H   0  0  0  0  0  0  0  0  0  0  0  0
  140.2290   76.7549  222.6388 H   0  0  0  0  0  0  0  0  0  0  0  0
  142.3175   77.7214  223.0423 H   0  0  0  0  0  0  0  0  0  0  0  0
  143.6223   79.6178  223.8896 H   0  0  0  0  0  0  0  0  0  0  0  0
  142.5489   81.8475  224.1754 H   0  0  0  0  0  0  0  0  0  0  0  0
  140.1487   82.1131  223.5853 H   0  0  0  0  0  0  0  0  0  0  0  0
  138.8497   80.1989  222.7379 H   0  0  0  0  0  0  0  0  0  0  0  0
  138.4195   69.4707  222.5321 H   0  0  0  0  0  0  0  0  0  0  0  0
  138.8953   67.9462  224.3902 H   0  0  0  0  0  0  0  0  0  0  0  0
  139.8188   67.5707  226.5413 H   0  0  0  0  0  0  0  0  0  0  0  0
  141.6797   70.8368  228.5816 H   0  0  0  0  0  0  0  0  0  0  0  0
  141.2036   72.3848  226.7047 H   0  0  0  0  0  0  0  0  0  0  0  0
  1  2  2  0
  2  3  1  0
  3  4  1  0
  4  5  1  0
  5  6  2  0
  5  7  1  0
  7  8  1  0
  8  9  1  0
  9 10  1  0
 10 11  1  0
 11 12  1  0
 12 13  1  0
 13 14  1  0
 14 15  1  0
 15 16  2  0
 16 17  1  0
 17 18  2  0
 18 19  1  0
 19 20  2  0
  2 21  1  0
 21 22  2  0
 22 23  1  0
 23 24  2  0
 24 25  1  0
 25 26  2  0
 26 27  1  0
 26 28  1  0
 28 29  2  0
 29 30  1  0
 30 31  2  0
 13  7  1  0
 20 15  1  0
 31 21  1  0
 30 24  1  0
  3 32  1  0
  4 33  1  0
  4 34  1  0
  8 35  1  0
  8 36  1  0
  9 37  1  0
  9 38  1  0
 10 39  1  0
 10 40  1  0
 11 41  1  0
 11 42  1  0
 12 43  1  0
 12 44  1  0
 13 45  1  1
 14 46  1  0
 14 47  1  0
 16 48  1  0
 17 49  1  0
 18 50  1  0
 19 51  1  0
 20 52  1  0
 22 53  1  0
 23 54  1  0
 25 55  1  0
 28 56  1  0
 29 57  1  0
M  END
>  <smiles>  (13) 
O=C(NCC(=O)N1CCCCCC1Cc1ccccc1)c1ccc2cc(Cl)ccc2n1

>  <score_type>  (13) 
oracle

>  <origin>  (13) 
autodockgpu

>  <m_score__min__energy>  (13) 
-7.04

>  <m_primary>  (13) 
energy

>  <rmsd>  (13) 
1.9882652208560654

>  <m_score__min__rmsd>  (13) 
1.9882652208560654

>  <meeko>  (13) 
{"free_energy": -7.04, "intermolecular_energy": -10.62, "internal_energy": -2.13, "cluster_size": 28, "cluster_id": 1, "rank_in_cluster": 1}

>  <energy>  (13) 
-6.41

>  <cluster_rmsd>  (13) 
1.38

>  <cluster>  (13) 
1

$$$$

     RDKit          3D

 57 60  0  0  0  0  0  0  0  0999 V2000
  138.9770   71.6810  220.6830 O   0  0  0  0  0  0  0  0  0  0  0  0
  138.9160   72.1880  221.8450 C   0  0  0  0  0  0  0  0  0  0  0  0
  138.5470   73.5400  222.0720 N   0  0  0  0  0  0  0  0  0  0  0  0
  138.2130   74.4480  221.0010 C   0  0  0  0  0  0  0  0  0  0  0  0
  139.3990   74.5600  220.1100 C   0  0  0  0  0  0  0  0  0  0  0  0
  139.2690   74.0900  218.9450 O   0  0  0  0  0  0  0  0  0  0  0  0
  140.6270   75.1680  220.5490 N   0  0  0  0  0  0  0  0  0  0  0  0
  141.7490   74.2950  220.4790 C   0  0  0  0  0  0  0  0  0  0  0  0
  143.0730   74.9450  220.2330 C   0  0  0  0  0  0  0  0  0  0  0  0
  143.0290   76.1210  219.3030 C   0  0  0  0  0  0  0  0  0  0  0  0
  142.5540   77.3990  219.9090 C   0  0  0  0  0  0  0  0  0  0  0  0
  141.0510   77.4990  219.9950 C   0  0  0  0  0  0  0  0  0  0  0  0
  140.4620   76.5400  220.9720 C   0  0  2  0  0  0  0  0  0  0  0  0
  141.0360   76.7860  222.3440 C   0  0  0  0  0  0  0  0  0  0  0  0
  141.0170   78.1890  222.7650 C   0  0  0  0  0  0  0  0  0  0  0  0
  139.8470   78.8690  223.0530 C   0  0  0  0  0  0  0  0  0  0  0  0
  139.8200   80.1900  223.4480 C   0  0  0  0  0  0  0  0  0  0  0  0
  140.9990   80.8950  223.5710 C   0  0  0  0  0  0  0  0  0  0  0  0
  142.1860   80.2510  223.2930 C   0  0  0  0  0  0  0  0  0  0  0  0
  142.1920   78.9240  222.8960 C   0  0  0  0  0  0  0  0  0  0  0  0
  139.2380   71.3390  222.9850 C   0  0  0  0  0  0  0  0  0  0  0  0
  138.9170   69.9990  222.9980 C   0  0  0  0  0  0  0  0  0  0  0  0
  139.1930   69.1500  224.0370 C   0  0  0  0  0  0  0  0  0  0  0  0
  139.8320   69.6650  225.1420 C   0  0  0  0  0  0  0  0  0  0  0  0
  140.1110   68.8200  226.1880 C   0  0  0  0  0  0  0  0  0  0  0  0
  140.7500   69.3510  227.2840 C   0  0  0  0  0  0  0  0  0  0  0  0
  141.1590   68.3650  228.6820 Cl  0  0  0  0  0  0  0  0  0  0  0  0
  141.0780   70.6840  227.2890 C   0  0  0  0  0  0  0  0  0  0  0  0
  140.8020   71.5440  226.2430 C   0  0  0  0  0  0  0  0  0  0  0  0
  140.1520   70.9960  225.1330 C   0  0  0  0  0  0  0  0  0  0  0  0
  139.8680   71.8180  224.0910 N   0  0  0  0  0  0  0  0  0  0  0  0
  138.5230   73.8770  223.0740 H   0  0  0  0  0  0  0  0  0  0  0  0
  137.3550   74.0576  220.4340 H   0  0  0  0  0  0  0  0  0  0  0  0
  137.9429   75.4347  221.4054 H   0  0  0  0  0  0  0  0  0  0  0  0
  141.8130   73.7525  221.4338 H   0  0  0  0  0  0  0  0  0  0  0  0
  141.5687   73.6511  219.6056 H   0  0  0  0  0  0  0  0  0  0  0  0
  143.4721   75.2868  221.1994 H   0  0  0  0  0  0  0  0  0  0  0  0
  143.7062   74.1877  219.7477 H   0  0  0  0  0  0  0  0  0  0  0  0
  144.0455   76.2860  218.9163 H   0  0  0  0  0  0  0  0  0  0  0  0
  142.2959   75.8641  218.5242 H   0  0  0  0  0  0  0  0  0  0  0  0
  142.9674   77.4779  220.9253 H   0  0  0  0  0  0  0  0  0  0  0  0
  142.8970   78.2152  219.2562 H   0  0  0  0  0  0  0  0  0  0  0  0
  140.7840   78.5211  220.3016 H   0  0  0  0  0  0  0  0  0  0  0  0
  140.6459   77.2508  219.0029 H   0  0  0  0  0  0  0  0  0  0  0  0
  139.3768   76.7140  221.0185 H   0  0  0  0  0  0  0  0  0  0  0  0
  140.4534   76.2008  223.0707 H   0  0  0  0  0  0  0  0  0  0  0  0
  142.0932   76.4854  222.3006 H   0  0  0  0  0  0  0  0  0  0  0  0
  138.8924   78.3300  222.9625 H   0  0  0  0  0  0  0  0  0  0  0  0
  138.8596   80.6807  223.6646 H   0  0  0  0  0  0  0  0  0  0  0  0
  140.9924   81.9494  223.8844 H   0  0  0  0  0  0  0  0  0  0  0  0
  143.1368   80.7960  223.3873 H   0  0  0  0  0  0  0  0  0  0  0  0
  143.1536   78.4365  222.6778 H   0  0  0  0  0  0  0  0  0  0  0  0
  138.4059   69.5841  222.1167 H   0  0  0  0  0  0  0  0  0  0  0  0
  138.9121   68.0875  223.9896 H   0  0  0  0  0  0  0  0  0  0  0  0
  139.8332   67.7563  226.1506 H   0  0  0  0  0  0  0  0  0  0  0  0
  141.5888   71.0901  228.1746 H   0  0  0  0  0  0  0  0  0  0  0  0
  141.0801   72.6076  226.2818 H   0  0  0  0  0  0  0  0  0  0  0  0
  1  2  2  0
  2  3  1  0
  3  4  1  0
  4  5  1  0
  5  6  2  0
  5  7  1  0
  7  8  1  0
  8  9  1  0
  9 10  1  0
 10 11  1  0
 11 12  1  0
 12 13  1  0
 13 14  1  0
 14 15  1  0
 15 16  2  0
 16 17  1  0
 17 18  2  0
 18 19  1  0
 19 20  2  0
  2 21  1  0
 21 22  2  0
 22 23  1  0
 23 24  2  0
 24 25  1  0
 25 26  2  0
 26 27  1  0
 26 28  1  0
 28 29  2  0
 29 30  1  0
 30 31  2  0
 13  7  1  0
 20 15  1  0
 31 21  1  0
 30 24  1  0
  3 32  1  0
  4 33  1  0
  4 34  1  0
  8 35  1  0
  8 36  1  0
  9 37  1  0
  9 38  1  0
 10 39  1  0
 10 40  1  0
 11 41  1  0
 11 42  1  0
 12 43  1  0
 12 44  1  0
 13 45  1  1
 14 46  1  0
 14 47  1  0
 16 48  1  0
 17 49  1  0
 18 50  1  0
 19 51  1  0
 20 52  1  0
 22 53  1  0
 23 54  1  0
 25 55  1  0
 28 56  1  0
 29 57  1  0
M  END
>  <smiles>  (14) 
O=C(NCC(=O)N1CCCCCC1Cc1ccccc1)c1ccc2cc(Cl)ccc2n1

>  <score_type>  (14) 
oracle

>  <origin>  (14) 
autodockgpu

>  <m_score__min__energy>  (14) 
-7.04

>  <m_primary>  (14) 
energy

>  <rmsd>  (14) 
2.283902588748641

>  <m_score__min__rmsd>  (14) 
2.283902588748641

>  <meeko>  (14) 
{"free_energy": -6.8, "intermolecular_energy": -10.38, "internal_energy": -1.96, "cluster_size": 28, "cluster_id": 1, "rank_in_cluster": 5}

>  <energy>  (14) 
-6.38

>  <cluster_rmsd>  (14) 
1.31

>  <cluster>  (14) 
1

$$$$

     RDKit          3D

 57 60  0  0  0  0  0  0  0  0999 V2000
  138.0580   72.5460  220.9610 O   0  0  0  0  0  0  0  0  0  0  0  0
  139.0390   72.6990  221.7510 C   0  0  0  0  0  0  0  0  0  0  0  0
  140.0470   73.6760  221.5410 N   0  0  0  0  0  0  0  0  0  0  0  0
  140.0380   74.5750  220.4120 C   0  0  0  0  0  0  0  0  0  0  0  0
  141.0240   75.6560  220.6820 C   0  0  0  0  0  0  0  0  0  0  0  0
  141.7610   75.5000  221.6960 O   0  0  0  0  0  0  0  0  0  0  0  0
  141.1320   76.8160  219.8370 N   0  0  0  0  0  0  0  0  0  0  0  0
  141.6400   76.5270  218.5390 C   0  0  0  0  0  0  0  0  0  0  0  0
  141.2300   77.4640  217.4490 C   0  0  0  0  0  0  0  0  0  0  0  0
  141.7730   78.8560  217.5830 C   0  0  0  0  0  0  0  0  0  0  0  0
  141.1580   79.6820  218.6630 C   0  0  0  0  0  0  0  0  0  0  0  0
  141.5090   79.2110  220.0530 C   0  0  0  0  0  0  0  0  0  0  0  0
  140.7030   78.0340  220.4860 C   0  0  2  0  0  0  0  0  0  0  0  0
  140.7300   77.9180  221.9890 C   0  0  0  0  0  0  0  0  0  0  0  0
  141.2420   79.1050  222.6780 C   0  0  0  0  0  0  0  0  0  0  0  0
  142.5910   79.3220  222.8940 C   0  0  0  0  0  0  0  0  0  0  0  0
  143.0810   80.4360  223.5430 C   0  0  0  0  0  0  0  0  0  0  0  0
  142.2110   81.3990  224.0100 C   0  0  0  0  0  0  0  0  0  0  0  0
  140.8580   81.2170  223.8130 C   0  0  0  0  0  0  0  0  0  0  0  0
  140.3850   80.0910  223.1600 C   0  0  0  0  0  0  0  0  0  0  0  0
  139.1260   71.8310  222.9190 C   0  0  0  0  0  0  0  0  0  0  0  0
  138.2990   70.7370  223.0650 C   0  0  0  0  0  0  0  0  0  0  0  0
  138.3310   69.8850  224.1370 C   0  0  0  0  0  0  0  0  0  0  0  0
  139.2470   70.1320  225.1350 C   0  0  0  0  0  0  0  0  0  0  0  0
  139.2840   69.2820  226.2120 C   0  0  0  0  0  0  0  0  0  0  0  0
  140.2060   69.5440  227.2000 C   0  0  0  0  0  0  0  0  0  0  0  0
  140.3450   68.5240  228.6260 Cl  0  0  0  0  0  0  0  0  0  0  0  0
  141.0370   70.6280  227.0700 C   0  0  0  0  0  0  0  0  0  0  0  0
  141.0090   71.4910  225.9910 C   0  0  0  0  0  0  0  0  0  0  0  0
  140.0700   71.2170  224.9930 C   0  0  0  0  0  0  0  0  0  0  0  0
  140.0190   72.0480  223.9200 N   0  0  0  0  0  0  0  0  0  0  0  0
  140.8290   73.7310  222.2520 H   0  0  0  0  0  0  0  0  0  0  0  0
  140.3202   74.0310  219.4985 H   0  0  0  0  0  0  0  0  0  0  0  0
  139.0335   74.9992  220.2673 H   0  0  0  0  0  0  0  0  0  0  0  0
  142.7384   76.5395  218.5975 H   0  0  0  0  0  0  0  0  0  0  0  0
  141.2136   75.5506  218.2654 H   0  0  0  0  0  0  0  0  0  0  0  0
  141.5798   77.0503  216.4917 H   0  0  0  0  0  0  0  0  0  0  0  0
  140.1350   77.5502  217.5084 H   0  0  0  0  0  0  0  0  0  0  0  0
  142.8516   78.7814  217.7854 H   0  0  0  0  0  0  0  0  0  0  0  0
  141.5346   79.3665  216.6382 H   0  0  0  0  0  0  0  0  0  0  0  0
  141.5052   80.7195  218.5486 H   0  0  0  0  0  0  0  0  0  0  0  0
  140.0667   79.5939  218.5568 H   0  0  0  0  0  0  0  0  0  0  0  0
  142.5734   78.9339  220.0717 H   0  0  0  0  0  0  0  0  0  0  0  0
  141.2892   80.0357  220.7470 H   0  0  0  0  0  0  0  0  0  0  0  0
  139.6607   78.1926  220.1724 H   0  0  0  0  0  0  0  0  0  0  0  0
  139.7034   77.7333  222.3384 H   0  0  0  0  0  0  0  0  0  0  0  0
  141.4188   77.0944  222.2282 H   0  0  0  0  0  0  0  0  0  0  0  0
  143.3071   78.5702  222.5308 H   0  0  0  0  0  0  0  0  0  0  0  0
  144.1647   80.5563  223.6880 H   0  0  0  0  0  0  0  0  0  0  0  0
  142.5880   82.2929  224.5284 H   0  0  0  0  0  0  0  0  0  0  0  0
  140.1478   81.9735  224.1781 H   0  0  0  0  0  0  0  0  0  0  0  0
  139.3007   79.9721  223.0180 H   0  0  0  0  0  0  0  0  0  0  0  0
  137.5666   70.5357  222.2694 H   0  0  0  0  0  0  0  0  0  0  0  0
  137.6444   69.0278  224.1989 H   0  0  0  0  0  0  0  0  0  0  0  0
  138.6014   68.4223  226.2831 H   0  0  0  0  0  0  0  0  0  0  0  0
  141.7669   70.8211  227.8700 H   0  0  0  0  0  0  0  0  0  0  0  0
  141.6917   72.3506  225.9212 H   0  0  0  0  0  0  0  0  0  0  0  0
  1  2  2  0
  2  3  1  0
  3  4  1  0
  4  5  1  0
  5  6  2  0
  5  7  1  0
  7  8  1  0
  8  9  1  0
  9 10  1  0
 10 11  1  0
 11 12  1  0
 12 13  1  0
 13 14  1  0
 14 15  1  0
 15 16  2  0
 16 17  1  0
 17 18  2  0
 18 19  1  0
 19 20  2  0
  2 21  1  0
 21 22  2  0
 22 23  1  0
 23 24  2  0
 24 25  1  0
 25 26  2  0
 26 27  1  0
 26 28  1  0
 28 29  2  0
 29 30  1  0
 30 31  2  0
 13  7  1  0
 20 15  1  0
 31 21  1  0
 30 24  1  0
  3 32  1  0
  4 33  1  0
  4 34  1  0
  8 35  1  0
  8 36  1  0
  9 37  1  0
  9 38  1  0
 10 39  1  0
 10 40  1  0
 11 41  1  0
 11 42  1  0
 12 43  1  0
 12 44  1  0
 13 45  1  6
 14 46  1  0
 14 47  1  0
 16 48  1  0
 17 49  1  0
 18 50  1  0
 19 51  1  0
 20 52  1  0
 22 53  1  0
 23 54  1  0
 25 55  1  0
 28 56  1  0
 29 57  1  0
M  END
>  <smiles>  (15) 
O=C(NCC(=O)N1CCCCCC1Cc1ccccc1)c1ccc2cc(Cl)ccc2n1

>  <score_type>  (15) 
oracle

>  <origin>  (15) 
autodockgpu

>  <m_score__min__energy>  (15) 
-7.04

>  <m_primary>  (15) 
energy

>  <rmsd>  (15) 
2.2091575415896614

>  <m_score__min__rmsd>  (15) 
2.2091575415896614

>  <meeko>  (15) 
{"free_energy": -6.18, "intermolecular_energy": -9.76, "internal_energy": -2.13, "cluster_size": 28, "cluster_id": 1, "rank_in_cluster": 20}

>  <energy>  (15) 
-6.32

>  <cluster_rmsd>  (15) 
1.44

>  <cluster>  (15) 
1

$$$$

     RDKit          3D

 57 60  0  0  0  0  0  0  0  0999 V2000
  137.4270   72.5130  222.5770 O   0  0  0  0  0  0  0  0  0  0  0  0
  138.5130   71.8710  222.4390 C   0  0  0  0  0  0  0  0  0  0  0  0
  139.3040   71.9490  221.2630 N   0  0  0  0  0  0  0  0  0  0  0  0
  138.9390   72.7630  220.1290 C   0  0  0  0  0  0  0  0  0  0  0  0
  139.1880   74.1850  220.4880 C   0  0  0  0  0  0  0  0  0  0  0  0
  138.2070   74.8200  220.9700 O   0  0  0  0  0  0  0  0  0  0  0  0
  140.4720   74.8050  220.2970 N   0  0  0  0  0  0  0  0  0  0  0  0
  141.4640   73.9140  219.7980 C   0  0  0  0  0  0  0  0  0  0  0  0
  142.8810   74.2640  220.1180 C   0  0  0  0  0  0  0  0  0  0  0  0
  143.3760   75.5230  219.4710 C   0  0  0  0  0  0  0  0  0  0  0  0
  142.8350   76.7910  220.0400 C   0  0  0  0  0  0  0  0  0  0  0  0
  141.3690   77.0020  219.7560 C   0  0  0  0  0  0  0  0  0  0  0  0
  140.4850   76.2060  220.6550 C   0  0  2  0  0  0  0  0  0  0  0  0
  140.8840   76.4230  222.0920 C   0  0  0  0  0  0  0  0  0  0  0  0
  140.7170   77.7990  222.5650 C   0  0  0  0  0  0  0  0  0  0  0  0
  141.7840   78.5960  222.9430 C   0  0  0  0  0  0  0  0  0  0  0  0
  141.6350   79.8920  223.3900 C   0  0  0  0  0  0  0  0  0  0  0  0
  140.3770   80.4500  223.4770 C   0  0  0  0  0  0  0  0  0  0  0  0
  139.2890   79.6860  223.1090 C   0  0  0  0  0  0  0  0  0  0  0  0
  139.4590   78.3860  222.6630 C   0  0  0  0  0  0  0  0  0  0  0  0
  138.9570   71.0230  223.5380 C   0  0  0  0  0  0  0  0  0  0  0  0
  138.7320   69.6630  223.5340 C   0  0  0  0  0  0  0  0  0  0  0  0
  139.1240   68.8140  224.5350 C   0  0  0  0  0  0  0  0  0  0  0  0
  139.7860   69.3500  225.6170 C   0  0  0  0  0  0  0  0  0  0  0  0
  140.1820   68.5040  226.6230 C   0  0  0  0  0  0  0  0  0  0  0  0
  140.8430   69.0560  227.6970 C   0  0  0  0  0  0  0  0  0  0  0  0
  141.3970   68.0710  229.0450 Cl  0  0  0  0  0  0  0  0  0  0  0  0
  141.0760   70.4080  227.7180 C   0  0  0  0  0  0  0  0  0  0  0  0
  140.6820   71.2690  226.7110 C   0  0  0  0  0  0  0  0  0  0  0  0
  140.0120   70.7000  225.6240 C   0  0  0  0  0  0  0  0  0  0  0  0
  139.6130   71.5220  224.6200 N   0  0  0  0  0  0  0  0  0  0  0  0
  140.1950   71.3780  221.2360 H   0  0  0  0  0  0  0  0  0  0  0  0
  139.5498   72.4851  219.2574 H   0  0  0  0  0  0  0  0  0  0  0  0
  137.8797   72.6120  219.8740 H   0  0  0  0  0  0  0  0  0  0  0  0
  141.2613   72.9169  220.2159 H   0  0  0  0  0  0  0  0  0  0  0  0
  141.3860   73.9679  218.7021 H   0  0  0  0  0  0  0  0  0  0  0  0
  142.9671   74.3821  221.2082 H   0  0  0  0  0  0  0  0  0  0  0  0
  143.5006   73.4461  219.7215 H   0  0  0  0  0  0  0  0  0  0  0  0
  144.4713   75.5471  219.5697 H   0  0  0  0  0  0  0  0  0  0  0  0
  143.0263   75.4854  218.4287 H   0  0  0  0  0  0  0  0  0  0  0  0
  142.9790   76.7724  221.1304 H   0  0  0  0  0  0  0  0  0  0  0  0
  143.3792   77.6181  219.5607 H   0  0  0  0  0  0  0  0  0  0  0  0
  141.1355   78.0688  219.8883 H   0  0  0  0  0  0  0  0  0  0  0  0
  141.1802   76.6673  218.7253 H   0  0  0  0  0  0  0  0  0  0  0  0
  139.4513   76.5605  220.5295 H   0  0  0  0  0  0  0  0  0  0  0  0
  140.2684   75.7651  222.7231 H   0  0  0  0  0  0  0  0  0  0  0  0
  141.9585   76.1969  222.1571 H   0  0  0  0  0  0  0  0  0  0  0  0
  142.7988   78.1755  222.8840 H   0  0  0  0  0  0  0  0  0  0  0  0
  142.5191   80.4803  223.6770 H   0  0  0  0  0  0  0  0  0  0  0  0
  140.2439   81.4825  223.8323 H   0  0  0  0  0  0  0  0  0  0  0  0
  138.2772   80.1132  223.1704 H   0  0  0  0  0  0  0  0  0  0  0  0
  138.5731   77.7998  222.3776 H   0  0  0  0  0  0  0  0  0  0  0  0
  138.2035   69.2316  222.6711 H   0  0  0  0  0  0  0  0  0  0  0  0
  138.9160   67.7354  224.4762 H   0  0  0  0  0  0  0  0  0  0  0  0
  139.9785   67.4242  226.5727 H   0  0  0  0  0  0  0  0  0  0  0  0
  141.6059   70.8303  228.5845 H   0  0  0  0  0  0  0  0  0  0  0  0
  140.8856   72.3488  226.7624 H   0  0  0  0  0  0  0  0  0  0  0  0
  1  2  2  0
  2  3  1  0
  3  4  1  0
  4  5  1  0
  5  6  2  0
  5  7  1  0
  7  8  1  0
  8  9  1  0
  9 10  1  0
 10 11  1  0
 11 12  1  0
 12 13  1  0
 13 14  1  0
 14 15  1  0
 15 16  2  0
 16 17  1  0
 17 18  2  0
 18 19  1  0
 19 20  2  0
  2 21  1  0
 21 22  2  0
 22 23  1  0
 23 24  2  0
 24 25  1  0
 25 26  2  0
 26 27  1  0
 26 28  1  0
 28 29  2  0
 29 30  1  0
 30 31  2  0
 13  7  1  0
 20 15  1  0
 31 21  1  0
 30 24  1  0
  3 32  1  0
  4 33  1  0
  4 34  1  0
  8 35  1  0
  8 36  1  0
  9 37  1  0
  9 38  1  0
 10 39  1  0
 10 40  1  0
 11 41  1  0
 11 42  1  0
 12 43  1  0
 12 44  1  0
 13 45  1  1
 14 46  1  0
 14 47  1  0
 16 48  1  0
 17 49  1  0
 18 50  1  0
 19 51  1  0
 20 52  1  0
 22 53  1  0
 23 54  1  0
 25 55  1  0
 28 56  1  0
 29 57  1  0
M  END
>  <smiles>  (16) 
O=C(NCC(=O)N1CCCCCC1Cc1ccccc1)c1ccc2cc(Cl)ccc2n1

>  <score_type>  (16) 
oracle

>  <origin>  (16) 
autodockgpu

>  <m_score__min__energy>  (16) 
-7.04

>  <m_primary>  (16) 
energy

>  <rmsd>  (16) 
2.2443087888151725

>  <m_score__min__rmsd>  (16) 
2.2443087888151725

>  <meeko>  (16) 
{"free_energy": -6.05, "intermolecular_energy": -9.63, "internal_energy": -1.68, "cluster_size": 28, "cluster_id": 1, "rank_in_cluster": 22}

>  <energy>  (16) 
-6.28

>  <cluster_rmsd>  (16) 
1.23

>  <cluster>  (16) 
1

$$$$

     RDKit          3D

 57 60  0  0  0  0  0  0  0  0999 V2000
  140.2770   72.0380  220.7750 O   0  0  0  0  0  0  0  0  0  0  0  0
  139.7850   72.4180  221.8810 C   0  0  0  0  0  0  0  0  0  0  0  0
  139.1640   73.6830  222.0500 N   0  0  0  0  0  0  0  0  0  0  0  0
  139.0420   74.6410  220.9770 C   0  0  0  0  0  0  0  0  0  0  0  0
  138.5120   75.9060  221.5540 C   0  0  0  0  0  0  0  0  0  0  0  0
  138.2210   75.8820  222.7830 O   0  0  0  0  0  0  0  0  0  0  0  0
  138.3370   77.0920  220.7570 N   0  0  0  0  0  0  0  0  0  0  0  0
  137.0370   77.2070  220.1890 C   0  0  0  0  0  0  0  0  0  0  0  0
  136.9470   77.0120  218.7090 C   0  0  0  0  0  0  0  0  0  0  0  0
  138.1410   77.4950  217.9410 C   0  0  0  0  0  0  0  0  0  0  0  0
  139.4560   76.9570  218.3970 C   0  0  0  0  0  0  0  0  0  0  0  0
  140.1690   77.8720  219.3570 C   0  0  0  0  0  0  0  0  0  0  0  0
  139.5230   77.9170  220.7000 C   0  0  2  0  0  0  0  0  0  0  0  0
  140.5240   77.5500  221.7640 C   0  0  0  0  0  0  0  0  0  0  0  0
  141.2700   78.6860  222.3100 C   0  0  0  0  0  0  0  0  0  0  0  0
  141.7520   79.7150  221.5190 C   0  0  0  0  0  0  0  0  0  0  0  0
  142.4570   80.7870  222.0240 C   0  0  0  0  0  0  0  0  0  0  0  0
  142.7110   80.8680  223.3780 C   0  0  0  0  0  0  0  0  0  0  0  0
  142.2460   79.8620  224.1980 C   0  0  0  0  0  0  0  0  0  0  0  0
  141.5410   78.7920  223.6710 C   0  0  0  0  0  0  0  0  0  0  0  0
  139.8660   71.5100  223.0190 C   0  0  0  0  0  0  0  0  0  0  0  0
  139.4330   70.2050  222.9300 C   0  0  0  0  0  0  0  0  0  0  0  0
  139.4820   69.3040  223.9610 C   0  0  0  0  0  0  0  0  0  0  0  0
  139.9970   69.7260  225.1660 C   0  0  0  0  0  0  0  0  0  0  0  0
  140.0490   68.8280  226.2030 C   0  0  0  0  0  0  0  0  0  0  0  0
  140.5670   69.2670  227.4000 C   0  0  0  0  0  0  0  0  0  0  0  0
  140.6840   68.2070  228.7990 Cl  0  0  0  0  0  0  0  0  0  0  0  0
  141.0040   70.5630  227.5070 C   0  0  0  0  0  0  0  0  0  0  0  0
  140.9560   71.4760  226.4710 C   0  0  0  0  0  0  0  0  0  0  0  0
  140.4280   71.0220  225.2580 C   0  0  0  0  0  0  0  0  0  0  0  0
  140.3690   71.8970  224.2220 N   0  0  0  0  0  0  0  0  0  0  0  0
  138.7830   73.9150  223.0090 H   0  0  0  0  0  0  0  0  0  0  0  0
  140.0274   74.8211  220.5225 H   0  0  0  0  0  0  0  0  0  0  0  0
  138.3648   74.2609  220.1980 H   0  0  0  0  0  0  0  0  0  0  0  0
  136.3933   76.4540  220.6671 H   0  0  0  0  0  0  0  0  0  0  0  0
  136.7260   78.2465  220.3699 H   0  0  0  0  0  0  0  0  0  0  0  0
  136.8243   75.9368  218.5116 H   0  0  0  0  0  0  0  0  0  0  0  0
  136.0924   77.6143  218.3670 H   0  0  0  0  0  0  0  0  0  0  0  0
  138.0047   77.2100  216.8873 H   0  0  0  0  0  0  0  0  0  0  0  0
  138.1858   78.5821  218.1028 H   0  0  0  0  0  0  0  0  0  0  0  0
  139.2851   75.9914  218.8955 H   0  0  0  0  0  0  0  0  0  0  0  0
  140.0943   76.8545  217.5070 H   0  0  0  0  0  0  0  0  0  0  0  0
  141.2039   77.5187  219.4764 H   0  0  0  0  0  0  0  0  0  0  0  0
  140.1306   78.8878  218.9368 H   0  0  0  0  0  0  0  0  0  0  0  0
  139.1846   78.9465  220.8889 H   0  0  0  0  0  0  0  0  0  0  0  0
  139.9851   77.0631  222.5902 H   0  0  0  0  0  0  0  0  0  0  0  0
  141.2626   76.8897  221.2860 H   0  0  0  0  0  0  0  0  0  0  0  0
  141.5635   79.6755  220.4360 H   0  0  0  0  0  0  0  0  0  0  0  0
  142.8166   81.5769  221.3482 H   0  0  0  0  0  0  0  0  0  0  0  0
  143.2726   81.7173  223.7942 H   0  0  0  0  0  0  0  0  0  0  0  0
  142.4364   79.9093  225.2804 H   0  0  0  0  0  0  0  0  0  0  0  0
  141.1847   78.0023  224.3488 H   0  0  0  0  0  0  0  0  0  0  0  0
  139.0212   69.8643  221.9686 H   0  0  0  0  0  0  0  0  0  0  0  0
  139.1204   68.2735  223.8298 H   0  0  0  0  0  0  0  0  0  0  0  0
  139.6898   67.7954  226.0816 H   0  0  0  0  0  0  0  0  0  0  0  0
  141.4158   70.8939  228.4718 H   0  0  0  0  0  0  0  0  0  0  0  0
  141.3151   72.5084  226.5941 H   0  0  0  0  0  0  0  0  0  0  0  0
  1  2  2  0
  2  3  1  0
  3  4  1  0
  4  5  1  0
  5  6  2  0
  5  7  1  0
  7  8  1  0
  8  9  1  0
  9 10  1  0
 10 11  1  0
 11 12  1  0
 12 13  1  0
 13 14  1  0
 14 15  1  0
 15 16  2  0
 16 17  1  0
 17 18  2  0
 18 19  1  0
 19 20  2  0
  2 21  1  0
 21 22  2  0
 22 23  1  0
 23 24  2  0
 24 25  1  0
 25 26  2  0
 26 27  1  0
 26 28  1  0
 28 29  2  0
 29 30  1  0
 30 31  2  0
 13  7  1  0
 20 15  1  0
 31 21  1  0
 30 24  1  0
  3 32  1  0
  4 33  1  0
  4 34  1  0
  8 35  1  0
  8 36  1  0
  9 37  1  0
  9 38  1  0
 10 39  1  0
 10 40  1  0
 11 41  1  0
 11 42  1  0
 12 43  1  0
 12 44  1  0
 13 45  1  1
 14 46  1  0
 14 47  1  0
 16 48  1  0
 17 49  1  0
 18 50  1  0
 19 51  1  0
 20 52  1  0
 22 53  1  0
 23 54  1  0
 25 55  1  0
 28 56  1  0
 29 57  1  0
M  END
>  <smiles>  (17) 
O=C(NCC(=O)N1CCCCCC1Cc1ccccc1)c1ccc2cc(Cl)ccc2n1

>  <score_type>  (17) 
oracle

>  <origin>  (17) 
autodockgpu

>  <m_score__min__energy>  (17) 
-7.04

>  <m_primary>  (17) 
energy

>  <rmsd>  (17) 
2.3046823713412348

>  <m_score__min__rmsd>  (17) 
2.3046823713412348

>  <meeko>  (17) 
{"free_energy": -5.84, "intermolecular_energy": -9.42, "internal_energy": -2.17, "cluster_size": 28, "cluster_id": 1, "rank_in_cluster": 26}

>  <energy>  (17) 
-6.24

>  <cluster_rmsd>  (17) 
1.18

>  <cluster>  (17) 
1

$$$$

     RDKit          3D

 57 60  0  0  0  0  0  0  0  0999 V2000
  138.5720   71.7980  220.8560 O   0  0  0  0  0  0  0  0  0  0  0  0
  138.8930   72.3310  221.9630 C   0  0  0  0  0  0  0  0  0  0  0  0
  138.9750   73.7360  222.1410 N   0  0  0  0  0  0  0  0  0  0  0  0
  138.7010   74.6750  221.0790 C   0  0  0  0  0  0  0  0  0  0  0  0
  139.4450   74.2270  219.8710 C   0  0  0  0  0  0  0  0  0  0  0  0
  138.7430   73.8640  218.8850 O   0  0  0  0  0  0  0  0  0  0  0  0
  140.8830   74.2070  219.8260 N   0  0  0  0  0  0  0  0  0  0  0  0
  141.4240   72.9150  219.5690 C   0  0  0  0  0  0  0  0  0  0  0  0
  142.5880   72.5100  220.4150 C   0  0  0  0  0  0  0  0  0  0  0  0
  143.8490   73.2800  220.1550 C   0  0  0  0  0  0  0  0  0  0  0  0
  143.8030   74.7250  220.5220 C   0  0  0  0  0  0  0  0  0  0  0  0
  142.9070   75.5450  219.6320 C   0  0  0  0  0  0  0  0  0  0  0  0
  141.4770   75.5050  220.0550 C   0  0  2  0  0  0  0  0  0  0  0  0
  141.3530   75.9420  221.4920 C   0  0  0  0  0  0  0  0  0  0  0  0
  141.3920   77.3940  221.6860 C   0  0  0  0  0  0  0  0  0  0  0  0
  141.3300   77.9840  222.9370 C   0  0  0  0  0  0  0  0  0  0  0  0
  141.3650   79.3490  223.1290 C   0  0  0  0  0  0  0  0  0  0  0  0
  141.4660   80.1940  222.0440 C   0  0  0  0  0  0  0  0  0  0  0  0
  141.5300   79.6430  220.7810 C   0  0  0  0  0  0  0  0  0  0  0  0
  141.4930   78.2690  220.6090 C   0  0  0  0  0  0  0  0  0  0  0  0
  139.1860   71.4540  223.0900 C   0  0  0  0  0  0  0  0  0  0  0  0
  138.8480   70.1180  223.0690 C   0  0  0  0  0  0  0  0  0  0  0  0
  139.0970   69.2440  224.0950 C   0  0  0  0  0  0  0  0  0  0  0  0
  139.7240   69.7280  225.2210 C   0  0  0  0  0  0  0  0  0  0  0  0
  139.9760   68.8570  226.2520 C   0  0  0  0  0  0  0  0  0  0  0  0
  140.6040   69.3580  227.3700 C   0  0  0  0  0  0  0  0  0  0  0  0
  140.9780   68.3370  228.7530 Cl  0  0  0  0  0  0  0  0  0  0  0  0
  140.9480   70.6850  227.4080 C   0  0  0  0  0  0  0  0  0  0  0  0
  140.7000   71.5710  226.3760 C   0  0  0  0  0  0  0  0  0  0  0  0
  140.0610   71.0550  225.2450 C   0  0  0  0  0  0  0  0  0  0  0  0
  139.8040   71.9010  224.2150 N   0  0  0  0  0  0  0  0  0  0  0  0
  139.2510   74.0910  223.0990 H   0  0  0  0  0  0  0  0  0  0  0  0
  137.6218   74.6956  220.8672 H   0  0  0  0  0  0  0  0  0  0  0  0
  139.0171   75.6874  221.3709 H   0  0  0  0  0  0  0  0  0  0  0  0
  140.6225   72.1778  219.7247 H   0  0  0  0  0  0  0  0  0  0  0  0
  141.8068   72.9542  218.5385 H   0  0  0  0  0  0  0  0  0  0  0  0
  142.3109   72.6522  221.4700 H   0  0  0  0  0  0  0  0  0  0  0  0
  142.8061   71.4618  220.1627 H   0  0  0  0  0  0  0  0  0  0  0  0
  144.6592   72.8091  220.7311 H   0  0  0  0  0  0  0  0  0  0  0  0
  144.0047   73.2484  219.0665 H   0  0  0  0  0  0  0  0  0  0  0  0
  143.4376   74.8096  221.5561 H   0  0  0  0  0  0  0  0  0  0  0  0
  144.8229   75.1201  220.4048 H   0  0  0  0  0  0  0  0  0  0  0  0
  143.2508   76.5897  219.6542 H   0  0  0  0  0  0  0  0  0  0  0  0
  142.9647   75.1172  218.6202 H   0  0  0  0  0  0  0  0  0  0  0  0
  140.9102   76.2126  219.4320 H   0  0  0  0  0  0  0  0  0  0  0  0
  140.3961   75.5675  221.8847 H   0  0  0  0  0  0  0  0  0  0  0  0
  142.2236   75.5296  222.0230 H   0  0  0  0  0  0  0  0  0  0  0  0
  141.2490   77.3328  223.8198 H   0  0  0  0  0  0  0  0  0  0  0  0
  141.3124   79.7634  224.1466 H   0  0  0  0  0  0  0  0  0  0  0  0
  141.4949   81.2848  222.1828 H   0  0  0  0  0  0  0  0  0  0  0  0
  141.6111   80.3004  219.9028 H   0  0  0  0  0  0  0  0  0  0  0  0
  141.5450   77.8573  219.5903 H   0  0  0  0  0  0  0  0  0  0  0  0
  138.3462   69.7281  222.1711 H   0  0  0  0  0  0  0  0  0  0  0  0
  138.8043   68.1863  224.0209 H   0  0  0  0  0  0  0  0  0  0  0  0
  139.6867   67.7977  226.1871 H   0  0  0  0  0  0  0  0  0  0  0  0
  141.4493   71.0658  228.3101 H   0  0  0  0  0  0  0  0  0  0  0  0
  140.9912   72.6297  226.4418 H   0  0  0  0  0  0  0  0  0  0  0  0
  1  2  2  0
  2  3  1  0
  3  4  1  0
  4  5  1  0
  5  6  2  0
  5  7  1  0
  7  8  1  0
  8  9  1  0
  9 10  1  0
 10 11  1  0
 11 12  1  0
 12 13  1  0
 13 14  1  0
 14 15  1  0
 15 16  2  0
 16 17  1  0
 17 18  2  0
 18 19  1  0
 19 20  2  0
  2 21  1  0
 21 22  2  0
 22 23  1  0
 23 24  2  0
 24 25  1  0
 25 26  2  0
 26 27  1  0
 26 28  1  0
 28 29  2  0
 29 30  1  0
 30 31  2  0
 13  7  1  0
 20 15  1  0
 31 21  1  0
 30 24  1  0
  3 32  1  0
  4 33  1  0
  4 34  1  0
  8 35  1  0
  8 36  1  0
  9 37  1  0
  9 38  1  0
 10 39  1  0
 10 40  1  0
 11 41  1  0
 11 42  1  0
 12 43  1  0
 12 44  1  0
 13 45  1  6
 14 46  1  0
 14 47  1  0
 16 48  1  0
 17 49  1  0
 18 50  1  0
 19 51  1  0
 20 52  1  0
 22 53  1  0
 23 54  1  0
 25 55  1  0
 28 56  1  0
 29 57  1  0
M  END
>  <smiles>  (18) 
O=C(NCC(=O)N1CCCCCC1Cc1ccccc1)c1ccc2cc(Cl)ccc2n1

>  <score_type>  (18) 
oracle

>  <origin>  (18) 
autodockgpu

>  <m_score__min__energy>  (18) 
-7.04

>  <m_primary>  (18) 
energy

>  <rmsd>  (18) 
2.421930860282264

>  <m_score__min__rmsd>  (18) 
2.421930860282264

>  <meeko>  (18) 
{"free_energy": -6.21, "intermolecular_energy": -9.79, "internal_energy": -2.01, "cluster_size": 5, "cluster_id": 4, "rank_in_cluster": 2}

>  <energy>  (18) 
-6.23

>  <cluster_rmsd>  (18) 
0.67

>  <cluster>  (18) 
1

$$$$

     RDKit          3D

 57 60  0  0  0  0  0  0  0  0999 V2000
  139.0080   73.0970  220.6370 O   0  0  0  0  0  0  0  0  0  0  0  0
  140.0460   72.7680  221.2880 C   0  0  0  0  0  0  0  0  0  0  0  0
  141.3540   73.1390  220.8840 N   0  0  0  0  0  0  0  0  0  0  0  0
  141.6120   73.9210  219.6980 C   0  0  0  0  0  0  0  0  0  0  0  0
  141.8960   75.3170  220.1250 C   0  0  0  0  0  0  0  0  0  0  0  0
  143.1150   75.6380  220.2110 O   0  0  0  0  0  0  0  0  0  0  0  0
  140.8430   76.2510  220.4240 N   0  0  0  0  0  0  0  0  0  0  0  0
  139.7030   76.1090  219.5840 C   0  0  0  0  0  0  0  0  0  0  0  0
  138.4550   76.7880  220.0510 C   0  0  0  0  0  0  0  0  0  0  0  0
  138.0120   76.4030  221.4310 C   0  0  0  0  0  0  0  0  0  0  0  0
  139.1060   76.0220  222.3710 C   0  0  0  0  0  0  0  0  0  0  0  0
  140.1300   77.1070  222.5890 C   0  0  0  0  0  0  0  0  0  0  0  0
  141.1670   77.1400  221.5180 C   0  0  2  0  0  0  0  0  0  0  0  0
  141.3810   78.5580  221.0540 C   0  0  0  0  0  0  0  0  0  0  0  0
  141.6310   79.5160  222.1340 C   0  0  0  0  0  0  0  0  0  0  0  0
  140.6560   80.3710  222.6180 C   0  0  0  0  0  0  0  0  0  0  0  0
  140.8840   81.2760  223.6320 C   0  0  0  0  0  0  0  0  0  0  0  0
  142.1320   81.3590  224.2140 C   0  0  0  0  0  0  0  0  0  0  0  0
  143.1290   80.5220  223.7580 C   0  0  0  0  0  0  0  0  0  0  0  0
  142.8810   79.6200  222.7370 C   0  0  0  0  0  0  0  0  0  0  0  0
  139.8760   71.9760  222.5010 C   0  0  0  0  0  0  0  0  0  0  0  0
  139.0000   70.9130  222.5490 C   0  0  0  0  0  0  0  0  0  0  0  0
  138.7960   70.1320  223.6560 C   0  0  0  0  0  0  0  0  0  0  0  0
  139.5100   70.4250  224.7960 C   0  0  0  0  0  0  0  0  0  0  0  0
  139.3110   69.6460  225.9090 C   0  0  0  0  0  0  0  0  0  0  0  0
  140.0330   69.9530  227.0400 C   0  0  0  0  0  0  0  0  0  0  0  0
  139.8610   69.0250  228.5240 Cl  0  0  0  0  0  0  0  0  0  0  0  0
  140.9100   71.0070  227.0100 C   0  0  0  0  0  0  0  0  0  0  0  0
  141.1200   71.7990  225.8960 C   0  0  0  0  0  0  0  0  0  0  0  0
  140.3810   71.4800  224.7520 C   0  0  0  0  0  0  0  0  0  0  0  0
  140.5660   72.2400  223.6420 N   0  0  0  0  0  0  0  0  0  0  0  0
  142.1610   72.8190  221.4890 H   0  0  0  0  0  0  0  0  0  0  0  0
  142.4797   73.5104  219.1608 H   0  0  0  0  0  0  0  0  0  0  0  0
  140.7424   73.8951  219.0248 H   0  0  0  0  0  0  0  0  0  0  0  0
  139.9598   76.5193  218.5962 H   0  0  0  0  0  0  0  0  0  0  0  0
  139.4710   75.0338  219.5788 H   0  0  0  0  0  0  0  0  0  0  0  0
  138.6300   77.8739  220.0376 H   0  0  0  0  0  0  0  0  0  0  0  0
  137.6538   76.4708  219.3673 H   0  0  0  0  0  0  0  0  0  0  0  0
  137.4736   77.2581  221.8656 H   0  0  0  0  0  0  0  0  0  0  0  0
  137.3896   75.5042  221.3099 H   0  0  0  0  0  0  0  0  0  0  0  0
  138.6558   75.7705  223.3426 H   0  0  0  0  0  0  0  0  0  0  0  0
  139.6346   75.1707  221.9173 H   0  0  0  0  0  0  0  0  0  0  0  0
  139.6147   78.0786  222.6106 H   0  0  0  0  0  0  0  0  0  0  0  0
  140.6403   76.8973  223.5406 H   0  0  0  0  0  0  0  0  0  0  0  0
  142.1134   76.7699  221.9391 H   0  0  0  0  0  0  0  0  0  0  0  0
  142.2464   78.5711  220.3751 H   0  0  0  0  0  0  0  0  0  0  0  0
  140.4476   78.8728  220.5643 H   0  0  0  0  0  0  0  0  0  0  0  0
  139.6515   80.3260  222.1721 H   0  0  0  0  0  0  0  0  0  0  0  0
  140.0712   81.9319  223.9772 H   0  0  0  0  0  0  0  0  0  0  0  0
  142.3277   82.0770  225.0240 H   0  0  0  0  0  0  0  0  0  0  0  0
  144.1307   80.5715  224.2097 H   0  0  0  0  0  0  0  0  0  0  0  0
  143.6959   78.9665  222.3924 H   0  0  0  0  0  0  0  0  0  0  0  0
  138.4277   70.6764  221.6399 H   0  0  0  0  0  0  0  0  0  0  0  0
  138.0824   69.2951  223.6345 H   0  0  0  0  0  0  0  0  0  0  0  0
  138.6001   68.8067  225.8973 H   0  0  0  0  0  0  0  0  0  0  0  0
  141.4785   71.2353  227.9236 H   0  0  0  0  0  0  0  0  0  0  0  0
  141.8321   72.6373  225.9089 H   0  0  0  0  0  0  0  0  0  0  0  0
  1  2  2  0
  2  3  1  0
  3  4  1  0
  4  5  1  0
  5  6  2  0
  5  7  1  0
  7  8  1  0
  8  9  1  0
  9 10  1  0
 10 11  1  0
 11 12  1  0
 12 13  1  0
 13 14  1  0
 14 15  1  0
 15 16  2  0
 16 17  1  0
 17 18  2  0
 18 19  1  0
 19 20  2  0
  2 21  1  0
 21 22  2  0
 22 23  1  0
 23 24  2  0
 24 25  1  0
 25 26  2  0
 26 27  1  0
 26 28  1  0
 28 29  2  0
 29 30  1  0
 30 31  2  0
 13  7  1  0
 20 15  1  0
 31 21  1  0
 30 24  1  0
  3 32  1  0
  4 33  1  0
  4 34  1  0
  8 35  1  0
  8 36  1  0
  9 37  1  0
  9 38  1  0
 10 39  1  0
 10 40  1  0
 11 41  1  0
 11 42  1  0
 12 43  1  0
 12 44  1  0
 13 45  1  1
 14 46  1  0
 14 47  1  0
 16 48  1  0
 17 49  1  0
 18 50  1  0
 19 51  1  0
 20 52  1  0
 22 53  1  0
 23 54  1  0
 25 55  1  0
 28 56  1  0
 29 57  1  0
M  END
>  <smiles>  (19) 
O=C(NCC(=O)N1CCCCCC1Cc1ccccc1)c1ccc2cc(Cl)ccc2n1

>  <score_type>  (19) 
oracle

>  <origin>  (19) 
autodockgpu

>  <m_score__min__energy>  (19) 
-7.04

>  <m_primary>  (19) 
energy

>  <rmsd>  (19) 
2.5692183024833914

>  <m_score__min__rmsd>  (19) 
2.5692183024833914

>  <meeko>  (19) 
{"free_energy": -5.62, "intermolecular_energy": -9.2, "internal_energy": -2.23, "cluster_size": 28, "cluster_id": 1, "rank_in_cluster": 28}

>  <energy>  (19) 
-6.19

>  <cluster_rmsd>  (19) 
1.26

>  <cluster>  (19) 
1

$$$$

     RDKit          3D

 57 60  0  0  0  0  0  0  0  0999 V2000
  139.1100   71.7650  220.7910 O   0  0  0  0  0  0  0  0  0  0  0  0
  139.3420   72.2800  221.9270 C   0  0  0  0  0  0  0  0  0  0  0  0
  139.4090   73.6820  222.1330 N   0  0  0  0  0  0  0  0  0  0  0  0
  139.2190   74.6370  221.0680 C   0  0  0  0  0  0  0  0  0  0  0  0
  140.0840   75.8150  221.3500 C   0  0  0  0  0  0  0  0  0  0  0  0
  140.1970   76.1470  222.5640 O   0  0  0  0  0  0  0  0  0  0  0  0
  140.7540   76.5370  220.3010 N   0  0  0  0  0  0  0  0  0  0  0  0
  142.0940   76.1090  220.0850 C   0  0  0  0  0  0  0  0  0  0  0  0
  142.9770   77.0640  219.3480 C   0  0  0  0  0  0  0  0  0  0  0  0
  142.3120   77.7830  218.2120 C   0  0  0  0  0  0  0  0  0  0  0  0
  141.1680   77.0620  217.5820 C   0  0  0  0  0  0  0  0  0  0  0  0
  139.8360   77.3750  218.2090 C   0  0  0  0  0  0  0  0  0  0  0  0
  139.9230   77.5480  219.6870 C   0  0  2  0  0  0  0  0  0  0  0  0
  140.3880   78.9430  220.0150 C   0  0  0  0  0  0  0  0  0  0  0  0
  140.8500   79.1170  221.3950 C   0  0  0  0  0  0  0  0  0  0  0  0
  139.9850   79.1750  222.4730 C   0  0  0  0  0  0  0  0  0  0  0  0
  140.4110   79.3400  223.7740 C   0  0  0  0  0  0  0  0  0  0  0  0
  141.7580   79.4560  224.0470 C   0  0  0  0  0  0  0  0  0  0  0  0
  142.6520   79.4020  222.9980 C   0  0  0  0  0  0  0  0  0  0  0  0
  142.2040   79.2370  221.6980 C   0  0  0  0  0  0  0  0  0  0  0  0
  139.5470   71.3860  223.0600 C   0  0  0  0  0  0  0  0  0  0  0  0
  139.1440   70.0680  223.0190 C   0  0  0  0  0  0  0  0  0  0  0  0
  139.3080   69.1790  224.0480 C   0  0  0  0  0  0  0  0  0  0  0  0
  139.9130   69.6270  225.2010 C   0  0  0  0  0  0  0  0  0  0  0  0
  140.0800   68.7420  226.2370 C   0  0  0  0  0  0  0  0  0  0  0  0
  140.6860   69.2060  227.3810 C   0  0  0  0  0  0  0  0  0  0  0  0
  140.9540   68.1630  228.7720 Cl  0  0  0  0  0  0  0  0  0  0  0  0
  141.0940   70.5150  227.4400 C   0  0  0  0  0  0  0  0  0  0  0  0
  140.9310   71.4160  226.4050 C   0  0  0  0  0  0  0  0  0  0  0  0
  140.3140   70.9360  225.2460 C   0  0  0  0  0  0  0  0  0  0  0  0
  140.1400   71.7980  224.2120 N   0  0  0  0  0  0  0  0  0  0  0  0
  139.6080   74.0220  223.1150 H   0  0  0  0  0  0  0  0  0  0  0  0
  139.5040   74.1858  220.1061 H   0  0  0  0  0  0  0  0  0  0  0  0
  138.1636   74.9417  221.0104 H   0  0  0  0  0  0  0  0  0  0  0  0
  142.5494   75.9201  221.0683 H   0  0  0  0  0  0  0  0  0  0  0  0
  142.0207   75.2182  219.4438 H   0  0  0  0  0  0  0  0  0  0  0  0
  143.3409   77.8161  220.0635 H   0  0  0  0  0  0  0  0  0  0  0  0
  143.7842   76.4622  218.9049 H   0  0  0  0  0  0  0  0  0  0  0  0
  141.9391   78.7458  218.5913 H   0  0  0  0  0  0  0  0  0  0  0  0
  143.0764   77.8838  217.4275 H   0  0  0  0  0  0  0  0  0  0  0  0
  141.1253   77.3405  216.5187 H   0  0  0  0  0  0  0  0  0  0  0  0
  141.3468   75.9864  217.7275 H   0  0  0  0  0  0  0  0  0  0  0  0
  139.4492   78.3055  217.7678 H   0  0  0  0  0  0  0  0  0  0  0  0
  139.1678   76.5236  218.0126 H   0  0  0  0  0  0  0  0  0  0  0  0
  138.9175   77.4134  220.1124 H   0  0  0  0  0  0  0  0  0  0  0  0
  141.2181   79.1970  219.3394 H   0  0  0  0  0  0  0  0  0  0  0  0
  139.5167   79.6026  219.8895 H   0  0  0  0  0  0  0  0  0  0  0  0
  138.9052   79.0852  222.2832 H   0  0  0  0  0  0  0  0  0  0  0  0
  139.6777   79.3790  224.5930 H   0  0  0  0  0  0  0  0  0  0  0  0
  142.1120   79.5888  225.0800 H   0  0  0  0  0  0  0  0  0  0  0  0
  143.7304   79.4908  223.1958 H   0  0  0  0  0  0  0  0  0  0  0  0
  142.9393   79.1996  220.8807 H   0  0  0  0  0  0  0  0  0  0  0  0
  138.6592   69.7070  222.1000 H   0  0  0  0  0  0  0  0  0  0  0  0
  138.9663   68.1375  223.9560 H   0  0  0  0  0  0  0  0  0  0  0  0
  139.7411   67.6987  226.1550 H   0  0  0  0  0  0  0  0  0  0  0  0
  141.5780   70.8668  228.3631 H   0  0  0  0  0  0  0  0  0  0  0  0
  141.2699   72.4591  226.4889 H   0  0  0  0  0  0  0  0  0  0  0  0
  1  2  2  0
  2  3  1  0
  3  4  1  0
  4  5  1  0
  5  6  2  0
  5  7  1  0
  7  8  1  0
  8  9  1  0
  9 10  1  0
 10 11  1  0
 11 12  1  0
 12 13  1  0
 13 14  1  0
 14 15  1  0
 15 16  2  0
 16 17  1  0
 17 18  2  0
 18 19  1  0
 19 20  2  0
  2 21  1  0
 21 22  2  0
 22 23  1  0
 23 24  2  0
 24 25  1  0
 25 26  2  0
 26 27  1  0
 26 28  1  0
 28 29  2  0
 29 30  1  0
 30 31  2  0
 13  7  1  0
 20 15  1  0
 31 21  1  0
 30 24  1  0
  3 32  1  0
  4 33  1  0
  4 34  1  0
  8 35  1  0
  8 36  1  0
  9 37  1  0
  9 38  1  0
 10 39  1  0
 10 40  1  0
 11 41  1  0
 11 42  1  0
 12 43  1  0
 12 44  1  0
 13 45  1  1
 14 46  1  0
 14 47  1  0
 16 48  1  0
 17 49  1  0
 18 50  1  0
 19 51  1  0
 20 52  1  0
 22 53  1  0
 23 54  1  0
 25 55  1  0
 28 56  1  0
 29 57  1  0
M  END
>  <smiles>  (20) 
O=C(NCC(=O)N1CCCCCC1Cc1ccccc1)c1ccc2cc(Cl)ccc2n1

>  <score_type>  (20) 
oracle

>  <origin>  (20) 
autodockgpu

>  <m_score__min__energy>  (20) 
-7.04

>  <m_primary>  (20) 
energy

>  <rmsd>  (20) 
2.0711653265426424

>  <m_score__min__rmsd>  (20) 
2.0711653265426424

>  <meeko>  (20) 
{"free_energy": -6.44, "intermolecular_energy": -10.02, "internal_energy": -2.34, "cluster_size": 28, "cluster_id": 1, "rank_in_cluster": 11}

>  <energy>  (20) 
-6.18

>  <cluster_rmsd>  (20) 
1.02

>  <cluster>  (20) 
1

$$$$

     RDKit          3D

 57 60  0  0  0  0  0  0  0  0999 V2000
  137.8060   75.2090  221.9720 O   0  0  0  0  0  0  0  0  0  0  0  0
  137.0700   75.8500  222.7830 C   0  0  0  0  0  0  0  0  0  0  0  0
  137.1440   77.2590  222.9360 N   0  0  0  0  0  0  0  0  0  0  0  0
  138.0630   78.0780  222.1830 C   0  0  0  0  0  0  0  0  0  0  0  0
  138.4660   79.2230  223.0440 C   0  0  0  0  0  0  0  0  0  0  0  0
  137.5690   79.6990  223.7950 O   0  0  0  0  0  0  0  0  0  0  0  0
  139.8000   79.7590  223.0220 N   0  0  0  0  0  0  0  0  0  0  0  0
  139.8390   81.1820  222.9960 C   0  0  0  0  0  0  0  0  0  0  0  0
  141.1720   81.7980  222.7120 C   0  0  0  0  0  0  0  0  0  0  0  0
  142.2360   81.4770  223.7180 C   0  0  0  0  0  0  0  0  0  0  0  0
  142.8230   80.1090  223.6150 C   0  0  0  0  0  0  0  0  0  0  0  0
  141.8810   79.0170  224.0430 C   0  0  0  0  0  0  0  0  0  0  0  0
  140.8240   78.7380  223.0290 C   0  0  2  0  0  0  0  0  0  0  0  0
  141.4500   78.5510  221.6710 C   0  0  0  0  0  0  0  0  0  0  0  0
  141.5130   77.1580  221.2220 C   0  0  0  0  0  0  0  0  0  0  0  0
  142.1810   76.7700  220.0740 C   0  0  0  0  0  0  0  0  0  0  0  0
  142.2440   75.4610  219.6440 C   0  0  0  0  0  0  0  0  0  0  0  0
  141.6230   74.4670  220.3700 C   0  0  0  0  0  0  0  0  0  0  0  0
  140.9470   74.8150  221.5220 C   0  0  0  0  0  0  0  0  0  0  0  0
  140.8940   76.1350  221.9360 C   0  0  0  0  0  0  0  0  0  0  0  0
  136.1120   75.0990  223.5850 C   0  0  0  0  0  0  0  0  0  0  0  0
  135.9070   73.7500  223.3850 C   0  0  0  0  0  0  0  0  0  0  0  0
  135.0240   72.9900  224.1040 C   0  0  0  0  0  0  0  0  0  0  0  0
  134.2900   73.6090  225.0910 C   0  0  0  0  0  0  0  0  0  0  0  0
  133.4020   72.8520  225.8160 C   0  0  0  0  0  0  0  0  0  0  0  0
  132.6770   73.4870  226.7980 C   0  0  0  0  0  0  0  0  0  0  0  0
  131.5110   72.6200  227.7900 Cl  0  0  0  0  0  0  0  0  0  0  0  0
  132.8680   74.8290  227.0120 C   0  0  0  0  0  0  0  0  0  0  0  0
  133.7590   75.6010  226.2890 C   0  0  0  0  0  0  0  0  0  0  0  0
  134.4900   74.9480  225.2930 C   0  0  0  0  0  0  0  0  0  0  0  0
  135.3730   75.6810  224.5670 N   0  0  0  0  0  0  0  0  0  0  0  0
  136.4910   77.7080  223.6370 H   0  0  0  0  0  0  0  0  0  0  0  0
  138.9493   77.4880  221.9067 H   0  0  0  0  0  0  0  0  0  0  0  0
  137.5856   78.4412  221.2610 H   0  0  0  0  0  0  0  0  0  0  0  0
  139.1386   81.5234  222.2196 H   0  0  0  0  0  0  0  0  0  0  0  0
  139.5754   81.5037  224.0143 H   0  0  0  0  0  0  0  0  0  0  0  0
  141.5117   81.4420  221.7282 H   0  0  0  0  0  0  0  0  0  0  0  0
  141.0259   82.8876  222.7503 H   0  0  0  0  0  0  0  0  0  0  0  0
  143.0505   82.2059  223.5946 H   0  0  0  0  0  0  0  0  0  0  0  0
  141.7464   81.5232  224.7019 H   0  0  0  0  0  0  0  0  0  0  0  0
  143.1092   79.9311  222.5679 H   0  0  0  0  0  0  0  0  0  0  0  0
  143.6866   80.0759  224.2955 H   0  0  0  0  0  0  0  0  0  0  0  0
  142.4609   78.0971  224.2089 H   0  0  0  0  0  0  0  0  0  0  0  0
  141.3789   79.3530  224.9622 H   0  0  0  0  0  0  0  0  0  0  0  0
  140.3172   77.8013  223.3042 H   0  0  0  0  0  0  0  0  0  0  0  0
  140.8609   79.1225  220.9386 H   0  0  0  0  0  0  0  0  0  0  0  0
  142.4891   78.9026  221.7524 H   0  0  0  0  0  0  0  0  0  0  0  0
  142.6860   77.5426  219.4756 H   0  0  0  0  0  0  0  0  0  0  0  0
  142.7895   75.2102  218.7223 H   0  0  0  0  0  0  0  0  0  0  0  0
  141.6653   73.4191  220.0383 H   0  0  0  0  0  0  0  0  0  0  0  0
  140.4460   74.0367  222.1163 H   0  0  0  0  0  0  0  0  0  0  0  0
  140.3462   76.3834  222.8570 H   0  0  0  0  0  0  0  0  0  0  0  0
  136.4908   73.2524  222.5966 H   0  0  0  0  0  0  0  0  0  0  0  0
  134.9043   71.9159  223.8992 H   0  0  0  0  0  0  0  0  0  0  0  0
  133.2752   71.7773  225.6186 H   0  0  0  0  0  0  0  0  0  0  0  0
  132.2797   75.3178  227.8025 H   0  0  0  0  0  0  0  0  0  0  0  0
  133.8859   76.6754  226.4880 H   0  0  0  0  0  0  0  0  0  0  0  0
  1  2  2  0
  2  3  1  0
  3  4  1  0
  4  5  1  0
  5  6  2  0
  5  7  1  0
  7  8  1  0
  8  9  1  0
  9 10  1  0
 10 11  1  0
 11 12  1  0
 12 13  1  0
 13 14  1  0
 14 15  1  0
 15 16  2  0
 16 17  1  0
 17 18  2  0
 18 19  1  0
 19 20  2  0
  2 21  1  0
 21 22  2  0
 22 23  1  0
 23 24  2  0
 24 25  1  0
 25 26  2  0
 26 27  1  0
 26 28  1  0
 28 29  2  0
 29 30  1  0
 30 31  2  0
 13  7  1  0
 20 15  1  0
 31 21  1  0
 30 24  1  0
  3 32  1  0
  4 33  1  0
  4 34  1  0
  8 35  1  0
  8 36  1  0
  9 37  1  0
  9 38  1  0
 10 39  1  0
 10 40  1  0
 11 41  1  0
 11 42  1  0
 12 43  1  0
 12 44  1  0
 13 45  1  1
 14 46  1  0
 14 47  1  0
 16 48  1  0
 17 49  1  0
 18 50  1  0
 19 51  1  0
 20 52  1  0
 22 53  1  0
 23 54  1  0
 25 55  1  0
 28 56  1  0
 29 57  1  0
M  END
>  <smiles>  (21) 
O=C(NCC(=O)N1CCCCCC1Cc1ccccc1)c1ccc2cc(Cl)ccc2n1

>  <score_type>  (21) 
oracle

>  <origin>  (21) 
autodockgpu

>  <m_score__min__energy>  (21) 
-7.04

>  <m_primary>  (21) 
energy

>  <rmsd>  (21) 
6.488525935848223

>  <m_score__min__rmsd>  (21) 
6.488525935848223

>  <meeko>  (21) 
{"free_energy": -5.14, "intermolecular_energy": -8.72, "internal_energy": -2.65, "cluster_size": 1, "cluster_id": 10, "rank_in_cluster": 1}

>  <energy>  (21) 
-6.14

>  <cluster_rmsd>  (21) 
1.43

>  <cluster>  (21) 
1

$$$$

     RDKit          3D

 57 60  0  0  0  0  0  0  0  0999 V2000
  139.9510   73.7700  222.2330 O   0  0  0  0  0  0  0  0  0  0  0  0
  139.9350   72.5250  221.9870 C   0  0  0  0  0  0  0  0  0  0  0  0
  139.8930   72.0050  220.6680 N   0  0  0  0  0  0  0  0  0  0  0  0
  139.8640   72.8490  219.4970 C   0  0  0  0  0  0  0  0  0  0  0  0
  141.2700   73.1210  219.0950 C   0  0  0  0  0  0  0  0  0  0  0  0
  141.4800   73.2620  217.8570 O   0  0  0  0  0  0  0  0  0  0  0  0
  142.3330   73.2160  220.0600 N   0  0  0  0  0  0  0  0  0  0  0  0
  142.5450   74.5390  220.5420 C   0  0  0  0  0  0  0  0  0  0  0  0
  143.8060   75.2070  220.0960 C   0  0  0  0  0  0  0  0  0  0  0  0
  145.0640   74.4940  220.4880 C   0  0  0  0  0  0  0  0  0  0  0  0
  145.1690   73.0790  220.0260 C   0  0  0  0  0  0  0  0  0  0  0  0
  144.3550   72.1150  220.8490 C   0  0  0  0  0  0  0  0  0  0  0  0
  142.9660   71.9460  220.3360 C   0  0  2  0  0  0  0  0  0  0  0  0
  142.9700   71.0390  219.1320 C   0  0  0  0  0  0  0  0  0  0  0  0
  143.9970   69.9950  219.1660 C   0  0  0  0  0  0  0  0  0  0  0  0
  143.8250   68.7960  219.8360 C   0  0  0  0  0  0  0  0  0  0  0  0
  144.7870   67.8090  219.8740 C   0  0  0  0  0  0  0  0  0  0  0  0
  145.9890   67.9930  219.2240 C   0  0  0  0  0  0  0  0  0  0  0  0
  146.1970   69.1760  218.5440 C   0  0  0  0  0  0  0  0  0  0  0  0
  145.2190   70.1560  218.5180 C   0  0  0  0  0  0  0  0  0  0  0  0
  139.9630   71.6000  223.1140 C   0  0  0  0  0  0  0  0  0  0  0  0
  139.4380   70.3300  223.0140 C   0  0  0  0  0  0  0  0  0  0  0  0
  139.4340   69.4150  224.0340 C   0  0  0  0  0  0  0  0  0  0  0  0
  139.9890   69.7850  225.2390 C   0  0  0  0  0  0  0  0  0  0  0  0
  139.9880   68.8740  226.2650 C   0  0  0  0  0  0  0  0  0  0  0  0
  140.5470   69.2600  227.4620 C   0  0  0  0  0  0  0  0  0  0  0  0
  140.6030   68.1780  228.8470 Cl  0  0  0  0  0  0  0  0  0  0  0  0
  141.0750   70.5210  227.5790 C   0  0  0  0  0  0  0  0  0  0  0  0
  141.0820   71.4480  226.5530 C   0  0  0  0  0  0  0  0  0  0  0  0
  140.5120   71.0470  225.3410 C   0  0  0  0  0  0  0  0  0  0  0  0
  140.5040   71.9360  224.3150 N   0  0  0  0  0  0  0  0  0  0  0  0
  139.8830   70.9530  220.5580 H   0  0  0  0  0  0  0  0  0  0  0  0
  139.3341   72.3370  218.6802 H   0  0  0  0  0  0  0  0  0  0  0  0
  139.3389   73.7905  219.7160 H   0  0  0  0  0  0  0  0  0  0  0  0
  141.6999   75.1583  220.2069 H   0  0  0  0  0  0  0  0  0  0  0  0
  142.6306   74.4454  221.6347 H   0  0  0  0  0  0  0  0  0  0  0  0
  143.7834   75.2842  218.9989 H   0  0  0  0  0  0  0  0  0  0  0  0
  143.8339   76.1854  220.5979 H   0  0  0  0  0  0  0  0  0  0  0  0
  145.9146   75.0517  220.0691 H   0  0  0  0  0  0  0  0  0  0  0  0
  145.0594   74.4541  221.5873 H   0  0  0  0  0  0  0  0  0  0  0  0
  144.8213   73.0266  218.9837 H   0  0  0  0  0  0  0  0  0  0  0  0
  146.2232   72.7826  220.1301 H   0  0  0  0  0  0  0  0  0  0  0  0
  144.8549   71.1352  220.8387 H   0  0  0  0  0  0  0  0  0  0  0  0
  144.2840   72.5268  221.8665 H   0  0  0  0  0  0  0  0  0  0  0  0
  142.3609   71.4707  221.1221 H   0  0  0  0  0  0  0  0  0  0  0  0
  141.9860   70.5520  219.0646 H   0  0  0  0  0  0  0  0  0  0  0  0
  143.1944   71.6728  218.2614 H   0  0  0  0  0  0  0  0  0  0  0  0
  142.8754   68.6223  220.3633 H   0  0  0  0  0  0  0  0  0  0  0  0
  144.5956   66.8750  220.4227 H   0  0  0  0  0  0  0  0  0  0  0  0
  146.7653   67.2140  219.2469 H   0  0  0  0  0  0  0  0  0  0  0  0
  147.1486   69.3419  218.0178 H   0  0  0  0  0  0  0  0  0  0  0  0
  145.4132   71.0893  217.9692 H   0  0  0  0  0  0  0  0  0  0  0  0
  138.9933   70.0313  222.0532 H   0  0  0  0  0  0  0  0  0  0  0  0
  139.0001   68.4139  223.8944 H   0  0  0  0  0  0  0  0  0  0  0  0
  139.5558   67.8708  226.1355 H   0  0  0  0  0  0  0  0  0  0  0  0
  141.5177   70.8109  228.5434 H   0  0  0  0  0  0  0  0  0  0  0  0
  141.5145   72.4509  226.6839 H   0  0  0  0  0  0  0  0  0  0  0  0
  1  2  2  0
  2  3  1  0
  3  4  1  0
  4  5  1  0
  5  6  2  0
  5  7  1  0
  7  8  1  0
  8  9  1  0
  9 10  1  0
 10 11  1  0
 11 12  1  0
 12 13  1  0
 13 14  1  0
 14 15  1  0
 15 16  2  0
 16 17  1  0
 17 18  2  0
 18 19  1  0
 19 20  2  0
  2 21  1  0
 21 22  2  0
 22 23  1  0
 23 24  2  0
 24 25  1  0
 25 26  2  0
 26 27  1  0
 26 28  1  0
 28 29  2  0
 29 30  1  0
 30 31  2  0
 13  7  1  0
 20 15  1  0
 31 21  1  0
 30 24  1  0
  3 32  1  0
  4 33  1  0
  4 34  1  0
  8 35  1  0
  8 36  1  0
  9 37  1  0
  9 38  1  0
 10 39  1  0
 10 40  1  0
 11 41  1  0
 11 42  1  0
 12 43  1  0
 12 44  1  0
 13 45  1  1
 14 46  1  0
 14 47  1  0
 16 48  1  0
 17 49  1  0
 18 50  1  0
 19 51  1  0
 20 52  1  0
 22 53  1  0
 23 54  1  0
 25 55  1  0
 28 56  1  0
 29 57  1  0
M  END
>  <smiles>  (22) 
O=C(NCC(=O)N1CCCCCC1Cc1ccccc1)c1ccc2cc(Cl)ccc2n1

>  <score_type>  (22) 
oracle

>  <origin>  (22) 
autodockgpu

>  <m_score__min__energy>  (22) 
-7.04

>  <m_primary>  (22) 
energy

>  <rmsd>  (22) 
3.4634414886494973

>  <m_score__min__rmsd>  (22) 
3.4634414886494973

>  <meeko>  (22) 
{"free_energy": -6.25, "intermolecular_energy": -9.83, "internal_energy": -2.02, "cluster_size": 1, "cluster_id": 5, "rank_in_cluster": 1}

>  <energy>  (22) 
-6.05

>  <cluster_rmsd>  (22) 
1.53

>  <cluster>  (22) 
1

$$$$

     RDKit          3D

 57 60  0  0  0  0  0  0  0  0999 V2000
  142.6510   73.9180  220.0690 O   0  0  0  0  0  0  0  0  0  0  0  0
  141.8230   74.5020  220.8330 C   0  0  0  0  0  0  0  0  0  0  0  0
  140.9610   73.7950  221.7110 N   0  0  0  0  0  0  0  0  0  0  0  0
  140.9540   72.3550  221.8060 C   0  0  0  0  0  0  0  0  0  0  0  0
  139.5710   71.9260  222.1470 C   0  0  0  0  0  0  0  0  0  0  0  0
  138.7310   72.8490  222.3380 O   0  0  0  0  0  0  0  0  0  0  0  0
  139.2090   70.5370  222.2560 N   0  0  0  0  0  0  0  0  0  0  0  0
  138.8260   69.9520  221.0160 C   0  0  0  0  0  0  0  0  0  0  0  0
  138.9480   68.4650  220.9260 C   0  0  0  0  0  0  0  0  0  0  0  0
  138.7400   67.7400  222.2220 C   0  0  0  0  0  0  0  0  0  0  0  0
  137.6300   68.2590  223.0740 C   0  0  0  0  0  0  0  0  0  0  0  0
  138.0600   69.3380  224.0350 C   0  0  0  0  0  0  0  0  0  0  0  0
  139.3100   70.0280  223.6050 C   0  0  2  0  0  0  0  0  0  0  0  0
  139.6680   71.1060  224.5950 C   0  0  0  0  0  0  0  0  0  0  0  0
  140.1670   70.6060  225.8790 C   0  0  0  0  0  0  0  0  0  0  0  0
  140.3010   69.2570  226.1560 C   0  0  0  0  0  0  0  0  0  0  0  0
  140.7670   68.7780  227.3620 C   0  0  0  0  0  0  0  0  0  0  0  0
  141.1260   69.6590  228.3610 C   0  0  0  0  0  0  0  0  0  0  0  0
  141.0070   71.0130  228.1210 C   0  0  0  0  0  0  0  0  0  0  0  0
  140.5350   71.4740  226.9030 C   0  0  0  0  0  0  0  0  0  0  0  0
  141.7640   75.9580  220.8010 C   0  0  0  0  0  0  0  0  0  0  0  0
  142.1900   76.6710  219.7020 C   0  0  0  0  0  0  0  0  0  0  0  0
  142.1600   78.0380  219.6100 C   0  0  0  0  0  0  0  0  0  0  0  0
  141.6730   78.7490  220.6840 C   0  0  0  0  0  0  0  0  0  0  0  0
  141.6400   80.1190  220.5990 C   0  0  0  0  0  0  0  0  0  0  0  0
  141.1510   80.8130  221.6820 C   0  0  0  0  0  0  0  0  0  0  0  0
  141.0600   82.5700  221.6870 Cl  0  0  0  0  0  0  0  0  0  0  0  0
  140.7210   80.1190  222.7850 C   0  0  0  0  0  0  0  0  0  0  0  0
  140.7500   78.7410  222.8820 C   0  0  0  0  0  0  0  0  0  0  0  0
  141.2490   78.0430  221.7780 C   0  0  0  0  0  0  0  0  0  0  0  0
  141.2890   76.6880  221.8450 N   0  0  0  0  0  0  0  0  0  0  0  0
  140.3030   74.3650  222.3120 H   0  0  0  0  0  0  0  0  0  0  0  0
  141.2551   71.9155  220.8436 H   0  0  0  0  0  0  0  0  0  0  0  0
  141.6610   72.0185  222.5786 H   0  0  0  0  0  0  0  0  0  0  0  0
  137.7741   70.2149  220.8309 H   0  0  0  0  0  0  0  0  0  0  0  0
  139.5288   70.3522  220.2704 H   0  0  0  0  0  0  0  0  0  0  0  0
  138.1989   68.1026  220.2065 H   0  0  0  0  0  0  0  0  0  0  0  0
  139.9824   68.2562  220.6156 H   0  0  0  0  0  0  0  0  0  0  0  0
  138.5263   66.6860  221.9909 H   0  0  0  0  0  0  0  0  0  0  0  0
  139.6625   67.8865  222.8031 H   0  0  0  0  0  0  0  0  0  0  0  0
  136.8499   68.6699  222.4163 H   0  0  0  0  0  0  0  0  0  0  0  0
  137.2661   67.4152  223.6786 H   0  0  0  0  0  0  0  0  0  0  0  0
  137.2547   70.0835  224.1101 H   0  0  0  0  0  0  0  0  0  0  0  0
  138.2623   68.8581  225.0039 H   0  0  0  0  0  0  0  0  0  0  0  0
  140.1267   69.2913  223.5903 H   0  0  0  0  0  0  0  0  0  0  0  0
  140.4467   71.7404  224.1465 H   0  0  0  0  0  0  0  0  0  0  0  0
  138.7398   71.6554  224.8109 H   0  0  0  0  0  0  0  0  0  0  0  0
  140.0224   68.5321  225.3769 H   0  0  0  0  0  0  0  0  0  0  0  0
  140.8525   67.6939  227.5275 H   0  0  0  0  0  0  0  0  0  0  0  0
  141.4990   69.2904  229.3279 H   0  0  0  0  0  0  0  0  0  0  0  0
  141.2895   71.7323  228.9038 H   0  0  0  0  0  0  0  0  0  0  0  0
  140.4484   72.5584  226.7402 H   0  0  0  0  0  0  0  0  0  0  0  0
  142.5797   76.1063  218.8422 H   0  0  0  0  0  0  0  0  0  0  0  0
  142.5146   78.5523  218.7046 H   0  0  0  0  0  0  0  0  0  0  0  0
  141.9917   80.6428  219.6979 H   0  0  0  0  0  0  0  0  0  0  0  0
  140.3315   80.6917  223.6396 H   0  0  0  0  0  0  0  0  0  0  0  0
  140.3977   78.2186  223.7837 H   0  0  0  0  0  0  0  0  0  0  0  0
  1  2  2  0
  2  3  1  0
  3  4  1  0
  4  5  1  0
  5  6  2  0
  5  7  1  0
  7  8  1  0
  8  9  1  0
  9 10  1  0
 10 11  1  0
 11 12  1  0
 12 13  1  0
 13 14  1  0
 14 15  1  0
 15 16  2  0
 16 17  1  0
 17 18  2  0
 18 19  1  0
 19 20  2  0
  2 21  1  0
 21 22  2  0
 22 23  1  0
 23 24  2  0
 24 25  1  0
 25 26  2  0
 26 27  1  0
 26 28  1  0
 28 29  2  0
 29 30  1  0
 30 31  2  0
 13  7  1  0
 20 15  1  0
 31 21  1  0
 30 24  1  0
  3 32  1  0
  4 33  1  0
  4 34  1  0
  8 35  1  0
  8 36  1  0
  9 37  1  0
  9 38  1  0
 10 39  1  0
 10 40  1  0
 11 41  1  0
 11 42  1  0
 12 43  1  0
 12 44  1  0
 13 45  1  6
 14 46  1  0
 14 47  1  0
 16 48  1  0
 17 49  1  0
 18 50  1  0
 19 51  1  0
 20 52  1  0
 22 53  1  0
 23 54  1  0
 25 55  1  0
 28 56  1  0
 29 57  1  0
M  END
>  <smiles>  (23) 
O=C(NCC(=O)N1CCCCCC1Cc1ccccc1)c1ccc2cc(Cl)ccc2n1

>  <score_type>  (23) 
oracle

>  <origin>  (23) 
autodockgpu

>  <m_score__min__energy>  (23) 
-7.04

>  <m_primary>  (23) 
energy

>  <rmsd>  (23) 
8.291738925533434

>  <m_score__min__rmsd>  (23) 
8.291738925533434

>  <meeko>  (23) 
{"free_energy": -5.64, "intermolecular_energy": -9.22, "internal_energy": -2.24, "cluster_size": 1, "cluster_id": 9, "rank_in_cluster": 1}

>  <energy>  (23) 
-6.03

>  <cluster_rmsd>  (23) 
1.44

>  <cluster>  (23) 
1

$$$$

     RDKit          3D

 57 60  0  0  0  0  0  0  0  0999 V2000
  139.7710   72.2510  220.6740 O   0  0  0  0  0  0  0  0  0  0  0  0
  139.7320   72.7400  221.8440 C   0  0  0  0  0  0  0  0  0  0  0  0
  139.5720   74.1280  222.0890 N   0  0  0  0  0  0  0  0  0  0  0  0
  139.4410   75.0980  221.0280 C   0  0  0  0  0  0  0  0  0  0  0  0
  138.9910   76.3800  221.6330 C   0  0  0  0  0  0  0  0  0  0  0  0
  138.5210   76.3110  222.8040 O   0  0  0  0  0  0  0  0  0  0  0  0
  139.0840   77.6300  220.9270 N   0  0  0  0  0  0  0  0  0  0  0  0
  139.5220   77.4880  219.5790 C   0  0  0  0  0  0  0  0  0  0  0  0
  138.7140   78.2090  218.5470 C   0  0  0  0  0  0  0  0  0  0  0  0
  138.8100   79.7040  218.6090 C   0  0  0  0  0  0  0  0  0  0  0  0
  138.2510   80.3300  219.8430 C   0  0  0  0  0  0  0  0  0  0  0  0
  139.0700   80.0590  221.0780 C   0  0  0  0  0  0  0  0  0  0  0  0
  138.7140   78.7690  221.7360 C   0  0  2  0  0  0  0  0  0  0  0  0
  139.3210   78.7100  223.1140 C   0  0  0  0  0  0  0  0  0  0  0  0
  140.6070   79.4000  223.2380 C   0  0  0  0  0  0  0  0  0  0  0  0
  141.8040   78.8310  222.8370 C   0  0  0  0  0  0  0  0  0  0  0  0
  143.0190   79.4730  222.9510 C   0  0  0  0  0  0  0  0  0  0  0  0
  143.0790   80.7430  223.4870 C   0  0  0  0  0  0  0  0  0  0  0  0
  141.9070   81.3420  223.8970 C   0  0  0  0  0  0  0  0  0  0  0  0
  140.6960   80.6810  223.7750 C   0  0  0  0  0  0  0  0  0  0  0  0
  139.8570   71.8300  222.9760 C   0  0  0  0  0  0  0  0  0  0  0  0
  139.4560   70.5140  222.8890 C   0  0  0  0  0  0  0  0  0  0  0  0
  139.5480   69.6100  223.9140 C   0  0  0  0  0  0  0  0  0  0  0  0
  140.0730   70.0410  225.1120 C   0  0  0  0  0  0  0  0  0  0  0  0
  140.1670   69.1410  226.1440 C   0  0  0  0  0  0  0  0  0  0  0  0
  140.6950   69.5880  227.3340 C   0  0  0  0  0  0  0  0  0  0  0  0
  140.8650   68.5250  228.7250 Cl  0  0  0  0  0  0  0  0  0  0  0  0
  141.1000   70.8940  227.4390 C   0  0  0  0  0  0  0  0  0  0  0  0
  141.0100   71.8100  226.4070 C   0  0  0  0  0  0  0  0  0  0  0  0
  140.4720   71.3470  225.2030 C   0  0  0  0  0  0  0  0  0  0  0  0
  140.3710   72.2240  224.1710 N   0  0  0  0  0  0  0  0  0  0  0  0
  139.5510   74.4470  223.0980 H   0  0  0  0  0  0  0  0  0  0  0  0
  140.4114   75.2402  220.5298 H   0  0  0  0  0  0  0  0  0  0  0  0
  138.7130   74.7512  220.2798 H   0  0  0  0  0  0  0  0  0  0  0  0
  140.5547   77.8622  219.5196 H   0  0  0  0  0  0  0  0  0  0  0  0
  139.4162   76.4186  219.3442 H   0  0  0  0  0  0  0  0  0  0  0  0
  139.0581   77.8843  217.5539 H   0  0  0  0  0  0  0  0  0  0  0  0
  137.6616   77.9566  218.7439 H   0  0  0  0  0  0  0  0  0  0  0  0
  139.8728   79.9791  218.5403 H   0  0  0  0  0  0  0  0  0  0  0  0
  138.2011   80.0820  217.7745 H   0  0  0  0  0  0  0  0  0  0  0  0
  138.2017   81.4182  219.6898 H   0  0  0  0  0  0  0  0  0  0  0  0
  137.2581   79.8868  220.0094 H   0  0  0  0  0  0  0  0  0  0  0  0
  140.1326   80.0278  220.7952 H   0  0  0  0  0  0  0  0  0  0  0  0
  138.8625   80.8656  221.7966 H   0  0  0  0  0  0  0  0  0  0  0  0
  137.6200   78.7229  221.8415 H   0  0  0  0  0  0  0  0  0  0  0  0
  138.6145   79.1690  223.8212 H   0  0  0  0  0  0  0  0  0  0  0  0
  139.5122   77.6481  223.3279 H   0  0  0  0  0  0  0  0  0  0  0  0
  141.7847   77.8187  222.4071 H   0  0  0  0  0  0  0  0  0  0  0  0
  143.9395   78.9732  222.6150 H   0  0  0  0  0  0  0  0  0  0  0  0
  144.0415   81.2664  223.5851 H   0  0  0  0  0  0  0  0  0  0  0  0
  141.9339   82.3549  224.3253 H   0  0  0  0  0  0  0  0  0  0  0  0
  139.7774   81.1833  224.1125 H   0  0  0  0  0  0  0  0  0  0  0  0
  139.0345   70.1671  221.9340 H   0  0  0  0  0  0  0  0  0  0  0  0
  139.2125   68.5705  223.7841 H   0  0  0  0  0  0  0  0  0  0  0  0
  139.8324   68.1000  226.0244 H   0  0  0  0  0  0  0  0  0  0  0  0
  141.5200   71.2318  228.3979 H   0  0  0  0  0  0  0  0  0  0  0  0
  141.3450   72.8508  226.5276 H   0  0  0  0  0  0  0  0  0  0  0  0
  1  2  2  0
  2  3  1  0
  3  4  1  0
  4  5  1  0
  5  6  2  0
  5  7  1  0
  7  8  1  0
  8  9  1  0
  9 10  1  0
 10 11  1  0
 11 12  1  0
 12 13  1  0
 13 14  1  0
 14 15  1  0
 15 16  2  0
 16 17  1  0
 17 18  2  0
 18 19  1  0
 19 20  2  0
  2 21  1  0
 21 22  2  0
 22 23  1  0
 23 24  2  0
 24 25  1  0
 25 26  2  0
 26 27  1  0
 26 28  1  0
 28 29  2  0
 29 30  1  0
 30 31  2  0
 13  7  1  0
 20 15  1  0
 31 21  1  0
 30 24  1  0
  3 32  1  0
  4 33  1  0
  4 34  1  0
  8 35  1  0
  8 36  1  0
  9 37  1  0
  9 38  1  0
 10 39  1  0
 10 40  1  0
 11 41  1  0
 11 42  1  0
 12 43  1  0
 12 44  1  0
 13 45  1  1
 14 46  1  0
 14 47  1  0
 16 48  1  0
 17 49  1  0
 18 50  1  0
 19 51  1  0
 20 52  1  0
 22 53  1  0
 23 54  1  0
 25 55  1  0
 28 56  1  0
 29 57  1  0
M  END
>  <smiles>  (24) 
O=C(NCC(=O)N1CCCCCC1Cc1ccccc1)c1ccc2cc(Cl)ccc2n1

>  <score_type>  (24) 
oracle

>  <origin>  (24) 
autodockgpu

>  <m_score__min__energy>  (24) 
-7.04

>  <m_primary>  (24) 
energy

>  <rmsd>  (24) 
2.712827727307989

>  <m_score__min__rmsd>  (24) 
2.712827727307989

>  <meeko>  (24) 
{"free_energy": -6.32, "intermolecular_energy": -9.9, "internal_energy": -2.08, "cluster_size": 28, "cluster_id": 1, "rank_in_cluster": 15}

>  <energy>  (24) 
-5.96

>  <cluster_rmsd>  (24) 
1.95

>  <cluster>  (24) 
1

$$$$

     RDKit          3D

 57 60  0  0  0  0  0  0  0  0999 V2000
  139.5240   72.0600  220.7860 O   0  0  0  0  0  0  0  0  0  0  0  0
  139.5740   72.5300  221.9640 C   0  0  0  0  0  0  0  0  0  0  0  0
  139.4630   73.9170  222.2410 N   0  0  0  0  0  0  0  0  0  0  0  0
  139.2850   74.9080  221.2060 C   0  0  0  0  0  0  0  0  0  0  0  0
  138.2200   75.8470  221.6510 C   0  0  0  0  0  0  0  0  0  0  0  0
  137.4140   75.4060  222.5180 O   0  0  0  0  0  0  0  0  0  0  0  0
  138.1120   77.1810  221.1240 N   0  0  0  0  0  0  0  0  0  0  0  0
  137.6060   77.2260  219.7940 C   0  0  0  0  0  0  0  0  0  0  0  0
  136.6980   78.3710  219.4760 C   0  0  0  0  0  0  0  0  0  0  0  0
  136.8270   79.5460  220.3980 C   0  0  0  0  0  0  0  0  0  0  0  0
  136.3330   79.3270  221.7890 C   0  0  0  0  0  0  0  0  0  0  0  0
  137.3920   78.8460  222.7460 C   0  0  0  0  0  0  0  0  0  0  0  0
  138.5440   78.1970  222.0570 C   0  0  2  0  0  0  0  0  0  0  0  0
  139.4060   79.2440  221.3990 C   0  0  0  0  0  0  0  0  0  0  0  0
  140.5080   79.7310  222.2330 C   0  0  0  0  0  0  0  0  0  0  0  0
  141.4290   78.8850  222.8260 C   0  0  0  0  0  0  0  0  0  0  0  0
  142.4680   79.3350  223.6130 C   0  0  0  0  0  0  0  0  0  0  0  0
  142.6240   80.6860  223.8410 C   0  0  0  0  0  0  0  0  0  0  0  0
  141.7240   81.5610  223.2670 C   0  0  0  0  0  0  0  0  0  0  0  0
  140.6870   81.0890  222.4800 C   0  0  0  0  0  0  0  0  0  0  0  0
  139.7520   71.5970  223.0700 C   0  0  0  0  0  0  0  0  0  0  0  0
  139.4190   70.2650  222.9480 C   0  0  0  0  0  0  0  0  0  0  0  0
  139.5630   69.3400  223.9490 C   0  0  0  0  0  0  0  0  0  0  0  0
  140.0720   69.7650  225.1560 C   0  0  0  0  0  0  0  0  0  0  0  0
  140.2180   68.8430  226.1630 C   0  0  0  0  0  0  0  0  0  0  0  0
  140.7290   69.2850  227.3620 C   0  0  0  0  0  0  0  0  0  0  0  0
  140.9610   68.1960  228.7240 Cl  0  0  0  0  0  0  0  0  0  0  0  0
  141.0650   70.6080  227.5010 C   0  0  0  0  0  0  0  0  0  0  0  0
  140.9220   71.5450  226.4950 C   0  0  0  0  0  0  0  0  0  0  0  0
  140.4030   71.0880  225.2800 C   0  0  0  0  0  0  0  0  0  0  0  0
  140.2520   71.9860  224.2730 N   0  0  0  0  0  0  0  0  0  0  0  0
  139.5160   74.2180  223.2540 H   0  0  0  0  0  0  0  0  0  0  0  0
  140.2252   75.4567  221.0482 H   0  0  0  0  0  0  0  0  0  0  0  0
  139.0003   74.4264  220.2589 H   0  0  0  0  0  0  0  0  0  0  0  0
  138.4650   77.2774  219.1088 H   0  0  0  0  0  0  0  0  0  0  0  0
  136.9922   76.3204  219.6796 H   0  0  0  0  0  0  0  0  0  0  0  0
  136.9203   78.7112  218.4538 H   0  0  0  0  0  0  0  0  0  0  0  0
  135.6708   77.9953  219.5926 H   0  0  0  0  0  0  0  0  0  0  0  0
  137.8915   79.8171  220.4549 H   0  0  0  0  0  0  0  0  0  0  0  0
  136.1911   80.3360  219.9720 H   0  0  0  0  0  0  0  0  0  0  0  0
  135.9312   80.2786  222.1673 H   0  0  0  0  0  0  0  0  0  0  0  0
  135.5697   78.5368  221.7352 H   0  0  0  0  0  0  0  0  0  0  0  0
  137.7655   79.7078  223.3185 H   0  0  0  0  0  0  0  0  0  0  0  0
  136.9293   78.0910  223.3986 H   0  0  0  0  0  0  0  0  0  0  0  0
  139.1524   77.6771  222.8117 H   0  0  0  0  0  0  0  0  0  0  0  0
  139.8332   78.8117  220.4822 H   0  0  0  0  0  0  0  0  0  0  0  0
  138.7551   80.1086  221.2019 H   0  0  0  0  0  0  0  0  0  0  0  0
  141.3273   77.8021  222.6617 H   0  0  0  0  0  0  0  0  0  0  0  0
  143.1719   78.6168  224.0587 H   0  0  0  0  0  0  0  0  0  0  0  0
  143.4482   81.0585  224.4671 H   0  0  0  0  0  0  0  0  0  0  0  0
  141.8314   82.6426  223.4362 H   0  0  0  0  0  0  0  0  0  0  0  0
  139.9835   81.8091  222.0366 H   0  0  0  0  0  0  0  0  0  0  0  0
  139.0115   69.9224  221.9854 H   0  0  0  0  0  0  0  0  0  0  0  0
  139.2802   68.2885  223.7928 H   0  0  0  0  0  0  0  0  0  0  0  0
  139.9368   67.7897  226.0167 H   0  0  0  0  0  0  0  0  0  0  0  0
  141.4710   70.9417  228.4673 H   0  0  0  0  0  0  0  0  0  0  0  0
  141.2027   72.5982  226.6431 H   0  0  0  0  0  0  0  0  0  0  0  0
  1  2  2  0
  2  3  1  0
  3  4  1  0
  4  5  1  0
  5  6  2  0
  5  7  1  0
  7  8  1  0
  8  9  1  0
  9 10  1  0
 10 11  1  0
 11 12  1  0
 12 13  1  0
 13 14  1  0
 14 15  1  0
 15 16  2  0
 16 17  1  0
 17 18  2  0
 18 19  1  0
 19 20  2  0
  2 21  1  0
 21 22  2  0
 22 23  1  0
 23 24  2  0
 24 25  1  0
 25 26  2  0
 26 27  1  0
 26 28  1  0
 28 29  2  0
 29 30  1  0
 30 31  2  0
 13  7  1  0
 20 15  1  0
 31 21  1  0
 30 24  1  0
  3 32  1  0
  4 33  1  0
  4 34  1  0
  8 35  1  0
  8 36  1  0
  9 37  1  0
  9 38  1  0
 10 39  1  0
 10 40  1  0
 11 41  1  0
 11 42  1  0
 12 43  1  0
 12 44  1  0
 13 45  1  1
 14 46  1  0
 14 47  1  0
 16 48  1  0
 17 49  1  0
 18 50  1  0
 19 51  1  0
 20 52  1  0
 22 53  1  0
 23 54  1  0
 25 55  1  0
 28 56  1  0
 29 57  1  0
M  END
>  <smiles>  (25) 
O=C(NCC(=O)N1CCCCCC1Cc1ccccc1)c1ccc2cc(Cl)ccc2n1

>  <score_type>  (25) 
oracle

>  <origin>  (25) 
autodockgpu

>  <m_score__min__energy>  (25) 
-7.04

>  <m_primary>  (25) 
energy

>  <rmsd>  (25) 
2.6781954989438788

>  <m_score__min__rmsd>  (25) 
2.6781954989438788

>  <meeko>  (25) 
{"free_energy": -5.8, "intermolecular_energy": -9.38, "internal_energy": -1.54, "cluster_size": 28, "cluster_id": 1, "rank_in_cluster": 27}

>  <energy>  (25) 
-5.92

>  <cluster_rmsd>  (25) 
1.33

>  <cluster>  (25) 
1

$$$$

     RDKit          3D

 57 60  0  0  0  0  0  0  0  0999 V2000
  139.7650   72.0750  220.5620 O   0  0  0  0  0  0  0  0  0  0  0  0
  139.7640   72.5550  221.7370 C   0  0  0  0  0  0  0  0  0  0  0  0
  139.6740   73.9470  221.9960 N   0  0  0  0  0  0  0  0  0  0  0  0
  139.5790   74.9320  220.9440 C   0  0  0  0  0  0  0  0  0  0  0  0
  140.4840   76.0600  221.2920 C   0  0  0  0  0  0  0  0  0  0  0  0
  140.8740   76.1140  222.4920 O   0  0  0  0  0  0  0  0  0  0  0  0
  140.8930   77.0360  220.3170 N   0  0  0  0  0  0  0  0  0  0  0  0
  142.2650   76.9310  219.9500 C   0  0  0  0  0  0  0  0  0  0  0  0
  142.6880   77.7300  218.7590 C   0  0  0  0  0  0  0  0  0  0  0  0
  141.8150   77.5660  217.5520 C   0  0  0  0  0  0  0  0  0  0  0  0
  140.5460   78.3510  217.5680 C   0  0  0  0  0  0  0  0  0  0  0  0
  139.4900   77.7740  218.4700 C   0  0  0  0  0  0  0  0  0  0  0  0
  139.8230   77.9210  219.9160 C   0  0  2  0  0  0  0  0  0  0  0  0
  140.1290   79.3630  220.2290 C   0  0  0  0  0  0  0  0  0  0  0  0
  140.9140   79.5630  221.4490 C   0  0  0  0  0  0  0  0  0  0  0  0
  142.1700   80.1440  221.4460 C   0  0  0  0  0  0  0  0  0  0  0  0
  142.9160   80.3340  222.5900 C   0  0  0  0  0  0  0  0  0  0  0  0
  142.4150   79.9370  223.8120 C   0  0  0  0  0  0  0  0  0  0  0  0
  141.1660   79.3540  223.8560 C   0  0  0  0  0  0  0  0  0  0  0  0
  140.4330   79.1700  222.6950 C   0  0  0  0  0  0  0  0  0  0  0  0
  139.8570   71.6290  222.8590 C   0  0  0  0  0  0  0  0  0  0  0  0
  139.3770   70.3400  222.7700 C   0  0  0  0  0  0  0  0  0  0  0  0
  139.4360   69.4240  223.7870 C   0  0  0  0  0  0  0  0  0  0  0  0
  140.0080   69.8120  224.9770 C   0  0  0  0  0  0  0  0  0  0  0  0
  140.0690   68.8990  226.0010 C   0  0  0  0  0  0  0  0  0  0  0  0
  140.6450   69.3040  227.1830 C   0  0  0  0  0  0  0  0  0  0  0  0
  140.7790   68.2210  228.5630 Cl  0  0  0  0  0  0  0  0  0  0  0  0
  141.1280   70.5840  227.2900 C   0  0  0  0  0  0  0  0  0  0  0  0
  141.0720   71.5120  226.2670 C   0  0  0  0  0  0  0  0  0  0  0  0
  140.4850   71.0920  225.0690 C   0  0  0  0  0  0  0  0  0  0  0  0
  140.4160   71.9820  224.0470 N   0  0  0  0  0  0  0  0  0  0  0  0
  139.6800   74.2570  223.0070 H   0  0  0  0  0  0  0  0  0  0  0  0
  139.8872   74.4872  219.9863 H   0  0  0  0  0  0  0  0  0  0  0  0
  138.5430   75.2881  220.8444 H   0  0  0  0  0  0  0  0  0  0  0  0
  142.8691   77.2606  220.8082 H   0  0  0  0  0  0  0  0  0  0  0  0
  142.4173   75.8782  219.6701 H   0  0  0  0  0  0  0  0  0  0  0  0
  142.6858   78.7931  219.0414 H   0  0  0  0  0  0  0  0  0  0  0  0
  143.6839   77.3595  218.4745 H   0  0  0  0  0  0  0  0  0  0  0  0
  142.3943   77.8755  216.6697 H   0  0  0  0  0  0  0  0  0  0  0  0
  141.5162   76.5075  217.5359 H   0  0  0  0  0  0  0  0  0  0  0  0
  140.7734   79.3720  217.9083 H   0  0  0  0  0  0  0  0  0  0  0  0
  140.1419   78.3299  216.5451 H   0  0  0  0  0  0  0  0  0  0  0  0
  138.5392   78.2911  218.2738 H   0  0  0  0  0  0  0  0  0  0  0  0
  139.4210   76.6977  218.2534 H   0  0  0  0  0  0  0  0  0  0  0  0
  138.9450   77.6211  220.5069 H   0  0  0  0  0  0  0  0  0  0  0  0
  140.6919   79.7866  219.3842 H   0  0  0  0  0  0  0  0  0  0  0  0
  139.1620   79.8612  220.3923 H   0  0  0  0  0  0  0  0  0  0  0  0
  142.5937   80.4700  220.4846 H   0  0  0  0  0  0  0  0  0  0  0  0
  143.9097   80.8017  222.5280 H   0  0  0  0  0  0  0  0  0  0  0  0
  142.9995   80.0823  224.7325 H   0  0  0  0  0  0  0  0  0  0  0  0
  140.7482   79.0323  224.8214 H   0  0  0  0  0  0  0  0  0  0  0  0
  139.4410   78.6992  222.7595 H   0  0  0  0  0  0  0  0  0  0  0  0
  138.9169   70.0266  221.8213 H   0  0  0  0  0  0  0  0  0  0  0  0
  139.0374   68.4071  223.6561 H   0  0  0  0  0  0  0  0  0  0  0  0
  139.6716   67.8804  225.8805 H   0  0  0  0  0  0  0  0  0  0  0  0
  141.5852   70.8886  228.2430 H   0  0  0  0  0  0  0  0  0  0  0  0
  141.4694   72.5304  226.3891 H   0  0  0  0  0  0  0  0  0  0  0  0
  1  2  2  0
  2  3  1  0
  3  4  1  0
  4  5  1  0
  5  6  2  0
  5  7  1  0
  7  8  1  0
  8  9  1  0
  9 10  1  0
 10 11  1  0
 11 12  1  0
 12 13  1  0
 13 14  1  0
 14 15  1  0
 15 16  2  0
 16 17  1  0
 17 18  2  0
 18 19  1  0
 19 20  2  0
  2 21  1  0
 21 22  2  0
 22 23  1  0
 23 24  2  0
 24 25  1  0
 25 26  2  0
 26 27  1  0
 26 28  1  0
 28 29  2  0
 29 30  1  0
 30 31  2  0
 13  7  1  0
 20 15  1  0
 31 21  1  0
 30 24  1  0
  3 32  1  0
  4 33  1  0
  4 34  1  0
  8 35  1  0
  8 36  1  0
  9 37  1  0
  9 38  1  0
 10 39  1  0
 10 40  1  0
 11 41  1  0
 11 42  1  0
 12 43  1  0
 12 44  1  0
 13 45  1  1
 14 46  1  0
 14 47  1  0
 16 48  1  0
 17 49  1  0
 18 50  1  0
 19 51  1  0
 20 52  1  0
 22 53  1  0
 23 54  1  0
 25 55  1  0
 28 56  1  0
 29 57  1  0
M  END
>  <smiles>  (26) 
O=C(NCC(=O)N1CCCCCC1Cc1ccccc1)c1ccc2cc(Cl)ccc2n1

>  <score_type>  (26) 
oracle

>  <origin>  (26) 
autodockgpu

>  <m_score__min__energy>  (26) 
-7.04

>  <m_primary>  (26) 
energy

>  <rmsd>  (26) 
2.2800441499529662

>  <m_score__min__rmsd>  (26) 
2.2800441499529662

>  <meeko>  (26) 
{"free_energy": -6.52, "intermolecular_energy": -10.1, "internal_energy": -2.55, "cluster_size": 28, "cluster_id": 1, "rank_in_cluster": 10}

>  <energy>  (26) 
-5.84

>  <cluster_rmsd>  (26) 
1.58

>  <cluster>  (26) 
1

$$$$

     RDKit          3D

 57 60  0  0  0  0  0  0  0  0999 V2000
  137.7860   71.5890  220.8200 O   0  0  0  0  0  0  0  0  0  0  0  0
  138.2270   72.1580  221.8650 C   0  0  0  0  0  0  0  0  0  0  0  0
  138.3430   73.5680  221.9790 N   0  0  0  0  0  0  0  0  0  0  0  0
  137.9720   74.4700  220.9150 C   0  0  0  0  0  0  0  0  0  0  0  0
  139.0090   74.3730  219.8520 C   0  0  0  0  0  0  0  0  0  0  0  0
  138.6020   74.4950  218.6620 O   0  0  0  0  0  0  0  0  0  0  0  0
  140.3970   74.1530  220.1600 N   0  0  0  0  0  0  0  0  0  0  0  0
  140.7850   72.7850  220.0800 C   0  0  0  0  0  0  0  0  0  0  0  0
  142.0260   72.4110  220.8240 C   0  0  0  0  0  0  0  0  0  0  0  0
  143.2810   73.0510  220.3110 C   0  0  0  0  0  0  0  0  0  0  0  0
  143.4410   74.4980  220.6370 C   0  0  0  0  0  0  0  0  0  0  0  0
  142.4770   75.3900  219.9010 C   0  0  0  0  0  0  0  0  0  0  0  0
  141.1060   75.3690  220.4880 C   0  0  2  0  0  0  0  0  0  0  0  0
  141.1810   75.6000  221.9750 C   0  0  0  0  0  0  0  0  0  0  0  0
  140.6150   76.8770  222.4170 C   0  0  0  0  0  0  0  0  0  0  0  0
  139.2610   77.1590  222.3560 C   0  0  0  0  0  0  0  0  0  0  0  0
  138.7210   78.3580  222.7680 C   0  0  0  0  0  0  0  0  0  0  0  0
  139.5420   79.3460  223.2700 C   0  0  0  0  0  0  0  0  0  0  0  0
  140.8980   79.1030  223.3480 C   0  0  0  0  0  0  0  0  0  0  0  0
  141.4210   77.8910  222.9270 C   0  0  0  0  0  0  0  0  0  0  0  0
  138.6250   71.3210  222.9900 C   0  0  0  0  0  0  0  0  0  0  0  0
  138.1540   70.0330  223.1300 C   0  0  0  0  0  0  0  0  0  0  0  0
  138.4900   69.1970  224.1620 C   0  0  0  0  0  0  0  0  0  0  0  0
  139.3540   69.6710  225.1240 C   0  0  0  0  0  0  0  0  0  0  0  0
  139.6950   68.8380  226.1620 C   0  0  0  0  0  0  0  0  0  0  0  0
  140.5600   69.3280  227.1140 C   0  0  0  0  0  0  0  0  0  0  0  0
  141.0680   68.3530  228.4870 Cl  0  0  0  0  0  0  0  0  0  0  0  0
  141.0390   70.6070  226.9900 C   0  0  0  0  0  0  0  0  0  0  0  0
  140.7030   71.4550  225.9510 C   0  0  0  0  0  0  0  0  0  0  0  0
  139.8240   70.9500  224.9880 C   0  0  0  0  0  0  0  0  0  0  0  0
  139.4760   71.7590  223.9560 N   0  0  0  0  0  0  0  0  0  0  0  0
  138.7210   73.9550  222.8880 H   0  0  0  0  0  0  0  0  0  0  0  0
  136.9910   74.1842  220.5076 H   0  0  0  0  0  0  0  0  0  0  0  0
  137.9046   75.5011  221.2922 H   0  0  0  0  0  0  0  0  0  0  0  0
  139.9586   72.1771  220.4770 H   0  0  0  0  0  0  0  0  0  0  0  0
  141.0092   72.6021  219.0187 H   0  0  0  0  0  0  0  0  0  0  0  0
  141.8966   72.7053  221.8760 H   0  0  0  0  0  0  0  0  0  0  0  0
  142.1533   71.3266  220.6905 H   0  0  0  0  0  0  0  0  0  0  0  0
  144.1375   72.5099  220.7396 H   0  0  0  0  0  0  0  0  0  0  0  0
  143.2247   72.9920  219.2140 H   0  0  0  0  0  0  0  0  0  0  0  0
  143.2828   74.6310  221.7174 H   0  0  0  0  0  0  0  0  0  0  0  0
  144.4545   74.7897  220.3245 H   0  0  0  0  0  0  0  0  0  0  0  0
  142.8576   76.4215  219.9340 H   0  0  0  0  0  0  0  0  0  0  0  0
  142.4012   75.0156  218.8695 H   0  0  0  0  0  0  0  0  0  0  0  0
  140.5239   76.1890  220.0422 H   0  0  0  0  0  0  0  0  0  0  0  0
  140.6340   74.7886  222.4775 H   0  0  0  0  0  0  0  0  0  0  0  0
  142.2493   75.6221  222.2364 H   0  0  0  0  0  0  0  0  0  0  0  0
  138.5833   76.3886  221.9594 H   0  0  0  0  0  0  0  0  0  0  0  0
  137.6364   78.5269  222.6966 H   0  0  0  0  0  0  0  0  0  0  0  0
  139.1243   80.3081  223.6014 H   0  0  0  0  0  0  0  0  0  0  0  0
  141.5691   79.8776  223.7476 H   0  0  0  0  0  0  0  0  0  0  0  0
  142.5061   77.7250  222.9979 H   0  0  0  0  0  0  0  0  0  0  0  0
  137.4635   69.6517  222.3633 H   0  0  0  0  0  0  0  0  0  0  0  0
  138.0817   68.1772  224.2205 H   0  0  0  0  0  0  0  0  0  0  0  0
  139.2916   67.8169  226.2298 H   0  0  0  0  0  0  0  0  0  0  0  0
  141.7297   70.9793  227.7609 H   0  0  0  0  0  0  0  0  0  0  0  0
  141.1070   72.4760  225.8852 H   0  0  0  0  0  0  0  0  0  0  0  0
  1  2  2  0
  2  3  1  0
  3  4  1  0
  4  5  1  0
  5  6  2  0
  5  7  1  0
  7  8  1  0
  8  9  1  0
  9 10  1  0
 10 11  1  0
 11 12  1  0
 12 13  1  0
 13 14  1  0
 14 15  1  0
 15 16  2  0
 16 17  1  0
 17 18  2  0
 18 19  1  0
 19 20  2  0
  2 21  1  0
 21 22  2  0
 22 23  1  0
 23 24  2  0
 24 25  1  0
 25 26  2  0
 26 27  1  0
 26 28  1  0
 28 29  2  0
 29 30  1  0
 30 31  2  0
 13  7  1  0
 20 15  1  0
 31 21  1  0
 30 24  1  0
  3 32  1  0
  4 33  1  0
  4 34  1  0
  8 35  1  0
  8 36  1  0
  9 37  1  0
  9 38  1  0
 10 39  1  0
 10 40  1  0
 11 41  1  0
 11 42  1  0
 12 43  1  0
 12 44  1  0
 13 45  1  6
 14 46  1  0
 14 47  1  0
 16 48  1  0
 17 49  1  0
 18 50  1  0
 19 51  1  0
 20 52  1  0
 22 53  1  0
 23 54  1  0
 25 55  1  0
 28 56  1  0
 29 57  1  0
M  END
>  <smiles>  (27) 
O=C(NCC(=O)N1CCCCCC1Cc1ccccc1)c1ccc2cc(Cl)ccc2n1

>  <score_type>  (27) 
oracle

>  <origin>  (27) 
autodockgpu

>  <m_score__min__energy>  (27) 
-7.04

>  <m_primary>  (27) 
energy

>  <rmsd>  (27) 
2.510633015976745

>  <m_score__min__rmsd>  (27) 
2.510633015976745

>  <meeko>  (27) 
{"free_energy": -5.86, "intermolecular_energy": -9.44, "internal_energy": -2.44, "cluster_size": 5, "cluster_id": 4, "rank_in_cluster": 4}

>  <energy>  (27) 
-5.8

>  <cluster_rmsd>  (27) 
1.95

>  <cluster>  (27) 
1

$$$$

     RDKit          3D

 57 60  0  0  0  0  0  0  0  0999 V2000
  137.6730   74.5540  220.1080 O   0  0  0  0  0  0  0  0  0  0  0  0
  137.8530   74.7950  221.3410 C   0  0  0  0  0  0  0  0  0  0  0  0
  137.1900   74.0740  222.3680 N   0  0  0  0  0  0  0  0  0  0  0  0
  136.2550   73.0090  222.0940 C   0  0  0  0  0  0  0  0  0  0  0  0
  136.9980   71.7210  222.1600 C   0  0  0  0  0  0  0  0  0  0  0  0
  136.3240   70.7030  222.4830 O   0  0  0  0  0  0  0  0  0  0  0  0
  138.4060   71.6390  221.8740 N   0  0  0  0  0  0  0  0  0  0  0  0
  138.6920   71.3810  220.5040 C   0  0  0  0  0  0  0  0  0  0  0  0
  139.5860   72.3670  219.8230 C   0  0  0  0  0  0  0  0  0  0  0  0
  141.0240   72.3010  220.2410 C   0  0  0  0  0  0  0  0  0  0  0  0
  141.2710   71.7320  221.5980 C   0  0  0  0  0  0  0  0  0  0  0  0
  140.5430   72.4640  222.6980 C   0  0  0  0  0  0  0  0  0  0  0  0
  139.2350   71.8350  223.0420 C   0  0  2  0  0  0  0  0  0  0  0  0
  139.4660   70.5520  223.7980 C   0  0  0  0  0  0  0  0  0  0  0  0
  139.8470   70.7370  225.2010 C   0  0  0  0  0  0  0  0  0  0  0  0
  139.4510   69.8720  226.2060 C   0  0  0  0  0  0  0  0  0  0  0  0
  139.8040   70.0410  227.5280 C   0  0  0  0  0  0  0  0  0  0  0  0
  140.5890   71.1120  227.9000 C   0  0  0  0  0  0  0  0  0  0  0  0
  141.0040   71.9960  226.9260 C   0  0  0  0  0  0  0  0  0  0  0  0
  140.6370   71.8110  225.6030 C   0  0  0  0  0  0  0  0  0  0  0  0
  138.7820   75.8570  221.7070 C   0  0  0  0  0  0  0  0  0  0  0  0
  140.1230   75.7780  221.3960 C   0  0  0  0  0  0  0  0  0  0  0  0
  141.0450   76.7410  221.7110 C   0  0  0  0  0  0  0  0  0  0  0  0
  140.6090   77.8620  222.3820 C   0  0  0  0  0  0  0  0  0  0  0  0
  141.5280   78.8300  222.7010 C   0  0  0  0  0  0  0  0  0  0  0  0
  141.0740   79.9430  223.3720 C   0  0  0  0  0  0  0  0  0  0  0  0
  142.1590   81.2490  223.8320 Cl  0  0  0  0  0  0  0  0  0  0  0  0
  139.7430   80.0390  223.6890 C   0  0  0  0  0  0  0  0  0  0  0  0
  138.8080   79.0700  223.3730 C   0  0  0  0  0  0  0  0  0  0  0  0
  139.2780   77.9430  222.6930 C   0  0  0  0  0  0  0  0  0  0  0  0
  138.3830   76.9750  222.3700 N   0  0  0  0  0  0  0  0  0  0  0  0
  137.4010   74.3440  223.3690 H   0  0  0  0  0  0  0  0  0  0  0  0
  135.4505   73.0155  222.8442 H   0  0  0  0  0  0  0  0  0  0  0  0
  135.8039   73.1411  221.0995 H   0  0  0  0  0  0  0  0  0  0  0  0
  139.1712   70.3929  220.4408 H   0  0  0  0  0  0  0  0  0  0  0  0
  137.7259   71.4477  219.9822 H   0  0  0  0  0  0  0  0  0  0  0  0
  139.5353   72.1842  218.7395 H   0  0  0  0  0  0  0  0  0  0  0  0
  139.2241   73.3651  220.1107 H   0  0  0  0  0  0  0  0  0  0  0  0
  141.5618   71.6798  219.5096 H   0  0  0  0  0  0  0  0  0  0  0  0
  141.3760   73.3424  220.2806 H   0  0  0  0  0  0  0  0  0  0  0  0
  140.9418   70.6824  221.6009 H   0  0  0  0  0  0  0  0  0  0  0  0
  142.3477   71.8316  221.8000 H   0  0  0  0  0  0  0  0  0  0  0  0
  141.1776   72.4697  223.5965 H   0  0  0  0  0  0  0  0  0  0  0  0
  140.3367   73.4829  222.3384 H   0  0  0  0  0  0  0  0  0  0  0  0
  138.6789   72.5231  223.6957 H   0  0  0  0  0  0  0  0  0  0  0  0
  138.5374   69.9631  223.7683 H   0  0  0  0  0  0  0  0  0  0  0  0
  140.3103   70.0457  223.3072 H   0  0  0  0  0  0  0  0  0  0  0  0
  138.8248   69.0085  225.9373 H   0  0  0  0  0  0  0  0  0  0  0  0
  139.4596   69.3218  228.2857 H   0  0  0  0  0  0  0  0  0  0  0  0
  140.8781   71.2582  228.9512 H   0  0  0  0  0  0  0  0  0  0  0  0
  141.6321   72.8558  227.2022 H   0  0  0  0  0  0  0  0  0  0  0  0
  140.9797   72.5337  224.8479 H   0  0  0  0  0  0  0  0  0  0  0  0
  140.4752   74.8841  220.8604 H   0  0  0  0  0  0  0  0  0  0  0  0
  142.1034   76.6223  221.4359 H   0  0  0  0  0  0  0  0  0  0  0  0
  142.5886   78.7206  222.4304 H   0  0  0  0  0  0  0  0  0  0  0  0
  139.4000   80.9366  224.2244 H   0  0  0  0  0  0  0  0  0  0  0  0
  137.7475   79.1808  223.6434 H   0  0  0  0  0  0  0  0  0  0  0  0
  1  2  2  0
  2  3  1  0
  3  4  1  0
  4  5  1  0
  5  6  2  0
  5  7  1  0
  7  8  1  0
  8  9  1  0
  9 10  1  0
 10 11  1  0
 11 12  1  0
 12 13  1  0
 13 14  1  0
 14 15  1  0
 15 16  2  0
 16 17  1  0
 17 18  2  0
 18 19  1  0
 19 20  2  0
  2 21  1  0
 21 22  2  0
 22 23  1  0
 23 24  2  0
 24 25  1  0
 25 26  2  0
 26 27  1  0
 26 28  1  0
 28 29  2  0
 29 30  1  0
 30 31  2  0
 13  7  1  0
 20 15  1  0
 31 21  1  0
 30 24  1  0
  3 32  1  0
  4 33  1  0
  4 34  1  0
  8 35  1  0
  8 36  1  0
  9 37  1  0
  9 38  1  0
 10 39  1  0
 10 40  1  0
 11 41  1  0
 11 42  1  0
 12 43  1  0
 12 44  1  0
 13 45  1  1
 14 46  1  0
 14 47  1  0
 16 48  1  0
 17 49  1  0
 18 50  1  0
 19 51  1  0
 20 52  1  0
 22 53  1  0
 23 54  1  0
 25 55  1  0
 28 56  1  0
 29 57  1  0
M  END
>  <smiles>  (28) 
O=C(NCC(=O)N1CCCCCC1Cc1ccccc1)c1ccc2cc(Cl)ccc2n1

>  <score_type>  (28) 
oracle

>  <origin>  (28) 
autodockgpu

>  <m_score__min__energy>  (28) 
-7.04

>  <m_primary>  (28) 
energy

>  <rmsd>  (28) 
7.099751513192684

>  <m_score__min__rmsd>  (28) 
7.099751513192684

>  <meeko>  (28) 
{"free_energy": -5.87, "intermolecular_energy": -9.45, "internal_energy": -2.24, "cluster_size": 1, "cluster_id": 7, "rank_in_cluster": 1}

>  <energy>  (28) 
-5.62

>  <cluster_rmsd>  (28) 
1.84

>  <cluster>  (28) 
1

$$$$

     RDKit          3D

 57 60  0  0  0  0  0  0  0  0999 V2000
  137.7700   71.1310  221.3770 O   0  0  0  0  0  0  0  0  0  0  0  0
  138.4520   71.6900  222.2900 C   0  0  0  0  0  0  0  0  0  0  0  0
  138.7970   73.0660  222.2550 N   0  0  0  0  0  0  0  0  0  0  0  0
  138.4020   73.9420  221.1780 C   0  0  0  0  0  0  0  0  0  0  0  0
  138.6000   75.3440  221.6350 C   0  0  0  0  0  0  0  0  0  0  0  0
  139.5660   75.5440  222.4230 O   0  0  0  0  0  0  0  0  0  0  0  0
  137.7380   76.4130  221.2050 N   0  0  0  0  0  0  0  0  0  0  0  0
  138.1780   77.0520  220.0110 C   0  0  0  0  0  0  0  0  0  0  0  0
  138.7740   78.4130  220.1760 C   0  0  0  0  0  0  0  0  0  0  0  0
  137.8900   79.4020  220.8750 C   0  0  0  0  0  0  0  0  0  0  0  0
  137.3920   78.9790  222.2160 C   0  0  0  0  0  0  0  0  0  0  0  0
  136.2090   78.0510  222.1570 C   0  0  0  0  0  0  0  0  0  0  0  0
  136.6040   76.6150  222.0790 C   0  0  2  0  0  0  0  0  0  0  0  0
  136.8490   76.0740  223.4640 C   0  0  0  0  0  0  0  0  0  0  0  0
  135.8500   75.1040  223.9190 C   0  0  0  0  0  0  0  0  0  0  0  0
  135.0440   75.3200  225.0230 C   0  0  0  0  0  0  0  0  0  0  0  0
  134.1030   74.4120  225.4590 C   0  0  0  0  0  0  0  0  0  0  0  0
  133.9320   73.2210  224.7850 C   0  0  0  0  0  0  0  0  0  0  0  0
  134.7170   72.9690  223.6790 C   0  0  0  0  0  0  0  0  0  0  0  0
  135.6580   73.8940  223.2570 C   0  0  0  0  0  0  0  0  0  0  0  0
  138.8930   70.8760  223.4170 C   0  0  0  0  0  0  0  0  0  0  0  0
  138.6530   69.5200  223.4620 C   0  0  0  0  0  0  0  0  0  0  0  0
  139.0410   68.7020  224.4900 C   0  0  0  0  0  0  0  0  0  0  0  0
  139.7140   69.2680  225.5490 C   0  0  0  0  0  0  0  0  0  0  0  0
  140.1060   68.4550  226.5840 C   0  0  0  0  0  0  0  0  0  0  0  0
  140.7780   69.0370  227.6340 C   0  0  0  0  0  0  0  0  0  0  0  0
  141.3290   68.0950  229.0130 Cl  0  0  0  0  0  0  0  0  0  0  0  0
  141.0260   70.3860  227.6060 C   0  0  0  0  0  0  0  0  0  0  0  0
  140.6360   71.2160  226.5710 C   0  0  0  0  0  0  0  0  0  0  0  0
  139.9540   70.6160  225.5080 C   0  0  0  0  0  0  0  0  0  0  0  0
  139.5590   71.4060  224.4770 N   0  0  0  0  0  0  0  0  0  0  0  0
  139.3690   73.4460  223.0600 H   0  0  0  0  0  0  0  0  0  0  0  0
  139.0220   73.7468  220.2906 H   0  0  0  0  0  0  0  0  0  0  0  0
  137.3489   73.7706  220.9104 H   0  0  0  0  0  0  0  0  0  0  0  0
  138.9369   76.4068  219.5443 H   0  0  0  0  0  0  0  0  0  0  0  0
  137.2733   77.1969  219.4022 H   0  0  0  0  0  0  0  0  0  0  0  0
  139.7026   78.3126  220.7570 H   0  0  0  0  0  0  0  0  0  0  0  0
  138.9393   78.8055  219.1618 H   0  0  0  0  0  0  0  0  0  0  0  0
  138.4590   80.3347  221.0030 H   0  0  0  0  0  0  0  0  0  0  0  0
  136.9977   79.5120  220.2412 H   0  0  0  0  0  0  0  0  0  0  0  0
  138.2095   78.4663  222.7441 H   0  0  0  0  0  0  0  0  0  0  0  0
  137.0608   79.8891  222.7376 H   0  0  0  0  0  0  0  0  0  0  0  0
  135.6005   78.1995  223.0612 H   0  0  0  0  0  0  0  0  0  0  0  0
  135.6462   78.2897  221.2425 H   0  0  0  0  0  0  0  0  0  0  0  0
  135.7731   76.0495  221.6320 H   0  0  0  0  0  0  0  0  0  0  0  0
  137.8338   75.5839  223.4730 H   0  0  0  0  0  0  0  0  0  0  0  0
  136.7910   76.9310  224.1512 H   0  0  0  0  0  0  0  0  0  0  0  0
  135.1599   76.2618  225.5795 H   0  0  0  0  0  0  0  0  0  0  0  0
  133.4891   74.6371  226.3436 H   0  0  0  0  0  0  0  0  0  0  0  0
  133.1852   72.4872  225.1224 H   0  0  0  0  0  0  0  0  0  0  0  0
  134.5947   72.0253  223.1273 H   0  0  0  0  0  0  0  0  0  0  0  0
  136.2716   73.6660  222.3730 H   0  0  0  0  0  0  0  0  0  0  0  0
  138.1148   69.0647  222.6176 H   0  0  0  0  0  0  0  0  0  0  0  0
  138.8212   67.6244  224.4698 H   0  0  0  0  0  0  0  0  0  0  0  0
  139.8903   67.3764  226.5739 H   0  0  0  0  0  0  0  0  0  0  0  0
  141.5653   70.8324  228.4544 H   0  0  0  0  0  0  0  0  0  0  0  0
  140.8516   72.2946  226.5833 H   0  0  0  0  0  0  0  0  0  0  0  0
  1  2  2  0
  2  3  1  0
  3  4  1  0
  4  5  1  0
  5  6  2  0
  5  7  1  0
  7  8  1  0
  8  9  1  0
  9 10  1  0
 10 11  1  0
 11 12  1  0
 12 13  1  0
 13 14  1  0
 14 15  1  0
 15 16  2  0
 16 17  1  0
 17 18  2  0
 18 19  1  0
 19 20  2  0
  2 21  1  0
 21 22  2  0
 22 23  1  0
 23 24  2  0
 24 25  1  0
 25 26  2  0
 26 27  1  0
 26 28  1  0
 28 29  2  0
 29 30  1  0
 30 31  2  0
 13  7  1  0
 20 15  1  0
 31 21  1  0
 30 24  1  0
  3 32  1  0
  4 33  1  0
  4 34  1  0
  8 35  1  0
  8 36  1  0
  9 37  1  0
  9 38  1  0
 10 39  1  0
 10 40  1  0
 11 41  1  0
 11 42  1  0
 12 43  1  0
 12 44  1  0
 13 45  1  6
 14 46  1  0
 14 47  1  0
 16 48  1  0
 17 49  1  0
 18 50  1  0
 19 51  1  0
 20 52  1  0
 22 53  1  0
 23 54  1  0
 25 55  1  0
 28 56  1  0
 29 57  1  0
M  END
>  <smiles>  (29) 
O=C(NCC(=O)N1CCCCCC1Cc1ccccc1)c1ccc2cc(Cl)ccc2n1

>  <score_type>  (29) 
oracle

>  <origin>  (29) 
autodockgpu

>  <m_score__min__energy>  (29) 
-7.04

>  <m_primary>  (29) 
energy

>  <rmsd>  (29) 
3.043342335845941

>  <m_score__min__rmsd>  (29) 
3.043342335845941

>  <meeko>  (29) 
{"free_energy": -4.9, "intermolecular_energy": -8.48, "internal_energy": -2.88, "cluster_size": 1, "cluster_id": 11, "rank_in_cluster": 1}

>  <energy>  (29) 
-6.55

>  <cluster_rmsd>  (29) 
0.0

>  <cluster>  (29) 
2

$$$$

     RDKit          3D

 57 60  0  0  0  0  0  0  0  0999 V2000
  142.4000   73.3400  220.1900 O   0  0  0  0  0  0  0  0  0  0  0  0
  141.6450   73.9400  221.0140 C   0  0  0  0  0  0  0  0  0  0  0  0
  140.7990   73.2490  221.9200 N   0  0  0  0  0  0  0  0  0  0  0  0
  140.7260   71.8090  221.9770 C   0  0  0  0  0  0  0  0  0  0  0  0
  139.3280   71.4350  222.3200 C   0  0  0  0  0  0  0  0  0  0  0  0
  138.5820   72.3720  222.7220 O   0  0  0  0  0  0  0  0  0  0  0  0
  138.8510   70.0820  222.2040 N   0  0  0  0  0  0  0  0  0  0  0  0
  138.2520   69.7980  220.9440 C   0  0  0  0  0  0  0  0  0  0  0  0
  138.7770   68.5980  220.2230 C   0  0  0  0  0  0  0  0  0  0  0  0
  138.4630   67.2870  220.8800 C   0  0  0  0  0  0  0  0  0  0  0  0
  139.0670   67.0870  222.2290 C   0  0  0  0  0  0  0  0  0  0  0  0
  138.4500   67.9470  223.3000 C   0  0  0  0  0  0  0  0  0  0  0  0
  139.0790   69.2950  223.3950 C   0  0  2  0  0  0  0  0  0  0  0  0
  138.6050   69.9970  224.6410 C   0  0  0  0  0  0  0  0  0  0  0  0
  139.4590   69.7900  225.8130 C   0  0  0  0  0  0  0  0  0  0  0  0
  139.5190   68.5850  226.4920 C   0  0  0  0  0  0  0  0  0  0  0  0
  140.3190   68.3820  227.5970 C   0  0  0  0  0  0  0  0  0  0  0  0
  141.1080   69.4080  228.0740 C   0  0  0  0  0  0  0  0  0  0  0  0
  141.0750   70.6230  227.4230 C   0  0  0  0  0  0  0  0  0  0  0  0
  140.2640   70.8080  226.3160 C   0  0  0  0  0  0  0  0  0  0  0  0
  141.6560   75.3980  221.0250 C   0  0  0  0  0  0  0  0  0  0  0  0
  142.3060   76.1190  220.0460 C   0  0  0  0  0  0  0  0  0  0  0  0
  142.3520   77.4870  220.0000 C   0  0  0  0  0  0  0  0  0  0  0  0
  141.7090   78.1910  220.9930 C   0  0  0  0  0  0  0  0  0  0  0  0
  141.7520   79.5630  220.9530 C   0  0  0  0  0  0  0  0  0  0  0  0
  141.1040   80.2510  221.9530 C   0  0  0  0  0  0  0  0  0  0  0  0
  141.0900   82.0090  222.0050 Cl  0  0  0  0  0  0  0  0  0  0  0  0
  140.4520   79.5490  222.9350 C   0  0  0  0  0  0  0  0  0  0  0  0
  140.4020   78.1690  222.9870 C   0  0  0  0  0  0  0  0  0  0  0  0
  141.0630   77.4780  221.9670 C   0  0  0  0  0  0  0  0  0  0  0  0
  141.0310   76.1210  221.9910 N   0  0  0  0  0  0  0  0  0  0  0  0
  140.2030   73.8320  222.5720 H   0  0  0  0  0  0  0  0  0  0  0  0
  140.9981   71.3821  221.0004 H   0  0  0  0  0  0  0  0  0  0  0  0
  141.4232   71.4198  222.7336 H   0  0  0  0  0  0  0  0  0  0  0  0
  137.1753   69.6462  221.1101 H   0  0  0  0  0  0  0  0  0  0  0  0
  138.4922   70.6579  220.3015 H   0  0  0  0  0  0  0  0  0  0  0  0
  138.3426   68.5879  219.2124 H   0  0  0  0  0  0  0  0  0  0  0  0
  139.8731   68.6907  220.2211 H   0  0  0  0  0  0  0  0  0  0  0  0
  137.3704   67.2119  220.9828 H   0  0  0  0  0  0  0  0  0  0  0  0
  138.9004   66.5116  220.2339 H   0  0  0  0  0  0  0  0  0  0  0  0
  138.9397   66.0322  222.5139 H   0  0  0  0  0  0  0  0  0  0  0  0
  140.1258   67.3757  222.1541 H   0  0  0  0  0  0  0  0  0  0  0  0
  137.3806   68.0736  223.0758 H   0  0  0  0  0  0  0  0  0  0  0  0
  138.6089   67.4398  224.2631 H   0  0  0  0  0  0  0  0  0  0  0  0
  140.1689   69.1658  223.4689 H   0  0  0  0  0  0  0  0  0  0  0  0
  138.5619   71.0763  224.4328 H   0  0  0  0  0  0  0  0  0  0  0  0
  137.6224   69.5690  224.8885 H   0  0  0  0  0  0  0  0  0  0  0  0
  138.8993   67.7500  226.1332 H   0  0  0  0  0  0  0  0  0  0  0  0
  140.3279   67.4025  228.0976 H   0  0  0  0  0  0  0  0  0  0  0  0
  141.7499   69.2600  228.9550 H   0  0  0  0  0  0  0  0  0  0  0  0
  141.6987   71.4530  227.7864 H   0  0  0  0  0  0  0  0  0  0  0  0
  140.2557   71.7893  225.8190 H   0  0  0  0  0  0  0  0  0  0  0  0
  142.8207   75.5596  219.2509 H   0  0  0  0  0  0  0  0  0  0  0  0
  142.8874   78.0083  219.1928 H   0  0  0  0  0  0  0  0  0  0  0  0
  142.2854   80.0930  220.1502 H   0  0  0  0  0  0  0  0  0  0  0  0
  139.9400   80.1169  223.7258 H   0  0  0  0  0  0  0  0  0  0  0  0
  139.8687   77.6405  223.7909 H   0  0  0  0  0  0  0  0  0  0  0  0
  1  2  2  0
  2  3  1  0
  3  4  1  0
  4  5  1  0
  5  6  2  0
  5  7  1  0
  7  8  1  0
  8  9  1  0
  9 10  1  0
 10 11  1  0
 11 12  1  0
 12 13  1  0
 13 14  1  0
 14 15  1  0
 15 16  2  0
 16 17  1  0
 17 18  2  0
 18 19  1  0
 19 20  2  0
  2 21  1  0
 21 22  2  0
 22 23  1  0
 23 24  2  0
 24 25  1  0
 25 26  2  0
 26 27  1  0
 26 28  1  0
 28 29  2  0
 29 30  1  0
 30 31  2  0
 13  7  1  0
 20 15  1  0
 31 21  1  0
 30 24  1  0
  3 32  1  0
  4 33  1  0
  4 34  1  0
  8 35  1  0
  8 36  1  0
  9 37  1  0
  9 38  1  0
 10 39  1  0
 10 40  1  0
 11 41  1  0
 11 42  1  0
 12 43  1  0
 12 44  1  0
 13 45  1  1
 14 46  1  0
 14 47  1  0
 16 48  1  0
 17 49  1  0
 18 50  1  0
 19 51  1  0
 20 52  1  0
 22 53  1  0
 23 54  1  0
 25 55  1  0
 28 56  1  0
 29 57  1  0
M  END
>  <smiles>  (30) 
O=C(NCC(=O)N1CCCCCC1Cc1ccccc1)c1ccc2cc(Cl)ccc2n1

>  <score_type>  (30) 
oracle

>  <origin>  (30) 
autodockgpu

>  <m_score__min__energy>  (30) 
-7.04

>  <m_primary>  (30) 
energy

>  <rmsd>  (30) 
8.147384035725485

>  <m_score__min__rmsd>  (30) 
8.147384035725485

>  <meeko>  (30) 
{"free_energy": -5.68, "intermolecular_energy": -9.26, "internal_energy": -2.37, "cluster_size": 2, "cluster_id": 6, "rank_in_cluster": 2}

>  <energy>  (30) 
-5.99

>  <cluster_rmsd>  (30) 
1.75

>  <cluster>  (30) 
2

$$$$

     RDKit          3D

 57 60  0  0  0  0  0  0  0  0999 V2000
  138.5490   71.3440  220.7540 O   0  0  0  0  0  0  0  0  0  0  0  0
  138.6840   71.8980  221.8880 C   0  0  0  0  0  0  0  0  0  0  0  0
  138.4900   73.2900  222.0880 N   0  0  0  0  0  0  0  0  0  0  0  0
  138.1260   74.1880  221.0190 C   0  0  0  0  0  0  0  0  0  0  0  0
  139.2590   74.2370  220.0560 C   0  0  0  0  0  0  0  0  0  0  0  0
  139.1170   73.5730  218.9910 O   0  0  0  0  0  0  0  0  0  0  0  0
  140.4530   74.9950  220.3230 N   0  0  0  0  0  0  0  0  0  0  0  0
  141.6530   74.2840  220.0370 C   0  0  0  0  0  0  0  0  0  0  0  0
  142.9290   75.0210  220.2890 C   0  0  0  0  0  0  0  0  0  0  0  0
  143.0520   76.3270  219.5630 C   0  0  0  0  0  0  0  0  0  0  0  0
  142.3050   77.4680  220.1670 C   0  0  0  0  0  0  0  0  0  0  0  0
  140.8070   77.3790  219.9830 C   0  0  0  0  0  0  0  0  0  0  0  0
  140.1820   76.3220  220.8280 C   0  0  2  0  0  0  0  0  0  0  0  0
  140.6180   76.4850  222.2620 C   0  0  0  0  0  0  0  0  0  0  0  0
  140.6480   77.8730  222.7300 C   0  0  0  0  0  0  0  0  0  0  0  0
  139.5300   78.6890  222.7260 C   0  0  0  0  0  0  0  0  0  0  0  0
  139.5500   79.9970  223.1630 C   0  0  0  0  0  0  0  0  0  0  0  0
  140.7230   80.5480  223.6340 C   0  0  0  0  0  0  0  0  0  0  0  0
  141.8590   79.7650  223.6540 C   0  0  0  0  0  0  0  0  0  0  0  0
  141.8190   78.4540  223.2090 C   0  0  0  0  0  0  0  0  0  0  0  0
  139.0510   71.0630  223.0240 C   0  0  0  0  0  0  0  0  0  0  0  0
  138.7290   69.7230  223.0660 C   0  0  0  0  0  0  0  0  0  0  0  0
  139.0460   68.8860  224.1030 C   0  0  0  0  0  0  0  0  0  0  0  0
  139.7290   69.4130  225.1760 C   0  0  0  0  0  0  0  0  0  0  0  0
  140.0490   68.5800  226.2190 C   0  0  0  0  0  0  0  0  0  0  0  0
  140.7320   69.1230  227.2830 C   0  0  0  0  0  0  0  0  0  0  0  0
  141.1960   68.1530  228.6750 Cl  0  0  0  0  0  0  0  0  0  0  0  0
  141.0600   70.4550  227.2590 C   0  0  0  0  0  0  0  0  0  0  0  0
  140.7430   71.3040  226.2150 C   0  0  0  0  0  0  0  0  0  0  0  0
  140.0500   70.7440  225.1380 C   0  0  0  0  0  0  0  0  0  0  0  0
  139.7250   71.5530  224.0980 N   0  0  0  0  0  0  0  0  0  0  0  0
  138.6240   73.6650  223.0680 H   0  0  0  0  0  0  0  0  0  0  0  0
  137.2214   73.8194  220.5131 H   0  0  0  0  0  0  0  0  0  0  0  0
  137.9180   75.1922  221.4168 H   0  0  0  0  0  0  0  0  0  0  0  0
  141.6614   73.3754  220.6570 H   0  0  0  0  0  0  0  0  0  0  0  0
  141.6317   74.0910  218.9543 H   0  0  0  0  0  0  0  0  0  0  0  0
  143.0019   75.2207  221.3683 H   0  0  0  0  0  0  0  0  0  0  0  0
  143.7385   74.3786  219.9121 H   0  0  0  0  0  0  0  0  0  0  0  0
  144.1176   76.5982  219.5307 H   0  0  0  0  0  0  0  0  0  0  0  0
  142.6066   76.1649  218.5704 H   0  0  0  0  0  0  0  0  0  0  0  0
  142.5216   77.4931  221.2452 H   0  0  0  0  0  0  0  0  0  0  0  0
  142.6387   78.3801  219.6506 H   0  0  0  0  0  0  0  0  0  0  0  0
  140.3622   78.3495  220.2483 H   0  0  0  0  0  0  0  0  0  0  0  0
  140.6179   77.1167  218.9316 H   0  0  0  0  0  0  0  0  0  0  0  0
  139.0897   76.4449  220.7855 H   0  0  0  0  0  0  0  0  0  0  0  0
  139.9211   75.9216  222.8999 H   0  0  0  0  0  0  0  0  0  0  0  0
  141.6506   76.1107  222.3213 H   0  0  0  0  0  0  0  0  0  0  0  0
  138.5803   78.2746  222.3567 H   0  0  0  0  0  0  0  0  0  0  0  0
  138.6307   80.6004  223.1358 H   0  0  0  0  0  0  0  0  0  0  0  0
  140.7525   81.5896  223.9863 H   0  0  0  0  0  0  0  0  0  0  0  0
  142.8046   80.1857  224.0266 H   0  0  0  0  0  0  0  0  0  0  0  0
  142.7404   77.8537  223.2348 H   0  0  0  0  0  0  0  0  0  0  0  0
  138.1820   69.2985  222.2112 H   0  0  0  0  0  0  0  0  0  0  0  0
  138.7630   67.8233  224.0791 H   0  0  0  0  0  0  0  0  0  0  0  0
  139.7694   67.5162  226.2048 H   0  0  0  0  0  0  0  0  0  0  0  0
  141.6059   70.8708  228.1187 H   0  0  0  0  0  0  0  0  0  0  0  0
  141.0224   72.3678  226.2311 H   0  0  0  0  0  0  0  0  0  0  0  0
  1  2  2  0
  2  3  1  0
  3  4  1  0
  4  5  1  0
  5  6  2  0
  5  7  1  0
  7  8  1  0
  8  9  1  0
  9 10  1  0
 10 11  1  0
 11 12  1  0
 12 13  1  0
 13 14  1  0
 14 15  1  0
 15 16  2  0
 16 17  1  0
 17 18  2  0
 18 19  1  0
 19 20  2  0
  2 21  1  0
 21 22  2  0
 22 23  1  0
 23 24  2  0
 24 25  1  0
 25 26  2  0
 26 27  1  0
 26 28  1  0
 28 29  2  0
 29 30  1  0
 30 31  2  0
 13  7  1  0
 20 15  1  0
 31 21  1  0
 30 24  1  0
  3 32  1  0
  4 33  1  0
  4 34  1  0
  8 35  1  0
  8 36  1  0
  9 37  1  0
  9 38  1  0
 10 39  1  0
 10 40  1  0
 11 41  1  0
 11 42  1  0
 12 43  1  0
 12 44  1  0
 13 45  1  1
 14 46  1  0
 14 47  1  0
 16 48  1  0
 17 49  1  0
 18 50  1  0
 19 51  1  0
 20 52  1  0
 22 53  1  0
 23 54  1  0
 25 55  1  0
 28 56  1  0
 29 57  1  0
M  END
>  <smiles>  (31) 
O=C(NCC(=O)N1CCCCCC1Cc1ccccc1)c1ccc2cc(Cl)ccc2n1

>  <score_type>  (31) 
oracle

>  <origin>  (31) 
autodockgpu

>  <m_score__min__energy>  (31) 
-7.04

>  <m_primary>  (31) 
energy

>  <rmsd>  (31) 
2.2117039837181216

>  <m_score__min__rmsd>  (31) 
2.2117039837181216

>  <meeko>  (31) 
{"free_energy": -6.24, "intermolecular_energy": -9.82, "internal_energy": -1.86, "cluster_size": 28, "cluster_id": 1, "rank_in_cluster": 17}

>  <energy>  (31) 
-5.78

>  <cluster_rmsd>  (31) 
1.53

>  <cluster>  (31) 
2

$$$$

     RDKit          3D

 57 60  0  0  0  0  0  0  0  0999 V2000
  138.8190   71.4000  220.8860 O   0  0  0  0  0  0  0  0  0  0  0  0
  139.0360   71.9590  222.0050 C   0  0  0  0  0  0  0  0  0  0  0  0
  139.0300   73.3680  222.1710 N   0  0  0  0  0  0  0  0  0  0  0  0
  138.7770   74.2810  221.0820 C   0  0  0  0  0  0  0  0  0  0  0  0
  140.0230   74.3870  220.2760 C   0  0  0  0  0  0  0  0  0  0  0  0
  140.3410   73.3670  219.6020 O   0  0  0  0  0  0  0  0  0  0  0  0
  140.8230   75.5830  220.2640 N   0  0  0  0  0  0  0  0  0  0  0  0
  142.0220   75.4560  219.5070 C   0  0  0  0  0  0  0  0  0  0  0  0
  142.8880   76.6730  219.4400 C   0  0  0  0  0  0  0  0  0  0  0  0
  142.2020   77.9010  218.9220 C   0  0  0  0  0  0  0  0  0  0  0  0
  141.3310   78.6100  219.9040 C   0  0  0  0  0  0  0  0  0  0  0  0
  140.0430   77.8870  220.1990 C   0  0  0  0  0  0  0  0  0  0  0  0
  140.2400   76.6640  221.0270 C   0  0  2  0  0  0  0  0  0  0  0  0
  141.0530   76.9980  222.2520 C   0  0  0  0  0  0  0  0  0  0  0  0
  140.7810   78.3240  222.8140 C   0  0  0  0  0  0  0  0  0  0  0  0
  139.5090   78.7420  223.1660 C   0  0  0  0  0  0  0  0  0  0  0  0
  139.2450   79.9880  223.6940 C   0  0  0  0  0  0  0  0  0  0  0  0
  140.2750   80.8840  223.8930 C   0  0  0  0  0  0  0  0  0  0  0  0
  141.5560   80.5030  223.5540 C   0  0  0  0  0  0  0  0  0  0  0  0
  141.8010   79.2470  223.0240 C   0  0  0  0  0  0  0  0  0  0  0  0
  139.3010   71.1100  223.1600 C   0  0  0  0  0  0  0  0  0  0  0  0
  138.9400   69.7790  223.1720 C   0  0  0  0  0  0  0  0  0  0  0  0
  139.1610   68.9310  224.2240 C   0  0  0  0  0  0  0  0  0  0  0  0
  139.7830   69.4350  225.3440 C   0  0  0  0  0  0  0  0  0  0  0  0
  140.0070   68.5900  226.4020 C   0  0  0  0  0  0  0  0  0  0  0  0
  140.6300   69.1110  227.5130 C   0  0  0  0  0  0  0  0  0  0  0  0
  140.9700   68.1230  228.9290 Cl  0  0  0  0  0  0  0  0  0  0  0  0
  140.9970   70.4330  227.5190 C   0  0  0  0  0  0  0  0  0  0  0  0
  140.7760   71.2930  226.4600 C   0  0  0  0  0  0  0  0  0  0  0  0
  140.1430   70.7560  225.3350 C   0  0  0  0  0  0  0  0  0  0  0  0
  139.9130   71.5780  224.2800 N   0  0  0  0  0  0  0  0  0  0  0  0
  139.2210   73.7460  223.1400 H   0  0  0  0  0  0  0  0  0  0  0  0
  137.9580   73.8979  220.4556 H   0  0  0  0  0  0  0  0  0  0  0  0
  138.4858   75.2685  221.4694 H   0  0  0  0  0  0  0  0  0  0  0  0
  142.6163   74.6443  219.9520 H   0  0  0  0  0  0  0  0  0  0  0  0
  141.7003   75.2642  218.4727 H   0  0  0  0  0  0  0  0  0  0  0  0
  143.2562   76.8880  220.4540 H   0  0  0  0  0  0  0  0  0  0  0  0
  143.6936   76.4427  218.7273 H   0  0  0  0  0  0  0  0  0  0  0  0
  142.9765   78.6056  218.5847 H   0  0  0  0  0  0  0  0  0  0  0  0
  141.5349   77.5587  218.1171 H   0  0  0  0  0  0  0  0  0  0  0  0
  141.8891   78.7243  220.8450 H   0  0  0  0  0  0  0  0  0  0  0  0
  141.0624   79.5785  219.4569 H   0  0  0  0  0  0  0  0  0  0  0  0
  139.3720   78.5716  220.7386 H   0  0  0  0  0  0  0  0  0  0  0  0
  139.6159   77.5683  219.2367 H   0  0  0  0  0  0  0  0  0  0  0  0
  139.2538   76.3053  221.3567 H   0  0  0  0  0  0  0  0  0  0  0  0
  140.8366   76.2455  223.0246 H   0  0  0  0  0  0  0  0  0  0  0  0
  142.1076   76.9990  221.9392 H   0  0  0  0  0  0  0  0  0  0  0  0
  138.6693   78.0472  223.0174 H   0  0  0  0  0  0  0  0  0  0  0  0
  138.2139   80.2674  223.9564 H   0  0  0  0  0  0  0  0  0  0  0  0
  140.0784   81.8814  224.3133 H   0  0  0  0  0  0  0  0  0  0  0  0
  142.3910   81.2028  223.7058 H   0  0  0  0  0  0  0  0  0  0  0  0
  142.8328   78.9708  222.7612 H   0  0  0  0  0  0  0  0  0  0  0  0
  138.4426   69.3726  222.2790 H   0  0  0  0  0  0  0  0  0  0  0  0
  138.8504   67.8769  224.1757 H   0  0  0  0  0  0  0  0  0  0  0  0
  139.6997   67.5345  226.3633 H   0  0  0  0  0  0  0  0  0  0  0  0
  141.4945   70.8302  228.4160 H   0  0  0  0  0  0  0  0  0  0  0  0
  141.0831   72.3485  226.5003 H   0  0  0  0  0  0  0  0  0  0  0  0
  1  2  2  0
  2  3  1  0
  3  4  1  0
  4  5  1  0
  5  6  2  0
  5  7  1  0
  7  8  1  0
  8  9  1  0
  9 10  1  0
 10 11  1  0
 11 12  1  0
 12 13  1  0
 13 14  1  0
 14 15  1  0
 15 16  2  0
 16 17  1  0
 17 18  2  0
 18 19  1  0
 19 20  2  0
  2 21  1  0
 21 22  2  0
 22 23  1  0
 23 24  2  0
 24 25  1  0
 25 26  2  0
 26 27  1  0
 26 28  1  0
 28 29  2  0
 29 30  1  0
 30 31  2  0
 13  7  1  0
 20 15  1  0
 31 21  1  0
 30 24  1  0
  3 32  1  0
  4 33  1  0
  4 34  1  0
  8 35  1  0
  8 36  1  0
  9 37  1  0
  9 38  1  0
 10 39  1  0
 10 40  1  0
 11 41  1  0
 11 42  1  0
 12 43  1  0
 12 44  1  0
 13 45  1  1
 14 46  1  0
 14 47  1  0
 16 48  1  0
 17 49  1  0
 18 50  1  0
 19 51  1  0
 20 52  1  0
 22 53  1  0
 23 54  1  0
 25 55  1  0
 28 56  1  0
 29 57  1  0
M  END
>  <smiles>  (32) 
O=C(NCC(=O)N1CCCCCC1Cc1ccccc1)c1ccc2cc(Cl)ccc2n1

>  <score_type>  (32) 
oracle

>  <origin>  (32) 
autodockgpu

>  <m_score__min__energy>  (32) 
-7.04

>  <m_primary>  (32) 
energy

>  <rmsd>  (32) 
2.1156185462352863

>  <m_score__min__rmsd>  (32) 
2.1156185462352863

>  <meeko>  (32) 
{"free_energy": -6.68, "intermolecular_energy": -10.26, "internal_energy": -1.64, "cluster_size": 28, "cluster_id": 1, "rank_in_cluster": 6}

>  <energy>  (32) 
-5.74

>  <cluster_rmsd>  (32) 
1.93

>  <cluster>  (32) 
2

$$$$

     RDKit          3D

 57 60  0  0  0  0  0  0  0  0999 V2000
  138.5170   72.6620  220.8760 O   0  0  0  0  0  0  0  0  0  0  0  0
  139.5120   72.7330  221.6600 C   0  0  0  0  0  0  0  0  0  0  0  0
  140.5960   73.6240  221.4440 N   0  0  0  0  0  0  0  0  0  0  0  0
  140.6550   74.5210  220.3150 C   0  0  0  0  0  0  0  0  0  0  0  0
  141.8940   75.3350  220.4420 C   0  0  0  0  0  0  0  0  0  0  0  0
  142.8010   74.8590  221.1820 O   0  0  0  0  0  0  0  0  0  0  0  0
  142.0510   76.5930  219.7630 N   0  0  0  0  0  0  0  0  0  0  0  0
  142.9570   76.5370  218.6670 C   0  0  0  0  0  0  0  0  0  0  0  0
  142.5500   77.2860  217.4390 C   0  0  0  0  0  0  0  0  0  0  0  0
  142.5520   78.7780  217.5870 C   0  0  0  0  0  0  0  0  0  0  0  0
  141.5170   79.3320  218.5080 C   0  0  0  0  0  0  0  0  0  0  0  0
  141.7630   79.0020  219.9590 C   0  0  0  0  0  0  0  0  0  0  0  0
  141.2550   77.6540  220.3400 C   0  0  2  0  0  0  0  0  0  0  0  0
  141.1620   77.5440  221.8400 C   0  0  0  0  0  0  0  0  0  0  0  0
  141.3800   78.8050  222.5530 C   0  0  0  0  0  0  0  0  0  0  0  0
  142.6370   79.2460  222.9280 C   0  0  0  0  0  0  0  0  0  0  0  0
  142.8510   80.4310  223.6000 C   0  0  0  0  0  0  0  0  0  0  0  0
  141.7820   81.2390  223.9290 C   0  0  0  0  0  0  0  0  0  0  0  0
  140.5130   80.8330  223.5700 C   0  0  0  0  0  0  0  0  0  0  0  0
  140.3190   79.6390  222.8970 C   0  0  0  0  0  0  0  0  0  0  0  0
  139.5340   71.8600  222.8280 C   0  0  0  0  0  0  0  0  0  0  0  0
  138.7840   70.7050  222.8760 C   0  0  0  0  0  0  0  0  0  0  0  0
  138.7610   69.8450  223.9420 C   0  0  0  0  0  0  0  0  0  0  0  0
  139.5360   70.1500  225.0380 C   0  0  0  0  0  0  0  0  0  0  0  0
  139.5180   69.2920  226.1100 C   0  0  0  0  0  0  0  0  0  0  0  0
  140.2990   69.6130  227.1970 C   0  0  0  0  0  0  0  0  0  0  0  0
  140.3560   68.5900  228.6260 Cl  0  0  0  0  0  0  0  0  0  0  0  0
  141.0530   70.7590  227.1660 C   0  0  0  0  0  0  0  0  0  0  0  0
  141.0790   71.6310  226.0930 C   0  0  0  0  0  0  0  0  0  0  0  0
  140.2830   71.2970  224.9940 C   0  0  0  0  0  0  0  0  0  0  0  0
  140.2880   72.1350  223.9250 N   0  0  0  0  0  0  0  0  0  0  0  0
  141.3830   73.6140  222.1500 H   0  0  0  0  0  0  0  0  0  0  0  0
  140.6818   73.9431  219.3795 H   0  0  0  0  0  0  0  0  0  0  0  0
  139.7688   75.1724  220.2964 H   0  0  0  0  0  0  0  0  0  0  0  0
  143.9204   76.9455  219.0061 H   0  0  0  0  0  0  0  0  0  0  0  0
  142.9954   75.4789  218.3689 H   0  0  0  0  0  0  0  0  0  0  0  0
  143.2458   77.0209  216.6293 H   0  0  0  0  0  0  0  0  0  0  0  0
  141.5103   76.9957  217.2277 H   0  0  0  0  0  0  0  0  0  0  0  0
  143.5396   79.0800  217.9657 H   0  0  0  0  0  0  0  0  0  0  0  0
  142.3178   79.1813  216.5908 H   0  0  0  0  0  0  0  0  0  0  0  0
  141.5028   80.4263  218.3975 H   0  0  0  0  0  0  0  0  0  0  0  0
  140.5574   78.8717  218.2301 H   0  0  0  0  0  0  0  0  0  0  0  0
  142.8461   79.0355  220.1481 H   0  0  0  0  0  0  0  0  0  0  0  0
  141.2195   79.7431  220.5634 H   0  0  0  0  0  0  0  0  0  0  0  0
  140.2436   77.5343  219.9244 H   0  0  0  0  0  0  0  0  0  0  0  0
  140.1588   77.1726  222.0964 H   0  0  0  0  0  0  0  0  0  0  0  0
  141.9650   76.8616  222.1555 H   0  0  0  0  0  0  0  0  0  0  0  0
  143.5072   78.6213  222.6780 H   0  0  0  0  0  0  0  0  0  0  0  0
  143.8731   80.7319  223.8736 H   0  0  0  0  0  0  0  0  0  0  0  0
  141.9380   82.1863  224.4659 H   0  0  0  0  0  0  0  0  0  0  0  0
  139.6476   81.4640  223.8209 H   0  0  0  0  0  0  0  0  0  0  0  0
  139.2958   79.3398  222.6257 H   0  0  0  0  0  0  0  0  0  0  0  0
  138.1637   70.4576  222.0019 H   0  0  0  0  0  0  0  0  0  0  0  0
  138.1409   68.9366  223.9227 H   0  0  0  0  0  0  0  0  0  0  0  0
  138.9016   68.3810  226.1004 H   0  0  0  0  0  0  0  0  0  0  0  0
  141.6714   70.9975  228.0439 H   0  0  0  0  0  0  0  0  0  0  0  0
  141.6954   72.5420  226.1040 H   0  0  0  0  0  0  0  0  0  0  0  0
  1  2  2  0
  2  3  1  0
  3  4  1  0
  4  5  1  0
  5  6  2  0
  5  7  1  0
  7  8  1  0
  8  9  1  0
  9 10  1  0
 10 11  1  0
 11 12  1  0
 12 13  1  0
 13 14  1  0
 14 15  1  0
 15 16  2  0
 16 17  1  0
 17 18  2  0
 18 19  1  0
 19 20  2  0
  2 21  1  0
 21 22  2  0
 22 23  1  0
 23 24  2  0
 24 25  1  0
 25 26  2  0
 26 27  1  0
 26 28  1  0
 28 29  2  0
 29 30  1  0
 30 31  2  0
 13  7  1  0
 20 15  1  0
 31 21  1  0
 30 24  1  0
  3 32  1  0
  4 33  1  0
  4 34  1  0
  8 35  1  0
  8 36  1  0
  9 37  1  0
  9 38  1  0
 10 39  1  0
 10 40  1  0
 11 41  1  0
 11 42  1  0
 12 43  1  0
 12 44  1  0
 13 45  1  6
 14 46  1  0
 14 47  1  0
 16 48  1  0
 17 49  1  0
 18 50  1  0
 19 51  1  0
 20 52  1  0
 22 53  1  0
 23 54  1  0
 25 55  1  0
 28 56  1  0
 29 57  1  0
M  END
>  <smiles>  (33) 
O=C(NCC(=O)N1CCCCCC1Cc1ccccc1)c1ccc2cc(Cl)ccc2n1

>  <score_type>  (33) 
oracle

>  <origin>  (33) 
autodockgpu

>  <m_score__min__energy>  (33) 
-7.04

>  <m_primary>  (33) 
energy

>  <rmsd>  (33) 
2.5255301540400414

>  <m_score__min__rmsd>  (33) 
2.5255301540400414

>  <meeko>  (33) 
{"free_energy": -6.54, "intermolecular_energy": -10.12, "internal_energy": -2.31, "cluster_size": 28, "cluster_id": 1, "rank_in_cluster": 9}

>  <energy>  (33) 
-5.59

>  <cluster_rmsd>  (33) 
1.14

>  <cluster>  (33) 
2

$$$$

     RDKit          3D

 57 60  0  0  0  0  0  0  0  0999 V2000
  134.0570   69.2690  226.4300 O   0  0  0  0  0  0  0  0  0  0  0  0
  134.4810   70.3600  225.9410 C   0  0  0  0  0  0  0  0  0  0  0  0
  135.5690   70.4200  225.0320 N   0  0  0  0  0  0  0  0  0  0  0  0
  136.2840   69.2460  224.5920 C   0  0  0  0  0  0  0  0  0  0  0  0
  137.7360   69.4880  224.8080 C   0  0  0  0  0  0  0  0  0  0  0  0
  138.1580   69.3380  225.9890 O   0  0  0  0  0  0  0  0  0  0  0  0
  138.6120   69.8710  223.7330 N   0  0  0  0  0  0  0  0  0  0  0  0
  138.7000   68.8980  222.6970 C   0  0  0  0  0  0  0  0  0  0  0  0
  139.1810   69.3920  221.3710 C   0  0  0  0  0  0  0  0  0  0  0  0
  138.3900   70.5310  220.8020 C   0  0  0  0  0  0  0  0  0  0  0  0
  138.1080   71.6500  221.7480 C   0  0  0  0  0  0  0  0  0  0  0  0
  139.2590   71.9640  222.6710 C   0  0  0  0  0  0  0  0  0  0  0  0
  139.2210   71.1680  223.9310 C   0  0  2  0  0  0  0  0  0  0  0  0
  140.6070   71.0610  224.5140 C   0  0  0  0  0  0  0  0  0  0  0  0
  140.6580   70.4430  225.8420 C   0  0  0  0  0  0  0  0  0  0  0  0
  140.3920   71.1430  227.0050 C   0  0  0  0  0  0  0  0  0  0  0  0
  140.4390   70.5690  228.2580 C   0  0  0  0  0  0  0  0  0  0  0  0
  140.7640   69.2360  228.3920 C   0  0  0  0  0  0  0  0  0  0  0  0
  141.0360   68.5040  227.2550 C   0  0  0  0  0  0  0  0  0  0  0  0
  140.9840   69.0990  226.0050 C   0  0  0  0  0  0  0  0  0  0  0  0
  133.8150   71.5970  226.3330 C   0  0  0  0  0  0  0  0  0  0  0  0
  132.6440   71.5830  227.0600 C   0  0  0  0  0  0  0  0  0  0  0  0
  131.9720   72.7080  227.4590 C   0  0  0  0  0  0  0  0  0  0  0  0
  132.4950   73.9330  227.1120 C   0  0  0  0  0  0  0  0  0  0  0  0
  131.8260   75.0650  227.5080 C   0  0  0  0  0  0  0  0  0  0  0  0
  132.3640   76.2810  227.1520 C   0  0  0  0  0  0  0  0  0  0  0  0
  131.5950   77.7970  227.6040 Cl  0  0  0  0  0  0  0  0  0  0  0  0
  133.5290   76.3130  226.4280 C   0  0  0  0  0  0  0  0  0  0  0  0
  134.2110   75.1810  226.0240 C   0  0  0  0  0  0  0  0  0  0  0  0
  133.6580   73.9500  226.3890 C   0  0  0  0  0  0  0  0  0  0  0  0
  134.3060   72.8210  226.0050 N   0  0  0  0  0  0  0  0  0  0  0  0
  135.8550   71.3750  224.6750 H   0  0  0  0  0  0  0  0  0  0  0  0
  135.9601   68.3708  225.1744 H   0  0  0  0  0  0  0  0  0  0  0  0
  136.0819   69.0501  223.5286 H   0  0  0  0  0  0  0  0  0  0  0  0
  139.3906   68.1106  223.0331 H   0  0  0  0  0  0  0  0  0  0  0  0
  137.6696   68.5522  222.5277 H   0  0  0  0  0  0  0  0  0  0  0  0
  140.2237   69.7229  221.4864 H   0  0  0  0  0  0  0  0  0  0  0  0
  139.0681   68.5537  220.6678 H   0  0  0  0  0  0  0  0  0  0  0  0
  138.9507   70.9409  219.9490 H   0  0  0  0  0  0  0  0  0  0  0  0
  137.4106   70.1124  220.5271 H   0  0  0  0  0  0  0  0  0  0  0  0
  137.8765   72.5514  221.1615 H   0  0  0  0  0  0  0  0  0  0  0  0
  137.2645   71.3342  222.3795 H   0  0  0  0  0  0  0  0  0  0  0  0
  140.2006   71.7463  222.1457 H   0  0  0  0  0  0  0  0  0  0  0  0
  139.1828   73.0261  222.9470 H   0  0  0  0  0  0  0  0  0  0  0  0
  138.5834   71.6958  224.6555 H   0  0  0  0  0  0  0  0  0  0  0  0
  141.2226   70.4584  223.8300 H   0  0  0  0  0  0  0  0  0  0  0  0
  140.9790   72.0895  224.6313 H   0  0  0  0  0  0  0  0  0  0  0  0
  140.1304   72.2086  226.9266 H   0  0  0  0  0  0  0  0  0  0  0  0
  140.2174   71.1741  229.1495 H   0  0  0  0  0  0  0  0  0  0  0  0
  140.8056   68.7657  229.3855 H   0  0  0  0  0  0  0  0  0  0  0  0
  141.2964   67.4388  227.3415 H   0  0  0  0  0  0  0  0  0  0  0  0
  141.2067   68.4920  225.1151 H   0  0  0  0  0  0  0  0  0  0  0  0
  132.2221   70.6058  227.3376 H   0  0  0  0  0  0  0  0  0  0  0  0
  131.0409   72.6345  228.0402 H   0  0  0  0  0  0  0  0  0  0  0  0
  130.8939   75.0023  228.0887 H   0  0  0  0  0  0  0  0  0  0  0  0
  133.9433   77.2944  226.1538 H   0  0  0  0  0  0  0  0  0  0  0  0
  135.1432   75.2454  225.4437 H   0  0  0  0  0  0  0  0  0  0  0  0
  1  2  2  0
  2  3  1  0
  3  4  1  0
  4  5  1  0
  5  6  2  0
  5  7  1  0
  7  8  1  0
  8  9  1  0
  9 10  1  0
 10 11  1  0
 11 12  1  0
 12 13  1  0
 13 14  1  0
 14 15  1  0
 15 16  2  0
 16 17  1  0
 17 18  2  0
 18 19  1  0
 19 20  2  0
  2 21  1  0
 21 22  2  0
 22 23  1  0
 23 24  2  0
 24 25  1  0
 25 26  2  0
 26 27  1  0
 26 28  1  0
 28 29  2  0
 29 30  1  0
 30 31  2  0
 13  7  1  0
 20 15  1  0
 31 21  1  0
 30 24  1  0
  3 32  1  0
  4 33  1  0
  4 34  1  0
  8 35  1  0
  8 36  1  0
  9 37  1  0
  9 38  1  0
 10 39  1  0
 10 40  1  0
 11 41  1  0
 11 42  1  0
 12 43  1  0
 12 44  1  0
 13 45  1  1
 14 46  1  0
 14 47  1  0
 16 48  1  0
 17 49  1  0
 18 50  1  0
 19 51  1  0
 20 52  1  0
 22 53  1  0
 23 54  1  0
 25 55  1  0
 28 56  1  0
 29 57  1  0
M  END
>  <smiles>  (34) 
O=C(NCC(=O)N1CCCCCC1Cc1ccccc1)c1ccc2cc(Cl)ccc2n1

>  <score_type>  (34) 
oracle

>  <origin>  (34) 
autodockgpu

>  <m_score__min__energy>  (34) 
-7.04

>  <m_primary>  (34) 
energy

>  <rmsd>  (34) 
7.82881721249402

>  <m_score__min__rmsd>  (34) 
7.82881721249402

>  <meeko>  (34) 
{"free_energy": -6.55, "intermolecular_energy": -10.13, "internal_energy": -1.95, "cluster_size": 5, "cluster_id": 2, "rank_in_cluster": 1}

>  <energy>  (34) 
-6.42

>  <cluster_rmsd>  (34) 
0.0

>  <cluster>  (34) 
3

$$$$

     RDKit          3D

 57 60  0  0  0  0  0  0  0  0999 V2000
  140.0620   71.9310  220.6920 O   0  0  0  0  0  0  0  0  0  0  0  0
  139.9280   72.4240  221.8540 C   0  0  0  0  0  0  0  0  0  0  0  0
  139.7130   73.8090  222.0770 N   0  0  0  0  0  0  0  0  0  0  0  0
  139.6310   74.7700  221.0030 C   0  0  0  0  0  0  0  0  0  0  0  0
  140.0430   76.0940  221.5410 C   0  0  0  0  0  0  0  0  0  0  0  0
  139.9090   76.2570  222.7870 O   0  0  0  0  0  0  0  0  0  0  0  0
  140.5630   77.1320  220.6920 N   0  0  0  0  0  0  0  0  0  0  0  0
  141.9530   76.9960  220.4160 C   0  0  0  0  0  0  0  0  0  0  0  0
  142.3550   77.1410  218.9830 C   0  0  0  0  0  0  0  0  0  0  0  0
  141.2490   76.9110  217.9970 C   0  0  0  0  0  0  0  0  0  0  0  0
  140.2440   78.0100  217.8940 C   0  0  0  0  0  0  0  0  0  0  0  0
  139.1160   77.8970  218.8910 C   0  0  0  0  0  0  0  0  0  0  0  0
  139.5630   78.0990  220.2990 C   0  0  2  0  0  0  0  0  0  0  0  0
  140.0370   79.5170  220.4900 C   0  0  0  0  0  0  0  0  0  0  0  0
  140.8840   79.7180  221.6680 C   0  0  0  0  0  0  0  0  0  0  0  0
  140.5270   79.2790  222.9310 C   0  0  0  0  0  0  0  0  0  0  0  0
  141.3190   79.4660  224.0440 C   0  0  0  0  0  0  0  0  0  0  0  0
  142.5290   80.1170  223.9280 C   0  0  0  0  0  0  0  0  0  0  0  0
  142.9190   80.5680  222.6850 C   0  0  0  0  0  0  0  0  0  0  0  0
  142.1100   80.3730  221.5780 C   0  0  0  0  0  0  0  0  0  0  0  0
  139.9970   71.5240  222.9980 C   0  0  0  0  0  0  0  0  0  0  0  0
  139.5340   70.2270  222.9220 C   0  0  0  0  0  0  0  0  0  0  0  0
  139.5710   69.3340  223.9600 C   0  0  0  0  0  0  0  0  0  0  0  0
  140.1050   69.7530  225.1570 C   0  0  0  0  0  0  0  0  0  0  0  0
  140.1450   68.8630  226.2010 C   0  0  0  0  0  0  0  0  0  0  0  0
  140.6820   69.2990  227.3910 C   0  0  0  0  0  0  0  0  0  0  0  0
  140.7870   68.2460  228.7970 Cl  0  0  0  0  0  0  0  0  0  0  0  0
  141.1490   70.5850  227.4850 C   0  0  0  0  0  0  0  0  0  0  0  0
  141.1130   71.4910  226.4410 C   0  0  0  0  0  0  0  0  0  0  0  0
  140.5660   71.0400  225.2360 C   0  0  0  0  0  0  0  0  0  0  0  0
  140.5180   71.9080  224.1940 N   0  0  0  0  0  0  0  0  0  0  0  0
  139.6120   74.1320  223.0800 H   0  0  0  0  0  0  0  0  0  0  0  0
  140.3033   74.4737  220.1844 H   0  0  0  0  0  0  0  0  0  0  0  0
  138.6046   74.8188  220.6104 H   0  0  0  0  0  0  0  0  0  0  0  0
  142.4875   77.7638  220.9946 H   0  0  0  0  0  0  0  0  0  0  0  0
  142.2101   75.9629  220.6926 H   0  0  0  0  0  0  0  0  0  0  0  0
  142.7387   78.1614  218.8361 H   0  0  0  0  0  0  0  0  0  0  0  0
  143.1096   76.3639  218.7912 H   0  0  0  0  0  0  0  0  0  0  0  0
  141.7026   76.7719  217.0046 H   0  0  0  0  0  0  0  0  0  0  0  0
  140.6986   76.0301  218.3590 H   0  0  0  0  0  0  0  0  0  0  0  0
  140.7589   78.9679  218.0594 H   0  0  0  0  0  0  0  0  0  0  0  0
  139.7951   77.9419  216.8921 H   0  0  0  0  0  0  0  0  0  0  0  0
  138.3581   78.6572  218.6510 H   0  0  0  0  0  0  0  0  0  0  0  0
  138.7110   76.8770  218.8166 H   0  0  0  0  0  0  0  0  0  0  0  0
  138.7025   77.9329  220.9637 H   0  0  0  0  0  0  0  0  0  0  0  0
  140.6113   79.8108  219.5990 H   0  0  0  0  0  0  0  0  0  0  0  0
  139.1372   80.1312  220.6417 H   0  0  0  0  0  0  0  0  0  0  0  0
  139.5666   78.7565  223.0526 H   0  0  0  0  0  0  0  0  0  0  0  0
  140.9855   79.0958  225.0247 H   0  0  0  0  0  0  0  0  0  0  0  0
  143.1695   80.2731  224.8086 H   0  0  0  0  0  0  0  0  0  0  0  0
  143.8818   81.0876  222.5714 H   0  0  0  0  0  0  0  0  0  0  0  0
  142.4454   80.7463  220.5991 H   0  0  0  0  0  0  0  0  0  0  0  0
  139.1076   69.8879  221.9664 H   0  0  0  0  0  0  0  0  0  0  0  0
  139.1848   68.3110  223.8401 H   0  0  0  0  0  0  0  0  0  0  0  0
  139.7616   67.8379  226.0907 H   0  0  0  0  0  0  0  0  0  0  0  0
  141.5758   70.9140  228.4440 H   0  0  0  0  0  0  0  0  0  0  0  0
  141.4959   72.5161  226.5531 H   0  0  0  0  0  0  0  0  0  0  0  0
  1  2  2  0
  2  3  1  0
  3  4  1  0
  4  5  1  0
  5  6  2  0
  5  7  1  0
  7  8  1  0
  8  9  1  0
  9 10  1  0
 10 11  1  0
 11 12  1  0
 12 13  1  0
 13 14  1  0
 14 15  1  0
 15 16  2  0
 16 17  1  0
 17 18  2  0
 18 19  1  0
 19 20  2  0
  2 21  1  0
 21 22  2  0
 22 23  1  0
 23 24  2  0
 24 25  1  0
 25 26  2  0
 26 27  1  0
 26 28  1  0
 28 29  2  0
 29 30  1  0
 30 31  2  0
 13  7  1  0
 20 15  1  0
 31 21  1  0
 30 24  1  0
  3 32  1  0
  4 33  1  0
  4 34  1  0
  8 35  1  0
  8 36  1  0
  9 37  1  0
  9 38  1  0
 10 39  1  0
 10 40  1  0
 11 41  1  0
 11 42  1  0
 12 43  1  0
 12 44  1  0
 13 45  1  1
 14 46  1  0
 14 47  1  0
 16 48  1  0
 17 49  1  0
 18 50  1  0
 19 51  1  0
 20 52  1  0
 22 53  1  0
 23 54  1  0
 25 55  1  0
 28 56  1  0
 29 57  1  0
M  END
>  <smiles>  (35) 
O=C(NCC(=O)N1CCCCCC1Cc1ccccc1)c1ccc2cc(Cl)ccc2n1

>  <score_type>  (35) 
oracle

>  <origin>  (35) 
autodockgpu

>  <m_score__min__energy>  (35) 
-7.04

>  <m_primary>  (35) 
energy

>  <rmsd>  (35) 
2.29284032409183

>  <m_score__min__rmsd>  (35) 
2.29284032409183

>  <meeko>  (35) 
{"free_energy": -6.19, "intermolecular_energy": -9.77, "internal_energy": -2.55, "cluster_size": 28, "cluster_id": 1, "rank_in_cluster": 19}

>  <energy>  (35) 
-6.23

>  <cluster_rmsd>  (35) 
0.59

>  <cluster>  (35) 
3

$$$$

     RDKit          3D

 57 60  0  0  0  0  0  0  0  0999 V2000
  137.9460   71.3220  220.8100 O   0  0  0  0  0  0  0  0  0  0  0  0
  138.2510   71.9400  221.8760 C   0  0  0  0  0  0  0  0  0  0  0  0
  138.1810   73.3530  221.9880 N   0  0  0  0  0  0  0  0  0  0  0  0
  137.7570   74.2020  220.9000 C   0  0  0  0  0  0  0  0  0  0  0  0
  138.9540   74.5150  220.0730 C   0  0  0  0  0  0  0  0  0  0  0  0
  138.8020   74.4410  218.8210 O   0  0  0  0  0  0  0  0  0  0  0  0
  140.2140   74.8800  220.6640 N   0  0  0  0  0  0  0  0  0  0  0  0
  141.0930   73.7760  220.8510 C   0  0  0  0  0  0  0  0  0  0  0  0
  142.5520   74.0680  220.7050 C   0  0  0  0  0  0  0  0  0  0  0  0
  142.8830   75.1120  219.6810 C   0  0  0  0  0  0  0  0  0  0  0  0
  142.6690   76.5230  220.1140 C   0  0  0  0  0  0  0  0  0  0  0  0
  141.2370   76.9840  219.9920 C   0  0  0  0  0  0  0  0  0  0  0  0
  140.3210   76.2940  220.9450 C   0  0  2  0  0  0  0  0  0  0  0  0
  140.7590   76.5610  222.3620 C   0  0  0  0  0  0  0  0  0  0  0  0
  140.7720   77.9780  222.7340 C   0  0  0  0  0  0  0  0  0  0  0  0
  141.8360   78.5700  223.3910 C   0  0  0  0  0  0  0  0  0  0  0  0
  141.8550   79.9020  223.7460 C   0  0  0  0  0  0  0  0  0  0  0  0
  140.7790   80.7110  223.4460 C   0  0  0  0  0  0  0  0  0  0  0  0
  139.6990   80.1560  222.7910 C   0  0  0  0  0  0  0  0  0  0  0  0
  139.6980   78.8150  222.4440 C   0  0  0  0  0  0  0  0  0  0  0  0
  138.6890   71.1590  223.0250 C   0  0  0  0  0  0  0  0  0  0  0  0
  138.3680   69.8240  223.1530 C   0  0  0  0  0  0  0  0  0  0  0  0
  138.7490   69.0370  224.2070 C   0  0  0  0  0  0  0  0  0  0  0  0
  139.5020   69.6120  225.2060 C   0  0  0  0  0  0  0  0  0  0  0  0
  139.8880   68.8280  226.2660 C   0  0  0  0  0  0  0  0  0  0  0  0
  140.6400   69.4190  227.2550 C   0  0  0  0  0  0  0  0  0  0  0  0
  141.1910   68.5140  228.6590 Cl  0  0  0  0  0  0  0  0  0  0  0  0
  140.9700   70.7460  227.1440 C   0  0  0  0  0  0  0  0  0  0  0  0
  140.5880   71.5450  226.0830 C   0  0  0  0  0  0  0  0  0  0  0  0
  139.8230   70.9370  225.0830 C   0  0  0  0  0  0  0  0  0  0  0  0
  139.4340   71.6970  224.0280 N   0  0  0  0  0  0  0  0  0  0  0  0
  138.4550   73.7830  222.9150 H   0  0  0  0  0  0  0  0  0  0  0  0
  137.0062   73.6798  220.2888 H   0  0  0  0  0  0  0  0  0  0  0  0
  137.3061   75.1272  221.2883 H   0  0  0  0  0  0  0  0  0  0  0  0
  140.9283   73.3826  221.8650 H   0  0  0  0  0  0  0  0  0  0  0  0
  140.8510   73.0648  220.0475 H   0  0  0  0  0  0  0  0  0  0  0  0
  142.9319   74.4107  221.6788 H   0  0  0  0  0  0  0  0  0  0  0  0
  143.0224   73.1352  220.3607 H   0  0  0  0  0  0  0  0  0  0  0  0
  143.9428   74.9973  219.4096 H   0  0  0  0  0  0  0  0  0  0  0  0
  142.1913   74.9440  218.8423 H   0  0  0  0  0  0  0  0  0  0  0  0
  142.9746   76.6134  221.1668 H   0  0  0  0  0  0  0  0  0  0  0  0
  143.2696   77.1588  219.4469 H   0  0  0  0  0  0  0  0  0  0  0  0
  141.1986   78.0655  220.1893 H   0  0  0  0  0  0  0  0  0  0  0  0
  140.8980   76.7407  218.9742 H   0  0  0  0  0  0  0  0  0  0  0  0
  139.3093   76.7058  220.8150 H   0  0  0  0  0  0  0  0  0  0  0  0
  140.0718   76.0335  223.0398 H   0  0  0  0  0  0  0  0  0  0  0  0
  141.7969   76.2055  222.4423 H   0  0  0  0  0  0  0  0  0  0  0  0
  142.7081   77.9484  223.6420 H   0  0  0  0  0  0  0  0  0  0  0  0
  142.7283   80.3196  224.2685 H   0  0  0  0  0  0  0  0  0  0  0  0
  140.7819   81.7756  223.7229 H   0  0  0  0  0  0  0  0  0  0  0  0
  138.8309   80.7841  222.5421 H   0  0  0  0  0  0  0  0  0  0  0  0
  138.8226   78.3990  221.9238 H   0  0  0  0  0  0  0  0  0  0  0  0
  137.7667   69.3611  222.3566 H   0  0  0  0  0  0  0  0  0  0  0  0
  138.4617   67.9762  224.2541 H   0  0  0  0  0  0  0  0  0  0  0  0
  139.6061   67.7662  226.3220 H   0  0  0  0  0  0  0  0  0  0  0  0
  141.5726   71.1996  227.9446 H   0  0  0  0  0  0  0  0  0  0  0  0
  140.8717   72.6064  226.0280 H   0  0  0  0  0  0  0  0  0  0  0  0
  1  2  2  0
  2  3  1  0
  3  4  1  0
  4  5  1  0
  5  6  2  0
  5  7  1  0
  7  8  1  0
  8  9  1  0
  9 10  1  0
 10 11  1  0
 11 12  1  0
 12 13  1  0
 13 14  1  0
 14 15  1  0
 15 16  2  0
 16 17  1  0
 17 18  2  0
 18 19  1  0
 19 20  2  0
  2 21  1  0
 21 22  2  0
 22 23  1  0
 23 24  2  0
 24 25  1  0
 25 26  2  0
 26 27  1  0
 26 28  1  0
 28 29  2  0
 29 30  1  0
 30 31  2  0
 13  7  1  0
 20 15  1  0
 31 21  1  0
 30 24  1  0
  3 32  1  0
  4 33  1  0
  4 34  1  0
  8 35  1  0
  8 36  1  0
  9 37  1  0
  9 38  1  0
 10 39  1  0
 10 40  1  0
 11 41  1  0
 11 42  1  0
 12 43  1  0
 12 44  1  0
 13 45  1  1
 14 46  1  0
 14 47  1  0
 16 48  1  0
 17 49  1  0
 18 50  1  0
 19 51  1  0
 20 52  1  0
 22 53  1  0
 23 54  1  0
 25 55  1  0
 28 56  1  0
 29 57  1  0
M  END
>  <smiles>  (36) 
O=C(NCC(=O)N1CCCCCC1Cc1ccccc1)c1ccc2cc(Cl)ccc2n1

>  <score_type>  (36) 
oracle

>  <origin>  (36) 
autodockgpu

>  <m_score__min__energy>  (36) 
-7.04

>  <m_primary>  (36) 
energy

>  <rmsd>  (36) 
2.3430560878563913

>  <m_score__min__rmsd>  (36) 
2.3430560878563913

>  <meeko>  (36) 
{"free_energy": -6.14, "intermolecular_energy": -9.72, "internal_energy": -2.11, "cluster_size": 28, "cluster_id": 1, "rank_in_cluster": 21}

>  <energy>  (36) 
-6.11

>  <cluster_rmsd>  (36) 
1.19

>  <cluster>  (36) 
3

$$$$

     RDKit          3D

 57 60  0  0  0  0  0  0  0  0999 V2000
  139.5050   71.8640  220.7080 O   0  0  0  0  0  0  0  0  0  0  0  0
  139.4720   72.3540  221.8780 C   0  0  0  0  0  0  0  0  0  0  0  0
  139.2560   73.7350  222.1240 N   0  0  0  0  0  0  0  0  0  0  0  0
  139.0580   74.6950  221.0650 C   0  0  0  0  0  0  0  0  0  0  0  0
  139.1730   76.0560  221.6540 C   0  0  0  0  0  0  0  0  0  0  0  0
  138.6660   76.2120  222.8010 O   0  0  0  0  0  0  0  0  0  0  0  0
  139.8210   77.1350  220.9580 N   0  0  0  0  0  0  0  0  0  0  0  0
  138.9120   78.0350  220.3340 C   0  0  0  0  0  0  0  0  0  0  0  0
  138.7790   79.3810  220.9710 C   0  0  0  0  0  0  0  0  0  0  0  0
  140.0620   80.1480  221.0860 C   0  0  0  0  0  0  0  0  0  0  0  0
  141.2510   79.5060  220.4530 C   0  0  0  0  0  0  0  0  0  0  0  0
  141.8610   78.4180  221.3000 C   0  0  0  0  0  0  0  0  0  0  0  0
  141.2640   77.0770  221.0380 C   0  0  2  0  0  0  0  0  0  0  0  0
  141.8780   76.4740  219.8010 C   0  0  0  0  0  0  0  0  0  0  0  0
  142.6910   75.2810  220.0500 C   0  0  0  0  0  0  0  0  0  0  0  0
  144.0740   75.2930  220.0020 C   0  0  0  0  0  0  0  0  0  0  0  0
  144.8460   74.1740  220.2340 C   0  0  0  0  0  0  0  0  0  0  0  0
  144.2420   72.9700  220.5310 C   0  0  0  0  0  0  0  0  0  0  0  0
  142.8650   72.9190  220.5880 C   0  0  0  0  0  0  0  0  0  0  0  0
  142.1070   74.0530  220.3510 C   0  0  0  0  0  0  0  0  0  0  0  0
  139.6620   71.4530  223.0090 C   0  0  0  0  0  0  0  0  0  0  0  0
  139.3000   70.1250  222.9390 C   0  0  0  0  0  0  0  0  0  0  0  0
  139.4540   69.2300  223.9650 C   0  0  0  0  0  0  0  0  0  0  0  0
  140.0050   69.6820  225.1430 C   0  0  0  0  0  0  0  0  0  0  0  0
  140.1610   68.7900  226.1750 C   0  0  0  0  0  0  0  0  0  0  0  0
  140.7140   69.2590  227.3440 C   0  0  0  0  0  0  0  0  0  0  0  0
  140.9630   68.2080  228.7330 Cl  0  0  0  0  0  0  0  0  0  0  0  0
  141.0810   70.5780  227.4310 C   0  0  0  0  0  0  0  0  0  0  0  0
  140.9280   71.4850  226.4000 C   0  0  0  0  0  0  0  0  0  0  0  0
  140.3660   71.0010  225.2150 C   0  0  0  0  0  0  0  0  0  0  0  0
  140.2030   71.8690  224.1850 N   0  0  0  0  0  0  0  0  0  0  0  0
  139.2440   74.0550  223.1330 H   0  0  0  0  0  0  0  0  0  0  0  0
  139.8247   74.5580  220.2882 H   0  0  0  0  0  0  0  0  0  0  0  0
  138.0681   74.5591  220.6049 H   0  0  0  0  0  0  0  0  0  0  0  0
  139.2463   78.1854  219.2969 H   0  0  0  0  0  0  0  0  0  0  0  0
  137.9214   77.5655  220.4249 H   0  0  0  0  0  0  0  0  0  0  0  0
  138.0761   79.9767  220.3701 H   0  0  0  0  0  0  0  0  0  0  0  0
  138.4282   79.2056  221.9987 H   0  0  0  0  0  0  0  0  0  0  0  0
  139.9140   81.1297  220.6122 H   0  0  0  0  0  0  0  0  0  0  0  0
  140.2853   80.2051  222.1616 H   0  0  0  0  0  0  0  0  0  0  0  0
  140.9419   79.0689  219.4921 H   0  0  0  0  0  0  0  0  0  0  0  0
  142.0147   80.2873  220.3255 H   0  0  0  0  0  0  0  0  0  0  0  0
  142.9392   78.3701  221.0873 H   0  0  0  0  0  0  0  0  0  0  0  0
  141.6629   78.6682  222.3527 H   0  0  0  0  0  0  0  0  0  0  0  0
  141.4950   76.4209  221.8902 H   0  0  0  0  0  0  0  0  0  0  0  0
  141.0655   76.1992  219.1123 H   0  0  0  0  0  0  0  0  0  0  0  0
  142.5547   77.2341  219.3834 H   0  0  0  0  0  0  0  0  0  0  0  0
  144.5818   76.2402  219.7676 H   0  0  0  0  0  0  0  0  0  0  0  0
  145.9427   74.2416  220.1822 H   0  0  0  0  0  0  0  0  0  0  0  0
  144.8457   72.0698  220.7184 H   0  0  0  0  0  0  0  0  0  0  0  0
  142.3643   71.9684  220.8240 H   0  0  0  0  0  0  0  0  0  0  0  0
  141.0105   73.9820  220.4020 H   0  0  0  0  0  0  0  0  0  0  0  0
  138.8593   69.7603  221.9994 H   0  0  0  0  0  0  0  0  0  0  0  0
  139.1461   68.1802  223.8508 H   0  0  0  0  0  0  0  0  0  0  0  0
  139.8549   67.7386  226.0708 H   0  0  0  0  0  0  0  0  0  0  0  0
  141.5216   70.9333  228.3742 H   0  0  0  0  0  0  0  0  0  0  0  0
  141.2334   72.5364  226.5064 H   0  0  0  0  0  0  0  0  0  0  0  0
  1  2  2  0
  2  3  1  0
  3  4  1  0
  4  5  1  0
  5  6  2  0
  5  7  1  0
  7  8  1  0
  8  9  1  0
  9 10  1  0
 10 11  1  0
 11 12  1  0
 12 13  1  0
 13 14  1  0
 14 15  1  0
 15 16  2  0
 16 17  1  0
 17 18  2  0
 18 19  1  0
 19 20  2  0
  2 21  1  0
 21 22  2  0
 22 23  1  0
 23 24  2  0
 24 25  1  0
 25 26  2  0
 26 27  1  0
 26 28  1  0
 28 29  2  0
 29 30  1  0
 30 31  2  0
 13  7  1  0
 20 15  1  0
 31 21  1  0
 30 24  1  0
  3 32  1  0
  4 33  1  0
  4 34  1  0
  8 35  1  0
  8 36  1  0
  9 37  1  0
  9 38  1  0
 10 39  1  0
 10 40  1  0
 11 41  1  0
 11 42  1  0
 12 43  1  0
 12 44  1  0
 13 45  1  1
 14 46  1  0
 14 47  1  0
 16 48  1  0
 17 49  1  0
 18 50  1  0
 19 51  1  0
 20 52  1  0
 22 53  1  0
 23 54  1  0
 25 55  1  0
 28 56  1  0
 29 57  1  0
M  END
>  <smiles>  (37) 
O=C(NCC(=O)N1CCCCCC1Cc1ccccc1)c1ccc2cc(Cl)ccc2n1

>  <score_type>  (37) 
oracle

>  <origin>  (37) 
autodockgpu

>  <m_score__min__energy>  (37) 
-7.04

>  <m_primary>  (37) 
energy

>  <rmsd>  (37) 
2.2792927190316745

>  <m_score__min__rmsd>  (37) 
2.2792927190316745

>  <meeko>  (37) 
{"free_energy": -6.0, "intermolecular_energy": -9.58, "internal_energy": -2.63, "cluster_size": 4, "cluster_id": 3, "rank_in_cluster": 4}

>  <energy>  (37) 
-6.0

>  <cluster_rmsd>  (37) 
0.67

>  <cluster>  (37) 
3

$$$$

     RDKit          3D

 57 60  0  0  0  0  0  0  0  0999 V2000
  138.2470   71.5860  221.2460 O   0  0  0  0  0  0  0  0  0  0  0  0
  138.8770   72.0770  222.2320 C   0  0  0  0  0  0  0  0  0  0  0  0
  139.2990   73.4320  222.2730 N   0  0  0  0  0  0  0  0  0  0  0  0
  139.0450   74.3610  221.1980 C   0  0  0  0  0  0  0  0  0  0  0  0
  140.1510   75.3560  221.1840 C   0  0  0  0  0  0  0  0  0  0  0  0
  141.1270   75.1180  221.9500 O   0  0  0  0  0  0  0  0  0  0  0  0
  140.1130   76.5250  220.3470 N   0  0  0  0  0  0  0  0  0  0  0  0
  140.1900   76.2300  218.9560 C   0  0  0  0  0  0  0  0  0  0  0  0
  140.5670   77.3680  218.0630 C   0  0  0  0  0  0  0  0  0  0  0  0
  139.5680   78.4850  218.0170 C   0  0  0  0  0  0  0  0  0  0  0  0
  139.5140   79.3470  219.2340 C   0  0  0  0  0  0  0  0  0  0  0  0
  140.4830   78.9310  220.3100 C   0  0  0  0  0  0  0  0  0  0  0  0
  140.0050   77.7570  221.0960 C   0  0  2  0  0  0  0  0  0  0  0  0
  140.7360   77.6880  222.4120 C   0  0  0  0  0  0  0  0  0  0  0  0
  141.2460   78.9760  222.8880 C   0  0  0  0  0  0  0  0  0  0  0  0
  142.5960   79.2760  222.9360 C   0  0  0  0  0  0  0  0  0  0  0  0
  143.0840   80.4860  223.3840 C   0  0  0  0  0  0  0  0  0  0  0  0
  142.2120   81.4640  223.8120 C   0  0  0  0  0  0  0  0  0  0  0  0
  140.8580   81.2020  223.7790 C   0  0  0  0  0  0  0  0  0  0  0  0
  140.3870   79.9810  223.3270 C   0  0  0  0  0  0  0  0  0  0  0  0
  139.1750   71.2070  223.3630 C   0  0  0  0  0  0  0  0  0  0  0  0
  138.8210   69.8750  223.3590 C   0  0  0  0  0  0  0  0  0  0  0  0
  139.0730   69.0070  224.3880 C   0  0  0  0  0  0  0  0  0  0  0  0
  139.7210   69.4930  225.5010 C   0  0  0  0  0  0  0  0  0  0  0  0
  139.9750   68.6280  226.5370 C   0  0  0  0  0  0  0  0  0  0  0  0
  140.6240   69.1310  227.6420 C   0  0  0  0  0  0  0  0  0  0  0  0
  141.0050   68.1170  229.0290 Cl  0  0  0  0  0  0  0  0  0  0  0  0
  140.9850   70.4540  227.6630 C   0  0  0  0  0  0  0  0  0  0  0  0
  140.7340   71.3340  226.6280 C   0  0  0  0  0  0  0  0  0  0  0  0
  140.0740   70.8160  225.5090 C   0  0  0  0  0  0  0  0  0  0  0  0
  139.8140   71.6560  224.4760 N   0  0  0  0  0  0  0  0  0  0  0  0
  139.8190   73.7550  223.1360 H   0  0  0  0  0  0  0  0  0  0  0  0
  139.0135   73.8234  220.2388 H   0  0  0  0  0  0  0  0  0  0  0  0
  138.0781   74.8642  221.3462 H   0  0  0  0  0  0  0  0  0  0  0  0
  140.9384   75.4351  218.8218 H   0  0  0  0  0  0  0  0  0  0  0  0
  139.1705   75.9448  218.6572 H   0  0  0  0  0  0  0  0  0  0  0  0
  141.5242   77.7786  218.4167 H   0  0  0  0  0  0  0  0  0  0  0  0
  140.6224   76.9582  217.0437 H   0  0  0  0  0  0  0  0  0  0  0  0
  139.8152   79.1260  217.1580 H   0  0  0  0  0  0  0  0  0  0  0  0
  138.5809   78.0054  217.9417 H   0  0  0  0  0  0  0  0  0  0  0  0
  139.7451   80.3811  218.9385 H   0  0  0  0  0  0  0  0  0  0  0  0
  138.5024   79.2488  219.6548 H   0  0  0  0  0  0  0  0  0  0  0  0
  141.4419   78.6710  219.8380 H   0  0  0  0  0  0  0  0  0  0  0  0
  140.5869   79.7759  221.0067 H   0  0  0  0  0  0  0  0  0  0  0  0
  138.9335   77.8918  221.3050 H   0  0  0  0  0  0  0  0  0  0  0  0
  140.0445   77.2904  223.1695 H   0  0  0  0  0  0  0  0  0  0  0  0
  141.6123   77.0428  222.2514 H   0  0  0  0  0  0  0  0  0  0  0  0
  143.3143   78.5132  222.6009 H   0  0  0  0  0  0  0  0  0  0  0  0
  144.1683   80.6703  223.3997 H   0  0  0  0  0  0  0  0  0  0  0  0
  142.5879   82.4330  224.1723 H   0  0  0  0  0  0  0  0  0  0  0  0
  140.1460   81.9702  224.1149 H   0  0  0  0  0  0  0  0  0  0  0  0
  139.3022   79.7991  223.3141 H   0  0  0  0  0  0  0  0  0  0  0  0
  138.3023   69.4835  222.4715 H   0  0  0  0  0  0  0  0  0  0  0  0
  138.7665   67.9523  224.3268 H   0  0  0  0  0  0  0  0  0  0  0  0
  139.6711   67.5721  226.4858 H   0  0  0  0  0  0  0  0  0  0  0  0
  141.5038   70.8361  228.5545 H   0  0  0  0  0  0  0  0  0  0  0  0
  141.0381   72.3898  226.6814 H   0  0  0  0  0  0  0  0  0  0  0  0
  1  2  2  0
  2  3  1  0
  3  4  1  0
  4  5  1  0
  5  6  2  0
  5  7  1  0
  7  8  1  0
  8  9  1  0
  9 10  1  0
 10 11  1  0
 11 12  1  0
 12 13  1  0
 13 14  1  0
 14 15  1  0
 15 16  2  0
 16 17  1  0
 17 18  2  0
 18 19  1  0
 19 20  2  0
  2 21  1  0
 21 22  2  0
 22 23  1  0
 23 24  2  0
 24 25  1  0
 25 26  2  0
 26 27  1  0
 26 28  1  0
 28 29  2  0
 29 30  1  0
 30 31  2  0
 13  7  1  0
 20 15  1  0
 31 21  1  0
 30 24  1  0
  3 32  1  0
  4 33  1  0
  4 34  1  0
  8 35  1  0
  8 36  1  0
  9 37  1  0
  9 38  1  0
 10 39  1  0
 10 40  1  0
 11 41  1  0
 11 42  1  0
 12 43  1  0
 12 44  1  0
 13 45  1  1
 14 46  1  0
 14 47  1  0
 16 48  1  0
 17 49  1  0
 18 50  1  0
 19 51  1  0
 20 52  1  0
 22 53  1  0
 23 54  1  0
 25 55  1  0
 28 56  1  0
 29 57  1  0
M  END
>  <smiles>  (38) 
O=C(NCC(=O)N1CCCCCC1Cc1ccccc1)c1ccc2cc(Cl)ccc2n1

>  <score_type>  (38) 
oracle

>  <origin>  (38) 
autodockgpu

>  <m_score__min__energy>  (38) 
-7.04

>  <m_primary>  (38) 
energy

>  <rmsd>  (38) 
1.8447632856777205

>  <m_score__min__rmsd>  (38) 
1.8447632856777205

>  <meeko>  (38) 
{"free_energy": -6.9, "intermolecular_energy": -10.48, "internal_energy": -2.12, "cluster_size": 28, "cluster_id": 1, "rank_in_cluster": 2}

>  <energy>  (38) 
-6.3

>  <cluster_rmsd>  (38) 
0.0

>  <cluster>  (38) 
4

$$$$

     RDKit          3D

 57 60  0  0  0  0  0  0  0  0999 V2000
  138.8470   71.3070  220.9210 O   0  0  0  0  0  0  0  0  0  0  0  0
  139.0750   71.8830  222.0280 C   0  0  0  0  0  0  0  0  0  0  0  0
  139.0760   73.2950  222.1720 N   0  0  0  0  0  0  0  0  0  0  0  0
  138.8190   74.1910  221.0700 C   0  0  0  0  0  0  0  0  0  0  0  0
  139.6910   75.3850  221.2390 C   0  0  0  0  0  0  0  0  0  0  0  0
  139.9810   75.7010  222.4270 O   0  0  0  0  0  0  0  0  0  0  0  0
  140.1760   76.1390  220.1140 N   0  0  0  0  0  0  0  0  0  0  0  0
  141.0250   75.3890  219.2520 C   0  0  0  0  0  0  0  0  0  0  0  0
  142.4840   75.7040  219.3310 C   0  0  0  0  0  0  0  0  0  0  0  0
  142.8250   77.1480  219.1140 C   0  0  0  0  0  0  0  0  0  0  0  0
  142.1200   78.1130  220.0070 C   0  0  0  0  0  0  0  0  0  0  0  0
  140.7200   78.4440  219.5530 C   0  0  0  0  0  0  0  0  0  0  0  0
  139.6980   77.5040  220.0960 C   0  0  2  0  0  0  0  0  0  0  0  0
  139.2470   77.9660  221.4570 C   0  0  0  0  0  0  0  0  0  0  0  0
  140.2130   78.8150  222.1580 C   0  0  0  0  0  0  0  0  0  0  0  0
  141.2050   78.3030  222.9770 C   0  0  0  0  0  0  0  0  0  0  0  0
  142.1170   79.0960  223.6420 C   0  0  0  0  0  0  0  0  0  0  0  0
  142.0660   80.4670  223.5050 C   0  0  0  0  0  0  0  0  0  0  0  0
  141.0910   81.0140  222.6970 C   0  0  0  0  0  0  0  0  0  0  0  0
  140.1830   80.2020  222.0390 C   0  0  0  0  0  0  0  0  0  0  0  0
  139.3450   71.0510  223.1950 C   0  0  0  0  0  0  0  0  0  0  0  0
  138.9690   69.7260  223.2360 C   0  0  0  0  0  0  0  0  0  0  0  0
  139.1950   68.8930  224.3000 C   0  0  0  0  0  0  0  0  0  0  0  0
  139.8370   69.4100  225.4020 C   0  0  0  0  0  0  0  0  0  0  0  0
  140.0660   68.5810  226.4730 C   0  0  0  0  0  0  0  0  0  0  0  0
  140.7100   69.1140  227.5660 C   0  0  0  0  0  0  0  0  0  0  0  0
  141.0570   68.1480  228.9940 Cl  0  0  0  0  0  0  0  0  0  0  0  0
  141.0920   70.4320  227.5420 C   0  0  0  0  0  0  0  0  0  0  0  0
  140.8670   71.2760  226.4710 C   0  0  0  0  0  0  0  0  0  0  0  0
  140.2120   70.7270  225.3650 C   0  0  0  0  0  0  0  0  0  0  0  0
  139.9780   71.5320  224.2980 N   0  0  0  0  0  0  0  0  0  0  0  0
  139.2770   73.6870  223.1330 H   0  0  0  0  0  0  0  0  0  0  0  0
  139.0515   73.6899  220.1188 H   0  0  0  0  0  0  0  0  0  0  0  0
  137.7601   74.4884  221.0567 H   0  0  0  0  0  0  0  0  0  0  0  0
  140.8971   74.3243  219.4970 H   0  0  0  0  0  0  0  0  0  0  0  0
  140.7194   75.6562  218.2297 H   0  0  0  0  0  0  0  0  0  0  0  0
  142.8440   75.4130  220.3288 H   0  0  0  0  0  0  0  0  0  0  0  0
  142.9676   75.1444  218.5167 H   0  0  0  0  0  0  0  0  0  0  0  0
  143.9070   77.2685  219.2710 H   0  0  0  0  0  0  0  0  0  0  0  0
  142.4975   77.3865  218.0913 H   0  0  0  0  0  0  0  0  0  0  0  0
  142.0646   77.6770  221.0154 H   0  0  0  0  0  0  0  0  0  0  0  0
  142.6955   79.0502  219.9875 H   0  0  0  0  0  0  0  0  0  0  0  0
  140.4737   79.4624  219.8879 H   0  0  0  0  0  0  0  0  0  0  0  0
  140.6989   78.3581  218.4566 H   0  0  0  0  0  0  0  0  0  0  0  0
  138.8265   77.5120  219.4249 H   0  0  0  0  0  0  0  0  0  0  0  0
  138.3134   78.5349  221.3354 H   0  0  0  0  0  0  0  0  0  0  0  0
  139.1208   77.0614  222.0700 H   0  0  0  0  0  0  0  0  0  0  0  0
  141.2689   77.2122  223.1034 H   0  0  0  0  0  0  0  0  0  0  0  0
  142.8844   78.6349  224.2811 H   0  0  0  0  0  0  0  0  0  0  0  0
  142.7876   81.1110  224.0290 H   0  0  0  0  0  0  0  0  0  0  0  0
  141.0344   82.1057  222.5743 H   0  0  0  0  0  0  0  0  0  0  0  0
  139.4149   80.6665  221.4032 H   0  0  0  0  0  0  0  0  0  0  0  0
  138.4540   69.3101  222.3575 H   0  0  0  0  0  0  0  0  0  0  0  0
  138.8727   67.8416  224.2742 H   0  0  0  0  0  0  0  0  0  0  0  0
  139.7460   67.5287  226.4575 H   0  0  0  0  0  0  0  0  0  0  0  0
  141.6062   70.8395  228.4249 H   0  0  0  0  0  0  0  0  0  0  0  0
  141.1876   72.3281  226.4881 H   0  0  0  0  0  0  0  0  0  0  0  0
  1  2  2  0
  2  3  1  0
  3  4  1  0
  4  5  1  0
  5  6  2  0
  5  7  1  0
  7  8  1  0
  8  9  1  0
  9 10  1  0
 10 11  1  0
 11 12  1  0
 12 13  1  0
 13 14  1  0
 14 15  1  0
 15 16  2  0
 16 17  1  0
 17 18  2  0
 18 19  1  0
 19 20  2  0
  2 21  1  0
 21 22  2  0
 22 23  1  0
 23 24  2  0
 24 25  1  0
 25 26  2  0
 26 27  1  0
 26 28  1  0
 28 29  2  0
 29 30  1  0
 30 31  2  0
 13  7  1  0
 20 15  1  0
 31 21  1  0
 30 24  1  0
  3 32  1  0
  4 33  1  0
  4 34  1  0
  8 35  1  0
  8 36  1  0
  9 37  1  0
  9 38  1  0
 10 39  1  0
 10 40  1  0
 11 41  1  0
 11 42  1  0
 12 43  1  0
 12 44  1  0
 13 45  1  6
 14 46  1  0
 14 47  1  0
 16 48  1  0
 17 49  1  0
 18 50  1  0
 19 51  1  0
 20 52  1  0
 22 53  1  0
 23 54  1  0
 25 55  1  0
 28 56  1  0
 29 57  1  0
M  END
>  <smiles>  (39) 
O=C(NCC(=O)N1CCCCCC1Cc1ccccc1)c1ccc2cc(Cl)ccc2n1

>  <score_type>  (39) 
oracle

>  <origin>  (39) 
autodockgpu

>  <m_score__min__energy>  (39) 
-7.04

>  <m_primary>  (39) 
energy

>  <rmsd>  (39) 
1.8404064509422777

>  <m_score__min__rmsd>  (39) 
1.8404064509422777

>  <meeko>  (39) 
{"free_energy": -6.83, "intermolecular_energy": -10.41, "internal_energy": -1.97, "cluster_size": 28, "cluster_id": 1, "rank_in_cluster": 4}

>  <energy>  (39) 
-6.21

>  <cluster_rmsd>  (39) 
0.62

>  <cluster>  (39) 
4

$$$$

     RDKit          3D

 57 60  0  0  0  0  0  0  0  0999 V2000
  139.0100   73.2570  221.5030 O   0  0  0  0  0  0  0  0  0  0  0  0
  140.1280   72.9120  221.9920 C   0  0  0  0  0  0  0  0  0  0  0  0
  141.3630   73.4310  221.5230 N   0  0  0  0  0  0  0  0  0  0  0  0
  141.4470   74.3930  220.4500 C   0  0  0  0  0  0  0  0  0  0  0  0
  141.2560   75.7470  221.0340 C   0  0  0  0  0  0  0  0  0  0  0  0
  141.2640   75.8180  222.2950 O   0  0  0  0  0  0  0  0  0  0  0  0
  141.0710   76.9130  220.2100 N   0  0  0  0  0  0  0  0  0  0  0  0
  142.1720   77.1780  219.3470 C   0  0  0  0  0  0  0  0  0  0  0  0
  141.8290   77.5290  217.9350 C   0  0  0  0  0  0  0  0  0  0  0  0
  140.4910   77.0330  217.4740 C   0  0  0  0  0  0  0  0  0  0  0  0
  139.3140   77.7870  217.9960 C   0  0  0  0  0  0  0  0  0  0  0  0
  138.8320   77.2970  219.3370 C   0  0  0  0  0  0  0  0  0  0  0  0
  139.8040   77.5710  220.4340 C   0  0  2  0  0  0  0  0  0  0  0  0
  139.9610   79.0590  220.6220 C   0  0  0  0  0  0  0  0  0  0  0  0
  140.8710   79.4380  221.7060 C   0  0  0  0  0  0  0  0  0  0  0  0
  141.7470   80.5040  221.6100 C   0  0  0  0  0  0  0  0  0  0  0  0
  142.6070   80.8660  222.6250 C   0  0  0  0  0  0  0  0  0  0  0  0
  142.6190   80.1520  223.8050 C   0  0  0  0  0  0  0  0  0  0  0  0
  141.7590   79.0820  223.9380 C   0  0  0  0  0  0  0  0  0  0  0  0
  140.9040   78.7330  222.9060 C   0  0  0  0  0  0  0  0  0  0  0  0
  140.1350   71.9440  223.0820 C   0  0  0  0  0  0  0  0  0  0  0  0
  139.6060   70.6800  222.9250 C   0  0  0  0  0  0  0  0  0  0  0  0
  139.5820   69.7270  223.9080 C   0  0  0  0  0  0  0  0  0  0  0  0
  140.1200   70.0480  225.1350 C   0  0  0  0  0  0  0  0  0  0  0  0
  140.0990   69.0970  226.1250 C   0  0  0  0  0  0  0  0  0  0  0  0
  140.6410   69.4340  227.3440 C   0  0  0  0  0  0  0  0  0  0  0  0
  140.6710   68.2970  228.6870 Cl  0  0  0  0  0  0  0  0  0  0  0  0
  141.1720   70.6870  227.5180 C   0  0  0  0  0  0  0  0  0  0  0  0
  141.1990   71.6520  226.5300 C   0  0  0  0  0  0  0  0  0  0  0  0
  140.6460   71.3020  225.2940 C   0  0  0  0  0  0  0  0  0  0  0  0
  140.6580   72.2300  224.3040 N   0  0  0  0  0  0  0  0  0  0  0  0
  142.2470   73.0860  221.9910 H   0  0  0  0  0  0  0  0  0  0  0  0
  142.4336   74.3298  219.9678 H   0  0  0  0  0  0  0  0  0  0  0  0
  140.6757   74.1902  219.6924 H   0  0  0  0  0  0  0  0  0  0  0  0
  142.7396   78.0179  219.7740 H   0  0  0  0  0  0  0  0  0  0  0  0
  142.7366   76.2357  219.2892 H   0  0  0  0  0  0  0  0  0  0  0  0
  141.8388   78.6250  217.8422 H   0  0  0  0  0  0  0  0  0  0  0  0
  142.5794   77.0346  217.3006 H   0  0  0  0  0  0  0  0  0  0  0  0
  140.4689   77.0876  216.3756 H   0  0  0  0  0  0  0  0  0  0  0  0
  140.3948   76.0105  217.8680 H   0  0  0  0  0  0  0  0  0  0  0  0
  139.5943   78.8463  218.0927 H   0  0  0  0  0  0  0  0  0  0  0  0
  138.4910   77.6363  217.2819 H   0  0  0  0  0  0  0  0  0  0  0  0
  137.8827   77.7993  219.5746 H   0  0  0  0  0  0  0  0  0  0  0  0
  138.7092   76.2061  219.2672 H   0  0  0  0  0  0  0  0  0  0  0  0
  139.4034   77.1476  221.3669 H   0  0  0  0  0  0  0  0  0  0  0  0
  140.3460   79.4858  219.6841 H   0  0  0  0  0  0  0  0  0  0  0  0
  138.9687   79.4482  220.8937 H   0  0  0  0  0  0  0  0  0  0  0  0
  141.7581   81.0908  220.6797 H   0  0  0  0  0  0  0  0  0  0  0  0
  143.2831   81.7237  222.4938 H   0  0  0  0  0  0  0  0  0  0  0  0
  143.3001   80.4301  224.6228 H   0  0  0  0  0  0  0  0  0  0  0  0
  141.7522   78.5008  224.8719 H   0  0  0  0  0  0  0  0  0  0  0  0
  140.2309   77.8731  223.0384 H   0  0  0  0  0  0  0  0  0  0  0  0
  139.1754   70.4206  221.9466 H   0  0  0  0  0  0  0  0  0  0  0  0
  139.1459   68.7342  223.7234 H   0  0  0  0  0  0  0  0  0  0  0  0
  139.6646   68.1017  225.9500 H   0  0  0  0  0  0  0  0  0  0  0  0
  141.6004   70.9373  228.4997 H   0  0  0  0  0  0  0  0  0  0  0  0
  141.6340   72.6468  226.7067 H   0  0  0  0  0  0  0  0  0  0  0  0
  1  2  2  0
  2  3  1  0
  3  4  1  0
  4  5  1  0
  5  6  2  0
  5  7  1  0
  7  8  1  0
  8  9  1  0
  9 10  1  0
 10 11  1  0
 11 12  1  0
 12 13  1  0
 13 14  1  0
 14 15  1  0
 15 16  2  0
 16 17  1  0
 17 18  2  0
 18 19  1  0
 19 20  2  0
  2 21  1  0
 21 22  2  0
 22 23  1  0
 23 24  2  0
 24 25  1  0
 25 26  2  0
 26 27  1  0
 26 28  1  0
 28 29  2  0
 29 30  1  0
 30 31  2  0
 13  7  1  0
 20 15  1  0
 31 21  1  0
 30 24  1  0
  3 32  1  0
  4 33  1  0
  4 34  1  0
  8 35  1  0
  8 36  1  0
  9 37  1  0
  9 38  1  0
 10 39  1  0
 10 40  1  0
 11 41  1  0
 11 42  1  0
 12 43  1  0
 12 44  1  0
 13 45  1  1
 14 46  1  0
 14 47  1  0
 16 48  1  0
 17 49  1  0
 18 50  1  0
 19 51  1  0
 20 52  1  0
 22 53  1  0
 23 54  1  0
 25 55  1  0
 28 56  1  0
 29 57  1  0
M  END
>  <smiles>  (40) 
O=C(NCC(=O)N1CCCCCC1Cc1ccccc1)c1ccc2cc(Cl)ccc2n1

>  <score_type>  (40) 
oracle

>  <origin>  (40) 
autodockgpu

>  <m_score__min__energy>  (40) 
-7.04

>  <m_primary>  (40) 
energy

>  <rmsd>  (40) 
2.5340953530153763

>  <m_score__min__rmsd>  (40) 
2.5340953530153763

>  <meeko>  (40) 
{"free_energy": -6.03, "intermolecular_energy": -9.61, "internal_energy": -1.98, "cluster_size": 28, "cluster_id": 1, "rank_in_cluster": 23}

>  <energy>  (40) 
-6.01

>  <cluster_rmsd>  (40) 
0.47

>  <cluster>  (40) 
4

$$$$

     RDKit          3D

 57 60  0  0  0  0  0  0  0  0999 V2000
  136.4500   74.7410  221.3540 O   0  0  0  0  0  0  0  0  0  0  0  0
  137.5940   74.8050  221.9000 C   0  0  0  0  0  0  0  0  0  0  0  0
  138.3200   73.6520  222.2960 N   0  0  0  0  0  0  0  0  0  0  0  0
  137.8160   72.3120  222.1130 C   0  0  0  0  0  0  0  0  0  0  0  0
  138.9220   71.3630  222.4150 C   0  0  0  0  0  0  0  0  0  0  0  0
  139.9520   71.8590  222.9530 O   0  0  0  0  0  0  0  0  0  0  0  0
  138.8250   69.9600  222.1110 N   0  0  0  0  0  0  0  0  0  0  0  0
  138.6040   69.6930  220.7300 C   0  0  0  0  0  0  0  0  0  0  0  0
  139.3170   68.5050  220.1690 C   0  0  0  0  0  0  0  0  0  0  0  0
  138.8320   67.1830  220.6830 C   0  0  0  0  0  0  0  0  0  0  0  0
  139.1300   66.9060  222.1190 C   0  0  0  0  0  0  0  0  0  0  0  0
  138.3520   67.7750  223.0730 C   0  0  0  0  0  0  0  0  0  0  0  0
  138.9730   69.1150  223.2750 C   0  0  2  0  0  0  0  0  0  0  0  0
  138.4160   69.7580  224.5190 C   0  0  0  0  0  0  0  0  0  0  0  0
  139.3080   69.7030  225.6790 C   0  0  0  0  0  0  0  0  0  0  0  0
  139.5020   68.5520  226.4220 C   0  0  0  0  0  0  0  0  0  0  0  0
  140.3390   68.4930  227.5160 C   0  0  0  0  0  0  0  0  0  0  0  0
  141.0310   69.6170  227.9150 C   0  0  0  0  0  0  0  0  0  0  0  0
  140.8640   70.7840  227.1990 C   0  0  0  0  0  0  0  0  0  0  0  0
  140.0180   70.8240  226.1040 C   0  0  0  0  0  0  0  0  0  0  0  0
  138.1790   76.1220  222.1230 C   0  0  0  0  0  0  0  0  0  0  0  0
  137.4310   77.2730  221.9900 C   0  0  0  0  0  0  0  0  0  0  0  0
  137.9200   78.5370  222.1870 C   0  0  0  0  0  0  0  0  0  0  0  0
  139.2440   78.6720  222.5380 C   0  0  0  0  0  0  0  0  0  0  0  0
  139.7420   79.9370  222.7350 C   0  0  0  0  0  0  0  0  0  0  0  0
  141.0670   80.0530  223.0860 C   0  0  0  0  0  0  0  0  0  0  0  0
  141.8140   81.6210  223.3660 Cl  0  0  0  0  0  0  0  0  0  0  0  0
  141.8270   78.9180  223.2230 C   0  0  0  0  0  0  0  0  0  0  0  0
  141.3380   77.6400  223.0260 C   0  0  0  0  0  0  0  0  0  0  0  0
  139.9900   77.5310  222.6700 C   0  0  0  0  0  0  0  0  0  0  0  0
  139.4820   76.2890  222.4700 N   0  0  0  0  0  0  0  0  0  0  0  0
  139.2670   73.8020  222.7440 H   0  0  0  0  0  0  0  0  0  0  0  0
  136.9728   72.1331  222.7964 H   0  0  0  0  0  0  0  0  0  0  0  0
  137.4624   72.1729  221.0807 H   0  0  0  0  0  0  0  0  0  0  0  0
  137.5247   69.5364  220.5862 H   0  0  0  0  0  0  0  0  0  0  0  0
  139.0089   70.5627  220.1918 H   0  0  0  0  0  0  0  0  0  0  0  0
  139.1916   68.5146  219.0762 H   0  0  0  0  0  0  0  0  0  0  0  0
  140.3668   68.5950  220.4850 H   0  0  0  0  0  0  0  0  0  0  0  0
  137.7407   67.1468  220.5498 H   0  0  0  0  0  0  0  0  0  0  0  0
  139.3733   66.4172  220.1080 H   0  0  0  0  0  0  0  0  0  0  0  0
  138.8862   65.8540  222.3285 H   0  0  0  0  0  0  0  0  0  0  0  0
  140.1961   67.1266  222.2765 H   0  0  0  0  0  0  0  0  0  0  0  0
  137.3373   67.9152  222.6721 H   0  0  0  0  0  0  0  0  0  0  0  0
  138.3402   67.2662  224.0482 H   0  0  0  0  0  0  0  0  0  0  0  0
  140.0555   68.9784  223.4152 H   0  0  0  0  0  0  0  0  0  0  0  0
  138.2063   70.8145  224.2959 H   0  0  0  0  0  0  0  0  0  0  0  0
  137.5137   69.1898  224.7893 H   0  0  0  0  0  0  0  0  0  0  0  0
  138.9626   67.6403  226.1256 H   0  0  0  0  0  0  0  0  0  0  0  0
  140.4547   67.5499  228.0702 H   0  0  0  0  0  0  0  0  0  0  0  0
  141.7021   69.5836  228.7859 H   0  0  0  0  0  0  0  0  0  0  0  0
  141.4080   71.6912  227.5008 H   0  0  0  0  0  0  0  0  0  0  0  0
  139.9029   71.7690  225.5530 H   0  0  0  0  0  0  0  0  0  0  0  0
  136.3730   77.1691  221.7074 H   0  0  0  0  0  0  0  0  0  0  0  0
  137.2733   79.4189  222.0681 H   0  0  0  0  0  0  0  0  0  0  0  0
  139.1042   80.8253  222.6163 H   0  0  0  0  0  0  0  0  0  0  0  0
  142.8841   79.0318  223.5053 H   0  0  0  0  0  0  0  0  0  0  0  0
  141.9776   76.7528  223.1435 H   0  0  0  0  0  0  0  0  0  0  0  0
  1  2  2  0
  2  3  1  0
  3  4  1  0
  4  5  1  0
  5  6  2  0
  5  7  1  0
  7  8  1  0
  8  9  1  0
  9 10  1  0
 10 11  1  0
 11 12  1  0
 12 13  1  0
 13 14  1  0
 14 15  1  0
 15 16  2  0
 16 17  1  0
 17 18  2  0
 18 19  1  0
 19 20  2  0
  2 21  1  0
 21 22  2  0
 22 23  1  0
 23 24  2  0
 24 25  1  0
 25 26  2  0
 26 27  1  0
 26 28  1  0
 28 29  2  0
 29 30  1  0
 30 31  2  0
 13  7  1  0
 20 15  1  0
 31 21  1  0
 30 24  1  0
  3 32  1  0
  4 33  1  0
  4 34  1  0
  8 35  1  0
  8 36  1  0
  9 37  1  0
  9 38  1  0
 10 39  1  0
 10 40  1  0
 11 41  1  0
 11 42  1  0
 12 43  1  0
 12 44  1  0
 13 45  1  1
 14 46  1  0
 14 47  1  0
 16 48  1  0
 17 49  1  0
 18 50  1  0
 19 51  1  0
 20 52  1  0
 22 53  1  0
 23 54  1  0
 25 55  1  0
 28 56  1  0
 29 57  1  0
M  END
>  <smiles>  (41) 
O=C(NCC(=O)N1CCCCCC1Cc1ccccc1)c1ccc2cc(Cl)ccc2n1

>  <score_type>  (41) 
oracle

>  <origin>  (41) 
autodockgpu

>  <m_score__min__energy>  (41) 
-7.04

>  <m_primary>  (41) 
energy

>  <rmsd>  (41) 
7.949466074055039

>  <m_score__min__rmsd>  (41) 
7.949466074055039

>  <meeko>  (41) 
{"free_energy": -5.9, "intermolecular_energy": -9.48, "internal_energy": -2.4, "cluster_size": 2, "cluster_id": 6, "rank_in_cluster": 1}

>  <energy>  (41) 
-5.86

>  <cluster_rmsd>  (41) 
1.09

>  <cluster>  (41) 
4

$$$$

     RDKit          3D

 57 60  0  0  0  0  0  0  0  0999 V2000
  139.2390   71.9020  220.7920 O   0  0  0  0  0  0  0  0  0  0  0  0
  139.3950   72.4070  221.9450 C   0  0  0  0  0  0  0  0  0  0  0  0
  139.4280   73.8080  222.1690 N   0  0  0  0  0  0  0  0  0  0  0  0
  139.2870   74.7720  221.1040 C   0  0  0  0  0  0  0  0  0  0  0  0
  140.4290   75.7220  221.1930 C   0  0  0  0  0  0  0  0  0  0  0  0
  141.3520   75.4120  221.9990 O   0  0  0  0  0  0  0  0  0  0  0  0
  140.4810   76.9260  220.4080 N   0  0  0  0  0  0  0  0  0  0  0  0
  139.1990   77.4910  220.1510 C   0  0  0  0  0  0  0  0  0  0  0  0
  138.9200   78.8080  220.8010 C   0  0  0  0  0  0  0  0  0  0  0  0
  139.8290   79.9220  220.3760 C   0  0  0  0  0  0  0  0  0  0  0  0
  141.2840   79.6820  220.6030 C   0  0  0  0  0  0  0  0  0  0  0  0
  141.9010   78.7340  219.6090 C   0  0  0  0  0  0  0  0  0  0  0  0
  141.8260   77.3100  220.0440 C   0  0  2  0  0  0  0  0  0  0  0  0
  142.4030   76.4160  218.9760 C   0  0  0  0  0  0  0  0  0  0  0  0
  143.0710   75.2170  219.4880 C   0  0  0  0  0  0  0  0  0  0  0  0
  144.3230   75.2500  220.0770 C   0  0  0  0  0  0  0  0  0  0  0  0
  144.9580   74.1260  220.5600 C   0  0  0  0  0  0  0  0  0  0  0  0
  144.3450   72.8940  220.4670 C   0  0  0  0  0  0  0  0  0  0  0  0
  143.0960   72.8210  219.8860 C   0  0  0  0  0  0  0  0  0  0  0  0
  142.4740   73.9610  219.4060 C   0  0  0  0  0  0  0  0  0  0  0  0
  139.5460   71.5040  223.0790 C   0  0  0  0  0  0  0  0  0  0  0  0
  139.0140   70.2320  223.0610 C   0  0  0  0  0  0  0  0  0  0  0  0
  139.1210   69.3370  224.0930 C   0  0  0  0  0  0  0  0  0  0  0  0
  139.8040   69.7300  225.2220 C   0  0  0  0  0  0  0  0  0  0  0  0
  139.9140   68.8370  226.2600 C   0  0  0  0  0  0  0  0  0  0  0  0
  140.6000   69.2460  227.3820 C   0  0  0  0  0  0  0  0  0  0  0  0
  140.8070   68.1890  228.7730 Cl  0  0  0  0  0  0  0  0  0  0  0  0
  141.1370   70.5080  227.4170 C   0  0  0  0  0  0  0  0  0  0  0  0
  141.0310   71.4150  226.3790 C   0  0  0  0  0  0  0  0  0  0  0  0
  140.3330   70.9920  225.2440 C   0  0  0  0  0  0  0  0  0  0  0  0
  140.2130   71.8610  224.2080 N   0  0  0  0  0  0  0  0  0  0  0  0
  139.5630   74.1400  223.1650 H   0  0  0  0  0  0  0  0  0  0  0  0
  139.3025   74.2590  220.1311 H   0  0  0  0  0  0  0  0  0  0  0  0
  138.3324   75.3104  221.1983 H   0  0  0  0  0  0  0  0  0  0  0  0
  139.1026   77.6255  219.0635 H   0  0  0  0  0  0  0  0  0  0  0  0
  138.4730   76.7873  220.5842 H   0  0  0  0  0  0  0  0  0  0  0  0
  137.8868   79.0976  220.5586 H   0  0  0  0  0  0  0  0  0  0  0  0
  139.0880   78.6642  221.8785 H   0  0  0  0  0  0  0  0  0  0  0  0
  139.6769   80.0925  219.3000 H   0  0  0  0  0  0  0  0  0  0  0  0
  139.5628   80.7863  221.0022 H   0  0  0  0  0  0  0  0  0  0  0  0
  141.8099   80.6459  220.5369 H   0  0  0  0  0  0  0  0  0  0  0  0
  141.3834   79.2183  221.5955 H   0  0  0  0  0  0  0  0  0  0  0  0
  141.3716   78.8368  218.6502 H   0  0  0  0  0  0  0  0  0  0  0  0
  142.9653   78.9965  219.5182 H   0  0  0  0  0  0  0  0  0  0  0  0
  142.4315   77.1926  220.9548 H   0  0  0  0  0  0  0  0  0  0  0  0
  141.5841   76.0977  218.3140 H   0  0  0  0  0  0  0  0  0  0  0  0
  143.1712   77.0053  218.4539 H   0  0  0  0  0  0  0  0  0  0  0  0
  144.8357   76.2193  220.1638 H   0  0  0  0  0  0  0  0  0  0  0  0
  145.9537   74.2116  221.0196 H   0  0  0  0  0  0  0  0  0  0  0  0
  144.8413   71.9892  220.8479 H   0  0  0  0  0  0  0  0  0  0  0  0
  142.5895   71.8480  219.8033 H   0  0  0  0  0  0  0  0  0  0  0  0
  141.4787   73.8723  218.9462 H   0  0  0  0  0  0  0  0  0  0  0  0
  138.4684   69.9153  222.1599 H   0  0  0  0  0  0  0  0  0  0  0  0
  138.6745   68.3343  224.0216 H   0  0  0  0  0  0  0  0  0  0  0  0
  139.4705   67.8323  226.1974 H   0  0  0  0  0  0  0  0  0  0  0  0
  141.6823   70.8154  228.3215 H   0  0  0  0  0  0  0  0  0  0  0  0
  141.4740   72.4198  226.4430 H   0  0  0  0  0  0  0  0  0  0  0  0
  1  2  2  0
  2  3  1  0
  3  4  1  0
  4  5  1  0
  5  6  2  0
  5  7  1  0
  7  8  1  0
  8  9  1  0
  9 10  1  0
 10 11  1  0
 11 12  1  0
 12 13  1  0
 13 14  1  0
 14 15  1  0
 15 16  2  0
 16 17  1  0
 17 18  2  0
 18 19  1  0
 19 20  2  0
  2 21  1  0
 21 22  2  0
 22 23  1  0
 23 24  2  0
 24 25  1  0
 25 26  2  0
 26 27  1  0
 26 28  1  0
 28 29  2  0
 29 30  1  0
 30 31  2  0
 13  7  1  0
 20 15  1  0
 31 21  1  0
 30 24  1  0
  3 32  1  0
  4 33  1  0
  4 34  1  0
  8 35  1  0
  8 36  1  0
  9 37  1  0
  9 38  1  0
 10 39  1  0
 10 40  1  0
 11 41  1  0
 11 42  1  0
 12 43  1  0
 12 44  1  0
 13 45  1  1
 14 46  1  0
 14 47  1  0
 16 48  1  0
 17 49  1  0
 18 50  1  0
 19 51  1  0
 20 52  1  0
 22 53  1  0
 23 54  1  0
 25 55  1  0
 28 56  1  0
 29 57  1  0
M  END
>  <smiles>  (42) 
O=C(NCC(=O)N1CCCCCC1Cc1ccccc1)c1ccc2cc(Cl)ccc2n1

>  <score_type>  (42) 
oracle

>  <origin>  (42) 
autodockgpu

>  <m_score__min__energy>  (42) 
-7.04

>  <m_primary>  (42) 
energy

>  <rmsd>  (42) 
2.094148792668025

>  <m_score__min__rmsd>  (42) 
2.094148792668025

>  <meeko>  (42) 
{"free_energy": -6.23, "intermolecular_energy": -9.81, "internal_energy": -2.38, "cluster_size": 4, "cluster_id": 3, "rank_in_cluster": 2}

>  <energy>  (42) 
-5.41

>  <cluster_rmsd>  (42) 
1.31

>  <cluster>  (42) 
4

$$$$

     RDKit          3D

 57 60  0  0  0  0  0  0  0  0999 V2000
  138.9650   71.9320  220.8050 O   0  0  0  0  0  0  0  0  0  0  0  0
  139.2390   72.4470  221.9320 C   0  0  0  0  0  0  0  0  0  0  0  0
  139.3560   73.8480  222.1260 N   0  0  0  0  0  0  0  0  0  0  0  0
  139.1730   74.8020  221.0590 C   0  0  0  0  0  0  0  0  0  0  0  0
  140.2030   75.8640  221.2140 C   0  0  0  0  0  0  0  0  0  0  0  0
  140.8440   75.8660  222.3020 O   0  0  0  0  0  0  0  0  0  0  0  0
  140.4560   76.8360  220.1830 N   0  0  0  0  0  0  0  0  0  0  0  0
  141.2470   76.3330  219.1110 C   0  0  0  0  0  0  0  0  0  0  0  0
  142.5630   77.0080  218.8940 C   0  0  0  0  0  0  0  0  0  0  0  0
  142.4690   78.4200  218.4000 C   0  0  0  0  0  0  0  0  0  0  0  0
  141.1210   79.0500  218.5160 C   0  0  0  0  0  0  0  0  0  0  0  0
  140.6870   79.2470  219.9440 C   0  0  0  0  0  0  0  0  0  0  0  0
  139.8530   78.1210  220.4550 C   0  0  2  0  0  0  0  0  0  0  0  0
  139.5680   78.3170  221.9210 C   0  0  0  0  0  0  0  0  0  0  0  0
  140.5350   79.1710  222.6160 C   0  0  0  0  0  0  0  0  0  0  0  0
  140.2070   80.4180  223.1200 C   0  0  0  0  0  0  0  0  0  0  0  0
  141.1120   81.2280  223.7730 C   0  0  0  0  0  0  0  0  0  0  0  0
  142.4120   80.8050  223.9500 C   0  0  0  0  0  0  0  0  0  0  0  0
  142.7770   79.5680  223.4620 C   0  0  0  0  0  0  0  0  0  0  0  0
  141.8540   78.7690  222.8070 C   0  0  0  0  0  0  0  0  0  0  0  0
  139.4390   71.5550  223.0670 C   0  0  0  0  0  0  0  0  0  0  0  0
  138.9600   70.2620  223.0590 C   0  0  0  0  0  0  0  0  0  0  0  0
  139.1160   69.3760  224.0920 C   0  0  0  0  0  0  0  0  0  0  0  0
  139.7930   69.8000  225.2130 C   0  0  0  0  0  0  0  0  0  0  0  0
  139.9530   68.9170  226.2520 C   0  0  0  0  0  0  0  0  0  0  0  0
  140.6330   69.3570  227.3640 C   0  0  0  0  0  0  0  0  0  0  0  0
  140.8990   68.3140  228.7560 Cl  0  0  0  0  0  0  0  0  0  0  0  0
  141.1170   70.6400  227.3900 C   0  0  0  0  0  0  0  0  0  0  0  0
  140.9630   71.5380  226.3500 C   0  0  0  0  0  0  0  0  0  0  0  0
  140.2710   71.0830  225.2240 C   0  0  0  0  0  0  0  0  0  0  0  0
  140.1040   71.9430  224.1880 N   0  0  0  0  0  0  0  0  0  0  0  0
  139.5870   74.1880  223.1010 H   0  0  0  0  0  0  0  0  0  0  0  0
  139.2943   74.3028  220.0863 H   0  0  0  0  0  0  0  0  0  0  0  0
  138.1638   75.2375  221.1031 H   0  0  0  0  0  0  0  0  0  0  0  0
  141.4432   75.2688  219.3082 H   0  0  0  0  0  0  0  0  0  0  0  0
  140.6631   76.5218  218.1981 H   0  0  0  0  0  0  0  0  0  0  0  0
  143.1062   77.0151  219.8505 H   0  0  0  0  0  0  0  0  0  0  0  0
  143.0787   76.4375  218.1075 H   0  0  0  0  0  0  0  0  0  0  0  0
  143.1795   79.0297  218.9775 H   0  0  0  0  0  0  0  0  0  0  0  0
  142.6936   78.3804  217.3239 H   0  0  0  0  0  0  0  0  0  0  0  0
  141.1481   80.0309  218.0190 H   0  0  0  0  0  0  0  0  0  0  0  0
  140.3974   78.3706  218.0420 H   0  0  0  0  0  0  0  0  0  0  0  0
  141.5837   79.3347  220.5750 H   0  0  0  0  0  0  0  0  0  0  0  0
  140.0717   80.1581  219.9805 H   0  0  0  0  0  0  0  0  0  0  0  0
  138.8941   78.1259  219.9160 H   0  0  0  0  0  0  0  0  0  0  0  0
  138.5721   78.7735  222.0200 H   0  0  0  0  0  0  0  0  0  0  0  0
  139.6324   77.3237  222.3892 H   0  0  0  0  0  0  0  0  0  0  0  0
  139.1759   80.7797  222.9936 H   0  0  0  0  0  0  0  0  0  0  0  0
  140.7967   82.2112  224.1525 H   0  0  0  0  0  0  0  0  0  0  0  0
  143.1433   81.4413  224.4699 H   0  0  0  0  0  0  0  0  0  0  0  0
  143.8096   79.2127  223.5939 H   0  0  0  0  0  0  0  0  0  0  0  0
  142.1730   77.7875  222.4264 H   0  0  0  0  0  0  0  0  0  0  0  0
  138.4175   69.9199  222.1653 H   0  0  0  0  0  0  0  0  0  0  0  0
  138.7118   68.3550  224.0275 H   0  0  0  0  0  0  0  0  0  0  0  0
  139.5518   67.8942  226.1973 H   0  0  0  0  0  0  0  0  0  0  0  0
  141.6578   70.9731  228.2881 H   0  0  0  0  0  0  0  0  0  0  0  0
  141.3653   72.5603  226.4060 H   0  0  0  0  0  0  0  0  0  0  0  0
  1  2  2  0
  2  3  1  0
  3  4  1  0
  4  5  1  0
  5  6  2  0
  5  7  1  0
  7  8  1  0
  8  9  1  0
  9 10  1  0
 10 11  1  0
 11 12  1  0
 12 13  1  0
 13 14  1  0
 14 15  1  0
 15 16  2  0
 16 17  1  0
 17 18  2  0
 18 19  1  0
 19 20  2  0
  2 21  1  0
 21 22  2  0
 22 23  1  0
 23 24  2  0
 24 25  1  0
 25 26  2  0
 26 27  1  0
 26 28  1  0
 28 29  2  0
 29 30  1  0
 30 31  2  0
 13  7  1  0
 20 15  1  0
 31 21  1  0
 30 24  1  0
  3 32  1  0
  4 33  1  0
  4 34  1  0
  8 35  1  0
  8 36  1  0
  9 37  1  0
  9 38  1  0
 10 39  1  0
 10 40  1  0
 11 41  1  0
 11 42  1  0
 12 43  1  0
 12 44  1  0
 13 45  1  6
 14 46  1  0
 14 47  1  0
 16 48  1  0
 17 49  1  0
 18 50  1  0
 19 51  1  0
 20 52  1  0
 22 53  1  0
 23 54  1  0
 25 55  1  0
 28 56  1  0
 29 57  1  0
M  END
>  <smiles>  (43) 
O=C(NCC(=O)N1CCCCCC1Cc1ccccc1)c1ccc2cc(Cl)ccc2n1

>  <score_type>  (43) 
oracle

>  <origin>  (43) 
autodockgpu

>  <m_score__min__energy>  (43) 
-7.04

>  <m_primary>  (43) 
energy

>  <rmsd>  (43) 
2.112030954495122

>  <m_score__min__rmsd>  (43) 
2.112030954495122

>  <meeko>  (43) 
{"free_energy": -6.23, "intermolecular_energy": -9.81, "internal_energy": -2.4, "cluster_size": 28, "cluster_id": 1, "rank_in_cluster": 18}

>  <energy>  (43) 
-6.25

>  <cluster_rmsd>  (43) 
0.0

>  <cluster>  (43) 
5

$$$$

     RDKit          3D

 57 60  0  0  0  0  0  0  0  0999 V2000
  133.9770   69.3660  226.8280 O   0  0  0  0  0  0  0  0  0  0  0  0
  134.4490   70.3320  226.1530 C   0  0  0  0  0  0  0  0  0  0  0  0
  135.4720   70.1620  225.1840 N   0  0  0  0  0  0  0  0  0  0  0  0
  136.0610   68.8780  224.8880 C   0  0  0  0  0  0  0  0  0  0  0  0
  136.3570   68.8360  223.4310 C   0  0  0  0  0  0  0  0  0  0  0  0
  135.5380   68.1950  222.7130 O   0  0  0  0  0  0  0  0  0  0  0  0
  137.5110   69.4870  222.8690 N   0  0  0  0  0  0  0  0  0  0  0  0
  137.8350   69.0350  221.5580 C   0  0  0  0  0  0  0  0  0  0  0  0
  137.4570   69.9490  220.4370 C   0  0  0  0  0  0  0  0  0  0  0  0
  137.3610   71.3970  220.8150 C   0  0  0  0  0  0  0  0  0  0  0  0
  138.4270   71.8900  221.7350 C   0  0  0  0  0  0  0  0  0  0  0  0
  138.0400   71.8410  223.1890 C   0  0  0  0  0  0  0  0  0  0  0  0
  138.1010   70.4630  223.7570 C   0  0  2  0  0  0  0  0  0  0  0  0
  139.5230   70.1190  224.1180 C   0  0  0  0  0  0  0  0  0  0  0  0
  139.8630   70.3520  225.5230 C   0  0  0  0  0  0  0  0  0  0  0  0
  140.6310   71.4260  225.9400 C   0  0  0  0  0  0  0  0  0  0  0  0
  140.9570   71.6510  227.2600 C   0  0  0  0  0  0  0  0  0  0  0  0
  140.5130   70.7850  228.2370 C   0  0  0  0  0  0  0  0  0  0  0  0
  139.7450   69.7030  227.8600 C   0  0  0  0  0  0  0  0  0  0  0  0
  139.4290   69.4920  226.5290 C   0  0  0  0  0  0  0  0  0  0  0  0
  133.9090   71.6650  226.3880 C   0  0  0  0  0  0  0  0  0  0  0  0
  132.7620   71.8570  227.1280 C   0  0  0  0  0  0  0  0  0  0  0  0
  132.2060   73.0820  227.3850 C   0  0  0  0  0  0  0  0  0  0  0  0
  132.8300   74.1970  226.8730 C   0  0  0  0  0  0  0  0  0  0  0  0
  132.2780   75.4290  227.1260 C   0  0  0  0  0  0  0  0  0  0  0  0
  132.9150   76.5320  226.6070 C   0  0  0  0  0  0  0  0  0  0  0  0
  132.3010   78.1600  226.8670 Cl  0  0  0  0  0  0  0  0  0  0  0  0
  134.0590   76.3610  225.8690 C   0  0  0  0  0  0  0  0  0  0  0  0
  134.6240   75.1270  225.6060 C   0  0  0  0  0  0  0  0  0  0  0  0
  133.9700   74.0110  226.1370 C   0  0  0  0  0  0  0  0  0  0  0  0
  134.5020   72.7860  225.8960 N   0  0  0  0  0  0  0  0  0  0  0  0
  135.8030   71.0240  224.6690 H   0  0  0  0  0  0  0  0  0  0  0  0
  136.9908   68.7520  225.4621 H   0  0  0  0  0  0  0  0  0  0  0  0
  135.3702   68.0671  225.1623 H   0  0  0  0  0  0  0  0  0  0  0  0
  138.9234   68.8814  221.5145 H   0  0  0  0  0  0  0  0  0  0  0  0
  137.2445   68.1195  221.4058 H   0  0  0  0  0  0  0  0  0  0  0  0
  138.2139   69.8510  219.6448 H   0  0  0  0  0  0  0  0  0  0  0  0
  136.4506   69.6447  220.1136 H   0  0  0  0  0  0  0  0  0  0  0  0
  137.4076   71.9927  219.8914 H   0  0  0  0  0  0  0  0  0  0  0  0
  136.4135   71.5050  221.3633 H   0  0  0  0  0  0  0  0  0  0  0  0
  139.3234   71.2686  221.5929 H   0  0  0  0  0  0  0  0  0  0  0  0
  138.6053   72.9462  221.4846 H   0  0  0  0  0  0  0  0  0  0  0  0
  138.7261   72.4862  223.7573 H   0  0  0  0  0  0  0  0  0  0  0  0
  136.9982   72.1854  223.2663 H   0  0  0  0  0  0  0  0  0  0  0  0
  137.4987   70.4383  224.6771 H   0  0  0  0  0  0  0  0  0  0  0  0
  139.6863   69.0540  223.8964 H   0  0  0  0  0  0  0  0  0  0  0  0
  140.1675   70.7839  223.5243 H   0  0  0  0  0  0  0  0  0  0  0  0
  140.9983   72.1332  225.1817 H   0  0  0  0  0  0  0  0  0  0  0  0
  141.5713   72.5213  227.5342 H   0  0  0  0  0  0  0  0  0  0  0  0
  140.7658   70.9534  229.2942 H   0  0  0  0  0  0  0  0  0  0  0  0
  139.3802   69.0011  228.6244 H   0  0  0  0  0  0  0  0  0  0  0  0
  138.8169   68.6192  226.2577 H   0  0  0  0  0  0  0  0  0  0  0  0
  132.2605   70.9684  227.5389 H   0  0  0  0  0  0  0  0  0  0  0  0
  131.2873   73.1722  227.9833 H   0  0  0  0  0  0  0  0  0  0  0  0
  131.3593   75.5299  227.7224 H   0  0  0  0  0  0  0  0  0  0  0  0
  134.5543   77.2558  225.4640 H   0  0  0  0  0  0  0  0  0  0  0  0
  135.5424   75.0280  225.0087 H   0  0  0  0  0  0  0  0  0  0  0  0
  1  2  2  0
  2  3  1  0
  3  4  1  0
  4  5  1  0
  5  6  2  0
  5  7  1  0
  7  8  1  0
  8  9  1  0
  9 10  1  0
 10 11  1  0
 11 12  1  0
 12 13  1  0
 13 14  1  0
 14 15  1  0
 15 16  2  0
 16 17  1  0
 17 18  2  0
 18 19  1  0
 19 20  2  0
  2 21  1  0
 21 22  2  0
 22 23  1  0
 23 24  2  0
 24 25  1  0
 25 26  2  0
 26 27  1  0
 26 28  1  0
 28 29  2  0
 29 30  1  0
 30 31  2  0
 13  7  1  0
 20 15  1  0
 31 21  1  0
 30 24  1  0
  3 32  1  0
  4 33  1  0
  4 34  1  0
  8 35  1  0
  8 36  1  0
  9 37  1  0
  9 38  1  0
 10 39  1  0
 10 40  1  0
 11 41  1  0
 11 42  1  0
 12 43  1  0
 12 44  1  0
 13 45  1  1
 14 46  1  0
 14 47  1  0
 16 48  1  0
 17 49  1  0
 18 50  1  0
 19 51  1  0
 20 52  1  0
 22 53  1  0
 23 54  1  0
 25 55  1  0
 28 56  1  0
 29 57  1  0
M  END
>  <smiles>  (44) 
O=C(NCC(=O)N1CCCCCC1Cc1ccccc1)c1ccc2cc(Cl)ccc2n1

>  <score_type>  (44) 
oracle

>  <origin>  (44) 
autodockgpu

>  <m_score__min__energy>  (44) 
-7.04

>  <m_primary>  (44) 
energy

>  <rmsd>  (44) 
7.928155425091848

>  <m_score__min__rmsd>  (44) 
7.928155425091848

>  <meeko>  (44) 
{"free_energy": -5.59, "intermolecular_energy": -9.17, "internal_energy": -2.13, "cluster_size": 5, "cluster_id": 2, "rank_in_cluster": 5}

>  <energy>  (44) 
-5.9

>  <cluster_rmsd>  (44) 
0.0

>  <cluster>  (44) 
6

$$$$

     RDKit          3D

 57 60  0  0  0  0  0  0  0  0999 V2000
  134.4270   70.8390  225.4430 O   0  0  0  0  0  0  0  0  0  0  0  0
  134.7300   72.0660  225.3330 C   0  0  0  0  0  0  0  0  0  0  0  0
  135.8270   72.5190  224.5540 N   0  0  0  0  0  0  0  0  0  0  0  0
  136.6880   71.6200  223.8240 C   0  0  0  0  0  0  0  0  0  0  0  0
  137.2900   72.3810  222.6960 C   0  0  0  0  0  0  0  0  0  0  0  0
  136.6570   73.4030  222.3100 O   0  0  0  0  0  0  0  0  0  0  0  0
  138.5240   71.9750  222.0770 N   0  0  0  0  0  0  0  0  0  0  0  0
  138.4000   71.7100  220.6840 C   0  0  0  0  0  0  0  0  0  0  0  0
  139.4290   72.3410  219.8010 C   0  0  0  0  0  0  0  0  0  0  0  0
  140.7820   71.6980  219.8590 C   0  0  0  0  0  0  0  0  0  0  0  0
  141.1870   71.1780  221.1980 C   0  0  0  0  0  0  0  0  0  0  0  0
  140.9400   72.1490  222.3220 C   0  0  0  0  0  0  0  0  0  0  0  0
  139.6330   71.9200  223.0030 C   0  0  2  0  0  0  0  0  0  0  0  0
  139.6720   70.6220  223.7680 C   0  0  0  0  0  0  0  0  0  0  0  0
  140.0600   70.7610  225.1740 C   0  0  0  0  0  0  0  0  0  0  0  0
  140.8040   71.8290  225.6440 C   0  0  0  0  0  0  0  0  0  0  0  0
  141.1740   71.9660  226.9660 C   0  0  0  0  0  0  0  0  0  0  0  0
  140.8010   71.0110  227.8880 C   0  0  0  0  0  0  0  0  0  0  0  0
  140.0580   69.9320  227.4570 C   0  0  0  0  0  0  0  0  0  0  0  0
  139.6970   69.8110  226.1250 C   0  0  0  0  0  0  0  0  0  0  0  0
  133.9100   73.0440  226.0390 C   0  0  0  0  0  0  0  0  0  0  0  0
  132.7410   72.6790  226.6710 C   0  0  0  0  0  0  0  0  0  0  0  0
  131.9290   73.5490  227.3500 C   0  0  0  0  0  0  0  0  0  0  0  0
  132.3010   74.8730  227.4070 C   0  0  0  0  0  0  0  0  0  0  0  0
  131.4910   75.7500  228.0860 C   0  0  0  0  0  0  0  0  0  0  0  0
  131.8780   77.0700  228.1330 C   0  0  0  0  0  0  0  0  0  0  0  0
  130.9210   78.2830  228.9740 Cl  0  0  0  0  0  0  0  0  0  0  0  0
  133.0400   77.4500  227.5100 C   0  0  0  0  0  0  0  0  0  0  0  0
  133.8630   76.5770  226.8230 C   0  0  0  0  0  0  0  0  0  0  0  0
  133.4620   75.2390  226.7800 C   0  0  0  0  0  0  0  0  0  0  0  0
  134.2510   74.3580  226.1130 N   0  0  0  0  0  0  0  0  0  0  0  0
  136.0040   73.5610  224.5210 H   0  0  0  0  0  0  0  0  0  0  0  0
  137.4813   71.2420  224.4857 H   0  0  0  0  0  0  0  0  0  0  0  0
  136.1138   70.7618  223.4449 H   0  0  0  0  0  0  0  0  0  0  0  0
  138.4578   70.6207  220.5425 H   0  0  0  0  0  0  0  0  0  0  0  0
  137.4395   72.1535  220.3828 H   0  0  0  0  0  0  0  0  0  0  0  0
  139.0687   72.2886  218.7630 H   0  0  0  0  0  0  0  0  0  0  0  0
  139.5587   73.3720  220.1619 H   0  0  0  0  0  0  0  0  0  0  0  0
  140.7879   70.8555  219.1518 H   0  0  0  0  0  0  0  0  0  0  0  0
  141.5044   72.4893  219.6101 H   0  0  0  0  0  0  0  0  0  0  0  0
  140.6175   70.2591  221.4009 H   0  0  0  0  0  0  0  0  0  0  0  0
  142.2715   70.9984  221.1596 H   0  0  0  0  0  0  0  0  0  0  0  0
  141.7463   72.0426  223.0627 H   0  0  0  0  0  0  0  0  0  0  0  0
  140.9167   73.1599  221.8890 H   0  0  0  0  0  0  0  0  0  0  0  0
  139.4682   72.7363  223.7216 H   0  0  0  0  0  0  0  0  0  0  0  0
  138.6699   70.1700  223.7305 H   0  0  0  0  0  0  0  0  0  0  0  0
  140.4413   69.9980  223.2897 H   0  0  0  0  0  0  0  0  0  0  0  0
  141.1151   72.6055  224.9297 H   0  0  0  0  0  0  0  0  0  0  0  0
  141.7662   72.8366  227.2843 H   0  0  0  0  0  0  0  0  0  0  0  0
  141.0899   71.1077  228.9450 H   0  0  0  0  0  0  0  0  0  0  0  0
  139.7492   69.1603  228.1775 H   0  0  0  0  0  0  0  0  0  0  0  0
  139.1061   68.9385  225.8093 H   0  0  0  0  0  0  0  0  0  0  0  0
  132.4406   71.6217  226.6276 H   0  0  0  0  0  0  0  0  0  0  0  0
  131.0061   73.1993  227.8358 H   0  0  0  0  0  0  0  0  0  0  0  0
  130.5662   75.4097  228.5747 H   0  0  0  0  0  0  0  0  0  0  0  0
  133.3333   78.5090  227.5600 H   0  0  0  0  0  0  0  0  0  0  0  0
  134.7875   76.9186  226.3345 H   0  0  0  0  0  0  0  0  0  0  0  0
  1  2  2  0
  2  3  1  0
  3  4  1  0
  4  5  1  0
  5  6  2  0
  5  7  1  0
  7  8  1  0
  8  9  1  0
  9 10  1  0
 10 11  1  0
 11 12  1  0
 12 13  1  0
 13 14  1  0
 14 15  1  0
 15 16  2  0
 16 17  1  0
 17 18  2  0
 18 19  1  0
 19 20  2  0
  2 21  1  0
 21 22  2  0
 22 23  1  0
 23 24  2  0
 24 25  1  0
 25 26  2  0
 26 27  1  0
 26 28  1  0
 28 29  2  0
 29 30  1  0
 30 31  2  0
 13  7  1  0
 20 15  1  0
 31 21  1  0
 30 24  1  0
  3 32  1  0
  4 33  1  0
  4 34  1  0
  8 35  1  0
  8 36  1  0
  9 37  1  0
  9 38  1  0
 10 39  1  0
 10 40  1  0
 11 41  1  0
 11 42  1  0
 12 43  1  0
 12 44  1  0
 13 45  1  1
 14 46  1  0
 14 47  1  0
 16 48  1  0
 17 49  1  0
 18 50  1  0
 19 51  1  0
 20 52  1  0
 22 53  1  0
 23 54  1  0
 25 55  1  0
 28 56  1  0
 29 57  1  0
M  END
>  <smiles>  (45) 
O=C(NCC(=O)N1CCCCCC1Cc1ccccc1)c1ccc2cc(Cl)ccc2n1

>  <score_type>  (45) 
oracle

>  <origin>  (45) 
autodockgpu

>  <m_score__min__energy>  (45) 
-7.04

>  <m_primary>  (45) 
energy

>  <rmsd>  (45) 
7.322555840527494

>  <m_score__min__rmsd>  (45) 
7.322555840527494

>  <meeko>  (45) 
{"free_energy": -5.74, "intermolecular_energy": -9.32, "internal_energy": -2.24, "cluster_size": 5, "cluster_id": 2, "rank_in_cluster": 4}

>  <energy>  (45) 
-5.68

>  <cluster_rmsd>  (45) 
1.69

>  <cluster>  (45) 
6

$$$$

     RDKit          3D

 57 60  0  0  0  0  0  0  0  0999 V2000
  139.1890   71.5550  220.8330 O   0  0  0  0  0  0  0  0  0  0  0  0
  139.3930   72.0920  221.9650 C   0  0  0  0  0  0  0  0  0  0  0  0
  139.3980   73.4980  222.1550 N   0  0  0  0  0  0  0  0  0  0  0  0
  139.1740   74.4320  221.0780 C   0  0  0  0  0  0  0  0  0  0  0  0
  139.8460   75.7110  221.4340 C   0  0  0  0  0  0  0  0  0  0  0  0
  140.0200   75.9260  222.6670 O   0  0  0  0  0  0  0  0  0  0  0  0
  140.2730   76.6510  220.4330 N   0  0  0  0  0  0  0  0  0  0  0  0
  139.2030   77.3970  219.8620 C   0  0  0  0  0  0  0  0  0  0  0  0
  139.1250   78.8380  220.2530 C   0  0  0  0  0  0  0  0  0  0  0  0
  140.3510   79.6400  219.9340 C   0  0  0  0  0  0  0  0  0  0  0  0
  141.6250   79.1180  220.5100 C   0  0  0  0  0  0  0  0  0  0  0  0
  142.2040   77.9610  219.7400 C   0  0  0  0  0  0  0  0  0  0  0  0
  141.7020   76.6400  220.2150 C   0  0  2  0  0  0  0  0  0  0  0  0
  142.1230   75.5550  219.2580 C   0  0  0  0  0  0  0  0  0  0  0  0
  143.0740   74.5910  219.8170 C   0  0  0  0  0  0  0  0  0  0  0  0
  142.7130   73.3030  220.1720 C   0  0  0  0  0  0  0  0  0  0  0  0
  143.6020   72.3900  220.7010 C   0  0  0  0  0  0  0  0  0  0  0  0
  144.9200   72.7470  220.8980 C   0  0  0  0  0  0  0  0  0  0  0  0
  145.3170   74.0230  220.5550 C   0  0  0  0  0  0  0  0  0  0  0  0
  144.4090   74.9250  220.0270 C   0  0  0  0  0  0  0  0  0  0  0  0
  139.6290   71.2200  223.1090 C   0  0  0  0  0  0  0  0  0  0  0  0
  139.3040   69.8810  223.0730 C   0  0  0  0  0  0  0  0  0  0  0  0
  139.5010   69.0120  224.1130 C   0  0  0  0  0  0  0  0  0  0  0  0
  140.0600   69.5030  225.2710 C   0  0  0  0  0  0  0  0  0  0  0  0
  140.2600   68.6370  226.3180 C   0  0  0  0  0  0  0  0  0  0  0  0
  140.8200   69.1450  227.4680 C   0  0  0  0  0  0  0  0  0  0  0  0
  141.1230   68.1300  228.8720 Cl  0  0  0  0  0  0  0  0  0  0  0  0
  141.1510   70.4750  227.5220 C   0  0  0  0  0  0  0  0  0  0  0  0
  140.9540   71.3570  226.4750 C   0  0  0  0  0  0  0  0  0  0  0  0
  140.3850   70.8320  225.3110 C   0  0  0  0  0  0  0  0  0  0  0  0
  140.1800   71.6750  224.2670 N   0  0  0  0  0  0  0  0  0  0  0  0
  139.5770   73.8570  223.1340 H   0  0  0  0  0  0  0  0  0  0  0  0
  139.5982   74.0343  220.1442 H   0  0  0  0  0  0  0  0  0  0  0  0
  138.0962   74.5941  220.9296 H   0  0  0  0  0  0  0  0  0  0  0  0
  139.3070   77.3506  218.7679 H   0  0  0  0  0  0  0  0  0  0  0  0
  138.2818   76.9355  220.2474 H   0  0  0  0  0  0  0  0  0  0  0  0
  138.2724   79.2907  219.7256 H   0  0  0  0  0  0  0  0  0  0  0  0
  139.0163   78.8579  221.3474 H   0  0  0  0  0  0  0  0  0  0  0  0
  140.4609   79.6714  218.8400 H   0  0  0  0  0  0  0  0  0  0  0  0
  140.1942   80.6282  220.3910 H   0  0  0  0  0  0  0  0  0  0  0  0
  142.3627   79.9339  220.5191 H   0  0  0  0  0  0  0  0  0  0  0  0
  141.3957   78.7506  221.5212 H   0  0  0  0  0  0  0  0  0  0  0  0
  141.9379   78.0770  218.6790 H   0  0  0  0  0  0  0  0  0  0  0  0
  143.2933   77.9748  219.8921 H   0  0  0  0  0  0  0  0  0  0  0  0
  142.1562   76.4283  221.1942 H   0  0  0  0  0  0  0  0  0  0  0  0
  141.2232   75.0069  218.9418 H   0  0  0  0  0  0  0  0  0  0  0  0
  142.6362   76.0544  218.4230 H   0  0  0  0  0  0  0  0  0  0  0  0
  141.6680   72.9925  220.0255 H   0  0  0  0  0  0  0  0  0  0  0  0
  143.2602   71.3784  220.9654 H   0  0  0  0  0  0  0  0  0  0  0  0
  145.6392   72.0294  221.3197 H   0  0  0  0  0  0  0  0  0  0  0  0
  146.3640   74.3263  220.7023 H   0  0  0  0  0  0  0  0  0  0  0  0
  144.7530   75.9366  219.7654 H   0  0  0  0  0  0  0  0  0  0  0  0
  138.8575   69.4847  222.1491 H   0  0  0  0  0  0  0  0  0  0  0  0
  139.2205   67.9520  224.0254 H   0  0  0  0  0  0  0  0  0  0  0  0
  139.9825   67.5754  226.2402 H   0  0  0  0  0  0  0  0  0  0  0  0
  141.5980   70.8617  228.4497 H   0  0  0  0  0  0  0  0  0  0  0  0
  141.2312   72.4185  226.5543 H   0  0  0  0  0  0  0  0  0  0  0  0
  1  2  2  0
  2  3  1  0
  3  4  1  0
  4  5  1  0
  5  6  2  0
  5  7  1  0
  7  8  1  0
  8  9  1  0
  9 10  1  0
 10 11  1  0
 11 12  1  0
 12 13  1  0
 13 14  1  0
 14 15  1  0
 15 16  2  0
 16 17  1  0
 17 18  2  0
 18 19  1  0
 19 20  2  0
  2 21  1  0
 21 22  2  0
 22 23  1  0
 23 24  2  0
 24 25  1  0
 25 26  2  0
 26 27  1  0
 26 28  1  0
 28 29  2  0
 29 30  1  0
 30 31  2  0
 13  7  1  0
 20 15  1  0
 31 21  1  0
 30 24  1  0
  3 32  1  0
  4 33  1  0
  4 34  1  0
  8 35  1  0
  8 36  1  0
  9 37  1  0
  9 38  1  0
 10 39  1  0
 10 40  1  0
 11 41  1  0
 11 42  1  0
 12 43  1  0
 12 44  1  0
 13 45  1  1
 14 46  1  0
 14 47  1  0
 16 48  1  0
 17 49  1  0
 18 50  1  0
 19 51  1  0
 20 52  1  0
 22 53  1  0
 23 54  1  0
 25 55  1  0
 28 56  1  0
 29 57  1  0
M  END
>  <smiles>  (46) 
O=C(NCC(=O)N1CCCCCC1Cc1ccccc1)c1ccc2cc(Cl)ccc2n1

>  <score_type>  (46) 
oracle

>  <origin>  (46) 
autodockgpu

>  <m_score__min__energy>  (46) 
-7.04

>  <m_primary>  (46) 
energy

>  <rmsd>  (46) 
1.9208464793545725

>  <m_score__min__rmsd>  (46) 
1.9208464793545725

>  <meeko>  (46) 
{"free_energy": -6.42, "intermolecular_energy": -10.0, "internal_energy": -2.74, "cluster_size": 4, "cluster_id": 3, "rank_in_cluster": 1}

>  <energy>  (46) 
-5.87

>  <cluster_rmsd>  (46) 
0.0

>  <cluster>  (46) 
7

$$$$

     RDKit          3D

 57 60  0  0  0  0  0  0  0  0999 V2000
  139.9290   71.9730  220.6730 O   0  0  0  0  0  0  0  0  0  0  0  0
  139.8400   72.4550  221.8430 C   0  0  0  0  0  0  0  0  0  0  0  0
  139.6510   73.8400  222.0890 N   0  0  0  0  0  0  0  0  0  0  0  0
  139.5460   74.8130  221.0280 C   0  0  0  0  0  0  0  0  0  0  0  0
  139.1970   76.1230  221.6430 C   0  0  0  0  0  0  0  0  0  0  0  0
  139.1290   76.1480  222.9040 O   0  0  0  0  0  0  0  0  0  0  0  0
  138.9500   77.2950  220.8470 N   0  0  0  0  0  0  0  0  0  0  0  0
  137.6180   77.3730  220.3490 C   0  0  0  0  0  0  0  0  0  0  0  0
  137.4630   77.9380  218.9730 C   0  0  0  0  0  0  0  0  0  0  0  0
  138.6240   78.7610  218.5010 C   0  0  0  0  0  0  0  0  0  0  0  0
  139.8820   78.0030  218.2400 C   0  0  0  0  0  0  0  0  0  0  0  0
  140.8120   77.9440  219.4200 C   0  0  0  0  0  0  0  0  0  0  0  0
  140.1090   78.1500  220.7180 C   0  0  2  0  0  0  0  0  0  0  0  0
  141.0760   77.9730  221.8610 C   0  0  0  0  0  0  0  0  0  0  0  0
  141.4750   79.2220  222.5140 C   0  0  0  0  0  0  0  0  0  0  0  0
  140.8150   80.4200  222.3050 C   0  0  0  0  0  0  0  0  0  0  0  0
  141.1850   81.6000  222.9150 C   0  0  0  0  0  0  0  0  0  0  0  0
  142.2600   81.6210  223.7800 C   0  0  0  0  0  0  0  0  0  0  0  0
  142.9420   80.4460  224.0130 C   0  0  0  0  0  0  0  0  0  0  0  0
  142.5560   79.2710  223.3900 C   0  0  0  0  0  0  0  0  0  0  0  0
  139.9350   71.5410  222.9750 C   0  0  0  0  0  0  0  0  0  0  0  0
  139.5150   70.2310  222.8780 C   0  0  0  0  0  0  0  0  0  0  0  0
  139.5790   69.3250  223.9030 C   0  0  0  0  0  0  0  0  0  0  0  0
  140.0940   69.7440  225.1090 C   0  0  0  0  0  0  0  0  0  0  0  0
  140.1600   68.8400  226.1400 C   0  0  0  0  0  0  0  0  0  0  0  0
  140.6780   69.2760  227.3380 C   0  0  0  0  0  0  0  0  0  0  0  0
  140.8130   68.2080  228.7290 Cl  0  0  0  0  0  0  0  0  0  0  0  0
  141.1020   70.5760  227.4520 C   0  0  0  0  0  0  0  0  0  0  0  0
  141.0400   71.4950  226.4210 C   0  0  0  0  0  0  0  0  0  0  0  0
  140.5120   71.0440  225.2080 C   0  0  0  0  0  0  0  0  0  0  0  0
  140.4390   71.9250  224.1780 N   0  0  0  0  0  0  0  0  0  0  0  0
  139.5880   74.1530  223.0980 H   0  0  0  0  0  0  0  0  0  0  0  0
  140.5063   74.8929  220.4975 H   0  0  0  0  0  0  0  0  0  0  0  0
  138.7739   74.5107  220.3052 H   0  0  0  0  0  0  0  0  0  0  0  0
  137.2009   76.3552  220.3435 H   0  0  0  0  0  0  0  0  0  0  0  0
  137.0929   78.0719  221.0167 H   0  0  0  0  0  0  0  0  0  0  0  0
  137.3282   77.1012  218.2718 H   0  0  0  0  0  0  0  0  0  0  0  0
  136.5963   78.6144  219.0099 H   0  0  0  0  0  0  0  0  0  0  0  0
  138.3284   79.2600  217.5663 H   0  0  0  0  0  0  0  0  0  0  0  0
  138.8546   79.4576  219.3205 H   0  0  0  0  0  0  0  0  0  0  0  0
  139.6145   76.9740  217.9577 H   0  0  0  0  0  0  0  0  0  0  0  0
  140.4155   78.5348  217.4384 H   0  0  0  0  0  0  0  0  0  0  0  0
  141.2980   76.9573  219.4359 H   0  0  0  0  0  0  0  0  0  0  0  0
  141.5444   78.7568  219.3064 H   0  0  0  0  0  0  0  0  0  0  0  0
  139.7293   79.1820  220.7467 H   0  0  0  0  0  0  0  0  0  0  0  0
  140.6032   77.3263  222.6148 H   0  0  0  0  0  0  0  0  0  0  0  0
  141.9905   77.5355  221.4341 H   0  0  0  0  0  0  0  0  0  0  0  0
  139.9545   80.4316  221.6199 H   0  0  0  0  0  0  0  0  0  0  0  0
  140.6236   82.5240  222.7122 H   0  0  0  0  0  0  0  0  0  0  0  0
  142.5661   82.5555  224.2730 H   0  0  0  0  0  0  0  0  0  0  0  0
  143.8009   80.4416  224.7002 H   0  0  0  0  0  0  0  0  0  0  0  0
  143.1203   78.3489  223.5933 H   0  0  0  0  0  0  0  0  0  0  0  0
  139.1024   69.8923  221.9162 H   0  0  0  0  0  0  0  0  0  0  0  0
  139.2286   68.2913  223.7665 H   0  0  0  0  0  0  0  0  0  0  0  0
  139.8114   67.8044  226.0131 H   0  0  0  0  0  0  0  0  0  0  0  0
  141.5141   70.9052  228.4173 H   0  0  0  0  0  0  0  0  0  0  0  0
  141.3890   72.5303  226.5490 H   0  0  0  0  0  0  0  0  0  0  0  0
  1  2  2  0
  2  3  1  0
  3  4  1  0
  4  5  1  0
  5  6  2  0
  5  7  1  0
  7  8  1  0
  8  9  1  0
  9 10  1  0
 10 11  1  0
 11 12  1  0
 12 13  1  0
 13 14  1  0
 14 15  1  0
 15 16  2  0
 16 17  1  0
 17 18  2  0
 18 19  1  0
 19 20  2  0
  2 21  1  0
 21 22  2  0
 22 23  1  0
 23 24  2  0
 24 25  1  0
 25 26  2  0
 26 27  1  0
 26 28  1  0
 28 29  2  0
 29 30  1  0
 30 31  2  0
 13  7  1  0
 20 15  1  0
 31 21  1  0
 30 24  1  0
  3 32  1  0
  4 33  1  0
  4 34  1  0
  8 35  1  0
  8 36  1  0
  9 37  1  0
  9 38  1  0
 10 39  1  0
 10 40  1  0
 11 41  1  0
 11 42  1  0
 12 43  1  0
 12 44  1  0
 13 45  1  6
 14 46  1  0
 14 47  1  0
 16 48  1  0
 17 49  1  0
 18 50  1  0
 19 51  1  0
 20 52  1  0
 22 53  1  0
 23 54  1  0
 25 55  1  0
 28 56  1  0
 29 57  1  0
M  END
>  <smiles>  (47) 
O=C(NCC(=O)N1CCCCCC1Cc1ccccc1)c1ccc2cc(Cl)ccc2n1

>  <score_type>  (47) 
oracle

>  <origin>  (47) 
autodockgpu

>  <m_score__min__energy>  (47) 
-7.04

>  <m_primary>  (47) 
energy

>  <rmsd>  (47) 
2.3179579720300696

>  <m_score__min__rmsd>  (47) 
2.3179579720300696

>  <meeko>  (47) 
{"free_energy": -5.92, "intermolecular_energy": -9.5, "internal_energy": -2.31, "cluster_size": 28, "cluster_id": 1, "rank_in_cluster": 25}

>  <energy>  (47) 
-5.83

>  <cluster_rmsd>  (47) 
0.0

>  <cluster>  (47) 
8

$$$$

     RDKit          3D

 57 60  0  0  0  0  0  0  0  0999 V2000
  139.6530   72.0590  220.5920 O   0  0  0  0  0  0  0  0  0  0  0  0
  139.6700   72.5330  221.7690 C   0  0  0  0  0  0  0  0  0  0  0  0
  139.5680   73.9230  222.0370 N   0  0  0  0  0  0  0  0  0  0  0  0
  139.4370   74.9110  220.9930 C   0  0  0  0  0  0  0  0  0  0  0  0
  140.2320   76.1040  221.3910 C   0  0  0  0  0  0  0  0  0  0  0  0
  140.5040   76.2100  222.6200 O   0  0  0  0  0  0  0  0  0  0  0  0
  140.6660   77.0850  220.4320 N   0  0  0  0  0  0  0  0  0  0  0  0
  142.0560   77.0120  220.1350 C   0  0  0  0  0  0  0  0  0  0  0  0
  142.5210   77.8200  218.9670 C   0  0  0  0  0  0  0  0  0  0  0  0
  141.8040   77.5320  217.6820 C   0  0  0  0  0  0  0  0  0  0  0  0
  140.4310   76.9670  217.8280 C   0  0  0  0  0  0  0  0  0  0  0  0
  139.4640   77.9170  218.4860 C   0  0  0  0  0  0  0  0  0  0  0  0
  139.5960   77.9410  219.9710 C   0  0  2  0  0  0  0  0  0  0  0  0
  139.7560   79.3610  220.4500 C   0  0  0  0  0  0  0  0  0  0  0  0
  140.6760   79.5160  221.5800 C   0  0  0  0  0  0  0  0  0  0  0  0
  141.9290   80.0900  221.4530 C   0  0  0  0  0  0  0  0  0  0  0  0
  142.8000   80.2390  222.5110 C   0  0  0  0  0  0  0  0  0  0  0  0
  142.4370   79.8060  223.7680 C   0  0  0  0  0  0  0  0  0  0  0  0
  141.1950   79.2280  223.9350 C   0  0  0  0  0  0  0  0  0  0  0  0
  140.3340   79.0870  222.8590 C   0  0  0  0  0  0  0  0  0  0  0  0
  139.7990   71.6040  222.8850 C   0  0  0  0  0  0  0  0  0  0  0  0
  139.3580   70.3010  222.7910 C   0  0  0  0  0  0  0  0  0  0  0  0
  139.4520   69.3810  223.8010 C   0  0  0  0  0  0  0  0  0  0  0  0
  140.0220   69.7790  224.9890 C   0  0  0  0  0  0  0  0  0  0  0  0
  140.1180   68.8610  226.0060 C   0  0  0  0  0  0  0  0  0  0  0  0
  140.6900   69.2760  227.1870 C   0  0  0  0  0  0  0  0  0  0  0  0
  140.8670   68.1880  228.5580 Cl  0  0  0  0  0  0  0  0  0  0  0  0
  141.1350   70.5690  227.2990 C   0  0  0  0  0  0  0  0  0  0  0  0
  141.0440   71.5010  226.2820 C   0  0  0  0  0  0  0  0  0  0  0  0
  140.4600   71.0720  225.0870 C   0  0  0  0  0  0  0  0  0  0  0  0
  140.3570   71.9660  224.0710 N   0  0  0  0  0  0  0  0  0  0  0  0
  139.5910   74.2280  223.0500 H   0  0  0  0  0  0  0  0  0  0  0  0
  139.8199   74.5059  220.0447 H   0  0  0  0  0  0  0  0  0  0  0  0
  138.3805   75.1834  220.8532 H   0  0  0  0  0  0  0  0  0  0  0  0
  142.6080   77.3552  221.0224 H   0  0  0  0  0  0  0  0  0  0  0  0
  142.2459   75.9631  219.8636 H   0  0  0  0  0  0  0  0  0  0  0  0
  142.3790   78.8839  219.2078 H   0  0  0  0  0  0  0  0  0  0  0  0
  143.5748   77.5510  218.8023 H   0  0  0  0  0  0  0  0  0  0  0  0
  141.7254   78.4736  217.1189 H   0  0  0  0  0  0  0  0  0  0  0  0
  142.3969   76.7593  217.1707 H   0  0  0  0  0  0  0  0  0  0  0  0
  140.0483   76.7160  216.8278 H   0  0  0  0  0  0  0  0  0  0  0  0
  140.5097   76.0810  218.4752 H   0  0  0  0  0  0  0  0  0  0  0  0
  139.6498   78.9303  218.1004 H   0  0  0  0  0  0  0  0  0  0  0  0
  138.4472   77.5700  218.2499 H   0  0  0  0  0  0  0  0  0  0  0  0
  138.6726   77.5340  220.4088 H   0  0  0  0  0  0  0  0  0  0  0  0
  140.1335   79.9665  219.6128 H   0  0  0  0  0  0  0  0  0  0  0  0
  138.7665   79.6881  220.8021 H   0  0  0  0  0  0  0  0  0  0  0  0
  142.2448   80.4441  220.4606 H   0  0  0  0  0  0  0  0  0  0  0  0
  143.7844   80.7033  222.3520 H   0  0  0  0  0  0  0  0  0  0  0  0
  143.1230   79.9188  224.6205 H   0  0  0  0  0  0  0  0  0  0  0  0
  140.8863   78.8764  224.9305 H   0  0  0  0  0  0  0  0  0  0  0  0
  139.3503   78.6219  223.0204 H   0  0  0  0  0  0  0  0  0  0  0  0
  138.9011   69.9797  221.8434 H   0  0  0  0  0  0  0  0  0  0  0  0
  139.0826   68.3536  223.6668 H   0  0  0  0  0  0  0  0  0  0  0  0
  139.7511   67.8315  225.8812 H   0  0  0  0  0  0  0  0  0  0  0  0
  141.5894   70.8814  228.2508 H   0  0  0  0  0  0  0  0  0  0  0  0
  141.4131   72.5296  226.4072 H   0  0  0  0  0  0  0  0  0  0  0  0
  1  2  2  0
  2  3  1  0
  3  4  1  0
  4  5  1  0
  5  6  2  0
  5  7  1  0
  7  8  1  0
  8  9  1  0
  9 10  1  0
 10 11  1  0
 11 12  1  0
 12 13  1  0
 13 14  1  0
 14 15  1  0
 15 16  2  0
 16 17  1  0
 17 18  2  0
 18 19  1  0
 19 20  2  0
  2 21  1  0
 21 22  2  0
 22 23  1  0
 23 24  2  0
 24 25  1  0
 25 26  2  0
 26 27  1  0
 26 28  1  0
 28 29  2  0
 29 30  1  0
 30 31  2  0
 13  7  1  0
 20 15  1  0
 31 21  1  0
 30 24  1  0
  3 32  1  0
  4 33  1  0
  4 34  1  0
  8 35  1  0
  8 36  1  0
  9 37  1  0
  9 38  1  0
 10 39  1  0
 10 40  1  0
 11 41  1  0
 11 42  1  0
 12 43  1  0
 12 44  1  0
 13 45  1  1
 14 46  1  0
 14 47  1  0
 16 48  1  0
 17 49  1  0
 18 50  1  0
 19 51  1  0
 20 52  1  0
 22 53  1  0
 23 54  1  0
 25 55  1  0
 28 56  1  0
 29 57  1  0
M  END
>  <smiles>  (48) 
O=C(NCC(=O)N1CCCCCC1Cc1ccccc1)c1ccc2cc(Cl)ccc2n1

>  <score_type>  (48) 
oracle

>  <origin>  (48) 
autodockgpu

>  <m_score__min__energy>  (48) 
-7.04

>  <m_primary>  (48) 
energy

>  <rmsd>  (48) 
2.2981928053228753

>  <m_score__min__rmsd>  (48) 
2.2981928053228753

>  <meeko>  (48) 
{"free_energy": -6.38, "intermolecular_energy": -9.96, "internal_energy": -2.56, "cluster_size": 28, "cluster_id": 1, "rank_in_cluster": 14}

>  <energy>  (48) 
-5.64

>  <cluster_rmsd>  (48) 
0.0

>  <cluster>  (48) 
9

$$$$

     RDKit          3D

 57 60  0  0  0  0  0  0  0  0999 V2000
  134.7870   68.1770  224.6240 O   0  0  0  0  0  0  0  0  0  0  0  0
  135.1640   69.2940  224.1550 C   0  0  0  0  0  0  0  0  0  0  0  0
  136.0160   69.4020  223.0250 N   0  0  0  0  0  0  0  0  0  0  0  0
  136.5240   68.2500  222.3190 C   0  0  0  0  0  0  0  0  0  0  0  0
  137.9740   68.1270  222.6280 C   0  0  0  0  0  0  0  0  0  0  0  0
  138.4350   66.9530  222.6880 O   0  0  0  0  0  0  0  0  0  0  0  0
  138.8060   69.2800  222.8490 N   0  0  0  0  0  0  0  0  0  0  0  0
  139.5770   69.6510  221.7110 C   0  0  0  0  0  0  0  0  0  0  0  0
  139.8010   71.1160  221.5190 C   0  0  0  0  0  0  0  0  0  0  0  0
  140.6820   71.7550  222.5510 C   0  0  0  0  0  0  0  0  0  0  0  0
  140.0900   71.8670  223.9160 C   0  0  0  0  0  0  0  0  0  0  0  0
  139.9200   70.5400  224.6090 C   0  0  0  0  0  0  0  0  0  0  0  0
  138.6850   69.8210  224.1850 C   0  0  2  0  0  0  0  0  0  0  0  0
  138.3340   68.7610  225.1980 C   0  0  0  0  0  0  0  0  0  0  0  0
  139.3230   68.5940  226.2650 C   0  0  0  0  0  0  0  0  0  0  0  0
  140.3240   67.6390  226.2160 C   0  0  0  0  0  0  0  0  0  0  0  0
  141.2570   67.4740  227.2170 C   0  0  0  0  0  0  0  0  0  0  0  0
  141.2210   68.2830  228.3330 C   0  0  0  0  0  0  0  0  0  0  0  0
  140.2380   69.2470  228.4180 C   0  0  0  0  0  0  0  0  0  0  0  0
  139.3080   69.3970  227.4020 C   0  0  0  0  0  0  0  0  0  0  0  0
  134.6960   70.5100  224.8080 C   0  0  0  0  0  0  0  0  0  0  0  0
  133.7570   70.4690  225.8160 C   0  0  0  0  0  0  0  0  0  0  0  0
  133.2780   71.5740  226.4690 C   0  0  0  0  0  0  0  0  0  0  0  0
  133.7640   72.8080  226.0970 C   0  0  0  0  0  0  0  0  0  0  0  0
  133.2880   73.9200  226.7480 C   0  0  0  0  0  0  0  0  0  0  0  0
  133.7850   75.1440  226.3630 C   0  0  0  0  0  0  0  0  0  0  0  0
  133.2500   76.6370  227.1250 Cl  0  0  0  0  0  0  0  0  0  0  0  0
  134.7210   75.2040  225.3620 C   0  0  0  0  0  0  0  0  0  0  0  0
  135.2070   74.0920  224.7000 C   0  0  0  0  0  0  0  0  0  0  0  0
  134.6970   72.8520  225.0960 C   0  0  0  0  0  0  0  0  0  0  0  0
  135.1560   71.7420  224.4640 N   0  0  0  0  0  0  0  0  0  0  0  0
  136.2790   70.3750  222.7030 H   0  0  0  0  0  0  0  0  0  0  0  0
  135.9933   67.3450  222.6497 H   0  0  0  0  0  0  0  0  0  0  0  0
  136.3716   68.3665  221.2359 H   0  0  0  0  0  0  0  0  0  0  0  0
  140.5618   69.1691  221.8004 H   0  0  0  0  0  0  0  0  0  0  0  0
  138.9926   69.3241  220.8383 H   0  0  0  0  0  0  0  0  0  0  0  0
  140.2644   71.2656  220.5326 H   0  0  0  0  0  0  0  0  0  0  0  0
  138.8155   71.5960  221.6110 H   0  0  0  0  0  0  0  0  0  0  0  0
  141.6027   71.1580  222.6281 H   0  0  0  0  0  0  0  0  0  0  0  0
  140.8519   72.7864  222.2084 H   0  0  0  0  0  0  0  0  0  0  0  0
  140.7487   72.4985  224.5303 H   0  0  0  0  0  0  0  0  0  0  0  0
  139.0861   72.3011  223.7983 H   0  0  0  0  0  0  0  0  0  0  0  0
  140.7909   69.9089  224.3782 H   0  0  0  0  0  0  0  0  0  0  0  0
  139.8341   70.7382  225.6876 H   0  0  0  0  0  0  0  0  0  0  0  0
  137.8579   70.5451  224.1452 H   0  0  0  0  0  0  0  0  0  0  0  0
  137.3724   69.0305  225.6591 H   0  0  0  0  0  0  0  0  0  0  0  0
  138.2951   67.8062  224.6532 H   0  0  0  0  0  0  0  0  0  0  0  0
  140.3773   66.9806  225.3364 H   0  0  0  0  0  0  0  0  0  0  0  0
  142.0303   66.6970  227.1256 H   0  0  0  0  0  0  0  0  0  0  0  0
  141.9604   68.1622  229.1384 H   0  0  0  0  0  0  0  0  0  0  0  0
  140.1921   69.9024  229.3002 H   0  0  0  0  0  0  0  0  0  0  0  0
  138.5348   70.1737  227.4966 H   0  0  0  0  0  0  0  0  0  0  0  0
  133.3668   69.4852  226.1157 H   0  0  0  0  0  0  0  0  0  0  0  0
  132.5271   71.4786  227.2672 H   0  0  0  0  0  0  0  0  0  0  0  0
  132.5373   73.8351  227.5475 H   0  0  0  0  0  0  0  0  0  0  0  0
  135.1063   76.1920  225.0698 H   0  0  0  0  0  0  0  0  0  0  0  0
  135.9580   74.1786  223.9010 H   0  0  0  0  0  0  0  0  0  0  0  0
  1  2  2  0
  2  3  1  0
  3  4  1  0
  4  5  1  0
  5  6  2  0
  5  7  1  0
  7  8  1  0
  8  9  1  0
  9 10  1  0
 10 11  1  0
 11 12  1  0
 12 13  1  0
 13 14  1  0
 14 15  1  0
 15 16  2  0
 16 17  1  0
 17 18  2  0
 18 19  1  0
 19 20  2  0
  2 21  1  0
 21 22  2  0
 22 23  1  0
 23 24  2  0
 24 25  1  0
 25 26  2  0
 26 27  1  0
 26 28  1  0
 28 29  2  0
 29 30  1  0
 30 31  2  0
 13  7  1  0
 20 15  1  0
 31 21  1  0
 30 24  1  0
  3 32  1  0
  4 33  1  0
  4 34  1  0
  8 35  1  0
  8 36  1  0
  9 37  1  0
  9 38  1  0
 10 39  1  0
 10 40  1  0
 11 41  1  0
 11 42  1  0
 12 43  1  0
 12 44  1  0
 13 45  1  6
 14 46  1  0
 14 47  1  0
 16 48  1  0
 17 49  1  0
 18 50  1  0
 19 51  1  0
 20 52  1  0
 22 53  1  0
 23 54  1  0
 25 55  1  0
 28 56  1  0
 29 57  1  0
M  END
>  <smiles>  (49) 
O=C(NCC(=O)N1CCCCCC1Cc1ccccc1)c1ccc2cc(Cl)ccc2n1

>  <score_type>  (49) 
oracle

>  <origin>  (49) 
autodockgpu

>  <m_score__min__energy>  (49) 
-7.04

>  <m_primary>  (49) 
energy

>  <rmsd>  (49) 
7.336643902876923

>  <m_score__min__rmsd>  (49) 
7.336643902876923

>  <meeko>  (49) 
{"free_energy": -5.99, "intermolecular_energy": -9.57, "internal_energy": -2.4, "cluster_size": 5, "cluster_id": 2, "rank_in_cluster": 2}

>  <energy>  (49) 
-5.14

>  <cluster_rmsd>  (49) 
0.0

>  <cluster>  (49) 
10

$$$$

     RDKit          3D

 57 60  0  0  0  0  0  0  0  0999 V2000
  139.0380   71.8500  220.8140 O   0  0  0  0  0  0  0  0  0  0  0  0
  139.3010   72.3750  221.9390 C   0  0  0  0  0  0  0  0  0  0  0  0
  139.3750   73.7790  222.1310 N   0  0  0  0  0  0  0  0  0  0  0  0
  139.1590   74.7250  221.0620 C   0  0  0  0  0  0  0  0  0  0  0  0
  137.7130   75.0720  221.0450 C   0  0  0  0  0  0  0  0  0  0  0  0
  137.2260   75.3840  219.9210 O   0  0  0  0  0  0  0  0  0  0  0  0
  136.9110   75.0550  222.2400 N   0  0  0  0  0  0  0  0  0  0  0  0
  136.2460   73.8160  222.4590 C   0  0  0  0  0  0  0  0  0  0  0  0
  135.8330   73.5330  223.8680 C   0  0  0  0  0  0  0  0  0  0  0  0
  134.7880   74.4610  224.4120 C   0  0  0  0  0  0  0  0  0  0  0  0
  135.2640   75.8350  224.7470 C   0  0  0  0  0  0  0  0  0  0  0  0
  135.6180   76.6580  223.5370 C   0  0  0  0  0  0  0  0  0  0  0  0
  136.9500   76.3040  222.9670 C   0  0  2  0  0  0  0  0  0  0  0  0
  137.4650   77.4400  222.1210 C   0  0  0  0  0  0  0  0  0  0  0  0
  138.7360   78.0050  222.5780 C   0  0  0  0  0  0  0  0  0  0  0  0
  138.8600   79.3110  223.0210 C   0  0  0  0  0  0  0  0  0  0  0  0
  140.0530   79.8510  223.4510 C   0  0  0  0  0  0  0  0  0  0  0  0
  141.1970   79.0810  223.4530 C   0  0  0  0  0  0  0  0  0  0  0  0
  141.1130   77.7740  223.0190 C   0  0  0  0  0  0  0  0  0  0  0  0
  139.9060   77.2500  222.5890 C   0  0  0  0  0  0  0  0  0  0  0  0
  139.5330   71.4910  223.0750 C   0  0  0  0  0  0  0  0  0  0  0  0
  139.1590   70.1640  223.0420 C   0  0  0  0  0  0  0  0  0  0  0  0
  139.3500   69.2840  224.0740 C   0  0  0  0  0  0  0  0  0  0  0  0
  139.9540   69.7510  225.2200 C   0  0  0  0  0  0  0  0  0  0  0  0
  140.1480   68.8740  226.2590 C   0  0  0  0  0  0  0  0  0  0  0  0
  140.7530   69.3570  227.3970 C   0  0  0  0  0  0  0  0  0  0  0  0
  141.0540   68.3260  228.7900 Cl  0  0  0  0  0  0  0  0  0  0  0  0
  141.1320   70.6740  227.4470 C   0  0  0  0  0  0  0  0  0  0  0  0
  140.9420   71.5670  226.4080 C   0  0  0  0  0  0  0  0  0  0  0  0
  140.3260   71.0680  225.2560 C   0  0  0  0  0  0  0  0  0  0  0  0
  140.1270   71.9210  224.2200 N   0  0  0  0  0  0  0  0  0  0  0  0
  139.6010   74.1270  223.1040 H   0  0  0  0  0  0  0  0  0  0  0  0
  139.7587   75.6304  221.2371 H   0  0  0  0  0  0  0  0  0  0  0  0
  139.4602   74.2895  220.0978 H   0  0  0  0  0  0  0  0  0  0  0  0
  135.3406   73.8052  221.8344 H   0  0  0  0  0  0  0  0  0  0  0  0
  136.9792   73.0370  222.2031 H   0  0  0  0  0  0  0  0  0  0  0  0
  135.4363   72.5078  223.9097 H   0  0  0  0  0  0  0  0  0  0  0  0
  136.7294   73.6752  224.4895 H   0  0  0  0  0  0  0  0  0  0  0  0
  133.9904   74.5521  223.6600 H   0  0  0  0  0  0  0  0  0  0  0  0
  134.4524   74.0168  225.3607 H   0  0  0  0  0  0  0  0  0  0  0  0
  134.4679   76.3542  225.3008 H   0  0  0  0  0  0  0  0  0  0  0  0
  136.1817   75.7238  225.3432 H   0  0  0  0  0  0  0  0  0  0  0  0
  134.8511   76.4961  222.7652 H   0  0  0  0  0  0  0  0  0  0  0  0
  135.6623   77.7105  223.8537 H   0  0  0  0  0  0  0  0  0  0  0  0
  137.6544   76.1491  223.7976 H   0  0  0  0  0  0  0  0  0  0  0  0
  137.6021   77.0699  221.0942 H   0  0  0  0  0  0  0  0  0  0  0  0
  136.7197   78.2462  222.1896 H   0  0  0  0  0  0  0  0  0  0  0  0
  137.9634   79.9481  223.0302 H   0  0  0  0  0  0  0  0  0  0  0  0
  140.0925   80.8959  223.7925 H   0  0  0  0  0  0  0  0  0  0  0  0
  142.1556   79.4997  223.7932 H   0  0  0  0  0  0  0  0  0  0  0  0
  142.0136   77.1424  223.0146 H   0  0  0  0  0  0  0  0  0  0  0  0
  139.8701   76.2056  222.2456 H   0  0  0  0  0  0  0  0  0  0  0  0
  138.6761   69.7881  222.1279 H   0  0  0  0  0  0  0  0  0  0  0  0
  139.0303   68.2349  223.9898 H   0  0  0  0  0  0  0  0  0  0  0  0
  139.8312   67.8233  226.1843 H   0  0  0  0  0  0  0  0  0  0  0  0
  141.6142   71.0408  228.3651 H   0  0  0  0  0  0  0  0  0  0  0  0
  141.2596   72.6174  226.4841 H   0  0  0  0  0  0  0  0  0  0  0  0
  1  2  2  0
  2  3  1  0
  3  4  1  0
  4  5  1  0
  5  6  2  0
  5  7  1  0
  7  8  1  0
  8  9  1  0
  9 10  1  0
 10 11  1  0
 11 12  1  0
 12 13  1  0
 13 14  1  0
 14 15  1  0
 15 16  2  0
 16 17  1  0
 17 18  2  0
 18 19  1  0
 19 20  2  0
  2 21  1  0
 21 22  2  0
 22 23  1  0
 23 24  2  0
 24 25  1  0
 25 26  2  0
 26 27  1  0
 26 28  1  0
 28 29  2  0
 29 30  1  0
 30 31  2  0
 13  7  1  0
 20 15  1  0
 31 21  1  0
 30 24  1  0
  3 32  1  0
  4 33  1  0
  4 34  1  0
  8 35  1  0
  8 36  1  0
  9 37  1  0
  9 38  1  0
 10 39  1  0
 10 40  1  0
 11 41  1  0
 11 42  1  0
 12 43  1  0
 12 44  1  0
 13 45  1  1
 14 46  1  0
 14 47  1  0
 16 48  1  0
 17 49  1  0
 18 50  1  0
 19 51  1  0
 20 52  1  0
 22 53  1  0
 23 54  1  0
 25 55  1  0
 28 56  1  0
 29 57  1  0
M  END
>  <smiles>  (50) 
O=C(NCC(=O)N1CCCCCC1Cc1ccccc1)c1ccc2cc(Cl)ccc2n1

>  <score_type>  (50) 
oracle

>  <origin>  (50) 
autodockgpu

>  <m_score__min__energy>  (50) 
-7.04

>  <m_primary>  (50) 
energy

>  <rmsd>  (50) 
3.8707479904121924

>  <m_score__min__rmsd>  (50) 
3.8707479904121924

>  <meeko>  (50) 
{"free_energy": -5.83, "intermolecular_energy": -9.41, "internal_energy": -2.23, "cluster_size": 1, "cluster_id": 8, "rank_in_cluster": 1}

>  <energy>  (50) 
-4.9

>  <cluster_rmsd>  (50) 
0.0

>  <cluster>  (50) 
11

$$$$

     RDKit          3D

 57 60  0  0  0  0  0  0  0  0999 V2000
  137.6720   71.8780  220.9000 O   0  0  0  0  0  0  0  0  0  0  0  0
  138.2180   72.4140  221.9000 C   0  0  0  0  0  0  0  0  0  0  0  0
  138.5000   73.7940  222.0030 N   0  0  0  0  0  0  0  0  0  0  0  0
  138.1670   74.7250  220.9200 C   0  0  0  0  0  0  0  0  0  0  0  0
  139.1690   74.6630  219.8490 C   0  0  0  0  0  0  0  0  0  0  0  0
  138.6970   74.2890  218.6970 O   0  0  0  0  0  0  0  0  0  0  0  0
  140.5250   74.9380  219.8710 N   0  0  0  0  0  0  0  0  0  0  0  0
  141.2970   73.8280  219.2150 C   0  0  0  0  0  0  0  0  0  0  0  0
  142.4200   73.5220  220.1700 C   0  0  0  0  0  0  0  0  0  0  0  0
  143.6500   74.2320  219.6420 C   0  0  0  0  0  0  0  0  0  0  0  0
  143.6150   75.6450  220.1280 C   0  0  0  0  0  0  0  0  0  0  0  0
  142.4330   76.4470  219.6680 C   0  0  0  0  0  0  0  0  0  0  0  0
  141.1440   76.0920  220.4030 C   0  0  1  0  0  0  0  0  0  0  0  0
  140.3210   77.3260  220.5750 C   0  0  0  0  0  0  0  0  0  0  0  0
  141.0460   78.1730  221.6080 C   0  0  0  0  0  0  0  0  0  0  0  0
  141.7340   79.3060  221.2090 C   0  0  0  0  0  0  0  0  0  0  0  0
  142.4220   80.1170  222.0830 C   0  0  0  0  0  0  0  0  0  0  0  0
  142.4080   79.7580  223.4130 C   0  0  0  0  0  0  0  0  0  0  0  0
  141.7240   78.6220  223.8450 C   0  0  0  0  0  0  0  0  0  0  0  0
  141.0460   77.8350  222.9420 C   0  0  0  0  0  0  0  0  0  0  0  0
  138.5850   71.5460  223.0360 C   0  0  0  0  0  0  0  0  0  0  0  0
  137.9320   70.3510  223.2600 C   0  0  0  0  0  0  0  0  0  0  0  0
  138.2420   69.5080  224.3080 C   0  0  0  0  0  0  0  0  0  0  0  0
  139.2540   69.8920  225.1630 C   0  0  0  0  0  0  0  0  0  0  0  0
  139.5740   69.0590  226.2150 C   0  0  0  0  0  0  0  0  0  0  0  0
  140.5810   69.4250  227.0770 C   0  0  0  0  0  0  0  0  0  0  0  0
  140.9580   68.3380  228.4020 Cl  0  0  0  0  0  0  0  0  0  0  0  0
  141.2550   70.6160  226.8800 C   0  0  0  0  0  0  0  0  0  0  0  0
  140.9380   71.4640  225.8180 C   0  0  0  0  0  0  0  0  0  0  0  0
  139.9170   71.0980  224.9400 C   0  0  0  0  0  0  0  0  0  0  0  0
  139.5720   71.8900  223.8930 N   0  0  0  0  0  0  0  0  0  0  0  0
  138.9560   74.1580  222.8700 H   0  0  0  0  0  0  0  0  0  0  0  0
  137.1822   74.4602  220.5076 H   0  0  0  0  0  0  0  0  0  0  0  0
  138.1510   75.7466  221.3274 H   0  0  0  0  0  0  0  0  0  0  0  0
  140.6583   72.9439  219.0722 H   0  0  0  0  0  0  0  0  0  0  0  0
  141.6660   74.1122  218.2185 H   0  0  0  0  0  0  0  0  0  0  0  0
  142.1725   73.8911  221.1762 H   0  0  0  0  0  0  0  0  0  0  0  0
  142.5912   72.4379  220.2432 H   0  0  0  0  0  0  0  0  0  0  0  0
  144.5570   73.7324  220.0131 H   0  0  0  0  0  0  0  0  0  0  0  0
  143.6616   74.2074  218.5423 H   0  0  0  0  0  0  0  0  0  0  0  0
  143.6075   75.6270  221.2278 H   0  0  0  0  0  0  0  0  0  0  0  0
  144.5029   76.1370  219.7041 H   0  0  0  0  0  0  0  0  0  0  0  0
  142.6478   77.5130  219.8336 H   0  0  0  0  0  0  0  0  0  0  0  0
  142.2764   76.2180  218.6036 H   0  0  0  0  0  0  0  0  0  0  0  0
  141.3436   75.7562  221.4313 H   0  0  0  0  0  0  0  0  0  0  0  0
  140.2432   77.8694  219.6218 H   0  0  0  0  0  0  0  0  0  0  0  0
  139.2973   77.0856  220.8980 H   0  0  0  0  0  0  0  0  0  0  0  0
  141.7308   79.5712  220.1415 H   0  0  0  0  0  0  0  0  0  0  0  0
  142.9590   81.0117  221.7350 H   0  0  0  0  0  0  0  0  0  0  0  0
  142.9452   80.3775  224.1462 H   0  0  0  0  0  0  0  0  0  0  0  0
  141.7264   78.3539  224.9118 H   0  0  0  0  0  0  0  0  0  0  0  0
  140.5066   76.9399  223.2851 H   0  0  0  0  0  0  0  0  0  0  0  0
  137.1267   70.0565  222.5710 H   0  0  0  0  0  0  0  0  0  0  0  0
  137.7004   68.5621  224.4563 H   0  0  0  0  0  0  0  0  0  0  0  0
  139.0306   68.1140  226.3625 H   0  0  0  0  0  0  0  0  0  0  0  0
  142.0583   70.9012  227.5753 H   0  0  0  0  0  0  0  0  0  0  0  0
  141.4852   72.4075  225.6750 H   0  0  0  0  0  0  0  0  0  0  0  0
  1  2  2  0
  2  3  1  0
  3  4  1  0
  4  5  1  0
  5  6  2  0
  5  7  1  0
  7  8  1  0
  8  9  1  0
  9 10  1  0
 10 11  1  0
 11 12  1  0
 12 13  1  0
 13 14  1  0
 14 15  1  0
 15 16  2  0
 16 17  1  0
 17 18  2  0
 18 19  1  0
 19 20  2  0
  2 21  1  0
 21 22  2  0
 22 23  1  0
 23 24  2  0
 24 25  1  0
 25 26  2  0
 26 27  1  0
 26 28  1  0
 28 29  2  0
 29 30  1  0
 30 31  2  0
 13  7  1  0
 20 15  1  0
 31 21  1  0
 30 24  1  0
  3 32  1  0
  4 33  1  0
  4 34  1  0
  8 35  1  0
  8 36  1  0
  9 37  1  0
  9 38  1  0
 10 39  1  0
 10 40  1  0
 11 41  1  0
 11 42  1  0
 12 43  1  0
 12 44  1  0
 13 45  1  1
 14 46  1  0
 14 47  1  0
 16 48  1  0
 17 49  1  0
 18 50  1  0
 19 51  1  0
 20 52  1  0
 22 53  1  0
 23 54  1  0
 25 55  1  0
 28 56  1  0
 29 57  1  0
M  END
>  <smiles>  (51) 
O=C(NCC(=O)N1CCCCCC1Cc1ccccc1)c1ccc2cc(Cl)ccc2n1

>  <score_type>  (51) 
oracle

>  <origin>  (51) 
autodockgpu

>  <m_score__min__energy>  (51) 
-7.1699999999999999

>  <m_primary>  (51) 
energy

>  <rmsd>  (51) 
2.0835028064324104

>  <m_score__min__rmsd>  (51) 
2.0835028064324104

>  <meeko>  (51) 
{"free_energy": -6.36, "intermolecular_energy": -9.94, "internal_energy": -2.03, "cluster_size": 19, "cluster_id": 1, "rank_in_cluster": 13}

>  <energy>  (51) 
-7.17

>  <cluster_rmsd>  (51) 
0.0

>  <cluster>  (51) 
1

$$$$

     RDKit          3D

 57 60  0  0  0  0  0  0  0  0999 V2000
  138.3720   71.5120  221.2650 O   0  0  0  0  0  0  0  0  0  0  0  0
  138.8850   72.0510  222.2810 C   0  0  0  0  0  0  0  0  0  0  0  0
  139.1600   73.4320  222.3900 N   0  0  0  0  0  0  0  0  0  0  0  0
  138.8570   74.3610  221.2970 C   0  0  0  0  0  0  0  0  0  0  0  0
  139.1930   75.7390  221.6720 C   0  0  0  0  0  0  0  0  0  0  0  0
  140.2990   75.8560  222.3440 O   0  0  0  0  0  0  0  0  0  0  0  0
  138.5240   76.9250  221.4240 N   0  0  0  0  0  0  0  0  0  0  0  0
  137.1930   76.6540  220.7810 C   0  0  0  0  0  0  0  0  0  0  0  0
  136.1880   76.8090  221.8910 C   0  0  0  0  0  0  0  0  0  0  0  0
  136.2800   78.2450  222.3680 C   0  0  0  0  0  0  0  0  0  0  0  0
  136.6670   79.0970  221.2030 C   0  0  0  0  0  0  0  0  0  0  0  0
  138.1420   79.3060  221.0430 C   0  0  0  0  0  0  0  0  0  0  0  0
  138.9750   78.2290  221.7320 C   0  0  1  0  0  0  0  0  0  0  0  0
  139.1630   78.5970  223.1670 C   0  0  0  0  0  0  0  0  0  0  0  0
  140.4730   79.3640  223.2340 C   0  0  0  0  0  0  0  0  0  0  0  0
  140.4990   80.6360  223.7810 C   0  0  0  0  0  0  0  0  0  0  0  0
  141.6440   81.3960  223.8680 C   0  0  0  0  0  0  0  0  0  0  0  0
  142.8050   80.8380  223.3790 C   0  0  0  0  0  0  0  0  0  0  0  0
  142.8100   79.5580  222.8230 C   0  0  0  0  0  0  0  0  0  0  0  0
  141.6450   78.8280  222.7530 C   0  0  0  0  0  0  0  0  0  0  0  0
  139.2210   71.1850  223.4280 C   0  0  0  0  0  0  0  0  0  0  0  0
  138.9460   69.8330  223.4050 C   0  0  0  0  0  0  0  0  0  0  0  0
  139.2430   68.9860  224.4540 C   0  0  0  0  0  0  0  0  0  0  0  0
  139.8400   69.5320  225.5710 C   0  0  0  0  0  0  0  0  0  0  0  0
  140.1410   68.6970  226.6260 C   0  0  0  0  0  0  0  0  0  0  0  0
  140.7380   69.2230  227.7480 C   0  0  0  0  0  0  0  0  0  0  0  0
  141.1060   68.1280  229.0690 Cl  0  0  0  0  0  0  0  0  0  0  0  0
  141.0260   70.5750  227.8030 C   0  0  0  0  0  0  0  0  0  0  0  0
  140.7250   71.4260  226.7390 C   0  0  0  0  0  0  0  0  0  0  0  0
  140.1190   70.8970  225.5990 C   0  0  0  0  0  0  0  0  0  0  0  0
  139.8070   71.6860  224.5390 N   0  0  0  0  0  0  0  0  0  0  0  0
  139.5870   73.7980  223.2710 H   0  0  0  0  0  0  0  0  0  0  0  0
  139.4420   74.0764  220.4100 H   0  0  0  0  0  0  0  0  0  0  0  0
  137.7798   74.3088  221.0802 H   0  0  0  0  0  0  0  0  0  0  0  0
  136.9967   77.3788  219.9772 H   0  0  0  0  0  0  0  0  0  0  0  0
  137.1510   75.6558  220.3207 H   0  0  0  0  0  0  0  0  0  0  0  0
  135.1752   76.5984  221.5170 H   0  0  0  0  0  0  0  0  0  0  0  0
  136.3951   76.1065  222.7118 H   0  0  0  0  0  0  0  0  0  0  0  0
  135.3055   78.5706  222.7607 H   0  0  0  0  0  0  0  0  0  0  0  0
  137.0279   78.3332  223.1698 H   0  0  0  0  0  0  0  0  0  0  0  0
  136.2874   78.6191  220.2879 H   0  0  0  0  0  0  0  0  0  0  0  0
  136.2305   80.0900  221.3856 H   0  0  0  0  0  0  0  0  0  0  0  0
  138.3822   79.3017  219.9696 H   0  0  0  0  0  0  0  0  0  0  0  0
  138.3913   80.2674  221.5158 H   0  0  0  0  0  0  0  0  0  0  0  0
  139.9975   78.1877  221.3286 H   0  0  0  0  0  0  0  0  0  0  0  0
  138.3316   79.2295  223.5115 H   0  0  0  0  0  0  0  0  0  0  0  0
  139.1839   77.7063  223.8122 H   0  0  0  0  0  0  0  0  0  0  0  0
  139.5592   81.0599  224.1647 H   0  0  0  0  0  0  0  0  0  0  0  0
  141.6323   82.4039  224.3084 H   0  0  0  0  0  0  0  0  0  0  0  0
  143.7430   81.4106  223.4276 H   0  0  0  0  0  0  0  0  0  0  0  0
  143.7483   79.1309  222.4393 H   0  0  0  0  0  0  0  0  0  0  0  0
  141.6513   77.8195  222.3139 H   0  0  0  0  0  0  0  0  0  0  0  0
  138.4678   69.4104  222.5091 H   0  0  0  0  0  0  0  0  0  0  0  0
  139.0113   67.9120  224.4007 H   0  0  0  0  0  0  0  0  0  0  0  0
  139.9067   67.6236  226.5711 H   0  0  0  0  0  0  0  0  0  0  0  0
  141.5023   70.9878  228.7045 H   0  0  0  0  0  0  0  0  0  0  0  0
  140.9621   72.4985  226.7981 H   0  0  0  0  0  0  0  0  0  0  0  0
  1  2  2  0
  2  3  1  0
  3  4  1  0
  4  5  1  0
  5  6  2  0
  5  7  1  0
  7  8  1  0
  8  9  1  0
  9 10  1  0
 10 11  1  0
 11 12  1  0
 12 13  1  0
 13 14  1  0
 14 15  1  0
 15 16  2  0
 16 17  1  0
 17 18  2  0
 18 19  1  0
 19 20  2  0
  2 21  1  0
 21 22  2  0
 22 23  1  0
 23 24  2  0
 24 25  1  0
 25 26  2  0
 26 27  1  0
 26 28  1  0
 28 29  2  0
 29 30  1  0
 30 31  2  0
 13  7  1  0
 20 15  1  0
 31 21  1  0
 30 24  1  0
  3 32  1  0
  4 33  1  0
  4 34  1  0
  8 35  1  0
  8 36  1  0
  9 37  1  0
  9 38  1  0
 10 39  1  0
 10 40  1  0
 11 41  1  0
 11 42  1  0
 12 43  1  0
 12 44  1  0
 13 45  1  6
 14 46  1  0
 14 47  1  0
 16 48  1  0
 17 49  1  0
 18 50  1  0
 19 51  1  0
 20 52  1  0
 22 53  1  0
 23 54  1  0
 25 55  1  0
 28 56  1  0
 29 57  1  0
M  END
>  <smiles>  (52) 
O=C(NCC(=O)N1CCCCCC1Cc1ccccc1)c1ccc2cc(Cl)ccc2n1

>  <score_type>  (52) 
oracle

>  <origin>  (52) 
autodockgpu

>  <m_score__min__energy>  (52) 
-7.1699999999999999

>  <m_primary>  (52) 
energy

>  <rmsd>  (52) 
2.9830848343059664

>  <m_score__min__rmsd>  (52) 
2.9830848343059664

>  <meeko>  (52) 
{"free_energy": -6.14, "intermolecular_energy": -9.72, "internal_energy": -2.13, "cluster_size": 2, "cluster_id": 7, "rank_in_cluster": 2}

>  <energy>  (52) 
-6.96

>  <cluster_rmsd>  (52) 
1.08

>  <cluster>  (52) 
1

$$$$

     RDKit          3D

 57 60  0  0  0  0  0  0  0  0999 V2000
  138.6360   72.4680  221.2080 O   0  0  0  0  0  0  0  0  0  0  0  0
  139.6250   72.5860  221.9790 C   0  0  0  0  0  0  0  0  0  0  0  0
  140.6380   73.5580  221.8240 N   0  0  0  0  0  0  0  0  0  0  0  0
  140.6070   74.5260  220.7230 C   0  0  0  0  0  0  0  0  0  0  0  0
  141.8820   75.2440  220.6200 C   0  0  0  0  0  0  0  0  0  0  0  0
  142.8800   74.6470  221.1990 O   0  0  0  0  0  0  0  0  0  0  0  0
  142.1880   76.4480  220.0090 N   0  0  0  0  0  0  0  0  0  0  0  0
  142.8640   76.2110  218.6890 C   0  0  0  0  0  0  0  0  0  0  0  0
  141.9000   76.7380  217.6590 C   0  0  0  0  0  0  0  0  0  0  0  0
  142.4340   78.0820  217.2080 C   0  0  0  0  0  0  0  0  0  0  0  0
  142.3920   79.0150  218.3750 C   0  0  0  0  0  0  0  0  0  0  0  0
  141.3680   78.6710  219.4200 C   0  0  0  0  0  0  0  0  0  0  0  0
  141.9060   77.7420  220.5050 C   0  0  1  0  0  0  0  0  0  0  0  0
  141.0540   77.8670  221.7240 C   0  0  0  0  0  0  0  0  0  0  0  0
  141.4700   79.1660  222.3940 C   0  0  0  0  0  0  0  0  0  0  0  0
  140.6710   80.2900  222.2710 C   0  0  0  0  0  0  0  0  0  0  0  0
  140.9850   81.5050  222.8400 C   0  0  0  0  0  0  0  0  0  0  0  0
  142.1580   81.5740  223.5590 C   0  0  0  0  0  0  0  0  0  0  0  0
  142.9830   80.4580  223.7000 C   0  0  0  0  0  0  0  0  0  0  0  0
  142.6360   79.2610  223.1180 C   0  0  0  0  0  0  0  0  0  0  0  0
  139.7330   71.6490  223.1150 C   0  0  0  0  0  0  0  0  0  0  0  0
  139.2070   70.3750  223.0400 C   0  0  0  0  0  0  0  0  0  0  0  0
  139.2850   69.4660  224.0760 C   0  0  0  0  0  0  0  0  0  0  0  0
  139.9190   69.8650  225.2340 C   0  0  0  0  0  0  0  0  0  0  0  0
  140.0040   68.9670  226.2770 C   0  0  0  0  0  0  0  0  0  0  0  0
  140.6330   69.3460  227.4390 C   0  0  0  0  0  0  0  0  0  0  0  0
  140.7210   68.1750  228.7430 Cl  0  0  0  0  0  0  0  0  0  0  0  0
  141.1710   70.6170  227.5450 C   0  0  0  0  0  0  0  0  0  0  0  0
  141.0900   71.5310  226.4950 C   0  0  0  0  0  0  0  0  0  0  0  0
  140.4520   71.1510  225.3130 C   0  0  0  0  0  0  0  0  0  0  0  0
  140.3480   72.0060  224.2640 N   0  0  0  0  0  0  0  0  0  0  0  0
  141.4250   73.5870  222.5100 H   0  0  0  0  0  0  0  0  0  0  0  0
  140.4171   73.9926  219.7799 H   0  0  0  0  0  0  0  0  0  0  0  0
  139.8080   75.2560  220.9198 H   0  0  0  0  0  0  0  0  0  0  0  0
  143.8185   76.7555  218.6399 H   0  0  0  0  0  0  0  0  0  0  0  0
  143.0998   75.1484  218.5297 H   0  0  0  0  0  0  0  0  0  0  0  0
  141.8430   76.0471  216.8050 H   0  0  0  0  0  0  0  0  0  0  0  0
  140.8879   76.8357  218.0787 H   0  0  0  0  0  0  0  0  0  0  0  0
  143.4703   77.9721  216.8559 H   0  0  0  0  0  0  0  0  0  0  0  0
  141.8231   78.4768  216.3829 H   0  0  0  0  0  0  0  0  0  0  0  0
  143.3830   79.0108  218.8524 H   0  0  0  0  0  0  0  0  0  0  0  0
  142.1075   79.9993  217.9747 H   0  0  0  0  0  0  0  0  0  0  0  0
  141.0264   79.6025  219.8949 H   0  0  0  0  0  0  0  0  0  0  0  0
  140.5480   78.1415  218.9128 H   0  0  0  0  0  0  0  0  0  0  0  0
  142.9065   78.0496  220.8433 H   0  0  0  0  0  0  0  0  0  0  0  0
  139.9906   77.9043  221.4450 H   0  0  0  0  0  0  0  0  0  0  0  0
  141.1845   77.0067  222.3969 H   0  0  0  0  0  0  0  0  0  0  0  0
  139.7400   80.2091  221.6907 H   0  0  0  0  0  0  0  0  0  0  0  0
  140.3287   82.3803  222.7253 H   0  0  0  0  0  0  0  0  0  0  0  0
  142.4489   82.5247  224.0297 H   0  0  0  0  0  0  0  0  0  0  0  0
  143.9150   80.5356  224.2791 H   0  0  0  0  0  0  0  0  0  0  0  0
  143.2885   78.3827  223.2310 H   0  0  0  0  0  0  0  0  0  0  0  0
  138.7022   70.0699  222.1115 H   0  0  0  0  0  0  0  0  0  0  0  0
  138.8560   68.4576  223.9811 H   0  0  0  0  0  0  0  0  0  0  0  0
  139.5736   67.9593  226.1803 H   0  0  0  0  0  0  0  0  0  0  0  0
  141.6734   70.9125  228.4779 H   0  0  0  0  0  0  0  0  0  0  0  0
  141.5227   72.5372  226.5967 H   0  0  0  0  0  0  0  0  0  0  0  0
  1  2  2  0
  2  3  1  0
  3  4  1  0
  4  5  1  0
  5  6  2  0
  5  7  1  0
  7  8  1  0
  8  9  1  0
  9 10  1  0
 10 11  1  0
 11 12  1  0
 12 13  1  0
 13 14  1  0
 14 15  1  0
 15 16  2  0
 16 17  1  0
 17 18  2  0
 18 19  1  0
 19 20  2  0
  2 21  1  0
 21 22  2  0
 22 23  1  0
 23 24  2  0
 24 25  1  0
 25 26  2  0
 26 27  1  0
 26 28  1  0
 28 29  2  0
 29 30  1  0
 30 31  2  0
 13  7  1  0
 20 15  1  0
 31 21  1  0
 30 24  1  0
  3 32  1  0
  4 33  1  0
  4 34  1  0
  8 35  1  0
  8 36  1  0
  9 37  1  0
  9 38  1  0
 10 39  1  0
 10 40  1  0
 11 41  1  0
 11 42  1  0
 12 43  1  0
 12 44  1  0
 13 45  1  1
 14 46  1  0
 14 47  1  0
 16 48  1  0
 17 49  1  0
 18 50  1  0
 19 51  1  0
 20 52  1  0
 22 53  1  0
 23 54  1  0
 25 55  1  0
 28 56  1  0
 29 57  1  0
M  END
>  <smiles>  (53) 
O=C(NCC(=O)N1CCCCCC1Cc1ccccc1)c1ccc2cc(Cl)ccc2n1

>  <score_type>  (53) 
oracle

>  <origin>  (53) 
autodockgpu

>  <m_score__min__energy>  (53) 
-7.1699999999999999

>  <m_primary>  (53) 
energy

>  <rmsd>  (53) 
2.320768403170416

>  <m_score__min__rmsd>  (53) 
2.320768403170416

>  <meeko>  (53) 
{"free_energy": -6.43, "intermolecular_energy": -10.01, "internal_energy": -2.22, "cluster_size": 19, "cluster_id": 1, "rank_in_cluster": 12}

>  <energy>  (53) 
-6.94

>  <cluster_rmsd>  (53) 
1.35

>  <cluster>  (53) 
1

$$$$

     RDKit          3D

 57 60  0  0  0  0  0  0  0  0999 V2000
  138.7590   71.0370  221.3190 O   0  0  0  0  0  0  0  0  0  0  0  0
  139.0680   71.8410  222.2380 C   0  0  0  0  0  0  0  0  0  0  0  0
  138.9300   73.2440  222.1400 N   0  0  0  0  0  0  0  0  0  0  0  0
  138.4030   73.8780  220.9290 C   0  0  0  0  0  0  0  0  0  0  0  0
  139.3850   73.8250  219.8400 C   0  0  0  0  0  0  0  0  0  0  0  0
  138.8900   73.4780  218.6890 O   0  0  0  0  0  0  0  0  0  0  0  0
  140.7440   74.0860  219.8430 N   0  0  0  0  0  0  0  0  0  0  0  0
  141.5090   72.9000  219.3300 C   0  0  0  0  0  0  0  0  0  0  0  0
  142.3560   72.4520  220.4920 C   0  0  0  0  0  0  0  0  0  0  0  0
  143.7420   73.0220  220.2690 C   0  0  0  0  0  0  0  0  0  0  0  0
  143.7210   74.4630  220.6660 C   0  0  0  0  0  0  0  0  0  0  0  0
  142.8400   75.3390  219.8280 C   0  0  0  0  0  0  0  0  0  0  0  0
  141.3720   75.2890  220.2440 C   0  0  1  0  0  0  0  0  0  0  0  0
  140.7170   76.5840  219.8940 C   0  0  0  0  0  0  0  0  0  0  0  0
  141.1880   77.5860  220.9350 C   0  0  0  0  0  0  0  0  0  0  0  0
  141.0350   77.3010  222.2820 C   0  0  0  0  0  0  0  0  0  0  0  0
  141.4260   78.1620  223.2830 C   0  0  0  0  0  0  0  0  0  0  0  0
  141.9930   79.3560  222.8960 C   0  0  0  0  0  0  0  0  0  0  0  0
  142.1600   79.6700  221.5470 C   0  0  0  0  0  0  0  0  0  0  0  0
  141.7570   78.7850  220.5730 C   0  0  0  0  0  0  0  0  0  0  0  0
  139.6070   71.2840  223.4940 C   0  0  0  0  0  0  0  0  0  0  0  0
  140.5460   71.9740  224.2340 C   0  0  0  0  0  0  0  0  0  0  0  0
  141.0770   71.4920  225.4140 C   0  0  0  0  0  0  0  0  0  0  0  0
  140.6400   70.2630  225.8600 C   0  0  0  0  0  0  0  0  0  0  0  0
  141.1630   69.7690  227.0370 C   0  0  0  0  0  0  0  0  0  0  0  0
  140.7380   68.5450  227.4980 C   0  0  0  0  0  0  0  0  0  0  0  0
  141.4260   67.9530  228.9990 Cl  0  0  0  0  0  0  0  0  0  0  0  0
  139.7970   67.8290  226.7790 C   0  0  0  0  0  0  0  0  0  0  0  0
  139.2630   68.3210  225.5880 C   0  0  0  0  0  0  0  0  0  0  0  0
  139.6910   69.5630  225.1160 C   0  0  0  0  0  0  0  0  0  0  0  0
  139.2010   70.0830  223.9620 N   0  0  0  0  0  0  0  0  0  0  0  0
  139.2100   73.8400  222.9520 H   0  0  0  0  0  0  0  0  0  0  0  0
  137.4891   73.3520  220.6157 H   0  0  0  0  0  0  0  0  0  0  0  0
  138.1824   74.9323  221.1520 H   0  0  0  0  0  0  0  0  0  0  0  0
  140.8205   72.0994  219.0218 H   0  0  0  0  0  0  0  0  0  0  0  0
  142.1162   73.1495  218.4473 H   0  0  0  0  0  0  0  0  0  0  0  0
  141.9371   72.8330  221.4351 H   0  0  0  0  0  0  0  0  0  0  0  0
  142.3866   71.3544  220.5581 H   0  0  0  0  0  0  0  0  0  0  0  0
  144.4729   72.4765  220.8840 H   0  0  0  0  0  0  0  0  0  0  0  0
  144.0296   72.9221  219.2120 H   0  0  0  0  0  0  0  0  0  0  0  0
  143.3720   74.5248  221.7074 H   0  0  0  0  0  0  0  0  0  0  0  0
  144.7466   74.8351  220.5257 H   0  0  0  0  0  0  0  0  0  0  0  0
  143.1933   76.3770  219.9163 H   0  0  0  0  0  0  0  0  0  0  0  0
  142.8996   74.9690  218.7938 H   0  0  0  0  0  0  0  0  0  0  0  0
  141.2627   75.2198  221.3364 H   0  0  0  0  0  0  0  0  0  0  0  0
  141.0216   76.9067  218.8875 H   0  0  0  0  0  0  0  0  0  0  0  0
  139.6208   76.4929  219.8892 H   0  0  0  0  0  0  0  0  0  0  0  0
  140.5793   76.3408  222.5656 H   0  0  0  0  0  0  0  0  0  0  0  0
  141.2914   77.9075  224.3447 H   0  0  0  0  0  0  0  0  0  0  0  0
  142.3195   80.0737  223.6630 H   0  0  0  0  0  0  0  0  0  0  0  0
  142.6158   80.6292  221.2605 H   0  0  0  0  0  0  0  0  0  0  0  0
  141.8893   79.0353  219.5100 H   0  0  0  0  0  0  0  0  0  0  0  0
  140.8871   72.9531  223.8667 H   0  0  0  0  0  0  0  0  0  0  0  0
  141.8236   72.0693  225.9791 H   0  0  0  0  0  0  0  0  0  0  0  0
  141.9107   70.3470  227.5999 H   0  0  0  0  0  0  0  0  0  0  0  0
  139.4629   66.8507  227.1549 H   0  0  0  0  0  0  0  0  0  0  0  0
  138.5156   67.7388  225.0290 H   0  0  0  0  0  0  0  0  0  0  0  0
  1  2  2  0
  2  3  1  0
  3  4  1  0
  4  5  1  0
  5  6  2  0
  5  7  1  0
  7  8  1  0
  8  9  1  0
  9 10  1  0
 10 11  1  0
 11 12  1  0
 12 13  1  0
 13 14  1  0
 14 15  1  0
 15 16  2  0
 16 17  1  0
 17 18  2  0
 18 19  1  0
 19 20  2  0
  2 21  1  0
 21 22  2  0
 22 23  1  0
 23 24  2  0
 24 25  1  0
 25 26  2  0
 26 27  1  0
 26 28  1  0
 28 29  2  0
 29 30  1  0
 30 31  2  0
 13  7  1  0
 20 15  1  0
 31 21  1  0
 30 24  1  0
  3 32  1  0
  4 33  1  0
  4 34  1  0
  8 35  1  0
  8 36  1  0
  9 37  1  0
  9 38  1  0
 10 39  1  0
 10 40  1  0
 11 41  1  0
 11 42  1  0
 12 43  1  0
 12 44  1  0
 13 45  1  1
 14 46  1  0
 14 47  1  0
 16 48  1  0
 17 49  1  0
 18 50  1  0
 19 51  1  0
 20 52  1  0
 22 53  1  0
 23 54  1  0
 25 55  1  0
 28 56  1  0
 29 57  1  0
M  END
>  <smiles>  (54) 
O=C(NCC(=O)N1CCCCCC1Cc1ccccc1)c1ccc2cc(Cl)ccc2n1

>  <score_type>  (54) 
oracle

>  <origin>  (54) 
autodockgpu

>  <m_score__min__energy>  (54) 
-7.1699999999999999

>  <m_primary>  (54) 
energy

>  <rmsd>  (54) 
3.052640318565622

>  <m_score__min__rmsd>  (54) 
3.052640318565622

>  <meeko>  (54) 
{"free_energy": -5.94, "intermolecular_energy": -9.52, "internal_energy": -2.03, "cluster_size": 5, "cluster_id": 3, "rank_in_cluster": 4}

>  <energy>  (54) 
-6.75

>  <cluster_rmsd>  (54) 
1.45

>  <cluster>  (54) 
1

$$$$

     RDKit          3D

 57 60  0  0  0  0  0  0  0  0999 V2000
  139.3130   71.4220  220.8610 O   0  0  0  0  0  0  0  0  0  0  0  0
  139.4580   72.0020  221.9690 C   0  0  0  0  0  0  0  0  0  0  0  0
  139.4650   73.4050  222.1330 N   0  0  0  0  0  0  0  0  0  0  0  0
  139.2990   74.3080  220.9910 C   0  0  0  0  0  0  0  0  0  0  0  0
  139.9850   75.5840  221.2280 C   0  0  0  0  0  0  0  0  0  0  0  0
  140.1720   75.8650  222.4830 O   0  0  0  0  0  0  0  0  0  0  0  0
  140.4620   76.5270  220.3340 N   0  0  0  0  0  0  0  0  0  0  0  0
  140.5110   75.9570  218.9450 C   0  0  0  0  0  0  0  0  0  0  0  0
  141.9770   75.7990  218.6430 C   0  0  0  0  0  0  0  0  0  0  0  0
  142.3920   77.0120  217.8350 C   0  0  0  0  0  0  0  0  0  0  0  0
  142.5140   78.1720  218.7690 C   0  0  0  0  0  0  0  0  0  0  0  0
  141.2250   78.6400  219.3800 C   0  0  0  0  0  0  0  0  0  0  0  0
  140.8410   77.8560  220.6310 C   0  0  1  0  0  0  0  0  0  0  0  0
  139.9280   78.6870  221.4700 C   0  0  0  0  0  0  0  0  0  0  0  0
  140.8240   79.6060  222.2820 C   0  0  0  0  0  0  0  0  0  0  0  0
  141.6310   79.0800  223.2760 C   0  0  0  0  0  0  0  0  0  0  0  0
  142.4620   79.8500  224.0600 C   0  0  0  0  0  0  0  0  0  0  0  0
  142.4690   81.2060  223.8200 C   0  0  0  0  0  0  0  0  0  0  0  0
  141.6670   81.7650  222.8250 C   0  0  0  0  0  0  0  0  0  0  0  0
  140.8490   80.9640  222.0610 C   0  0  0  0  0  0  0  0  0  0  0  0
  139.6310   71.1630  223.1720 C   0  0  0  0  0  0  0  0  0  0  0  0
  139.2420   69.8390  223.1790 C   0  0  0  0  0  0  0  0  0  0  0  0
  139.3850   69.0180  224.2800 C   0  0  0  0  0  0  0  0  0  0  0  0
  139.9450   69.5610  225.4170 C   0  0  0  0  0  0  0  0  0  0  0  0
  140.0930   68.7520  226.5240 C   0  0  0  0  0  0  0  0  0  0  0  0
  140.6500   69.2760  227.6680 C   0  0  0  0  0  0  0  0  0  0  0  0
  140.8230   68.2140  229.0540 Cl  0  0  0  0  0  0  0  0  0  0  0  0
  141.0510   70.6000  227.6920 C   0  0  0  0  0  0  0  0  0  0  0  0
  140.9040   71.4250  226.5770 C   0  0  0  0  0  0  0  0  0  0  0  0
  140.3400   70.8980  225.4140 C   0  0  0  0  0  0  0  0  0  0  0  0
  140.1760   71.6620  224.3040 N   0  0  0  0  0  0  0  0  0  0  0  0
  139.5910   73.8050  223.0900 H   0  0  0  0  0  0  0  0  0  0  0  0
  139.7209   73.8338  220.0926 H   0  0  0  0  0  0  0  0  0  0  0  0
  138.2259   74.5063  220.8529 H   0  0  0  0  0  0  0  0  0  0  0  0
  140.0011   74.9830  218.9081 H   0  0  0  0  0  0  0  0  0  0  0  0
  140.0048   76.6042  218.2136 H   0  0  0  0  0  0  0  0  0  0  0  0
  142.5533   75.7523  219.5788 H   0  0  0  0  0  0  0  0  0  0  0  0
  142.1667   74.8701  218.0852 H   0  0  0  0  0  0  0  0  0  0  0  0
  143.3597   76.8222  217.3477 H   0  0  0  0  0  0  0  0  0  0  0  0
  141.6442   77.2259  217.0571 H   0  0  0  0  0  0  0  0  0  0  0  0
  143.1917   77.8816  219.5853 H   0  0  0  0  0  0  0  0  0  0  0  0
  142.8877   79.0119  218.1649 H   0  0  0  0  0  0  0  0  0  0  0  0
  141.3295   79.7014  219.6494 H   0  0  0  0  0  0  0  0  0  0  0  0
  140.4308   78.4825  218.6354 H   0  0  0  0  0  0  0  0  0  0  0  0
  141.7110   77.6753  221.2794 H   0  0  0  0  0  0  0  0  0  0  0  0
  139.2539   79.2770  220.8316 H   0  0  0  0  0  0  0  0  0  0  0  0
  139.2983   78.0617  222.1200 H   0  0  0  0  0  0  0  0  0  0  0  0
  141.6077   77.9939  223.4484 H   0  0  0  0  0  0  0  0  0  0  0  0
  143.0917   79.4017  224.8426 H   0  0  0  0  0  0  0  0  0  0  0  0
  143.1175   81.8589  224.4227 H   0  0  0  0  0  0  0  0  0  0  0  0
  141.6884   82.8508  222.6501 H   0  0  0  0  0  0  0  0  0  0  0  0
  140.2178   81.4076  221.2769 H   0  0  0  0  0  0  0  0  0  0  0  0
  138.7974   69.4181  222.2651 H   0  0  0  0  0  0  0  0  0  0  0  0
  139.0631   67.9666  224.2510 H   0  0  0  0  0  0  0  0  0  0  0  0
  139.7698   67.7010  226.4929 H   0  0  0  0  0  0  0  0  0  0  0  0
  141.4954   71.0110  228.6105 H   0  0  0  0  0  0  0  0  0  0  0  0
  141.2278   72.4756  226.6136 H   0  0  0  0  0  0  0  0  0  0  0  0
  1  2  2  0
  2  3  1  0
  3  4  1  0
  4  5  1  0
  5  6  2  0
  5  7  1  0
  7  8  1  0
  8  9  1  0
  9 10  1  0
 10 11  1  0
 11 12  1  0
 12 13  1  0
 13 14  1  0
 14 15  1  0
 15 16  2  0
 16 17  1  0
 17 18  2  0
 18 19  1  0
 19 20  2  0
  2 21  1  0
 21 22  2  0
 22 23  1  0
 23 24  2  0
 24 25  1  0
 25 26  2  0
 26 27  1  0
 26 28  1  0
 28 29  2  0
 29 30  1  0
 30 31  2  0
 13  7  1  0
 20 15  1  0
 31 21  1  0
 30 24  1  0
  3 32  1  0
  4 33  1  0
  4 34  1  0
  8 35  1  0
  8 36  1  0
  9 37  1  0
  9 38  1  0
 10 39  1  0
 10 40  1  0
 11 41  1  0
 11 42  1  0
 12 43  1  0
 12 44  1  0
 13 45  1  1
 14 46  1  0
 14 47  1  0
 16 48  1  0
 17 49  1  0
 18 50  1  0
 19 51  1  0
 20 52  1  0
 22 53  1  0
 23 54  1  0
 25 55  1  0
 28 56  1  0
 29 57  1  0
M  END
>  <smiles>  (55) 
O=C(NCC(=O)N1CCCCCC1Cc1ccccc1)c1ccc2cc(Cl)ccc2n1

>  <score_type>  (55) 
oracle

>  <origin>  (55) 
autodockgpu

>  <m_score__min__energy>  (55) 
-7.1699999999999999

>  <m_primary>  (55) 
energy

>  <rmsd>  (55) 
1.6790937953376057

>  <m_score__min__rmsd>  (55) 
1.6790937953376057

>  <meeko>  (55) 
{"free_energy": -6.46, "intermolecular_energy": -10.03, "internal_energy": -2.33, "cluster_size": 19, "cluster_id": 1, "rank_in_cluster": 10}

>  <energy>  (55) 
-6.72

>  <cluster_rmsd>  (55) 
1.4

>  <cluster>  (55) 
1

$$$$

     RDKit          3D

 57 60  0  0  0  0  0  0  0  0999 V2000
  138.7520   71.6960  220.4810 O   0  0  0  0  0  0  0  0  0  0  0  0
  138.8780   72.2650  221.5980 C   0  0  0  0  0  0  0  0  0  0  0  0
  138.7190   73.6540  221.8010 N   0  0  0  0  0  0  0  0  0  0  0  0
  138.3870   74.5550  220.6930 C   0  0  0  0  0  0  0  0  0  0  0  0
  139.5590   74.7930  219.8420 C   0  0  0  0  0  0  0  0  0  0  0  0
  139.3080   74.7620  218.5670 O   0  0  0  0  0  0  0  0  0  0  0  0
  140.8770   75.0440  220.1790 N   0  0  0  0  0  0  0  0  0  0  0  0
  141.7150   73.8140  219.9760 C   0  0  0  0  0  0  0  0  0  0  0  0
  142.9170   74.0140  220.8610 C   0  0  0  0  0  0  0  0  0  0  0  0
  143.9840   74.6710  220.0100 C   0  0  0  0  0  0  0  0  0  0  0  0
  143.3130   75.6410  219.0920 C   0  0  0  0  0  0  0  0  0  0  0  0
  142.5700   76.7530  219.7640 C   0  0  0  0  0  0  0  0  0  0  0  0
  141.4130   76.2710  220.6340 C   0  0  1  0  0  0  0  0  0  0  0  0
  140.4780   77.4080  220.8820 C   0  0  0  0  0  0  0  0  0  0  0  0
  141.2310   78.3840  221.7700 C   0  0  0  0  0  0  0  0  0  0  0  0
  141.3400   78.1370  223.1280 C   0  0  0  0  0  0  0  0  0  0  0  0
  141.9970   78.9790  223.9970 C   0  0  0  0  0  0  0  0  0  0  0  0
  142.5630   80.1140  223.4610 C   0  0  0  0  0  0  0  0  0  0  0  0
  142.4700   80.3900  222.0970 C   0  0  0  0  0  0  0  0  0  0  0  0
  141.8060   79.5250  221.2580 C   0  0  0  0  0  0  0  0  0  0  0  0
  139.2110   71.4280  222.7670 C   0  0  0  0  0  0  0  0  0  0  0  0
  138.9090   70.0820  222.7890 C   0  0  0  0  0  0  0  0  0  0  0  0
  139.2030   69.2610  223.8600 C   0  0  0  0  0  0  0  0  0  0  0  0
  139.8270   69.8290  224.9510 C   0  0  0  0  0  0  0  0  0  0  0  0
  140.1260   69.0210  226.0280 C   0  0  0  0  0  0  0  0  0  0  0  0
  140.7480   69.5690  227.1250 C   0  0  0  0  0  0  0  0  0  0  0  0
  141.1130   68.5070  228.4740 Cl  0  0  0  0  0  0  0  0  0  0  0  0
  141.0650   70.9150  227.1340 C   0  0  0  0  0  0  0  0  0  0  0  0
  140.7660   71.7400  226.0490 C   0  0  0  0  0  0  0  0  0  0  0  0
  140.1340   71.1890  224.9330 C   0  0  0  0  0  0  0  0  0  0  0  0
  139.8230   71.9500  223.8540 N   0  0  0  0  0  0  0  0  0  0  0  0
  138.8400   74.0450  222.7620 H   0  0  0  0  0  0  0  0  0  0  0  0
  137.5883   74.1019  220.0874 H   0  0  0  0  0  0  0  0  0  0  0  0
  138.0544   75.5170  221.1100 H   0  0  0  0  0  0  0  0  0  0  0  0
  141.1593   72.9132  220.2757 H   0  0  0  0  0  0  0  0  0  0  0  0
  141.9956   73.6734  218.9217 H   0  0  0  0  0  0  0  0  0  0  0  0
  142.6577   74.6629  221.7105 H   0  0  0  0  0  0  0  0  0  0  0  0
  143.2716   73.0551  221.2670 H   0  0  0  0  0  0  0  0  0  0  0  0
  144.7005   75.2017  220.6542 H   0  0  0  0  0  0  0  0  0  0  0  0
  144.5299   73.9123  219.4301 H   0  0  0  0  0  0  0  0  0  0  0  0
  144.0848   76.0888  218.4487 H   0  0  0  0  0  0  0  0  0  0  0  0
  142.5578   75.0625  218.5397 H   0  0  0  0  0  0  0  0  0  0  0  0
  143.2751   77.3095  220.3989 H   0  0  0  0  0  0  0  0  0  0  0  0
  142.1392   77.3813  218.9705 H   0  0  0  0  0  0  0  0  0  0  0  0
  141.7548   75.9805  221.6384 H   0  0  0  0  0  0  0  0  0  0  0  0
  140.2021   77.8899  219.9325 H   0  0  0  0  0  0  0  0  0  0  0  0
  139.5466   77.0670  221.3576 H   0  0  0  0  0  0  0  0  0  0  0  0
  140.8793   77.2236  223.5323 H   0  0  0  0  0  0  0  0  0  0  0  0
  142.0666   78.7549  225.0717 H   0  0  0  0  0  0  0  0  0  0  0  0
  143.0974   80.8147  224.1194 H   0  0  0  0  0  0  0  0  0  0  0  0
  142.9294   81.3030  221.6903 H   0  0  0  0  0  0  0  0  0  0  0  0
  141.7349   79.7444  220.1824 H   0  0  0  0  0  0  0  0  0  0  0  0
  138.4107   69.6421  221.9125 H   0  0  0  0  0  0  0  0  0  0  0  0
  138.9483   68.1910  223.8434 H   0  0  0  0  0  0  0  0  0  0  0  0
  139.8700   67.9514  226.0096 H   0  0  0  0  0  0  0  0  0  0  0  0
  141.5636   71.3446  228.0154 H   0  0  0  0  0  0  0  0  0  0  0  0
  141.0246   72.8089  226.0728 H   0  0  0  0  0  0  0  0  0  0  0  0
  1  2  2  0
  2  3  1  0
  3  4  1  0
  4  5  1  0
  5  6  2  0
  5  7  1  0
  7  8  1  0
  8  9  1  0
  9 10  1  0
 10 11  1  0
 11 12  1  0
 12 13  1  0
 13 14  1  0
 14 15  1  0
 15 16  2  0
 16 17  1  0
 17 18  2  0
 18 19  1  0
 19 20  2  0
  2 21  1  0
 21 22  2  0
 22 23  1  0
 23 24  2  0
 24 25  1  0
 25 26  2  0
 26 27  1  0
 26 28  1  0
 28 29  2  0
 29 30  1  0
 30 31  2  0
 13  7  1  0
 20 15  1  0
 31 21  1  0
 30 24  1  0
  3 32  1  0
  4 33  1  0
  4 34  1  0
  8 35  1  0
  8 36  1  0
  9 37  1  0
  9 38  1  0
 10 39  1  0
 10 40  1  0
 11 41  1  0
 11 42  1  0
 12 43  1  0
 12 44  1  0
 13 45  1  1
 14 46  1  0
 14 47  1  0
 16 48  1  0
 17 49  1  0
 18 50  1  0
 19 51  1  0
 20 52  1  0
 22 53  1  0
 23 54  1  0
 25 55  1  0
 28 56  1  0
 29 57  1  0
M  END
>  <smiles>  (56) 
O=C(NCC(=O)N1CCCCCC1Cc1ccccc1)c1ccc2cc(Cl)ccc2n1

>  <score_type>  (56) 
oracle

>  <origin>  (56) 
autodockgpu

>  <m_score__min__energy>  (56) 
-7.1699999999999999

>  <m_primary>  (56) 
energy

>  <rmsd>  (56) 
2.1609118135387573

>  <m_score__min__rmsd>  (56) 
2.1609118135387573

>  <meeko>  (56) 
{"free_energy": -6.2, "intermolecular_energy": -9.78, "internal_energy": -2.1, "cluster_size": 19, "cluster_id": 1, "rank_in_cluster": 16}

>  <energy>  (56) 
-6.67

>  <cluster_rmsd>  (56) 
1.38

>  <cluster>  (56) 
1

$$$$

     RDKit          3D

 57 60  0  0  0  0  0  0  0  0999 V2000
  140.3580   81.0540  219.7000 O   0  0  0  0  0  0  0  0  0  0  0  0
  139.9660   79.8780  219.9240 C   0  0  0  0  0  0  0  0  0  0  0  0
  138.6520   79.5440  220.3200 N   0  0  0  0  0  0  0  0  0  0  0  0
  137.6240   80.5730  220.5020 C   0  0  0  0  0  0  0  0  0  0  0  0
  136.9220   80.3940  221.7780 C   0  0  0  0  0  0  0  0  0  0  0  0
  136.1200   79.3710  221.8080 O   0  0  0  0  0  0  0  0  0  0  0  0
  136.9790   81.1340  222.9460 N   0  0  0  0  0  0  0  0  0  0  0  0
  135.7010   81.8990  223.1460 C   0  0  0  0  0  0  0  0  0  0  0  0
  134.9060   81.0740  224.1240 C   0  0  0  0  0  0  0  0  0  0  0  0
  135.1850   81.6390  225.5020 C   0  0  0  0  0  0  0  0  0  0  0  0
  136.5620   81.2210  225.9050 C   0  0  0  0  0  0  0  0  0  0  0  0
  137.6750   81.8970  225.1580 C   0  0  0  0  0  0  0  0  0  0  0  0
  138.0530   81.1820  223.8630 C   0  0  1  0  0  0  0  0  0  0  0  0
  138.7650   79.9120  224.1930 C   0  0  0  0  0  0  0  0  0  0  0  0
  140.1640   80.0540  223.6170 C   0  0  0  0  0  0  0  0  0  0  0  0
  140.5690   81.2660  223.0830 C   0  0  0  0  0  0  0  0  0  0  0  0
  141.8160   81.4690  222.5340 C   0  0  0  0  0  0  0  0  0  0  0  0
  142.6790   80.3950  222.5280 C   0  0  0  0  0  0  0  0  0  0  0  0
  142.2990   79.1620  223.0590 C   0  0  0  0  0  0  0  0  0  0  0  0
  141.0450   78.9970  223.6000 C   0  0  0  0  0  0  0  0  0  0  0  0
  140.9410   78.7810  219.7650 C   0  0  0  0  0  0  0  0  0  0  0  0
  141.9990   78.8900  218.8850 C   0  0  0  0  0  0  0  0  0  0  0  0
  142.9340   77.8910  218.7040 C   0  0  0  0  0  0  0  0  0  0  0  0
  142.7900   76.7350  219.4420 C   0  0  0  0  0  0  0  0  0  0  0  0
  143.7170   75.7290  219.2700 C   0  0  0  0  0  0  0  0  0  0  0  0
  143.5900   74.5690  219.9980 C   0  0  0  0  0  0  0  0  0  0  0  0
  144.7900   73.3130  219.7520 Cl  0  0  0  0  0  0  0  0  0  0  0  0
  142.5410   74.4280  220.8890 C   0  0  0  0  0  0  0  0  0  0  0  0
  141.5980   75.4420  221.0680 C   0  0  0  0  0  0  0  0  0  0  0  0
  141.7230   76.6200  220.3320 C   0  0  0  0  0  0  0  0  0  0  0  0
  140.8310   77.6340  220.4720 N   0  0  0  0  0  0  0  0  0  0  0  0
  138.4090   78.5410  220.4860 H   0  0  0  0  0  0  0  0  0  0  0  0
  138.1008   81.5642  220.4896 H   0  0  0  0  0  0  0  0  0  0  0  0
  136.8931   80.4871  219.6844 H   0  0  0  0  0  0  0  0  0  0  0  0
  135.9078   82.8971  223.5596 H   0  0  0  0  0  0  0  0  0  0  0  0
  135.1603   82.0572  222.2012 H   0  0  0  0  0  0  0  0  0  0  0  0
  133.8324   81.1462  223.8954 H   0  0  0  0  0  0  0  0  0  0  0  0
  135.1902   80.0128  224.0676 H   0  0  0  0  0  0  0  0  0  0  0  0
  135.1216   82.7368  225.4747 H   0  0  0  0  0  0  0  0  0  0  0  0
  134.4458   81.2633  226.2248 H   0  0  0  0  0  0  0  0  0  0  0  0
  136.6860   81.4420  226.9754 H   0  0  0  0  0  0  0  0  0  0  0  0
  136.6394   80.1496  225.6681 H   0  0  0  0  0  0  0  0  0  0  0  0
  137.3589   82.9215  224.9120 H   0  0  0  0  0  0  0  0  0  0  0  0
  138.5612   81.8825  225.8095 H   0  0  0  0  0  0  0  0  0  0  0  0
  138.7875   81.7583  223.2813 H   0  0  0  0  0  0  0  0  0  0  0  0
  138.8128   79.7728  225.2831 H   0  0  0  0  0  0  0  0  0  0  0  0
  138.2441   79.0379  223.7751 H   0  0  0  0  0  0  0  0  0  0  0  0
  139.8605   82.1073  223.0980 H   0  0  0  0  0  0  0  0  0  0  0  0
  142.1095   82.4446  222.1191 H   0  0  0  0  0  0  0  0  0  0  0  0
  143.6845   80.5116  222.0973 H   0  0  0  0  0  0  0  0  0  0  0  0
  143.0049   78.3185  223.0450 H   0  0  0  0  0  0  0  0  0  0  0  0
  140.7476   78.0237  224.0175 H   0  0  0  0  0  0  0  0  0  0  0  0
  142.1017   79.8163  218.3007 H   0  0  0  0  0  0  0  0  0  0  0  0
  143.7661   78.0128  217.9949 H   0  0  0  0  0  0  0  0  0  0  0  0
  144.5476   75.8526  218.5595 H   0  0  0  0  0  0  0  0  0  0  0  0
  142.4480   73.4976  221.4685 H   0  0  0  0  0  0  0  0  0  0  0  0
  140.7686   75.3136  221.7791 H   0  0  0  0  0  0  0  0  0  0  0  0
  1  2  2  0
  2  3  1  0
  3  4  1  0
  4  5  1  0
  5  6  2  0
  5  7  1  0
  7  8  1  0
  8  9  1  0
  9 10  1  0
 10 11  1  0
 11 12  1  0
 12 13  1  0
 13 14  1  0
 14 15  1  0
 15 16  2  0
 16 17  1  0
 17 18  2  0
 18 19  1  0
 19 20  2  0
  2 21  1  0
 21 22  2  0
 22 23  1  0
 23 24  2  0
 24 25  1  0
 25 26  2  0
 26 27  1  0
 26 28  1  0
 28 29  2  0
 29 30  1  0
 30 31  2  0
 13  7  1  0
 20 15  1  0
 31 21  1  0
 30 24  1  0
  3 32  1  0
  4 33  1  0
  4 34  1  0
  8 35  1  0
  8 36  1  0
  9 37  1  0
  9 38  1  0
 10 39  1  0
 10 40  1  0
 11 41  1  0
 11 42  1  0
 12 43  1  0
 12 44  1  0
 13 45  1  6
 14 46  1  0
 14 47  1  0
 16 48  1  0
 17 49  1  0
 18 50  1  0
 19 51  1  0
 20 52  1  0
 22 53  1  0
 23 54  1  0
 25 55  1  0
 28 56  1  0
 29 57  1  0
M  END
>  <smiles>  (57) 
O=C(NCC(=O)N1CCCCCC1Cc1ccccc1)c1ccc2cc(Cl)ccc2n1

>  <score_type>  (57) 
oracle

>  <origin>  (57) 
autodockgpu

>  <m_score__min__energy>  (57) 
-7.1699999999999999

>  <m_primary>  (57) 
energy

>  <rmsd>  (57) 
8.94774739589836

>  <m_score__min__rmsd>  (57) 
8.94774739589836

>  <meeko>  (57) 
{"free_energy": -4.2, "intermolecular_energy": -7.78, "internal_energy": -3.19, "cluster_size": 2, "cluster_id": 12, "rank_in_cluster": 2}

>  <energy>  (57) 
-6.54

>  <cluster_rmsd>  (57) 
1.69

>  <cluster>  (57) 
1

$$$$

     RDKit          3D

 57 60  0  0  0  0  0  0  0  0999 V2000
  133.9320   69.7120  226.4490 O   0  0  0  0  0  0  0  0  0  0  0  0
  134.0090   70.7580  225.7520 C   0  0  0  0  0  0  0  0  0  0  0  0
  134.6280   70.8180  224.4830 N   0  0  0  0  0  0  0  0  0  0  0  0
  135.2390   69.6330  223.8740 C   0  0  0  0  0  0  0  0  0  0  0  0
  136.4160   70.0010  223.0770 C   0  0  0  0  0  0  0  0  0  0  0  0
  136.2790   69.8060  221.8000 O   0  0  0  0  0  0  0  0  0  0  0  0
  137.6380   70.5200  223.4680 N   0  0  0  0  0  0  0  0  0  0  0  0
  137.8870   71.8410  222.7970 C   0  0  0  0  0  0  0  0  0  0  0  0
  139.0500   71.5910  221.8730 C   0  0  0  0  0  0  0  0  0  0  0  0
  140.2920   72.0840  222.5890 C   0  0  0  0  0  0  0  0  0  0  0  0
  140.6760   71.0610  223.6090 C   0  0  0  0  0  0  0  0  0  0  0  0
  139.6950   70.8840  224.7310 C   0  0  0  0  0  0  0  0  0  0  0  0
  138.5480   69.9400  224.3820 C   0  0  1  0  0  0  0  0  0  0  0  0
  138.0090   69.3360  225.6360 C   0  0  0  0  0  0  0  0  0  0  0  0
  139.2180   68.8520  226.4200 C   0  0  0  0  0  0  0  0  0  0  0  0
  139.5920   69.5060  227.5820 C   0  0  0  0  0  0  0  0  0  0  0  0
  140.6800   69.1330  228.3400 C   0  0  0  0  0  0  0  0  0  0  0  0
  141.4120   68.0540  227.8960 C   0  0  0  0  0  0  0  0  0  0  0  0
  141.0590   67.3750  226.7290 C   0  0  0  0  0  0  0  0  0  0  0  0
  139.9650   67.7770  225.9970 C   0  0  0  0  0  0  0  0  0  0  0  0
  133.4180   71.9970  226.2930 C   0  0  0  0  0  0  0  0  0  0  0  0
  132.2770   71.9620  227.0690 C   0  0  0  0  0  0  0  0  0  0  0  0
  131.6900   73.0940  227.5970 C   0  0  0  0  0  0  0  0  0  0  0  0
  132.2820   74.3100  227.3270 C   0  0  0  0  0  0  0  0  0  0  0  0
  131.7060   75.4490  227.8480 C   0  0  0  0  0  0  0  0  0  0  0  0
  132.2830   76.6710  227.5890 C   0  0  0  0  0  0  0  0  0  0  0  0
  131.5200   78.0960  228.2700 Cl  0  0  0  0  0  0  0  0  0  0  0  0
  133.4280   76.7400  226.8150 C   0  0  0  0  0  0  0  0  0  0  0  0
  134.0170   75.5920  226.2850 C   0  0  0  0  0  0  0  0  0  0  0  0
  133.4350   74.3500  226.5440 C   0  0  0  0  0  0  0  0  0  0  0  0
  133.9720   73.2050  226.0500 N   0  0  0  0  0  0  0  0  0  0  0  0
  134.6480   71.7280  223.9700 H   0  0  0  0  0  0  0  0  0  0  0  0
  135.5456   68.9372  224.6689 H   0  0  0  0  0  0  0  0  0  0  0  0
  134.5005   69.1582  223.2113 H   0  0  0  0  0  0  0  0  0  0  0  0
  137.0013   72.1592  222.2275 H   0  0  0  0  0  0  0  0  0  0  0  0
  138.0975   72.6413  223.5217 H   0  0  0  0  0  0  0  0  0  0  0  0
  139.1385   70.5159  221.6579 H   0  0  0  0  0  0  0  0  0  0  0  0
  138.9127   72.1142  220.9152 H   0  0  0  0  0  0  0  0  0  0  0  0
  141.1111   72.2163  221.8668 H   0  0  0  0  0  0  0  0  0  0  0  0
  140.0938   73.0510  223.0745 H   0  0  0  0  0  0  0  0  0  0  0  0
  140.7869   70.0937  223.0970 H   0  0  0  0  0  0  0  0  0  0  0  0
  141.6078   71.4211  224.0695 H   0  0  0  0  0  0  0  0  0  0  0  0
  140.2296   70.4777  225.6023 H   0  0  0  0  0  0  0  0  0  0  0  0
  139.2551   71.8704  224.9399 H   0  0  0  0  0  0  0  0  0  0  0  0
  138.8980   69.0765  223.7974 H   0  0  0  0  0  0  0  0  0  0  0  0
  137.4540   70.0887  226.2151 H   0  0  0  0  0  0  0  0  0  0  0  0
  137.3123   68.5126  225.4200 H   0  0  0  0  0  0  0  0  0  0  0  0
  138.9912   70.3648  227.9158 H   0  0  0  0  0  0  0  0  0  0  0  0
  140.9521   69.6728  229.2590 H   0  0  0  0  0  0  0  0  0  0  0  0
  142.2892   67.7221  228.4707 H   0  0  0  0  0  0  0  0  0  0  0  0
  141.6573   66.5153  226.3929 H   0  0  0  0  0  0  0  0  0  0  0  0
  139.6889   67.2407  225.0771 H   0  0  0  0  0  0  0  0  0  0  0  0
  131.8138   70.9860  227.2763 H   0  0  0  0  0  0  0  0  0  0  0  0
  130.7806   73.0286  228.2124 H   0  0  0  0  0  0  0  0  0  0  0  0
  130.7965   75.3817  228.4631 H   0  0  0  0  0  0  0  0  0  0  0  0
  133.8833   77.7208  226.6134 H   0  0  0  0  0  0  0  0  0  0  0  0
  134.9272   75.6644  225.6716 H   0  0  0  0  0  0  0  0  0  0  0  0
  1  2  2  0
  2  3  1  0
  3  4  1  0
  4  5  1  0
  5  6  2  0
  5  7  1  0
  7  8  1  0
  8  9  1  0
  9 10  1  0
 10 11  1  0
 11 12  1  0
 12 13  1  0
 13 14  1  0
 14 15  1  0
 15 16  2  0
 16 17  1  0
 17 18  2  0
 18 19  1  0
 19 20  2  0
  2 21  1  0
 21 22  2  0
 22 23  1  0
 23 24  2  0
 24 25  1  0
 25 26  2  0
 26 27  1  0
 26 28  1  0
 28 29  2  0
 29 30  1  0
 30 31  2  0
 13  7  1  0
 20 15  1  0
 31 21  1  0
 30 24  1  0
  3 32  1  0
  4 33  1  0
  4 34  1  0
  8 35  1  0
  8 36  1  0
  9 37  1  0
  9 38  1  0
 10 39  1  0
 10 40  1  0
 11 41  1  0
 11 42  1  0
 12 43  1  0
 12 44  1  0
 13 45  1  6
 14 46  1  0
 14 47  1  0
 16 48  1  0
 17 49  1  0
 18 50  1  0
 19 51  1  0
 20 52  1  0
 22 53  1  0
 23 54  1  0
 25 55  1  0
 28 56  1  0
 29 57  1  0
M  END
>  <smiles>  (58) 
O=C(NCC(=O)N1CCCCCC1Cc1ccccc1)c1ccc2cc(Cl)ccc2n1

>  <score_type>  (58) 
oracle

>  <origin>  (58) 
autodockgpu

>  <m_score__min__energy>  (58) 
-7.1699999999999999

>  <m_primary>  (58) 
energy

>  <rmsd>  (58) 
8.172190838411725

>  <m_score__min__rmsd>  (58) 
8.172190838411725

>  <meeko>  (58) 
{"free_energy": -6.54, "intermolecular_energy": -10.12, "internal_energy": -1.79, "cluster_size": 1, "cluster_id": 2, "rank_in_cluster": 1}

>  <energy>  (58) 
-6.53

>  <cluster_rmsd>  (58) 
1.04

>  <cluster>  (58) 
1

$$$$

     RDKit          3D

 57 60  0  0  0  0  0  0  0  0999 V2000
  137.5360   70.9960  221.1490 O   0  0  0  0  0  0  0  0  0  0  0  0
  138.0860   71.6140  222.0990 C   0  0  0  0  0  0  0  0  0  0  0  0
  138.2530   73.0160  222.1380 N   0  0  0  0  0  0  0  0  0  0  0  0
  137.7850   73.8730  221.0440 C   0  0  0  0  0  0  0  0  0  0  0  0
  138.9150   74.4940  220.3450 C   0  0  0  0  0  0  0  0  0  0  0  0
  138.7440   74.6250  219.0630 O   0  0  0  0  0  0  0  0  0  0  0  0
  140.1250   74.9590  220.8290 N   0  0  0  0  0  0  0  0  0  0  0  0
  139.9020   75.9520  221.9340 C   0  0  0  0  0  0  0  0  0  0  0  0
  139.6890   77.2680  221.2350 C   0  0  0  0  0  0  0  0  0  0  0  0
  141.0620   77.8250  220.9190 C   0  0  0  0  0  0  0  0  0  0  0  0
  141.6450   77.0180  219.8040 C   0  0  0  0  0  0  0  0  0  0  0  0
  142.3540   75.7640  220.2420 C   0  0  0  0  0  0  0  0  0  0  0  0
  141.4140   74.5710  220.3950 C   0  0  1  0  0  0  0  0  0  0  0  0
  142.1170   73.4830  221.1360 C   0  0  0  0  0  0  0  0  0  0  0  0
  143.4400   73.2750  220.4190 C   0  0  0  0  0  0  0  0  0  0  0  0
  144.6280   73.5750  221.0640 C   0  0  0  0  0  0  0  0  0  0  0  0
  145.8650   73.4230  220.4760 C   0  0  0  0  0  0  0  0  0  0  0  0
  145.8890   72.9470  219.1830 C   0  0  0  0  0  0  0  0  0  0  0  0
  144.7080   72.6360  218.5080 C   0  0  0  0  0  0  0  0  0  0  0  0
  143.4910   72.8000  219.1280 C   0  0  0  0  0  0  0  0  0  0  0  0
  138.5860   70.8250  223.2410 C   0  0  0  0  0  0  0  0  0  0  0  0
  138.3560   69.4660  223.3230 C   0  0  0  0  0  0  0  0  0  0  0  0
  138.8050   68.6880  224.3720 C   0  0  0  0  0  0  0  0  0  0  0  0
  139.5140   69.3130  225.3770 C   0  0  0  0  0  0  0  0  0  0  0  0
  139.9670   68.5480  226.4310 C   0  0  0  0  0  0  0  0  0  0  0  0
  140.6760   69.1530  227.4420 C   0  0  0  0  0  0  0  0  0  0  0  0
  141.2370   68.1460  228.7650 Cl  0  0  0  0  0  0  0  0  0  0  0  0
  140.9240   70.5130  227.3890 C   0  0  0  0  0  0  0  0  0  0  0  0
  140.4680   71.2950  226.3270 C   0  0  0  0  0  0  0  0  0  0  0  0
  139.7480   70.6850  225.2980 C   0  0  0  0  0  0  0  0  0  0  0  0
  139.2840   71.4030  224.2440 N   0  0  0  0  0  0  0  0  0  0  0  0
  138.7200   73.4500  222.9660 H   0  0  0  0  0  0  0  0  0  0  0  0
  137.2106   73.2642  220.3302 H   0  0  0  0  0  0  0  0  0  0  0  0
  137.1533   74.6683  221.4664 H   0  0  0  0  0  0  0  0  0  0  0  0
  139.0154   75.6801  222.5256 H   0  0  0  0  0  0  0  0  0  0  0  0
  140.7485   75.9880  222.6355 H   0  0  0  0  0  0  0  0  0  0  0  0
  139.1197   77.1153  220.3063 H   0  0  0  0  0  0  0  0  0  0  0  0
  139.1182   77.9628  221.8686 H   0  0  0  0  0  0  0  0  0  0  0  0
  140.9757   78.8777  220.6118 H   0  0  0  0  0  0  0  0  0  0  0  0
  141.7088   77.7712  221.8071 H   0  0  0  0  0  0  0  0  0  0  0  0
  140.8287   76.7312  219.1248 H   0  0  0  0  0  0  0  0  0  0  0  0
  142.4035   77.6531  219.3230 H   0  0  0  0  0  0  0  0  0  0  0  0
  143.1192   75.5137  219.4924 H   0  0  0  0  0  0  0  0  0  0  0  0
  142.7966   75.9634  221.2291 H   0  0  0  0  0  0  0  0  0  0  0  0
  141.1712   74.1188  219.4221 H   0  0  0  0  0  0  0  0  0  0  0  0
  142.2911   73.7824  222.1801 H   0  0  0  0  0  0  0  0  0  0  0  0
  141.5204   72.5591  221.1567 H   0  0  0  0  0  0  0  0  0  0  0  0
  144.5821   73.9530  222.0960 H   0  0  0  0  0  0  0  0  0  0  0  0
  146.7917   73.6705  221.0146 H   0  0  0  0  0  0  0  0  0  0  0  0
  146.8549   72.8100  218.6747 H   0  0  0  0  0  0  0  0  0  0  0  0
  144.7503   72.2581  217.4758 H   0  0  0  0  0  0  0  0  0  0  0  0
  142.5618   72.5524  218.5940 H   0  0  0  0  0  0  0  0  0  0  0  0
  137.7888   68.9804  222.5152 H   0  0  0  0  0  0  0  0  0  0  0  0
  138.6042   67.6070  224.4051 H   0  0  0  0  0  0  0  0  0  0  0  0
  139.7638   67.4674  226.4627 H   0  0  0  0  0  0  0  0  0  0  0  0
  141.4930   70.9882  228.2017 H   0  0  0  0  0  0  0  0  0  0  0  0
  140.6727   72.3755  226.3009 H   0  0  0  0  0  0  0  0  0  0  0  0
  1  2  2  0
  2  3  1  0
  3  4  1  0
  4  5  1  0
  5  6  2  0
  5  7  1  0
  7  8  1  0
  8  9  1  0
  9 10  1  0
 10 11  1  0
 11 12  1  0
 12 13  1  0
 13 14  1  0
 14 15  1  0
 15 16  2  0
 16 17  1  0
 17 18  2  0
 18 19  1  0
 19 20  2  0
  2 21  1  0
 21 22  2  0
 22 23  1  0
 23 24  2  0
 24 25  1  0
 25 26  2  0
 26 27  1  0
 26 28  1  0
 28 29  2  0
 29 30  1  0
 30 31  2  0
 13  7  1  0
 20 15  1  0
 31 21  1  0
 30 24  1  0
  3 32  1  0
  4 33  1  0
  4 34  1  0
  8 35  1  0
  8 36  1  0
  9 37  1  0
  9 38  1  0
 10 39  1  0
 10 40  1  0
 11 41  1  0
 11 42  1  0
 12 43  1  0
 12 44  1  0
 13 45  1  6
 14 46  1  0
 14 47  1  0
 16 48  1  0
 17 49  1  0
 18 50  1  0
 19 51  1  0
 20 52  1  0
 22 53  1  0
 23 54  1  0
 25 55  1  0
 28 56  1  0
 29 57  1  0
M  END
>  <smiles>  (59) 
O=C(NCC(=O)N1CCCCCC1Cc1ccccc1)c1ccc2cc(Cl)ccc2n1

>  <score_type>  (59) 
oracle

>  <origin>  (59) 
autodockgpu

>  <m_score__min__energy>  (59) 
-7.1699999999999999

>  <m_primary>  (59) 
energy

>  <rmsd>  (59) 
2.54473185177565

>  <m_score__min__rmsd>  (59) 
2.54473185177565

>  <meeko>  (59) 
{"free_energy": -4.9, "intermolecular_energy": -8.48, "internal_energy": -2.05, "cluster_size": 10, "cluster_id": 6, "rank_in_cluster": 10}

>  <energy>  (59) 
-6.51

>  <cluster_rmsd>  (59) 
1.41

>  <cluster>  (59) 
1

$$$$

     RDKit          3D

 57 60  0  0  0  0  0  0  0  0999 V2000
  138.9150   71.6850  220.9110 O   0  0  0  0  0  0  0  0  0  0  0  0
  139.2140   72.2190  222.0120 C   0  0  0  0  0  0  0  0  0  0  0  0
  139.3170   73.6130  222.2120 N   0  0  0  0  0  0  0  0  0  0  0  0
  139.0760   74.5620  221.1210 C   0  0  0  0  0  0  0  0  0  0  0  0
  139.9190   75.7540  221.2670 C   0  0  0  0  0  0  0  0  0  0  0  0
  139.9640   76.2330  222.4740 O   0  0  0  0  0  0  0  0  0  0  0  0
  140.6700   76.4430  220.3300 N   0  0  0  0  0  0  0  0  0  0  0  0
  141.0180   75.5500  219.1740 C   0  0  0  0  0  0  0  0  0  0  0  0
  142.5240   75.5330  219.1380 C   0  0  0  0  0  0  0  0  0  0  0  0
  142.9470   76.5130  218.0630 C   0  0  0  0  0  0  0  0  0  0  0  0
  142.8750   77.8910  218.6360 C   0  0  0  0  0  0  0  0  0  0  0  0
  141.4970   78.3410  219.0360 C   0  0  0  0  0  0  0  0  0  0  0  0
  141.0600   77.8010  220.3950 C   0  0  1  0  0  0  0  0  0  0  0  0
  140.1330   78.7790  221.0370 C   0  0  0  0  0  0  0  0  0  0  0  0
  140.9690   79.5510  222.0440 C   0  0  0  0  0  0  0  0  0  0  0  0
  141.5280   78.8900  223.1240 C   0  0  0  0  0  0  0  0  0  0  0  0
  142.2890   79.5220  224.0830 C   0  0  0  0  0  0  0  0  0  0  0  0
  142.4840   80.8770  223.9340 C   0  0  0  0  0  0  0  0  0  0  0  0
  141.9330   81.5700  222.8560 C   0  0  0  0  0  0  0  0  0  0  0  0
  141.1790   80.9040  221.9160 C   0  0  0  0  0  0  0  0  0  0  0  0
  139.4720   71.3330  223.1630 C   0  0  0  0  0  0  0  0  0  0  0  0
  139.1290   69.9970  223.1260 C   0  0  0  0  0  0  0  0  0  0  0  0
  139.3530   69.1310  224.1780 C   0  0  0  0  0  0  0  0  0  0  0  0
  139.9470   69.6410  225.3130 C   0  0  0  0  0  0  0  0  0  0  0  0
  140.1750   68.7880  226.3720 C   0  0  0  0  0  0  0  0  0  0  0  0
  140.7670   69.2780  227.5130 C   0  0  0  0  0  0  0  0  0  0  0  0
  141.0410   68.1610  228.8380 Cl  0  0  0  0  0  0  0  0  0  0  0  0
  141.1240   70.6130  227.5820 C   0  0  0  0  0  0  0  0  0  0  0  0
  140.8960   71.4830  226.5150 C   0  0  0  0  0  0  0  0  0  0  0  0
  140.2950   70.9910  225.3560 C   0  0  0  0  0  0  0  0  0  0  0  0
  140.0530   71.7980  224.2920 N   0  0  0  0  0  0  0  0  0  0  0  0
  139.5700   73.9740  223.1590 H   0  0  0  0  0  0  0  0  0  0  0  0
  139.3054   74.0741  220.1622 H   0  0  0  0  0  0  0  0  0  0  0  0
  138.0211   74.8721  221.1521 H   0  0  0  0  0  0  0  0  0  0  0  0
  140.6231   74.5361  219.3355 H   0  0  0  0  0  0  0  0  0  0  0  0
  140.5849   75.9084  218.2285 H   0  0  0  0  0  0  0  0  0  0  0  0
  142.9296   75.8417  220.1128 H   0  0  0  0  0  0  0  0  0  0  0  0
  142.9024   74.5229  218.9224 H   0  0  0  0  0  0  0  0  0  0  0  0
  143.9771   76.2951  217.7444 H   0  0  0  0  0  0  0  0  0  0  0  0
  142.2845   76.4289  217.1889 H   0  0  0  0  0  0  0  0  0  0  0  0
  143.5172   77.9236  219.5285 H   0  0  0  0  0  0  0  0  0  0  0  0
  143.2021   78.5736  217.8379 H   0  0  0  0  0  0  0  0  0  0  0  0
  141.4860   79.4402  219.0764 H   0  0  0  0  0  0  0  0  0  0  0  0
  140.7941   77.9485  218.2864 H   0  0  0  0  0  0  0  0  0  0  0  0
  141.9051   77.7333  221.0959 H   0  0  0  0  0  0  0  0  0  0  0  0
  139.7163   79.4624  220.2825 H   0  0  0  0  0  0  0  0  0  0  0  0
  139.2857   78.2720  221.5217 H   0  0  0  0  0  0  0  0  0  0  0  0
  141.3564   77.8078  223.2213 H   0  0  0  0  0  0  0  0  0  0  0  0
  142.7215   78.9689  224.9298 H   0  0  0  0  0  0  0  0  0  0  0  0
  143.0842   81.4220  224.6774 H   0  0  0  0  0  0  0  0  0  0  0  0
  142.1015   82.6525  222.7566 H   0  0  0  0  0  0  0  0  0  0  0  0
  140.7463   81.4520  221.0660 H   0  0  0  0  0  0  0  0  0  0  0  0
  138.6545   69.6030  222.2151 H   0  0  0  0  0  0  0  0  0  0  0  0
  139.0674   68.0707  224.1128 H   0  0  0  0  0  0  0  0  0  0  0  0
  139.8870   67.7285  226.3053 H   0  0  0  0  0  0  0  0  0  0  0  0
  141.5977   70.9968  228.4976 H   0  0  0  0  0  0  0  0  0  0  0  0
  141.1860   72.5417  226.5867 H   0  0  0  0  0  0  0  0  0  0  0  0
  1  2  2  0
  2  3  1  0
  3  4  1  0
  4  5  1  0
  5  6  2  0
  5  7  1  0
  7  8  1  0
  8  9  1  0
  9 10  1  0
 10 11  1  0
 11 12  1  0
 12 13  1  0
 13 14  1  0
 14 15  1  0
 15 16  2  0
 16 17  1  0
 17 18  2  0
 18 19  1  0
 19 20  2  0
  2 21  1  0
 21 22  2  0
 22 23  1  0
 23 24  2  0
 24 25  1  0
 25 26  2  0
 26 27  1  0
 26 28  1  0
 28 29  2  0
 29 30  1  0
 30 31  2  0
 13  7  1  0
 20 15  1  0
 31 21  1  0
 30 24  1  0
  3 32  1  0
  4 33  1  0
  4 34  1  0
  8 35  1  0
  8 36  1  0
  9 37  1  0
  9 38  1  0
 10 39  1  0
 10 40  1  0
 11 41  1  0
 11 42  1  0
 12 43  1  0
 12 44  1  0
 13 45  1  1
 14 46  1  0
 14 47  1  0
 16 48  1  0
 17 49  1  0
 18 50  1  0
 19 51  1  0
 20 52  1  0
 22 53  1  0
 23 54  1  0
 25 55  1  0
 28 56  1  0
 29 57  1  0
M  END
>  <smiles>  (60) 
O=C(NCC(=O)N1CCCCCC1Cc1ccccc1)c1ccc2cc(Cl)ccc2n1

>  <score_type>  (60) 
oracle

>  <origin>  (60) 
autodockgpu

>  <m_score__min__energy>  (60) 
-7.1699999999999999

>  <m_primary>  (60) 
energy

>  <rmsd>  (60) 
1.728644606516611

>  <m_score__min__rmsd>  (60) 
1.728644606516611

>  <meeko>  (60) 
{"free_energy": -6.96, "intermolecular_energy": -10.54, "internal_energy": -2.19, "cluster_size": 19, "cluster_id": 1, "rank_in_cluster": 2}

>  <energy>  (60) 
-6.46

>  <cluster_rmsd>  (60) 
0.94

>  <cluster>  (60) 
1

$$$$

     RDKit          3D

 57 60  0  0  0  0  0  0  0  0999 V2000
  137.6450   78.4230  222.0800 O   0  0  0  0  0  0  0  0  0  0  0  0
  138.4870   78.5240  221.1490 C   0  0  0  0  0  0  0  0  0  0  0  0
  138.4700   79.5460  220.1740 N   0  0  0  0  0  0  0  0  0  0  0  0
  137.4400   80.5890  220.1780 C   0  0  0  0  0  0  0  0  0  0  0  0
  137.5680   81.4470  221.3620 C   0  0  0  0  0  0  0  0  0  0  0  0
  138.1020   82.6080  221.1250 O   0  0  0  0  0  0  0  0  0  0  0  0
  137.2120   81.2180  222.6800 N   0  0  0  0  0  0  0  0  0  0  0  0
  135.7950   80.7260  222.7640 C   0  0  0  0  0  0  0  0  0  0  0  0
  135.0710   81.7670  223.5750 C   0  0  0  0  0  0  0  0  0  0  0  0
  134.9190   81.2060  224.9740 C   0  0  0  0  0  0  0  0  0  0  0  0
  136.2700   81.1800  225.6130 C   0  0  0  0  0  0  0  0  0  0  0  0
  137.2940   82.0640  224.9680 C   0  0  0  0  0  0  0  0  0  0  0  0
  138.0340   81.3870  223.8180 C   0  0  1  0  0  0  0  0  0  0  0  0
  138.7780   80.2040  224.3410 C   0  0  0  0  0  0  0  0  0  0  0  0
  140.1350   80.2260  223.6570 C   0  0  0  0  0  0  0  0  0  0  0  0
  141.0030   79.1590  223.8150 C   0  0  0  0  0  0  0  0  0  0  0  0
  142.2520   79.1110  223.2360 C   0  0  0  0  0  0  0  0  0  0  0  0
  142.6280   80.1910  222.4690 C   0  0  0  0  0  0  0  0  0  0  0  0
  141.7740   81.2800  222.2910 C   0  0  0  0  0  0  0  0  0  0  0  0
  140.5330   81.2930  222.8850 C   0  0  0  0  0  0  0  0  0  0  0  0
  139.5590   77.5130  221.0730 C   0  0  0  0  0  0  0  0  0  0  0  0
  139.4490   76.3070  221.7350 C   0  0  0  0  0  0  0  0  0  0  0  0
  140.4250   75.3310  221.6910 C   0  0  0  0  0  0  0  0  0  0  0  0
  141.5580   75.5890  220.9480 C   0  0  0  0  0  0  0  0  0  0  0  0
  142.5410   74.6240  220.8960 C   0  0  0  0  0  0  0  0  0  0  0  0
  143.6770   74.8630  220.1590 C   0  0  0  0  0  0  0  0  0  0  0  0
  144.9050   73.6100  220.1170 Cl  0  0  0  0  0  0  0  0  0  0  0  0
  143.8180   76.0620  219.4820 C   0  0  0  0  0  0  0  0  0  0  0  0
  142.8270   77.0440  219.5300 C   0  0  0  0  0  0  0  0  0  0  0  0
  141.6730   76.8060  220.2760 C   0  0  0  0  0  0  0  0  0  0  0  0
  140.6820   77.7310  220.3530 N   0  0  0  0  0  0  0  0  0  0  0  0
  139.2080   79.5570  219.4340 H   0  0  0  0  0  0  0  0  0  0  0  0
  137.5480   81.2053  219.2733 H   0  0  0  0  0  0  0  0  0  0  0  0
  136.4516   80.1067  220.1986 H   0  0  0  0  0  0  0  0  0  0  0  0
  135.3542   80.6423  221.7597 H   0  0  0  0  0  0  0  0  0  0  0  0
  135.7299   79.7270  223.2197 H   0  0  0  0  0  0  0  0  0  0  0  0
  135.6547   82.6989  223.6023 H   0  0  0  0  0  0  0  0  0  0  0  0
  134.0900   81.9981  223.1342 H   0  0  0  0  0  0  0  0  0  0  0  0
  134.2415   81.8443  225.5601 H   0  0  0  0  0  0  0  0  0  0  0  0
  134.4967   80.1911  224.9339 H   0  0  0  0  0  0  0  0  0  0  0  0
  136.1579   81.4961  226.6606 H   0  0  0  0  0  0  0  0  0  0  0  0
  136.6412   80.1503  225.5042 H   0  0  0  0  0  0  0  0  0  0  0  0
  136.7874   82.9595  224.5787 H   0  0  0  0  0  0  0  0  0  0  0  0
  138.0412   82.3129  225.7360 H   0  0  0  0  0  0  0  0  0  0  0  0
  138.8198   82.0357  223.4037 H   0  0  0  0  0  0  0  0  0  0  0  0
  138.8986   80.2801  225.4317 H   0  0  0  0  0  0  0  0  0  0  0  0
  138.2393   79.2670  224.1368 H   0  0  0  0  0  0  0  0  0  0  0  0
  140.6796   78.3083  224.4329 H   0  0  0  0  0  0  0  0  0  0  0  0
  142.9192   78.2484  223.3799 H   0  0  0  0  0  0  0  0  0  0  0  0
  143.6177   80.1953  221.9888 H   0  0  0  0  0  0  0  0  0  0  0  0
  142.0943   82.1318  221.6731 H   0  0  0  0  0  0  0  0  0  0  0  0
  139.8619   82.1529  222.7432 H   0  0  0  0  0  0  0  0  0  0  0  0
  138.5412   76.1141  222.3255 H   0  0  0  0  0  0  0  0  0  0  0  0
  140.3029   74.3800  222.2302 H   0  0  0  0  0  0  0  0  0  0  0  0
  142.4182   73.6744  221.4374 H   0  0  0  0  0  0  0  0  0  0  0  0
  144.7296   76.2448  218.8941 H   0  0  0  0  0  0  0  0  0  0  0  0
  142.9545   77.9921  218.9871 H   0  0  0  0  0  0  0  0  0  0  0  0
  1  2  2  0
  2  3  1  0
  3  4  1  0
  4  5  1  0
  5  6  2  0
  5  7  1  0
  7  8  1  0
  8  9  1  0
  9 10  1  0
 10 11  1  0
 11 12  1  0
 12 13  1  0
 13 14  1  0
 14 15  1  0
 15 16  2  0
 16 17  1  0
 17 18  2  0
 18 19  1  0
 19 20  2  0
  2 21  1  0
 21 22  2  0
 22 23  1  0
 23 24  2  0
 24 25  1  0
 25 26  2  0
 26 27  1  0
 26 28  1  0
 28 29  2  0
 29 30  1  0
 30 31  2  0
 13  7  1  0
 20 15  1  0
 31 21  1  0
 30 24  1  0
  3 32  1  0
  4 33  1  0
  4 34  1  0
  8 35  1  0
  8 36  1  0
  9 37  1  0
  9 38  1  0
 10 39  1  0
 10 40  1  0
 11 41  1  0
 11 42  1  0
 12 43  1  0
 12 44  1  0
 13 45  1  6
 14 46  1  0
 14 47  1  0
 16 48  1  0
 17 49  1  0
 18 50  1  0
 19 51  1  0
 20 52  1  0
 22 53  1  0
 23 54  1  0
 25 55  1  0
 28 56  1  0
 29 57  1  0
M  END
>  <smiles>  (61) 
O=C(NCC(=O)N1CCCCCC1Cc1ccccc1)c1ccc2cc(Cl)ccc2n1

>  <score_type>  (61) 
oracle

>  <origin>  (61) 
autodockgpu

>  <m_score__min__energy>  (61) 
-7.1699999999999999

>  <m_primary>  (61) 
energy

>  <rmsd>  (61) 
8.24287613368517

>  <m_score__min__rmsd>  (61) 
8.24287613368517

>  <meeko>  (61) 
{"free_energy": -4.3, "intermolecular_energy": -7.88, "internal_energy": -3.41, "cluster_size": 2, "cluster_id": 12, "rank_in_cluster": 1}

>  <energy>  (61) 
-6.45

>  <cluster_rmsd>  (61) 
1.2

>  <cluster>  (61) 
1

$$$$

     RDKit          3D

 57 60  0  0  0  0  0  0  0  0999 V2000
  139.1970   70.8980  221.2650 O   0  0  0  0  0  0  0  0  0  0  0  0
  139.3490   71.6910  222.2320 C   0  0  0  0  0  0  0  0  0  0  0  0
  139.0980   73.0800  222.1630 N   0  0  0  0  0  0  0  0  0  0  0  0
  138.6290   73.7110  220.9260 C   0  0  0  0  0  0  0  0  0  0  0  0
  139.6920   74.5160  220.3130 C   0  0  0  0  0  0  0  0  0  0  0  0
  139.4130   74.9510  219.1210 O   0  0  0  0  0  0  0  0  0  0  0  0
  140.9350   74.8830  220.8000 N   0  0  0  0  0  0  0  0  0  0  0  0
  141.8110   73.6750  220.9690 C   0  0  0  0  0  0  0  0  0  0  0  0
  142.3770   73.4120  219.5980 C   0  0  0  0  0  0  0  0  0  0  0  0
  143.3730   74.5180  219.3160 C   0  0  0  0  0  0  0  0  0  0  0  0
  142.6090   75.7470  218.9420 C   0  0  0  0  0  0  0  0  0  0  0  0
  142.3800   76.7100  220.0670 C   0  0  0  0  0  0  0  0  0  0  0  0
  141.3730   76.1960  221.0920 C   0  0  1  0  0  0  0  0  0  0  0  0
  140.3460   77.2500  221.3430 C   0  0  0  0  0  0  0  0  0  0  0  0
  141.0900   78.4200  221.9640 C   0  0  0  0  0  0  0  0  0  0  0  0
  141.4940   78.3550  223.2870 C   0  0  0  0  0  0  0  0  0  0  0  0
  142.1620   79.3780  223.9220 C   0  0  0  0  0  0  0  0  0  0  0  0
  142.4280   80.5080  223.1800 C   0  0  0  0  0  0  0  0  0  0  0  0
  142.0330   80.6020  221.8450 C   0  0  0  0  0  0  0  0  0  0  0  0
  141.3670   79.5590  221.2440 C   0  0  0  0  0  0  0  0  0  0  0  0
  139.8190   71.1360  223.5160 C   0  0  0  0  0  0  0  0  0  0  0  0
  140.6300   71.8710  224.3570 C   0  0  0  0  0  0  0  0  0  0  0  0
  141.0920   71.3930  225.5670 C   0  0  0  0  0  0  0  0  0  0  0  0
  140.7190   70.1180  225.9380 C   0  0  0  0  0  0  0  0  0  0  0  0
  141.1740   69.6270  227.1430 C   0  0  0  0  0  0  0  0  0  0  0  0
  140.8110   68.3580  227.5310 C   0  0  0  0  0  0  0  0  0  0  0  0
  141.4100   67.7710  229.0720 Cl  0  0  0  0  0  0  0  0  0  0  0  0
  139.9990   67.5960  226.7110 C   0  0  0  0  0  0  0  0  0  0  0  0
  139.5340   68.0850  225.4890 C   0  0  0  0  0  0  0  0  0  0  0  0
  139.8990   69.3720  225.0920 C   0  0  0  0  0  0  0  0  0  0  0  0
  139.4720   69.8910  223.9120 N   0  0  0  0  0  0  0  0  0  0  0  0
  139.2500   73.6670  223.0140 H   0  0  0  0  0  0  0  0  0  0  0  0
  138.3164   72.9287  220.2187 H   0  0  0  0  0  0  0  0  0  0  0  0
  137.7829   74.3713  221.1672 H   0  0  0  0  0  0  0  0  0  0  0  0
  142.6179   73.8796  221.6881 H   0  0  0  0  0  0  0  0  0  0  0  0
  141.2539   72.8108  221.3598 H   0  0  0  0  0  0  0  0  0  0  0  0
  142.8808   72.4344  219.5775 H   0  0  0  0  0  0  0  0  0  0  0  0
  141.5810   73.3948  218.8391 H   0  0  0  0  0  0  0  0  0  0  0  0
  143.9772   74.7135  220.2142 H   0  0  0  0  0  0  0  0  0  0  0  0
  144.0467   74.2244  218.4975 H   0  0  0  0  0  0  0  0  0  0  0  0
  143.1675   76.2701  218.1518 H   0  0  0  0  0  0  0  0  0  0  0  0
  141.6144   75.4071  218.6174 H   0  0  0  0  0  0  0  0  0  0  0  0
  143.3385   76.8897  220.5760 H   0  0  0  0  0  0  0  0  0  0  0  0
  141.9680   77.6330  219.6331 H   0  0  0  0  0  0  0  0  0  0  0  0
  141.8406   76.0373  222.0749 H   0  0  0  0  0  0  0  0  0  0  0  0
  139.8733   77.5558  220.3980 H   0  0  0  0  0  0  0  0  0  0  0  0
  139.5465   76.8843  222.0041 H   0  0  0  0  0  0  0  0  0  0  0  0
  141.2704   77.4419  223.8583 H   0  0  0  0  0  0  0  0  0  0  0  0
  142.4696   79.2967  224.9750 H   0  0  0  0  0  0  0  0  0  0  0  0
  142.9602   81.3495  223.6475 H   0  0  0  0  0  0  0  0  0  0  0  0
  142.2550   81.5136  221.2709 H   0  0  0  0  0  0  0  0  0  0  0  0
  141.0570   79.6355  220.1914 H   0  0  0  0  0  0  0  0  0  0  0  0
  140.9221   72.8857  224.0485 H   0  0  0  0  0  0  0  0  0  0  0  0
  141.7356   72.0080  226.2132 H   0  0  0  0  0  0  0  0  0  0  0  0
  141.8196   70.2425  227.7867 H   0  0  0  0  0  0  0  0  0  0  0  0
  139.7133   66.5824  227.0286 H   0  0  0  0  0  0  0  0  0  0  0  0
  138.8894   67.4650  224.8485 H   0  0  0  0  0  0  0  0  0  0  0  0
  1  2  2  0
  2  3  1  0
  3  4  1  0
  4  5  1  0
  5  6  2  0
  5  7  1  0
  7  8  1  0
  8  9  1  0
  9 10  1  0
 10 11  1  0
 11 12  1  0
 12 13  1  0
 13 14  1  0
 14 15  1  0
 15 16  2  0
 16 17  1  0
 17 18  2  0
 18 19  1  0
 19 20  2  0
  2 21  1  0
 21 22  2  0
 22 23  1  0
 23 24  2  0
 24 25  1  0
 25 26  2  0
 26 27  1  0
 26 28  1  0
 28 29  2  0
 29 30  1  0
 30 31  2  0
 13  7  1  0
 20 15  1  0
 31 21  1  0
 30 24  1  0
  3 32  1  0
  4 33  1  0
  4 34  1  0
  8 35  1  0
  8 36  1  0
  9 37  1  0
  9 38  1  0
 10 39  1  0
 10 40  1  0
 11 41  1  0
 11 42  1  0
 12 43  1  0
 12 44  1  0
 13 45  1  1
 14 46  1  0
 14 47  1  0
 16 48  1  0
 17 49  1  0
 18 50  1  0
 19 51  1  0
 20 52  1  0
 22 53  1  0
 23 54  1  0
 25 55  1  0
 28 56  1  0
 29 57  1  0
M  END
>  <smiles>  (62) 
O=C(NCC(=O)N1CCCCCC1Cc1ccccc1)c1ccc2cc(Cl)ccc2n1

>  <score_type>  (62) 
oracle

>  <origin>  (62) 
autodockgpu

>  <m_score__min__energy>  (62) 
-7.1699999999999999

>  <m_primary>  (62) 
energy

>  <rmsd>  (62) 
3.0794116827162576

>  <m_score__min__rmsd>  (62) 
3.0794116827162576

>  <meeko>  (62) 
{"free_energy": -5.66, "intermolecular_energy": -9.24, "internal_energy": -1.72, "cluster_size": 19, "cluster_id": 1, "rank_in_cluster": 18}

>  <energy>  (62) 
-6.43

>  <cluster_rmsd>  (62) 
0.82

>  <cluster>  (62) 
1

$$$$

     RDKit          3D

 57 60  0  0  0  0  0  0  0  0999 V2000
  140.2260   73.9300  220.4410 O   0  0  0  0  0  0  0  0  0  0  0  0
  139.7600   73.9990  221.6090 C   0  0  0  0  0  0  0  0  0  0  0  0
  139.3300   75.1980  222.2200 N   0  0  0  0  0  0  0  0  0  0  0  0
  139.3970   76.4820  221.5150 C   0  0  0  0  0  0  0  0  0  0  0  0
  139.1640   77.5990  222.4370 C   0  0  0  0  0  0  0  0  0  0  0  0
  138.0780   77.4920  223.1430 O   0  0  0  0  0  0  0  0  0  0  0  0
  139.9110   78.7400  222.6730 N   0  0  0  0  0  0  0  0  0  0  0  0
  141.3790   78.4330  222.5900 C   0  0  0  0  0  0  0  0  0  0  0  0
  141.9410   78.8630  223.9190 C   0  0  0  0  0  0  0  0  0  0  0  0
  142.2330   80.3460  223.8120 C   0  0  0  0  0  0  0  0  0  0  0  0
  141.7720   80.8150  222.4700 C   0  0  0  0  0  0  0  0  0  0  0  0
  140.3110   81.1290  222.3670 C   0  0  0  0  0  0  0  0  0  0  0  0
  139.4120   80.0360  222.9390 C   0  0  1  0  0  0  0  0  0  0  0  0
  137.9920   80.3370  222.5920 C   0  0  0  0  0  0  0  0  0  0  0  0
  137.4750   81.2470  223.6930 C   0  0  0  0  0  0  0  0  0  0  0  0
  137.6390   80.8840  225.0200 C   0  0  0  0  0  0  0  0  0  0  0  0
  137.1890   81.6500  226.0720 C   0  0  0  0  0  0  0  0  0  0  0  0
  136.5490   82.8290  225.7590 C   0  0  0  0  0  0  0  0  0  0  0  0
  136.3690   83.2210  224.4330 C   0  0  0  0  0  0  0  0  0  0  0  0
  136.8330   82.4290  223.4070 C   0  0  0  0  0  0  0  0  0  0  0  0
  139.6580   72.7500  222.3890 C   0  0  0  0  0  0  0  0  0  0  0  0
  138.8850   71.6960  221.9470 C   0  0  0  0  0  0  0  0  0  0  0  0
  138.7600   70.5090  222.6420 C   0  0  0  0  0  0  0  0  0  0  0  0
  139.4470   70.3880  223.8320 C   0  0  0  0  0  0  0  0  0  0  0  0
  139.3310   69.2080  224.5370 C   0  0  0  0  0  0  0  0  0  0  0  0
  140.0090   69.0680  225.7260 C   0  0  0  0  0  0  0  0  0  0  0  0
  139.8360   67.5520  226.5920 Cl  0  0  0  0  0  0  0  0  0  0  0  0
  140.7930   70.1060  226.1950 C   0  0  0  0  0  0  0  0  0  0  0  0
  140.9150   71.3030  225.4890 C   0  0  0  0  0  0  0  0  0  0  0  0
  140.2300   71.4500  224.2820 C   0  0  0  0  0  0  0  0  0  0  0  0
  140.3170   72.5960  223.5590 N   0  0  0  0  0  0  0  0  0  0  0  0
  138.9550   75.1670  223.1950 H   0  0  0  0  0  0  0  0  0  0  0  0
  140.3928   76.5918  221.0608 H   0  0  0  0  0  0  0  0  0  0  0  0
  138.6168   76.4980  220.7397 H   0  0  0  0  0  0  0  0  0  0  0  0
  141.5408   77.3566  222.4315 H   0  0  0  0  0  0  0  0  0  0  0  0
  141.8632   78.9507  221.7488 H   0  0  0  0  0  0  0  0  0  0  0  0
  141.2077   78.6782  224.7179 H   0  0  0  0  0  0  0  0  0  0  0  0
  142.8526   78.2980  224.1634 H   0  0  0  0  0  0  0  0  0  0  0  0
  141.6946   80.8899  224.6021 H   0  0  0  0  0  0  0  0  0  0  0  0
  143.3107   80.5314  223.9307 H   0  0  0  0  0  0  0  0  0  0  0  0
  142.3338   81.7264  222.2174 H   0  0  0  0  0  0  0  0  0  0  0  0
  141.9522   79.9791  221.7780 H   0  0  0  0  0  0  0  0  0  0  0  0
  140.1160   82.0626  222.9150 H   0  0  0  0  0  0  0  0  0  0  0  0
  140.0733   81.2165  221.2966 H   0  0  0  0  0  0  0  0  0  0  0  0
  139.4253   80.0344  224.0389 H   0  0  0  0  0  0  0  0  0  0  0  0
  137.9362   80.8456  221.6182 H   0  0  0  0  0  0  0  0  0  0  0  0
  137.3928   79.4177  222.5150 H   0  0  0  0  0  0  0  0  0  0  0  0
  138.1537   79.9380  225.2440 H   0  0  0  0  0  0  0  0  0  0  0  0
  137.3341   81.3346  227.1158 H   0  0  0  0  0  0  0  0  0  0  0  0
  136.1736   83.4720  226.5687 H   0  0  0  0  0  0  0  0  0  0  0  0
  135.8545   84.1664  224.2060 H   0  0  0  0  0  0  0  0  0  0  0  0
  136.6906   82.7407  222.3617 H   0  0  0  0  0  0  0  0  0  0  0  0
  138.3427   71.8063  220.9963 H   0  0  0  0  0  0  0  0  0  0  0  0
  138.1345   69.6888  222.2599 H   0  0  0  0  0  0  0  0  0  0  0  0
  138.7044   68.3893  224.1534 H   0  0  0  0  0  0  0  0  0  0  0  0
  141.3325   69.9852  227.1460 H   0  0  0  0  0  0  0  0  0  0  0  0
  141.5419   72.1190  225.8779 H   0  0  0  0  0  0  0  0  0  0  0  0
  1  2  2  0
  2  3  1  0
  3  4  1  0
  4  5  1  0
  5  6  2  0
  5  7  1  0
  7  8  1  0
  8  9  1  0
  9 10  1  0
 10 11  1  0
 11 12  1  0
 12 13  1  0
 13 14  1  0
 14 15  1  0
 15 16  2  0
 16 17  1  0
 17 18  2  0
 18 19  1  0
 19 20  2  0
  2 21  1  0
 21 22  2  0
 22 23  1  0
 23 24  2  0
 24 25  1  0
 25 26  2  0
 26 27  1  0
 26 28  1  0
 28 29  2  0
 29 30  1  0
 30 31  2  0
 13  7  1  0
 20 15  1  0
 31 21  1  0
 30 24  1  0
  3 32  1  0
  4 33  1  0
  4 34  1  0
  8 35  1  0
  8 36  1  0
  9 37  1  0
  9 38  1  0
 10 39  1  0
 10 40  1  0
 11 41  1  0
 11 42  1  0
 12 43  1  0
 12 44  1  0
 13 45  1  1
 14 46  1  0
 14 47  1  0
 16 48  1  0
 17 49  1  0
 18 50  1  0
 19 51  1  0
 20 52  1  0
 22 53  1  0
 23 54  1  0
 25 55  1  0
 28 56  1  0
 29 57  1  0
M  END
>  <smiles>  (63) 
O=C(NCC(=O)N1CCCCCC1Cc1ccccc1)c1ccc2cc(Cl)ccc2n1

>  <score_type>  (63) 
oracle

>  <origin>  (63) 
autodockgpu

>  <m_score__min__energy>  (63) 
-7.1699999999999999

>  <m_primary>  (63) 
energy

>  <rmsd>  (63) 
4.2191499119503195

>  <m_score__min__rmsd>  (63) 
4.2191499119503195

>  <meeko>  (63) 
{"free_energy": -6.09, "intermolecular_energy": -9.67, "internal_energy": -1.85, "cluster_size": 1, "cluster_id": 8, "rank_in_cluster": 1}

>  <energy>  (63) 
-6.36

>  <cluster_rmsd>  (63) 
1.93

>  <cluster>  (63) 
1

$$$$

     RDKit          3D

 57 60  0  0  0  0  0  0  0  0999 V2000
  140.2890   71.7520  220.8550 O   0  0  0  0  0  0  0  0  0  0  0  0
  139.8470   72.1930  221.9490 C   0  0  0  0  0  0  0  0  0  0  0  0
  139.2770   73.4750  222.1120 N   0  0  0  0  0  0  0  0  0  0  0  0
  139.1570   74.4070  220.9870 C   0  0  0  0  0  0  0  0  0  0  0  0
  140.0920   75.5290  221.1330 C   0  0  0  0  0  0  0  0  0  0  0  0
  139.9590   76.1940  222.2420 O   0  0  0  0  0  0  0  0  0  0  0  0
  141.0840   75.9870  220.2850 N   0  0  0  0  0  0  0  0  0  0  0  0
  141.5020   74.9050  219.3310 C   0  0  0  0  0  0  0  0  0  0  0  0
  142.8460   74.4450  219.8320 C   0  0  0  0  0  0  0  0  0  0  0  0
  143.7870   75.6260  219.7090 C   0  0  0  0  0  0  0  0  0  0  0  0
  143.3170   76.4780  218.5740 C   0  0  0  0  0  0  0  0  0  0  0  0
  142.3770   77.5780  218.9580 C   0  0  0  0  0  0  0  0  0  0  0  0
  141.6440   77.2860  220.2640 C   0  0  1  0  0  0  0  0  0  0  0  0
  140.7660   78.4450  220.6040 C   0  0  0  0  0  0  0  0  0  0  0  0
  141.3790   79.0870  221.8370 C   0  0  0  0  0  0  0  0  0  0  0  0
  142.1090   80.2580  221.7130 C   0  0  0  0  0  0  0  0  0  0  0  0
  142.7030   80.8930  222.7810 C   0  0  0  0  0  0  0  0  0  0  0  0
  142.5470   80.3120  224.0200 C   0  0  0  0  0  0  0  0  0  0  0  0
  141.8170   79.1330  224.1760 C   0  0  0  0  0  0  0  0  0  0  0  0
  141.2370   78.5270  223.0850 C   0  0  0  0  0  0  0  0  0  0  0  0
  139.9310   71.3170  223.1330 C   0  0  0  0  0  0  0  0  0  0  0  0
  139.5070   70.0040  223.0800 C   0  0  0  0  0  0  0  0  0  0  0  0
  139.5660   69.1480  224.1620 C   0  0  0  0  0  0  0  0  0  0  0  0
  140.0750   69.6430  225.3440 C   0  0  0  0  0  0  0  0  0  0  0  0
  140.1400   68.7990  226.4330 C   0  0  0  0  0  0  0  0  0  0  0  0
  140.6440   69.2740  227.6210 C   0  0  0  0  0  0  0  0  0  0  0  0
  140.7110   68.1700  228.9820 Cl  0  0  0  0  0  0  0  0  0  0  0  0
  141.0780   70.5850  227.7070 C   0  0  0  0  0  0  0  0  0  0  0  0
  141.0160   71.4460  226.6100 C   0  0  0  0  0  0  0  0  0  0  0  0
  140.5050   70.9680  225.4030 C   0  0  0  0  0  0  0  0  0  0  0  0
  140.4240   71.7670  224.3080 N   0  0  0  0  0  0  0  0  0  0  0  0
  138.9340   73.7630  223.0560 H   0  0  0  0  0  0  0  0  0  0  0  0
  139.3793   73.8726  220.0516 H   0  0  0  0  0  0  0  0  0  0  0  0
  138.1316   74.8047  220.9686 H   0  0  0  0  0  0  0  0  0  0  0  0
  140.7791   74.0760  219.3452 H   0  0  0  0  0  0  0  0  0  0  0  0
  141.5478   75.2637  218.2921 H   0  0  0  0  0  0  0  0  0  0  0  0
  142.7704   74.1289  220.8829 H   0  0  0  0  0  0  0  0  0  0  0  0
  143.2117   73.5867  219.2492 H   0  0  0  0  0  0  0  0  0  0  0  0
  143.7775   76.2090  220.6417 H   0  0  0  0  0  0  0  0  0  0  0  0
  144.8138   75.2775  219.5242 H   0  0  0  0  0  0  0  0  0  0  0  0
  144.1994   76.9326  218.1000 H   0  0  0  0  0  0  0  0  0  0  0  0
  142.7551   75.8131  217.9016 H   0  0  0  0  0  0  0  0  0  0  0  0
  142.9513   78.5088  219.0755 H   0  0  0  0  0  0  0  0  0  0  0  0
  141.6227   77.6681  218.1624 H   0  0  0  0  0  0  0  0  0  0  0  0
  142.3405   77.2177  221.1127 H   0  0  0  0  0  0  0  0  0  0  0  0
  140.7415   79.1632  219.7712 H   0  0  0  0  0  0  0  0  0  0  0  0
  139.7300   78.1250  220.7891 H   0  0  0  0  0  0  0  0  0  0  0  0
  142.2195   80.7022  220.7128 H   0  0  0  0  0  0  0  0  0  0  0  0
  143.2764   81.8226  222.6504 H   0  0  0  0  0  0  0  0  0  0  0  0
  143.0053   80.7851  224.9010 H   0  0  0  0  0  0  0  0  0  0  0  0
  141.7047   78.6863  225.1749 H   0  0  0  0  0  0  0  0  0  0  0  0
  140.6618   77.5979  223.2108 H   0  0  0  0  0  0  0  0  0  0  0  0
  139.1031   69.6217  222.1309 H   0  0  0  0  0  0  0  0  0  0  0  0
  139.2189   68.1071  224.0836 H   0  0  0  0  0  0  0  0  0  0  0  0
  139.7928   67.7584  226.3521 H   0  0  0  0  0  0  0  0  0  0  0  0
  141.4807   70.9569  228.6607 H   0  0  0  0  0  0  0  0  0  0  0  0
  141.3648   72.4857  226.6959 H   0  0  0  0  0  0  0  0  0  0  0  0
  1  2  2  0
  2  3  1  0
  3  4  1  0
  4  5  1  0
  5  6  2  0
  5  7  1  0
  7  8  1  0
  8  9  1  0
  9 10  1  0
 10 11  1  0
 11 12  1  0
 12 13  1  0
 13 14  1  0
 14 15  1  0
 15 16  2  0
 16 17  1  0
 17 18  2  0
 18 19  1  0
 19 20  2  0
  2 21  1  0
 21 22  2  0
 22 23  1  0
 23 24  2  0
 24 25  1  0
 25 26  2  0
 26 27  1  0
 26 28  1  0
 28 29  2  0
 29 30  1  0
 30 31  2  0
 13  7  1  0
 20 15  1  0
 31 21  1  0
 30 24  1  0
  3 32  1  0
  4 33  1  0
  4 34  1  0
  8 35  1  0
  8 36  1  0
  9 37  1  0
  9 38  1  0
 10 39  1  0
 10 40  1  0
 11 41  1  0
 11 42  1  0
 12 43  1  0
 12 44  1  0
 13 45  1  1
 14 46  1  0
 14 47  1  0
 16 48  1  0
 17 49  1  0
 18 50  1  0
 19 51  1  0
 20 52  1  0
 22 53  1  0
 23 54  1  0
 25 55  1  0
 28 56  1  0
 29 57  1  0
M  END
>  <smiles>  (64) 
O=C(NCC(=O)N1CCCCCC1Cc1ccccc1)c1ccc2cc(Cl)ccc2n1

>  <score_type>  (64) 
oracle

>  <origin>  (64) 
autodockgpu

>  <m_score__min__energy>  (64) 
-7.1699999999999999

>  <m_primary>  (64) 
energy

>  <rmsd>  (64) 
1.8674534547289567

>  <m_score__min__rmsd>  (64) 
1.8674534547289567

>  <meeko>  (64) 
{"free_energy": -6.67, "intermolecular_energy": -10.25, "internal_energy": -1.87, "cluster_size": 19, "cluster_id": 1, "rank_in_cluster": 6}

>  <energy>  (64) 
-6.32

>  <cluster_rmsd>  (64) 
1.45

>  <cluster>  (64) 
1

$$$$

     RDKit          3D

 57 60  0  0  0  0  0  0  0  0999 V2000
  138.7560   71.6030  220.9500 O   0  0  0  0  0  0  0  0  0  0  0  0
  139.1810   72.1340  222.0100 C   0  0  0  0  0  0  0  0  0  0  0  0
  139.4660   73.5110  222.1460 N   0  0  0  0  0  0  0  0  0  0  0  0
  139.2820   74.4430  221.0300 C   0  0  0  0  0  0  0  0  0  0  0  0
  140.3720   75.4250  220.9810 C   0  0  0  0  0  0  0  0  0  0  0  0
  141.2000   75.3530  221.9800 O   0  0  0  0  0  0  0  0  0  0  0  0
  140.6550   76.4060  220.0470 N   0  0  0  0  0  0  0  0  0  0  0  0
  139.6630   76.3620  218.9200 C   0  0  0  0  0  0  0  0  0  0  0  0
  140.2660   77.2200  217.8400 C   0  0  0  0  0  0  0  0  0  0  0  0
  141.2790   76.3600  217.1120 C   0  0  0  0  0  0  0  0  0  0  0  0
  142.3760   76.0230  218.0710 C   0  0  0  0  0  0  0  0  0  0  0  0
  142.7500   77.1250  219.0190 C   0  0  0  0  0  0  0  0  0  0  0  0
  141.7050   77.3510  220.1090 C   0  0  1  0  0  0  0  0  0  0  0  0
  141.3540   78.8020  220.1590 C   0  0  0  0  0  0  0  0  0  0  0  0
  141.6960   79.2660  221.5650 C   0  0  0  0  0  0  0  0  0  0  0  0
  141.4420   78.4370  222.6450 C   0  0  0  0  0  0  0  0  0  0  0  0
  141.7140   78.7910  223.9480 C   0  0  0  0  0  0  0  0  0  0  0  0
  142.2640   80.0360  224.1560 C   0  0  0  0  0  0  0  0  0  0  0  0
  142.5310   80.8940  223.0880 C   0  0  0  0  0  0  0  0  0  0  0  0
  142.2460   80.5050  221.7990 C   0  0  0  0  0  0  0  0  0  0  0  0
  139.3940   71.2640  223.1830 C   0  0  0  0  0  0  0  0  0  0  0  0
  138.9900   69.9440  223.1750 C   0  0  0  0  0  0  0  0  0  0  0  0
  139.1690   69.0940  224.2480 C   0  0  0  0  0  0  0  0  0  0  0  0
  139.7820   69.6030  225.3740 C   0  0  0  0  0  0  0  0  0  0  0  0
  139.9660   68.7640  226.4530 C   0  0  0  0  0  0  0  0  0  0  0  0
  140.5760   69.2530  227.5850 C   0  0  0  0  0  0  0  0  0  0  0  0
  140.7940   68.1560  228.9360 Cl  0  0  0  0  0  0  0  0  0  0  0  0
  140.9940   70.5720  227.6250 C   0  0  0  0  0  0  0  0  0  0  0  0
  140.8100   71.4260  226.5380 C   0  0  0  0  0  0  0  0  0  0  0  0
  140.1920   70.9350  225.3870 C   0  0  0  0  0  0  0  0  0  0  0  0
  139.9920   71.7280  224.3040 N   0  0  0  0  0  0  0  0  0  0  0  0
  139.8150   73.8700  223.0630 H   0  0  0  0  0  0  0  0  0  0  0  0
  139.2651   73.8767  220.0871 H   0  0  0  0  0  0  0  0  0  0  0  0
  138.3325   74.9795  221.1737 H   0  0  0  0  0  0  0  0  0  0  0  0
  139.5272   75.3301  218.5639 H   0  0  0  0  0  0  0  0  0  0  0  0
  138.6699   76.7209  219.2280 H   0  0  0  0  0  0  0  0  0  0  0  0
  139.4843   77.5564  217.1430 H   0  0  0  0  0  0  0  0  0  0  0  0
  140.7423   78.1150  218.2668 H   0  0  0  0  0  0  0  0  0  0  0  0
  140.7978   75.4370  216.7565 H   0  0  0  0  0  0  0  0  0  0  0  0
  141.6841   76.9003  216.2437 H   0  0  0  0  0  0  0  0  0  0  0  0
  142.0547   75.1554  218.6659 H   0  0  0  0  0  0  0  0  0  0  0  0
  143.2693   75.8266  217.4599 H   0  0  0  0  0  0  0  0  0  0  0  0
  143.7062   76.8669  219.4976 H   0  0  0  0  0  0  0  0  0  0  0  0
  142.8227   78.0535  218.4337 H   0  0  0  0  0  0  0  0  0  0  0  0
  142.1098   77.1368  221.1091 H   0  0  0  0  0  0  0  0  0  0  0  0
  141.9414   79.3634  219.4175 H   0  0  0  0  0  0  0  0  0  0  0  0
  140.2918   78.9684  219.9264 H   0  0  0  0  0  0  0  0  0  0  0  0
  141.0015   77.4475  222.4528 H   0  0  0  0  0  0  0  0  0  0  0  0
  141.5014   78.1096  224.7849 H   0  0  0  0  0  0  0  0  0  0  0  0
  142.4969   80.3599  225.1811 H   0  0  0  0  0  0  0  0  0  0  0  0
  142.9707   81.8844  223.2772 H   0  0  0  0  0  0  0  0  0  0  0  0
  142.4573   81.1826  220.9586 H   0  0  0  0  0  0  0  0  0  0  0  0
  138.5023   69.5508  222.2708 H   0  0  0  0  0  0  0  0  0  0  0  0
  138.8344   68.0470  224.2065 H   0  0  0  0  0  0  0  0  0  0  0  0
  139.6295   67.7177  226.4091 H   0  0  0  0  0  0  0  0  0  0  0  0
  141.4818   70.9547  228.5336 H   0  0  0  0  0  0  0  0  0  0  0  0
  141.1472   72.4719  226.5871 H   0  0  0  0  0  0  0  0  0  0  0  0
  1  2  2  0
  2  3  1  0
  3  4  1  0
  4  5  1  0
  5  6  2  0
  5  7  1  0
  7  8  1  0
  8  9  1  0
  9 10  1  0
 10 11  1  0
 11 12  1  0
 12 13  1  0
 13 14  1  0
 14 15  1  0
 15 16  2  0
 16 17  1  0
 17 18  2  0
 18 19  1  0
 19 20  2  0
  2 21  1  0
 21 22  2  0
 22 23  1  0
 23 24  2  0
 24 25  1  0
 25 26  2  0
 26 27  1  0
 26 28  1  0
 28 29  2  0
 29 30  1  0
 30 31  2  0
 13  7  1  0
 20 15  1  0
 31 21  1  0
 30 24  1  0
  3 32  1  0
  4 33  1  0
  4 34  1  0
  8 35  1  0
  8 36  1  0
  9 37  1  0
  9 38  1  0
 10 39  1  0
 10 40  1  0
 11 41  1  0
 11 42  1  0
 12 43  1  0
 12 44  1  0
 13 45  1  1
 14 46  1  0
 14 47  1  0
 16 48  1  0
 17 49  1  0
 18 50  1  0
 19 51  1  0
 20 52  1  0
 22 53  1  0
 23 54  1  0
 25 55  1  0
 28 56  1  0
 29 57  1  0
M  END
>  <smiles>  (65) 
O=C(NCC(=O)N1CCCCCC1Cc1ccccc1)c1ccc2cc(Cl)ccc2n1

>  <score_type>  (65) 
oracle

>  <origin>  (65) 
autodockgpu

>  <m_score__min__energy>  (65) 
-7.1699999999999999

>  <m_primary>  (65) 
energy

>  <rmsd>  (65) 
1.313515531138059

>  <m_score__min__rmsd>  (65) 
1.313515531138059

>  <meeko>  (65) 
{"free_energy": -6.51, "intermolecular_energy": -10.09, "internal_energy": -2.24, "cluster_size": 19, "cluster_id": 1, "rank_in_cluster": 9}

>  <energy>  (65) 
-6.23

>  <cluster_rmsd>  (65) 
1.48

>  <cluster>  (65) 
1

$$$$

     RDKit          3D

 57 60  0  0  0  0  0  0  0  0999 V2000
  138.6210   72.6090  221.0200 O   0  0  0  0  0  0  0  0  0  0  0  0
  139.6170   72.7200  221.7820 C   0  0  0  0  0  0  0  0  0  0  0  0
  140.6610   73.6530  221.5900 N   0  0  0  0  0  0  0  0  0  0  0  0
  140.6550   74.5830  220.4580 C   0  0  0  0  0  0  0  0  0  0  0  0
  141.9870   75.1640  220.2500 C   0  0  0  0  0  0  0  0  0  0  0  0
  142.9490   74.5200  220.8410 O   0  0  0  0  0  0  0  0  0  0  0  0
  142.3780   76.2790  219.5290 N   0  0  0  0  0  0  0  0  0  0  0  0
  143.3160   75.8880  218.4240 C   0  0  0  0  0  0  0  0  0  0  0  0
  142.5040   76.0170  217.1630 C   0  0  0  0  0  0  0  0  0  0  0  0
  142.9250   77.3140  216.5010 C   0  0  0  0  0  0  0  0  0  0  0  0
  142.8950   78.3930  217.5340 C   0  0  0  0  0  0  0  0  0  0  0  0
  141.7040   78.3590  218.4430 C   0  0  0  0  0  0  0  0  0  0  0  0
  141.9640   77.6130  219.7490 C   0  0  1  0  0  0  0  0  0  0  0  0
  140.8330   77.8620  220.6910 C   0  0  0  0  0  0  0  0  0  0  0  0
  141.3850   78.7670  221.7790 C   0  0  0  0  0  0  0  0  0  0  0  0
  141.3120   78.3740  223.1050 C   0  0  0  0  0  0  0  0  0  0  0  0
  141.7800   79.1430  224.1470 C   0  0  0  0  0  0  0  0  0  0  0  0
  142.3430   80.3580  223.8240 C   0  0  0  0  0  0  0  0  0  0  0  0
  142.4310   80.7810  222.4980 C   0  0  0  0  0  0  0  0  0  0  0  0
  141.9530   79.9850  221.4820 C   0  0  0  0  0  0  0  0  0  0  0  0
  139.7000   71.8190  222.9480 C   0  0  0  0  0  0  0  0  0  0  0  0
  139.1650   70.5470  222.9060 C   0  0  0  0  0  0  0  0  0  0  0  0
  139.2190   69.6700  223.9710 C   0  0  0  0  0  0  0  0  0  0  0  0
  139.8400   70.1000  225.1250 C   0  0  0  0  0  0  0  0  0  0  0  0
  139.9010   69.2350  226.1960 C   0  0  0  0  0  0  0  0  0  0  0  0
  140.5170   69.6450  227.3560 C   0  0  0  0  0  0  0  0  0  0  0  0
  140.5750   68.5150  228.6960 Cl  0  0  0  0  0  0  0  0  0  0  0  0
  141.0650   70.9140  227.4300 C   0  0  0  0  0  0  0  0  0  0  0  0
  141.0070   71.7960  226.3500 C   0  0  0  0  0  0  0  0  0  0  0  0
  140.3830   71.3840  225.1720 C   0  0  0  0  0  0  0  0  0  0  0  0
  140.3020   72.2060  224.0950 N   0  0  0  0  0  0  0  0  0  0  0  0
  141.4520   73.6780  222.2720 H   0  0  0  0  0  0  0  0  0  0  0  0
  140.3521   74.0422  219.5493 H   0  0  0  0  0  0  0  0  0  0  0  0
  139.9469   75.3963  220.6752 H   0  0  0  0  0  0  0  0  0  0  0  0
  144.1840   76.5631  218.3961 H   0  0  0  0  0  0  0  0  0  0  0  0
  143.7134   74.8711  218.5585 H   0  0  0  0  0  0  0  0  0  0  0  0
  142.7061   75.1675  216.4940 H   0  0  0  0  0  0  0  0  0  0  0  0
  141.4268   76.0195  217.3860 H   0  0  0  0  0  0  0  0  0  0  0  0
  143.9430   77.2130  216.0967 H   0  0  0  0  0  0  0  0  0  0  0  0
  142.2424   77.5590  215.6739 H   0  0  0  0  0  0  0  0  0  0  0  0
  143.8002   78.3004  218.1521 H   0  0  0  0  0  0  0  0  0  0  0  0
  142.8396   79.3452  216.9861 H   0  0  0  0  0  0  0  0  0  0  0  0
  141.4178   79.3937  218.6827 H   0  0  0  0  0  0  0  0  0  0  0  0
  140.9043   77.8206  217.9132 H   0  0  0  0  0  0  0  0  0  0  0  0
  142.8437   78.0117  220.2755 H   0  0  0  0  0  0  0  0  0  0  0  0
  140.0017   78.3569  220.1676 H   0  0  0  0  0  0  0  0  0  0  0  0
  140.4424   76.9223  221.1086 H   0  0  0  0  0  0  0  0  0  0  0  0
  140.8577   77.3995  223.3373 H   0  0  0  0  0  0  0  0  0  0  0  0
  141.7075   78.8024  225.1904 H   0  0  0  0  0  0  0  0  0  0  0  0
  142.7295   81.0052  224.6251 H   0  0  0  0  0  0  0  0  0  0  0  0
  142.8845   81.7552  222.2631 H   0  0  0  0  0  0  0  0  0  0  0  0
  142.0246   80.3209  220.4370 H   0  0  0  0  0  0  0  0  0  0  0  0
  138.6722   70.2164  221.9798 H   0  0  0  0  0  0  0  0  0  0  0  0
  138.7818   68.6630  223.9015 H   0  0  0  0  0  0  0  0  0  0  0  0
  139.4625   68.2287  226.1244 H   0  0  0  0  0  0  0  0  0  0  0  0
  141.5569   71.2342  228.3603 H   0  0  0  0  0  0  0  0  0  0  0  0
  141.4468   72.8013  226.4264 H   0  0  0  0  0  0  0  0  0  0  0  0
  1  2  2  0
  2  3  1  0
  3  4  1  0
  4  5  1  0
  5  6  2  0
  5  7  1  0
  7  8  1  0
  8  9  1  0
  9 10  1  0
 10 11  1  0
 11 12  1  0
 12 13  1  0
 13 14  1  0
 14 15  1  0
 15 16  2  0
 16 17  1  0
 17 18  2  0
 18 19  1  0
 19 20  2  0
  2 21  1  0
 21 22  2  0
 22 23  1  0
 23 24  2  0
 24 25  1  0
 25 26  2  0
 26 27  1  0
 26 28  1  0
 28 29  2  0
 29 30  1  0
 30 31  2  0
 13  7  1  0
 20 15  1  0
 31 21  1  0
 30 24  1  0
  3 32  1  0
  4 33  1  0
  4 34  1  0
  8 35  1  0
  8 36  1  0
  9 37  1  0
  9 38  1  0
 10 39  1  0
 10 40  1  0
 11 41  1  0
 11 42  1  0
 12 43  1  0
 12 44  1  0
 13 45  1  1
 14 46  1  0
 14 47  1  0
 16 48  1  0
 17 49  1  0
 18 50  1  0
 19 51  1  0
 20 52  1  0
 22 53  1  0
 23 54  1  0
 25 55  1  0
 28 56  1  0
 29 57  1  0
M  END
>  <smiles>  (66) 
O=C(NCC(=O)N1CCCCCC1Cc1ccccc1)c1ccc2cc(Cl)ccc2n1

>  <score_type>  (66) 
oracle

>  <origin>  (66) 
autodockgpu

>  <m_score__min__energy>  (66) 
-7.1699999999999999

>  <m_primary>  (66) 
energy

>  <rmsd>  (66) 
2.3755783169178075

>  <m_score__min__rmsd>  (66) 
2.3755783169178075

>  <meeko>  (66) 
{"free_energy": -6.45, "intermolecular_energy": -10.03, "internal_energy": -2.23, "cluster_size": 19, "cluster_id": 1, "rank_in_cluster": 11}

>  <energy>  (66) 
-6.2

>  <cluster_rmsd>  (66) 
1.78

>  <cluster>  (66) 
1

$$$$

     RDKit          3D

 57 60  0  0  0  0  0  0  0  0999 V2000
  138.5950   71.0090  221.4540 O   0  0  0  0  0  0  0  0  0  0  0  0
  138.9980   71.8050  222.3430 C   0  0  0  0  0  0  0  0  0  0  0  0
  138.9560   73.2120  222.2240 N   0  0  0  0  0  0  0  0  0  0  0  0
  138.4250   73.8620  221.0220 C   0  0  0  0  0  0  0  0  0  0  0  0
  139.3870   74.8290  220.4810 C   0  0  0  0  0  0  0  0  0  0  0  0
  138.8800   75.9950  220.2150 O   0  0  0  0  0  0  0  0  0  0  0  0
  140.7380   74.6960  220.2120 N   0  0  0  0  0  0  0  0  0  0  0  0
  141.0320   73.3330  219.6550 C   0  0  0  0  0  0  0  0  0  0  0  0
  141.7810   72.6210  220.7500 C   0  0  0  0  0  0  0  0  0  0  0  0
  143.2560   72.7420  220.4230 C   0  0  0  0  0  0  0  0  0  0  0  0
  143.6950   74.1290  220.7680 C   0  0  0  0  0  0  0  0  0  0  0  0
  143.1050   75.2130  219.9120 C   0  0  0  0  0  0  0  0  0  0  0  0
  141.7360   75.6810  220.3960 C   0  0  1  0  0  0  0  0  0  0  0  0
  141.4790   77.0600  219.8840 C   0  0  0  0  0  0  0  0  0  0  0  0
  141.4730   77.9650  221.1040 C   0  0  0  0  0  0  0  0  0  0  0  0
  141.8560   79.2910  220.9800 C   0  0  0  0  0  0  0  0  0  0  0  0
  141.8860   80.1690  222.0400 C   0  0  0  0  0  0  0  0  0  0  0  0
  141.5130   79.6770  223.2720 C   0  0  0  0  0  0  0  0  0  0  0  0
  141.1220   78.3470  223.4280 C   0  0  0  0  0  0  0  0  0  0  0  0
  141.1040   77.4980  222.3450 C   0  0  0  0  0  0  0  0  0  0  0  0
  139.5480   71.2310  223.5870 C   0  0  0  0  0  0  0  0  0  0  0  0
  140.5150   71.8970  224.3120 C   0  0  0  0  0  0  0  0  0  0  0  0
  141.0570   71.4000  225.4800 C   0  0  0  0  0  0  0  0  0  0  0  0
  140.6010   70.1780  225.9300 C   0  0  0  0  0  0  0  0  0  0  0  0
  141.1350   69.6690  227.0950 C   0  0  0  0  0  0  0  0  0  0  0  0
  140.6920   68.4530  227.5600 C   0  0  0  0  0  0  0  0  0  0  0  0
  141.3950   67.8400  229.0460 Cl  0  0  0  0  0  0  0  0  0  0  0  0
  139.7230   67.7600  226.8560 C   0  0  0  0  0  0  0  0  0  0  0  0
  139.1780   68.2680  225.6760 C   0  0  0  0  0  0  0  0  0  0  0  0
  139.6240   69.5020  225.2010 C   0  0  0  0  0  0  0  0  0  0  0  0
  139.1240   70.0370  224.0580 N   0  0  0  0  0  0  0  0  0  0  0  0
  139.3110   73.8000  223.0120 H   0  0  0  0  0  0  0  0  0  0  0  0
  138.2173   73.0960  220.2603 H   0  0  0  0  0  0  0  0  0  0  0  0
  137.5022   74.3971  221.2905 H   0  0  0  0  0  0  0  0  0  0  0  0
  140.0983   72.8026  219.4165 H   0  0  0  0  0  0  0  0  0  0  0  0
  141.6116   73.3831  218.7214 H   0  0  0  0  0  0  0  0  0  0  0  0
  141.5688   73.0913  221.7215 H   0  0  0  0  0  0  0  0  0  0  0  0
  141.4766   71.5659  220.8144 H   0  0  0  0  0  0  0  0  0  0  0  0
  143.8299   72.0117  221.0123 H   0  0  0  0  0  0  0  0  0  0  0  0
  143.4276   72.5421  219.3550 H   0  0  0  0  0  0  0  0  0  0  0  0
  143.4117   74.3267  221.8124 H   0  0  0  0  0  0  0  0  0  0  0  0
  144.7812   74.1591  220.5969 H   0  0  0  0  0  0  0  0  0  0  0  0
  143.7903   76.0735  219.9155 H   0  0  0  0  0  0  0  0  0  0  0  0
  142.9707   74.7966  218.9027 H   0  0  0  0  0  0  0  0  0  0  0  0
  141.7089   75.7915  221.4901 H   0  0  0  0  0  0  0  0  0  0  0  0
  142.2741   77.3633  219.1870 H   0  0  0  0  0  0  0  0  0  0  0  0
  140.5267   77.1156  219.3363 H   0  0  0  0  0  0  0  0  0  0  0  0
  142.1503   79.6600  219.9864 H   0  0  0  0  0  0  0  0  0  0  0  0
  142.1941   81.2169  221.9093 H   0  0  0  0  0  0  0  0  0  0  0  0
  141.5237   80.3439  224.1467 H   0  0  0  0  0  0  0  0  0  0  0  0
  140.8269   77.9755  224.4204 H   0  0  0  0  0  0  0  0  0  0  0  0
  140.7957   76.4496  222.4708 H   0  0  0  0  0  0  0  0  0  0  0  0
  140.8706   72.8698  223.9416 H   0  0  0  0  0  0  0  0  0  0  0  0
  141.8262   71.9590  226.0331 H   0  0  0  0  0  0  0  0  0  0  0  0
  141.9056   70.2286  227.6455 H   0  0  0  0  0  0  0  0  0  0  0  0
  139.3748   66.7877  227.2347 H   0  0  0  0  0  0  0  0  0  0  0  0
  138.4084   67.7041  225.1285 H   0  0  0  0  0  0  0  0  0  0  0  0
  1  2  2  0
  2  3  1  0
  3  4  1  0
  4  5  1  0
  5  6  2  0
  5  7  1  0
  7  8  1  0
  8  9  1  0
  9 10  1  0
 10 11  1  0
 11 12  1  0
 12 13  1  0
 13 14  1  0
 14 15  1  0
 15 16  2  0
 16 17  1  0
 17 18  2  0
 18 19  1  0
 19 20  2  0
  2 21  1  0
 21 22  2  0
 22 23  1  0
 23 24  2  0
 24 25  1  0
 25 26  2  0
 26 27  1  0
 26 28  1  0
 28 29  2  0
 29 30  1  0
 30 31  2  0
 13  7  1  0
 20 15  1  0
 31 21  1  0
 30 24  1  0
  3 32  1  0
  4 33  1  0
  4 34  1  0
  8 35  1  0
  8 36  1  0
  9 37  1  0
  9 38  1  0
 10 39  1  0
 10 40  1  0
 11 41  1  0
 11 42  1  0
 12 43  1  0
 12 44  1  0
 13 45  1  1
 14 46  1  0
 14 47  1  0
 16 48  1  0
 17 49  1  0
 18 50  1  0
 19 51  1  0
 20 52  1  0
 22 53  1  0
 23 54  1  0
 25 55  1  0
 28 56  1  0
 29 57  1  0
M  END
>  <smiles>  (67) 
O=C(NCC(=O)N1CCCCCC1Cc1ccccc1)c1ccc2cc(Cl)ccc2n1

>  <score_type>  (67) 
oracle

>  <origin>  (67) 
autodockgpu

>  <m_score__min__energy>  (67) 
-7.1699999999999999

>  <m_primary>  (67) 
energy

>  <rmsd>  (67) 
2.9348238064863295

>  <m_score__min__rmsd>  (67) 
2.9348238064863295

>  <meeko>  (67) 
{"free_energy": -6.37, "intermolecular_energy": -9.95, "internal_energy": -1.9, "cluster_size": 5, "cluster_id": 3, "rank_in_cluster": 1}

>  <energy>  (67) 
-5.83

>  <cluster_rmsd>  (67) 
1.74

>  <cluster>  (67) 
1

$$$$

     RDKit          3D

 57 60  0  0  0  0  0  0  0  0999 V2000
  140.1310   71.7740  220.6940 O   0  0  0  0  0  0  0  0  0  0  0  0
  139.9580   72.2890  221.8300 C   0  0  0  0  0  0  0  0  0  0  0  0
  139.7330   73.6670  222.0480 N   0  0  0  0  0  0  0  0  0  0  0  0
  139.6840   74.6190  220.9350 C   0  0  0  0  0  0  0  0  0  0  0  0
  140.9890   75.2600  220.7350 C   0  0  0  0  0  0  0  0  0  0  0  0
  142.0000   74.5480  221.1340 O   0  0  0  0  0  0  0  0  0  0  0  0
  141.3100   76.4920  220.1920 N   0  0  0  0  0  0  0  0  0  0  0  0
  141.4690   76.3850  218.7020 C   0  0  0  0  0  0  0  0  0  0  0  0
  142.6320   77.2830  218.3710 C   0  0  0  0  0  0  0  0  0  0  0  0
  142.0480   78.6010  217.9030 C   0  0  0  0  0  0  0  0  0  0  0  0
  141.8210   79.4600  219.1050 C   0  0  0  0  0  0  0  0  0  0  0  0
  140.8780   78.8940  220.1260 C   0  0  0  0  0  0  0  0  0  0  0  0
  141.4600   77.7100  220.8940 C   0  0  1  0  0  0  0  0  0  0  0  0
  141.0020   77.7740  222.3140 C   0  0  0  0  0  0  0  0  0  0  0  0
  141.5240   79.0920  222.8630 C   0  0  0  0  0  0  0  0  0  0  0  0
  142.8890   79.3170  222.9310 C   0  0  0  0  0  0  0  0  0  0  0  0
  143.4370   80.4800  223.4250 C   0  0  0  0  0  0  0  0  0  0  0  0
  142.5610   81.4470  223.8660 C   0  0  0  0  0  0  0  0  0  0  0  0
  141.1820   81.2490  223.8100 C   0  0  0  0  0  0  0  0  0  0  0  0
  140.6700   80.0730  223.3090 C   0  0  0  0  0  0  0  0  0  0  0  0
  139.9920   71.3990  223.0060 C   0  0  0  0  0  0  0  0  0  0  0  0
  139.5170   70.1050  222.9350 C   0  0  0  0  0  0  0  0  0  0  0  0
  139.5300   69.2370  224.0080 C   0  0  0  0  0  0  0  0  0  0  0  0
  140.0440   69.6990  225.2010 C   0  0  0  0  0  0  0  0  0  0  0  0
  140.0630   68.8430  226.2820 C   0  0  0  0  0  0  0  0  0  0  0  0
  140.5730   69.2860  227.4800 C   0  0  0  0  0  0  0  0  0  0  0  0
  140.5790   68.1660  228.8310 Cl  0  0  0  0  0  0  0  0  0  0  0  0
  141.0580   70.5770  227.5840 C   0  0  0  0  0  0  0  0  0  0  0  0
  141.0430   71.4500  226.4960 C   0  0  0  0  0  0  0  0  0  0  0  0
  140.5260   71.0050  225.2780 C   0  0  0  0  0  0  0  0  0  0  0  0
  140.4900   71.8180  224.1910 N   0  0  0  0  0  0  0  0  0  0  0  0
  139.5980   74.0120  223.0250 H   0  0  0  0  0  0  0  0  0  0  0  0
  139.4010   74.0844  220.0163 H   0  0  0  0  0  0  0  0  0  0  0  0
  138.9432   75.3971  221.1710 H   0  0  0  0  0  0  0  0  0  0  0  0
  141.6859   75.3470  218.4095 H   0  0  0  0  0  0  0  0  0  0  0  0
  140.5542   76.6776  218.1658 H   0  0  0  0  0  0  0  0  0  0  0  0
  143.2549   77.4405  219.2638 H   0  0  0  0  0  0  0  0  0  0  0  0
  143.2681   76.8348  217.5935 H   0  0  0  0  0  0  0  0  0  0  0  0
  142.7500   79.0974  217.2169 H   0  0  0  0  0  0  0  0  0  0  0  0
  141.1003   78.4310  217.3711 H   0  0  0  0  0  0  0  0  0  0  0  0
  142.7926   79.6251  219.5937 H   0  0  0  0  0  0  0  0  0  0  0  0
  141.3522   80.3840  218.7357 H   0  0  0  0  0  0  0  0  0  0  0  0
  140.6254   79.6868  220.8455 H   0  0  0  0  0  0  0  0  0  0  0  0
  139.9929   78.5283  219.5849 H   0  0  0  0  0  0  0  0  0  0  0  0
  142.5563   77.7694  220.9613 H   0  0  0  0  0  0  0  0  0  0  0  0
  139.9034   77.7478  222.3629 H   0  0  0  0  0  0  0  0  0  0  0  0
  141.3746   76.9187  222.8967 H   0  0  0  0  0  0  0  0  0  0  0  0
  143.5680   78.5290  222.5733 H   0  0  0  0  0  0  0  0  0  0  0  0
  144.5260   80.6299  223.4655 H   0  0  0  0  0  0  0  0  0  0  0  0
  142.9559   82.3912  224.2691 H   0  0  0  0  0  0  0  0  0  0  0  0
  140.5006   82.0351  224.1673 H   0  0  0  0  0  0  0  0  0  0  0  0
  139.5817   79.9189  223.2658 H   0  0  0  0  0  0  0  0  0  0  0  0
  139.1087   69.7486  221.9778 H   0  0  0  0  0  0  0  0  0  0  0  0
  139.1434   68.2114  223.9145 H   0  0  0  0  0  0  0  0  0  0  0  0
  139.6749   67.8181  226.1873 H   0  0  0  0  0  0  0  0  0  0  0  0
  141.4645   70.9231  228.5458 H   0  0  0  0  0  0  0  0  0  0  0  0
  141.4327   72.4737  226.5963 H   0  0  0  0  0  0  0  0  0  0  0  0
  1  2  2  0
  2  3  1  0
  3  4  1  0
  4  5  1  0
  5  6  2  0
  5  7  1  0
  7  8  1  0
  8  9  1  0
  9 10  1  0
 10 11  1  0
 11 12  1  0
 12 13  1  0
 13 14  1  0
 14 15  1  0
 15 16  2  0
 16 17  1  0
 17 18  2  0
 18 19  1  0
 19 20  2  0
  2 21  1  0
 21 22  2  0
 22 23  1  0
 23 24  2  0
 24 25  1  0
 25 26  2  0
 26 27  1  0
 26 28  1  0
 28 29  2  0
 29 30  1  0
 30 31  2  0
 13  7  1  0
 20 15  1  0
 31 21  1  0
 30 24  1  0
  3 32  1  0
  4 33  1  0
  4 34  1  0
  8 35  1  0
  8 36  1  0
  9 37  1  0
  9 38  1  0
 10 39  1  0
 10 40  1  0
 11 41  1  0
 11 42  1  0
 12 43  1  0
 12 44  1  0
 13 45  1  1
 14 46  1  0
 14 47  1  0
 16 48  1  0
 17 49  1  0
 18 50  1  0
 19 51  1  0
 20 52  1  0
 22 53  1  0
 23 54  1  0
 25 55  1  0
 28 56  1  0
 29 57  1  0
M  END
>  <smiles>  (68) 
O=C(NCC(=O)N1CCCCCC1Cc1ccccc1)c1ccc2cc(Cl)ccc2n1

>  <score_type>  (68) 
oracle

>  <origin>  (68) 
autodockgpu

>  <m_score__min__energy>  (68) 
-7.1699999999999999

>  <m_primary>  (68) 
energy

>  <rmsd>  (68) 
2.092203700682837

>  <m_score__min__rmsd>  (68) 
2.092203700682837

>  <meeko>  (68) 
{"free_energy": -7.17, "intermolecular_energy": -10.75, "internal_energy": -1.78, "cluster_size": 19, "cluster_id": 1, "rank_in_cluster": 1}

>  <energy>  (68) 
-5.66

>  <cluster_rmsd>  (68) 
1.79

>  <cluster>  (68) 
1

$$$$

     RDKit          3D

 57 60  0  0  0  0  0  0  0  0999 V2000
  139.3410   71.9300  220.7890 O   0  0  0  0  0  0  0  0  0  0  0  0
  139.5430   72.4440  221.9200 C   0  0  0  0  0  0  0  0  0  0  0  0
  139.6760   73.8320  222.1460 N   0  0  0  0  0  0  0  0  0  0  0  0
  139.5850   74.7980  221.0470 C   0  0  0  0  0  0  0  0  0  0  0  0
  140.4470   75.9590  221.2960 C   0  0  0  0  0  0  0  0  0  0  0  0
  140.9020   76.0360  222.5120 O   0  0  0  0  0  0  0  0  0  0  0  0
  140.8500   76.9760  220.4490 N   0  0  0  0  0  0  0  0  0  0  0  0
  141.1980   78.2090  221.2350 C   0  0  0  0  0  0  0  0  0  0  0  0
  140.3580   79.3030  220.6300 C   0  0  0  0  0  0  0  0  0  0  0  0
  141.2170   79.9870  219.5850 C   0  0  0  0  0  0  0  0  0  0  0  0
  140.9750   79.3150  218.2720 C   0  0  0  0  0  0  0  0  0  0  0  0
  140.1950   78.0370  218.3500 C   0  0  0  0  0  0  0  0  0  0  0  0
  140.9570   76.9090  219.0410 C   0  0  1  0  0  0  0  0  0  0  0  0
  142.3170   76.7920  218.4350 C   0  0  0  0  0  0  0  0  0  0  0  0
  142.9630   75.5820  219.0870 C   0  0  0  0  0  0  0  0  0  0  0  0
  142.4610   74.3150  218.8400 C   0  0  0  0  0  0  0  0  0  0  0  0
  142.9860   73.1730  219.4020 C   0  0  0  0  0  0  0  0  0  0  0  0
  144.0620   73.3280  220.2470 C   0  0  0  0  0  0  0  0  0  0  0  0
  144.5900   74.5910  220.5150 C   0  0  0  0  0  0  0  0  0  0  0  0
  144.0390   75.7110  219.9350 C   0  0  0  0  0  0  0  0  0  0  0  0
  139.6480   71.5410  223.0830 C   0  0  0  0  0  0  0  0  0  0  0  0
  139.1870   70.2410  223.0180 C   0  0  0  0  0  0  0  0  0  0  0  0
  139.2650   69.3610  224.0790 C   0  0  0  0  0  0  0  0  0  0  0  0
  139.8320   69.8160  225.2510 C   0  0  0  0  0  0  0  0  0  0  0  0
  139.9160   68.9480  226.3190 C   0  0  0  0  0  0  0  0  0  0  0  0
  140.4780   69.3840  227.4960 C   0  0  0  0  0  0  0  0  0  0  0  0
  140.5670   68.2490  228.8300 Cl  0  0  0  0  0  0  0  0  0  0  0  0
  140.9500   70.6810  227.5920 C   0  0  0  0  0  0  0  0  0  0  0  0
  140.8690   71.5660  226.5160 C   0  0  0  0  0  0  0  0  0  0  0  0
  140.2990   71.1280  225.3200 C   0  0  0  0  0  0  0  0  0  0  0  0
  140.1980   71.9530  224.2460 N   0  0  0  0  0  0  0  0  0  0  0  0
  139.8430   74.1760  223.1190 H   0  0  0  0  0  0  0  0  0  0  0  0
  139.8991   74.3104  220.1123 H   0  0  0  0  0  0  0  0  0  0  0  0
  138.5438   75.1442  220.9694 H   0  0  0  0  0  0  0  0  0  0  0  0
  140.9499   78.0733  222.2980 H   0  0  0  0  0  0  0  0  0  0  0  0
  142.2727   78.4391  221.1908 H   0  0  0  0  0  0  0  0  0  0  0  0
  139.4596   78.8753  220.1610 H   0  0  0  0  0  0  0  0  0  0  0  0
  140.0270   80.0173  221.3982 H   0  0  0  0  0  0  0  0  0  0  0  0
  140.9437   81.0502  219.5156 H   0  0  0  0  0  0  0  0  0  0  0  0
  142.2798   79.9155  219.8593 H   0  0  0  0  0  0  0  0  0  0  0  0
  140.4217   80.0139  217.6275 H   0  0  0  0  0  0  0  0  0  0  0  0
  141.9657   79.0475  217.8757 H   0  0  0  0  0  0  0  0  0  0  0  0
  139.2676   78.2270  218.9103 H   0  0  0  0  0  0  0  0  0  0  0  0
  139.9950   77.7124  217.3182 H   0  0  0  0  0  0  0  0  0  0  0  0
  140.4927   75.9301  218.8507 H   0  0  0  0  0  0  0  0  0  0  0  0
  142.2396   76.6445  217.3477 H   0  0  0  0  0  0  0  0  0  0  0  0
  142.9110   77.7032  218.5990 H   0  0  0  0  0  0  0  0  0  0  0  0
  141.6007   74.2163  218.1616 H   0  0  0  0  0  0  0  0  0  0  0  0
  142.5643   72.1804  219.1854 H   0  0  0  0  0  0  0  0  0  0  0  0
  144.5123   72.4419  220.7181 H   0  0  0  0  0  0  0  0  0  0  0  0
  145.4504   74.6923  221.1928 H   0  0  0  0  0  0  0  0  0  0  0  0
  144.4573   76.7057  220.1486 H   0  0  0  0  0  0  0  0  0  0  0  0
  138.7369   69.8904  222.0776 H   0  0  0  0  0  0  0  0  0  0  0  0
  138.8875   68.3314  223.9924 H   0  0  0  0  0  0  0  0  0  0  0  0
  139.5379   67.9188  226.2306 H   0  0  0  0  0  0  0  0  0  0  0  0
  141.3987   71.0219  228.5367 H   0  0  0  0  0  0  0  0  0  0  0  0
  141.2490   72.5940  226.6093 H   0  0  0  0  0  0  0  0  0  0  0  0
  1  2  2  0
  2  3  1  0
  3  4  1  0
  4  5  1  0
  5  6  2  0
  5  7  1  0
  7  8  1  0
  8  9  1  0
  9 10  1  0
 10 11  1  0
 11 12  1  0
 12 13  1  0
 13 14  1  0
 14 15  1  0
 15 16  2  0
 16 17  1  0
 17 18  2  0
 18 19  1  0
 19 20  2  0
  2 21  1  0
 21 22  2  0
 22 23  1  0
 23 24  2  0
 24 25  1  0
 25 26  2  0
 26 27  1  0
 26 28  1  0
 28 29  2  0
 29 30  1  0
 30 31  2  0
 13  7  1  0
 20 15  1  0
 31 21  1  0
 30 24  1  0
  3 32  1  0
  4 33  1  0
  4 34  1  0
  8 35  1  0
  8 36  1  0
  9 37  1  0
  9 38  1  0
 10 39  1  0
 10 40  1  0
 11 41  1  0
 11 42  1  0
 12 43  1  0
 12 44  1  0
 13 45  1  6
 14 46  1  0
 14 47  1  0
 16 48  1  0
 17 49  1  0
 18 50  1  0
 19 51  1  0
 20 52  1  0
 22 53  1  0
 23 54  1  0
 25 55  1  0
 28 56  1  0
 29 57  1  0
M  END
>  <smiles>  (69) 
O=C(NCC(=O)N1CCCCCC1Cc1ccccc1)c1ccc2cc(Cl)ccc2n1

>  <score_type>  (69) 
oracle

>  <origin>  (69) 
autodockgpu

>  <m_score__min__energy>  (69) 
-7.1699999999999999

>  <m_primary>  (69) 
energy

>  <rmsd>  (69) 
2.406327223249089

>  <m_score__min__rmsd>  (69) 
2.406327223249089

>  <meeko>  (69) 
{"free_energy": -5.55, "intermolecular_energy": -9.13, "internal_energy": -2.89, "cluster_size": 10, "cluster_id": 6, "rank_in_cluster": 6}

>  <energy>  (69) 
-5.54

>  <cluster_rmsd>  (69) 
1.3

>  <cluster>  (69) 
1

$$$$

     RDKit          3D

 57 60  0  0  0  0  0  0  0  0999 V2000
  141.6740   73.2460  220.5590 O   0  0  0  0  0  0  0  0  0  0  0  0
  140.9360   73.9540  221.2940 C   0  0  0  0  0  0  0  0  0  0  0  0
  139.9450   73.4330  222.1550 N   0  0  0  0  0  0  0  0  0  0  0  0
  139.7000   71.9910  222.2550 C   0  0  0  0  0  0  0  0  0  0  0  0
  138.2720   71.7140  222.4510 C   0  0  0  0  0  0  0  0  0  0  0  0
  137.5500   71.8490  221.3790 O   0  0  0  0  0  0  0  0  0  0  0  0
  137.5790   71.3350  223.5870 N   0  0  0  0  0  0  0  0  0  0  0  0
  136.2300   71.9940  223.6240 C   0  0  0  0  0  0  0  0  0  0  0  0
  135.2820   70.9110  224.0670 C   0  0  0  0  0  0  0  0  0  0  0  0
  135.3440   69.8180  223.0200 C   0  0  0  0  0  0  0  0  0  0  0  0
  136.4390   68.8740  223.3970 C   0  0  0  0  0  0  0  0  0  0  0  0
  137.1470   69.1950  224.6800 C   0  0  0  0  0  0  0  0  0  0  0  0
  138.0240   70.4410  224.5880 C   0  0  1  0  0  0  0  0  0  0  0  0
  139.4600   70.0330  224.5910 C   0  0  0  0  0  0  0  0  0  0  0  0
  140.0510   70.5880  225.8760 C   0  0  0  0  0  0  0  0  0  0  0  0
  139.8080   69.9450  227.0790 C   0  0  0  0  0  0  0  0  0  0  0  0
  140.3000   70.3930  228.2850 C   0  0  0  0  0  0  0  0  0  0  0  0
  141.0660   71.5370  228.2630 C   0  0  0  0  0  0  0  0  0  0  0  0
  141.3270   72.2060  227.0670 C   0  0  0  0  0  0  0  0  0  0  0  0
  140.8190   71.7290  225.8800 C   0  0  0  0  0  0  0  0  0  0  0  0
  141.1180   75.4180  221.2530 C   0  0  0  0  0  0  0  0  0  0  0  0
  141.8880   76.0130  220.2750 C   0  0  0  0  0  0  0  0  0  0  0  0
  142.0860   77.3770  220.1980 C   0  0  0  0  0  0  0  0  0  0  0  0
  141.4790   78.1690  221.1500 C   0  0  0  0  0  0  0  0  0  0  0  0
  141.6680   79.5330  221.0850 C   0  0  0  0  0  0  0  0  0  0  0  0
  141.0710   80.3390  222.0260 C   0  0  0  0  0  0  0  0  0  0  0  0
  141.3350   82.0690  221.9080 Cl  0  0  0  0  0  0  0  0  0  0  0  0
  140.2920   79.7730  223.0190 C   0  0  0  0  0  0  0  0  0  0  0  0
  140.0950   78.3930  223.0930 C   0  0  0  0  0  0  0  0  0  0  0  0
  140.7000   77.5720  222.1400 C   0  0  0  0  0  0  0  0  0  0  0  0
  140.5380   76.2240  222.1700 N   0  0  0  0  0  0  0  0  0  0  0  0
  139.3760   74.0920  222.7330 H   0  0  0  0  0  0  0  0  0  0  0  0
  140.0375   71.5034  221.3285 H   0  0  0  0  0  0  0  0  0  0  0  0
  140.2556   71.5996  223.1200 H   0  0  0  0  0  0  0  0  0  0  0  0
  136.2264   72.8285  224.3406 H   0  0  0  0  0  0  0  0  0  0  0  0
  135.9488   72.4170  222.6483 H   0  0  0  0  0  0  0  0  0  0  0  0
  135.5904   70.5153  225.0459 H   0  0  0  0  0  0  0  0  0  0  0  0
  134.2585   71.3008  224.1697 H   0  0  0  0  0  0  0  0  0  0  0  0
  134.3847   69.2809  222.9848 H   0  0  0  0  0  0  0  0  0  0  0  0
  135.5400   70.2517  222.0283 H   0  0  0  0  0  0  0  0  0  0  0  0
  136.0035   67.8683  223.4913 H   0  0  0  0  0  0  0  0  0  0  0  0
  137.1962   68.9530  222.6031 H   0  0  0  0  0  0  0  0  0  0  0  0
  136.3929   69.3555  225.4646 H   0  0  0  0  0  0  0  0  0  0  0  0
  137.8082   68.3464  224.9094 H   0  0  0  0  0  0  0  0  0  0  0  0
  137.9234   71.0741  225.4819 H   0  0  0  0  0  0  0  0  0  0  0  0
  139.5457   68.9365  224.5734 H   0  0  0  0  0  0  0  0  0  0  0  0
  139.9893   70.4160  223.7060 H   0  0  0  0  0  0  0  0  0  0  0  0
  139.1928   69.0332  227.0705 H   0  0  0  0  0  0  0  0  0  0  0  0
  140.0902   69.8603  229.2243 H   0  0  0  0  0  0  0  0  0  0  0  0
  141.4789   71.9298  229.2039 H   0  0  0  0  0  0  0  0  0  0  0  0
  141.9413   73.1185  227.0726 H   0  0  0  0  0  0  0  0  0  0  0  0
  141.0264   72.2583  224.9383 H   0  0  0  0  0  0  0  0  0  0  0  0
  142.3666   75.3704  219.5213 H   0  0  0  0  0  0  0  0  0  0  0  0
  142.7070   77.8174  219.4040 H   0  0  0  0  0  0  0  0  0  0  0  0
  142.2889   79.9715  220.2899 H   0  0  0  0  0  0  0  0  0  0  0  0
  139.8172   80.4249  223.7671 H   0  0  0  0  0  0  0  0  0  0  0  0
  139.4728   77.9594  223.8898 H   0  0  0  0  0  0  0  0  0  0  0  0
  1  2  2  0
  2  3  1  0
  3  4  1  0
  4  5  1  0
  5  6  2  0
  5  7  1  0
  7  8  1  0
  8  9  1  0
  9 10  1  0
 10 11  1  0
 11 12  1  0
 12 13  1  0
 13 14  1  0
 14 15  1  0
 15 16  2  0
 16 17  1  0
 17 18  2  0
 18 19  1  0
 19 20  2  0
  2 21  1  0
 21 22  2  0
 22 23  1  0
 23 24  2  0
 24 25  1  0
 25 26  2  0
 26 27  1  0
 26 28  1  0
 28 29  2  0
 29 30  1  0
 30 31  2  0
 13  7  1  0
 20 15  1  0
 31 21  1  0
 30 24  1  0
  3 32  1  0
  4 33  1  0
  4 34  1  0
  8 35  1  0
  8 36  1  0
  9 37  1  0
  9 38  1  0
 10 39  1  0
 10 40  1  0
 11 41  1  0
 11 42  1  0
 12 43  1  0
 12 44  1  0
 13 45  1  1
 14 46  1  0
 14 47  1  0
 16 48  1  0
 17 49  1  0
 18 50  1  0
 19 51  1  0
 20 52  1  0
 22 53  1  0
 23 54  1  0
 25 55  1  0
 28 56  1  0
 29 57  1  0
M  END
>  <smiles>  (70) 
O=C(NCC(=O)N1CCCCCC1Cc1ccccc1)c1ccc2cc(Cl)ccc2n1

>  <score_type>  (70) 
oracle

>  <origin>  (70) 
autodockgpu

>  <m_score__min__energy>  (70) 
-7.1699999999999999

>  <m_primary>  (70) 
energy

>  <rmsd>  (70) 
8.274863182013314

>  <m_score__min__rmsd>  (70) 
8.274863182013314

>  <meeko>  (70) 
{"free_energy": -6.28, "intermolecular_energy": -9.86, "internal_energy": -1.84, "cluster_size": 5, "cluster_id": 4, "rank_in_cluster": 1}

>  <energy>  (70) 
-6.54

>  <cluster_rmsd>  (70) 
0.0

>  <cluster>  (70) 
2

$$$$

     RDKit          3D

 57 60  0  0  0  0  0  0  0  0999 V2000
  141.2860   71.5260  221.1780 O   0  0  0  0  0  0  0  0  0  0  0  0
  140.9550   72.4900  221.9180 C   0  0  0  0  0  0  0  0  0  0  0  0
  140.3760   72.3430  223.1980 N   0  0  0  0  0  0  0  0  0  0  0  0
  140.1120   71.0190  223.7690 C   0  0  0  0  0  0  0  0  0  0  0  0
  140.3570   71.0160  225.2170 C   0  0  0  0  0  0  0  0  0  0  0  0
  140.5420   72.1950  225.7300 O   0  0  0  0  0  0  0  0  0  0  0  0
  140.4190   69.9640  226.1140 N   0  0  0  0  0  0  0  0  0  0  0  0
  140.6850   70.4720  227.5020 C   0  0  0  0  0  0  0  0  0  0  0  0
  139.5800   69.8910  228.3450 C   0  0  0  0  0  0  0  0  0  0  0  0
  140.0530   68.5290  228.8100 C   0  0  0  0  0  0  0  0  0  0  0  0
  141.3180   68.2040  228.0840 C   0  0  0  0  0  0  0  0  0  0  0  0
  141.1370   67.6990  226.6770 C   0  0  0  0  0  0  0  0  0  0  0  0
  140.2450   68.5920  225.8190 C   0  0  1  0  0  0  0  0  0  0  0  0
  138.8590   68.0360  225.8100 C   0  0  0  0  0  0  0  0  0  0  0  0
  138.1570   68.6810  224.6270 C   0  0  0  0  0  0  0  0  0  0  0  0
  137.2240   69.6820  224.8410 C   0  0  0  0  0  0  0  0  0  0  0  0
  136.5400   70.3060  223.8220 C   0  0  0  0  0  0  0  0  0  0  0  0
  136.8170   69.8930  222.5370 C   0  0  0  0  0  0  0  0  0  0  0  0
  137.7520   68.8870  222.2900 C   0  0  0  0  0  0  0  0  0  0  0  0
  138.4160   68.2860  223.3350 C   0  0  0  0  0  0  0  0  0  0  0  0
  141.1870   73.8590  221.4160 C   0  0  0  0  0  0  0  0  0  0  0  0
  141.9260   74.0830  220.2720 C   0  0  0  0  0  0  0  0  0  0  0  0
  142.1680   75.3450  219.7660 C   0  0  0  0  0  0  0  0  0  0  0  0
  141.6400   76.4210  220.4470 C   0  0  0  0  0  0  0  0  0  0  0  0
  141.8740   77.6870  219.9530 C   0  0  0  0  0  0  0  0  0  0  0  0
  141.3550   78.7730  220.6180 C   0  0  0  0  0  0  0  0  0  0  0  0
  141.6740   80.3670  219.9570 Cl  0  0  0  0  0  0  0  0  0  0  0  0
  140.6090   78.5820  221.7670 C   0  0  0  0  0  0  0  0  0  0  0  0
  140.3670   77.3050  222.2740 C   0  0  0  0  0  0  0  0  0  0  0  0
  140.8920   76.2000  221.6030 C   0  0  0  0  0  0  0  0  0  0  0  0
  140.6840   74.9380  222.0570 N   0  0  0  0  0  0  0  0  0  0  0  0
  140.1310   73.1980  223.7470 H   0  0  0  0  0  0  0  0  0  0  0  0
  139.0627   70.7479  223.5804 H   0  0  0  0  0  0  0  0  0  0  0  0
  140.7872   70.2906  223.2962 H   0  0  0  0  0  0  0  0  0  0  0  0
  141.6666   70.1270  227.8590 H   0  0  0  0  0  0  0  0  0  0  0  0
  140.7044   71.5710  227.5444 H   0  0  0  0  0  0  0  0  0  0  0  0
  139.3839   70.5397  229.2114 H   0  0  0  0  0  0  0  0  0  0  0  0
  138.6464   69.8088  227.7692 H   0  0  0  0  0  0  0  0  0  0  0  0
  140.2398   68.5492  229.8938 H   0  0  0  0  0  0  0  0  0  0  0  0
  139.2871   67.7677  228.6006 H   0  0  0  0  0  0  0  0  0  0  0  0
  141.9306   69.1167  228.0420 H   0  0  0  0  0  0  0  0  0  0  0  0
  141.7902   67.3839  228.6448 H   0  0  0  0  0  0  0  0  0  0  0  0
  142.1263   67.6344  226.2004 H   0  0  0  0  0  0  0  0  0  0  0  0
  140.6422   66.7190  226.7464 H   0  0  0  0  0  0  0  0  0  0  0  0
  140.5498   68.5743  224.7622 H   0  0  0  0  0  0  0  0  0  0  0  0
  138.8864   66.9430  225.6888 H   0  0  0  0  0  0  0  0  0  0  0  0
  138.3343   68.2463  226.7536 H   0  0  0  0  0  0  0  0  0  0  0  0
  137.0194   69.9938  225.8759 H   0  0  0  0  0  0  0  0  0  0  0  0
  135.8051   71.0990  224.0247 H   0  0  0  0  0  0  0  0  0  0  0  0
  136.2927   70.3638  221.6923 H   0  0  0  0  0  0  0  0  0  0  0  0
  137.9591   68.5732  221.2562 H   0  0  0  0  0  0  0  0  0  0  0  0
  139.1515   67.4922  223.1377 H   0  0  0  0  0  0  0  0  0  0  0  0
  142.3417   73.2156  219.7383 H   0  0  0  0  0  0  0  0  0  0  0  0
  142.7617   75.4867  218.8509 H   0  0  0  0  0  0  0  0  0  0  0  0
  142.4686   77.8265  219.0381 H   0  0  0  0  0  0  0  0  0  0  0  0
  140.1974   79.4563  222.2926 H   0  0  0  0  0  0  0  0  0  0  0  0
  139.7713   77.1713  223.1890 H   0  0  0  0  0  0  0  0  0  0  0  0
  1  2  2  0
  2  3  1  0
  3  4  1  0
  4  5  1  0
  5  6  2  0
  5  7  1  0
  7  8  1  0
  8  9  1  0
  9 10  1  0
 10 11  1  0
 11 12  1  0
 12 13  1  0
 13 14  1  0
 14 15  1  0
 15 16  2  0
 16 17  1  0
 17 18  2  0
 18 19  1  0
 19 20  2  0
  2 21  1  0
 21 22  2  0
 22 23  1  0
 23 24  2  0
 24 25  1  0
 25 26  2  0
 26 27  1  0
 26 28  1  0
 28 29  2  0
 29 30  1  0
 30 31  2  0
 13  7  1  0
 20 15  1  0
 31 21  1  0
 30 24  1  0
  3 32  1  0
  4 33  1  0
  4 34  1  0
  8 35  1  0
  8 36  1  0
  9 37  1  0
  9 38  1  0
 10 39  1  0
 10 40  1  0
 11 41  1  0
 11 42  1  0
 12 43  1  0
 12 44  1  0
 13 45  1  6
 14 46  1  0
 14 47  1  0
 16 48  1  0
 17 49  1  0
 18 50  1  0
 19 51  1  0
 20 52  1  0
 22 53  1  0
 23 54  1  0
 25 55  1  0
 28 56  1  0
 29 57  1  0
M  END
>  <smiles>  (71) 
O=C(NCC(=O)N1CCCCCC1Cc1ccccc1)c1ccc2cc(Cl)ccc2n1

>  <score_type>  (71) 
oracle

>  <origin>  (71) 
autodockgpu

>  <m_score__min__energy>  (71) 
-7.1699999999999999

>  <m_primary>  (71) 
energy

>  <rmsd>  (71) 
9.042737543312404

>  <m_score__min__rmsd>  (71) 
9.042737543312404

>  <meeko>  (71) 
{"free_energy": -5.53, "intermolecular_energy": -9.11, "internal_energy": -2.58, "cluster_size": 1, "cluster_id": 10, "rank_in_cluster": 1}

>  <energy>  (71) 
-6.37

>  <cluster_rmsd>  (71) 
0.0

>  <cluster>  (71) 
3

$$$$

     RDKit          3D

 57 60  0  0  0  0  0  0  0  0999 V2000
  141.9780   73.0910  220.9410 O   0  0  0  0  0  0  0  0  0  0  0  0
  141.1210   73.8030  221.5290 C   0  0  0  0  0  0  0  0  0  0  0  0
  140.0330   73.2860  222.2650 N   0  0  0  0  0  0  0  0  0  0  0  0
  139.8190   71.8420  222.4000 C   0  0  0  0  0  0  0  0  0  0  0  0
  138.4090   71.5450  222.6780 C   0  0  0  0  0  0  0  0  0  0  0  0
  137.5890   72.5030  222.3650 O   0  0  0  0  0  0  0  0  0  0  0  0
  137.8190   70.4140  223.2170 N   0  0  0  0  0  0  0  0  0  0  0  0
  137.0770   69.6520  222.1560 C   0  0  0  0  0  0  0  0  0  0  0  0
  135.6990   70.2590  222.1350 C   0  0  0  0  0  0  0  0  0  0  0  0
  134.8840   69.5310  223.1840 C   0  0  0  0  0  0  0  0  0  0  0  0
  135.3670   69.9640  224.5310 C   0  0  0  0  0  0  0  0  0  0  0  0
  136.6120   69.2860  225.0140 C   0  0  0  0  0  0  0  0  0  0  0  0
  137.8920   69.9840  224.5620 C   0  0  1  0  0  0  0  0  0  0  0  0
  139.0700   69.1710  224.9860 C   0  0  0  0  0  0  0  0  0  0  0  0
  139.8170   70.0160  226.0040 C   0  0  0  0  0  0  0  0  0  0  0  0
  139.6400   69.7800  227.3570 C   0  0  0  0  0  0  0  0  0  0  0  0
  140.2730   70.5100  228.3390 C   0  0  0  0  0  0  0  0  0  0  0  0
  141.1170   71.5160  227.9240 C   0  0  0  0  0  0  0  0  0  0  0  0
  141.3150   71.7770  226.5680 C   0  0  0  0  0  0  0  0  0  0  0  0
  140.6650   71.0270  225.6150 C   0  0  0  0  0  0  0  0  0  0  0  0
  141.2640   75.2700  221.4430 C   0  0  0  0  0  0  0  0  0  0  0  0
  142.0260   75.8540  220.4510 C   0  0  0  0  0  0  0  0  0  0  0  0
  142.1870   77.2210  220.3310 C   0  0  0  0  0  0  0  0  0  0  0  0
  141.5510   78.0250  221.2540 C   0  0  0  0  0  0  0  0  0  0  0  0
  141.7040   79.3910  221.1460 C   0  0  0  0  0  0  0  0  0  0  0  0
  141.0770   80.2100  222.0570 C   0  0  0  0  0  0  0  0  0  0  0  0
  141.2960   81.9420  221.8850 Cl  0  0  0  0  0  0  0  0  0  0  0  0
  140.3060   79.6550  223.0620 C   0  0  0  0  0  0  0  0  0  0  0  0
  140.1470   78.2730  223.1780 C   0  0  0  0  0  0  0  0  0  0  0  0
  140.7810   77.4390  222.2570 C   0  0  0  0  0  0  0  0  0  0  0  0
  140.6550   76.0890  222.3290 N   0  0  0  0  0  0  0  0  0  0  0  0
  139.3670   73.9490  222.7240 H   0  0  0  0  0  0  0  0  0  0  0  0
  140.1139   71.3452  221.4639 H   0  0  0  0  0  0  0  0  0  0  0  0
  140.4277   71.4736  223.2389 H   0  0  0  0  0  0  0  0  0  0  0  0
  137.5676   69.7719  221.1788 H   0  0  0  0  0  0  0  0  0  0  0  0
  137.0506   68.5721  222.3637 H   0  0  0  0  0  0  0  0  0  0  0  0
  135.7538   71.3311  222.3748 H   0  0  0  0  0  0  0  0  0  0  0  0
  135.2397   70.1611  221.1403 H   0  0  0  0  0  0  0  0  0  0  0  0
  133.8195   69.7838  223.0707 H   0  0  0  0  0  0  0  0  0  0  0  0
  135.0000   68.4432  223.0693 H   0  0  0  0  0  0  0  0  0  0  0  0
  135.5634   71.0455  224.4899 H   0  0  0  0  0  0  0  0  0  0  0  0
  134.5746   69.6860  225.2416 H   0  0  0  0  0  0  0  0  0  0  0  0
  136.5947   69.2658  226.1137 H   0  0  0  0  0  0  0  0  0  0  0  0
  136.6216   68.2746  224.5817 H   0  0  0  0  0  0  0  0  0  0  0  0
  138.0315   70.9474  225.0743 H   0  0  0  0  0  0  0  0  0  0  0  0
  138.7384   68.2268  225.4426 H   0  0  0  0  0  0  0  0  0  0  0  0
  139.7101   68.9119  224.1298 H   0  0  0  0  0  0  0  0  0  0  0  0
  138.9610   68.9703  227.6625 H   0  0  0  0  0  0  0  0  0  0  0  0
  140.1116   70.2989  229.4064 H   0  0  0  0  0  0  0  0  0  0  0  0
  141.6438   72.1239  228.6743 H   0  0  0  0  0  0  0  0  0  0  0  0
  141.9936   72.5858  226.2593 H   0  0  0  0  0  0  0  0  0  0  0  0
  140.8228   71.2350  224.5464 H   0  0  0  0  0  0  0  0  0  0  0  0
  142.5283   75.2007  219.7223 H   0  0  0  0  0  0  0  0  0  0  0  0
  142.8011   77.6532  219.5272 H   0  0  0  0  0  0  0  0  0  0  0  0
  142.3194   79.8207  220.3419 H   0  0  0  0  0  0  0  0  0  0  0  0
  139.8073   80.3167  223.7855 H   0  0  0  0  0  0  0  0  0  0  0  0
  139.5307   77.8479  223.9839 H   0  0  0  0  0  0  0  0  0  0  0  0
  1  2  2  0
  2  3  1  0
  3  4  1  0
  4  5  1  0
  5  6  2  0
  5  7  1  0
  7  8  1  0
  8  9  1  0
  9 10  1  0
 10 11  1  0
 11 12  1  0
 12 13  1  0
 13 14  1  0
 14 15  1  0
 15 16  2  0
 16 17  1  0
 17 18  2  0
 18 19  1  0
 19 20  2  0
  2 21  1  0
 21 22  2  0
 22 23  1  0
 23 24  2  0
 24 25  1  0
 25 26  2  0
 26 27  1  0
 26 28  1  0
 28 29  2  0
 29 30  1  0
 30 31  2  0
 13  7  1  0
 20 15  1  0
 31 21  1  0
 30 24  1  0
  3 32  1  0
  4 33  1  0
  4 34  1  0
  8 35  1  0
  8 36  1  0
  9 37  1  0
  9 38  1  0
 10 39  1  0
 10 40  1  0
 11 41  1  0
 11 42  1  0
 12 43  1  0
 12 44  1  0
 13 45  1  1
 14 46  1  0
 14 47  1  0
 16 48  1  0
 17 49  1  0
 18 50  1  0
 19 51  1  0
 20 52  1  0
 22 53  1  0
 23 54  1  0
 25 55  1  0
 28 56  1  0
 29 57  1  0
M  END
>  <smiles>  (72) 
O=C(NCC(=O)N1CCCCCC1Cc1ccccc1)c1ccc2cc(Cl)ccc2n1

>  <score_type>  (72) 
oracle

>  <origin>  (72) 
autodockgpu

>  <m_score__min__energy>  (72) 
-7.1699999999999999

>  <m_primary>  (72) 
energy

>  <rmsd>  (72) 
8.285023659074453

>  <m_score__min__rmsd>  (72) 
8.285023659074453

>  <meeko>  (72) 
{"free_energy": -6.02, "intermolecular_energy": -9.6, "internal_energy": -2.29, "cluster_size": 5, "cluster_id": 4, "rank_in_cluster": 4}

>  <energy>  (72) 
-6.0

>  <cluster_rmsd>  (72) 
1.1

>  <cluster>  (72) 
3

$$$$

     RDKit          3D

 57 60  0  0  0  0  0  0  0  0999 V2000
  138.7580   71.3780  221.0550 O   0  0  0  0  0  0  0  0  0  0  0  0
  139.1610   71.9250  222.1150 C   0  0  0  0  0  0  0  0  0  0  0  0
  139.3910   73.3120  222.2520 N   0  0  0  0  0  0  0  0  0  0  0  0
  139.1710   74.2370  221.1360 C   0  0  0  0  0  0  0  0  0  0  0  0
  140.1570   75.3240  221.1530 C   0  0  0  0  0  0  0  0  0  0  0  0
  140.6390   75.5890  222.3310 O   0  0  0  0  0  0  0  0  0  0  0  0
  140.6520   76.1040  220.1230 N   0  0  0  0  0  0  0  0  0  0  0  0
  139.9320   75.7980  218.8400 C   0  0  0  0  0  0  0  0  0  0  0  0
  140.1440   77.0150  217.9780 C   0  0  0  0  0  0  0  0  0  0  0  0
  141.3880   76.7560  217.1520 C   0  0  0  0  0  0  0  0  0  0  0  0
  142.5540   77.3600  217.8660 C   0  0  0  0  0  0  0  0  0  0  0  0
  142.8140   76.8140  219.2380 C   0  0  0  0  0  0  0  0  0  0  0  0
  141.6720   77.0780  220.2170 C   0  0  1  0  0  0  0  0  0  0  0  0
  141.2890   78.5190  220.1470 C   0  0  0  0  0  0  0  0  0  0  0  0
  141.6380   79.1110  221.5020 C   0  0  0  0  0  0  0  0  0  0  0  0
  141.4110   78.3760  222.6540 C   0  0  0  0  0  0  0  0  0  0  0  0
  141.6910   78.8490  223.9170 C   0  0  0  0  0  0  0  0  0  0  0  0
  142.2210   80.1160  224.0080 C   0  0  0  0  0  0  0  0  0  0  0  0
  142.4620   80.8800  222.8650 C   0  0  0  0  0  0  0  0  0  0  0  0
  142.1700   80.3750  221.6190 C   0  0  0  0  0  0  0  0  0  0  0  0
  139.4070   71.0640  223.2880 C   0  0  0  0  0  0  0  0  0  0  0  0
  139.0630   69.7270  223.2760 C   0  0  0  0  0  0  0  0  0  0  0  0
  139.2750   68.8840  224.3490 C   0  0  0  0  0  0  0  0  0  0  0  0
  139.8590   69.4180  225.4780 C   0  0  0  0  0  0  0  0  0  0  0  0
  140.0760   68.5870  226.5570 C   0  0  0  0  0  0  0  0  0  0  0  0
  140.6580   69.1010  227.6930 C   0  0  0  0  0  0  0  0  0  0  0  0
  140.9180   68.0120  229.0440 Cl  0  0  0  0  0  0  0  0  0  0  0  0
  141.0160   70.4370  227.7370 C   0  0  0  0  0  0  0  0  0  0  0  0
  140.7990   71.2840  226.6490 C   0  0  0  0  0  0  0  0  0  0  0  0
  140.2090   70.7670  225.4950 C   0  0  0  0  0  0  0  0  0  0  0  0
  139.9780   71.5520  224.4120 N   0  0  0  0  0  0  0  0  0  0  0  0
  139.7260   73.6850  223.1690 H   0  0  0  0  0  0  0  0  0  0  0  0
  139.2597   73.6854  220.1885 H   0  0  0  0  0  0  0  0  0  0  0  0
  138.1660   74.6732  221.2347 H   0  0  0  0  0  0  0  0  0  0  0  0
  140.3584   74.9047  218.3603 H   0  0  0  0  0  0  0  0  0  0  0  0
  138.8650   75.5868  219.0037 H   0  0  0  0  0  0  0  0  0  0  0  0
  139.2768   77.1677  217.3187 H   0  0  0  0  0  0  0  0  0  0  0  0
  140.2605   77.9190  218.5937 H   0  0  0  0  0  0  0  0  0  0  0  0
  141.5410   75.6727  217.0382 H   0  0  0  0  0  0  0  0  0  0  0  0
  141.2810   77.2018  216.1521 H   0  0  0  0  0  0  0  0  0  0  0  0
  143.4529   77.1889  217.2555 H   0  0  0  0  0  0  0  0  0  0  0  0
  142.3115   78.4243  218.0015 H   0  0  0  0  0  0  0  0  0  0  0  0
  142.9627   75.7269  219.1593 H   0  0  0  0  0  0  0  0  0  0  0  0
  143.7054   77.3257  219.6299 H   0  0  0  0  0  0  0  0  0  0  0  0
  141.9906   76.9350  221.2601 H   0  0  0  0  0  0  0  0  0  0  0  0
  141.8539   79.0265  219.3512 H   0  0  0  0  0  0  0  0  0  0  0  0
  140.2203   78.6413  219.9169 H   0  0  0  0  0  0  0  0  0  0  0  0
  140.9867   77.3659  222.5554 H   0  0  0  0  0  0  0  0  0  0  0  0
  141.4995   78.2409  224.8134 H   0  0  0  0  0  0  0  0  0  0  0  0
  142.4585   80.5333  224.9977 H   0  0  0  0  0  0  0  0  0  0  0  0
  142.8872   81.8900  222.9608 H   0  0  0  0  0  0  0  0  0  0  0  0
  142.3610   80.9791  220.7198 H   0  0  0  0  0  0  0  0  0  0  0  0
  138.5981   69.3137  222.3688 H   0  0  0  0  0  0  0  0  0  0  0  0
  138.9878   67.8231  224.3045 H   0  0  0  0  0  0  0  0  0  0  0  0
  139.7874   67.5266  226.5101 H   0  0  0  0  0  0  0  0  0  0  0  0
  141.4814   70.8400  228.6486 H   0  0  0  0  0  0  0  0  0  0  0  0
  141.0889   72.3439  226.7005 H   0  0  0  0  0  0  0  0  0  0  0  0
  1  2  2  0
  2  3  1  0
  3  4  1  0
  4  5  1  0
  5  6  2  0
  5  7  1  0
  7  8  1  0
  8  9  1  0
  9 10  1  0
 10 11  1  0
 11 12  1  0
 12 13  1  0
 13 14  1  0
 14 15  1  0
 15 16  2  0
 16 17  1  0
 17 18  2  0
 18 19  1  0
 19 20  2  0
  2 21  1  0
 21 22  2  0
 22 23  1  0
 23 24  2  0
 24 25  1  0
 25 26  2  0
 26 27  1  0
 26 28  1  0
 28 29  2  0
 29 30  1  0
 30 31  2  0
 13  7  1  0
 20 15  1  0
 31 21  1  0
 30 24  1  0
  3 32  1  0
  4 33  1  0
  4 34  1  0
  8 35  1  0
  8 36  1  0
  9 37  1  0
  9 38  1  0
 10 39  1  0
 10 40  1  0
 11 41  1  0
 11 42  1  0
 12 43  1  0
 12 44  1  0
 13 45  1  1
 14 46  1  0
 14 47  1  0
 16 48  1  0
 17 49  1  0
 18 50  1  0
 19 51  1  0
 20 52  1  0
 22 53  1  0
 23 54  1  0
 25 55  1  0
 28 56  1  0
 29 57  1  0
M  END
>  <smiles>  (73) 
O=C(NCC(=O)N1CCCCCC1Cc1ccccc1)c1ccc2cc(Cl)ccc2n1

>  <score_type>  (73) 
oracle

>  <origin>  (73) 
autodockgpu

>  <m_score__min__energy>  (73) 
-7.1699999999999999

>  <m_primary>  (73) 
energy

>  <rmsd>  (73) 
1.1680741253162472

>  <m_score__min__rmsd>  (73) 
1.1680741253162472

>  <meeko>  (73) 
{"free_energy": -6.94, "intermolecular_energy": -10.52, "internal_energy": -2.08, "cluster_size": 19, "cluster_id": 1, "rank_in_cluster": 3}

>  <energy>  (73) 
-5.98

>  <cluster_rmsd>  (73) 
0.91

>  <cluster>  (73) 
3

$$$$

     RDKit          3D

 57 60  0  0  0  0  0  0  0  0999 V2000
  140.0700   72.3660  220.6570 O   0  0  0  0  0  0  0  0  0  0  0  0
  139.9270   72.8300  221.8190 C   0  0  0  0  0  0  0  0  0  0  0  0
  139.7030   74.1950  222.1040 N   0  0  0  0  0  0  0  0  0  0  0  0
  139.6180   75.1940  221.0350 C   0  0  0  0  0  0  0  0  0  0  0  0
  139.9340   76.5340  221.5440 C   0  0  0  0  0  0  0  0  0  0  0  0
  140.3480   76.5540  222.7760 O   0  0  0  0  0  0  0  0  0  0  0  0
  139.8630   77.7700  220.9250 N   0  0  0  0  0  0  0  0  0  0  0  0
  138.9930   78.7050  221.7160 C   0  0  0  0  0  0  0  0  0  0  0  0
  137.5910   78.4220  221.2450 C   0  0  0  0  0  0  0  0  0  0  0  0
  137.3770   79.2410  219.9880 C   0  0  0  0  0  0  0  0  0  0  0  0
  138.1780   78.6220  218.8880 C   0  0  0  0  0  0  0  0  0  0  0  0
  139.6250   79.0220  218.8430 C   0  0  0  0  0  0  0  0  0  0  0  0
  140.5130   78.1540  219.7300 C   0  0  1  0  0  0  0  0  0  0  0  0
  141.8680   78.7720  219.8240 C   0  0  0  0  0  0  0  0  0  0  0  0
  141.8550   79.6220  221.0830 C   0  0  0  0  0  0  0  0  0  0  0  0
  142.2770   79.0790  222.2850 C   0  0  0  0  0  0  0  0  0  0  0  0
  142.2840   79.7820  223.4690 C   0  0  0  0  0  0  0  0  0  0  0  0
  141.8430   81.0860  223.4250 C   0  0  0  0  0  0  0  0  0  0  0  0
  141.4120   81.6610  222.2290 C   0  0  0  0  0  0  0  0  0  0  0  0
  141.4190   80.9270  221.0650 C   0  0  0  0  0  0  0  0  0  0  0  0
  139.9990   71.8880  222.9540 C   0  0  0  0  0  0  0  0  0  0  0  0
  139.5540   70.5880  222.8300 C   0  0  0  0  0  0  0  0  0  0  0  0
  139.6030   69.6730  223.8640 C   0  0  0  0  0  0  0  0  0  0  0  0
  140.1220   70.0950  225.0700 C   0  0  0  0  0  0  0  0  0  0  0  0
  140.1750   69.1920  226.1110 C   0  0  0  0  0  0  0  0  0  0  0  0
  140.6900   69.5940  227.3210 C   0  0  0  0  0  0  0  0  0  0  0  0
  140.7420   68.4150  228.6200 Cl  0  0  0  0  0  0  0  0  0  0  0  0
  141.1450   70.8910  227.4770 C   0  0  0  0  0  0  0  0  0  0  0  0
  141.0940   71.8110  226.4300 C   0  0  0  0  0  0  0  0  0  0  0  0
  140.5720   71.4080  225.1990 C   0  0  0  0  0  0  0  0  0  0  0  0
  140.5020   72.2660  224.1500 N   0  0  0  0  0  0  0  0  0  0  0  0
  139.5940   74.4960  223.0990 H   0  0  0  0  0  0  0  0  0  0  0  0
  140.3324   74.9329  220.2404 H   0  0  0  0  0  0  0  0  0  0  0  0
  138.5909   75.2008  220.6412 H   0  0  0  0  0  0  0  0  0  0  0  0
  139.0874   78.5033  222.7932 H   0  0  0  0  0  0  0  0  0  0  0  0
  139.2749   79.7579  221.5677 H   0  0  0  0  0  0  0  0  0  0  0  0
  137.4751   77.3508  221.0232 H   0  0  0  0  0  0  0  0  0  0  0  0
  136.8543   78.6861  222.0180 H   0  0  0  0  0  0  0  0  0  0  0  0
  136.3104   79.2392  219.7190 H   0  0  0  0  0  0  0  0  0  0  0  0
  137.6953   80.2811  220.1522 H   0  0  0  0  0  0  0  0  0  0  0  0
  138.1312   77.5295  219.0071 H   0  0  0  0  0  0  0  0  0  0  0  0
  137.7337   78.9829  217.9486 H   0  0  0  0  0  0  0  0  0  0  0  0
  139.9791   78.9392  217.8049 H   0  0  0  0  0  0  0  0  0  0  0  0
  139.6925   80.0533  219.2197 H   0  0  0  0  0  0  0  0  0  0  0  0
  140.6982   77.1689  219.2769 H   0  0  0  0  0  0  0  0  0  0  0  0
  142.6396   77.9915  219.8979 H   0  0  0  0  0  0  0  0  0  0  0  0
  142.0980   79.3752  218.9334 H   0  0  0  0  0  0  0  0  0  0  0  0
  142.6235   78.0351  222.2944 H   0  0  0  0  0  0  0  0  0  0  0  0
  142.6265   79.3226  224.4080 H   0  0  0  0  0  0  0  0  0  0  0  0
  141.8304   81.6841  224.3481 H   0  0  0  0  0  0  0  0  0  0  0  0
  141.0653   82.7049  222.2165 H   0  0  0  0  0  0  0  0  0  0  0  0
  141.0773   81.3819  220.1236 H   0  0  0  0  0  0  0  0  0  0  0  0
  139.1410   70.2650  221.8630 H   0  0  0  0  0  0  0  0  0  0  0  0
  139.2405   68.6432  223.7299 H   0  0  0  0  0  0  0  0  0  0  0  0
  139.8100   68.1633  225.9751 H   0  0  0  0  0  0  0  0  0  0  0  0
  141.5561   71.2036  228.4482 H   0  0  0  0  0  0  0  0  0  0  0  0
  141.4595   72.8388  226.5717 H   0  0  0  0  0  0  0  0  0  0  0  0
  1  2  2  0
  2  3  1  0
  3  4  1  0
  4  5  1  0
  5  6  2  0
  5  7  1  0
  7  8  1  0
  8  9  1  0
  9 10  1  0
 10 11  1  0
 11 12  1  0
 12 13  1  0
 13 14  1  0
 14 15  1  0
 15 16  2  0
 16 17  1  0
 17 18  2  0
 18 19  1  0
 19 20  2  0
  2 21  1  0
 21 22  2  0
 22 23  1  0
 23 24  2  0
 24 25  1  0
 25 26  2  0
 26 27  1  0
 26 28  1  0
 28 29  2  0
 29 30  1  0
 30 31  2  0
 13  7  1  0
 20 15  1  0
 31 21  1  0
 30 24  1  0
  3 32  1  0
  4 33  1  0
  4 34  1  0
  8 35  1  0
  8 36  1  0
  9 37  1  0
  9 38  1  0
 10 39  1  0
 10 40  1  0
 11 41  1  0
 11 42  1  0
 12 43  1  0
 12 44  1  0
 13 45  1  6
 14 46  1  0
 14 47  1  0
 16 48  1  0
 17 49  1  0
 18 50  1  0
 19 51  1  0
 20 52  1  0
 22 53  1  0
 23 54  1  0
 25 55  1  0
 28 56  1  0
 29 57  1  0
M  END
>  <smiles>  (74) 
O=C(NCC(=O)N1CCCCCC1Cc1ccccc1)c1ccc2cc(Cl)ccc2n1

>  <score_type>  (74) 
oracle

>  <origin>  (74) 
autodockgpu

>  <m_score__min__energy>  (74) 
-7.1699999999999999

>  <m_primary>  (74) 
energy

>  <rmsd>  (74) 
2.764081552709317

>  <m_score__min__rmsd>  (74) 
2.764081552709317

>  <meeko>  (74) 
{"free_energy": -5.83, "intermolecular_energy": -9.41, "internal_energy": -2.5, "cluster_size": 19, "cluster_id": 1, "rank_in_cluster": 17}

>  <energy>  (74) 
-5.94

>  <cluster_rmsd>  (74) 
0.68

>  <cluster>  (74) 
3

$$$$

     RDKit          3D

 57 60  0  0  0  0  0  0  0  0999 V2000
  139.1660   71.6370  221.0170 O   0  0  0  0  0  0  0  0  0  0  0  0
  139.3820   72.1900  222.1270 C   0  0  0  0  0  0  0  0  0  0  0  0
  139.4030   73.5890  222.3230 N   0  0  0  0  0  0  0  0  0  0  0  0
  139.1680   74.5200  221.2160 C   0  0  0  0  0  0  0  0  0  0  0  0
  140.1720   75.5910  221.2090 C   0  0  0  0  0  0  0  0  0  0  0  0
  140.3150   76.1950  222.3510 O   0  0  0  0  0  0  0  0  0  0  0  0
  140.9830   76.0550  220.1880 N   0  0  0  0  0  0  0  0  0  0  0  0
  141.4270   74.9190  219.3120 C   0  0  0  0  0  0  0  0  0  0  0  0
  142.9310   74.9400  219.3820 C   0  0  0  0  0  0  0  0  0  0  0  0
  143.4170   75.6530  218.1370 C   0  0  0  0  0  0  0  0  0  0  0  0
  143.2820   77.1240  218.3610 C   0  0  0  0  0  0  0  0  0  0  0  0
  141.8750   77.6090  218.5310 C   0  0  0  0  0  0  0  0  0  0  0  0
  141.3540   77.3980  219.9490 C   0  0  1  0  0  0  0  0  0  0  0  0
  140.3750   78.4760  220.2780 C   0  0  0  0  0  0  0  0  0  0  0  0
  140.9230   79.1800  221.5080 C   0  0  0  0  0  0  0  0  0  0  0  0
  140.1250   79.3270  222.6300 C   0  0  0  0  0  0  0  0  0  0  0  0
  140.5480   79.9610  223.7780 C   0  0  0  0  0  0  0  0  0  0  0  0
  141.8300   80.4630  223.7790 C   0  0  0  0  0  0  0  0  0  0  0  0
  142.6570   80.3300  222.6640 C   0  0  0  0  0  0  0  0  0  0  0  0
  142.2010   79.6900  221.5340 C   0  0  0  0  0  0  0  0  0  0  0  0
  139.6290   71.3230  223.2960 C   0  0  0  0  0  0  0  0  0  0  0  0
  139.3340   69.9750  223.2580 C   0  0  0  0  0  0  0  0  0  0  0  0
  139.5490   69.1270  224.3260 C   0  0  0  0  0  0  0  0  0  0  0  0
  140.0810   69.6670  225.4780 C   0  0  0  0  0  0  0  0  0  0  0  0
  140.3000   68.8310  226.5530 C   0  0  0  0  0  0  0  0  0  0  0  0
  140.8310   69.3510  227.7100 C   0  0  0  0  0  0  0  0  0  0  0  0
  141.0950   68.2550  229.0540 Cl  0  0  0  0  0  0  0  0  0  0  0  0
  141.1370   70.6990  227.7800 C   0  0  0  0  0  0  0  0  0  0  0  0
  140.9190   71.5510  226.6970 C   0  0  0  0  0  0  0  0  0  0  0  0
  140.3800   71.0280  225.5210 C   0  0  0  0  0  0  0  0  0  0  0  0
  140.1500   71.8180  224.4410 N   0  0  0  0  0  0  0  0  0  0  0  0
  139.5900   73.9660  223.2800 H   0  0  0  0  0  0  0  0  0  0  0  0
  139.2221   73.9696  220.2651 H   0  0  0  0  0  0  0  0  0  0  0  0
  138.1733   74.9721  221.3427 H   0  0  0  0  0  0  0  0  0  0  0  0
  141.0354   73.9631  219.6899 H   0  0  0  0  0  0  0  0  0  0  0  0
  141.0592   75.0235  218.2806 H   0  0  0  0  0  0  0  0  0  0  0  0
  143.2607   75.4809  220.2813 H   0  0  0  0  0  0  0  0  0  0  0  0
  143.3379   73.9195  219.4367 H   0  0  0  0  0  0  0  0  0  0  0  0
  144.4710   75.3997  217.9499 H   0  0  0  0  0  0  0  0  0  0  0  0
  142.8220   75.3445  217.2648 H   0  0  0  0  0  0  0  0  0  0  0  0
  143.8454   77.3846  219.2691 H   0  0  0  0  0  0  0  0  0  0  0  0
  143.6690   77.6112  217.4539 H   0  0  0  0  0  0  0  0  0  0  0  0
  141.8414   78.6837  218.2987 H   0  0  0  0  0  0  0  0  0  0  0  0
  141.2358   77.0288  217.8493 H   0  0  0  0  0  0  0  0  0  0  0  0
  142.1517   77.5220  220.6962 H   0  0  0  0  0  0  0  0  0  0  0  0
  140.2892   79.1830  219.4397 H   0  0  0  0  0  0  0  0  0  0  0  0
  139.3714   78.0654  220.4630 H   0  0  0  0  0  0  0  0  0  0  0  0
  139.1042   78.9180  222.6036 H   0  0  0  0  0  0  0  0  0  0  0  0
  139.8908   80.0615  224.6544 H   0  0  0  0  0  0  0  0  0  0  0  0
  142.2084   80.9777  224.6745 H   0  0  0  0  0  0  0  0  0  0  0  0
  143.6781   80.7383  222.6877 H   0  0  0  0  0  0  0  0  0  0  0  0
  142.8551   79.5866  220.6557 H   0  0  0  0  0  0  0  0  0  0  0  0
  138.9079   69.5572  222.3340 H   0  0  0  0  0  0  0  0  0  0  0  0
  139.3042   68.0566  224.2603 H   0  0  0  0  0  0  0  0  0  0  0  0
  140.0529   67.7612  226.4856 H   0  0  0  0  0  0  0  0  0  0  0  0
  141.5611   71.1072  228.7093 H   0  0  0  0  0  0  0  0  0  0  0  0
  141.1685   72.6199  226.7691 H   0  0  0  0  0  0  0  0  0  0  0  0
  1  2  2  0
  2  3  1  0
  3  4  1  0
  4  5  1  0
  5  6  2  0
  5  7  1  0
  7  8  1  0
  8  9  1  0
  9 10  1  0
 10 11  1  0
 11 12  1  0
 12 13  1  0
 13 14  1  0
 14 15  1  0
 15 16  2  0
 16 17  1  0
 17 18  2  0
 18 19  1  0
 19 20  2  0
  2 21  1  0
 21 22  2  0
 22 23  1  0
 23 24  2  0
 24 25  1  0
 25 26  2  0
 26 27  1  0
 26 28  1  0
 28 29  2  0
 29 30  1  0
 30 31  2  0
 13  7  1  0
 20 15  1  0
 31 21  1  0
 30 24  1  0
  3 32  1  0
  4 33  1  0
  4 34  1  0
  8 35  1  0
  8 36  1  0
  9 37  1  0
  9 38  1  0
 10 39  1  0
 10 40  1  0
 11 41  1  0
 11 42  1  0
 12 43  1  0
 12 44  1  0
 13 45  1  1
 14 46  1  0
 14 47  1  0
 16 48  1  0
 17 49  1  0
 18 50  1  0
 19 51  1  0
 20 52  1  0
 22 53  1  0
 23 54  1  0
 25 55  1  0
 28 56  1  0
 29 57  1  0
M  END
>  <smiles>  (75) 
O=C(NCC(=O)N1CCCCCC1Cc1ccccc1)c1ccc2cc(Cl)ccc2n1

>  <score_type>  (75) 
oracle

>  <origin>  (75) 
autodockgpu

>  <m_score__min__energy>  (75) 
-7.1699999999999999

>  <m_primary>  (75) 
energy

>  <rmsd>  (75) 
1.7116569537294732

>  <m_score__min__rmsd>  (75) 
1.7116569537294732

>  <meeko>  (75) 
{"free_energy": -5.54, "intermolecular_energy": -9.12, "internal_energy": -2.16, "cluster_size": 19, "cluster_id": 1, "rank_in_cluster": 19}

>  <energy>  (75) 
-5.88

>  <cluster_rmsd>  (75) 
1.07

>  <cluster>  (75) 
3

$$$$

     RDKit          3D

 57 60  0  0  0  0  0  0  0  0999 V2000
  139.0440   71.8450  220.7360 O   0  0  0  0  0  0  0  0  0  0  0  0
  139.1650   72.3740  221.8720 C   0  0  0  0  0  0  0  0  0  0  0  0
  139.0660   73.7630  222.1130 N   0  0  0  0  0  0  0  0  0  0  0  0
  138.8090   74.7100  221.0250 C   0  0  0  0  0  0  0  0  0  0  0  0
  139.7360   74.4910  219.9080 C   0  0  0  0  0  0  0  0  0  0  0  0
  139.1560   74.1930  218.7830 O   0  0  0  0  0  0  0  0  0  0  0  0
  141.1180   74.5500  219.8630 N   0  0  0  0  0  0  0  0  0  0  0  0
  141.6930   73.1960  219.5610 C   0  0  0  0  0  0  0  0  0  0  0  0
  142.5290   72.8530  220.7650 C   0  0  0  0  0  0  0  0  0  0  0  0
  143.9660   73.1710  220.4070 C   0  0  0  0  0  0  0  0  0  0  0  0
  144.1620   74.6470  220.5390 C   0  0  0  0  0  0  0  0  0  0  0  0
  143.3580   75.4810  219.5880 C   0  0  0  0  0  0  0  0  0  0  0  0
  141.9190   75.7010  220.0480 C   0  0  1  0  0  0  0  0  0  0  0  0
  141.4260   77.0050  219.5150 C   0  0  0  0  0  0  0  0  0  0  0  0
  140.9120   77.7810  220.7160 C   0  0  0  0  0  0  0  0  0  0  0  0
  141.3780   77.4770  221.9840 C   0  0  0  0  0  0  0  0  0  0  0  0
  140.9520   78.1270  223.1200 C   0  0  0  0  0  0  0  0  0  0  0  0
  140.0160   79.1240  222.9570 C   0  0  0  0  0  0  0  0  0  0  0  0
  139.5270   79.4530  221.6920 C   0  0  0  0  0  0  0  0  0  0  0  0
  139.9770   78.7810  220.5780 C   0  0  0  0  0  0  0  0  0  0  0  0
  139.4250   71.4890  223.0240 C   0  0  0  0  0  0  0  0  0  0  0  0
  139.0740   70.1540  222.9910 C   0  0  0  0  0  0  0  0  0  0  0  0
  139.2990   69.2900  224.0430 C   0  0  0  0  0  0  0  0  0  0  0  0
  139.9030   69.7980  225.1740 C   0  0  0  0  0  0  0  0  0  0  0  0
  140.1330   68.9460  226.2330 C   0  0  0  0  0  0  0  0  0  0  0  0
  140.7340   69.4350  227.3700 C   0  0  0  0  0  0  0  0  0  0  0  0
  141.0100   68.3180  228.6950 Cl  0  0  0  0  0  0  0  0  0  0  0  0
  141.0990   70.7680  227.4340 C   0  0  0  0  0  0  0  0  0  0  0  0
  140.8690   71.6370  226.3670 C   0  0  0  0  0  0  0  0  0  0  0  0
  140.2590   71.1460  225.2120 C   0  0  0  0  0  0  0  0  0  0  0  0
  140.0150   71.9530  224.1480 N   0  0  0  0  0  0  0  0  0  0  0  0
  139.1780   74.1190  223.0890 H   0  0  0  0  0  0  0  0  0  0  0  0
  137.7772   74.5764  220.6678 H   0  0  0  0  0  0  0  0  0  0  0  0
  138.9550   75.7312  221.4070 H   0  0  0  0  0  0  0  0  0  0  0  0
  140.8903   72.4565  219.4238 H   0  0  0  0  0  0  0  0  0  0  0  0
  142.2833   73.1944  218.6328 H   0  0  0  0  0  0  0  0  0  0  0  0
  142.2123   73.4549  221.6295 H   0  0  0  0  0  0  0  0  0  0  0  0
  142.4155   71.7926  221.0344 H   0  0  0  0  0  0  0  0  0  0  0  0
  144.6463   72.6420  221.0906 H   0  0  0  0  0  0  0  0  0  0  0  0
  144.1826   72.8484  219.3779 H   0  0  0  0  0  0  0  0  0  0  0  0
  143.8869   74.9373  221.5637 H   0  0  0  0  0  0  0  0  0  0  0  0
  145.2181   74.8393  220.2988 H   0  0  0  0  0  0  0  0  0  0  0  0
  143.8457   76.4616  219.4850 H   0  0  0  0  0  0  0  0  0  0  0  0
  143.3158   74.9375  218.6326 H   0  0  0  0  0  0  0  0  0  0  0  0
  141.8554   75.8174  221.1400 H   0  0  0  0  0  0  0  0  0  0  0  0
  142.2458   77.5534  219.0280 H   0  0  0  0  0  0  0  0  0  0  0  0
  140.6378   76.8601  218.7615 H   0  0  0  0  0  0  0  0  0  0  0  0
  142.1254   76.6767  222.0885 H   0  0  0  0  0  0  0  0  0  0  0  0
  141.3418   77.8619  224.1139 H   0  0  0  0  0  0  0  0  0  0  0  0
  139.6479   79.6699  223.8382 H   0  0  0  0  0  0  0  0  0  0  0  0
  138.7790   80.2524  221.5846 H   0  0  0  0  0  0  0  0  0  0  0  0
  139.5908   79.0424  219.5818 H   0  0  0  0  0  0  0  0  0  0  0  0
  138.5925   69.7608  222.0835 H   0  0  0  0  0  0  0  0  0  0  0  0
  139.0064   68.2314  223.9816 H   0  0  0  0  0  0  0  0  0  0  0  0
  139.8395   67.8878  226.1698 H   0  0  0  0  0  0  0  0  0  0  0  0
  141.5809   71.1509  228.3457 H   0  0  0  0  0  0  0  0  0  0  0  0
  141.1644   72.6944  226.4353 H   0  0  0  0  0  0  0  0  0  0  0  0
  1  2  2  0
  2  3  1  0
  3  4  1  0
  4  5  1  0
  5  6  2  0
  5  7  1  0
  7  8  1  0
  8  9  1  0
  9 10  1  0
 10 11  1  0
 11 12  1  0
 12 13  1  0
 13 14  1  0
 14 15  1  0
 15 16  2  0
 16 17  1  0
 17 18  2  0
 18 19  1  0
 19 20  2  0
  2 21  1  0
 21 22  2  0
 22 23  1  0
 23 24  2  0
 24 25  1  0
 25 26  2  0
 26 27  1  0
 26 28  1  0
 28 29  2  0
 29 30  1  0
 30 31  2  0
 13  7  1  0
 20 15  1  0
 31 21  1  0
 30 24  1  0
  3 32  1  0
  4 33  1  0
  4 34  1  0
  8 35  1  0
  8 36  1  0
  9 37  1  0
  9 38  1  0
 10 39  1  0
 10 40  1  0
 11 41  1  0
 11 42  1  0
 12 43  1  0
 12 44  1  0
 13 45  1  1
 14 46  1  0
 14 47  1  0
 16 48  1  0
 17 49  1  0
 18 50  1  0
 19 51  1  0
 20 52  1  0
 22 53  1  0
 23 54  1  0
 25 55  1  0
 28 56  1  0
 29 57  1  0
M  END
>  <smiles>  (76) 
O=C(NCC(=O)N1CCCCCC1Cc1ccccc1)c1ccc2cc(Cl)ccc2n1

>  <score_type>  (76) 
oracle

>  <origin>  (76) 
autodockgpu

>  <m_score__min__energy>  (76) 
-7.1699999999999999

>  <m_primary>  (76) 
energy

>  <rmsd>  (76) 
2.207918381970896

>  <m_score__min__rmsd>  (76) 
2.207918381970896

>  <meeko>  (76) 
{"free_energy": -5.88, "intermolecular_energy": -9.46, "internal_energy": -2.35, "cluster_size": 5, "cluster_id": 3, "rank_in_cluster": 5}

>  <energy>  (76) 
-6.28

>  <cluster_rmsd>  (76) 
0.0

>  <cluster>  (76) 
4

$$$$

     RDKit          3D

 57 60  0  0  0  0  0  0  0  0999 V2000
  136.5400   77.8950  222.7310 O   0  0  0  0  0  0  0  0  0  0  0  0
  136.7240   76.6980  223.0780 C   0  0  0  0  0  0  0  0  0  0  0  0
  137.8370   75.9230  222.6840 N   0  0  0  0  0  0  0  0  0  0  0  0
  138.8850   76.4740  221.8200 C   0  0  0  0  0  0  0  0  0  0  0  0
  139.9710   75.5050  221.6290 C   0  0  0  0  0  0  0  0  0  0  0  0
  139.8910   74.4560  222.3930 O   0  0  0  0  0  0  0  0  0  0  0  0
  141.0560   75.5300  220.7720 N   0  0  0  0  0  0  0  0  0  0  0  0
  141.1410   74.2490  219.9920 C   0  0  0  0  0  0  0  0  0  0  0  0
  142.2680   73.4810  220.6290 C   0  0  0  0  0  0  0  0  0  0  0  0
  143.5080   73.7560  219.8040 C   0  0  0  0  0  0  0  0  0  0  0  0
  143.9760   75.1410  220.1160 C   0  0  0  0  0  0  0  0  0  0  0  0
  143.0890   76.2420  219.6220 C   0  0  0  0  0  0  0  0  0  0  0  0
  141.9730   76.5940  220.6020 C   0  0  1  0  0  0  0  0  0  0  0  0
  141.4390   77.9480  220.2720 C   0  0  0  0  0  0  0  0  0  0  0  0
  141.6960   78.8100  221.4960 C   0  0  0  0  0  0  0  0  0  0  0  0
  141.4530   78.2990  222.7610 C   0  0  0  0  0  0  0  0  0  0  0  0
  141.6520   79.0220  223.9160 C   0  0  0  0  0  0  0  0  0  0  0  0
  142.1160   80.3110  223.7760 C   0  0  0  0  0  0  0  0  0  0  0  0
  142.3690   80.8530  222.5160 C   0  0  0  0  0  0  0  0  0  0  0  0
  142.1590   80.1000  221.3830 C   0  0  0  0  0  0  0  0  0  0  0  0
  135.7130   76.0660  223.9480 C   0  0  0  0  0  0  0  0  0  0  0  0
  134.7460   76.8210  224.5810 C   0  0  0  0  0  0  0  0  0  0  0  0
  133.7810   76.2730  225.4030 C   0  0  0  0  0  0  0  0  0  0  0  0
  133.7990   74.9080  225.5920 C   0  0  0  0  0  0  0  0  0  0  0  0
  132.8410   74.3480  226.4110 C   0  0  0  0  0  0  0  0  0  0  0  0
  132.8430   72.9870  226.6110 C   0  0  0  0  0  0  0  0  0  0  0  0
  131.6080   72.3120  227.6590 Cl  0  0  0  0  0  0  0  0  0  0  0  0
  133.7990   72.2020  225.9910 C   0  0  0  0  0  0  0  0  0  0  0  0
  134.7710   72.7610  225.1600 C   0  0  0  0  0  0  0  0  0  0  0  0
  134.7740   74.1410  224.9540 C   0  0  0  0  0  0  0  0  0  0  0  0
  135.7000   74.7310  224.1560 N   0  0  0  0  0  0  0  0  0  0  0  0
  137.9130   74.9350  223.0170 H   0  0  0  0  0  0  0  0  0  0  0  0
  138.4498   76.7245  220.8413 H   0  0  0  0  0  0  0  0  0  0  0  0
  139.2978   77.3740  222.2992 H   0  0  0  0  0  0  0  0  0  0  0  0
  140.1985   73.6868  220.0674 H   0  0  0  0  0  0  0  0  0  0  0  0
  141.3155   74.4276  218.9207 H   0  0  0  0  0  0  0  0  0  0  0  0
  142.4194   73.8202  221.6644 H   0  0  0  0  0  0  0  0  0  0  0  0
  142.0445   72.4043  220.6577 H   0  0  0  0  0  0  0  0  0  0  0  0
  144.2943   73.0304  220.0595 H   0  0  0  0  0  0  0  0  0  0  0  0
  143.2805   73.6632  218.7318 H   0  0  0  0  0  0  0  0  0  0  0  0
  144.0571   75.2343  221.2090 H   0  0  0  0  0  0  0  0  0  0  0  0
  144.9349   75.2638  219.5912 H   0  0  0  0  0  0  0  0  0  0  0  0
  143.7037   77.1386  219.4540 H   0  0  0  0  0  0  0  0  0  0  0  0
  142.6136   75.8903  218.6945 H   0  0  0  0  0  0  0  0  0  0  0  0
  142.3528   76.6982  221.6291 H   0  0  0  0  0  0  0  0  0  0  0  0
  141.9612   78.3618  219.3968 H   0  0  0  0  0  0  0  0  0  0  0  0
  140.3679   77.9090  220.0247 H   0  0  0  0  0  0  0  0  0  0  0  0
  141.0835   77.2665  222.8466 H   0  0  0  0  0  0  0  0  0  0  0  0
  141.4493   78.5890  224.9067 H   0  0  0  0  0  0  0  0  0  0  0  0
  142.2900   80.9235  224.6730 H   0  0  0  0  0  0  0  0  0  0  0  0
  142.7376   81.8856  222.4274 H   0  0  0  0  0  0  0  0  0  0  0  0
  142.3609   80.5288  220.3903 H   0  0  0  0  0  0  0  0  0  0  0  0
  134.7440   77.9096  224.4233 H   0  0  0  0  0  0  0  0  0  0  0  0
  133.0237   76.9046  225.8904 H   0  0  0  0  0  0  0  0  0  0  0  0
  132.0851   74.9815  226.8980 H   0  0  0  0  0  0  0  0  0  0  0  0
  133.7928   71.1145  226.1565 H   0  0  0  0  0  0  0  0  0  0  0  0
  135.5239   72.1228  224.6744 H   0  0  0  0  0  0  0  0  0  0  0  0
  1  2  2  0
  2  3  1  0
  3  4  1  0
  4  5  1  0
  5  6  2  0
  5  7  1  0
  7  8  1  0
  8  9  1  0
  9 10  1  0
 10 11  1  0
 11 12  1  0
 12 13  1  0
 13 14  1  0
 14 15  1  0
 15 16  2  0
 16 17  1  0
 17 18  2  0
 18 19  1  0
 19 20  2  0
  2 21  1  0
 21 22  2  0
 22 23  1  0
 23 24  2  0
 24 25  1  0
 25 26  2  0
 26 27  1  0
 26 28  1  0
 28 29  2  0
 29 30  1  0
 30 31  2  0
 13  7  1  0
 20 15  1  0
 31 21  1  0
 30 24  1  0
  3 32  1  0
  4 33  1  0
  4 34  1  0
  8 35  1  0
  8 36  1  0
  9 37  1  0
  9 38  1  0
 10 39  1  0
 10 40  1  0
 11 41  1  0
 11 42  1  0
 12 43  1  0
 12 44  1  0
 13 45  1  1
 14 46  1  0
 14 47  1  0
 16 48  1  0
 17 49  1  0
 18 50  1  0
 19 51  1  0
 20 52  1  0
 22 53  1  0
 23 54  1  0
 25 55  1  0
 28 56  1  0
 29 57  1  0
M  END
>  <smiles>  (77) 
O=C(NCC(=O)N1CCCCCC1Cc1ccccc1)c1ccc2cc(Cl)ccc2n1

>  <score_type>  (77) 
oracle

>  <origin>  (77) 
autodockgpu

>  <m_score__min__energy>  (77) 
-7.1699999999999999

>  <m_primary>  (77) 
energy

>  <rmsd>  (77) 
5.940870034505107

>  <m_score__min__rmsd>  (77) 
5.940870034505107

>  <meeko>  (77) 
{"free_energy": -5.76, "intermolecular_energy": -9.34, "internal_energy": -2.47, "cluster_size": 2, "cluster_id": 5, "rank_in_cluster": 2}

>  <energy>  (77) 
-6.21

>  <cluster_rmsd>  (77) 
1.07

>  <cluster>  (77) 
4

$$$$

     RDKit          3D

 57 60  0  0  0  0  0  0  0  0999 V2000
  138.9750   71.7430  220.7670 O   0  0  0  0  0  0  0  0  0  0  0  0
  139.0890   72.2840  221.8990 C   0  0  0  0  0  0  0  0  0  0  0  0
  138.9860   73.6740  222.1250 N   0  0  0  0  0  0  0  0  0  0  0  0
  138.7320   74.6110  221.0260 C   0  0  0  0  0  0  0  0  0  0  0  0
  139.8860   74.6830  220.1220 C   0  0  0  0  0  0  0  0  0  0  0  0
  139.9040   73.7630  219.2040 O   0  0  0  0  0  0  0  0  0  0  0  0
  140.9480   75.5690  220.0910 N   0  0  0  0  0  0  0  0  0  0  0  0
  141.8260   75.2970  218.9030 C   0  0  0  0  0  0  0  0  0  0  0  0
  141.3320   76.2360  217.8340 C   0  0  0  0  0  0  0  0  0  0  0  0
  142.1710   77.4940  217.9340 C   0  0  0  0  0  0  0  0  0  0  0  0
  141.7400   78.2420  219.1540 C   0  0  0  0  0  0  0  0  0  0  0  0
  142.1850   77.6430  220.4560 C   0  0  0  0  0  0  0  0  0  0  0  0
  141.2040   76.6130  221.0110 C   0  0  1  0  0  0  0  0  0  0  0  0
  140.0430   77.3220  221.6240 C   0  0  0  0  0  0  0  0  0  0  0  0
  140.6250   78.5070  222.3760 C   0  0  0  0  0  0  0  0  0  0  0  0
  140.3140   79.7960  221.9750 C   0  0  0  0  0  0  0  0  0  0  0  0
  140.8110   80.9190  222.5990 C   0  0  0  0  0  0  0  0  0  0  0  0
  141.6540   80.7190  223.6700 C   0  0  0  0  0  0  0  0  0  0  0  0
  141.9840   79.4330  224.0960 C   0  0  0  0  0  0  0  0  0  0  0  0
  141.4690   78.3340  223.4480 C   0  0  0  0  0  0  0  0  0  0  0  0
  139.3450   71.4100  223.0600 C   0  0  0  0  0  0  0  0  0  0  0  0
  138.9940   70.0760  223.0400 C   0  0  0  0  0  0  0  0  0  0  0  0
  139.2150   69.2220  224.1020 C   0  0  0  0  0  0  0  0  0  0  0  0
  139.8160   69.7420  225.2290 C   0  0  0  0  0  0  0  0  0  0  0  0
  140.0430   68.9000  226.2980 C   0  0  0  0  0  0  0  0  0  0  0  0
  140.6410   69.4010  227.4300 C   0  0  0  0  0  0  0  0  0  0  0  0
  140.9130   68.2980  228.7670 Cl  0  0  0  0  0  0  0  0  0  0  0  0
  141.0070   70.7340  227.4820 C   0  0  0  0  0  0  0  0  0  0  0  0
  140.7810   71.5930  226.4050 C   0  0  0  0  0  0  0  0  0  0  0  0
  140.1730   71.0900  225.2540 C   0  0  0  0  0  0  0  0  0  0  0  0
  139.9330   71.8850  224.1810 N   0  0  0  0  0  0  0  0  0  0  0  0
  139.0930   74.0410  223.0980 H   0  0  0  0  0  0  0  0  0  0  0  0
  137.8517   74.2722  220.4600 H   0  0  0  0  0  0  0  0  0  0  0  0
  138.5548   75.6104  221.4500 H   0  0  0  0  0  0  0  0  0  0  0  0
  142.8790   75.5045  219.1442 H   0  0  0  0  0  0  0  0  0  0  0  0
  141.7786   74.2451  218.5848 H   0  0  0  0  0  0  0  0  0  0  0  0
  141.4538   75.7775  216.8415 H   0  0  0  0  0  0  0  0  0  0  0  0
  140.2641   76.4621  217.9701 H   0  0  0  0  0  0  0  0  0  0  0  0
  143.2350   77.2273  218.0163 H   0  0  0  0  0  0  0  0  0  0  0  0
  142.0348   78.1159  217.0370 H   0  0  0  0  0  0  0  0  0  0  0  0
  142.1476   79.2617  219.0907 H   0  0  0  0  0  0  0  0  0  0  0  0
  140.6405   78.2105  219.1612 H   0  0  0  0  0  0  0  0  0  0  0  0
  143.1569   77.1518  220.3007 H   0  0  0  0  0  0  0  0  0  0  0  0
  142.2479   78.4618  221.1878 H   0  0  0  0  0  0  0  0  0  0  0  0
  141.6415   76.0437  221.8443 H   0  0  0  0  0  0  0  0  0  0  0  0
  139.3506   77.6681  220.8425 H   0  0  0  0  0  0  0  0  0  0  0  0
  139.4746   76.6598  222.2936 H   0  0  0  0  0  0  0  0  0  0  0  0
  139.6380   79.9291  221.1175 H   0  0  0  0  0  0  0  0  0  0  0  0
  140.5465   81.9306  222.2573 H   0  0  0  0  0  0  0  0  0  0  0  0
  142.0737   81.5881  224.1978 H   0  0  0  0  0  0  0  0  0  0  0  0
  142.6589   79.2965  224.9538 H   0  0  0  0  0  0  0  0  0  0  0  0
  141.7313   77.3207  223.7861 H   0  0  0  0  0  0  0  0  0  0  0  0
  138.5154   69.6737  222.1350 H   0  0  0  0  0  0  0  0  0  0  0  0
  138.9217   68.1630  224.0510 H   0  0  0  0  0  0  0  0  0  0  0  0
  139.7493   67.8413  226.2453 H   0  0  0  0  0  0  0  0  0  0  0  0
  141.4863   71.1255  228.3914 H   0  0  0  0  0  0  0  0  0  0  0  0
  141.0778   72.6506  226.4628 H   0  0  0  0  0  0  0  0  0  0  0  0
  1  2  2  0
  2  3  1  0
  3  4  1  0
  4  5  1  0
  5  6  2  0
  5  7  1  0
  7  8  1  0
  8  9  1  0
  9 10  1  0
 10 11  1  0
 11 12  1  0
 12 13  1  0
 13 14  1  0
 14 15  1  0
 15 16  2  0
 16 17  1  0
 17 18  2  0
 18 19  1  0
 19 20  2  0
  2 21  1  0
 21 22  2  0
 22 23  1  0
 23 24  2  0
 24 25  1  0
 25 26  2  0
 26 27  1  0
 26 28  1  0
 28 29  2  0
 29 30  1  0
 30 31  2  0
 13  7  1  0
 20 15  1  0
 31 21  1  0
 30 24  1  0
  3 32  1  0
  4 33  1  0
  4 34  1  0
  8 35  1  0
  8 36  1  0
  9 37  1  0
  9 38  1  0
 10 39  1  0
 10 40  1  0
 11 41  1  0
 11 42  1  0
 12 43  1  0
 12 44  1  0
 13 45  1  1
 14 46  1  0
 14 47  1  0
 16 48  1  0
 17 49  1  0
 18 50  1  0
 19 51  1  0
 20 52  1  0
 22 53  1  0
 23 54  1  0
 25 55  1  0
 28 56  1  0
 29 57  1  0
M  END
>  <smiles>  (78) 
O=C(NCC(=O)N1CCCCCC1Cc1ccccc1)c1ccc2cc(Cl)ccc2n1

>  <score_type>  (78) 
oracle

>  <origin>  (78) 
autodockgpu

>  <m_score__min__energy>  (78) 
-7.1699999999999999

>  <m_primary>  (78) 
energy

>  <rmsd>  (78) 
1.8079201981366924

>  <m_score__min__rmsd>  (78) 
1.8079201981366924

>  <meeko>  (78) 
{"free_energy": -6.53, "intermolecular_energy": -10.11, "internal_energy": -1.68, "cluster_size": 19, "cluster_id": 1, "rank_in_cluster": 8}

>  <energy>  (78) 
-6.08

>  <cluster_rmsd>  (78) 
1.15

>  <cluster>  (78) 
4

$$$$

     RDKit          3D

 57 60  0  0  0  0  0  0  0  0999 V2000
  139.7230   71.9660  220.4480 O   0  0  0  0  0  0  0  0  0  0  0  0
  140.0180   72.4960  221.5520 C   0  0  0  0  0  0  0  0  0  0  0  0
  140.3570   73.8580  221.7100 N   0  0  0  0  0  0  0  0  0  0  0  0
  140.3890   74.7750  220.5680 C   0  0  0  0  0  0  0  0  0  0  0  0
  140.7850   76.1240  220.9890 C   0  0  0  0  0  0  0  0  0  0  0  0
  140.5920   76.3680  222.2510 O   0  0  0  0  0  0  0  0  0  0  0  0
  141.3280   77.1690  220.2620 N   0  0  0  0  0  0  0  0  0  0  0  0
  141.6320   78.3330  221.1610 C   0  0  0  0  0  0  0  0  0  0  0  0
  140.9350   79.5060  220.5240 C   0  0  0  0  0  0  0  0  0  0  0  0
  141.9210   80.1300  219.5570 C   0  0  0  0  0  0  0  0  0  0  0  0
  141.6200   79.6110  218.1880 C   0  0  0  0  0  0  0  0  0  0  0  0
  140.8700   78.3130  218.1550 C   0  0  0  0  0  0  0  0  0  0  0  0
  141.5980   77.1810  218.8740 C   0  0  1  0  0  0  0  0  0  0  0  0
  143.0210   77.1490  218.4250 C   0  0  0  0  0  0  0  0  0  0  0  0
  143.5400   75.7640  218.7750 C   0  0  0  0  0  0  0  0  0  0  0  0
  144.0850   75.5300  220.0260 C   0  0  0  0  0  0  0  0  0  0  0  0
  144.5840   74.3060  220.4130 C   0  0  0  0  0  0  0  0  0  0  0  0
  144.5260   73.2860  219.4900 C   0  0  0  0  0  0  0  0  0  0  0  0
  143.9830   73.4920  218.2220 C   0  0  0  0  0  0  0  0  0  0  0  0
  143.4920   74.7290  217.8700 C   0  0  0  0  0  0  0  0  0  0  0  0
  140.0090   71.6400  222.7540 C   0  0  0  0  0  0  0  0  0  0  0  0
  139.5060   70.3550  222.7110 C   0  0  0  0  0  0  0  0  0  0  0  0
  139.4790   69.5200  223.8100 C   0  0  0  0  0  0  0  0  0  0  0  0
  139.9800   70.0060  224.9990 C   0  0  0  0  0  0  0  0  0  0  0  0
  139.9580   69.1820  226.1050 C   0  0  0  0  0  0  0  0  0  0  0  0
  140.4540   69.6490  227.2990 C   0  0  0  0  0  0  0  0  0  0  0  0
  140.4090   68.5700  228.6820 Cl  0  0  0  0  0  0  0  0  0  0  0  0
  140.9660   70.9320  227.3750 C   0  0  0  0  0  0  0  0  0  0  0  0
  140.9920   71.7730  226.2610 C   0  0  0  0  0  0  0  0  0  0  0  0
  140.4900   71.3030  225.0470 C   0  0  0  0  0  0  0  0  0  0  0  0
  140.4930   72.0830  223.9360 N   0  0  0  0  0  0  0  0  0  0  0  0
  140.5890   74.2170  222.6640 H   0  0  0  0  0  0  0  0  0  0  0  0
  141.1119   74.4024  219.8273 H   0  0  0  0  0  0  0  0  0  0  0  0
  139.3811   74.8257  220.1303 H   0  0  0  0  0  0  0  0  0  0  0  0
  141.2405   78.1530  222.1731 H   0  0  0  0  0  0  0  0  0  0  0  0
  142.7136   78.5021  221.2685 H   0  0  0  0  0  0  0  0  0  0  0  0
  140.0388   79.1663  219.9842 H   0  0  0  0  0  0  0  0  0  0  0  0
  140.6134   80.2337  221.2837 H   0  0  0  0  0  0  0  0  0  0  0  0
  141.8161   81.2249  219.5721 H   0  0  0  0  0  0  0  0  0  0  0  0
  142.9513   79.8729  219.8442 H   0  0  0  0  0  0  0  0  0  0  0  0
  141.0187   80.3664  217.6609 H   0  0  0  0  0  0  0  0  0  0  0  0
  142.5922   79.4174  217.7111 H   0  0  0  0  0  0  0  0  0  0  0  0
  139.8922   78.4616  218.6366 H   0  0  0  0  0  0  0  0  0  0  0  0
  140.7698   78.0195  217.0996 H   0  0  0  0  0  0  0  0  0  0  0  0
  141.2032   76.1961  218.5841 H   0  0  0  0  0  0  0  0  0  0  0  0
  143.0832   77.3174  217.3398 H   0  0  0  0  0  0  0  0  0  0  0  0
  143.6148   77.9366  218.9119 H   0  0  0  0  0  0  0  0  0  0  0  0
  144.1212   76.3614  220.7453 H   0  0  0  0  0  0  0  0  0  0  0  0
  145.0100   74.1502  221.4151 H   0  0  0  0  0  0  0  0  0  0  0  0
  144.9144   72.2921  219.7571 H   0  0  0  0  0  0  0  0  0  0  0  0
  143.9469   72.6627  217.5002 H   0  0  0  0  0  0  0  0  0  0  0  0
  143.0633   74.8891  216.8697 H   0  0  0  0  0  0  0  0  0  0  0  0
  139.1083   69.9791  221.7568 H   0  0  0  0  0  0  0  0  0  0  0  0
  139.0713   68.5008  223.7394 H   0  0  0  0  0  0  0  0  0  0  0  0
  139.5485   68.1636  226.0324 H   0  0  0  0  0  0  0  0  0  0  0  0
  141.3613   71.2975  228.3343 H   0  0  0  0  0  0  0  0  0  0  0  0
  141.4020   72.7907  226.3392 H   0  0  0  0  0  0  0  0  0  0  0  0
  1  2  2  0
  2  3  1  0
  3  4  1  0
  4  5  1  0
  5  6  2  0
  5  7  1  0
  7  8  1  0
  8  9  1  0
  9 10  1  0
 10 11  1  0
 11 12  1  0
 12 13  1  0
 13 14  1  0
 14 15  1  0
 15 16  2  0
 16 17  1  0
 17 18  2  0
 18 19  1  0
 19 20  2  0
  2 21  1  0
 21 22  2  0
 22 23  1  0
 23 24  2  0
 24 25  1  0
 25 26  2  0
 26 27  1  0
 26 28  1  0
 28 29  2  0
 29 30  1  0
 30 31  2  0
 13  7  1  0
 20 15  1  0
 31 21  1  0
 30 24  1  0
  3 32  1  0
  4 33  1  0
  4 34  1  0
  8 35  1  0
  8 36  1  0
  9 37  1  0
  9 38  1  0
 10 39  1  0
 10 40  1  0
 11 41  1  0
 11 42  1  0
 12 43  1  0
 12 44  1  0
 13 45  1  6
 14 46  1  0
 14 47  1  0
 16 48  1  0
 17 49  1  0
 18 50  1  0
 19 51  1  0
 20 52  1  0
 22 53  1  0
 23 54  1  0
 25 55  1  0
 28 56  1  0
 29 57  1  0
M  END
>  <smiles>  (79) 
O=C(NCC(=O)N1CCCCCC1Cc1ccccc1)c1ccc2cc(Cl)ccc2n1

>  <score_type>  (79) 
oracle

>  <origin>  (79) 
autodockgpu

>  <m_score__min__energy>  (79) 
-7.1699999999999999

>  <m_primary>  (79) 
energy

>  <rmsd>  (79) 
2.6701842545781176

>  <m_score__min__rmsd>  (79) 
2.6701842545781176

>  <meeko>  (79) 
{"free_energy": -5.62, "intermolecular_energy": -9.2, "internal_energy": -2.77, "cluster_size": 10, "cluster_id": 6, "rank_in_cluster": 4}

>  <energy>  (79) 
-6.02

>  <cluster_rmsd>  (79) 
0.76

>  <cluster>  (79) 
4

$$$$

     RDKit          3D

 57 60  0  0  0  0  0  0  0  0999 V2000
  139.3410   71.8690  220.5010 O   0  0  0  0  0  0  0  0  0  0  0  0
  139.3360   72.4140  221.6370 C   0  0  0  0  0  0  0  0  0  0  0  0
  139.1350   73.7950  221.8500 N   0  0  0  0  0  0  0  0  0  0  0  0
  138.9110   74.7170  220.7320 C   0  0  0  0  0  0  0  0  0  0  0  0
  139.0770   76.1110  221.1600 C   0  0  0  0  0  0  0  0  0  0  0  0
  137.9720   76.6960  221.5140 O   0  0  0  0  0  0  0  0  0  0  0  0
  140.2150   76.8940  221.2470 N   0  0  0  0  0  0  0  0  0  0  0  0
  140.7320   76.9160  222.6570 C   0  0  0  0  0  0  0  0  0  0  0  0
  141.5030   78.2050  222.7660 C   0  0  0  0  0  0  0  0  0  0  0  0
  140.4810   79.3210  222.8500 C   0  0  0  0  0  0  0  0  0  0  0  0
  139.9060   79.5270  221.4860 C   0  0  0  0  0  0  0  0  0  0  0  0
  140.7890   79.0940  220.3580 C   0  0  0  0  0  0  0  0  0  0  0  0
  140.8500   77.5790  220.1860 C   0  0  1  0  0  0  0  0  0  0  0  0
  142.2410   77.1830  219.8140 C   0  0  0  0  0  0  0  0  0  0  0  0
  142.2320   75.6670  219.7130 C   0  0  0  0  0  0  0  0  0  0  0  0
  141.7050   75.0550  218.5880 C   0  0  0  0  0  0  0  0  0  0  0  0
  141.6520   73.6880  218.4280 C   0  0  0  0  0  0  0  0  0  0  0  0
  142.1550   72.9180  219.4530 C   0  0  0  0  0  0  0  0  0  0  0  0
  142.6920   73.5060  220.5990 C   0  0  0  0  0  0  0  0  0  0  0  0
  142.7280   74.8760  220.7230 C   0  0  0  0  0  0  0  0  0  0  0  0
  139.5550   71.5550  222.8170 C   0  0  0  0  0  0  0  0  0  0  0  0
  139.1850   70.2260  222.8100 C   0  0  0  0  0  0  0  0  0  0  0  0
  139.3710   69.3860  223.8900 C   0  0  0  0  0  0  0  0  0  0  0  0
  139.9530   69.9160  225.0220 C   0  0  0  0  0  0  0  0  0  0  0  0
  140.1440   69.0880  226.1090 C   0  0  0  0  0  0  0  0  0  0  0  0
  140.7240   69.5990  227.2470 C   0  0  0  0  0  0  0  0  0  0  0  0
  140.9500   68.5140  228.6070 Cl  0  0  0  0  0  0  0  0  0  0  0  0
  141.1060   70.9280  227.2860 C   0  0  0  0  0  0  0  0  0  0  0  0
  140.9160   71.7720  226.1910 C   0  0  0  0  0  0  0  0  0  0  0  0
  140.3280   71.2590  225.0340 C   0  0  0  0  0  0  0  0  0  0  0  0
  140.1230   72.0400  223.9440 N   0  0  0  0  0  0  0  0  0  0  0  0
  139.1460   74.1670  222.8270 H   0  0  0  0  0  0  0  0  0  0  0  0
  139.6349   74.4970  219.9335 H   0  0  0  0  0  0  0  0  0  0  0  0
  137.8822   74.5822  220.3666 H   0  0  0  0  0  0  0  0  0  0  0  0
  139.8989   76.9013  223.3751 H   0  0  0  0  0  0  0  0  0  0  0  0
  141.3565   76.0391  222.8832 H   0  0  0  0  0  0  0  0  0  0  0  0
  142.1293   78.1963  223.6702 H   0  0  0  0  0  0  0  0  0  0  0  0
  142.1669   78.3422  221.8997 H   0  0  0  0  0  0  0  0  0  0  0  0
  139.6822   79.0430  223.5534 H   0  0  0  0  0  0  0  0  0  0  0  0
  140.9557   80.2467  223.2074 H   0  0  0  0  0  0  0  0  0  0  0  0
  138.9663   78.9587  221.4219 H   0  0  0  0  0  0  0  0  0  0  0  0
  139.7674   80.6121  221.3703 H   0  0  0  0  0  0  0  0  0  0  0  0
  140.4068   79.5360  219.4260 H   0  0  0  0  0  0  0  0  0  0  0  0
  141.8078   79.4364  220.5921 H   0  0  0  0  0  0  0  0  0  0  0  0
  140.2380   77.2427  219.3361 H   0  0  0  0  0  0  0  0  0  0  0  0
  142.5198   77.6288  218.8478 H   0  0  0  0  0  0  0  0  0  0  0  0
  142.9721   77.5329  220.5577 H   0  0  0  0  0  0  0  0  0  0  0  0
  141.3094   75.6917  217.7829 H   0  0  0  0  0  0  0  0  0  0  0  0
  141.2268   73.2317  217.5219 H   0  0  0  0  0  0  0  0  0  0  0  0
  142.1331   71.8216  219.3670 H   0  0  0  0  0  0  0  0  0  0  0  0
  143.0879   72.8721  221.4061 H   0  0  0  0  0  0  0  0  0  0  0  0
  143.1522   75.3371  221.6271 H   0  0  0  0  0  0  0  0  0  0  0  0
  138.7199   69.8162  221.9013 H   0  0  0  0  0  0  0  0  0  0  0  0
  139.0653   68.3301  223.8487 H   0  0  0  0  0  0  0  0  0  0  0  0
  139.8364   68.0327  226.0662 H   0  0  0  0  0  0  0  0  0  0  0  0
  141.5695   71.3281  228.1998 H   0  0  0  0  0  0  0  0  0  0  0  0
  141.2253   72.8265  226.2392 H   0  0  0  0  0  0  0  0  0  0  0  0
  1  2  2  0
  2  3  1  0
  3  4  1  0
  4  5  1  0
  5  6  2  0
  5  7  1  0
  7  8  1  0
  8  9  1  0
  9 10  1  0
 10 11  1  0
 11 12  1  0
 12 13  1  0
 13 14  1  0
 14 15  1  0
 15 16  2  0
 16 17  1  0
 17 18  2  0
 18 19  1  0
 19 20  2  0
  2 21  1  0
 21 22  2  0
 22 23  1  0
 23 24  2  0
 24 25  1  0
 25 26  2  0
 26 27  1  0
 26 28  1  0
 28 29  2  0
 29 30  1  0
 30 31  2  0
 13  7  1  0
 20 15  1  0
 31 21  1  0
 30 24  1  0
  3 32  1  0
  4 33  1  0
  4 34  1  0
  8 35  1  0
  8 36  1  0
  9 37  1  0
  9 38  1  0
 10 39  1  0
 10 40  1  0
 11 41  1  0
 11 42  1  0
 12 43  1  0
 12 44  1  0
 13 45  1  6
 14 46  1  0
 14 47  1  0
 16 48  1  0
 17 49  1  0
 18 50  1  0
 19 51  1  0
 20 52  1  0
 22 53  1  0
 23 54  1  0
 25 55  1  0
 28 56  1  0
 29 57  1  0
M  END
>  <smiles>  (80) 
O=C(NCC(=O)N1CCCCCC1Cc1ccccc1)c1ccc2cc(Cl)ccc2n1

>  <score_type>  (80) 
oracle

>  <origin>  (80) 
autodockgpu

>  <m_score__min__energy>  (80) 
-7.1699999999999999

>  <m_primary>  (80) 
energy

>  <rmsd>  (80) 
2.8255927492060433

>  <m_score__min__rmsd>  (80) 
2.8255927492060433

>  <meeko>  (80) 
{"free_energy": -5.15, "intermolecular_energy": -8.73, "internal_energy": -2.61, "cluster_size": 10, "cluster_id": 6, "rank_in_cluster": 8}

>  <energy>  (80) 
-6.0

>  <cluster_rmsd>  (80) 
1.01

>  <cluster>  (80) 
4

$$$$

     RDKit          3D

 57 60  0  0  0  0  0  0  0  0999 V2000
  142.0670   72.8890  220.4990 O   0  0  0  0  0  0  0  0  0  0  0  0
  141.3250   73.5780  221.2480 C   0  0  0  0  0  0  0  0  0  0  0  0
  140.3880   73.0310  222.1530 N   0  0  0  0  0  0  0  0  0  0  0  0
  140.2110   71.5820  222.2880 C   0  0  0  0  0  0  0  0  0  0  0  0
  138.9020   71.2660  222.8720 C   0  0  0  0  0  0  0  0  0  0  0  0
  138.1420   72.3010  223.0710 O   0  0  0  0  0  0  0  0  0  0  0  0
  138.3530   70.0500  223.2400 N   0  0  0  0  0  0  0  0  0  0  0  0
  138.2360   69.1440  222.0480 C   0  0  0  0  0  0  0  0  0  0  0  0
  136.7580   69.0470  221.7780 C   0  0  0  0  0  0  0  0  0  0  0  0
  136.1240   70.2930  222.3620 C   0  0  0  0  0  0  0  0  0  0  0  0
  135.5900   69.9520  223.7160 C   0  0  0  0  0  0  0  0  0  0  0  0
  136.5220   69.1550  224.5830 C   0  0  0  0  0  0  0  0  0  0  0  0
  137.9620   69.6600  224.5410 C   0  0  1  0  0  0  0  0  0  0  0  0
  138.8370   68.7140  225.2950 C   0  0  0  0  0  0  0  0  0  0  0  0
  139.6760   69.5720  226.2260 C   0  0  0  0  0  0  0  0  0  0  0  0
  140.0890   69.0620  227.4460 C   0  0  0  0  0  0  0  0  0  0  0  0
  140.8430   69.7810  228.3470 C   0  0  0  0  0  0  0  0  0  0  0  0
  141.1860   71.0670  227.9910 C   0  0  0  0  0  0  0  0  0  0  0  0
  140.7850   71.6070  226.7690 C   0  0  0  0  0  0  0  0  0  0  0  0
  140.0330   70.8580  225.8930 C   0  0  0  0  0  0  0  0  0  0  0  0
  141.4400   75.0470  221.1740 C   0  0  0  0  0  0  0  0  0  0  0  0
  142.1260   75.6570  220.1430 C   0  0  0  0  0  0  0  0  0  0  0  0
  142.2580   77.0270  220.0330 C   0  0  0  0  0  0  0  0  0  0  0  0
  141.6740   77.8090  221.0080 C   0  0  0  0  0  0  0  0  0  0  0  0
  141.8000   79.1790  220.9110 C   0  0  0  0  0  0  0  0  0  0  0  0
  141.2230   79.9750  221.8730 C   0  0  0  0  0  0  0  0  0  0  0  0
  141.4050   81.7130  221.7140 Cl  0  0  0  0  0  0  0  0  0  0  0  0
  140.5290   79.3940  222.9190 C   0  0  0  0  0  0  0  0  0  0  0  0
  140.3970   78.0090  223.0250 C   0  0  0  0  0  0  0  0  0  0  0  0
  140.9800   77.1970  222.0510 C   0  0  0  0  0  0  0  0  0  0  0  0
  140.8800   75.8450  222.1110 N   0  0  0  0  0  0  0  0  0  0  0  0
  139.8110   73.6760  222.7390 H   0  0  0  0  0  0  0  0  0  0  0  0
  140.2838   71.1162  221.2941 H   0  0  0  0  0  0  0  0  0  0  0  0
  140.9957   71.1927  222.9534 H   0  0  0  0  0  0  0  0  0  0  0  0
  138.7601   69.5744  221.1819 H   0  0  0  0  0  0  0  0  0  0  0  0
  138.6888   68.1584  222.2313 H   0  0  0  0  0  0  0  0  0  0  0  0
  136.5732   69.0002  220.6947 H   0  0  0  0  0  0  0  0  0  0  0  0
  136.3328   68.1387  222.2299 H   0  0  0  0  0  0  0  0  0  0  0  0
  136.8779   71.0894  222.4483 H   0  0  0  0  0  0  0  0  0  0  0  0
  135.3118   70.6482  221.7106 H   0  0  0  0  0  0  0  0  0  0  0  0
  135.3581   70.8920  224.2381 H   0  0  0  0  0  0  0  0  0  0  0  0
  134.7077   69.3170  223.5478 H   0  0  0  0  0  0  0  0  0  0  0  0
  136.1635   69.2068  225.6216 H   0  0  0  0  0  0  0  0  0  0  0  0
  136.5256   68.1246  224.1981 H   0  0  0  0  0  0  0  0  0  0  0  0
  138.0736   70.6134  225.0782 H   0  0  0  0  0  0  0  0  0  0  0  0
  138.2254   68.0067  225.8744 H   0  0  0  0  0  0  0  0  0  0  0  0
  139.4673   68.1202  224.6167 H   0  0  0  0  0  0  0  0  0  0  0  0
  139.8009   68.0332  227.7078 H   0  0  0  0  0  0  0  0  0  0  0  0
  141.1573   69.3477  229.3080 H   0  0  0  0  0  0  0  0  0  0  0  0
  141.7859   71.6779  228.6817 H   0  0  0  0  0  0  0  0  0  0  0  0
  141.0710   72.6357  226.5045 H   0  0  0  0  0  0  0  0  0  0  0  0
  139.7185   71.2862  224.9298 H   0  0  0  0  0  0  0  0  0  0  0  0
  142.5890   75.0221  219.3733 H   0  0  0  0  0  0  0  0  0  0  0  0
  142.8102   77.4796  219.1962 H   0  0  0  0  0  0  0  0  0  0  0  0
  142.3549   79.6294  220.0748 H   0  0  0  0  0  0  0  0  0  0  0  0
  140.0711   80.0381  223.6842 H   0  0  0  0  0  0  0  0  0  0  0  0
  139.8417   77.5638  223.8637 H   0  0  0  0  0  0  0  0  0  0  0  0
  1  2  2  0
  2  3  1  0
  3  4  1  0
  4  5  1  0
  5  6  2  0
  5  7  1  0
  7  8  1  0
  8  9  1  0
  9 10  1  0
 10 11  1  0
 11 12  1  0
 12 13  1  0
 13 14  1  0
 14 15  1  0
 15 16  2  0
 16 17  1  0
 17 18  2  0
 18 19  1  0
 19 20  2  0
  2 21  1  0
 21 22  2  0
 22 23  1  0
 23 24  2  0
 24 25  1  0
 25 26  2  0
 26 27  1  0
 26 28  1  0
 28 29  2  0
 29 30  1  0
 30 31  2  0
 13  7  1  0
 20 15  1  0
 31 21  1  0
 30 24  1  0
  3 32  1  0
  4 33  1  0
  4 34  1  0
  8 35  1  0
  8 36  1  0
  9 37  1  0
  9 38  1  0
 10 39  1  0
 10 40  1  0
 11 41  1  0
 11 42  1  0
 12 43  1  0
 12 44  1  0
 13 45  1  1
 14 46  1  0
 14 47  1  0
 16 48  1  0
 17 49  1  0
 18 50  1  0
 19 51  1  0
 20 52  1  0
 22 53  1  0
 23 54  1  0
 25 55  1  0
 28 56  1  0
 29 57  1  0
M  END
>  <smiles>  (81) 
O=C(NCC(=O)N1CCCCCC1Cc1ccccc1)c1ccc2cc(Cl)ccc2n1

>  <score_type>  (81) 
oracle

>  <origin>  (81) 
autodockgpu

>  <m_score__min__energy>  (81) 
-7.1699999999999999

>  <m_primary>  (81) 
energy

>  <rmsd>  (81) 
8.315291695308087

>  <m_score__min__rmsd>  (81) 
8.315291695308087

>  <meeko>  (81) 
{"free_energy": -6.0, "intermolecular_energy": -9.58, "internal_energy": -2.34, "cluster_size": 5, "cluster_id": 4, "rank_in_cluster": 5}

>  <energy>  (81) 
-6.23

>  <cluster_rmsd>  (81) 
0.0

>  <cluster>  (81) 
5

$$$$

     RDKit          3D

 57 60  0  0  0  0  0  0  0  0999 V2000
  138.8990   71.4530  220.9720 O   0  0  0  0  0  0  0  0  0  0  0  0
  139.2360   72.0150  222.0480 C   0  0  0  0  0  0  0  0  0  0  0  0
  139.3810   73.4120  222.1990 N   0  0  0  0  0  0  0  0  0  0  0  0
  139.1420   74.3300  221.0810 C   0  0  0  0  0  0  0  0  0  0  0  0
  140.1570   75.3890  221.0470 C   0  0  0  0  0  0  0  0  0  0  0  0
  140.8420   75.5090  222.1450 O   0  0  0  0  0  0  0  0  0  0  0  0
  140.4990   76.2730  220.0380 N   0  0  0  0  0  0  0  0  0  0  0  0
  139.2770   76.9750  219.5170 C   0  0  0  0  0  0  0  0  0  0  0  0
  139.0200   78.0860  220.5010 C   0  0  0  0  0  0  0  0  0  0  0  0
  139.9990   79.1950  220.1740 C   0  0  0  0  0  0  0  0  0  0  0  0
  141.3550   78.7680  220.6320 C   0  0  0  0  0  0  0  0  0  0  0  0
  142.1610   78.0110  219.6180 C   0  0  0  0  0  0  0  0  0  0  0  0
  141.8000   76.5300  219.5460 C   0  0  1  0  0  0  0  0  0  0  0  0
  142.9350   75.7210  220.0800 C   0  0  0  0  0  0  0  0  0  0  0  0
  142.5840   74.2700  219.7990 C   0  0  0  0  0  0  0  0  0  0  0  0
  142.8250   73.3050  220.7630 C   0  0  0  0  0  0  0  0  0  0  0  0
  142.5440   71.9690  220.5790 C   0  0  0  0  0  0  0  0  0  0  0  0
  141.9970   71.6060  219.3690 C   0  0  0  0  0  0  0  0  0  0  0  0
  141.7420   72.5550  218.3790 C   0  0  0  0  0  0  0  0  0  0  0  0
  142.0370   73.8820  218.5980 C   0  0  0  0  0  0  0  0  0  0  0  0
  139.4960   71.1610  223.2240 C   0  0  0  0  0  0  0  0  0  0  0  0
  139.1670   69.8210  223.2170 C   0  0  0  0  0  0  0  0  0  0  0  0
  139.3920   68.9840  224.2920 C   0  0  0  0  0  0  0  0  0  0  0  0
  139.9720   69.5290  225.4190 C   0  0  0  0  0  0  0  0  0  0  0  0
  140.2020   68.7050  226.5000 C   0  0  0  0  0  0  0  0  0  0  0  0
  140.7800   69.2310  227.6330 C   0  0  0  0  0  0  0  0  0  0  0  0
  141.0570   68.1500  228.9870 Cl  0  0  0  0  0  0  0  0  0  0  0  0
  141.1220   70.5710  227.6710 C   0  0  0  0  0  0  0  0  0  0  0  0
  140.8920   71.4110  226.5800 C   0  0  0  0  0  0  0  0  0  0  0  0
  140.3060   70.8830  225.4300 C   0  0  0  0  0  0  0  0  0  0  0  0
  140.0630   71.6610  224.3440 N   0  0  0  0  0  0  0  0  0  0  0  0
  139.6640   73.7970  223.1280 H   0  0  0  0  0  0  0  0  0  0  0  0
  139.1785   73.7657  220.1375 H   0  0  0  0  0  0  0  0  0  0  0  0
  138.1536   74.7945  221.2128 H   0  0  0  0  0  0  0  0  0  0  0  0
  139.4636   77.3829  218.5126 H   0  0  0  0  0  0  0  0  0  0  0  0
  138.4166   76.2958  219.4249 H   0  0  0  0  0  0  0  0  0  0  0  0
  137.9871   78.4505  220.3995 H   0  0  0  0  0  0  0  0  0  0  0  0
  139.1514   77.7356  221.5354 H   0  0  0  0  0  0  0  0  0  0  0  0
  140.0112   79.3733  219.0886 H   0  0  0  0  0  0  0  0  0  0  0  0
  139.7022   80.1261  220.6790 H   0  0  0  0  0  0  0  0  0  0  0  0
  141.9196   79.6696  220.9117 H   0  0  0  0  0  0  0  0  0  0  0  0
  141.1907   78.0757  221.4709 H   0  0  0  0  0  0  0  0  0  0  0  0
  141.9897   78.4609  218.6289 H   0  0  0  0  0  0  0  0  0  0  0  0
  143.2154   78.0755  219.9248 H   0  0  0  0  0  0  0  0  0  0  0  0
  141.6933   76.1889  218.5057 H   0  0  0  0  0  0  0  0  0  0  0  0
  143.8712   75.9932  219.5707 H   0  0  0  0  0  0  0  0  0  0  0  0
  143.0851   75.8981  221.1552 H   0  0  0  0  0  0  0  0  0  0  0  0
  143.2619   73.6207  221.7219 H   0  0  0  0  0  0  0  0  0  0  0  0
  142.7476   71.2256  221.3638 H   0  0  0  0  0  0  0  0  0  0  0  0
  141.7568   70.5494  219.1796 H   0  0  0  0  0  0  0  0  0  0  0  0
  141.3037   72.2421  217.4199 H   0  0  0  0  0  0  0  0  0  0  0  0
  141.8361   74.6288  217.8158 H   0  0  0  0  0  0  0  0  0  0  0  0
  138.7038   69.3997  222.3126 H   0  0  0  0  0  0  0  0  0  0  0  0
  139.1182   67.9194  224.2512 H   0  0  0  0  0  0  0  0  0  0  0  0
  139.9271   67.6407  226.4576 H   0  0  0  0  0  0  0  0  0  0  0  0
  141.5848   70.9831  228.5798 H   0  0  0  0  0  0  0  0  0  0  0  0
  141.1691   72.4745  226.6268 H   0  0  0  0  0  0  0  0  0  0  0  0
  1  2  2  0
  2  3  1  0
  3  4  1  0
  4  5  1  0
  5  6  2  0
  5  7  1  0
  7  8  1  0
  8  9  1  0
  9 10  1  0
 10 11  1  0
 11 12  1  0
 12 13  1  0
 13 14  1  0
 14 15  1  0
 15 16  2  0
 16 17  1  0
 17 18  2  0
 18 19  1  0
 19 20  2  0
  2 21  1  0
 21 22  2  0
 22 23  1  0
 23 24  2  0
 24 25  1  0
 25 26  2  0
 26 27  1  0
 26 28  1  0
 28 29  2  0
 29 30  1  0
 30 31  2  0
 13  7  1  0
 20 15  1  0
 31 21  1  0
 30 24  1  0
  3 32  1  0
  4 33  1  0
  4 34  1  0
  8 35  1  0
  8 36  1  0
  9 37  1  0
  9 38  1  0
 10 39  1  0
 10 40  1  0
 11 41  1  0
 11 42  1  0
 12 43  1  0
 12 44  1  0
 13 45  1  6
 14 46  1  0
 14 47  1  0
 16 48  1  0
 17 49  1  0
 18 50  1  0
 19 51  1  0
 20 52  1  0
 22 53  1  0
 23 54  1  0
 25 55  1  0
 28 56  1  0
 29 57  1  0
M  END
>  <smiles>  (82) 
O=C(NCC(=O)N1CCCCCC1Cc1ccccc1)c1ccc2cc(Cl)ccc2n1

>  <score_type>  (82) 
oracle

>  <origin>  (82) 
autodockgpu

>  <m_score__min__energy>  (82) 
-7.1699999999999999

>  <m_primary>  (82) 
energy

>  <rmsd>  (82) 
2.0016620110219576

>  <m_score__min__rmsd>  (82) 
2.0016620110219576

>  <meeko>  (82) 
{"free_energy": -5.13, "intermolecular_energy": -8.71, "internal_energy": -2.97, "cluster_size": 10, "cluster_id": 6, "rank_in_cluster": 9}

>  <energy>  (82) 
-5.76

>  <cluster_rmsd>  (82) 
1.07

>  <cluster>  (82) 
5

$$$$

     RDKit          3D

 57 60  0  0  0  0  0  0  0  0999 V2000
  143.9190   75.8240  220.0550 O   0  0  0  0  0  0  0  0  0  0  0  0
  143.3080   74.7840  220.4190 C   0  0  0  0  0  0  0  0  0  0  0  0
  142.0630   74.7910  221.0850 N   0  0  0  0  0  0  0  0  0  0  0  0
  141.3760   76.0450  221.4080 C   0  0  0  0  0  0  0  0  0  0  0  0
  140.0050   75.7890  221.8670 C   0  0  0  0  0  0  0  0  0  0  0  0
  139.7880   74.5640  222.2440 O   0  0  0  0  0  0  0  0  0  0  0  0
  138.9170   76.6380  221.9620 N   0  0  0  0  0  0  0  0  0  0  0  0
  137.6350   75.8560  221.9280 C   0  0  0  0  0  0  0  0  0  0  0  0
  136.8160   76.4050  223.0660 C   0  0  0  0  0  0  0  0  0  0  0  0
  135.8370   77.3930  222.4640 C   0  0  0  0  0  0  0  0  0  0  0  0
  136.5270   78.7120  222.3390 C   0  0  0  0  0  0  0  0  0  0  0  0
  137.7410   78.7170  221.4540 C   0  0  0  0  0  0  0  0  0  0  0  0
  138.9530   78.0450  222.0950 C   0  0  1  0  0  0  0  0  0  0  0  0
  139.1760   78.6270  223.4510 C   0  0  0  0  0  0  0  0  0  0  0  0
  140.4850   79.3940  223.3680 C   0  0  0  0  0  0  0  0  0  0  0  0
  141.6710   78.7110  223.1570 C   0  0  0  0  0  0  0  0  0  0  0  0
  142.8970   79.3350  223.0800 C   0  0  0  0  0  0  0  0  0  0  0  0
  142.9120   80.7050  223.2240 C   0  0  0  0  0  0  0  0  0  0  0  0
  141.7330   81.4200  223.4370 C   0  0  0  0  0  0  0  0  0  0  0  0
  140.5260   80.7620  223.5080 C   0  0  0  0  0  0  0  0  0  0  0  0
  143.9320   73.4780  220.1310 C   0  0  0  0  0  0  0  0  0  0  0  0
  145.2930   73.3690  219.9260 C   0  0  0  0  0  0  0  0  0  0  0  0
  145.9190   72.1680  219.6550 C   0  0  0  0  0  0  0  0  0  0  0  0
  145.1360   71.0360  219.5880 C   0  0  0  0  0  0  0  0  0  0  0  0
  145.7490   69.8300  219.3180 C   0  0  0  0  0  0  0  0  0  0  0  0
  144.9830   68.6900  219.2480 C   0  0  0  0  0  0  0  0  0  0  0  0
  145.8010   67.1760  218.9030 Cl  0  0  0  0  0  0  0  0  0  0  0  0
  143.6170   68.7660  219.4500 C   0  0  0  0  0  0  0  0  0  0  0  0
  142.9890   69.9820  219.7240 C   0  0  0  0  0  0  0  0  0  0  0  0
  143.7610   71.1420  219.7960 C   0  0  0  0  0  0  0  0  0  0  0  0
  143.1960   72.3470  220.0590 N   0  0  0  0  0  0  0  0  0  0  0  0
  141.6230   73.8810  221.3520 H   0  0  0  0  0  0  0  0  0  0  0  0
  141.9306   76.5649  222.2030 H   0  0  0  0  0  0  0  0  0  0  0  0
  141.3324   76.6653  220.5006 H   0  0  0  0  0  0  0  0  0  0  0  0
  137.1156   76.0057  220.9699 H   0  0  0  0  0  0  0  0  0  0  0  0
  137.8072   74.7740  222.0260 H   0  0  0  0  0  0  0  0  0  0  0  0
  136.2723   75.5913  223.5683 H   0  0  0  0  0  0  0  0  0  0  0  0
  137.4576   76.8918  223.8152 H   0  0  0  0  0  0  0  0  0  0  0  0
  135.5177   77.0436  221.4710 H   0  0  0  0  0  0  0  0  0  0  0  0
  134.9479   77.4871  223.1048 H   0  0  0  0  0  0  0  0  0  0  0  0
  135.8060   79.4361  221.9318 H   0  0  0  0  0  0  0  0  0  0  0  0
  136.8834   78.9671  223.3479 H   0  0  0  0  0  0  0  0  0  0  0  0
  137.4974   78.1846  220.5227 H   0  0  0  0  0  0  0  0  0  0  0  0
  138.0082   79.7681  221.2701 H   0  0  0  0  0  0  0  0  0  0  0  0
  139.8800   78.2736  221.5487 H   0  0  0  0  0  0  0  0  0  0  0  0
  138.3517   79.3055  223.7159 H   0  0  0  0  0  0  0  0  0  0  0  0
  139.2159   77.8448  224.2234 H   0  0  0  0  0  0  0  0  0  0  0  0
  141.6324   77.6173  223.0455 H   0  0  0  0  0  0  0  0  0  0  0  0
  143.8224   78.7648  222.9111 H   0  0  0  0  0  0  0  0  0  0  0  0
  143.8693   81.2441  223.1702 H   0  0  0  0  0  0  0  0  0  0  0  0
  141.7681   82.5138  223.5486 H   0  0  0  0  0  0  0  0  0  0  0  0
  139.5978   81.3278  223.6760 H   0  0  0  0  0  0  0  0  0  0  0  0
  145.9068   74.2802  219.9810 H   0  0  0  0  0  0  0  0  0  0  0  0
  147.0065   72.1168  219.4979 H   0  0  0  0  0  0  0  0  0  0  0  0
  146.8366   69.7808  219.1607 H   0  0  0  0  0  0  0  0  0  0  0  0
  143.0126   67.8487  219.3935 H   0  0  0  0  0  0  0  0  0  0  0  0
  141.9011   70.0252  219.8809 H   0  0  0  0  0  0  0  0  0  0  0  0
  1  2  2  0
  2  3  1  0
  3  4  1  0
  4  5  1  0
  5  6  2  0
  5  7  1  0
  7  8  1  0
  8  9  1  0
  9 10  1  0
 10 11  1  0
 11 12  1  0
 12 13  1  0
 13 14  1  0
 14 15  1  0
 15 16  2  0
 16 17  1  0
 17 18  2  0
 18 19  1  0
 19 20  2  0
  2 21  1  0
 21 22  2  0
 22 23  1  0
 23 24  2  0
 24 25  1  0
 25 26  2  0
 26 27  1  0
 26 28  1  0
 28 29  2  0
 29 30  1  0
 30 31  2  0
 13  7  1  0
 20 15  1  0
 31 21  1  0
 30 24  1  0
  3 32  1  0
  4 33  1  0
  4 34  1  0
  8 35  1  0
  8 36  1  0
  9 37  1  0
  9 38  1  0
 10 39  1  0
 10 40  1  0
 11 41  1  0
 11 42  1  0
 12 43  1  0
 12 44  1  0
 13 45  1  6
 14 46  1  0
 14 47  1  0
 16 48  1  0
 17 49  1  0
 18 50  1  0
 19 51  1  0
 20 52  1  0
 22 53  1  0
 23 54  1  0
 25 55  1  0
 28 56  1  0
 29 57  1  0
M  END
>  <smiles>  (83) 
O=C(NCC(=O)N1CCCCCC1Cc1ccccc1)c1ccc2cc(Cl)ccc2n1

>  <score_type>  (83) 
oracle

>  <origin>  (83) 
autodockgpu

>  <m_score__min__energy>  (83) 
-7.1699999999999999

>  <m_primary>  (83) 
energy

>  <rmsd>  (83) 
6.671697593513192

>  <m_score__min__rmsd>  (83) 
6.671697593513192

>  <meeko>  (83) 
{"free_energy": -5.44, "intermolecular_energy": -9.02, "internal_energy": -2.38, "cluster_size": 1, "cluster_id": 11, "rank_in_cluster": 1}

>  <energy>  (83) 
-6.23

>  <cluster_rmsd>  (83) 
0.0

>  <cluster>  (83) 
6

$$$$

     RDKit          3D

 57 60  0  0  0  0  0  0  0  0999 V2000
  141.5870   73.2010  220.6090 O   0  0  0  0  0  0  0  0  0  0  0  0
  140.8160   73.9150  221.3040 C   0  0  0  0  0  0  0  0  0  0  0  0
  139.7490   73.4040  222.0770 N   0  0  0  0  0  0  0  0  0  0  0  0
  139.4580   71.9690  222.1250 C   0  0  0  0  0  0  0  0  0  0  0  0
  138.1930   71.7130  222.8240 C   0  0  0  0  0  0  0  0  0  0  0  0
  137.3490   72.7000  222.7790 O   0  0  0  0  0  0  0  0  0  0  0  0
  137.7600   70.5960  223.5170 N   0  0  0  0  0  0  0  0  0  0  0  0
  136.2670   70.4630  223.4200 C   0  0  0  0  0  0  0  0  0  0  0  0
  136.0000   68.9870  223.5530 C   0  0  0  0  0  0  0  0  0  0  0  0
  136.4130   68.3470  222.2430 C   0  0  0  0  0  0  0  0  0  0  0  0
  137.9050   68.2810  222.2090 C   0  0  0  0  0  0  0  0  0  0  0  0
  138.5670   68.2920  223.5570 C   0  0  0  0  0  0  0  0  0  0  0  0
  138.5690   69.6690  224.2140 C   0  0  1  0  0  0  0  0  0  0  0  0
  139.9740   70.0550  224.5410 C   0  0  0  0  0  0  0  0  0  0  0  0
  140.2550   69.4830  225.9200 C   0  0  0  0  0  0  0  0  0  0  0  0
  139.9800   70.2380  227.0480 C   0  0  0  0  0  0  0  0  0  0  0  0
  140.2160   69.7930  228.3300 C   0  0  0  0  0  0  0  0  0  0  0  0
  140.7540   68.5330  228.4650 C   0  0  0  0  0  0  0  0  0  0  0  0
  141.0420   67.7490  227.3480 C   0  0  0  0  0  0  0  0  0  0  0  0
  140.7920   68.2270  226.0820 C   0  0  0  0  0  0  0  0  0  0  0  0
  141.0400   75.3730  221.3110 C   0  0  0  0  0  0  0  0  0  0  0  0
  141.8930   75.9670  220.4030 C   0  0  0  0  0  0  0  0  0  0  0  0
  142.1330   77.3270  220.3720 C   0  0  0  0  0  0  0  0  0  0  0  0
  141.4830   78.1140  221.2990 C   0  0  0  0  0  0  0  0  0  0  0  0
  141.7140   79.4740  221.2790 C   0  0  0  0  0  0  0  0  0  0  0  0
  141.0740   80.2760  222.1960 C   0  0  0  0  0  0  0  0  0  0  0  0
  141.3930   82.0000  222.1380 Cl  0  0  0  0  0  0  0  0  0  0  0  0
  140.2120   79.7110  223.1190 C   0  0  0  0  0  0  0  0  0  0  0  0
  139.9730   78.3360  223.1450 C   0  0  0  0  0  0  0  0  0  0  0  0
  140.6200   77.5180  222.2180 C   0  0  0  0  0  0  0  0  0  0  0  0
  140.4200   76.1760  222.2040 N   0  0  0  0  0  0  0  0  0  0  0  0
  139.1560   74.0670  222.6260 H   0  0  0  0  0  0  0  0  0  0  0  0
  139.3865   71.5817  221.0979 H   0  0  0  0  0  0  0  0  0  0  0  0
  140.2689   71.4646  222.6709 H   0  0  0  0  0  0  0  0  0  0  0  0
  135.7753   71.0199  224.2313 H   0  0  0  0  0  0  0  0  0  0  0  0
  135.8753   70.8713  222.4767 H   0  0  0  0  0  0  0  0  0  0  0  0
  136.5904   68.5686  224.3815 H   0  0  0  0  0  0  0  0  0  0  0  0
  134.9382   68.7960  223.7679 H   0  0  0  0  0  0  0  0  0  0  0  0
  135.9932   67.3325  222.1749 H   0  0  0  0  0  0  0  0  0  0  0  0
  136.0382   68.9387  221.3948 H   0  0  0  0  0  0  0  0  0  0  0  0
  138.1948   67.3537  221.6931 H   0  0  0  0  0  0  0  0  0  0  0  0
  138.2433   69.1902  221.6905 H   0  0  0  0  0  0  0  0  0  0  0  0
  138.0320   67.5914  224.2150 H   0  0  0  0  0  0  0  0  0  0  0  0
  139.6168   67.9991  223.4082 H   0  0  0  0  0  0  0  0  0  0  0  0
  138.0604   69.6531  225.1892 H   0  0  0  0  0  0  0  0  0  0  0  0
  140.6691   69.6299  223.8020 H   0  0  0  0  0  0  0  0  0  0  0  0
  140.1066   71.1468  224.5229 H   0  0  0  0  0  0  0  0  0  0  0  0
  139.5521   71.2424  226.9135 H   0  0  0  0  0  0  0  0  0  0  0  0
  139.9850   70.4163  229.2064 H   0  0  0  0  0  0  0  0  0  0  0  0
  140.9602   68.1379  229.4707 H   0  0  0  0  0  0  0  0  0  0  0  0
  141.4707   66.7446  227.4796 H   0  0  0  0  0  0  0  0  0  0  0  0
  141.0208   67.6069  225.2027 H   0  0  0  0  0  0  0  0  0  0  0  0
  142.4058   75.3274  219.6696 H   0  0  0  0  0  0  0  0  0  0  0  0
  142.8190   77.7670  219.6332 H   0  0  0  0  0  0  0  0  0  0  0  0
  142.4009   79.9116  220.5396 H   0  0  0  0  0  0  0  0  0  0  0  0
  139.7040   80.3594  223.8481 H   0  0  0  0  0  0  0  0  0  0  0  0
  139.2844   77.9034  223.8858 H   0  0  0  0  0  0  0  0  0  0  0  0
  1  2  2  0
  2  3  1  0
  3  4  1  0
  4  5  1  0
  5  6  2  0
  5  7  1  0
  7  8  1  0
  8  9  1  0
  9 10  1  0
 10 11  1  0
 11 12  1  0
 12 13  1  0
 13 14  1  0
 14 15  1  0
 15 16  2  0
 16 17  1  0
 17 18  2  0
 18 19  1  0
 19 20  2  0
  2 21  1  0
 21 22  2  0
 22 23  1  0
 23 24  2  0
 24 25  1  0
 25 26  2  0
 26 27  1  0
 26 28  1  0
 28 29  2  0
 29 30  1  0
 30 31  2  0
 13  7  1  0
 20 15  1  0
 31 21  1  0
 30 24  1  0
  3 32  1  0
  4 33  1  0
  4 34  1  0
  8 35  1  0
  8 36  1  0
  9 37  1  0
  9 38  1  0
 10 39  1  0
 10 40  1  0
 11 41  1  0
 11 42  1  0
 12 43  1  0
 12 44  1  0
 13 45  1  1
 14 46  1  0
 14 47  1  0
 16 48  1  0
 17 49  1  0
 18 50  1  0
 19 51  1  0
 20 52  1  0
 22 53  1  0
 23 54  1  0
 25 55  1  0
 28 56  1  0
 29 57  1  0
M  END
>  <smiles>  (84) 
O=C(NCC(=O)N1CCCCCC1Cc1ccccc1)c1ccc2cc(Cl)ccc2n1

>  <score_type>  (84) 
oracle

>  <origin>  (84) 
autodockgpu

>  <m_score__min__energy>  (84) 
-7.1699999999999999

>  <m_primary>  (84) 
energy

>  <rmsd>  (84) 
8.285959216075904

>  <m_score__min__rmsd>  (84) 
8.285959216075904

>  <meeko>  (84) 
{"free_energy": -6.08, "intermolecular_energy": -9.66, "internal_energy": -2.24, "cluster_size": 5, "cluster_id": 4, "rank_in_cluster": 3}

>  <energy>  (84) 
-6.03

>  <cluster_rmsd>  (84) 
0.58

>  <cluster>  (84) 
6

$$$$

     RDKit          3D

 57 60  0  0  0  0  0  0  0  0999 V2000
  139.4840   71.8380  220.8030 O   0  0  0  0  0  0  0  0  0  0  0  0
  139.5560   72.3610  221.9470 C   0  0  0  0  0  0  0  0  0  0  0  0
  139.5180   73.7530  222.1840 N   0  0  0  0  0  0  0  0  0  0  0  0
  139.3890   74.7130  221.0840 C   0  0  0  0  0  0  0  0  0  0  0  0
  140.3710   75.7950  221.2140 C   0  0  0  0  0  0  0  0  0  0  0  0
  140.7380   76.0400  222.4370 O   0  0  0  0  0  0  0  0  0  0  0  0
  140.9650   76.5900  220.2490 N   0  0  0  0  0  0  0  0  0  0  0  0
  140.5080   78.0140  220.3860 C   0  0  0  0  0  0  0  0  0  0  0  0
  141.7750   78.8280  220.3970 C   0  0  0  0  0  0  0  0  0  0  0  0
  142.1070   79.1400  218.9520 C   0  0  0  0  0  0  0  0  0  0  0  0
  141.2320   78.2970  218.0820 C   0  0  0  0  0  0  0  0  0  0  0  0
  141.6700   76.8770  217.9290 C   0  0  0  0  0  0  0  0  0  0  0  0
  141.8910   76.1730  219.2650 C   0  0  1  0  0  0  0  0  0  0  0  0
  143.3460   76.2010  219.5990 C   0  0  0  0  0  0  0  0  0  0  0  0
  143.6880   74.8060  220.0960 C   0  0  0  0  0  0  0  0  0  0  0  0
  144.9530   74.5440  220.5940 C   0  0  0  0  0  0  0  0  0  0  0  0
  145.3410   73.3050  221.0520 C   0  0  0  0  0  0  0  0  0  0  0  0
  144.4040   72.2960  221.0000 C   0  0  0  0  0  0  0  0  0  0  0  0
  143.1220   72.5300  220.5040 C   0  0  0  0  0  0  0  0  0  0  0  0
  142.7700   73.7830  220.0550 C   0  0  0  0  0  0  0  0  0  0  0  0
  139.6890   71.4630  223.1110 C   0  0  0  0  0  0  0  0  0  0  0  0
  139.3110   70.1380  223.0350 C   0  0  0  0  0  0  0  0  0  0  0  0
  139.4180   69.2620  224.0970 C   0  0  0  0  0  0  0  0  0  0  0  0
  139.9260   69.7500  225.2830 C   0  0  0  0  0  0  0  0  0  0  0  0
  140.0370   68.8860  226.3520 C   0  0  0  0  0  0  0  0  0  0  0  0
  140.5430   69.3540  227.5430 C   0  0  0  0  0  0  0  0  0  0  0  0
  140.6690   68.2240  228.8790 Cl  0  0  0  0  0  0  0  0  0  0  0  0
  140.9310   70.6780  227.6510 C   0  0  0  0  0  0  0  0  0  0  0  0
  140.8210   71.5590  226.5740 C   0  0  0  0  0  0  0  0  0  0  0  0
  140.3090   71.0880  225.3640 C   0  0  0  0  0  0  0  0  0  0  0  0
  140.1830   71.9060  224.2880 N   0  0  0  0  0  0  0  0  0  0  0  0
  139.5840   74.1030  223.1670 H   0  0  0  0  0  0  0  0  0  0  0  0
  139.5528   74.1910  220.1297 H   0  0  0  0  0  0  0  0  0  0  0  0
  138.3798   75.1494  221.1157 H   0  0  0  0  0  0  0  0  0  0  0  0
  139.8717   78.2998  219.5355 H   0  0  0  0  0  0  0  0  0  0  0  0
  139.9072   78.1706  221.2940 H   0  0  0  0  0  0  0  0  0  0  0  0
  141.6213   79.7604  220.9601 H   0  0  0  0  0  0  0  0  0  0  0  0
  142.5947   78.2761  220.8802 H   0  0  0  0  0  0  0  0  0  0  0  0
  141.9206   80.2048  218.7481 H   0  0  0  0  0  0  0  0  0  0  0  0
  143.1665   78.9247  218.7494 H   0  0  0  0  0  0  0  0  0  0  0  0
  140.2204   78.2969  218.5141 H   0  0  0  0  0  0  0  0  0  0  0  0
  141.2791   78.7421  217.0772 H   0  0  0  0  0  0  0  0  0  0  0  0
  140.8972   76.3304  217.3686 H   0  0  0  0  0  0  0  0  0  0  0  0
  142.6337   76.8856  217.3987 H   0  0  0  0  0  0  0  0  0  0  0  0
  141.6493   75.1016  219.2039 H   0  0  0  0  0  0  0  0  0  0  0  0
  143.9389   76.4444  218.7050 H   0  0  0  0  0  0  0  0  0  0  0  0
  143.5709   76.9655  220.3572 H   0  0  0  0  0  0  0  0  0  0  0  0
  145.6836   75.3658  220.6252 H   0  0  0  0  0  0  0  0  0  0  0  0
  146.3542   73.1283  221.4422 H   0  0  0  0  0  0  0  0  0  0  0  0
  144.6716   71.2900  221.3554 H   0  0  0  0  0  0  0  0  0  0  0  0
  142.3891   71.7104  220.4713 H   0  0  0  0  0  0  0  0  0  0  0  0
  141.7578   73.9652  219.6648 H   0  0  0  0  0  0  0  0  0  0  0  0
  138.9055   69.7621  222.0840 H   0  0  0  0  0  0  0  0  0  0  0  0
  139.1087   68.2108  224.0005 H   0  0  0  0  0  0  0  0  0  0  0  0
  139.7250   67.8358  226.2539 H   0  0  0  0  0  0  0  0  0  0  0  0
  141.3349   71.0441  228.6064 H   0  0  0  0  0  0  0  0  0  0  0  0
  141.1331   72.6087  226.6773 H   0  0  0  0  0  0  0  0  0  0  0  0
  1  2  2  0
  2  3  1  0
  3  4  1  0
  4  5  1  0
  5  6  2  0
  5  7  1  0
  7  8  1  0
  8  9  1  0
  9 10  1  0
 10 11  1  0
 11 12  1  0
 12 13  1  0
 13 14  1  0
 14 15  1  0
 15 16  2  0
 16 17  1  0
 17 18  2  0
 18 19  1  0
 19 20  2  0
  2 21  1  0
 21 22  2  0
 22 23  1  0
 23 24  2  0
 24 25  1  0
 25 26  2  0
 26 27  1  0
 26 28  1  0
 28 29  2  0
 29 30  1  0
 30 31  2  0
 13  7  1  0
 20 15  1  0
 31 21  1  0
 30 24  1  0
  3 32  1  0
  4 33  1  0
  4 34  1  0
  8 35  1  0
  8 36  1  0
  9 37  1  0
  9 38  1  0
 10 39  1  0
 10 40  1  0
 11 41  1  0
 11 42  1  0
 12 43  1  0
 12 44  1  0
 13 45  1  6
 14 46  1  0
 14 47  1  0
 16 48  1  0
 17 49  1  0
 18 50  1  0
 19 51  1  0
 20 52  1  0
 22 53  1  0
 23 54  1  0
 25 55  1  0
 28 56  1  0
 29 57  1  0
M  END
>  <smiles>  (85) 
O=C(NCC(=O)N1CCCCCC1Cc1ccccc1)c1ccc2cc(Cl)ccc2n1

>  <score_type>  (85) 
oracle

>  <origin>  (85) 
autodockgpu

>  <m_score__min__energy>  (85) 
-7.1699999999999999

>  <m_primary>  (85) 
energy

>  <rmsd>  (85) 
2.3434555570186575

>  <m_score__min__rmsd>  (85) 
2.3434555570186575

>  <meeko>  (85) 
{"free_energy": -6.03, "intermolecular_energy": -9.61, "internal_energy": -2.58, "cluster_size": 10, "cluster_id": 6, "rank_in_cluster": 2}

>  <energy>  (85) 
-6.02

>  <cluster_rmsd>  (85) 
0.58

>  <cluster>  (85) 
6

$$$$

     RDKit          3D

 57 60  0  0  0  0  0  0  0  0999 V2000
  140.4380   73.0540  221.0830 O   0  0  0  0  0  0  0  0  0  0  0  0
  139.5340   73.0790  221.9600 C   0  0  0  0  0  0  0  0  0  0  0  0
  138.4570   73.9930  221.9610 N   0  0  0  0  0  0  0  0  0  0  0  0
  138.3140   75.0060  220.9110 C   0  0  0  0  0  0  0  0  0  0  0  0
  137.6240   76.1970  221.4210 C   0  0  0  0  0  0  0  0  0  0  0  0
  136.6200   75.9380  222.2050 O   0  0  0  0  0  0  0  0  0  0  0  0
  137.8720   77.5400  221.2020 N   0  0  0  0  0  0  0  0  0  0  0  0
  136.7110   78.1810  220.4950 C   0  0  0  0  0  0  0  0  0  0  0  0
  136.0680   79.0660  221.5300 C   0  0  0  0  0  0  0  0  0  0  0  0
  136.5890   80.4690  221.2910 C   0  0  0  0  0  0  0  0  0  0  0  0
  137.9800   80.5460  221.8330 C   0  0  0  0  0  0  0  0  0  0  0  0
  138.9910   79.7080  221.1080 C   0  0  0  0  0  0  0  0  0  0  0  0
  139.0260   78.2600  221.5890 C   0  0  1  0  0  0  0  0  0  0  0  0
  139.4380   78.2280  223.0230 C   0  0  0  0  0  0  0  0  0  0  0  0
  140.6420   79.1480  223.1340 C   0  0  0  0  0  0  0  0  0  0  0  0
  141.8670   78.7430  222.6300 C   0  0  0  0  0  0  0  0  0  0  0  0
  143.0050   79.5160  222.7020 C   0  0  0  0  0  0  0  0  0  0  0  0
  142.8880   80.7460  223.3100 C   0  0  0  0  0  0  0  0  0  0  0  0
  141.6680   81.1820  223.8260 C   0  0  0  0  0  0  0  0  0  0  0  0
  140.5510   80.3820  223.7360 C   0  0  0  0  0  0  0  0  0  0  0  0
  139.6040   72.0910  223.0550 C   0  0  0  0  0  0  0  0  0  0  0  0
  138.8190   70.9560  223.0410 C   0  0  0  0  0  0  0  0  0  0  0  0
  138.8520   70.0050  224.0420 C   0  0  0  0  0  0  0  0  0  0  0  0
  139.7140   70.2150  225.0980 C   0  0  0  0  0  0  0  0  0  0  0  0
  139.7570   69.2740  226.1050 C   0  0  0  0  0  0  0  0  0  0  0  0
  140.6110   69.4650  227.1660 C   0  0  0  0  0  0  0  0  0  0  0  0
  140.6360   68.2450  228.4270 Cl  0  0  0  0  0  0  0  0  0  0  0  0
  141.4110   70.5930  227.2090 C   0  0  0  0  0  0  0  0  0  0  0  0
  141.3740   71.5500  226.1940 C   0  0  0  0  0  0  0  0  0  0  0  0
  140.5090   71.3600  225.1160 C   0  0  0  0  0  0  0  0  0  0  0  0
  140.4370   72.2630  224.1050 N   0  0  0  0  0  0  0  0  0  0  0  0
  137.7490   73.9450  222.7280 H   0  0  0  0  0  0  0  0  0  0  0  0
  139.3125   75.2950  220.5513 H   0  0  0  0  0  0  0  0  0  0  0  0
  137.7180   74.5795  220.0907 H   0  0  0  0  0  0  0  0  0  0  0  0
  137.0603   78.7772  219.6391 H   0  0  0  0  0  0  0  0  0  0  0  0
  136.0085   77.4361  220.0928 H   0  0  0  0  0  0  0  0  0  0  0  0
  134.9738   79.0445  221.4196 H   0  0  0  0  0  0  0  0  0  0  0  0
  136.3090   78.7233  222.5471 H   0  0  0  0  0  0  0  0  0  0  0  0
  136.5965   80.6853  220.2125 H   0  0  0  0  0  0  0  0  0  0  0  0
  135.9435   81.2058  221.7914 H   0  0  0  0  0  0  0  0  0  0  0  0
  138.3078   81.5949  221.7834 H   0  0  0  0  0  0  0  0  0  0  0  0
  137.9323   80.1508  222.8585 H   0  0  0  0  0  0  0  0  0  0  0  0
  138.7464   79.7146  220.0356 H   0  0  0  0  0  0  0  0  0  0  0  0
  139.9811   80.1435  221.3080 H   0  0  0  0  0  0  0  0  0  0  0  0
  139.8060   77.6805  221.0734 H   0  0  0  0  0  0  0  0  0  0  0  0
  138.6203   78.5898  223.6637 H   0  0  0  0  0  0  0  0  0  0  0  0
  139.6807   77.2060  223.3495 H   0  0  0  0  0  0  0  0  0  0  0  0
  141.9344   77.7561  222.1489 H   0  0  0  0  0  0  0  0  0  0  0  0
  143.9641   79.1664  222.2922 H   0  0  0  0  0  0  0  0  0  0  0  0
  143.7720   81.3957  223.3900 H   0  0  0  0  0  0  0  0  0  0  0  0
  141.5978   82.1689  224.3068 H   0  0  0  0  0  0  0  0  0  0  0  0
  139.5897   80.7280  224.1437 H   0  0  0  0  0  0  0  0  0  0  0  0
  138.1353   70.8016  222.1932 H   0  0  0  0  0  0  0  0  0  0  0  0
  138.2128   69.1108  223.9985 H   0  0  0  0  0  0  0  0  0  0  0  0
  139.1159   68.3812  226.0602 H   0  0  0  0  0  0  0  0  0  0  0  0
  142.0907   70.7386  228.0615 H   0  0  0  0  0  0  0  0  0  0  0  0
  142.0173   72.4409  226.2432 H   0  0  0  0  0  0  0  0  0  0  0  0
  1  2  2  0
  2  3  1  0
  3  4  1  0
  4  5  1  0
  5  6  2  0
  5  7  1  0
  7  8  1  0
  8  9  1  0
  9 10  1  0
 10 11  1  0
 11 12  1  0
 12 13  1  0
 13 14  1  0
 14 15  1  0
 15 16  2  0
 16 17  1  0
 17 18  2  0
 18 19  1  0
 19 20  2  0
  2 21  1  0
 21 22  2  0
 22 23  1  0
 23 24  2  0
 24 25  1  0
 25 26  2  0
 26 27  1  0
 26 28  1  0
 28 29  2  0
 29 30  1  0
 30 31  2  0
 13  7  1  0
 20 15  1  0
 31 21  1  0
 30 24  1  0
  3 32  1  0
  4 33  1  0
  4 34  1  0
  8 35  1  0
  8 36  1  0
  9 37  1  0
  9 38  1  0
 10 39  1  0
 10 40  1  0
 11 41  1  0
 11 42  1  0
 12 43  1  0
 12 44  1  0
 13 45  1  6
 14 46  1  0
 14 47  1  0
 16 48  1  0
 17 49  1  0
 18 50  1  0
 19 51  1  0
 20 52  1  0
 22 53  1  0
 23 54  1  0
 25 55  1  0
 28 56  1  0
 29 57  1  0
M  END
>  <smiles>  (86) 
O=C(NCC(=O)N1CCCCCC1Cc1ccccc1)c1ccc2cc(Cl)ccc2n1

>  <score_type>  (86) 
oracle

>  <origin>  (86) 
autodockgpu

>  <m_score__min__energy>  (86) 
-7.1699999999999999

>  <m_primary>  (86) 
energy

>  <rmsd>  (86) 
3.382497273013527

>  <m_score__min__rmsd>  (86) 
3.382497273013527

>  <meeko>  (86) 
{"free_energy": -6.16, "intermolecular_energy": -9.74, "internal_energy": -1.85, "cluster_size": 2, "cluster_id": 7, "rank_in_cluster": 1}

>  <energy>  (86) 
-5.62

>  <cluster_rmsd>  (86) 
0.73

>  <cluster>  (86) 
6

$$$$

     RDKit          3D

 57 60  0  0  0  0  0  0  0  0999 V2000
  139.0110   71.5020  220.9290 O   0  0  0  0  0  0  0  0  0  0  0  0
  139.2740   72.0790  222.0180 C   0  0  0  0  0  0  0  0  0  0  0  0
  139.3700   73.4800  222.1670 N   0  0  0  0  0  0  0  0  0  0  0  0
  139.1630   74.3860  221.0330 C   0  0  0  0  0  0  0  0  0  0  0  0
  139.9800   75.5970  221.1730 C   0  0  0  0  0  0  0  0  0  0  0  0
  140.2150   75.9430  222.4040 O   0  0  0  0  0  0  0  0  0  0  0  0
  140.5350   76.4210  220.2110 N   0  0  0  0  0  0  0  0  0  0  0  0
  139.8530   76.2200  218.8880 C   0  0  0  0  0  0  0  0  0  0  0  0
  140.9690   76.1870  217.8780 C   0  0  0  0  0  0  0  0  0  0  0  0
  141.8890   75.0510  218.2770 C   0  0  0  0  0  0  0  0  0  0  0  0
  142.9380   75.6010  219.1890 C   0  0  0  0  0  0  0  0  0  0  0  0
  142.7840   77.0600  219.5060 C   0  0  0  0  0  0  0  0  0  0  0  0
  141.5820   77.3530  220.4000 C   0  0  1  0  0  0  0  0  0  0  0  0
  141.2610   78.8090  220.3290 C   0  0  0  0  0  0  0  0  0  0  0  0
  141.5790   79.3760  221.7020 C   0  0  0  0  0  0  0  0  0  0  0  0
  142.0790   80.6630  221.8170 C   0  0  0  0  0  0  0  0  0  0  0  0
  142.4000   81.2410  223.0250 C   0  0  0  0  0  0  0  0  0  0  0  0
  142.2050   80.4800  224.1560 C   0  0  0  0  0  0  0  0  0  0  0  0
  141.7020   79.1810  224.0710 C   0  0  0  0  0  0  0  0  0  0  0  0
  141.3920   78.6350  222.8460 C   0  0  0  0  0  0  0  0  0  0  0  0
  139.4970   71.2390  223.2100 C   0  0  0  0  0  0  0  0  0  0  0  0
  139.1460   69.9040  223.2170 C   0  0  0  0  0  0  0  0  0  0  0  0
  139.3370   69.0800  224.3090 C   0  0  0  0  0  0  0  0  0  0  0  0
  139.9040   69.6320  225.4380 C   0  0  0  0  0  0  0  0  0  0  0  0
  140.0990   68.8210  226.5360 C   0  0  0  0  0  0  0  0  0  0  0  0
  140.6650   69.3530  227.6710 C   0  0  0  0  0  0  0  0  0  0  0  0
  140.8970   68.2890  229.0460 Cl  0  0  0  0  0  0  0  0  0  0  0  0
  141.0280   70.6880  227.6960 C   0  0  0  0  0  0  0  0  0  0  0  0
  140.8340   71.5160  226.5900 C   0  0  0  0  0  0  0  0  0  0  0  0
  140.2610   70.9800  225.4350 C   0  0  0  0  0  0  0  0  0  0  0  0
  140.0520   71.7450  224.3340 N   0  0  0  0  0  0  0  0  0  0  0  0
  139.5920   73.8780  223.1080 H   0  0  0  0  0  0  0  0  0  0  0  0
  139.4425   73.8687  220.1033 H   0  0  0  0  0  0  0  0  0  0  0  0
  138.1030   74.6788  221.0066 H   0  0  0  0  0  0  0  0  0  0  0  0
  139.2956   75.2717  218.8800 H   0  0  0  0  0  0  0  0  0  0  0  0
  139.1235   77.0148  218.6732 H   0  0  0  0  0  0  0  0  0  0  0  0
  140.5631   76.0094  216.8712 H   0  0  0  0  0  0  0  0  0  0  0  0
  141.5106   77.1442  217.8577 H   0  0  0  0  0  0  0  0  0  0  0  0
  141.3141   74.2710  218.7976 H   0  0  0  0  0  0  0  0  0  0  0  0
  142.3546   74.6067  217.3850 H   0  0  0  0  0  0  0  0  0  0  0  0
  142.9015   75.0384  220.1335 H   0  0  0  0  0  0  0  0  0  0  0  0
  143.8978   75.4948  218.6621 H   0  0  0  0  0  0  0  0  0  0  0  0
  143.6942   77.4053  220.0182 H   0  0  0  0  0  0  0  0  0  0  0  0
  142.6226   77.5879  218.5546 H   0  0  0  0  0  0  0  0  0  0  0  0
  141.8142   77.1806  221.4613 H   0  0  0  0  0  0  0  0  0  0  0  0
  141.8774   79.2992  219.5610 H   0  0  0  0  0  0  0  0  0  0  0  0
  140.2081   78.9764  220.0582 H   0  0  0  0  0  0  0  0  0  0  0  0
  142.2266   81.2513  220.8994 H   0  0  0  0  0  0  0  0  0  0  0  0
  142.7950   82.2659  223.0839 H   0  0  0  0  0  0  0  0  0  0  0  0
  142.4495   80.9026  225.1417 H   0  0  0  0  0  0  0  0  0  0  0  0
  141.5526   78.5907  224.9871 H   0  0  0  0  0  0  0  0  0  0  0  0
  140.9964   77.6106  222.7820 H   0  0  0  0  0  0  0  0  0  0  0  0
  138.6929   69.4763  222.3104 H   0  0  0  0  0  0  0  0  0  0  0  0
  139.0466   68.0195  224.2789 H   0  0  0  0  0  0  0  0  0  0  0  0
  139.8054   67.7614  226.5045 H   0  0  0  0  0  0  0  0  0  0  0  0
  141.4795   71.1057  228.6080 H   0  0  0  0  0  0  0  0  0  0  0  0
  141.1281   72.5753  226.6273 H   0  0  0  0  0  0  0  0  0  0  0  0
  1  2  2  0
  2  3  1  0
  3  4  1  0
  4  5  1  0
  5  6  2  0
  5  7  1  0
  7  8  1  0
  8  9  1  0
  9 10  1  0
 10 11  1  0
 11 12  1  0
 12 13  1  0
 13 14  1  0
 14 15  1  0
 15 16  2  0
 16 17  1  0
 17 18  2  0
 18 19  1  0
 19 20  2  0
  2 21  1  0
 21 22  2  0
 22 23  1  0
 23 24  2  0
 24 25  1  0
 25 26  2  0
 26 27  1  0
 26 28  1  0
 28 29  2  0
 29 30  1  0
 30 31  2  0
 13  7  1  0
 20 15  1  0
 31 21  1  0
 30 24  1  0
  3 32  1  0
  4 33  1  0
  4 34  1  0
  8 35  1  0
  8 36  1  0
  9 37  1  0
  9 38  1  0
 10 39  1  0
 10 40  1  0
 11 41  1  0
 11 42  1  0
 12 43  1  0
 12 44  1  0
 13 45  1  1
 14 46  1  0
 14 47  1  0
 16 48  1  0
 17 49  1  0
 18 50  1  0
 19 51  1  0
 20 52  1  0
 22 53  1  0
 23 54  1  0
 25 55  1  0
 28 56  1  0
 29 57  1  0
M  END
>  <smiles>  (87) 
O=C(NCC(=O)N1CCCCCC1Cc1ccccc1)c1ccc2cc(Cl)ccc2n1

>  <score_type>  (87) 
oracle

>  <origin>  (87) 
autodockgpu

>  <m_score__min__energy>  (87) 
-7.1699999999999999

>  <m_primary>  (87) 
energy

>  <rmsd>  (87) 
1.286421864553504

>  <m_score__min__rmsd>  (87) 
1.286421864553504

>  <meeko>  (87) 
{"free_energy": -6.23, "intermolecular_energy": -9.81, "internal_energy": -2.38, "cluster_size": 19, "cluster_id": 1, "rank_in_cluster": 15}

>  <energy>  (87) 
-5.6

>  <cluster_rmsd>  (87) 
0.8

>  <cluster>  (87) 
6

$$$$

     RDKit          3D

 57 60  0  0  0  0  0  0  0  0999 V2000
  136.2710   77.5280  222.8200 O   0  0  0  0  0  0  0  0  0  0  0  0
  136.6660   76.3980  223.2130 C   0  0  0  0  0  0  0  0  0  0  0  0
  137.9630   75.8890  222.9790 N   0  0  0  0  0  0  0  0  0  0  0  0
  138.9670   76.6620  222.2420 C   0  0  0  0  0  0  0  0  0  0  0  0
  140.0490   75.7940  221.7620 C   0  0  0  0  0  0  0  0  0  0  0  0
  139.8420   74.5260  221.9550 O   0  0  0  0  0  0  0  0  0  0  0  0
  141.2450   76.1100  221.1420 N   0  0  0  0  0  0  0  0  0  0  0  0
  142.0590   74.8700  220.9070 C   0  0  0  0  0  0  0  0  0  0  0  0
  142.0890   74.7030  219.4110 C   0  0  0  0  0  0  0  0  0  0  0  0
  143.4530   75.1700  218.9450 C   0  0  0  0  0  0  0  0  0  0  0  0
  143.6030   76.6100  219.3160 C   0  0  0  0  0  0  0  0  0  0  0  0
  142.3220   77.3890  219.3630 C   0  0  0  0  0  0  0  0  0  0  0  0
  141.6760   77.3970  220.7460 C   0  0  1  0  0  0  0  0  0  0  0  0
  140.7070   78.5300  220.8280 C   0  0  0  0  0  0  0  0  0  0  0  0
  141.2400   79.4600  221.9040 C   0  0  0  0  0  0  0  0  0  0  0  0
  142.5590   79.3550  222.3130 C   0  0  0  0  0  0  0  0  0  0  0  0
  143.1120   80.1550  223.2890 C   0  0  0  0  0  0  0  0  0  0  0  0
  142.2890   81.0960  223.8670 C   0  0  0  0  0  0  0  0  0  0  0  0
  140.9570   81.2250  223.4760 C   0  0  0  0  0  0  0  0  0  0  0  0
  140.4380   80.4080  222.4970 C   0  0  0  0  0  0  0  0  0  0  0  0
  135.7160   75.5550  223.9640 C   0  0  0  0  0  0  0  0  0  0  0  0
  135.5500   74.2200  223.6540 C   0  0  0  0  0  0  0  0  0  0  0  0
  134.6730   73.3940  224.3290 C   0  0  0  0  0  0  0  0  0  0  0  0
  133.9360   73.9430  225.3580 C   0  0  0  0  0  0  0  0  0  0  0  0
  133.0570   73.1290  226.0400 C   0  0  0  0  0  0  0  0  0  0  0  0
  132.3140   73.6590  227.0690 C   0  0  0  0  0  0  0  0  0  0  0  0
  131.2070   72.5900  227.9130 Cl  0  0  0  0  0  0  0  0  0  0  0  0
  132.4580   74.9930  227.4040 C   0  0  0  0  0  0  0  0  0  0  0  0
  133.3450   75.8240  226.7190 C   0  0  0  0  0  0  0  0  0  0  0  0
  134.1020   75.2910  225.6740 C   0  0  0  0  0  0  0  0  0  0  0  0
  134.9780   76.0590  224.9780 N   0  0  0  0  0  0  0  0  0  0  0  0
  138.2100   74.9400  223.3410 H   0  0  0  0  0  0  0  0  0  0  0  0
  138.4860   77.1477  221.3802 H   0  0  0  0  0  0  0  0  0  0  0  0
  139.3957   77.4159  222.9186 H   0  0  0  0  0  0  0  0  0  0  0  0
  143.0777   74.9952  221.3028 H   0  0  0  0  0  0  0  0  0  0  0  0
  141.6309   73.9920  221.4128 H   0  0  0  0  0  0  0  0  0  0  0  0
  141.9394   73.6462  219.1450 H   0  0  0  0  0  0  0  0  0  0  0  0
  141.2880   75.2859  218.9329 H   0  0  0  0  0  0  0  0  0  0  0  0
  144.2381   74.5752  219.4348 H   0  0  0  0  0  0  0  0  0  0  0  0
  143.5468   75.0454  217.8561 H   0  0  0  0  0  0  0  0  0  0  0  0
  144.0691   76.6593  220.3111 H   0  0  0  0  0  0  0  0  0  0  0  0
  144.2135   77.0695  218.5247 H   0  0  0  0  0  0  0  0  0  0  0  0
  142.5331   78.4278  219.0693 H   0  0  0  0  0  0  0  0  0  0  0  0
  141.6163   76.9014  218.6744 H   0  0  0  0  0  0  0  0  0  0  0  0
  142.4101   77.6138  221.5360 H   0  0  0  0  0  0  0  0  0  0  0  0
  140.6502   79.0549  219.8630 H   0  0  0  0  0  0  0  0  0  0  0  0
  139.6932   78.1765  221.0672 H   0  0  0  0  0  0  0  0  0  0  0  0
  143.1961   78.5960  221.8354 H   0  0  0  0  0  0  0  0  0  0  0  0
  144.1636   80.0470  223.5929 H   0  0  0  0  0  0  0  0  0  0  0  0
  142.6893   81.7567  224.6501 H   0  0  0  0  0  0  0  0  0  0  0  0
  140.3177   81.9831  223.9520 H   0  0  0  0  0  0  0  0  0  0  0  0
  139.3869   80.5126  222.1901 H   0  0  0  0  0  0  0  0  0  0  0  0
  136.1437   73.7946  222.8314 H   0  0  0  0  0  0  0  0  0  0  0  0
  134.5657   72.3340  224.0554 H   0  0  0  0  0  0  0  0  0  0  0  0
  132.9512   72.0692  225.7648 H   0  0  0  0  0  0  0  0  0  0  0  0
  131.8600   75.4080  228.2287 H   0  0  0  0  0  0  0  0  0  0  0  0
  133.4464   76.8832  226.9981 H   0  0  0  0  0  0  0  0  0  0  0  0
  1  2  2  0
  2  3  1  0
  3  4  1  0
  4  5  1  0
  5  6  2  0
  5  7  1  0
  7  8  1  0
  8  9  1  0
  9 10  1  0
 10 11  1  0
 11 12  1  0
 12 13  1  0
 13 14  1  0
 14 15  1  0
 15 16  2  0
 16 17  1  0
 17 18  2  0
 18 19  1  0
 19 20  2  0
  2 21  1  0
 21 22  2  0
 22 23  1  0
 23 24  2  0
 24 25  1  0
 25 26  2  0
 26 27  1  0
 26 28  1  0
 28 29  2  0
 29 30  1  0
 30 31  2  0
 13  7  1  0
 20 15  1  0
 31 21  1  0
 30 24  1  0
  3 32  1  0
  4 33  1  0
  4 34  1  0
  8 35  1  0
  8 36  1  0
  9 37  1  0
  9 38  1  0
 10 39  1  0
 10 40  1  0
 11 41  1  0
 11 42  1  0
 12 43  1  0
 12 44  1  0
 13 45  1  1
 14 46  1  0
 14 47  1  0
 16 48  1  0
 17 49  1  0
 18 50  1  0
 19 51  1  0
 20 52  1  0
 22 53  1  0
 23 54  1  0
 25 55  1  0
 28 56  1  0
 29 57  1  0
M  END
>  <smiles>  (88) 
O=C(NCC(=O)N1CCCCCC1Cc1ccccc1)c1ccc2cc(Cl)ccc2n1

>  <score_type>  (88) 
oracle

>  <origin>  (88) 
autodockgpu

>  <m_score__min__energy>  (88) 
-7.1699999999999999

>  <m_primary>  (88) 
energy

>  <rmsd>  (88) 
5.717834459521825

>  <m_score__min__rmsd>  (88) 
5.717834459521825

>  <meeko>  (88) 
{"free_energy": -6.23, "intermolecular_energy": -9.81, "internal_energy": -1.94, "cluster_size": 2, "cluster_id": 5, "rank_in_cluster": 1}

>  <energy>  (88) 
-5.55

>  <cluster_rmsd>  (88) 
0.66

>  <cluster>  (88) 
6

$$$$

     RDKit          3D

 57 60  0  0  0  0  0  0  0  0999 V2000
  141.5730   73.1860  220.7490 O   0  0  0  0  0  0  0  0  0  0  0  0
  140.7850   73.9230  221.3990 C   0  0  0  0  0  0  0  0  0  0  0  0
  139.6990   73.4410  222.1620 N   0  0  0  0  0  0  0  0  0  0  0  0
  139.4050   72.0080  222.2520 C   0  0  0  0  0  0  0  0  0  0  0  0
  138.1490   71.7750  222.9750 C   0  0  0  0  0  0  0  0  0  0  0  0
  137.2850   72.7400  222.8700 O   0  0  0  0  0  0  0  0  0  0  0  0
  137.7410   70.6980  223.7430 N   0  0  0  0  0  0  0  0  0  0  0  0
  136.2430   70.5960  223.7520 C   0  0  0  0  0  0  0  0  0  0  0  0
  135.9560   69.1220  223.8610 C   0  0  0  0  0  0  0  0  0  0  0  0
  136.3310   68.5030  222.5300 C   0  0  0  0  0  0  0  0  0  0  0  0
  137.8160   68.3310  222.5010 C   0  0  0  0  0  0  0  0  0  0  0  0
  138.4810   68.3740  223.8460 C   0  0  0  0  0  0  0  0  0  0  0  0
  138.5770   69.7830  224.4240 C   0  0  1  0  0  0  0  0  0  0  0  0
  140.0140   70.1380  224.6170 C   0  0  0  0  0  0  0  0  0  0  0  0
  140.3870   69.6360  226.0010 C   0  0  0  0  0  0  0  0  0  0  0  0
  140.5430   70.5370  227.0410 C   0  0  0  0  0  0  0  0  0  0  0  0
  140.8910   70.1610  228.3200 C   0  0  0  0  0  0  0  0  0  0  0  0
  141.0860   68.8160  228.5440 C   0  0  0  0  0  0  0  0  0  0  0  0
  140.9360   67.8850  227.5170 C   0  0  0  0  0  0  0  0  0  0  0  0
  140.5880   68.2980  226.2510 C   0  0  0  0  0  0  0  0  0  0  0  0
  141.0120   75.3810  221.3610 C   0  0  0  0  0  0  0  0  0  0  0  0
  141.8520   75.9470  220.4240 C   0  0  0  0  0  0  0  0  0  0  0  0
  142.0930   77.3050  220.3510 C   0  0  0  0  0  0  0  0  0  0  0  0
  141.4570   78.1200  221.2640 C   0  0  0  0  0  0  0  0  0  0  0  0
  141.6890   79.4780  221.2020 C   0  0  0  0  0  0  0  0  0  0  0  0
  141.0630   80.3070  222.1040 C   0  0  0  0  0  0  0  0  0  0  0  0
  141.3830   82.0280  221.9930 Cl  0  0  0  0  0  0  0  0  0  0  0  0
  140.2140   79.7700  223.0550 C   0  0  0  0  0  0  0  0  0  0  0  0
  139.9740   78.3970  223.1250 C   0  0  0  0  0  0  0  0  0  0  0  0
  140.6070   77.5520  222.2120 C   0  0  0  0  0  0  0  0  0  0  0  0
  140.4050   76.2100  222.2400 N   0  0  0  0  0  0  0  0  0  0  0  0
  139.0930   74.1220  222.6720 H   0  0  0  0  0  0  0  0  0  0  0  0
  139.3182   71.5938  221.2367 H   0  0  0  0  0  0  0  0  0  0  0  0
  140.2221   71.5155  222.7995 H   0  0  0  0  0  0  0  0  0  0  0  0
  135.8234   71.1367  224.6131 H   0  0  0  0  0  0  0  0  0  0  0  0
  135.7922   71.0404  222.8524 H   0  0  0  0  0  0  0  0  0  0  0  0
  136.5573   68.6779  224.6679 H   0  0  0  0  0  0  0  0  0  0  0  0
  134.8962   68.9427  224.0949 H   0  0  0  0  0  0  0  0  0  0  0  0
  135.8399   67.5246  222.4220 H   0  0  0  0  0  0  0  0  0  0  0  0
  136.0057   69.1508  221.7027 H   0  0  0  0  0  0  0  0  0  0  0  0
  138.0388   67.3574  222.0401 H   0  0  0  0  0  0  0  0  0  0  0  0
  138.2153   69.1827  221.9308 H   0  0  0  0  0  0  0  0  0  0  0  0
  137.9025   67.7491  224.5423 H   0  0  0  0  0  0  0  0  0  0  0  0
  139.5084   68.0036  223.7148 H   0  0  0  0  0  0  0  0  0  0  0  0
  138.1497   69.8363  225.4362 H   0  0  0  0  0  0  0  0  0  0  0  0
  140.6348   69.6479  223.8525 H   0  0  0  0  0  0  0  0  0  0  0  0
  140.1773   71.2218  224.5240 H   0  0  0  0  0  0  0  0  0  0  0  0
  140.3811   71.6055  226.8359 H   0  0  0  0  0  0  0  0  0  0  0  0
  141.0078   70.9011  229.1254 H   0  0  0  0  0  0  0  0  0  0  0  0
  141.3648   68.4704  229.5504 H   0  0  0  0  0  0  0  0  0  0  0  0
  141.0965   66.8158  227.7194 H   0  0  0  0  0  0  0  0  0  0  0  0
  140.4710   67.5614  225.4424 H   0  0  0  0  0  0  0  0  0  0  0  0
  142.3530   75.2859  219.7016 H   0  0  0  0  0  0  0  0  0  0  0  0
  142.7693   77.7224  219.5905 H   0  0  0  0  0  0  0  0  0  0  0  0
  142.3660   79.8931  220.4409 H   0  0  0  0  0  0  0  0  0  0  0  0
  139.7170   80.4401  223.7720 H   0  0  0  0  0  0  0  0  0  0  0  0
  139.2962   77.9869  223.8882 H   0  0  0  0  0  0  0  0  0  0  0  0
  1  2  2  0
  2  3  1  0
  3  4  1  0
  4  5  1  0
  5  6  2  0
  5  7  1  0
  7  8  1  0
  8  9  1  0
  9 10  1  0
 10 11  1  0
 11 12  1  0
 12 13  1  0
 13 14  1  0
 14 15  1  0
 15 16  2  0
 16 17  1  0
 17 18  2  0
 18 19  1  0
 19 20  2  0
  2 21  1  0
 21 22  2  0
 22 23  1  0
 23 24  2  0
 24 25  1  0
 25 26  2  0
 26 27  1  0
 26 28  1  0
 28 29  2  0
 29 30  1  0
 30 31  2  0
 13  7  1  0
 20 15  1  0
 31 21  1  0
 30 24  1  0
  3 32  1  0
  4 33  1  0
  4 34  1  0
  8 35  1  0
  8 36  1  0
  9 37  1  0
  9 38  1  0
 10 39  1  0
 10 40  1  0
 11 41  1  0
 11 42  1  0
 12 43  1  0
 12 44  1  0
 13 45  1  1
 14 46  1  0
 14 47  1  0
 16 48  1  0
 17 49  1  0
 18 50  1  0
 19 51  1  0
 20 52  1  0
 22 53  1  0
 23 54  1  0
 25 55  1  0
 28 56  1  0
 29 57  1  0
M  END
>  <smiles>  (89) 
O=C(NCC(=O)N1CCCCCC1Cc1ccccc1)c1ccc2cc(Cl)ccc2n1

>  <score_type>  (89) 
oracle

>  <origin>  (89) 
autodockgpu

>  <m_score__min__energy>  (89) 
-7.1699999999999999

>  <m_primary>  (89) 
energy

>  <rmsd>  (89) 
8.321664661671477

>  <m_score__min__rmsd>  (89) 
8.321664661671477

>  <meeko>  (89) 
{"free_energy": -6.21, "intermolecular_energy": -9.79, "internal_energy": -2.17, "cluster_size": 5, "cluster_id": 4, "rank_in_cluster": 2}

>  <energy>  (89) 
-5.41

>  <cluster_rmsd>  (89) 
1.43

>  <cluster>  (89) 
6

$$$$

     RDKit          3D

 57 60  0  0  0  0  0  0  0  0999 V2000
  139.5480   72.1890  220.7460 O   0  0  0  0  0  0  0  0  0  0  0  0
  139.5350   72.6710  221.9090 C   0  0  0  0  0  0  0  0  0  0  0  0
  139.3920   74.0480  222.1930 N   0  0  0  0  0  0  0  0  0  0  0  0
  139.2440   75.0380  221.1220 C   0  0  0  0  0  0  0  0  0  0  0  0
  139.5000   76.3940  221.6230 C   0  0  0  0  0  0  0  0  0  0  0  0
  138.5020   76.9220  222.2660 O   0  0  0  0  0  0  0  0  0  0  0  0
  140.6260   77.1920  221.5200 N   0  0  0  0  0  0  0  0  0  0  0  0
  141.1490   77.5420  222.8830 C   0  0  0  0  0  0  0  0  0  0  0  0
  141.5200   78.9980  222.7940 C   0  0  0  0  0  0  0  0  0  0  0  0
  140.2540   79.7520  222.4410 C   0  0  0  0  0  0  0  0  0  0  0  0
  140.1500   79.8140  220.9520 C   0  0  0  0  0  0  0  0  0  0  0  0
  141.2700   79.1470  220.2070 C   0  0  0  0  0  0  0  0  0  0  0  0
  141.2460   77.6250  220.3250 C   0  0  1  0  0  0  0  0  0  0  0  0
  142.5970   77.0860  219.9880 C   0  0  0  0  0  0  0  0  0  0  0  0
  142.4120   75.5910  219.7870 C   0  0  0  0  0  0  0  0  0  0  0  0
  143.1060   74.6990  220.5880 C   0  0  0  0  0  0  0  0  0  0  0  0
  142.9990   73.3310  220.4600 C   0  0  0  0  0  0  0  0  0  0  0  0
  142.1550   72.8580  219.4800 C   0  0  0  0  0  0  0  0  0  0  0  0
  141.4440   73.7330  218.6580 C   0  0  0  0  0  0  0  0  0  0  0  0
  141.5750   75.0940  218.8160 C   0  0  0  0  0  0  0  0  0  0  0  0
  139.6790   71.7410  223.0460 C   0  0  0  0  0  0  0  0  0  0  0  0
  139.2830   70.4230  222.9420 C   0  0  0  0  0  0  0  0  0  0  0  0
  139.3990   69.5180  223.9790 C   0  0  0  0  0  0  0  0  0  0  0  0
  139.9370   69.9670  225.1660 C   0  0  0  0  0  0  0  0  0  0  0  0
  140.0580   69.0740  226.2090 C   0  0  0  0  0  0  0  0  0  0  0  0
  140.5920   69.5030  227.4020 C   0  0  0  0  0  0  0  0  0  0  0  0
  140.7300   68.3360  228.7040 Cl  0  0  0  0  0  0  0  0  0  0  0  0
  141.0000   70.8190  227.5370 C   0  0  0  0  0  0  0  0  0  0  0  0
  140.8810   71.7290  226.4860 C   0  0  0  0  0  0  0  0  0  0  0  0
  140.3390   71.2980  225.2750 C   0  0  0  0  0  0  0  0  0  0  0  0
  140.2020   72.1460  224.2240 N   0  0  0  0  0  0  0  0  0  0  0  0
  139.3910   74.3650  223.1890 H   0  0  0  0  0  0  0  0  0  0  0  0
  139.9602   74.8096  220.3189 H   0  0  0  0  0  0  0  0  0  0  0  0
  138.2129   74.9927  220.7416 H   0  0  0  0  0  0  0  0  0  0  0  0
  140.3729   77.3865  223.6469 H   0  0  0  0  0  0  0  0  0  0  0  0
  142.0046   76.9138  223.1718 H   0  0  0  0  0  0  0  0  0  0  0  0
  141.9125   79.3484  223.7600 H   0  0  0  0  0  0  0  0  0  0  0  0
  142.3004   79.1607  222.0361 H   0  0  0  0  0  0  0  0  0  0  0  0
  139.3801   79.2271  222.8542 H   0  0  0  0  0  0  0  0  0  0  0  0
  140.2851   80.7673  222.8632 H   0  0  0  0  0  0  0  0  0  0  0  0
  139.2078   79.3298  220.6558 H   0  0  0  0  0  0  0  0  0  0  0  0
  140.1972   80.8802  220.6857 H   0  0  0  0  0  0  0  0  0  0  0  0
  141.1923   79.4168  219.1434 H   0  0  0  0  0  0  0  0  0  0  0  0
  142.2133   79.4954  220.6529 H   0  0  0  0  0  0  0  0  0  0  0  0
  140.5804   77.1699  219.5768 H   0  0  0  0  0  0  0  0  0  0  0  0
  142.9756   77.5518  219.0662 H   0  0  0  0  0  0  0  0  0  0  0  0
  143.3262   77.2989  220.7836 H   0  0  0  0  0  0  0  0  0  0  0  0
  143.7744   75.1018  221.3632 H   0  0  0  0  0  0  0  0  0  0  0  0
  143.5627   72.6473  221.1117 H   0  0  0  0  0  0  0  0  0  0  0  0
  142.0395   71.7727  219.3430 H   0  0  0  0  0  0  0  0  0  0  0  0
  140.7761   73.3335  217.8806 H   0  0  0  0  0  0  0  0  0  0  0  0
  141.0121   75.7816  218.1677 H   0  0  0  0  0  0  0  0  0  0  0  0
  138.8553   70.0773  221.9893 H   0  0  0  0  0  0  0  0  0  0  0  0
  139.0730   68.4740  223.8615 H   0  0  0  0  0  0  0  0  0  0  0  0
  139.7314   68.0305  226.0888 H   0  0  0  0  0  0  0  0  0  0  0  0
  141.4272   71.1545  228.4935 H   0  0  0  0  0  0  0  0  0  0  0  0
  141.2098   72.7713  226.6105 H   0  0  0  0  0  0  0  0  0  0  0  0
  1  2  2  0
  2  3  1  0
  3  4  1  0
  4  5  1  0
  5  6  2  0
  5  7  1  0
  7  8  1  0
  8  9  1  0
  9 10  1  0
 10 11  1  0
 11 12  1  0
 12 13  1  0
 13 14  1  0
 14 15  1  0
 15 16  2  0
 16 17  1  0
 17 18  2  0
 18 19  1  0
 19 20  2  0
  2 21  1  0
 21 22  2  0
 22 23  1  0
 23 24  2  0
 24 25  1  0
 25 26  2  0
 26 27  1  0
 26 28  1  0
 28 29  2  0
 29 30  1  0
 30 31  2  0
 13  7  1  0
 20 15  1  0
 31 21  1  0
 30 24  1  0
  3 32  1  0
  4 33  1  0
  4 34  1  0
  8 35  1  0
  8 36  1  0
  9 37  1  0
  9 38  1  0
 10 39  1  0
 10 40  1  0
 11 41  1  0
 11 42  1  0
 12 43  1  0
 12 44  1  0
 13 45  1  6
 14 46  1  0
 14 47  1  0
 16 48  1  0
 17 49  1  0
 18 50  1  0
 19 51  1  0
 20 52  1  0
 22 53  1  0
 23 54  1  0
 25 55  1  0
 28 56  1  0
 29 57  1  0
M  END
>  <smiles>  (90) 
O=C(NCC(=O)N1CCCCCC1Cc1ccccc1)c1ccc2cc(Cl)ccc2n1

>  <score_type>  (90) 
oracle

>  <origin>  (90) 
autodockgpu

>  <m_score__min__energy>  (90) 
-7.1699999999999999

>  <m_primary>  (90) 
energy

>  <rmsd>  (90) 
3.0440355893426765

>  <m_score__min__rmsd>  (90) 
3.0440355893426765

>  <meeko>  (90) 
{"free_energy": -5.41, "intermolecular_energy": -8.99, "internal_energy": -2.55, "cluster_size": 10, "cluster_id": 6, "rank_in_cluster": 7}

>  <energy>  (90) 
-5.15

>  <cluster_rmsd>  (90) 
1.6

>  <cluster>  (90) 
6

$$$$

     RDKit          3D

 57 60  0  0  0  0  0  0  0  0999 V2000
  138.9560   71.6750  220.9490 O   0  0  0  0  0  0  0  0  0  0  0  0
  139.2410   72.2370  222.0400 C   0  0  0  0  0  0  0  0  0  0  0  0
  139.3480   73.6360  222.2040 N   0  0  0  0  0  0  0  0  0  0  0  0
  139.1290   74.5560  221.0850 C   0  0  0  0  0  0  0  0  0  0  0  0
  140.0940   75.6610  221.1180 C   0  0  0  0  0  0  0  0  0  0  0  0
  140.4050   76.0640  222.3140 O   0  0  0  0  0  0  0  0  0  0  0  0
  140.7210   76.3370  220.0860 N   0  0  0  0  0  0  0  0  0  0  0  0
  139.9670   76.1510  218.8000 C   0  0  0  0  0  0  0  0  0  0  0  0
  140.5010   77.2160  217.8800 C   0  0  0  0  0  0  0  0  0  0  0  0
  141.6910   76.6150  217.1580 C   0  0  0  0  0  0  0  0  0  0  0  0
  142.9310   77.0360  217.8780 C   0  0  0  0  0  0  0  0  0  0  0  0
  143.0220   76.5810  219.3070 C   0  0  0  0  0  0  0  0  0  0  0  0
  141.8930   77.1220  220.1810 C   0  0  1  0  0  0  0  0  0  0  0  0
  141.7810   78.5970  219.9800 C   0  0  0  0  0  0  0  0  0  0  0  0
  141.4880   79.1850  221.3500 C   0  0  0  0  0  0  0  0  0  0  0  0
  142.4950   79.8220  222.0560 C   0  0  0  0  0  0  0  0  0  0  0  0
  142.3090   80.3700  223.3060 C   0  0  0  0  0  0  0  0  0  0  0  0
  141.0500   80.2640  223.8550 C   0  0  0  0  0  0  0  0  0  0  0  0
  140.0160   79.6280  223.1670 C   0  0  0  0  0  0  0  0  0  0  0  0
  140.2390   79.0930  221.9200 C   0  0  0  0  0  0  0  0  0  0  0  0
  139.4770   71.3810  223.2190 C   0  0  0  0  0  0  0  0  0  0  0  0
  139.1390   70.0430  223.2070 C   0  0  0  0  0  0  0  0  0  0  0  0
  139.3420   69.2050  224.2850 C   0  0  0  0  0  0  0  0  0  0  0  0
  139.9080   69.7460  225.4200 C   0  0  0  0  0  0  0  0  0  0  0  0
  140.1160   68.9200  226.5050 C   0  0  0  0  0  0  0  0  0  0  0  0
  140.6800   69.4410  227.6460 C   0  0  0  0  0  0  0  0  0  0  0  0
  140.9290   68.3580  229.0040 Cl  0  0  0  0  0  0  0  0  0  0  0  0
  141.0300   70.7790  227.6900 C   0  0  0  0  0  0  0  0  0  0  0  0
  140.8230   71.6210  226.5970 C   0  0  0  0  0  0  0  0  0  0  0  0
  140.2510   71.0970  225.4370 C   0  0  0  0  0  0  0  0  0  0  0  0
  140.0300   71.8770  224.3480 N   0  0  0  0  0  0  0  0  0  0  0  0
  139.5880   74.0210  223.1460 H   0  0  0  0  0  0  0  0  0  0  0  0
  139.2435   74.0062  220.1392 H   0  0  0  0  0  0  0  0  0  0  0  0
  138.1145   74.9733  221.1669 H   0  0  0  0  0  0  0  0  0  0  0  0
  140.1538   75.1503  218.3832 H   0  0  0  0  0  0  0  0  0  0  0  0
  138.8794   76.2340  218.9421 H   0  0  0  0  0  0  0  0  0  0  0  0
  139.7285   77.5124  217.1552 H   0  0  0  0  0  0  0  0  0  0  0  0
  140.7939   78.1140  218.4438 H   0  0  0  0  0  0  0  0  0  0  0  0
  141.6130   75.5178  217.1597 H   0  0  0  0  0  0  0  0  0  0  0  0
  141.7193   76.9622  216.1146 H   0  0  0  0  0  0  0  0  0  0  0  0
  143.7961   76.6283  217.3345 H   0  0  0  0  0  0  0  0  0  0  0  0
  142.9112   78.1355  217.9065 H   0  0  0  0  0  0  0  0  0  0  0  0
  142.9845   75.4818  219.3275 H   0  0  0  0  0  0  0  0  0  0  0  0
  143.9671   76.9686  219.7150 H   0  0  0  0  0  0  0  0  0  0  0  0
  142.1206   77.0135  221.2517 H   0  0  0  0  0  0  0  0  0  0  0  0
  142.7242   79.0016  219.5841 H   0  0  0  0  0  0  0  0  0  0  0  0
  140.9904   78.8463  219.2569 H   0  0  0  0  0  0  0  0  0  0  0  0
  143.4917   79.8938  221.5962 H   0  0  0  0  0  0  0  0  0  0  0  0
  143.1292   80.8700  223.8419 H   0  0  0  0  0  0  0  0  0  0  0  0
  140.8567   80.6875  224.8516 H   0  0  0  0  0  0  0  0  0  0  0  0
  139.0182   79.5543  223.6241 H   0  0  0  0  0  0  0  0  0  0  0  0
  139.4215   78.5931  221.3799 H   0  0  0  0  0  0  0  0  0  0  0  0
  138.6867   69.6247  222.2957 H   0  0  0  0  0  0  0  0  0  0  0  0
  139.0619   68.1422  224.2401 H   0  0  0  0  0  0  0  0  0  0  0  0
  139.8342   67.8577  226.4582 H   0  0  0  0  0  0  0  0  0  0  0  0
  141.4811   71.1875  228.6063 H   0  0  0  0  0  0  0  0  0  0  0  0
  141.1066   72.6826  226.6489 H   0  0  0  0  0  0  0  0  0  0  0  0
  1  2  2  0
  2  3  1  0
  3  4  1  0
  4  5  1  0
  5  6  2  0
  5  7  1  0
  7  8  1  0
  8  9  1  0
  9 10  1  0
 10 11  1  0
 11 12  1  0
 12 13  1  0
 13 14  1  0
 14 15  1  0
 15 16  2  0
 16 17  1  0
 17 18  2  0
 18 19  1  0
 19 20  2  0
  2 21  1  0
 21 22  2  0
 22 23  1  0
 23 24  2  0
 24 25  1  0
 25 26  2  0
 26 27  1  0
 26 28  1  0
 28 29  2  0
 29 30  1  0
 30 31  2  0
 13  7  1  0
 20 15  1  0
 31 21  1  0
 30 24  1  0
  3 32  1  0
  4 33  1  0
  4 34  1  0
  8 35  1  0
  8 36  1  0
  9 37  1  0
  9 38  1  0
 10 39  1  0
 10 40  1  0
 11 41  1  0
 11 42  1  0
 12 43  1  0
 12 44  1  0
 13 45  1  1
 14 46  1  0
 14 47  1  0
 16 48  1  0
 17 49  1  0
 18 50  1  0
 19 51  1  0
 20 52  1  0
 22 53  1  0
 23 54  1  0
 25 55  1  0
 28 56  1  0
 29 57  1  0
M  END
>  <smiles>  (91) 
O=C(NCC(=O)N1CCCCCC1Cc1ccccc1)c1ccc2cc(Cl)ccc2n1

>  <score_type>  (91) 
oracle

>  <origin>  (91) 
autodockgpu

>  <m_score__min__energy>  (91) 
-7.1699999999999999

>  <m_primary>  (91) 
energy

>  <rmsd>  (91) 
1.3209933923555401

>  <m_score__min__rmsd>  (91) 
1.3209933923555401

>  <meeko>  (91) 
{"free_energy": -6.72, "intermolecular_energy": -10.3, "internal_energy": -1.98, "cluster_size": 19, "cluster_id": 1, "rank_in_cluster": 5}

>  <energy>  (91) 
-5.13

>  <cluster_rmsd>  (91) 
1.23

>  <cluster>  (91) 
6

$$$$

     RDKit          3D

 57 60  0  0  0  0  0  0  0  0999 V2000
  138.9490   71.5230  220.9090 O   0  0  0  0  0  0  0  0  0  0  0  0
  139.3040   72.0660  221.9890 C   0  0  0  0  0  0  0  0  0  0  0  0
  139.5210   73.4540  222.1420 N   0  0  0  0  0  0  0  0  0  0  0  0
  139.3430   74.3830  221.0220 C   0  0  0  0  0  0  0  0  0  0  0  0
  140.3740   75.4270  221.0390 C   0  0  0  0  0  0  0  0  0  0  0  0
  141.0410   75.5020  222.1520 O   0  0  0  0  0  0  0  0  0  0  0  0
  140.7470   76.3370  220.0650 N   0  0  0  0  0  0  0  0  0  0  0  0
  139.8830   76.1840  218.8450 C   0  0  0  0  0  0  0  0  0  0  0  0
  140.7780   76.5470  217.6890 C   0  0  0  0  0  0  0  0  0  0  0  0
  141.8040   75.4380  217.5650 C   0  0  0  0  0  0  0  0  0  0  0  0
  142.8670   75.6710  218.5890 C   0  0  0  0  0  0  0  0  0  0  0  0
  142.9020   77.0530  219.1680 C   0  0  0  0  0  0  0  0  0  0  0  0
  141.7720   77.3060  220.1620 C   0  0  1  0  0  0  0  0  0  0  0  0
  141.3930   78.7490  220.1190 C   0  0  0  0  0  0  0  0  0  0  0  0
  141.6440   79.2910  221.5160 C   0  0  0  0  0  0  0  0  0  0  0  0
  141.9960   80.6190  221.6870 C   0  0  0  0  0  0  0  0  0  0  0  0
  142.2490   81.1800  222.9190 C   0  0  0  0  0  0  0  0  0  0  0  0
  142.1400   80.3550  224.0160 C   0  0  0  0  0  0  0  0  0  0  0  0
  141.7870   79.0120  223.8760 C   0  0  0  0  0  0  0  0  0  0  0  0
  141.5410   78.4870  222.6280 C   0  0  0  0  0  0  0  0  0  0  0  0
  139.5060   71.2000  223.1670 C   0  0  0  0  0  0  0  0  0  0  0  0
  139.0940   69.8830  223.1610 C   0  0  0  0  0  0  0  0  0  0  0  0
  139.2620   69.0360  224.2390 C   0  0  0  0  0  0  0  0  0  0  0  0
  139.8720   69.5450  225.3660 C   0  0  0  0  0  0  0  0  0  0  0  0
  140.0460   68.7100  226.4500 C   0  0  0  0  0  0  0  0  0  0  0  0
  140.6520   69.2000  227.5830 C   0  0  0  0  0  0  0  0  0  0  0  0
  140.8560   68.1070  228.9400 Cl  0  0  0  0  0  0  0  0  0  0  0  0
  141.0770   70.5160  227.6200 C   0  0  0  0  0  0  0  0  0  0  0  0
  140.9040   71.3680  226.5280 C   0  0  0  0  0  0  0  0  0  0  0  0
  140.2900   70.8750  225.3760 C   0  0  0  0  0  0  0  0  0  0  0  0
  140.1000   71.6650  224.2880 N   0  0  0  0  0  0  0  0  0  0  0  0
  139.8150   73.8230  223.0740 H   0  0  0  0  0  0  0  0  0  0  0  0
  139.4113   73.8247  220.0767 H   0  0  0  0  0  0  0  0  0  0  0  0
  138.3568   74.8613  221.1153 H   0  0  0  0  0  0  0  0  0  0  0  0
  139.5284   75.1471  218.7493 H   0  0  0  0  0  0  0  0  0  0  0  0
  138.9862   76.8193  218.8901 H   0  0  0  0  0  0  0  0  0  0  0  0
  140.1888   76.6232  216.7632 H   0  0  0  0  0  0  0  0  0  0  0  0
  141.2653   77.5188  217.8568 H   0  0  0  0  0  0  0  0  0  0  0  0
  141.3235   74.4644  217.7415 H   0  0  0  0  0  0  0  0  0  0  0  0
  142.2416   75.4354  216.5558 H   0  0  0  0  0  0  0  0  0  0  0  0
  142.7073   74.9604  219.4134 H   0  0  0  0  0  0  0  0  0  0  0  0
  143.8270   75.5326  218.0701 H   0  0  0  0  0  0  0  0  0  0  0  0
  143.8628   77.1934  219.6848 H   0  0  0  0  0  0  0  0  0  0  0  0
  142.7780   77.7635  218.3374 H   0  0  0  0  0  0  0  0  0  0  0  0
  142.1022   77.1458  221.1990 H   0  0  0  0  0  0  0  0  0  0  0  0
  142.0121   79.2848  219.3844 H   0  0  0  0  0  0  0  0  0  0  0  0
  140.3429   78.8805  219.8190 H   0  0  0  0  0  0  0  0  0  0  0  0
  142.0776   81.2574  220.7949 H   0  0  0  0  0  0  0  0  0  0  0  0
  142.5257   82.2396  223.0221 H   0  0  0  0  0  0  0  0  0  0  0  0
  142.3344   80.7612  225.0196 H   0  0  0  0  0  0  0  0  0  0  0  0
  141.7052   78.3710  224.7662 H   0  0  0  0  0  0  0  0  0  0  0  0
  141.2630   77.4282  222.5197 H   0  0  0  0  0  0  0  0  0  0  0  0
  138.6092   69.4894  222.2554 H   0  0  0  0  0  0  0  0  0  0  0  0
  138.9208   67.9910  224.1998 H   0  0  0  0  0  0  0  0  0  0  0  0
  139.7043   67.6652  226.4087 H   0  0  0  0  0  0  0  0  0  0  0  0
  141.5619   70.8993  228.5299 H   0  0  0  0  0  0  0  0  0  0  0  0
  141.2465   72.4123  226.5748 H   0  0  0  0  0  0  0  0  0  0  0  0
  1  2  2  0
  2  3  1  0
  3  4  1  0
  4  5  1  0
  5  6  2  0
  5  7  1  0
  7  8  1  0
  8  9  1  0
  9 10  1  0
 10 11  1  0
 11 12  1  0
 12 13  1  0
 13 14  1  0
 14 15  1  0
 15 16  2  0
 16 17  1  0
 17 18  2  0
 18 19  1  0
 19 20  2  0
  2 21  1  0
 21 22  2  0
 22 23  1  0
 23 24  2  0
 24 25  1  0
 25 26  2  0
 26 27  1  0
 26 28  1  0
 28 29  2  0
 29 30  1  0
 30 31  2  0
 13  7  1  0
 20 15  1  0
 31 21  1  0
 30 24  1  0
  3 32  1  0
  4 33  1  0
  4 34  1  0
  8 35  1  0
  8 36  1  0
  9 37  1  0
  9 38  1  0
 10 39  1  0
 10 40  1  0
 11 41  1  0
 11 42  1  0
 12 43  1  0
 12 44  1  0
 13 45  1  1
 14 46  1  0
 14 47  1  0
 16 48  1  0
 17 49  1  0
 18 50  1  0
 19 51  1  0
 20 52  1  0
 22 53  1  0
 23 54  1  0
 25 55  1  0
 28 56  1  0
 29 57  1  0
M  END
>  <smiles>  (92) 
O=C(NCC(=O)N1CCCCCC1Cc1ccccc1)c1ccc2cc(Cl)ccc2n1

>  <score_type>  (92) 
oracle

>  <origin>  (92) 
autodockgpu

>  <m_score__min__energy>  (92) 
-7.1699999999999999

>  <m_primary>  (92) 
energy

>  <rmsd>  (92) 
1.253118228186359

>  <m_score__min__rmsd>  (92) 
1.253118228186359

>  <meeko>  (92) 
{"free_energy": -6.32, "intermolecular_energy": -9.9, "internal_energy": -2.38, "cluster_size": 19, "cluster_id": 1, "rank_in_cluster": 14}

>  <energy>  (92) 
-4.9

>  <cluster_rmsd>  (92) 
1.68

>  <cluster>  (92) 
6

$$$$

     RDKit          3D

 57 60  0  0  0  0  0  0  0  0999 V2000
  139.4040   71.6590  220.4400 O   0  0  0  0  0  0  0  0  0  0  0  0
  139.4870   72.2240  221.5630 C   0  0  0  0  0  0  0  0  0  0  0  0
  139.4400   73.6230  221.7500 N   0  0  0  0  0  0  0  0  0  0  0  0
  139.2870   74.5410  220.6170 C   0  0  0  0  0  0  0  0  0  0  0  0
  140.2610   74.2380  219.5620 C   0  0  0  0  0  0  0  0  0  0  0  0
  139.7300   73.9190  218.4190 O   0  0  0  0  0  0  0  0  0  0  0  0
  141.6450   74.2380  219.5900 N   0  0  0  0  0  0  0  0  0  0  0  0
  142.1830   72.9530  219.0280 C   0  0  0  0  0  0  0  0  0  0  0  0
  142.6880   72.1900  220.2240 C   0  0  0  0  0  0  0  0  0  0  0  0
  144.1790   72.4450  220.3080 C   0  0  0  0  0  0  0  0  0  0  0  0
  144.3850   73.8240  220.8470 C   0  0  0  0  0  0  0  0  0  0  0  0
  143.9600   74.9340  219.9310 C   0  0  0  0  0  0  0  0  0  0  0  0
  142.4790   75.2820  220.0520 C   0  0  1  0  0  0  0  0  0  0  0  0
  142.2540   76.6600  219.5230 C   0  0  0  0  0  0  0  0  0  0  0  0
  141.7490   77.4820  220.6970 C   0  0  0  0  0  0  0  0  0  0  0  0
  141.9210   78.8560  220.7000 C   0  0  0  0  0  0  0  0  0  0  0  0
  141.5000   79.6660  221.7310 C   0  0  0  0  0  0  0  0  0  0  0  0
  140.8820   79.0520  222.7980 C   0  0  0  0  0  0  0  0  0  0  0  0
  140.6950   77.6700  222.8230 C   0  0  0  0  0  0  0  0  0  0  0  0
  141.1290   76.8920  221.7740 C   0  0  0  0  0  0  0  0  0  0  0  0
  139.6420   71.3710  222.7580 C   0  0  0  0  0  0  0  0  0  0  0  0
  139.1990   70.0640  222.7620 C   0  0  0  0  0  0  0  0  0  0  0  0
  139.3240   69.2300  223.8560 C   0  0  0  0  0  0  0  0  0  0  0  0
  139.9210   69.7420  224.9880 C   0  0  0  0  0  0  0  0  0  0  0  0
  140.0520   68.9190  226.0880 C   0  0  0  0  0  0  0  0  0  0  0  0
  140.6460   69.4120  227.2260 C   0  0  0  0  0  0  0  0  0  0  0  0
  140.7950   68.3350  228.6030 Cl  0  0  0  0  0  0  0  0  0  0  0  0
  141.1020   70.7180  227.2530 C   0  0  0  0  0  0  0  0  0  0  0  0
  140.9740   71.5560  226.1450 C   0  0  0  0  0  0  0  0  0  0  0  0
  140.3720   71.0610  224.9880 C   0  0  0  0  0  0  0  0  0  0  0  0
  140.2240   71.8380  223.8850 N   0  0  0  0  0  0  0  0  0  0  0  0
  139.5160   74.0110  222.7180 H   0  0  0  0  0  0  0  0  0  0  0  0
  138.2707   74.4420  220.2080 H   0  0  0  0  0  0  0  0  0  0  0  0
  139.4605   75.5679  220.9710 H   0  0  0  0  0  0  0  0  0  0  0  0
  141.3874   72.3905  218.5175 H   0  0  0  0  0  0  0  0  0  0  0  0
  142.9730   73.1252  218.2822 H   0  0  0  0  0  0  0  0  0  0  0  0
  142.1907   72.5464  221.1382 H   0  0  0  0  0  0  0  0  0  0  0  0
  142.4763   71.1151  220.1247 H   0  0  0  0  0  0  0  0  0  0  0  0
  144.6459   71.7089  220.9790 H   0  0  0  0  0  0  0  0  0  0  0  0
  144.6380   72.3525  219.3126 H   0  0  0  0  0  0  0  0  0  0  0  0
  143.8113   73.9142  221.7812 H   0  0  0  0  0  0  0  0  0  0  0  0
  145.4699   73.9400  220.9871 H   0  0  0  0  0  0  0  0  0  0  0  0
  144.5502   75.8306  220.1714 H   0  0  0  0  0  0  0  0  0  0  0  0
  144.1309   74.5898  218.9003 H   0  0  0  0  0  0  0  0  0  0  0  0
  142.1612   75.3422  221.1034 H   0  0  0  0  0  0  0  0  0  0  0  0
  143.1951   77.0803  219.1388 H   0  0  0  0  0  0  0  0  0  0  0  0
  141.5336   76.6598  218.6917 H   0  0  0  0  0  0  0  0  0  0  0  0
  142.4180   79.3231  219.8370 H   0  0  0  0  0  0  0  0  0  0  0  0
  141.6506   80.7553  221.7037 H   0  0  0  0  0  0  0  0  0  0  0  0
  140.5304   79.6612  223.6437 H   0  0  0  0  0  0  0  0  0  0  0  0
  140.1986   77.2000  223.6848 H   0  0  0  0  0  0  0  0  0  0  0  0
  140.9806   75.8023  221.7967 H   0  0  0  0  0  0  0  0  0  0  0  0
  138.7245   69.6681  221.8520 H   0  0  0  0  0  0  0  0  0  0  0  0
  138.9595   68.1926  223.8249 H   0  0  0  0  0  0  0  0  0  0  0  0
  139.6860   67.8822  226.0549 H   0  0  0  0  0  0  0  0  0  0  0  0
  141.5757   71.1039  228.1678 H   0  0  0  0  0  0  0  0  0  0  0  0
  141.3423   72.5918  226.1831 H   0  0  0  0  0  0  0  0  0  0  0  0
  1  2  2  0
  2  3  1  0
  3  4  1  0
  4  5  1  0
  5  6  2  0
  5  7  1  0
  7  8  1  0
  8  9  1  0
  9 10  1  0
 10 11  1  0
 11 12  1  0
 12 13  1  0
 13 14  1  0
 14 15  1  0
 15 16  2  0
 16 17  1  0
 17 18  2  0
 18 19  1  0
 19 20  2  0
  2 21  1  0
 21 22  2  0
 22 23  1  0
 23 24  2  0
 24 25  1  0
 25 26  2  0
 26 27  1  0
 26 28  1  0
 28 29  2  0
 29 30  1  0
 30 31  2  0
 13  7  1  0
 20 15  1  0
 31 21  1  0
 30 24  1  0
  3 32  1  0
  4 33  1  0
  4 34  1  0
  8 35  1  0
  8 36  1  0
  9 37  1  0
  9 38  1  0
 10 39  1  0
 10 40  1  0
 11 41  1  0
 11 42  1  0
 12 43  1  0
 12 44  1  0
 13 45  1  1
 14 46  1  0
 14 47  1  0
 16 48  1  0
 17 49  1  0
 18 50  1  0
 19 51  1  0
 20 52  1  0
 22 53  1  0
 23 54  1  0
 25 55  1  0
 28 56  1  0
 29 57  1  0
M  END
>  <smiles>  (93) 
O=C(NCC(=O)N1CCCCCC1Cc1ccccc1)c1ccc2cc(Cl)ccc2n1

>  <score_type>  (93) 
oracle

>  <origin>  (93) 
autodockgpu

>  <m_score__min__energy>  (93) 
-7.1699999999999999

>  <m_primary>  (93) 
energy

>  <rmsd>  (93) 
2.4431709664812864

>  <m_score__min__rmsd>  (93) 
2.4431709664812864

>  <meeko>  (93) 
{"free_energy": -6.0, "intermolecular_energy": -9.58, "internal_energy": -2.3, "cluster_size": 5, "cluster_id": 3, "rank_in_cluster": 2}

>  <energy>  (93) 
-6.16

>  <cluster_rmsd>  (93) 
0.0

>  <cluster>  (93) 
7

$$$$

     RDKit          3D

 57 60  0  0  0  0  0  0  0  0999 V2000
  141.1350   75.3070  221.8160 O   0  0  0  0  0  0  0  0  0  0  0  0
  139.9260   75.5310  222.0870 C   0  0  0  0  0  0  0  0  0  0  0  0
  138.9070   74.5550  222.0240 N   0  0  0  0  0  0  0  0  0  0  0  0
  139.1950   73.1730  221.6290 C   0  0  0  0  0  0  0  0  0  0  0  0
  138.3770   72.2270  222.3960 C   0  0  0  0  0  0  0  0  0  0  0  0
  137.2790   72.7340  222.8720 O   0  0  0  0  0  0  0  0  0  0  0  0
  138.5860   70.8910  222.6890 N   0  0  0  0  0  0  0  0  0  0  0  0
  138.4610   70.0540  221.4480 C   0  0  0  0  0  0  0  0  0  0  0  0
  139.4980   68.9730  221.6040 C   0  0  0  0  0  0  0  0  0  0  0  0
  138.7820   67.7550  222.1530 C   0  0  0  0  0  0  0  0  0  0  0  0
  138.8050   67.8370  223.6450 C   0  0  0  0  0  0  0  0  0  0  0  0
  138.1370   69.0490  224.2270 C   0  0  0  0  0  0  0  0  0  0  0  0
  138.8980   70.3440  223.9550 C   0  0  1  0  0  0  0  0  0  0  0  0
  140.3350   70.1540  224.3150 C   0  0  0  0  0  0  0  0  0  0  0  0
  140.4800   70.6580  225.7410 C   0  0  0  0  0  0  0  0  0  0  0  0
  139.9540   69.9200  226.7880 C   0  0  0  0  0  0  0  0  0  0  0  0
  140.0360   70.3160  228.1050 C   0  0  0  0  0  0  0  0  0  0  0  0
  140.6780   71.5080  228.3610 C   0  0  0  0  0  0  0  0  0  0  0  0
  141.2180   72.2720  227.3270 C   0  0  0  0  0  0  0  0  0  0  0  0
  141.1170   71.8440  226.0220 C   0  0  0  0  0  0  0  0  0  0  0  0
  139.5500   76.8990  222.4940 C   0  0  0  0  0  0  0  0  0  0  0  0
  140.5100   77.8660  222.7140 C   0  0  0  0  0  0  0  0  0  0  0  0
  140.2050   79.1580  223.0950 C   0  0  0  0  0  0  0  0  0  0  0  0
  138.8750   79.4810  223.2610 C   0  0  0  0  0  0  0  0  0  0  0  0
  138.5560   80.7680  223.6420 C   0  0  0  0  0  0  0  0  0  0  0  0
  137.2340   81.1090  223.8110 C   0  0  0  0  0  0  0  0  0  0  0  0
  136.8700   82.7550  224.2950 Cl  0  0  0  0  0  0  0  0  0  0  0  0
  136.2480   80.1630  223.5970 C   0  0  0  0  0  0  0  0  0  0  0  0
  136.5620   78.8590  223.2110 C   0  0  0  0  0  0  0  0  0  0  0  0
  137.9010   78.5080  223.0390 C   0  0  0  0  0  0  0  0  0  0  0  0
  138.2560   77.2520  222.6650 N   0  0  0  0  0  0  0  0  0  0  0  0
  137.9270   74.8260  222.2660 H   0  0  0  0  0  0  0  0  0  0  0  0
  138.9764   73.0518  220.5578 H   0  0  0  0  0  0  0  0  0  0  0  0
  140.2559   72.9640  221.8312 H   0  0  0  0  0  0  0  0  0  0  0  0
  137.4541   69.6170  221.3757 H   0  0  0  0  0  0  0  0  0  0  0  0
  138.6131   70.6449  220.5327 H   0  0  0  0  0  0  0  0  0  0  0  0
  139.9505   68.7388  220.6291 H   0  0  0  0  0  0  0  0  0  0  0  0
  140.3046   69.2944  222.2794 H   0  0  0  0  0  0  0  0  0  0  0  0
  137.7416   67.7416  221.7962 H   0  0  0  0  0  0  0  0  0  0  0  0
  139.2801   66.8347  221.8139 H   0  0  0  0  0  0  0  0  0  0  0  0
  138.2991   66.9450  224.0431 H   0  0  0  0  0  0  0  0  0  0  0  0
  139.8649   67.9043  223.9316 H   0  0  0  0  0  0  0  0  0  0  0  0
  137.1308   69.1367  223.7913 H   0  0  0  0  0  0  0  0  0  0  0  0
  138.1044   68.9120  225.3180 H   0  0  0  0  0  0  0  0  0  0  0  0
  138.5619   71.1584  224.6136 H   0  0  0  0  0  0  0  0  0  0  0  0
  140.6061   69.0895  224.2565 H   0  0  0  0  0  0  0  0  0  0  0  0
  140.9981   70.6979  223.6262 H   0  0  0  0  0  0  0  0  0  0  0  0
  139.4462   68.9719  226.5570 H   0  0  0  0  0  0  0  0  0  0  0  0
  139.6082   69.7079  228.9157 H   0  0  0  0  0  0  0  0  0  0  0  0
  140.7660   71.8629  229.3984 H   0  0  0  0  0  0  0  0  0  0  0  0
  141.7267   73.2204  227.5546 H   0  0  0  0  0  0  0  0  0  0  0  0
  141.5440   72.4481  225.2079 H   0  0  0  0  0  0  0  0  0  0  0  0
  141.5676   77.5949  222.5796 H   0  0  0  0  0  0  0  0  0  0  0  0
  140.9963   79.9040  223.2604 H   0  0  0  0  0  0  0  0  0  0  0  0
  139.3488   81.5122  223.8086 H   0  0  0  0  0  0  0  0  0  0  0  0
  135.1935   80.4444  223.7340 H   0  0  0  0  0  0  0  0  0  0  0  0
  135.7653   78.1190  223.0449 H   0  0  0  0  0  0  0  0  0  0  0  0
  1  2  2  0
  2  3  1  0
  3  4  1  0
  4  5  1  0
  5  6  2  0
  5  7  1  0
  7  8  1  0
  8  9  1  0
  9 10  1  0
 10 11  1  0
 11 12  1  0
 12 13  1  0
 13 14  1  0
 14 15  1  0
 15 16  2  0
 16 17  1  0
 17 18  2  0
 18 19  1  0
 19 20  2  0
  2 21  1  0
 21 22  2  0
 22 23  1  0
 23 24  2  0
 24 25  1  0
 25 26  2  0
 26 27  1  0
 26 28  1  0
 28 29  2  0
 29 30  1  0
 30 31  2  0
 13  7  1  0
 20 15  1  0
 31 21  1  0
 30 24  1  0
  3 32  1  0
  4 33  1  0
  4 34  1  0
  8 35  1  0
  8 36  1  0
  9 37  1  0
  9 38  1  0
 10 39  1  0
 10 40  1  0
 11 41  1  0
 11 42  1  0
 12 43  1  0
 12 44  1  0
 13 45  1  1
 14 46  1  0
 14 47  1  0
 16 48  1  0
 17 49  1  0
 18 50  1  0
 19 51  1  0
 20 52  1  0
 22 53  1  0
 23 54  1  0
 25 55  1  0
 28 56  1  0
 29 57  1  0
M  END
>  <smiles>  (94) 
O=C(NCC(=O)N1CCCCCC1Cc1ccccc1)c1ccc2cc(Cl)ccc2n1

>  <score_type>  (94) 
oracle

>  <origin>  (94) 
autodockgpu

>  <m_score__min__energy>  (94) 
-7.1699999999999999

>  <m_primary>  (94) 
energy

>  <rmsd>  (94) 
8.361354353289146

>  <m_score__min__rmsd>  (94) 
8.361354353289146

>  <meeko>  (94) 
{"free_energy": -5.57, "intermolecular_energy": -9.15, "internal_energy": -2.24, "cluster_size": 1, "cluster_id": 9, "rank_in_cluster": 1}

>  <energy>  (94) 
-6.14

>  <cluster_rmsd>  (94) 
1.2

>  <cluster>  (94) 
7

$$$$

     RDKit          3D

 57 60  0  0  0  0  0  0  0  0999 V2000
  138.7790   71.6770  221.0030 O   0  0  0  0  0  0  0  0  0  0  0  0
  139.1110   72.2030  222.0980 C   0  0  0  0  0  0  0  0  0  0  0  0
  139.2270   73.5960  222.3030 N   0  0  0  0  0  0  0  0  0  0  0  0
  138.9620   74.5520  221.2240 C   0  0  0  0  0  0  0  0  0  0  0  0
  139.9400   74.4040  220.1400 C   0  0  0  0  0  0  0  0  0  0  0  0
  139.5720   73.5890  219.1960 O   0  0  0  0  0  0  0  0  0  0  0  0
  141.1820   74.9890  219.9640 N   0  0  0  0  0  0  0  0  0  0  0  0
  142.0730   74.0960  219.1490 C   0  0  0  0  0  0  0  0  0  0  0  0
  143.2020   73.7270  220.0750 C   0  0  0  0  0  0  0  0  0  0  0  0
  144.1350   74.9200  220.1250 C   0  0  0  0  0  0  0  0  0  0  0  0
  143.6880   75.9030  219.0910 C   0  0  0  0  0  0  0  0  0  0  0  0
  142.6610   76.8880  219.5560 C   0  0  0  0  0  0  0  0  0  0  0  0
  141.5940   76.2530  220.4440 C   0  0  1  0  0  0  0  0  0  0  0  0
  140.5490   77.2710  220.7590 C   0  0  0  0  0  0  0  0  0  0  0  0
  141.1750   78.2160  221.7710 C   0  0  0  0  0  0  0  0  0  0  0  0
  141.7150   79.4190  221.3480 C   0  0  0  0  0  0  0  0  0  0  0  0
  142.3080   80.3210  222.2020 C   0  0  0  0  0  0  0  0  0  0  0  0
  142.3520   79.9830  223.5370 C   0  0  0  0  0  0  0  0  0  0  0  0
  141.8160   78.7790  223.9930 C   0  0  0  0  0  0  0  0  0  0  0  0
  141.2300   77.9010  223.1090 C   0  0  0  0  0  0  0  0  0  0  0  0
  139.3960   71.3100  223.2380 C   0  0  0  0  0  0  0  0  0  0  0  0
  139.0780   69.9680  223.1870 C   0  0  0  0  0  0  0  0  0  0  0  0
  139.3270   69.0950  224.2280 C   0  0  0  0  0  0  0  0  0  0  0  0
  139.9200   69.6030  225.3640 C   0  0  0  0  0  0  0  0  0  0  0  0
  140.1730   68.7430  226.4120 C   0  0  0  0  0  0  0  0  0  0  0  0
  140.7640   69.2320  227.5530 C   0  0  0  0  0  0  0  0  0  0  0  0
  141.0710   68.1050  228.8630 Cl  0  0  0  0  0  0  0  0  0  0  0  0
  141.0950   70.5730  227.6350 C   0  0  0  0  0  0  0  0  0  0  0  0
  140.8420   71.4500  226.5800 C   0  0  0  0  0  0  0  0  0  0  0  0
  140.2420   70.9590  225.4200 C   0  0  0  0  0  0  0  0  0  0  0  0
  139.9760   71.7730  224.3670 N   0  0  0  0  0  0  0  0  0  0  0  0
  139.5080   73.9500  223.2450 H   0  0  0  0  0  0  0  0  0  0  0  0
  137.9526   74.3737  220.8249 H   0  0  0  0  0  0  0  0  0  0  0  0
  139.0404   75.5710  221.6308 H   0  0  0  0  0  0  0  0  0  0  0  0
  141.5283   73.1969  218.8252 H   0  0  0  0  0  0  0  0  0  0  0  0
  142.4319   74.5914  218.2348 H   0  0  0  0  0  0  0  0  0  0  0  0
  142.8116   73.5092  221.0801 H   0  0  0  0  0  0  0  0  0  0  0  0
  143.7280   72.8293  219.7179 H   0  0  0  0  0  0  0  0  0  0  0  0
  144.0948   75.3833  221.1219 H   0  0  0  0  0  0  0  0  0  0  0  0
  145.1697   74.6031  219.9274 H   0  0  0  0  0  0  0  0  0  0  0  0
  144.5702   76.4650  218.7506 H   0  0  0  0  0  0  0  0  0  0  0  0
  143.2105   75.3145  218.2937 H   0  0  0  0  0  0  0  0  0  0  0  0
  143.1670   77.6809  220.1263 H   0  0  0  0  0  0  0  0  0  0  0  0
  142.1560   77.2869  218.6639 H   0  0  0  0  0  0  0  0  0  0  0  0
  141.9991   75.9709  221.4270 H   0  0  0  0  0  0  0  0  0  0  0  0
  140.2638   77.8198  219.8493 H   0  0  0  0  0  0  0  0  0  0  0  0
  139.6370   76.8019  221.1568 H   0  0  0  0  0  0  0  0  0  0  0  0
  141.6677   79.6658  220.2771 H   0  0  0  0  0  0  0  0  0  0  0  0
  142.7279   81.2692  221.8351 H   0  0  0  0  0  0  0  0  0  0  0  0
  142.8176   80.6742  224.2550 H   0  0  0  0  0  0  0  0  0  0  0  0
  141.8616   78.5297  225.0634 H   0  0  0  0  0  0  0  0  0  0  0  0
  140.8077   76.9520  223.4710 H   0  0  0  0  0  0  0  0  0  0  0  0
  138.6043   69.5755  222.2751 H   0  0  0  0  0  0  0  0  0  0  0  0
  139.0611   68.0303  224.1531 H   0  0  0  0  0  0  0  0  0  0  0  0
  139.9052   67.6788  226.3360 H   0  0  0  0  0  0  0  0  0  0  0  0
  141.5677   70.9557  228.5516 H   0  0  0  0  0  0  0  0  0  0  0  0
  141.1116   72.5133  226.6615 H   0  0  0  0  0  0  0  0  0  0  0  0
  1  2  2  0
  2  3  1  0
  3  4  1  0
  4  5  1  0
  5  6  2  0
  5  7  1  0
  7  8  1  0
  8  9  1  0
  9 10  1  0
 10 11  1  0
 11 12  1  0
 12 13  1  0
 13 14  1  0
 14 15  1  0
 15 16  2  0
 16 17  1  0
 17 18  2  0
 18 19  1  0
 19 20  2  0
  2 21  1  0
 21 22  2  0
 22 23  1  0
 23 24  2  0
 24 25  1  0
 25 26  2  0
 26 27  1  0
 26 28  1  0
 28 29  2  0
 29 30  1  0
 30 31  2  0
 13  7  1  0
 20 15  1  0
 31 21  1  0
 30 24  1  0
  3 32  1  0
  4 33  1  0
  4 34  1  0
  8 35  1  0
  8 36  1  0
  9 37  1  0
  9 38  1  0
 10 39  1  0
 10 40  1  0
 11 41  1  0
 11 42  1  0
 12 43  1  0
 12 44  1  0
 13 45  1  1
 14 46  1  0
 14 47  1  0
 16 48  1  0
 17 49  1  0
 18 50  1  0
 19 51  1  0
 20 52  1  0
 22 53  1  0
 23 54  1  0
 25 55  1  0
 28 56  1  0
 29 57  1  0
M  END
>  <smiles>  (95) 
O=C(NCC(=O)N1CCCCCC1Cc1ccccc1)c1ccc2cc(Cl)ccc2n1

>  <score_type>  (95) 
oracle

>  <origin>  (95) 
autodockgpu

>  <m_score__min__energy>  (95) 
-7.1699999999999999

>  <m_primary>  (95) 
energy

>  <rmsd>  (95) 
2.096501299252395

>  <m_score__min__rmsd>  (95) 
2.096501299252395

>  <meeko>  (95) 
{"free_energy": -6.54, "intermolecular_energy": -10.12, "internal_energy": -1.93, "cluster_size": 19, "cluster_id": 1, "rank_in_cluster": 7}

>  <energy>  (95) 
-6.09

>  <cluster_rmsd>  (95) 
0.0

>  <cluster>  (95) 
8

$$$$

     RDKit          3D

 57 60  0  0  0  0  0  0  0  0999 V2000
  140.1960   71.9000  220.6730 O   0  0  0  0  0  0  0  0  0  0  0  0
  140.0770   72.4060  221.8210 C   0  0  0  0  0  0  0  0  0  0  0  0
  139.9380   73.7900  222.0640 N   0  0  0  0  0  0  0  0  0  0  0  0
  139.9230   74.7620  220.9660 C   0  0  0  0  0  0  0  0  0  0  0  0
  140.6650   75.9750  221.3290 C   0  0  0  0  0  0  0  0  0  0  0  0
  140.6980   76.2190  222.6050 O   0  0  0  0  0  0  0  0  0  0  0  0
  141.3300   76.8920  220.5340 N   0  0  0  0  0  0  0  0  0  0  0  0
  141.4590   78.2090  221.2460 C   0  0  0  0  0  0  0  0  0  0  0  0
  140.8690   79.2200  220.2980 C   0  0  0  0  0  0  0  0  0  0  0  0
  142.0200   79.7870  219.4920 C   0  0  0  0  0  0  0  0  0  0  0  0
  142.1640   78.9690  218.2490 C   0  0  0  0  0  0  0  0  0  0  0  0
  141.3640   77.7010  218.2310 C   0  0  0  0  0  0  0  0  0  0  0  0
  141.8520   76.6650  219.2400 C   0  0  1  0  0  0  0  0  0  0  0  0
  143.3270   76.4880  219.0880 C   0  0  0  0  0  0  0  0  0  0  0  0
  143.6410   75.1040  219.6300 C   0  0  0  0  0  0  0  0  0  0  0  0
  142.8050   74.0420  219.3320 C   0  0  0  0  0  0  0  0  0  0  0  0
  143.0180   72.7620  219.7950 C   0  0  0  0  0  0  0  0  0  0  0  0
  144.1230   72.5600  220.5910 C   0  0  0  0  0  0  0  0  0  0  0  0
  144.9840   73.6110  220.9080 C   0  0  0  0  0  0  0  0  0  0  0  0
  144.7400   74.8770  220.4270 C   0  0  0  0  0  0  0  0  0  0  0  0
  140.0820   71.4960  222.9830 C   0  0  0  0  0  0  0  0  0  0  0  0
  139.5750   70.2160  222.8880 C   0  0  0  0  0  0  0  0  0  0  0  0
  139.5600   69.3310  223.9470 C   0  0  0  0  0  0  0  0  0  0  0  0
  140.0790   69.7610  225.1500 C   0  0  0  0  0  0  0  0  0  0  0  0
  140.0700   68.8870  226.2170 C   0  0  0  0  0  0  0  0  0  0  0  0
  140.5840   69.2980  227.4250 C   0  0  0  0  0  0  0  0  0  0  0  0
  140.5550   68.1570  228.7570 Cl  0  0  0  0  0  0  0  0  0  0  0  0
  141.1010   70.5750  227.5520 C   0  0  0  0  0  0  0  0  0  0  0  0
  141.1140   71.4650  226.4780 C   0  0  0  0  0  0  0  0  0  0  0  0
  140.5930   71.0530  225.2510 C   0  0  0  0  0  0  0  0  0  0  0  0
  140.5840   71.8830  224.1770 N   0  0  0  0  0  0  0  0  0  0  0  0
  139.8440   74.1270  223.0490 H   0  0  0  0  0  0  0  0  0  0  0  0
  140.3868   74.3086  220.0776 H   0  0  0  0  0  0  0  0  0  0  0  0
  138.8792   75.0386  220.7563 H   0  0  0  0  0  0  0  0  0  0  0  0
  140.8996   78.1936  222.1930 H   0  0  0  0  0  0  0  0  0  0  0  0
  142.5032   78.4411  221.5025 H   0  0  0  0  0  0  0  0  0  0  0  0
  140.1421   78.7342  219.6304 H   0  0  0  0  0  0  0  0  0  0  0  0
  140.3414   80.0145  220.8460 H   0  0  0  0  0  0  0  0  0  0  0  0
  141.8098   80.8338  219.2272 H   0  0  0  0  0  0  0  0  0  0  0  0
  142.9493   79.7541  220.0796 H   0  0  0  0  0  0  0  0  0  0  0  0
  141.8460   79.5857  217.3954 H   0  0  0  0  0  0  0  0  0  0  0  0
  143.2207   78.6676  218.1990 H   0  0  0  0  0  0  0  0  0  0  0  0
  140.3165   77.9458  218.4608 H   0  0  0  0  0  0  0  0  0  0  0  0
  141.4764   77.2590  217.2300 H   0  0  0  0  0  0  0  0  0  0  0  0
  141.4387   75.6677  219.0290 H   0  0  0  0  0  0  0  0  0  0  0  0
  143.6130   76.5573  218.0281 H   0  0  0  0  0  0  0  0  0  0  0  0
  143.8840   77.2679  219.6279 H   0  0  0  0  0  0  0  0  0  0  0  0
  141.9281   74.2290  218.6947 H   0  0  0  0  0  0  0  0  0  0  0  0
  142.3354   71.9379  219.5400 H   0  0  0  0  0  0  0  0  0  0  0  0
  144.3304   71.5535  220.9835 H   0  0  0  0  0  0  0  0  0  0  0  0
  145.8616   73.4269  221.5451 H   0  0  0  0  0  0  0  0  0  0  0  0
  145.4203   75.7040  220.6784 H   0  0  0  0  0  0  0  0  0  0  0  0
  139.1635   69.8855  221.9229 H   0  0  0  0  0  0  0  0  0  0  0  0
  139.1481   68.3172  223.8352 H   0  0  0  0  0  0  0  0  0  0  0  0
  139.6569   67.8739  226.1034 H   0  0  0  0  0  0  0  0  0  0  0  0
  141.5108   70.8955  228.5212 H   0  0  0  0  0  0  0  0  0  0  0  0
  141.5289   72.4768  226.5967 H   0  0  0  0  0  0  0  0  0  0  0  0
  1  2  2  0
  2  3  1  0
  3  4  1  0
  4  5  1  0
  5  6  2  0
  5  7  1  0
  7  8  1  0
  8  9  1  0
  9 10  1  0
 10 11  1  0
 11 12  1  0
 12 13  1  0
 13 14  1  0
 14 15  1  0
 15 16  2  0
 16 17  1  0
 17 18  2  0
 18 19  1  0
 19 20  2  0
  2 21  1  0
 21 22  2  0
 22 23  1  0
 23 24  2  0
 24 25  1  0
 25 26  2  0
 26 27  1  0
 26 28  1  0
 28 29  2  0
 29 30  1  0
 30 31  2  0
 13  7  1  0
 20 15  1  0
 31 21  1  0
 30 24  1  0
  3 32  1  0
  4 33  1  0
  4 34  1  0
  8 35  1  0
  8 36  1  0
  9 37  1  0
  9 38  1  0
 10 39  1  0
 10 40  1  0
 11 41  1  0
 11 42  1  0
 12 43  1  0
 12 44  1  0
 13 45  1  6
 14 46  1  0
 14 47  1  0
 16 48  1  0
 17 49  1  0
 18 50  1  0
 19 51  1  0
 20 52  1  0
 22 53  1  0
 23 54  1  0
 25 55  1  0
 28 56  1  0
 29 57  1  0
M  END
>  <smiles>  (96) 
O=C(NCC(=O)N1CCCCCC1Cc1ccccc1)c1ccc2cc(Cl)ccc2n1

>  <score_type>  (96) 
oracle

>  <origin>  (96) 
autodockgpu

>  <m_score__min__energy>  (96) 
-7.1699999999999999

>  <m_primary>  (96) 
energy

>  <rmsd>  (96) 
2.539943088661688

>  <m_score__min__rmsd>  (96) 
2.539943088661688

>  <meeko>  (96) 
{"free_energy": -6.23, "intermolecular_energy": -9.81, "internal_energy": -2.77, "cluster_size": 10, "cluster_id": 6, "rank_in_cluster": 1}

>  <energy>  (96) 
-5.57

>  <cluster_rmsd>  (96) 
0.0

>  <cluster>  (96) 
9

$$$$

     RDKit          3D

 57 60  0  0  0  0  0  0  0  0999 V2000
  138.7580   71.8140  220.9240 O   0  0  0  0  0  0  0  0  0  0  0  0
  139.2650   72.3070  221.9660 C   0  0  0  0  0  0  0  0  0  0  0  0
  139.5900   73.6730  222.1180 N   0  0  0  0  0  0  0  0  0  0  0  0
  139.3530   74.6400  221.0420 C   0  0  0  0  0  0  0  0  0  0  0  0
  140.4680   75.5880  220.9330 C   0  0  0  0  0  0  0  0  0  0  0  0
  141.1140   75.7820  222.0440 O   0  0  0  0  0  0  0  0  0  0  0  0
  140.9370   76.3010  219.8440 N   0  0  0  0  0  0  0  0  0  0  0  0
  140.0700   77.5000  219.5880 C   0  0  0  0  0  0  0  0  0  0  0  0
  140.9470   78.6850  219.8930 C   0  0  0  0  0  0  0  0  0  0  0  0
  141.4770   79.1920  218.5670 C   0  0  0  0  0  0  0  0  0  0  0  0
  142.5900   78.2910  218.1380 C   0  0  0  0  0  0  0  0  0  0  0  0
  142.1810   76.8850  217.8270 C   0  0  0  0  0  0  0  0  0  0  0  0
  142.0770   75.9980  219.0640 C   0  0  1  0  0  0  0  0  0  0  0  0
  143.4070   75.9400  219.7400 C   0  0  0  0  0  0  0  0  0  0  0  0
  143.6590   74.4720  220.0420 C   0  0  0  0  0  0  0  0  0  0  0  0
  142.6330   73.5530  219.8970 C   0  0  0  0  0  0  0  0  0  0  0  0
  142.7820   72.2100  220.1610 C   0  0  0  0  0  0  0  0  0  0  0  0
  144.0220   71.7890  220.5880 C   0  0  0  0  0  0  0  0  0  0  0  0
  145.0750   72.6920  220.7430 C   0  0  0  0  0  0  0  0  0  0  0  0
  144.8890   74.0270  220.4690 C   0  0  0  0  0  0  0  0  0  0  0  0
  139.5360   71.4010  223.0990 C   0  0  0  0  0  0  0  0  0  0  0  0
  139.2520   70.0530  223.0170 C   0  0  0  0  0  0  0  0  0  0  0  0
  139.4890   69.1680  224.0500 C   0  0  0  0  0  0  0  0  0  0  0  0
  140.0350   69.6710  225.2130 C   0  0  0  0  0  0  0  0  0  0  0  0
  140.2760   68.7980  226.2530 C   0  0  0  0  0  0  0  0  0  0  0  0
  140.8210   69.2810  227.4200 C   0  0  0  0  0  0  0  0  0  0  0  0
  141.1140   68.1400  228.7200 Cl  0  0  0  0  0  0  0  0  0  0  0  0
  141.1180   70.6280  227.5340 C   0  0  0  0  0  0  0  0  0  0  0  0
  140.8760   71.5170  226.4870 C   0  0  0  0  0  0  0  0  0  0  0  0
  140.3240   71.0320  225.3000 C   0  0  0  0  0  0  0  0  0  0  0  0
  140.0700   71.8580  224.2530 N   0  0  0  0  0  0  0  0  0  0  0  0
  140.0080   74.0000  223.0190 H   0  0  0  0  0  0  0  0  0  0  0  0
  139.2455   74.0998  220.0899 H   0  0  0  0  0  0  0  0  0  0  0  0
  138.4357   75.2021  221.2713 H   0  0  0  0  0  0  0  0  0  0  0  0
  139.7406   77.5223  218.5387 H   0  0  0  0  0  0  0  0  0  0  0  0
  139.1583   77.4905  220.2034 H   0  0  0  0  0  0  0  0  0  0  0  0
  140.3611   79.4710  220.3918 H   0  0  0  0  0  0  0  0  0  0  0  0
  141.7710   78.4029  220.5649 H   0  0  0  0  0  0  0  0  0  0  0  0
  140.6747   79.1781  217.8146 H   0  0  0  0  0  0  0  0  0  0  0  0
  141.8408   80.2249  218.6713 H   0  0  0  0  0  0  0  0  0  0  0  0
  143.0483   78.7208  217.2351 H   0  0  0  0  0  0  0  0  0  0  0  0
  143.2815   78.2286  218.9912 H   0  0  0  0  0  0  0  0  0  0  0  0
  141.1994   76.9087  217.3311 H   0  0  0  0  0  0  0  0  0  0  0  0
  142.9613   76.4542  217.1824 H   0  0  0  0  0  0  0  0  0  0  0  0
  141.8658   74.9521  218.7965 H   0  0  0  0  0  0  0  0  0  0  0  0
  144.1908   76.3338  219.0762 H   0  0  0  0  0  0  0  0  0  0  0  0
  143.4203   76.5482  220.6565 H   0  0  0  0  0  0  0  0  0  0  0  0
  141.6518   73.9135  219.5544 H   0  0  0  0  0  0  0  0  0  0  0  0
  141.9475   71.5043  220.0364 H   0  0  0  0  0  0  0  0  0  0  0  0
  144.1850   70.7241  220.8104 H   0  0  0  0  0  0  0  0  0  0  0  0
  146.0573   72.3346  221.0856 H   0  0  0  0  0  0  0  0  0  0  0  0
  145.7208   74.7365  220.5908 H   0  0  0  0  0  0  0  0  0  0  0  0
  138.8162   69.6652  222.0845 H   0  0  0  0  0  0  0  0  0  0  0  0
  139.2507   68.0989  223.9492 H   0  0  0  0  0  0  0  0  0  0  0  0
  140.0356   67.7295  226.1507 H   0  0  0  0  0  0  0  0  0  0  0  0
  141.5543   71.0055  228.4706 H   0  0  0  0  0  0  0  0  0  0  0  0
  141.1166   72.5849  226.5949 H   0  0  0  0  0  0  0  0  0  0  0  0
  1  2  2  0
  2  3  1  0
  3  4  1  0
  4  5  1  0
  5  6  2  0
  5  7  1  0
  7  8  1  0
  8  9  1  0
  9 10  1  0
 10 11  1  0
 11 12  1  0
 12 13  1  0
 13 14  1  0
 14 15  1  0
 15 16  2  0
 16 17  1  0
 17 18  2  0
 18 19  1  0
 19 20  2  0
  2 21  1  0
 21 22  2  0
 22 23  1  0
 23 24  2  0
 24 25  1  0
 25 26  2  0
 26 27  1  0
 26 28  1  0
 28 29  2  0
 29 30  1  0
 30 31  2  0
 13  7  1  0
 20 15  1  0
 31 21  1  0
 30 24  1  0
  3 32  1  0
  4 33  1  0
  4 34  1  0
  8 35  1  0
  8 36  1  0
  9 37  1  0
  9 38  1  0
 10 39  1  0
 10 40  1  0
 11 41  1  0
 11 42  1  0
 12 43  1  0
 12 44  1  0
 13 45  1  6
 14 46  1  0
 14 47  1  0
 16 48  1  0
 17 49  1  0
 18 50  1  0
 19 51  1  0
 20 52  1  0
 22 53  1  0
 23 54  1  0
 25 55  1  0
 28 56  1  0
 29 57  1  0
M  END
>  <smiles>  (97) 
O=C(NCC(=O)N1CCCCCC1Cc1ccccc1)c1ccc2cc(Cl)ccc2n1

>  <score_type>  (97) 
oracle

>  <origin>  (97) 
autodockgpu

>  <m_score__min__energy>  (97) 
-7.1699999999999999

>  <m_primary>  (97) 
energy

>  <rmsd>  (97) 
2.148324690506069

>  <m_score__min__rmsd>  (97) 
2.148324690506069

>  <meeko>  (97) 
{"free_energy": -5.6, "intermolecular_energy": -9.18, "internal_energy": -2.73, "cluster_size": 10, "cluster_id": 6, "rank_in_cluster": 5}

>  <energy>  (97) 
-5.53

>  <cluster_rmsd>  (97) 
0.0

>  <cluster>  (97) 
10

$$$$

     RDKit          3D

 57 60  0  0  0  0  0  0  0  0999 V2000
  139.1030   71.5670  220.8270 O   0  0  0  0  0  0  0  0  0  0  0  0
  139.3690   72.1190  221.9280 C   0  0  0  0  0  0  0  0  0  0  0  0
  139.4870   73.5160  222.1030 N   0  0  0  0  0  0  0  0  0  0  0  0
  139.3040   74.4450  220.9840 C   0  0  0  0  0  0  0  0  0  0  0  0
  140.2480   75.5650  221.0720 C   0  0  0  0  0  0  0  0  0  0  0  0
  140.7350   75.7610  222.2610 O   0  0  0  0  0  0  0  0  0  0  0  0
  140.6990   76.4380  220.0980 N   0  0  0  0  0  0  0  0  0  0  0  0
  139.8970   76.2810  218.8380 C   0  0  0  0  0  0  0  0  0  0  0  0
  140.8660   76.5720  217.7230 C   0  0  0  0  0  0  0  0  0  0  0  0
  141.8580   75.4270  217.6940 C   0  0  0  0  0  0  0  0  0  0  0  0
  142.8810   75.6720  218.7570 C   0  0  0  0  0  0  0  0  0  0  0  0
  142.9160   77.0720  219.2940 C   0  0  0  0  0  0  0  0  0  0  0  0
  141.7480   77.3780  220.2270 C   0  0  1  0  0  0  0  0  0  0  0  0
  141.4170   78.8310  220.1380 C   0  0  0  0  0  0  0  0  0  0  0  0
  141.6620   79.4030  221.5240 C   0  0  0  0  0  0  0  0  0  0  0  0
  141.9360   80.7520  221.6740 C   0  0  0  0  0  0  0  0  0  0  0  0
  142.1800   81.3410  222.8950 C   0  0  0  0  0  0  0  0  0  0  0  0
  142.1430   80.5230  224.0030 C   0  0  0  0  0  0  0  0  0  0  0  0
  141.8700   79.1610  223.8830 C   0  0  0  0  0  0  0  0  0  0  0  0
  141.6310   78.6070  222.6460 C   0  0  0  0  0  0  0  0  0  0  0  0
  139.5680   71.2540  223.1070 C   0  0  0  0  0  0  0  0  0  0  0  0
  139.1610   69.9360  223.1000 C   0  0  0  0  0  0  0  0  0  0  0  0
  139.3280   69.0900  224.1790 C   0  0  0  0  0  0  0  0  0  0  0  0
  139.9300   69.6020  225.3090 C   0  0  0  0  0  0  0  0  0  0  0  0
  140.1020   68.7690  226.3940 C   0  0  0  0  0  0  0  0  0  0  0  0
  140.7010   69.2610  227.5290 C   0  0  0  0  0  0  0  0  0  0  0  0
  140.9030   68.1690  228.8880 Cl  0  0  0  0  0  0  0  0  0  0  0  0
  141.1210   70.5790  227.5680 C   0  0  0  0  0  0  0  0  0  0  0  0
  140.9510   71.4290  226.4740 C   0  0  0  0  0  0  0  0  0  0  0  0
  140.3430   70.9340  225.3200 C   0  0  0  0  0  0  0  0  0  0  0  0
  140.1550   71.7220  224.2310 N   0  0  0  0  0  0  0  0  0  0  0  0
  139.7100   73.8930  223.0520 H   0  0  0  0  0  0  0  0  0  0  0  0
  139.4705   73.9073  220.0389 H   0  0  0  0  0  0  0  0  0  0  0  0
  138.2801   74.8451  221.0239 H   0  0  0  0  0  0  0  0  0  0  0  0
  139.5060   75.2563  218.7533 H   0  0  0  0  0  0  0  0  0  0  0  0
  139.0260   76.9524  218.8153 H   0  0  0  0  0  0  0  0  0  0  0  0
  140.3315   76.6342  216.7636 H   0  0  0  0  0  0  0  0  0  0  0  0
  141.3770   77.5325  217.8853 H   0  0  0  0  0  0  0  0  0  0  0  0
  141.3376   74.4777  217.8890 H   0  0  0  0  0  0  0  0  0  0  0  0
  142.3406   75.3656  216.7074 H   0  0  0  0  0  0  0  0  0  0  0  0
  142.6721   74.9905  219.5948 H   0  0  0  0  0  0  0  0  0  0  0  0
  143.8601   75.4993  218.2863 H   0  0  0  0  0  0  0  0  0  0  0  0
  143.8551   77.2118  219.8494 H   0  0  0  0  0  0  0  0  0  0  0  0
  142.8425   77.7570  218.4365 H   0  0  0  0  0  0  0  0  0  0  0  0
  142.0218   77.2283  221.2818 H   0  0  0  0  0  0  0  0  0  0  0  0
  142.0656   79.3261  219.4003 H   0  0  0  0  0  0  0  0  0  0  0  0
  140.3770   78.9879  219.8159 H   0  0  0  0  0  0  0  0  0  0  0  0
  141.9600   81.3842  220.7741 H   0  0  0  0  0  0  0  0  0  0  0  0
  142.3948   82.4164  222.9816 H   0  0  0  0  0  0  0  0  0  0  0  0
  142.3319   80.9514  224.9984 H   0  0  0  0  0  0  0  0  0  0  0  0
  141.8455   78.5263  224.7811 H   0  0  0  0  0  0  0  0  0  0  0  0
  141.4160   77.5321  222.5546 H   0  0  0  0  0  0  0  0  0  0  0  0
  138.6810   69.5403  222.1928 H   0  0  0  0  0  0  0  0  0  0  0  0
  138.9922   68.0433  224.1382 H   0  0  0  0  0  0  0  0  0  0  0  0
  139.7639   67.7231  226.3518 H   0  0  0  0  0  0  0  0  0  0  0  0
  141.5989   70.9650  228.4805 H   0  0  0  0  0  0  0  0  0  0  0  0
  141.2915   72.4739  226.5210 H   0  0  0  0  0  0  0  0  0  0  0  0
  1  2  2  0
  2  3  1  0
  3  4  1  0
  4  5  1  0
  5  6  2  0
  5  7  1  0
  7  8  1  0
  8  9  1  0
  9 10  1  0
 10 11  1  0
 11 12  1  0
 12 13  1  0
 13 14  1  0
 14 15  1  0
 15 16  2  0
 16 17  1  0
 17 18  2  0
 18 19  1  0
 19 20  2  0
  2 21  1  0
 21 22  2  0
 22 23  1  0
 23 24  2  0
 24 25  1  0
 25 26  2  0
 26 27  1  0
 26 28  1  0
 28 29  2  0
 29 30  1  0
 30 31  2  0
 13  7  1  0
 20 15  1  0
 31 21  1  0
 30 24  1  0
  3 32  1  0
  4 33  1  0
  4 34  1  0
  8 35  1  0
  8 36  1  0
  9 37  1  0
  9 38  1  0
 10 39  1  0
 10 40  1  0
 11 41  1  0
 11 42  1  0
 12 43  1  0
 12 44  1  0
 13 45  1  1
 14 46  1  0
 14 47  1  0
 16 48  1  0
 17 49  1  0
 18 50  1  0
 19 51  1  0
 20 52  1  0
 22 53  1  0
 23 54  1  0
 25 55  1  0
 28 56  1  0
 29 57  1  0
M  END
>  <smiles>  (98) 
O=C(NCC(=O)N1CCCCCC1Cc1ccccc1)c1ccc2cc(Cl)ccc2n1

>  <score_type>  (98) 
oracle

>  <origin>  (98) 
autodockgpu

>  <m_score__min__energy>  (98) 
-7.1699999999999999

>  <m_primary>  (98) 
energy

>  <rmsd>  (98) 
1.2966408088006094

>  <m_score__min__rmsd>  (98) 
1.2966408088006094

>  <meeko>  (98) 
{"free_energy": -6.75, "intermolecular_energy": -10.33, "internal_energy": -2.36, "cluster_size": 19, "cluster_id": 1, "rank_in_cluster": 4}

>  <energy>  (98) 
-5.44

>  <cluster_rmsd>  (98) 
0.0

>  <cluster>  (98) 
11

$$$$

     RDKit          3D

 57 60  0  0  0  0  0  0  0  0999 V2000
  139.4430   71.7330  220.7840 O   0  0  0  0  0  0  0  0  0  0  0  0
  139.5580   72.2550  221.9250 C   0  0  0  0  0  0  0  0  0  0  0  0
  139.5250   73.6460  222.1650 N   0  0  0  0  0  0  0  0  0  0  0  0
  139.3510   74.6070  221.0710 C   0  0  0  0  0  0  0  0  0  0  0  0
  140.0640   75.8580  221.3530 C   0  0  0  0  0  0  0  0  0  0  0  0
  140.0160   76.2320  222.5970 O   0  0  0  0  0  0  0  0  0  0  0  0
  140.7740   76.6960  220.5110 N   0  0  0  0  0  0  0  0  0  0  0  0
  140.5830   78.1300  220.9130 C   0  0  0  0  0  0  0  0  0  0  0  0
  141.8030   78.8440  220.3930 C   0  0  0  0  0  0  0  0  0  0  0  0
  141.4520   79.3640  219.0140 C   0  0  0  0  0  0  0  0  0  0  0  0
  140.5750   78.3550  218.3460 C   0  0  0  0  0  0  0  0  0  0  0  0
  141.2040   77.0040  218.1280 C   0  0  0  0  0  0  0  0  0  0  0  0
  141.5940   76.3050  219.4280 C   0  0  1  0  0  0  0  0  0  0  0  0
  143.0760   76.3720  219.5950 C   0  0  0  0  0  0  0  0  0  0  0  0
  143.5120   74.9830  220.0300 C   0  0  0  0  0  0  0  0  0  0  0  0
  144.8300   74.7550  220.3870 C   0  0  0  0  0  0  0  0  0  0  0  0
  145.3020   73.5220  220.7810 C   0  0  0  0  0  0  0  0  0  0  0  0
  144.3960   72.4850  220.8110 C   0  0  0  0  0  0  0  0  0  0  0  0
  143.0620   72.6850  220.4570 C   0  0  0  0  0  0  0  0  0  0  0  0
  142.6260   73.9310  220.0680 C   0  0  0  0  0  0  0  0  0  0  0  0
  139.7370   71.3560  223.0820 C   0  0  0  0  0  0  0  0  0  0  0  0
  139.4180   70.0160  223.0010 C   0  0  0  0  0  0  0  0  0  0  0  0
  139.5700   69.1400  224.0570 C   0  0  0  0  0  0  0  0  0  0  0  0
  140.0650   69.6420  225.2420 C   0  0  0  0  0  0  0  0  0  0  0  0
  140.2210   68.7770  226.3040 C   0  0  0  0  0  0  0  0  0  0  0  0
  140.7150   69.2600  227.4940 C   0  0  0  0  0  0  0  0  0  0  0  0
  140.9000   68.1290  228.8220 Cl  0  0  0  0  0  0  0  0  0  0  0  0
  141.0450   70.5990  227.6080 C   0  0  0  0  0  0  0  0  0  0  0  0
  140.8900   71.4800  226.5380 C   0  0  0  0  0  0  0  0  0  0  0  0
  140.3900   70.9950  225.3280 C   0  0  0  0  0  0  0  0  0  0  0  0
  140.2210   71.8140  224.2590 N   0  0  0  0  0  0  0  0  0  0  0  0
  139.6280   73.9960  223.1440 H   0  0  0  0  0  0  0  0  0  0  0  0
  139.7451   74.1697  220.1418 H   0  0  0  0  0  0  0  0  0  0  0  0
  138.2789   74.8299  220.9670 H   0  0  0  0  0  0  0  0  0  0  0  0
  139.6702   78.5414  220.4573 H   0  0  0  0  0  0  0  0  0  0  0  0
  140.4692   78.2434  222.0012 H   0  0  0  0  0  0  0  0  0  0  0  0
  142.0642   79.6805  221.0579 H   0  0  0  0  0  0  0  0  0  0  0  0
  142.6685   78.1664  220.3506 H   0  0  0  0  0  0  0  0  0  0  0  0
  140.9184   80.3219  219.1015 H   0  0  0  0  0  0  0  0  0  0  0  0
  142.3661   79.5245  218.4235 H   0  0  0  0  0  0  0  0  0  0  0  0
  139.6791   78.2169  218.9691 H   0  0  0  0  0  0  0  0  0  0  0  0
  140.3561   78.7553  217.3451 H   0  0  0  0  0  0  0  0  0  0  0  0
  140.4863   76.3670  217.5903 H   0  0  0  0  0  0  0  0  0  0  0  0
  142.1279   77.1628  217.5525 H   0  0  0  0  0  0  0  0  0  0  0  0
  141.3767   75.2273  219.3914 H   0  0  0  0  0  0  0  0  0  0  0  0
  143.5560   76.6425  218.6430 H   0  0  0  0  0  0  0  0  0  0  0  0
  143.3640   77.1344  220.3338 H   0  0  0  0  0  0  0  0  0  0  0  0
  145.5345   75.5991  220.3545 H   0  0  0  0  0  0  0  0  0  0  0  0
  146.3557   73.3724  221.0593 H   0  0  0  0  0  0  0  0  0  0  0  0
  144.7299   71.4832  221.1191 H   0  0  0  0  0  0  0  0  0  0  0  0
  142.3550   71.8429  220.4889 H   0  0  0  0  0  0  0  0  0  0  0  0
  141.5733   74.0853  219.7885 H   0  0  0  0  0  0  0  0  0  0  0  0
  139.0240   69.6275  222.0503 H   0  0  0  0  0  0  0  0  0  0  0  0
  139.3051   68.0771  223.9565 H   0  0  0  0  0  0  0  0  0  0  0  0
  139.9541   67.7148  226.2015 H   0  0  0  0  0  0  0  0  0  0  0  0
  141.4381   70.9768  228.5634 H   0  0  0  0  0  0  0  0  0  0  0  0
  141.1578   72.5415  226.6458 H   0  0  0  0  0  0  0  0  0  0  0  0
  1  2  2  0
  2  3  1  0
  3  4  1  0
  4  5  1  0
  5  6  2  0
  5  7  1  0
  7  8  1  0
  8  9  1  0
  9 10  1  0
 10 11  1  0
 11 12  1  0
 12 13  1  0
 13 14  1  0
 14 15  1  0
 15 16  2  0
 16 17  1  0
 17 18  2  0
 18 19  1  0
 19 20  2  0
  2 21  1  0
 21 22  2  0
 22 23  1  0
 23 24  2  0
 24 25  1  0
 25 26  2  0
 26 27  1  0
 26 28  1  0
 28 29  2  0
 29 30  1  0
 30 31  2  0
 13  7  1  0
 20 15  1  0
 31 21  1  0
 30 24  1  0
  3 32  1  0
  4 33  1  0
  4 34  1  0
  8 35  1  0
  8 36  1  0
  9 37  1  0
  9 38  1  0
 10 39  1  0
 10 40  1  0
 11 41  1  0
 11 42  1  0
 12 43  1  0
 12 44  1  0
 13 45  1  6
 14 46  1  0
 14 47  1  0
 16 48  1  0
 17 49  1  0
 18 50  1  0
 19 51  1  0
 20 52  1  0
 22 53  1  0
 23 54  1  0
 25 55  1  0
 28 56  1  0
 29 57  1  0
M  END
>  <smiles>  (99) 
O=C(NCC(=O)N1CCCCCC1Cc1ccccc1)c1ccc2cc(Cl)ccc2n1

>  <score_type>  (99) 
oracle

>  <origin>  (99) 
autodockgpu

>  <m_score__min__energy>  (99) 
-7.1699999999999999

>  <m_primary>  (99) 
energy

>  <rmsd>  (99) 
2.391885576089881

>  <m_score__min__rmsd>  (99) 
2.391885576089881

>  <meeko>  (99) 
{"free_energy": -6.02, "intermolecular_energy": -9.6, "internal_energy": -2.42, "cluster_size": 10, "cluster_id": 6, "rank_in_cluster": 3}

>  <energy>  (99) 
-4.3

>  <cluster_rmsd>  (99) 
0.0

>  <cluster>  (99) 
12

$$$$

     RDKit          3D

 57 60  0  0  0  0  0  0  0  0999 V2000
  138.6480   71.8270  220.8930 O   0  0  0  0  0  0  0  0  0  0  0  0
  139.0510   72.3470  221.9670 C   0  0  0  0  0  0  0  0  0  0  0  0
  139.2180   73.7360  222.1590 N   0  0  0  0  0  0  0  0  0  0  0  0
  138.9260   74.6970  221.0910 C   0  0  0  0  0  0  0  0  0  0  0  0
  139.9150   74.5980  220.0120 C   0  0  0  0  0  0  0  0  0  0  0  0
  139.4310   74.8000  218.8230 O   0  0  0  0  0  0  0  0  0  0  0  0
  141.2720   74.3280  220.0600 N   0  0  0  0  0  0  0  0  0  0  0  0
  141.5210   72.8570  219.8850 C   0  0  0  0  0  0  0  0  0  0  0  0
  142.2480   72.4360  221.1350 C   0  0  0  0  0  0  0  0  0  0  0  0
  143.7220   72.3820  220.7880 C   0  0  0  0  0  0  0  0  0  0  0  0
  144.2590   73.7760  220.8230 C   0  0  0  0  0  0  0  0  0  0  0  0
  143.6710   74.7060  219.8080 C   0  0  0  0  0  0  0  0  0  0  0  0
  142.3150   75.2680  220.2260 C   0  0  1  0  0  0  0  0  0  0  0  0
  142.1460   76.6300  219.6370 C   0  0  0  0  0  0  0  0  0  0  0  0
  141.7280   77.5340  220.7850 C   0  0  0  0  0  0  0  0  0  0  0  0
  141.1700   76.9830  221.9260 C   0  0  0  0  0  0  0  0  0  0  0  0
  140.7570   77.7370  223.0020 C   0  0  0  0  0  0  0  0  0  0  0  0
  140.9210   79.1020  222.9100 C   0  0  0  0  0  0  0  0  0  0  0  0
  141.4800   79.6850  221.7730 C   0  0  0  0  0  0  0  0  0  0  0  0
  141.8810   78.8990  220.7170 C   0  0  0  0  0  0  0  0  0  0  0  0
  139.3680   71.4490  223.0940 C   0  0  0  0  0  0  0  0  0  0  0  0
  139.0650   70.1030  223.0410 C   0  0  0  0  0  0  0  0  0  0  0  0
  139.3440   69.2260  224.0700 C   0  0  0  0  0  0  0  0  0  0  0  0
  139.9530   69.7340  225.1980 C   0  0  0  0  0  0  0  0  0  0  0  0
  140.2370   68.8690  226.2340 C   0  0  0  0  0  0  0  0  0  0  0  0
  140.8450   69.3570  227.3680 C   0  0  0  0  0  0  0  0  0  0  0  0
  141.1900   68.2250  228.6630 Cl  0  0  0  0  0  0  0  0  0  0  0  0
  141.1630   70.7010  227.4520 C   0  0  0  0  0  0  0  0  0  0  0  0
  140.8790   71.5830  226.4090 C   0  0  0  0  0  0  0  0  0  0  0  0
  140.2620   71.0930  225.2570 C   0  0  0  0  0  0  0  0  0  0  0  0
  139.9660   71.9110  224.2150 N   0  0  0  0  0  0  0  0  0  0  0  0
  139.5580   74.0850  223.0840 H   0  0  0  0  0  0  0  0  0  0  0  0
  137.9259   74.4889  220.6829 H   0  0  0  0  0  0  0  0  0  0  0  0
  138.9659   75.7125  221.5118 H   0  0  0  0  0  0  0  0  0  0  0  0
  140.5702   72.3123  219.7881 H   0  0  0  0  0  0  0  0  0  0  0  0
  142.1008   72.6403  218.9757 H   0  0  0  0  0  0  0  0  0  0  0  0
  142.0747   73.1673  221.9382 H   0  0  0  0  0  0  0  0  0  0  0  0
  141.8901   71.4579  221.4889 H   0  0  0  0  0  0  0  0  0  0  0  0
  144.2550   71.7587  221.5211 H   0  0  0  0  0  0  0  0  0  0  0  0
  143.8622   71.9448  219.7884 H   0  0  0  0  0  0  0  0  0  0  0  0
  144.0623   74.1925  221.8219 H   0  0  0  0  0  0  0  0  0  0  0  0
  145.3302   73.6989  220.5853 H   0  0  0  0  0  0  0  0  0  0  0  0
  144.3664   75.5449  219.6574 H   0  0  0  0  0  0  0  0  0  0  0  0
  143.5164   74.1286  218.8846 H   0  0  0  0  0  0  0  0  0  0  0  0
  142.2630   75.4354  221.3119 H   0  0  0  0  0  0  0  0  0  0  0  0
  143.0942   76.9786  219.2018 H   0  0  0  0  0  0  0  0  0  0  0  0
  141.3976   76.6303  218.8309 H   0  0  0  0  0  0  0  0  0  0  0  0
  141.0508   75.8906  221.9755 H   0  0  0  0  0  0  0  0  0  0  0  0
  140.3159   77.2703  223.8951 H   0  0  0  0  0  0  0  0  0  0  0  0
  140.6059   79.7424  223.7470 H   0  0  0  0  0  0  0  0  0  0  0  0
  141.6008   80.7771  221.7201 H   0  0  0  0  0  0  0  0  0  0  0  0
  142.3224   79.3609  219.8216 H   0  0  0  0  0  0  0  0  0  0  0  0
  138.5782   69.7108  222.1359 H   0  0  0  0  0  0  0  0  0  0  0  0
  139.0892   68.1587  223.9927 H   0  0  0  0  0  0  0  0  0  0  0  0
  139.9807   67.8022  226.1548 H   0  0  0  0  0  0  0  0  0  0  0  0
  141.6505   71.0825  228.3613 H   0  0  0  0  0  0  0  0  0  0  0  0
  141.1376   72.6488  226.4933 H   0  0  0  0  0  0  0  0  0  0  0  0
  1  2  2  0
  2  3  1  0
  3  4  1  0
  4  5  1  0
  5  6  2  0
  5  7  1  0
  7  8  1  0
  8  9  1  0
  9 10  1  0
 10 11  1  0
 11 12  1  0
 12 13  1  0
 13 14  1  0
 14 15  1  0
 15 16  2  0
 16 17  1  0
 17 18  2  0
 18 19  1  0
 19 20  2  0
  2 21  1  0
 21 22  2  0
 22 23  1  0
 23 24  2  0
 24 25  1  0
 25 26  2  0
 26 27  1  0
 26 28  1  0
 28 29  2  0
 29 30  1  0
 30 31  2  0
 13  7  1  0
 20 15  1  0
 31 21  1  0
 30 24  1  0
  3 32  1  0
  4 33  1  0
  4 34  1  0
  8 35  1  0
  8 36  1  0
  9 37  1  0
  9 38  1  0
 10 39  1  0
 10 40  1  0
 11 41  1  0
 11 42  1  0
 12 43  1  0
 12 44  1  0
 13 45  1  1
 14 46  1  0
 14 47  1  0
 16 48  1  0
 17 49  1  0
 18 50  1  0
 19 51  1  0
 20 52  1  0
 22 53  1  0
 23 54  1  0
 25 55  1  0
 28 56  1  0
 29 57  1  0
M  END
>  <smiles>  (100) 
O=C(NCC(=O)N1CCCCCC1Cc1ccccc1)c1ccc2cc(Cl)ccc2n1

>  <score_type>  (100) 
oracle

>  <origin>  (100) 
autodockgpu

>  <m_score__min__energy>  (100) 
-7.1699999999999999

>  <m_primary>  (100) 
energy

>  <rmsd>  (100) 
2.386933995320992

>  <m_score__min__rmsd>  (100) 
2.386933995320992

>  <meeko>  (100) 
{"free_energy": -5.98, "intermolecular_energy": -9.56, "internal_energy": -2.49, "cluster_size": 5, "cluster_id": 3, "rank_in_cluster": 3}

>  <energy>  (100) 
-4.2

>  <cluster_rmsd>  (100) 
1.05

>  <cluster>  (100) 
12

$$$$
